data_functionalizedCrystal
_audit_creation_method	'MofGen! by Chris Wilmer'
_symmetry_space_group_name_H-M	'P1'
_symmetry_Int_Tables_number	1
_symmetry_cell_setting	triclinic
loop_
_symmetry_equiv_pos_as_xyz
  x,y,z
_cell_length_a	16.959455
_cell_length_b	16.959453
_cell_length_c	16.959447
_cell_angle_alpha	89.968936
_cell_angle_beta	89.985678
_cell_angle_gamma	90.016935
loop_
_atom_site_label
_atom_site_type_symbol
_atom_site_fract_x
_atom_site_fract_y
_atom_site_fract_z
Zn1	Zn	1.208384	-0.314730	-0.446905
Zn2	Zn	1.208307	-0.446923	-0.314724
Zn3	Zn	1.076213	-0.314755	-0.314742
Zn4	Zn	1.076178	-0.446864	-0.446863
O5	O	1.142270	-0.380818	-0.380808
O6	O	1.318985	-0.332280	-0.429381
O7	O	1.190767	-0.429426	-0.204116
O8	O	1.093793	-0.204141	-0.332299
O9	O	1.318928	-0.429402	-0.332268
O10	O	1.190898	-0.204123	-0.429398
O11	O	1.093718	-0.332323	-0.204129
O12	O	0.965597	-0.332265	-0.332258
O13	O	1.093733	-0.429301	-0.557479
O14	O	0.965571	-0.429325	-0.429327
O15	O	1.190864	-0.332223	-0.557510
O16	O	1.190733	-0.557526	-0.332228
O17	O	1.093658	-0.557482	-0.429310
C18	C	1.142204	-0.586184	-0.380780
C19	C	1.142249	-0.674041	-0.380794
C20	C	0.936904	-0.380792	-0.380790
C21	C	0.849048	-0.380800	-0.380801
C22	C	1.192898	-1.045448	-0.431463
C23	C	1.091863	-1.045584	-0.330271
C24	C	1.091834	-0.963039	-0.330253
C25	C	1.142337	-0.921694	-0.380842
C26	C	1.192869	-0.962895	-0.431449
C27	C	1.041297	-0.921831	-0.279652
C28	C	1.041265	-0.839280	-0.279633
C29	C	1.091773	-0.797934	-0.330218
C30	C	1.142307	-0.839140	-0.380827
C31	C	1.192810	-0.797796	-0.431415
C32	C	1.243349	-0.839000	-0.482021
C33	C	1.243376	-0.921549	-0.482034
C34	C	1.091746	-0.715386	-0.330205
C35	C	1.192781	-0.715242	-0.431401
C36	C	0.477561	-0.330238	-0.330370
C37	C	0.477583	-0.431463	-0.431292
C38	C	0.560129	-0.431452	-0.431287
C39	C	0.601395	-0.380834	-0.380822
C40	C	0.560114	-0.330226	-0.330362
C41	C	0.601415	-0.482064	-0.481740
C42	C	0.683966	-0.482055	-0.481737
C43	C	0.725233	-0.431432	-0.431275
C44	C	0.683948	-0.380822	-0.380814
C45	C	0.725214	-0.330204	-0.330350
C46	C	0.683930	-0.279589	-0.279892
C47	C	0.601382	-0.279603	-0.279901
C48	C	0.807782	-0.431418	-0.431266
C49	C	0.807767	-0.330193	-0.330341
C50	C	1.348439	-0.380845	-0.380827
C51	C	1.436295	-0.380856	-0.380835
C52	C	1.142303	-0.380753	-0.586977
C53	C	1.142317	-0.380725	-0.674833
C54	C	1.142358	-0.174650	-0.380855
C55	C	1.142395	-0.086793	-0.380875
C56	C	1.091840	-0.431185	-1.046296
C57	C	1.192984	-0.330097	-1.046323
C58	C	1.192963	-0.330114	-0.963777
C59	C	1.142380	-0.380668	-0.922487
C60	C	1.091819	-0.431205	-0.963742
C61	C	1.243529	-0.279584	-0.922515
C62	C	1.243511	-0.279599	-0.839964
C63	C	1.192923	-0.330149	-0.798672
C64	C	1.142359	-0.380688	-0.839933
C65	C	1.091777	-0.431242	-0.798643
C66	C	1.041208	-0.481777	-0.839902
C67	C	1.041232	-0.481756	-0.922450
C68	C	1.192900	-0.330171	-0.716124
C69	C	1.091756	-0.431262	-0.716089
C70	C	1.142283	-0.380826	-0.175442
C71	C	1.142422	-0.380631	-0.087586
H72	H	1.233909	-0.681584	-0.472593
C73	C	1.036310	-1.091057	-0.274630
H74	H	1.006207	-1.054695	-0.244493
H75	H	1.066577	-1.123270	-0.240226
H76	H	1.001858	-1.123255	-0.304850
C77	C	1.298899	-0.793516	-0.537664
H78	H	1.291641	-0.738452	-0.530402
H79	H	1.287307	-0.807013	-0.590766
H80	H	1.352024	-0.807011	-0.526139
H81	H	1.050558	-0.472422	-0.682476
C82	C	0.985617	-0.537345	-0.967833
H83	H	0.955483	-0.567452	-0.931421
H84	H	1.015851	-0.571780	-1.000022
H85	H	0.951196	-0.507093	-1.000046
C86	C	1.298954	-0.966874	-0.537701
H87	H	1.291730	-1.021958	-0.530471
H88	H	1.352068	-0.953326	-0.526185
H89	H	1.287337	-0.953312	-0.590798
C90	C	1.248518	-0.274593	-0.670738
H91	H	1.241265	-0.281847	-0.615662
H92	H	1.236984	-0.221479	-0.684284
H93	H	1.301627	-0.286177	-0.684262
C94	C	1.248616	-0.274489	-1.091739
H95	H	1.241382	-0.281711	-1.146812
H96	H	1.301718	-0.286058	-1.078209
H97	H	1.237054	-0.221381	-1.078227
H98	H	1.234048	-1.079001	-0.472663
C99	C	0.555969	-0.223945	-0.224393
H100	H	0.500896	-0.231211	-0.231619
H101	H	0.569502	-0.170845	-0.236046
H102	H	0.569482	-0.235458	-0.171262
H103	H	0.567810	-0.523280	-0.522820
C104	C	0.985684	-0.793962	-0.223963
H105	H	0.955615	-0.830409	-0.193833
H106	H	0.951212	-0.761755	-0.254156
H107	H	1.015941	-0.761771	-0.189541
H108	H	0.841360	-0.288968	-0.289251
C109	C	0.985744	-0.967306	-0.224013
H110	H	0.955635	-0.930945	-0.193880
H111	H	1.016012	-0.999514	-0.189605
H112	H	0.951297	-0.999508	-0.254235
C113	C	1.036221	-0.486772	-1.091676
H114	H	1.043478	-0.479526	-1.146753
H115	H	0.983114	-0.475203	-1.078147
H116	H	1.047771	-0.539888	-1.078131
H117	H	0.717540	-0.238379	-0.238800
C118	C	1.036159	-0.670064	-0.274549
H119	H	1.006086	-0.706510	-0.244422
H120	H	1.001691	-0.637860	-0.304750
H121	H	1.066409	-0.637870	-0.240123
H122	H	0.443944	-0.289026	-0.289291
C123	C	0.432193	-0.487139	-0.486798
H124	H	0.377117	-0.479894	-0.479579
H125	H	0.445710	-0.540232	-0.475140
H126	H	0.445739	-0.475626	-0.539929
H127	H	1.284715	-0.238430	-0.956140
H128	H	1.284686	-0.238450	-0.806378
H129	H	0.717572	-0.523268	-0.522823
H130	H	1.000027	-0.522942	-0.806273
H131	H	0.841391	-0.472630	-0.472346
