data_functionalizedCrystal
_audit_creation_method	'MofGen! by Chris Wilmer'
_symmetry_space_group_name_H-M	'P1'
_symmetry_Int_Tables_number	1
_symmetry_cell_setting	triclinic
loop_
_symmetry_equiv_pos_as_xyz
  x,y,z
_cell_length_a	14.560432
_cell_length_b	12.970454
_cell_length_c	12.970454
_cell_angle_alpha	60.000396
_cell_angle_beta	90.000755
_cell_angle_gamma	60.000061
loop_
_atom_site_label
_atom_site_type_symbol
_atom_site_fract_x
_atom_site_fract_y
_atom_site_fract_z
Zr1	Zr	0.884772	1.128494	-0.135264
O2	O	0.738125	1.343585	-0.299890
O3	O	0.929727	0.913404	-0.084798
O4	O	0.929729	1.128492	-0.299886
O5	O	0.738122	1.128498	0.084864
O6	O	1.080870	1.128489	-0.299882
O7	O	0.738123	1.128497	-0.084802
O8	O	1.080866	0.743737	0.084871
O9	O	0.738126	1.513251	-0.299889
O10	O	1.061695	1.001871	-0.063271
O11	O	0.948899	1.001874	0.063346
O12	O	0.948902	1.255112	-0.189892
O13	O	0.836106	1.255115	-0.063275
Zr14	Zr	1.125823	1.128491	0.135342
Zr15	Zr	1.125825	1.128489	-0.135257
Zr16	Zr	0.884771	1.128495	0.135335
Zr17	Zr	0.884773	1.399092	-0.135262
Zr18	Zr	1.125822	0.857893	0.135339
O19	O	1.080868	1.343580	0.084876
O20	O	1.080871	1.343578	-0.299880
O21	O	0.738123	1.343587	0.084866
O22	O	1.272470	0.913400	0.299968
O23	O	1.272472	0.913398	-0.084789
O24	O	0.929725	0.913406	0.299958
O25	O	1.272473	1.128487	-0.084787
O26	O	1.080866	1.128493	0.299964
O27	O	0.929725	1.128495	0.299960
O28	O	1.272472	1.128488	0.084880
O29	O	0.929730	1.513247	-0.299883
O30	O	1.080865	0.743738	0.299961
O31	O	1.272469	0.743734	0.299966
O32	O	1.272471	0.743733	0.084877
O33	O	0.738125	1.513252	-0.084799
O34	O	0.929729	1.513248	-0.084793
O35	O	1.061693	1.001873	0.189970
O36	O	1.174489	1.001870	0.063353
O37	O	1.061696	1.255111	-0.063269
O38	O	0.948900	1.255114	0.063348
C39	C	1.005297	0.790016	0.000036
C40	C	1.005296	0.675140	0.000035
C41	C	0.703778	1.128498	0.000030
C42	C	0.601445	1.128500	0.000027
C43	C	0.601422	1.128517	-0.186931
C44	C	0.553333	1.128530	-0.280409
C45	C	0.457183	1.128530	-0.280405
C46	C	0.409122	1.128512	-0.186910
C47	C	0.457211	1.128498	-0.093432
C48	C	0.553361	1.128503	-0.093448
C49	C	0.457239	1.128471	0.093529
C50	C	0.553384	1.128482	0.093522
C51	C	0.409178	1.128453	0.187024
C52	C	0.457262	1.128450	0.280499
C53	C	0.553417	1.128452	0.280490
C54	C	0.601473	1.128469	0.187000
C55	C	1.306817	1.128487	0.000048
C56	C	1.409150	1.128485	0.000051
C57	C	1.005300	1.128491	-0.338439
C58	C	1.005300	1.128490	-0.453315
C59	C	1.005299	1.466969	0.000042
C60	C	1.005299	1.581845	0.000043
C61	C	1.005296	1.128494	0.338516
C62	C	1.005295	1.128495	0.453392
C63	C	1.306816	0.790010	0.000045
C64	C	1.409149	0.675133	0.000047
C65	C	1.005294	0.790018	0.338513
C66	C	1.005293	0.675143	0.453389
C67	C	1.306814	0.790012	0.338522
C68	C	1.409146	0.675135	0.453400
C69	C	0.703781	1.466973	-0.338445
C70	C	0.601449	1.581850	-0.453323
C71	C	0.703779	1.466974	0.000033
C72	C	0.601447	1.581852	0.000031
C73	C	1.005301	1.466967	-0.338436
C74	C	1.005302	1.581842	-0.453311
C75	C	1.457205	0.527701	0.093523
C76	C	1.553348	0.419746	0.093529
C77	C	1.601437	0.459226	0.000063
C78	C	1.553372	0.606673	-0.093422
C79	C	1.457226	0.714625	-0.093433
C80	C	1.457209	0.527703	0.507347
C81	C	1.553372	0.419747	0.615275
C82	C	1.601465	0.459226	0.669260
C83	C	1.553396	0.606673	0.615304
C84	C	1.457240	0.714626	0.507372
C85	C	0.553394	1.729282	-0.507279
C86	C	0.457253	1.837237	-0.615231
C87	C	0.409164	1.797758	-0.669220
C88	C	0.457228	1.650311	-0.615258
C89	C	0.553372	1.542359	-0.507313
C90	C	0.553388	1.542326	0.093513
C91	C	0.457245	1.650251	0.093537
C92	C	0.409158	1.797701	0.000072
C93	C	0.457225	1.837226	-0.093415
C94	C	0.553371	1.729303	-0.093432
H95	H	0.679704	1.128535	-0.186953
H96	H	0.418033	1.128533	-0.356519
H97	H	0.592569	1.128433	0.356616
H98	H	0.418131	1.957287	-0.659149
H99	H	0.330878	1.885674	-0.757116
H100	H	0.330892	1.128444	0.187028
Cl101	Cl	1.613840	0.656282	-0.210914
Cl102	Cl	0.613757	1.128545	-0.397937
Cl103	Cl	1.613757	0.234397	0.211066
H104	H	0.418129	1.128426	0.356621
Cl105	Cl	0.722343	1.128479	0.186976
Cl106	Cl	0.613830	1.778951	-0.439433
H107	H	0.418059	1.618186	-0.659232
Cl108	Cl	1.396769	0.478030	0.211034
H109	H	0.592487	1.422314	-0.463385
H110	H	1.592568	0.638797	0.659274
Cl111	Cl	1.396821	0.899968	-0.210961
Cl112	Cl	0.613821	1.356969	0.211027
Cl113	Cl	1.396822	0.899968	0.439575
H114	H	0.418120	1.618040	0.169666
H115	H	1.418065	0.495531	0.463406
H116	H	0.330840	1.128494	-0.186904
Cl117	Cl	1.722346	0.323494	0.804950
Cl118	Cl	0.288286	1.933361	0.000111
H119	H	1.679723	0.371310	0.000083
H120	H	1.592491	0.299698	0.659195
Cl121	Cl	0.396755	2.022600	-0.210909
Cl122	Cl	0.613769	1.779018	-0.210973
