data_functionalizedCrystal
_audit_creation_method	'MofGen! by Chris Wilmer'
_symmetry_space_group_name_H-M	'P1'
_symmetry_Int_Tables_number	1
_symmetry_cell_setting	triclinic
loop_
_symmetry_equiv_pos_as_xyz
  x,y,z
_cell_length_a	19.805407
_cell_length_b	19.077068
_cell_length_c	19.077299
_cell_angle_alpha	85.330127
_cell_angle_beta	92.302895
_cell_angle_gamma	92.327086
loop_
_atom_site_label
_atom_site_type_symbol
_atom_site_fract_x
_atom_site_fract_y
_atom_site_fract_z
Zn1	Zn	1.038986	-0.296774	0.409873
Zn2	Zn	1.030188	-0.409902	0.296716
Zn3	Zn	0.921463	-0.292032	0.292000
Zn4	Zn	0.921389	-0.414625	0.414560
O5	O	0.978006	-0.353333	0.353287
O6	O	1.132536	-0.311789	0.394876
O7	O	1.012114	-0.390306	0.197442
O8	O	0.940766	-0.194011	0.303701
O9	O	1.126071	-0.394904	0.311740
O10	O	1.027110	-0.197495	0.390302
O11	O	0.932234	-0.303707	0.193977
O12	O	0.826736	-0.308286	0.308245
O13	O	0.940639	-0.402953	0.512586
O14	O	0.826682	-0.398355	0.398289
O15	O	1.027038	-0.316368	0.509143
O16	O	1.012042	-0.509179	0.316284
O17	O	0.932108	-0.512649	0.402863
C18	C	0.802150	-0.353319	0.353264
C19	C	0.726918	-0.353330	0.353271
C20	C	0.691558	-0.400294	0.400087
C21	C	0.620870	-0.400296	0.400097
C22	C	0.585543	-0.353337	0.353287
C23	C	0.620908	-0.306368	0.306469
C24	C	0.691595	-0.306363	0.306463
C25	C	0.335835	-0.306384	0.306493
C26	C	0.265142	-0.306394	0.306502
C27	C	0.265110	-0.400317	0.400127
C28	C	0.335797	-0.400312	0.400121
C29	C	0.371156	-0.353341	0.353306
C30	C	0.447804	-0.353339	0.353297
C31	C	0.508895	-0.353342	0.353293
C32	C	0.971131	-0.536493	0.360609
C33	C	0.968253	-0.614851	0.363765
C34	C	1.008553	-0.649835	0.320208
C35	C	1.005849	-0.723461	0.323180
C36	C	0.962842	-0.762100	0.369706
C37	C	0.922541	-0.727111	0.413268
C38	C	0.925248	-0.653487	0.410299
C39	C	0.950282	-0.982489	0.383420
C40	C	0.947577	-1.056118	0.386384
C41	C	1.030887	-1.052462	0.296297
C42	C	1.033587	-0.978837	0.293329
C43	C	0.993288	-0.943854	0.336893
N44	N	0.960076	-0.837358	0.372744
N45	N	0.996058	-0.868599	0.333858
C46	C	1.154549	-0.353348	0.353311
C47	C	1.229781	-0.353355	0.353321
C48	C	0.984812	-0.360716	0.537158
C49	C	0.987712	-0.363862	0.615513
C50	C	0.984927	-0.169459	0.345953
C51	C	0.987877	-0.091102	0.342827
C52	C	1.008538	-0.386447	1.056763
C53	C	1.005803	-0.383487	0.983140
C54	C	0.962851	-0.336916	0.944532
C55	C	0.922626	-0.293308	0.979551
C56	C	0.925357	-0.296272	1.053173
C57	C	0.950219	-0.323218	0.724154
C58	C	0.947491	-0.320256	0.650527
C59	C	1.030668	-0.410436	0.654121
C60	C	1.033399	-0.413393	0.727744
C61	C	0.993171	-0.369788	0.762757
N62	N	0.960056	-0.333887	0.869278
N63	N	0.995963	-0.372821	0.838010
C64	C	0.971220	-0.345993	1.170132
C65	C	0.968317	-0.342841	1.091777
H66	H	0.720316	-0.438536	0.438203
H67	H	1.038665	-0.751941	0.287711
H68	H	0.236312	-0.438560	0.438249
F69	F	0.373390	-0.450295	0.449940
F70	F	1.048613	-0.429898	0.945879
F71	F	0.907391	-0.945267	0.429784
H72	H	1.068607	-0.947378	0.255443
F73	F	0.729227	-0.256377	0.256637
H74	H	1.043571	-0.618379	0.282318
F75	F	1.079110	-0.462965	0.768829
H76	H	1.063697	-1.080953	0.260830
H77	H	0.592083	-0.438539	0.438219
F78	F	0.882552	-0.249857	1.090436
F79	F	0.227546	-0.256410	0.256679
H80	H	0.912564	-1.087577	0.424284
F81	F	0.876773	-0.768237	0.462789
F82	F	0.882357	-0.616255	0.456660
H83	H	0.887650	-0.255392	0.948110
F84	F	0.901774	-0.270686	0.609439
H85	H	1.043518	-0.424367	1.088193
H86	H	0.917461	-0.287713	0.752652
H87	H	0.364615	-0.268143	0.268369
F88	F	0.583308	-0.256386	0.256655
H89	H	1.063419	-0.445938	0.625606
