data_functionalizedCrystal
_audit_creation_method	'MofGen! by Chris Wilmer'
_symmetry_space_group_name_H-M	'P1'
_symmetry_Int_Tables_number	1
_symmetry_cell_setting	triclinic
loop_
_symmetry_equiv_pos_as_xyz
  x,y,z
_cell_length_a	16.109301
_cell_length_b	16.109301
_cell_length_c	7.540329
_cell_angle_alpha	89.994987
_cell_angle_beta	89.999404
_cell_angle_gamma	83.461532
loop_
_atom_site_label
_atom_site_type_symbol
_atom_site_fract_x
_atom_site_fract_y
_atom_site_fract_z
O1	O	1.103130	0.106867	-0.147391
O2	O	1.603130	0.606867	0.352609
O3	O	0.861068	0.120166	-0.147416
O4	O	1.361068	0.620166	0.352584
O5	O	0.988749	-0.007515	-0.147385
O6	O	1.488749	0.492485	0.352615
O7	O	0.975449	0.234547	-0.147422
O8	O	1.475449	0.734547	0.352578
O9	O	0.988741	-0.007516	0.147580
O10	O	1.488741	0.492484	0.647580
O11	O	0.861060	0.120164	0.147549
O12	O	1.361060	0.620164	0.647549
O13	O	1.103122	0.106865	0.147574
O14	O	1.603122	0.606865	0.647574
Cu15	Cu	0.982091	0.113515	0.174494
Cu16	Cu	1.482091	0.613515	0.674494
Cu17	Cu	0.982100	0.113517	-0.174336
Cu18	Cu	1.482100	0.613517	0.325664
O19	O	0.975442	0.234546	0.147543
O20	O	1.475442	0.734546	0.647543
C21	C	0.830089	0.119627	0.000063
C22	C	1.330089	0.619627	0.500063
C23	C	0.737794	0.118011	0.000054
C24	C	1.237794	0.618011	0.500054
C25	C	0.428796	0.188494	0.000074
C26	C	0.928796	0.688494	0.500074
C27	C	0.515516	0.190020	0.000063
C28	C	1.015516	0.690020	0.500063
C29	C	0.535389	0.038531	0.000063
C30	C	1.035389	0.538531	0.500063
C31	C	0.448671	0.037007	0.000061
C32	C	0.948671	0.537007	0.500061
C33	C	0.395376	0.111991	0.000075
C34	C	0.895376	0.611991	0.500075
C35	C	0.568815	0.115041	0.000067
C36	C	1.068815	0.615041	0.500067
C37	C	0.662841	0.116694	0.000056
C38	C	1.162841	0.616694	0.500056
C39	C	0.301344	0.110338	0.000084
C40	C	0.801344	0.610338	0.500084
C41	C	0.988206	-0.038490	0.000099
C42	C	1.488206	0.461510	0.500099
C43	C	0.986591	-0.130785	0.000101
C44	C	1.486591	0.369215	0.500101
C45	C	1.058599	-0.353058	0.000081
C46	C	1.558599	0.146942	0.500081
C47	C	1.057075	-0.439778	0.000066
C48	C	1.557075	0.060222	0.500066
C49	C	0.905586	-0.419904	0.000057
C50	C	1.405586	0.080096	0.500057
C51	C	0.907111	-0.333185	0.000059
C52	C	1.407111	0.166815	0.500059
C53	C	0.983620	-0.299765	0.000080
C54	C	1.483620	0.200235	0.500080
C55	C	0.980571	-0.473204	0.000063
C56	C	1.480571	0.026796	0.500063
C57	C	0.978918	-0.567230	0.000047
C58	C	1.478918	-0.067230	0.500047
C59	C	0.985273	-0.205733	0.000092
C60	C	1.485273	0.294267	0.500092
C61	C	1.134101	0.107405	0.000091
C62	C	1.634101	0.607405	0.500091
C63	C	1.226396	0.109020	0.000089
C64	C	1.726396	0.609020	0.500089
C65	C	0.975984	0.265522	0.000056
C66	C	1.475984	0.765522	0.500056
C67	C	0.977599	0.357817	0.000042
C68	C	1.477599	0.857817	0.500042
N69	N	0.982091	0.113513	0.419843
N70	N	1.482091	0.613513	0.919843
N71	N	0.982107	0.113512	-0.419685
N72	N	1.482107	0.613512	0.080315
H73	H	0.421461	-0.025296	0.000057
H74	H	0.921461	0.474704	0.500057
H75	H	0.846050	-0.289791	0.000053
H76	H	1.346050	0.210209	0.500053
O77	O	1.141114	-0.317006	0.000067
O78	O	1.641114	0.182994	0.500067
H79	H	1.192995	-0.368637	0.000042
H80	H	1.692995	0.131363	0.500042
H81	H	0.578792	-0.022518	0.000056
H82	H	1.078792	0.477482	0.500056
H83	H	0.542722	0.252317	0.000061
H84	H	1.042722	0.752317	0.500061
O85	O	1.137944	-0.497262	0.000089
O86	O	1.637944	0.002738	0.500089
H87	H	1.191398	-0.459450	0.000121
H88	H	1.691398	0.040550	0.500121
H89	H	0.843295	-0.447126	0.000043
H90	H	1.343295	0.052874	0.500043
H91	H	0.385405	0.249551	0.000084
H92	H	0.885405	0.749551	0.500084
