data_functionalizedCrystal
_audit_creation_method	'MofGen! by Chris Wilmer'
_symmetry_space_group_name_H-M	'P1'
_symmetry_Int_Tables_number	1
_symmetry_cell_setting	triclinic
loop_
_symmetry_equiv_pos_as_xyz
  x,y,z
_cell_length_a	19.077236
_cell_length_b	13.032721
_cell_length_c	19.076919
_cell_angle_alpha	99.138159
_cell_angle_beta	89.887323
_cell_angle_gamma	99.764912
loop_
_atom_site_label
_atom_site_type_symbol
_atom_site_fract_x
_atom_site_fract_y
_atom_site_fract_z
Zn1	Zn	1.024260	-0.383250	-0.471946
Zn2	Zn	1.013877	-0.552445	-0.368304
Zn3	Zn	0.911525	-0.382696	-0.349681
Zn4	Zn	0.890445	-0.566531	-0.482196
O5	O	0.960027	-0.471231	-0.418032
O6	O	1.121720	-0.400031	-0.461702
O7	O	1.004776	-0.523801	-0.267001
O8	O	0.939647	-0.235025	-0.353816
O9	O	1.114091	-0.524338	-0.385556
O10	O	1.022474	-0.235432	-0.443644
O11	O	0.929579	-0.399087	-0.253318
O12	O	0.809892	-0.412745	-0.363755
O13	O	0.903720	-0.548344	-0.579669
O14	O	0.794405	-0.547808	-0.461114
O15	O	1.002033	-0.413689	-0.572139
O16	O	0.984335	-0.702058	-0.395495
O17	O	0.893651	-0.712407	-0.479171
C18	C	0.776521	-0.481746	-0.411526
C19	C	0.698014	-0.486271	-0.408762
C20	C	0.665091	-0.423788	-0.447186
C21	C	0.591325	-0.428034	-0.444582
C22	C	0.550484	-0.494769	-0.403558
C23	C	0.583412	-0.557254	-0.365129
C24	C	0.657176	-0.553002	-0.367730
C25	C	0.329446	-0.514410	-0.391518
C26	C	0.255676	-0.518660	-0.388922
C27	C	0.263595	-0.389437	-0.468374
C28	C	0.337360	-0.385196	-0.470974
C29	C	0.370283	-0.447677	-0.432543
N30	N	0.475083	-0.499113	-0.400897
N31	N	0.445682	-0.443326	-0.435200
C32	C	0.935597	-0.745541	-0.440483
C33	C	0.925210	-0.862889	-0.450113
C34	C	0.965484	-0.910052	-0.413039
C35	C	0.954749	-1.031338	-0.422991
C36	C	1.144249	-0.460675	-0.424563
C37	C	1.222753	-0.456177	-0.427346
C38	C	0.951683	-0.482650	-0.602247
C39	C	0.948128	-0.487516	-0.680748
C40	C	0.984570	-0.195849	-0.395509
C41	C	0.995029	-0.078498	-0.385912
C42	C	0.997641	-0.419697	-0.713709
C43	C	0.994292	-0.424266	-0.787469
C44	C	0.941432	-0.496659	-0.828267
C45	C	0.891914	-0.564481	-0.795301
C46	C	0.895260	-0.559906	-0.721542
C47	C	0.925932	-0.517853	-1.049283
C48	C	0.922590	-0.522425	-1.123047
C49	C	1.024969	-0.382208	-1.115209
C50	C	1.028313	-0.377644	-1.041450
C51	C	0.978792	-0.445462	-1.008490
N52	N	0.938009	-0.501333	-0.903662
N53	N	0.982213	-0.440782	-0.933096
C54	C	0.968385	-0.459777	-0.234529
C55	C	0.972104	-0.454606	-0.156008
H56	H	0.564523	-0.377156	-0.475873
N57	N	0.364938	-0.581816	-0.350074
H58	H	0.389891	-0.630822	-0.383811
H59	H	0.400806	-0.534983	-0.314948
N60	N	1.021685	-0.844617	-0.361228
H61	H	1.069967	-0.861466	-0.375580
H62	H	1.021326	-0.767273	-0.361481
H63	H	0.698339	-0.369447	-0.480595
N64	N	0.228092	-0.322033	-0.509814
H65	H	0.237184	-0.340929	-0.562063
H66	H	0.175178	-0.334873	-0.501886
N67	N	1.054662	-0.341622	-0.669712
H68	H	1.084957	-0.380764	-0.643788
H69	H	1.085468	-0.299379	-0.701836
H70	H	0.882785	-0.912303	-0.489225
N71	N	0.539369	-0.629241	-0.320882
H72	H	0.555951	-0.608858	-0.269539
H73	H	0.487654	-0.622432	-0.325122
H74	H	0.912321	-1.080748	-0.462106
H75	H	0.683981	-0.603882	-0.336440
N76	N	1.085317	-0.299525	-0.997461
H77	H	1.062352	-0.250348	-0.961846
H78	H	1.115610	-0.338702	-0.971567
N79	N	1.047684	-0.351099	-0.823018
H80	H	1.081677	-0.304543	-0.785980
H81	H	1.075154	-0.394083	-0.858304
N82	N	0.834885	-0.642540	-0.839299
H83	H	0.840275	-0.635145	-0.891026
H84	H	0.839728	-0.716522	-0.832968
H85	H	1.065285	-0.326993	-1.142053
N86	N	0.381410	-0.313221	-0.515225
H87	H	0.349359	-0.274281	-0.539172
H88	H	0.417664	-0.260752	-0.483605
H89	H	0.222424	-0.573009	-0.355515
H90	H	1.037463	-1.029089	-0.346803
N91	N	0.865577	-0.600513	-1.167055
H92	H	0.834712	-0.642781	-1.134983
H93	H	0.835338	-0.561305	-1.192986
H94	H	0.854935	-0.615121	-0.694706
H95	H	0.885617	-0.573090	-1.022458
