data_functionalizedCrystal
_audit_creation_method	'MofGen! by Chris Wilmer'
_symmetry_space_group_name_H-M	'P1'
_symmetry_Int_Tables_number	1
_symmetry_cell_setting	triclinic
loop_
_symmetry_equiv_pos_as_xyz
  x,y,z
_cell_length_a	19.077399
_cell_length_b	25.639239
_cell_length_c	19.076919
_cell_angle_alpha	87.731593
_cell_angle_beta	85.520477
_cell_angle_gamma	92.338270
loop_
_atom_site_label
_atom_site_type_symbol
_atom_site_fract_x
_atom_site_fract_y
_atom_site_fract_z
Zn1	Zn	1.061614	-0.187089	0.355385
Zn2	Zn	1.311614	0.062911	0.605385
Zn3	Zn	1.561614	0.312911	0.855385
Zn4	Zn	1.811614	0.562911	1.105385
Zn5	Zn	1.066241	-0.270867	0.237501
Zn6	Zn	1.316241	-0.020867	0.487501
Zn7	Zn	1.566241	0.229133	0.737501
Zn8	Zn	1.816241	0.479133	0.987501
Zn9	Zn	0.948469	-0.187103	0.242240
Zn10	Zn	1.198469	0.062897	0.492240
Zn11	Zn	1.448469	0.312897	0.742240
Zn12	Zn	1.698469	0.562897	0.992240
Zn13	Zn	0.943667	-0.278155	0.360070
Zn14	Zn	1.193667	-0.028155	0.610070
Zn15	Zn	1.443667	0.221845	0.860070
Zn16	Zn	1.693667	0.471845	1.110070
O17	O	1.004998	-0.230803	0.298799
O18	O	1.254998	0.019197	0.548799
O19	O	1.504998	0.269197	0.798799
O20	O	1.754998	0.519197	1.048799
O21	O	1.160877	-0.195146	0.335805
O22	O	1.410877	0.054854	0.585805
O23	O	1.660877	0.304854	0.835805
O24	O	1.910877	0.554854	1.085805
O25	O	1.054564	-0.256712	0.139483
O26	O	1.304564	-0.006712	0.389483
O27	O	1.554564	0.243288	0.639483
O28	O	1.804564	0.493288	0.889483
O29	O	0.963551	-0.113935	0.257272
O30	O	1.213551	0.136065	0.507272
O31	O	1.463551	0.386065	0.757272
O32	O	1.713551	0.636065	1.007272
O33	O	1.164277	-0.256698	0.249196
O34	O	1.414277	-0.006698	0.499196
O35	O	1.664277	0.243302	0.749196
O36	O	1.914277	0.493302	0.999196
O37	O	1.046678	-0.113924	0.340399
O38	O	1.296678	0.136076	0.590399
O39	O	1.546678	0.386076	0.840399
O40	O	1.796678	0.636076	1.090399
O41	O	0.968038	-0.195171	0.142964
O42	O	1.218038	0.054829	0.392964
O43	O	1.468038	0.304829	0.642964
O44	O	1.718038	0.554829	0.892964
O45	O	0.849183	-0.202237	0.261814
O46	O	1.099183	0.047763	0.511814
O47	O	1.349183	0.297763	0.761814
O48	O	1.599183	0.547763	1.011814
O49	O	0.955367	-0.269119	0.458095
O50	O	1.205367	-0.019119	0.708095
O51	O	1.455367	0.230881	0.958095
O52	O	1.705367	0.480881	1.208095
O53	O	0.845655	-0.269132	0.348383
O54	O	1.095655	-0.019132	0.598383
O55	O	1.345655	0.230868	0.848383
O56	O	1.595655	0.480868	1.098383
O57	O	1.042022	-0.202213	0.454654
O58	O	1.292022	0.047787	0.704654
O59	O	1.542022	0.297787	0.954654
O60	O	1.792022	0.547787	1.204654
O61	O	1.049908	-0.345000	0.253738
O62	O	1.299908	-0.095000	0.503738
O63	O	1.549908	0.155000	0.753738
O64	O	1.799908	0.405000	1.003738
O65	O	0.959854	-0.350355	0.343788
O66	O	1.209854	-0.100355	0.593788
O67	O	1.459854	0.149645	0.843788
O68	O	1.709854	0.399645	1.093788
C69	C	0.821840	-0.236478	0.306121
C70	C	1.071840	0.013522	0.556121
C71	C	1.321840	0.263522	0.806121
C72	C	1.571840	0.513522	1.056121
C73	C	0.743484	-0.238918	0.309270
C74	C	0.993484	0.011082	0.559270
C75	C	1.243484	0.261082	0.809270
C76	C	1.493484	0.511082	1.059270
C77	C	0.708485	-0.205188	0.265752
C78	C	0.958485	0.044812	0.515752
C79	C	1.208485	0.294812	0.765752
C80	C	1.458485	0.544812	1.015752
C81	C	0.634861	-0.207485	0.268710
C82	C	0.884861	0.042515	0.518710
C83	C	1.134861	0.292515	0.768710
C84	C	1.384861	0.542515	1.018710
C85	C	0.596237	-0.243511	0.315191
C86	C	0.846237	0.006489	0.565191
C87	C	1.096237	0.256489	0.815191
C88	C	1.346237	0.506489	1.065191
C89	C	0.631241	-0.277245	0.358712
C90	C	0.881241	-0.027245	0.608712
C91	C	1.131241	0.222755	0.858712
C92	C	1.381241	0.472755	1.108712
C93	C	0.704864	-0.274950	0.355749
C94	C	0.954864	-0.024950	0.605749
C95	C	1.204864	0.225050	0.855749
C96	C	1.454864	0.475050	1.105749
C97	C	0.375853	-0.254119	0.328874
C98	C	0.625853	-0.004119	0.578874
C99	C	0.875853	0.245881	0.828874
C100	C	1.125853	0.495881	1.078874
C101	C	0.302225	-0.256411	0.331835
C102	C	0.552225	-0.006411	0.581835
C103	C	0.802225	0.243589	0.831835
C104	C	1.052225	0.493589	1.081835
C105	C	0.305851	-0.186651	0.241833
C106	C	0.555851	0.063349	0.491833
C107	C	0.805851	0.313349	0.741833
C108	C	1.055851	0.563349	0.991833
C109	C	0.379475	-0.184357	0.238877
C110	C	0.629475	0.065643	0.488877
C111	C	0.879475	0.315643	0.738877
C112	C	1.129475	0.565643	0.988877
C113	C	0.414472	-0.218093	0.282395
C114	C	0.664472	0.031907	0.532395
C115	C	0.914472	0.281907	0.782395
C116	C	1.164472	0.531907	1.032395
N117	N	0.520981	-0.245860	0.318218
N118	N	0.770981	0.004140	0.568218
N119	N	1.020981	0.254140	0.818218
N120	N	1.270981	0.504140	1.068218
N121	N	0.489727	-0.215747	0.279364
N122	N	0.739727	0.034253	0.529364
N123	N	0.989727	0.284253	0.779364
N124	N	1.239727	0.534253	1.029364
C125	C	1.004881	-0.366649	0.298772
C126	C	1.254881	-0.116649	0.548772
C127	C	1.504881	0.133351	0.798772
C128	C	1.754881	0.383351	1.048772
C129	C	1.004894	-0.424763	0.298781
C130	C	1.254894	-0.174763	0.548781
C131	C	1.504894	0.075237	0.798781
C132	C	1.754894	0.325237	1.048781
C133	C	1.052004	-0.782321	0.251982
C134	C	1.302004	-0.532321	0.501982
C135	C	1.552004	-0.282321	0.751982
C136	C	1.802004	-0.032321	1.001982
C137	C	1.052031	-0.836925	0.251990
C138	C	1.302031	-0.586925	0.501990
C139	C	1.552031	-0.336925	0.751990
C140	C	1.802031	-0.086925	1.001990
O141	O	1.091964	-0.862780	0.212170
O142	O	1.341964	-0.612780	0.462170
O143	O	1.591964	-0.362780	0.712170
O144	O	1.841964	-0.112780	0.962170
N145	N	1.005120	-0.867040	0.298841
N146	N	1.255120	-0.617040	0.548841
N147	N	1.505120	-0.367040	0.798841
N148	N	1.755120	-0.117040	1.048841
C149	C	0.958184	-0.842549	0.345691
C150	C	1.208184	-0.592549	0.595691
C151	C	1.458184	-0.342549	0.845691
C152	C	1.708184	-0.092549	1.095691
O153	O	0.918285	-0.873178	0.385542
O154	O	1.168285	-0.623178	0.635542
O155	O	1.418285	-0.373178	0.885542
O156	O	1.668285	-0.123178	1.135542
C157	C	0.958161	-0.787946	0.345685
C158	C	1.208161	-0.537946	0.595685
C159	C	1.458161	-0.287946	0.845685
C160	C	1.708161	-0.037946	1.095685
C161	C	1.005070	-0.757834	0.298827
C162	C	1.255070	-0.507834	0.548827
C163	C	1.505070	-0.257834	0.798827
C164	C	1.755070	-0.007834	1.048827
C165	C	1.098910	-0.752209	0.205128
C166	C	1.348910	-0.502209	0.455128
C167	C	1.598910	-0.252209	0.705128
C168	C	1.848910	-0.002209	0.955128
C169	C	1.098882	-0.697609	0.205119
C170	C	1.348882	-0.447609	0.455119
C171	C	1.598882	-0.197609	0.705119
C172	C	1.848882	0.052391	0.955119
C173	C	1.051948	-0.673121	0.251964
C174	C	1.301948	-0.423121	0.501964
C175	C	1.551948	-0.173121	0.751964
C176	C	1.801948	0.076879	1.001964
C177	C	1.005042	-0.703234	0.298818
C178	C	1.255042	-0.453234	0.548818
C179	C	1.505042	-0.203234	0.798818
C180	C	1.755042	0.046766	1.048818
C181	C	0.911229	-0.763456	0.392538
C182	C	1.161229	-0.513456	0.642538
C183	C	1.411229	-0.263456	0.892538
C184	C	1.661229	-0.013456	1.142538
C185	C	0.911210	-0.708849	0.392529
C186	C	1.161210	-0.458849	0.642529
C187	C	1.411210	-0.208849	0.892529
C188	C	1.661210	0.041151	1.142529
C189	C	0.958119	-0.678736	0.345671
C190	C	1.208119	-0.428736	0.595671
C191	C	1.458119	-0.178736	0.845671
C192	C	1.708119	0.071264	1.095671
C193	C	0.958080	-0.624146	0.345654
C194	C	1.208080	-0.374146	0.595654
C195	C	1.458080	-0.124146	0.845654
C196	C	1.708080	0.125854	1.095654
N197	N	1.004991	-0.594031	0.298803
N198	N	1.254991	-0.344031	0.548803
N199	N	1.504991	-0.094031	0.798803
N200	N	1.754991	0.155969	1.048803
C201	C	1.051925	-0.618519	0.251958
C202	C	1.301925	-0.368519	0.501958
C203	C	1.551925	-0.118519	0.751958
C204	C	1.801925	0.131481	1.001958
C205	C	0.958237	-0.957218	0.345700
C206	C	1.208237	-0.707218	0.595700
C207	C	1.458237	-0.457218	0.845700
C208	C	1.708237	-0.207218	1.095700
C209	C	0.958256	-1.011820	0.345702
C210	C	1.208256	-0.761820	0.595702
C211	C	1.458256	-0.511820	0.845702
C212	C	1.708256	-0.261820	1.095702
C213	C	1.052104	-1.006192	0.252002
C214	C	1.302104	-0.756192	0.502002
C215	C	1.552104	-0.506192	0.752002
C216	C	1.802104	-0.256192	1.002002
C217	C	1.052081	-0.951590	0.251997
C218	C	1.302081	-0.701590	0.501997
C219	C	1.552081	-0.451590	0.751997
C220	C	1.802081	-0.201590	1.001997
C221	C	1.005147	-0.927103	0.298849
C222	C	1.255147	-0.677103	0.548849
C223	C	1.505147	-0.427103	0.798849
C224	C	1.755147	-0.177103	1.048849
C225	C	1.051862	-0.503855	0.251943
C226	C	1.301862	-0.253855	0.501943
C227	C	1.551862	-0.003855	0.751943
C228	C	1.801862	0.246145	1.001943
C229	C	1.051828	-0.449250	0.251936
C230	C	1.301828	-0.199250	0.501936
C231	C	1.551828	0.050750	0.751936
C232	C	1.801828	0.300750	1.001936
C233	C	0.957983	-0.454883	0.345638
C234	C	1.207983	-0.204883	0.595638
C235	C	1.457983	0.045117	0.845638
C236	C	1.707983	0.295117	1.095638
C237	C	0.958014	-0.509482	0.345642
C238	C	1.208014	-0.259482	0.595642
C239	C	1.458014	-0.009482	0.845642
C240	C	1.708014	0.240518	1.095642
C241	C	1.004959	-0.533967	0.298792
C242	C	1.254959	-0.283967	0.548792
C243	C	1.504959	-0.033967	0.798792
C244	C	1.754959	0.216033	1.048792
O245	O	0.918170	-0.598255	0.385456
O246	O	1.168170	-0.348255	0.635456
O247	O	1.418170	-0.098255	0.885456
O248	O	1.668170	0.151745	1.135456
O249	O	1.091823	-0.587883	0.212120
O250	O	1.341823	-0.337883	0.462120
O251	O	1.591823	-0.087883	0.712120
O252	O	1.841823	0.162117	0.962120
C253	C	1.188871	-0.225108	0.291449
C254	C	1.438871	0.024892	0.541449
C255	C	1.688871	0.274892	0.791449
C256	C	1.938871	0.524892	1.041449
C257	C	1.267226	-0.222680	0.288317
C258	C	1.517226	0.027320	0.538317
C259	C	1.767226	0.277320	0.788317
C260	C	2.017226	0.527320	1.038317
C261	C	0.997643	-0.236477	0.482668
C262	C	1.247643	0.013523	0.732668
C263	C	1.497643	0.263523	0.982668
C264	C	1.747643	0.513523	1.232668
C265	C	0.994509	-0.238895	0.561022
C266	C	1.244509	0.011105	0.811022
C267	C	1.494509	0.261105	1.061022
C268	C	1.744509	0.511105	1.311022
C269	C	1.005134	-0.094428	0.298841
C270	C	1.255134	0.155572	0.548841
C271	C	1.505134	0.405572	0.798841
C272	C	1.755134	0.655572	1.048841
C273	C	1.005192	-0.036312	0.298859
C274	C	1.255192	0.213688	0.548859
C275	C	1.505192	0.463688	0.798859
C276	C	1.755192	0.713688	1.048859
C277	C	1.012365	-0.225113	0.115644
C278	C	1.262365	0.024887	0.365644
C279	C	1.512365	0.274887	0.615644
C280	C	1.762365	0.524887	0.865644
C281	C	1.015636	-0.222544	0.037285
C282	C	1.265636	0.027456	0.287285
C283	C	1.515636	0.277456	0.537285
C284	C	1.765636	0.527456	0.787285
C285	C	1.038151	-0.205198	0.596042
C286	C	1.288151	0.044802	0.846042
C287	C	1.538151	0.294802	1.096042
C288	C	1.788151	0.544802	1.346042
C289	C	1.035197	-0.207468	0.669664
C290	C	1.285197	0.042532	0.919664
C291	C	1.535197	0.292532	1.169664
C292	C	1.785197	0.542532	1.419664
C293	C	0.988605	-0.243438	0.708265
C294	C	1.238605	0.006562	0.958265
C295	C	1.488605	0.256562	1.208265
C296	C	1.738605	0.506562	1.458265
C297	C	0.944958	-0.277136	0.673239
C298	C	1.194958	-0.027136	0.923239
C299	C	1.444958	0.222864	1.173239
C300	C	1.694958	0.472864	1.423239
C301	C	0.947909	-0.274863	0.599619
C302	C	1.197909	-0.024863	0.849619
C303	C	1.447909	0.225137	1.099619
C304	C	1.697909	0.475137	1.349619
C305	C	0.974939	-0.253969	0.928639
C306	C	1.224939	-0.003969	1.178639
C307	C	1.474939	0.246031	1.428639
C308	C	1.724939	0.496031	1.678639
C309	C	0.971994	-0.256240	1.002265
C310	C	1.221994	-0.006240	1.252265
C311	C	1.471994	0.243760	1.502265
C312	C	1.721994	0.493760	1.752265
C313	C	1.062232	-0.186572	0.998685
C314	C	1.312232	0.063428	1.248685
C315	C	1.562232	0.313428	1.498685
C316	C	1.812232	0.563428	1.748685
C317	C	1.065181	-0.184304	0.925063
C318	C	1.315181	0.065696	1.175063
C319	C	1.565181	0.315696	1.425063
C320	C	1.815181	0.565696	1.675063
C321	C	1.021532	-0.218000	0.890044
C322	C	1.271532	0.032000	1.140044
C323	C	1.521532	0.282000	1.390044
C324	C	1.771532	0.532000	1.640044
N325	N	0.985586	-0.245760	0.783518
N326	N	1.235586	0.004240	1.033518
N327	N	1.485586	0.254240	1.283518
N328	N	1.735586	0.504240	1.533518
N329	N	1.024548	-0.215675	0.814792
N330	N	1.274548	0.034325	1.064792
N331	N	1.524548	0.284325	1.314792
N332	N	1.774548	0.534325	1.564792
H333	H	0.606368	-0.180022	0.233269
H334	H	0.856368	0.069978	0.483269
H335	H	1.106368	0.319978	0.733269
H336	H	1.356368	0.569978	0.983269
Cl337	Cl	0.582685	-0.322542	0.417135
Cl338	Cl	0.832685	-0.072542	0.667135
Cl339	Cl	1.082685	0.177458	0.917135
Cl340	Cl	1.332685	0.427458	1.167135
Cl341	Cl	1.123758	-0.139083	0.876542
Cl342	Cl	1.373758	0.110917	1.126542
Cl343	Cl	1.623758	0.360917	1.376542
Cl344	Cl	1.873758	0.610917	1.626542
H345	H	0.733359	-0.302416	0.391186
H346	H	0.983359	-0.052416	0.641186
H347	H	1.233359	0.197584	0.891186
H348	H	1.483359	0.447584	1.141186
H349	H	0.404339	-0.281589	0.364309
H350	H	0.654339	-0.031589	0.614309
H351	H	0.904339	0.218411	0.864309
H352	H	1.154339	0.468411	1.114309
Cl353	Cl	1.110804	-0.411398	0.193024
Cl354	Cl	1.360804	-0.161398	0.443024
Cl355	Cl	1.610804	0.088602	0.693024
Cl356	Cl	1.860804	0.338602	0.943024
Cl357	Cl	1.157921	-0.782983	0.146229
Cl358	Cl	1.407921	-0.532983	0.396229
Cl359	Cl	1.657921	-0.282983	0.646229
Cl360	Cl	1.907921	-0.032983	0.896229
Cl361	Cl	0.428025	-0.139061	0.180448
Cl362	Cl	0.678025	0.110939	0.430448
Cl363	Cl	0.928025	0.360939	0.680448
Cl364	Cl	1.178025	0.610939	0.930448
Cl365	Cl	1.111055	-0.913740	0.193088
Cl366	Cl	1.361055	-0.663740	0.443088
Cl367	Cl	1.611055	-0.413740	0.693088
Cl368	Cl	1.861055	-0.163740	0.943088
Cl369	Cl	0.899223	-0.926441	0.404600
Cl370	Cl	1.149223	-0.676441	0.654600
Cl371	Cl	1.399223	-0.426441	0.904600
Cl372	Cl	1.649223	-0.176441	1.154600
H373	H	0.739927	-0.175848	0.227907
H374	H	0.989927	0.074152	0.477907
H375	H	1.239927	0.324152	0.727907
H376	H	1.489927	0.574152	0.977907
Cl377	Cl	0.898987	-0.424088	0.404529
Cl378	Cl	1.148987	-0.174088	0.654529
Cl379	Cl	1.398987	0.075912	0.904529
Cl380	Cl	1.648987	0.325912	1.154529
Cl381	Cl	1.110879	-0.534627	0.193043
Cl382	Cl	1.360879	-0.284627	0.443043
Cl383	Cl	1.610879	-0.034627	0.693043
Cl384	Cl	1.860879	0.215373	0.943043
Cl385	Cl	1.157867	-0.659761	0.146218
Cl386	Cl	1.407867	-0.409761	0.396218
Cl387	Cl	1.657867	-0.159761	0.646218
Cl388	Cl	1.907867	0.090239	0.896218
Cl389	Cl	0.899274	-1.049669	0.404605
Cl390	Cl	1.149274	-0.799669	0.654605
Cl391	Cl	1.399274	-0.549669	0.904605
Cl392	Cl	1.649274	-0.299669	1.154605
H393	H	1.076093	-0.175909	0.564619
H394	H	1.326093	0.074091	0.814619
H395	H	1.576093	0.324091	1.064619
H396	H	1.826093	0.574091	1.314619
H397	H	1.090322	-1.026140	0.213861
H398	H	1.340322	-0.776140	0.463861
H399	H	1.590322	-0.526140	0.713861
H400	H	1.840322	-0.276140	0.963861
H401	H	1.070737	-0.180030	0.698174
H402	H	1.320737	0.069970	0.948174
H403	H	1.570737	0.319970	1.198174
H404	H	1.820737	0.569970	1.448174
Cl405	Cl	1.117099	-0.144211	1.042712
Cl406	Cl	1.367099	0.105789	1.292712
Cl407	Cl	1.617099	0.355789	1.542712
Cl408	Cl	1.867099	0.605789	1.792712
Cl409	Cl	0.253670	-0.301702	0.390275
Cl410	Cl	0.503670	-0.051702	0.640275
Cl411	Cl	0.753670	0.198298	0.890275
Cl412	Cl	1.003670	0.448298	1.140275
Cl413	Cl	0.913412	-0.301460	1.050791
Cl414	Cl	1.163412	-0.051460	1.300791
Cl415	Cl	1.413412	0.198540	1.550791
Cl416	Cl	1.663412	0.448540	1.800791
H417	H	0.939407	-0.281414	0.900135
H418	H	1.189407	-0.031414	1.150135
H419	H	1.439407	0.218586	1.400135
H420	H	1.689407	0.468586	1.650135
Cl421	Cl	0.886382	-0.322354	0.721766
Cl422	Cl	1.136382	-0.072354	0.971766
Cl423	Cl	1.386382	0.177646	1.221766
Cl424	Cl	1.636382	0.427646	1.471766
Cl425	Cl	0.261849	-0.144245	0.187127
Cl426	Cl	0.511849	0.105755	0.437127
Cl427	Cl	0.761849	0.355755	0.687127
Cl428	Cl	1.011849	0.605755	0.937127
H429	H	0.912363	-0.302298	0.571107
H430	H	1.162363	-0.052298	0.821107
H431	H	1.412363	0.197702	1.071107
H432	H	1.662363	0.447702	1.321107
Cl433	Cl	0.852261	-0.801298	0.451458
Cl434	Cl	1.102261	-0.551298	0.701458
Cl435	Cl	1.352261	-0.301298	0.951458
Cl436	Cl	1.602261	-0.051298	1.201458
H437	H	0.872992	-0.688915	0.430684
H438	H	1.122992	-0.438915	0.680684
H439	H	1.372992	-0.188915	0.930684
H440	H	1.622992	0.061085	1.180684
H441	H	0.919819	-0.534001	0.383800
H442	H	1.169819	-0.284001	0.633800
H443	H	1.419819	-0.034001	0.883800
H444	H	1.669819	0.215999	1.133800
