data_functionalizedCrystal
_audit_creation_method	'MofGen! by Chris Wilmer'
_symmetry_space_group_name_H-M	'P1'
_symmetry_Int_Tables_number	1
_symmetry_cell_setting	triclinic
loop_
_symmetry_equiv_pos_as_xyz
  x,y,z
_cell_length_a	12.759401
_cell_length_b	12.594516
_cell_length_c	12.594509
_cell_angle_alpha	89.973801
_cell_angle_beta	89.980791
_cell_angle_gamma	90.017577
loop_
_atom_site_label
_atom_site_type_symbol
_atom_site_fract_x
_atom_site_fract_y
_atom_site_fract_z
Zn1	Zn	1.606239	-0.423667	-0.601815
Zn2	Zn	1.606131	-0.601677	-0.423843
Zn3	Zn	1.430543	-0.423718	-0.423850
Zn4	Zn	1.430525	-0.601608	-0.601779
O5	O	1.518359	-0.512667	-0.512822
O6	O	1.753245	-0.447288	-0.578218
O7	O	1.582801	-0.578120	-0.274898
O8	O	1.453901	-0.274765	-0.447476
O9	O	1.753166	-0.578071	-0.447463
O10	O	1.582985	-0.274728	-0.578226
O11	O	1.453797	-0.447374	-0.274903
O12	O	1.283519	-0.447308	-0.447441
O13	O	1.453872	-0.577954	-0.750730
O14	O	1.283506	-0.578003	-0.578165
O15	O	1.582968	-0.447221	-0.750756
O16	O	1.582784	-0.750614	-0.447428
O17	O	1.453767	-0.750563	-0.578158
C18	C	1.245392	-0.512654	-0.512801
C19	C	1.128615	-0.512674	-0.512817
C20	C	1.073774	-0.580831	-0.580778
C21	C	0.964050	-0.580835	-0.580799
C22	C	0.964018	-0.444523	-0.444889
C23	C	1.073740	-0.444514	-0.444874
C24	C	1.518290	-0.789208	-0.512811
C25	C	1.518357	-0.907514	-0.512843
C26	C	1.448178	-0.976778	-0.583896
C27	C	1.422580	-1.047644	-0.486774
C28	C	1.544051	-1.047447	-0.609981
C29	C	1.492708	-0.976822	-0.415669
C30	C	1.614224	-0.976618	-0.538942
C31	C	1.588662	-1.047452	-0.441753
C32	C	1.792392	-0.512681	-0.512844
C33	C	1.909169	-0.512687	-0.512853
C34	C	1.518430	-0.512574	-0.790443
C35	C	1.518460	-0.512534	-0.908748
C36	C	1.518457	-0.235047	-0.512856
C37	C	1.518499	-0.116741	-0.512870
C38	C	1.448266	-0.583600	-0.977987
C39	C	1.544132	-0.609603	-1.048775
C40	C	1.422669	-0.486467	-1.048760
C41	C	1.614375	-0.538589	-0.977978
C42	C	1.492848	-0.415407	-0.977956
C43	C	1.588779	-0.441374	-1.048712
C44	C	1.518350	-0.512683	-0.236281
C45	C	1.518523	-0.512423	-0.117976
H46	H	0.919325	-0.389031	-0.389571
H47	H	1.118393	-0.389006	-0.389532
Cl48	Cl	1.739523	-0.572715	-0.930183
Cl49	Cl	1.142756	-0.666514	-0.666195
H50	H	0.919403	-0.636334	-0.636141
H51	H	1.695213	-0.945399	-0.561041
Cl52	Cl	1.459101	-0.929129	-0.288817
Cl53	Cl	1.356391	-0.928861	-0.676533
Cl54	Cl	1.297506	-1.095809	-0.452697
H55	H	1.648071	-1.078288	-0.381607
Cl56	Cl	1.577515	-1.095349	-0.736794
Cl57	Cl	1.577633	-0.736343	-1.096805
Cl58	Cl	1.356691	-0.676525	-0.930037
Cl59	Cl	1.680570	-0.348516	-1.096364
Cl60	Cl	1.459305	-0.288701	-0.929888
Cl61	Cl	1.297558	-0.452495	-1.096764
