data_functionalizedCrystal
_audit_creation_method	'MofGen! by Chris Wilmer'
_symmetry_space_group_name_H-M	'P1'
_symmetry_Int_Tables_number	1
_symmetry_cell_setting	triclinic
loop_
_symmetry_equiv_pos_as_xyz
  x,y,z
_cell_length_a	10.654541
_cell_length_b	16.109301
_cell_length_c	15.186229
_cell_angle_alpha	90.005167
_cell_angle_beta	89.997986
_cell_angle_gamma	96.027295
loop_
_atom_site_label
_atom_site_type_symbol
_atom_site_fract_x
_atom_site_fract_y
_atom_site_fract_z
O1	O	1.666258	-0.116763	-0.073205
O2	O	1.300628	-0.127891	-0.073213
O3	O	1.493487	-0.001356	-0.073200
O4	O	1.473399	-0.243298	-0.073218
O5	O	1.493474	-0.001354	0.073258
O6	O	1.300615	-0.127889	0.073245
O7	O	1.666245	-0.116761	0.073253
Zn8	Zn	1.483428	-0.122325	0.096502
Zn9	Zn	1.483445	-0.122327	-0.096462
O10	O	1.473386	-0.243297	0.073239
C11	C	1.253835	-0.127073	0.000015
C12	C	1.114424	-0.124630	0.000012
N13	N	1.483426	-0.122323	0.228194
C14	C	1.492667	0.029625	0.000030
C15	C	1.490227	0.121935	0.000031
C16	C	1.084401	-0.275937	-0.000010
C17	C	1.003896	-0.350439	-0.000025
C18	C	0.872909	-0.348139	-0.000026
C19	C	0.822426	-0.271327	-0.000009
C20	C	0.902931	-0.196825	0.000006
C21	C	1.033919	-0.199134	0.000004
C22	C	0.932954	-0.045520	0.000035
C23	C	1.063941	-0.047819	0.000029
C24	C	0.882471	0.031291	0.000051
C25	C	0.962976	0.105795	0.000060
C26	C	1.093970	0.103491	0.000059
C27	C	1.144446	0.026683	0.000044
C28	C	1.713038	-0.117579	0.000023
C29	C	1.852449	-0.120022	0.000020
C30	C	1.474206	-0.274277	0.000008
C31	C	1.476646	-0.366587	0.000001
C32	C	1.598994	0.343561	0.000019
C33	C	1.596692	0.430295	0.000012
C34	C	1.367871	0.411780	0.000010
C35	C	1.370174	0.325047	0.000011
C36	C	1.485739	0.290941	0.000020
C37	C	1.481134	0.464407	0.000012
C38	C	1.478637	0.558448	0.000004
C39	C	1.488237	0.196894	0.000026
N40	N	1.483457	-0.122323	-0.228155
C41	C	1.568853	-0.066312	0.453923
C42	C	1.568857	-0.066310	0.546113
C43	C	1.398021	-0.178336	0.546110
C44	C	1.398012	-0.178333	0.453922
C45	C	1.483435	-0.122323	0.407831
C46	C	1.483448	-0.122323	0.592209
C47	C	1.483452	-0.122322	0.692165
C48	C	1.483430	-0.122323	0.307869
H49	H	1.045014	-0.412978	-0.000036
H50	H	1.328473	-0.223940	0.583647
N51	N	1.660997	-0.005907	0.595827
H52	H	1.716575	-0.038028	0.634068
H53	H	1.612945	0.031188	0.634034
N54	N	1.248013	0.268287	0.000026
H55	H	1.267011	0.208168	0.000026
H56	H	1.197645	0.279396	-0.054266
H57	H	1.273781	0.439561	0.000005
N58	N	1.660965	-0.005901	0.404197
H59	H	1.750092	-0.016016	0.420229
H60	H	1.646414	0.053169	0.420266
N61	N	1.225678	-0.278418	-0.000025
H62	H	1.245444	-0.338379	-0.000041
H63	H	1.263036	-0.249236	0.054273
N64	N	0.786070	-0.428491	-0.000021
H65	H	0.837920	-0.477500	-0.000024
H66	H	0.731063	-0.430834	-0.054311
H67	H	0.715768	-0.269461	0.000001
N68	N	1.305869	-0.238741	0.404201
H69	H	1.251759	-0.274227	0.447386
H70	H	1.353919	-0.275790	0.365938
N71	N	1.285722	0.024195	0.000054
H72	H	1.329066	0.083045	0.000069
H73	H	1.311283	-0.006094	-0.054244
N74	N	0.741194	0.033778	0.000068
H75	H	0.697852	-0.025073	0.000058
H76	H	0.715638	0.064080	-0.054216
H77	H	0.921861	0.168329	0.000073
H78	H	1.159511	0.164161	0.000075
N79	N	1.723635	0.306775	0.000028
H80	H	1.773254	0.325908	-0.054265
H81	H	1.707806	0.243852	0.000065
N82	N	1.718844	0.487051	0.000010
H83	H	1.792398	0.452280	0.000016
H84	H	1.722867	0.523446	0.054302
