data_functionalizedCrystal
_audit_creation_method	'MofGen! by Chris Wilmer'
_symmetry_space_group_name_H-M	'P1'
_symmetry_Int_Tables_number	1
_symmetry_cell_setting	triclinic
loop_
_symmetry_equiv_pos_as_xyz
  x,y,z
_cell_length_a	6.394989
_cell_length_b	10.654550
_cell_length_c	9.130313
_cell_angle_alpha	90.000110
_cell_angle_beta	89.999773
_cell_angle_gamma	85.491307
loop_
_atom_site_label
_atom_site_type_symbol
_atom_site_fract_x
_atom_site_fract_y
_atom_site_fract_z
O1	O	-2.774464	-0.205778	-0.121780
O2	O	-2.166486	-0.216145	-0.121786
O3	O	-2.484453	-0.028370	-0.121777
O4	O	-2.456496	-0.393553	-0.121788
O5	O	-2.484449	-0.028375	0.121822
O6	O	-2.166482	-0.216150	0.121813
O7	O	-2.774460	-0.205783	0.121819
Cu8	Cu	-2.470471	-0.210967	0.144059
Cu9	Cu	-2.470475	-0.210961	-0.144025
O10	O	-2.456492	-0.393558	0.121811
C11	C	-2.482399	0.018447	0.000020
C12	C	-2.476257	0.157955	0.000015
C13	C	-2.458547	-0.440375	0.000010
C14	C	-2.464688	-0.579883	0.000005
N15	N	-2.470483	-0.210971	0.346681
C16	C	-2.088633	-0.214098	0.000021
C17	C	-1.852307	-0.207833	0.000027
N18	N	-2.470480	-0.210948	-0.346648
C19	C	-2.663471	0.235458	0.000022
C20	C	-2.657688	0.366540	0.000011
C21	C	-2.277460	0.342604	-0.000005
C22	C	-2.283245	0.211524	-0.000006
C23	C	-2.882994	0.249279	0.000037
C24	C	-2.877210	0.380361	0.000027
C25	C	-2.611315	-0.127854	0.423337
C26	C	-2.611309	-0.127838	0.576674
C27	C	-2.329632	-0.294069	0.576686
C28	C	-2.329629	-0.294077	0.423352
C29	C	-2.773946	-0.031885	0.423331
C30	C	-2.773940	-0.031870	0.576668
H31	H	-2.130797	0.148425	-0.000031
C32	C	-2.725742	0.099031	0.367101
N33	N	-2.689429	0.197634	0.324748
C34	C	-2.998979	0.208385	-0.137678
N35	N	-3.086333	0.177583	-0.241405
H36	H	-2.959921	0.421243	0.101972
H37	H	-2.925631	-0.064080	0.375774
H38	H	-2.952896	0.212909	0.105219
H39	H	-2.943554	0.425303	-0.105151
C40	C	-2.705343	0.092084	0.640913
N41	N	-2.653662	0.185442	0.689303
C42	C	-2.990778	-0.063333	0.632898
N43	N	-3.154074	-0.087067	0.675250
C44	C	-2.174864	-0.385610	0.339036
N45	N	-2.058353	-0.454597	0.275529
C46	C	-2.174699	-0.385478	0.661037
N47	N	-2.057999	-0.454330	0.724570
H48	H	-2.120316	0.386236	-0.000024
