data_functionalizedCrystal
_audit_creation_method	'MofGen! by Chris Wilmer'
_symmetry_space_group_name_H-M	'P1'
_symmetry_Int_Tables_number	1
_symmetry_cell_setting	triclinic
loop_
_symmetry_equiv_pos_as_xyz
  x,y,z
_cell_length_a	14.519709
_cell_length_b	14.519731
_cell_length_c	9.730223
_cell_angle_alpha	89.994614
_cell_angle_beta	90.002325
_cell_angle_gamma	83.684499
loop_
_atom_site_label
_atom_site_type_symbol
_atom_site_fract_x
_atom_site_fract_y
_atom_site_fract_z
O1	O	1.223875	0.120890	-0.114114
O2	O	0.955399	0.135126	-0.114156
O3	O	1.096745	-0.006229	-0.114122
O4	O	1.082529	0.262245	-0.114149
O5	O	1.096736	-0.006233	0.114458
O6	O	0.955390	0.135122	0.114423
O7	O	1.223866	0.120886	0.114466
Zn8	Zn	1.089627	0.128003	0.150737
Zn9	Zn	1.089639	0.128009	-0.150427
O10	O	1.082520	0.262241	0.114431
C11	C	0.921035	0.134461	0.000128
C12	C	0.818654	0.132473	0.000112
C13	C	0.443757	0.125153	0.000176
C14	C	0.548065	0.127186	0.000158
C15	C	0.631202	0.128813	0.000143
C16	C	0.735517	0.130846	0.000127
C17	C	1.096075	-0.040591	0.000169
C18	C	1.094079	-0.142971	0.000169
C19	C	1.092457	-0.226115	0.000166
C20	C	1.090430	-0.330424	0.000155
C21	C	1.088822	-0.413563	0.000146
C22	C	1.086795	-0.517878	0.000137
C23	C	1.258230	0.121551	0.000178
C24	C	1.360612	0.123539	0.000185
C25	C	1.083191	0.296603	0.000138
C26	C	1.085187	0.398983	0.000128
N27	N	1.089625	0.128000	0.356273
N28	N	1.089647	0.128005	-0.355964
C29	C	1.152234	0.065434	0.428214
C30	C	1.152244	0.065434	0.572097
C31	C	1.027032	0.190574	0.572085
C32	C	1.027019	0.190569	0.428205
H33	H	1.203225	0.014486	0.630668
O34	O	0.966235	0.251264	0.358099
C35	C	0.979665	0.237855	0.215683
H36	H	1.014007	0.164609	0.196051
H37	H	0.909843	0.247958	0.161002
H38	H	1.026004	0.290155	0.174835
H39	H	0.976060	0.241518	0.630666
H40	H	1.203211	0.014485	0.369651
