data_functionalizedCrystal
_audit_creation_method	'MofGen! by Chris Wilmer'
_symmetry_space_group_name_H-M	'P1'
_symmetry_Int_Tables_number	1
_symmetry_cell_setting	triclinic
loop_
_symmetry_equiv_pos_as_xyz
  x,y,z
_cell_length_a	10.489741
_cell_length_b	17.699077
_cell_length_c	16.776229
_cell_angle_alpha	89.993415
_cell_angle_beta	89.993659
_cell_angle_gamma	83.909875
loop_
_atom_site_label
_atom_site_type_symbol
_atom_site_fract_x
_atom_site_fract_y
_atom_site_fract_z
O1	O	0.161259	1.005136	-0.066277
O2	O	0.182252	0.784895	-0.066281
O3	O	-0.013935	0.900027	-0.066274
O4	O	0.357447	0.890004	-0.066284
O5	O	-0.013947	0.900011	0.066302
O6	O	0.182240	0.784879	0.066295
O7	O	0.161247	1.005121	0.066299
Zn8	Zn	0.171742	0.894997	0.087347
Zn9	Zn	0.171758	0.895018	-0.087328
O10	O	0.357435	0.889988	0.066293
C11	C	0.181495	0.756685	0.000007
C12	C	0.179243	0.672652	0.000005
C13	C	0.178174	0.633169	0.072274
C14	C	0.176037	0.554212	0.072275
C15	C	0.174977	0.514740	0.000006
C16	C	0.176042	0.554228	-0.072268
C17	C	0.178170	0.633184	-0.072268
C18	C	0.167458	0.235809	-0.072269
C19	C	0.165334	0.156847	-0.072263
C20	C	0.165326	0.156837	0.072273
C21	C	0.167454	0.235793	0.072273
C22	C	0.168511	0.275275	-0.000000
C23	C	0.170826	0.360889	-0.000000
C24	C	0.172672	0.429127	0.000006
C25	C	-0.061459	0.899262	0.000013
C26	C	-0.203046	0.896997	0.000012
C27	C	-0.269823	0.823742	0.000005
C28	C	-0.362595	0.858339	0.065373
C29	C	-0.362558	0.858372	-0.065337
C30	C	-0.293954	0.931625	0.065434
C31	C	-0.293907	0.931647	-0.065335
C32	C	-0.386654	0.966298	0.000049
C33	C	0.404958	0.890753	0.000003
C34	C	0.546546	0.893018	-0.000001
C35	C	0.162004	1.033331	0.000010
C36	C	0.164257	1.117364	0.000006
N37	N	0.171730	0.894989	0.206558
N38	N	0.171759	0.895032	-0.206540
C39	C	0.084894	0.945986	0.248278
C40	C	0.084893	0.945990	0.331730
C41	C	0.171735	0.895001	0.373461
C42	C	0.258576	0.843999	0.331735
C43	C	0.258570	0.843991	0.248284
C44	C	0.258601	0.844026	0.668282
C45	C	0.258603	0.844039	0.751739
C46	C	0.084924	0.946025	0.751728
C47	C	0.084918	0.946017	0.668277
C48	C	0.171753	0.895013	0.626559
C49	C	0.171752	0.895008	0.536070
C50	C	0.171744	0.895008	0.463948
H51	H	0.168323	0.267928	0.131122
F52	F	-0.007529	1.000265	0.376132
F53	F	0.174918	0.512194	0.149193
H54	H	0.014214	0.987553	0.785704
H55	H	0.164470	0.124710	-0.131116
F56	F	0.168585	0.277818	-0.149189
H57	H	-0.219050	0.763512	0.000070
F58	F	-0.402383	0.817819	0.137606
F59	F	0.350990	0.789711	0.203884
F60	F	-0.254074	0.972136	-0.137571
F61	F	0.164195	0.114812	0.149194
F62	F	-0.452725	1.045093	0.000095
F63	F	-0.254420	0.972098	0.137747
H64	H	0.014207	0.987540	0.634303
H65	H	-0.392940	0.827373	-0.120606
F66	F	0.174875	0.512219	-0.149181
H67	H	0.329322	0.802514	0.785714
F68	F	-0.007532	1.000260	0.203873
F69	F	0.179302	0.675204	-0.149186
H70	H	0.179048	0.665301	0.131123
H71	H	0.329280	0.802478	0.365717
F72	F	0.351019	0.789746	0.623889
