data_functionalizedCrystal
_audit_creation_method	'MofGen! by Chris Wilmer'
_symmetry_space_group_name_H-M	'P1'
_symmetry_Int_Tables_number	1
_symmetry_cell_setting	triclinic
loop_
_symmetry_equiv_pos_as_xyz
  x,y,z
_cell_length_a	12.759401
_cell_length_b	16.959454
_cell_length_c	12.759393
_cell_angle_alpha	90.029640
_cell_angle_beta	90.020938
_cell_angle_gamma	90.021600
loop_
_atom_site_label
_atom_site_type_symbol
_atom_site_fract_x
_atom_site_fract_y
_atom_site_fract_z
Zn1	Zn	1.606227	-0.314611	0.594026
Zn2	Zn	1.606102	-0.446810	0.418349
Zn3	Zn	1.430526	-0.314653	0.418362
Zn4	Zn	1.430501	-0.446755	0.593986
O5	O	1.518339	-0.380707	0.506181
O6	O	1.753232	-0.332153	0.570734
O7	O	1.582769	-0.429320	0.271330
O8	O	1.453896	-0.204037	0.441686
O9	O	1.753139	-0.429279	0.441665
O10	O	1.582983	-0.204006	0.570746
O11	O	1.453774	-0.332225	0.271339
O12	O	1.283502	-0.332171	0.441647
O13	O	1.453854	-0.429185	0.741013
O14	O	1.283484	-0.429226	0.570678
O15	O	1.582959	-0.332100	0.741042
O16	O	1.582745	-0.557414	0.441626
O17	O	1.453732	-0.557373	0.570666
C18	C	1.245372	-0.380698	0.506160
C19	C	1.128595	-0.380713	0.506176
C20	C	1.073751	-0.431326	0.573257
C21	C	0.964027	-0.431329	0.573277
C22	C	0.964000	-0.330103	0.439128
C23	C	1.073722	-0.330097	0.439113
C24	C	1.518251	-0.586074	0.506163
C25	C	1.518309	-0.673930	0.506190
C26	C	1.451259	-1.045415	0.573365
C27	C	1.585711	-1.045397	0.439104
C28	C	1.585675	-0.962851	0.439094
C29	C	1.518428	-0.921583	0.506220
C30	C	1.451218	-0.962861	0.573355
C31	C	1.652875	-0.921567	0.371953
C32	C	1.652841	-0.839016	0.371940
C33	C	1.585599	-0.797747	0.439071
C34	C	1.518387	-0.839030	0.506210
C35	C	1.451141	-0.797762	0.573335
C36	C	1.383934	-0.839043	0.640480
C37	C	1.383977	-0.921592	0.640486
C38	C	1.585556	-0.715198	0.439065
C39	C	1.451100	-0.715208	0.573326
C40	C	1.792372	-0.380718	0.506202
C41	C	1.909149	-0.380722	0.506212
C42	C	1.518418	-0.380632	0.780214
C43	C	1.518451	-0.380599	0.896991
C44	C	1.518456	-0.174539	0.506222
C45	C	1.518506	-0.086683	0.506239
C46	C	1.518321	-0.380726	0.233213
C47	C	1.518491	-0.380536	0.116437
C48	C	1.585681	-0.330039	0.951870
C49	C	1.585699	-0.330005	1.061594
C50	C	1.451254	-0.431098	1.061551
C51	C	1.451232	-0.431128	0.951829
H52	H	0.919310	-0.288895	0.384526
H53	H	1.118378	-0.288876	0.384488
O54	O	1.651055	-0.281000	1.115022
C55	C	1.718913	-0.325985	1.178479
H56	H	1.681828	-0.385881	1.194899
H57	H	1.796761	-0.334685	1.136210
C58	C	1.783522	-0.208900	1.262548
C59	C	1.737969	-0.282462	1.282722
H60	H	1.795282	-0.182052	1.326849
H61	H	1.737809	-0.178591	1.219793
H62	H	1.848391	-0.216160	1.227321
H63	H	1.673097	-0.275200	1.317936
H64	H	1.783673	-0.312768	1.325486
H65	H	1.396544	-1.079030	0.628035
H66	H	1.396528	-0.472239	1.106213
H67	H	1.118425	-0.472539	0.627866
O68	O	1.718217	-0.961724	0.306852
C69	C	1.786055	-1.009472	0.366657
H70	H	1.792631	-0.984549	0.449393
H71	H	1.753514	-1.072024	0.370309
C72	C	1.887158	-1.041410	0.213670
C73	C	1.895242	-1.010794	0.315285
H74	H	1.954509	-1.042229	0.181980
H75	H	1.841452	-1.009244	0.173377
H76	H	1.860036	-1.093533	0.216728
H77	H	1.922350	-0.958669	0.312225
H78	H	1.940955	-1.042952	0.355577
H79	H	1.396477	-0.472300	0.907145
H80	H	1.329176	-0.805433	0.695130
O81	O	0.910915	-0.480571	0.638471
C82	C	0.982880	-0.525226	0.697675
H83	H	1.061068	-0.527919	0.654621
H84	H	0.994605	-0.496354	0.777533
C85	C	0.843998	-0.606059	0.765509
C86	C	0.940028	-0.609373	0.712625
H87	H	0.817564	-0.657964	0.774736
H88	H	0.795512	-0.575973	0.725626
H89	H	0.853782	-0.581996	0.832052
H90	H	0.930240	-0.633427	0.646079
H91	H	0.988511	-0.639465	0.752497
H92	H	1.396343	-0.681613	0.627992
O93	O	1.650882	-0.675012	0.373993
C94	C	1.718711	-0.627214	0.433858
H95	H	1.681617	-0.614831	0.513446
H96	H	1.796578	-0.658981	0.445467
C97	C	1.783284	-0.564027	0.278306
C98	C	1.737720	-0.548812	0.376055
H99	H	1.795014	-0.515666	0.242649
H100	H	1.737590	-0.596231	0.237973
H101	H	1.848168	-0.590501	0.287994
H102	H	1.672832	-0.522346	0.366365
H103	H	1.783404	-0.516601	0.416385
O104	O	1.651002	-0.280878	0.898762
C105	C	1.710361	-0.236258	0.970735
H106	H	1.667344	-0.233500	1.048941
H107	H	1.790140	-0.265202	0.982411
C108	C	1.778376	-0.155531	0.831880
C109	C	1.725537	-0.152138	0.927933
H110	H	1.787743	-0.103643	0.805477
H111	H	1.738388	-0.185594	0.783390
H112	H	1.844853	-0.179655	0.841624
H113	H	1.659057	-0.128024	0.918185
H114	H	1.765515	-0.122069	0.976420
H115	H	1.640454	-1.079002	0.384447
O116	O	1.318805	-0.961658	0.705850
C117	C	1.341680	-0.941419	0.810582
H118	H	1.425597	-0.918675	0.815964
H119	H	1.285312	-0.893526	0.837994
C120	C	1.226387	-1.042665	0.874076
C121	C	1.329458	-1.014737	0.880688
H122	H	1.218843	-1.087889	0.917323
H123	H	1.210971	-1.056299	0.803517
H124	H	1.179425	-1.002747	0.896918
H125	H	1.376416	-1.054651	0.857834
H126	H	1.344881	-1.001111	0.951246
O127	O	1.718228	-0.799041	0.306693
C128	C	1.777569	-0.853168	0.247430
H129	H	1.781205	-0.911992	0.290470
H130	H	1.739145	-0.862000	0.167601
C131	C	1.884916	-0.748652	0.179530
C132	C	1.889390	-0.820899	0.232396
H133	H	1.953891	-0.728746	0.170251
H134	H	1.844935	-0.712185	0.219452
H135	H	1.852892	-0.756022	0.113011
H136	H	1.921401	-0.813526	0.298917
H137	H	1.929379	-0.857364	0.192484
