data_functionalizedCrystal
_audit_creation_method	'MofGen! by Chris Wilmer'
_symmetry_space_group_name_H-M	'P1'
_symmetry_Int_Tables_number	1
_symmetry_cell_setting	triclinic
loop_
_symmetry_equiv_pos_as_xyz
  x,y,z
_cell_length_a	18.050591
_cell_length_b	18.050590
_cell_length_c	16.120297
_cell_angle_alpha	87.128980
_cell_angle_beta	87.117317
_cell_angle_gamma	90.017393
loop_
_atom_site_label
_atom_site_type_symbol
_atom_site_fract_x
_atom_site_fract_y
_atom_site_fract_z
Zn1	Zn	1.114092	-0.316988	0.471281
Zn2	Zn	1.614092	0.183012	0.971281
Zn3	Zn	1.120310	-0.434883	0.331867
Zn4	Zn	1.620310	0.065117	0.831867
Zn5	Zn	0.996196	-0.310710	0.331895
Zn6	Zn	1.496196	0.189290	0.831895
Zn7	Zn	0.989882	-0.441137	0.471244
Zn8	Zn	1.489882	0.058863	0.971244
O9	O	1.055120	-0.375929	0.401572
O10	O	1.555120	0.124071	0.901572
O11	O	1.218841	-0.332637	0.452792
O12	O	1.718841	0.167363	0.952792
O13	O	1.109091	-0.413166	0.215208
O14	O	1.609091	0.086834	0.715208
O15	O	1.011876	-0.207619	0.350413
O16	O	1.511876	0.292381	0.850413
O17	O	1.223409	-0.419254	0.350364
O18	O	1.723409	0.080746	0.850364
O19	O	1.098493	-0.212232	0.452819
O20	O	1.598493	0.287768	0.952819
O21	O	1.017905	-0.321937	0.215228
O22	O	1.517905	0.178063	0.715228
O23	O	0.891434	-0.328001	0.350376
O24	O	1.391434	0.171999	0.850376
O25	O	1.001114	-0.429913	0.587912
O26	O	1.501114	0.070087	1.087912
O27	O	0.886795	-0.423825	0.452755
O28	O	1.386795	0.076175	0.952755
O29	O	1.092370	-0.338702	0.587939
O30	O	1.592370	0.161298	1.087939
O31	O	1.102968	-0.539636	0.350328
O32	O	1.602968	-0.039636	0.850328
O33	O	1.007143	-0.544230	0.452727
O34	O	1.507143	-0.044230	0.952727
C35	C	0.862168	-0.375911	0.401565
C36	C	1.362168	0.124089	0.901565
C37	C	0.779622	-0.375922	0.401582
C38	C	1.279622	0.124078	0.901582
C39	C	1.055064	-0.568880	0.401539
C40	C	1.555064	-0.068880	0.901539
C41	C	1.055107	-0.651426	0.401552
C42	C	1.555107	-0.151426	0.901552
C43	C	0.528298	-0.428130	0.457179
C44	C	1.028298	0.071870	0.957179
C45	C	0.581102	-0.442769	0.381084
C46	C	1.081102	0.057231	0.881084
C47	C	0.482501	-0.375945	0.401580
C48	C	0.982501	0.124055	0.901580
C49	C	0.576779	-0.361330	0.477672
C50	C	1.076779	0.138670	0.977672
C51	C	0.628486	-0.375936	0.401585
C52	C	1.128486	0.124064	0.901585
C53	C	0.534220	-0.390617	0.325445
C54	C	1.034220	0.109383	0.825445
C55	C	0.529890	-0.309149	0.422084
C56	C	1.029890	0.190851	0.922084
C57	C	0.582674	-0.323759	0.345936
C58	C	1.082674	0.176241	0.845936
C59	C	0.398403	-0.375952	0.401579
C60	C	0.898403	0.124048	0.901579
C61	C	0.712583	-0.375928	0.401578
C62	C	1.212583	0.124072	0.901578
C63	C	1.107317	-0.848355	0.345945
C64	C	1.607317	-0.348355	0.845945
C65	C	1.122021	-0.901126	0.422032
C66	C	1.622021	-0.401126	0.922032
C67	C	1.055148	-0.802558	0.401585
C68	C	1.555148	-0.302558	0.901585
C69	C	1.040517	-0.896870	0.325533
C70	C	1.540517	-0.396870	0.825533
C71	C	1.055189	-0.948544	0.401611
C72	C	1.555189	-0.448544	0.901611
C73	C	1.069886	-0.854244	0.477712
C74	C	1.569886	-0.354244	0.977712
C75	C	0.988352	-0.849982	0.381162
C76	C	1.488352	-0.349982	0.881162
C77	C	1.003029	-0.902733	0.457301
C78	C	1.503029	-0.402733	0.957301
C79	C	1.055126	-0.718459	0.401570
C80	C	1.555126	-0.218459	0.901570
C81	C	1.055210	-1.032642	0.401635
C82	C	1.555210	-0.532642	0.901635
C83	C	1.248825	-0.375948	0.401579
C84	C	1.748825	0.124052	0.901579
C85	C	1.331371	-0.375957	0.401582
C86	C	1.831371	0.124043	0.901582
C87	C	1.045344	-0.385705	0.619021
C88	C	1.545344	0.114295	1.119021
C89	C	1.041178	-0.389871	0.711685
C90	C	1.541178	0.110129	1.211685
C91	C	1.055195	-0.182226	0.401623
C92	C	1.555195	0.317774	0.901623
C93	C	1.055227	-0.099681	0.401645
C94	C	1.555227	0.400319	0.901645
C95	C	1.064901	-0.366138	0.184969
C96	C	1.564901	0.133862	0.684969
C97	C	1.069210	-0.361763	0.092305
C98	C	1.569210	0.138237	0.592305
C99	C	1.033545	-0.397460	0.881343
C100	C	1.533545	0.102540	1.381343
C101	C	1.076841	-0.354176	0.922653
C102	C	1.576841	0.145824	1.422653
C103	C	1.072594	-0.358399	1.017056
C104	C	1.572594	0.141601	1.517056
C105	C	1.037791	-0.393239	0.786931
C106	C	1.537791	0.106761	1.286931
H107	H	0.603568	-0.499252	0.363738
H108	H	1.103568	0.000748	0.863738
H109	H	1.082218	-0.835501	0.542095
H110	H	1.582218	-0.335501	1.042095
C111	C	0.943451	-0.934703	0.520946
C112	C	1.443451	-0.434703	1.020946
H113	H	0.908421	-0.962455	0.493135
H114	H	1.408421	-0.462455	0.993135
H115	H	0.966286	-0.966117	0.561184
H116	H	1.466286	-0.466117	1.061184
H117	H	0.918882	-0.895255	0.547775
H118	H	1.418882	-0.395255	1.047775
H119	H	0.515504	-0.403043	0.261080
H120	H	1.015504	0.096957	0.761080
H121	H	1.028125	-0.915707	0.261206
H122	H	1.528125	-0.415707	0.761206
H123	H	0.606333	-0.279622	0.298865
H124	H	1.106333	0.220378	0.798865
C125	C	0.499507	-0.232873	0.445547
C126	C	0.999507	0.267127	0.945547
H127	H	0.513958	-0.222566	0.499655
H128	H	1.013958	0.277434	0.999655
H129	H	0.518896	-0.195698	0.406607
H130	H	1.018896	0.304302	0.906607
H131	H	0.446912	-0.233304	0.444875
H132	H	0.946912	0.266696	0.944875
C133	C	0.602187	-0.344631	0.564596
C134	C	1.102187	0.155369	1.064596
H135	H	0.583499	-0.381759	0.604026
H136	H	1.083499	0.118241	1.104026
H137	H	0.654841	-0.344299	0.563852
H138	H	1.154841	0.155701	1.063852
H139	H	0.583879	-0.297540	0.579543
H140	H	1.083879	0.202460	1.079543
H141	H	1.117097	-0.313947	0.887120
H142	H	1.617097	0.186053	1.387120
C143	C	1.166927	-0.816206	0.282449
C144	C	1.666927	-0.316206	0.782449
H145	H	1.214371	-0.833747	0.297109
H146	H	1.714371	-0.333747	0.797109
H147	H	1.156986	-0.831446	0.228551
H148	H	1.656986	-0.331446	0.728551
H149	H	1.166205	-0.763585	0.282531
H150	H	1.666205	-0.263585	0.782531
H151	H	1.178526	-0.923564	0.439323
H152	H	1.678526	-0.423564	0.939323
H153	H	0.931865	-0.827527	0.363849
H154	H	1.431865	-0.327527	0.863849
C155	C	0.496152	-0.487785	0.520616
C156	C	0.996152	0.012215	1.020616
H157	H	0.465367	-0.464890	0.561406
H158	H	0.965367	0.035110	1.061406
H159	H	0.467711	-0.522239	0.492795
H160	H	0.967711	-0.022239	0.992795
H161	H	0.535553	-0.513021	0.546793
H162	H	1.035553	-0.013021	1.046793
H163	H	0.993292	-0.437686	0.916873
H164	H	1.493292	0.062314	1.416873
