data_functionalizedCrystal
_audit_creation_method	'MofGen! by Chris Wilmer'
_symmetry_space_group_name_H-M	'P1'
_symmetry_Int_Tables_number	1
_symmetry_cell_setting	triclinic
loop_
_symmetry_equiv_pos_as_xyz
  x,y,z
_cell_length_a	19.288864
_cell_length_b	15.944551
_cell_length_c	18.366186
_cell_angle_alpha	89.992809
_cell_angle_beta	89.977106
_cell_angle_gamma	83.317492
loop_
_atom_site_label
_atom_site_type_symbol
_atom_site_fract_x
_atom_site_fract_y
_atom_site_fract_z
O1	O	0.921629	0.104784	-0.060785
O2	O	1.421629	0.604784	0.439215
O3	O	0.719405	0.118919	-0.060735
O4	O	1.219405	0.618919	0.439265
O5	O	0.826039	-0.010445	-0.060755
O6	O	1.326039	0.489555	0.439245
O7	O	0.814995	0.234147	-0.060765
O8	O	1.314995	0.734147	0.439235
O9	O	0.826021	-0.010451	0.060345
O10	O	1.326021	0.489549	0.560345
O11	O	0.719387	0.118912	0.060364
O12	O	1.219387	0.618912	0.560364
O13	O	0.921611	0.104777	0.060315
O14	O	1.421611	0.604777	0.560315
Zn15	Zn	0.820496	0.111844	0.079567
Zn16	Zn	1.320496	0.611844	0.579567
Zn17	Zn	0.820520	0.111852	-0.079987
Zn18	Zn	1.320520	0.611852	0.420013
O19	O	0.814977	0.234141	0.060334
O20	O	1.314977	0.734141	0.560334
C21	C	0.693519	0.118461	-0.000179
C22	C	1.193519	0.618461	0.499821
C23	C	0.616411	0.117095	-0.000160
C24	C	1.116411	0.617095	0.499840
C25	C	0.571915	0.193000	-0.000175
C26	C	1.071915	0.693000	0.499825
C27	C	0.499465	0.191717	-0.000183
C28	C	0.999465	0.691717	0.499817
C29	C	0.471514	0.114526	-0.000191
C30	C	0.971514	0.614526	0.499809
C31	C	0.516020	0.038611	-0.000172
C32	C	1.016020	0.538611	0.499828
C33	C	0.588469	0.039896	-0.000156
C34	C	1.088469	0.539896	0.499844
C35	C	0.363098	0.053847	-0.042639
C36	C	0.863098	0.553847	0.457361
C37	C	0.290650	0.052565	-0.042659
C38	C	0.790650	0.552565	0.457341
C39	C	0.248058	0.110560	-0.000234
C40	C	0.748058	0.610560	0.499766
C41	C	0.277920	0.169850	0.042200
C42	C	0.777920	0.669850	0.542200
C43	C	0.350369	0.171135	0.042216
C44	C	0.850369	0.671135	0.542216
C45	C	0.392956	0.113124	-0.000207
C46	C	0.892956	0.613124	0.499793
C47	C	0.125002	0.185079	-0.000257
C48	C	0.625002	0.685079	0.499743
C49	C	0.052550	0.183793	-0.000260
C50	C	0.552550	0.683793	0.499740
C51	C	0.069107	0.030684	-0.000257
C52	C	0.569107	0.530684	0.499743
C53	C	0.141557	0.031972	-0.000246
C54	C	0.641557	0.531972	0.499754
C55	C	0.169500	0.109172	-0.000249
C56	C	0.669500	0.609172	0.499751
C57	C	0.825572	-0.041740	-0.000205
C58	C	1.325572	0.458260	0.499795
C59	C	0.824197	-0.134981	-0.000204
C60	C	1.324197	0.365019	0.499796
C61	C	0.754815	-0.349571	-0.000197
C62	C	1.254815	0.150429	0.499803
C63	C	0.787025	-0.410715	0.059504
C64	C	1.287025	0.089285	0.559504
C65	C	0.821710	-0.305697	-0.000209
C66	C	1.321710	0.194303	0.499791
C67	C	0.787058	-0.410692	-0.059890
C68	C	1.287058	0.089308	0.440110
C69	C	0.819303	-0.470601	-0.000217
C70	C	1.319303	0.029399	0.499783
C71	C	0.853939	-0.365614	0.059542
C72	C	1.353939	0.134386	0.559542
C73	C	0.853963	-0.365585	-0.059906
C74	C	1.353963	0.134415	0.440094
C75	C	0.886222	-0.426712	-0.000190
C76	C	1.386222	0.073288	0.499810
C77	C	0.823095	-0.210700	-0.000204
C78	C	1.323095	0.289300	0.499796
C79	C	0.817924	-0.565597	-0.000217
C80	C	1.317924	-0.065597	0.499783
C81	C	0.947497	0.105235	-0.000243
C82	C	1.447497	0.605235	0.499757
C83	C	1.024605	0.106600	-0.000267
C84	C	1.524605	0.606600	0.499733
C85	C	0.815444	0.265436	-0.000217
C86	C	1.315444	0.765436	0.499783
C87	C	0.816819	0.358677	-0.000223
C88	C	1.316819	0.858677	0.499777
N89	N	0.820485	0.111838	0.188458
N90	N	1.320485	0.611838	0.688458
N91	N	0.820537	0.111852	-0.188878
N92	N	1.320537	0.611852	0.311122
C93	C	0.867718	0.054583	0.226549
C94	C	1.367718	0.554583	0.726549
C95	C	0.867722	0.054580	0.302777
C96	C	1.367722	0.554580	0.802777
C97	C	0.820500	0.111844	0.340910
C98	C	1.320500	0.611844	0.840910
C99	C	0.773258	0.169103	0.302810
C100	C	1.273258	0.669103	0.802810
C101	C	0.773251	0.169100	0.226583
C102	C	1.273251	0.669100	0.726583
C103	C	0.811404	0.188378	0.461669
C104	C	1.311404	0.688378	0.961669
C105	C	0.811416	0.188383	0.537894
C106	C	1.311416	0.688383	1.037894
C107	C	0.820520	0.111855	0.576018
C108	C	1.320520	0.611855	1.076018
C109	C	0.829626	0.035320	0.537908
C110	C	1.329626	0.535320	1.037908
C111	C	0.829618	0.035316	0.461681
C112	C	1.329618	0.535316	0.961681
C113	C	0.820503	0.111854	0.423565
C114	C	1.320503	0.611854	0.923565
C115	C	0.867760	0.054592	0.696765
C116	C	1.367760	0.554592	1.196765
C117	C	0.867760	0.054587	0.772994
C118	C	1.367760	0.554587	1.272994
C119	C	0.773299	0.169118	0.773025
C120	C	1.273299	0.669118	1.273025
C121	C	0.773296	0.169115	0.696797
C122	C	1.273296	0.669115	1.196797
C123	C	0.820531	0.111853	0.658671
C124	C	1.320531	0.611853	1.158671
H125	H	0.463229	0.253530	-0.000193
H126	H	0.963229	0.753530	0.499807
C127	C	0.748798	-0.437745	0.127706
C128	C	1.248798	0.062255	0.627706
H129	H	0.779755	-0.475538	0.155811
H130	H	1.279755	0.024462	0.655811
H131	H	0.709762	-0.465052	0.113364
H132	H	1.209762	0.034948	0.613364
H133	H	0.733299	-0.389311	0.156025
H134	H	1.233299	0.110689	0.656025
C135	C	0.257808	-0.012653	-0.089331
C136	C	0.757808	0.487347	0.410669
H137	H	0.293551	-0.047020	-0.114584
H138	H	0.793551	0.452980	0.385416
H139	H	0.226425	0.015878	-0.123457
H140	H	0.726425	0.515878	0.376543
H141	H	0.233197	-0.047069	-0.058739
H142	H	0.733197	0.452931	0.441261
C143	C	0.919682	-0.008397	0.344690
C144	C	1.419682	0.491603	0.844690
H145	H	0.912918	-0.000195	0.395548
H146	H	1.412918	0.499805	0.895548
H147	H	0.966033	0.000587	0.332172
H148	H	1.466033	0.500587	0.832172
H149	H	0.912139	-0.064441	0.332214
H150	H	1.412139	0.435559	0.832214
H151	H	0.882240	-0.345560	-0.110395
H152	H	1.382240	0.154440	0.389605
H153	H	0.734848	0.215741	0.804072
H154	H	1.234848	0.715741	1.304072
C155	C	0.721297	0.232088	0.184681
C156	C	1.221297	0.732088	0.684681
H157	H	0.693175	0.266197	0.218306
H158	H	1.193175	0.766197	0.718306
H159	H	0.692384	0.201962	0.154960
H160	H	1.192384	0.701962	0.654960
H161	H	0.746286	0.266979	0.154931
H162	H	1.246286	0.766979	0.654931
H163	H	0.397772	0.006619	-0.077190
H164	H	0.897772	0.506619	0.422810
C165	C	0.748835	-0.437674	-0.128074
C166	C	1.248835	0.062326	0.371926
H167	H	0.702160	-0.410977	-0.127984
H168	H	1.202160	0.089023	0.372016
H169	H	0.748605	-0.497218	-0.127824
H170	H	1.248605	0.002782	0.372176
H171	H	0.772153	-0.421453	-0.170479
H172	H	1.272153	0.078547	0.329521
H173	H	0.699288	-0.316049	-0.000124
H174	H	1.199288	0.183951	0.499876
H175	H	0.493258	-0.024239	-0.000188
H176	H	0.993258	0.475761	0.499812
H177	H	0.594661	0.255862	-0.000179
H178	H	1.094661	0.755862	0.499821
H179	H	0.016321	0.245606	-0.000268
H180	H	0.516321	0.745606	0.499732
H181	H	0.624699	-0.021917	-0.000145
H182	H	1.124699	0.478083	0.499855
C183	C	0.038370	-0.054225	-0.000270
C184	C	0.538370	0.445775	0.499730
H185	H	-0.011151	-0.044121	-0.000286
H186	H	0.488849	0.455879	0.499714
H187	H	0.053620	-0.085476	0.041961
H188	H	0.553620	0.414524	0.541961
H189	H	0.053668	-0.085460	-0.042504
H190	H	0.553668	0.414540	0.457496
H191	H	0.882201	-0.345735	0.110070
H192	H	1.382201	0.154265	0.610070
C193	C	0.961294	-0.471805	-0.000164
C194	C	1.461294	0.028195	0.499836
H195	H	0.984935	-0.456386	0.042282
H196	H	1.484935	0.043614	0.542282
H197	H	0.985239	-0.455671	-0.042182
H198	H	1.485239	0.044329	0.457818
H199	H	0.960018	-0.531185	-0.000560
H200	H	1.460018	-0.031185	0.499440
C201	C	0.839635	-0.048866	0.579834
C202	C	1.339635	0.451134	1.079834
H203	H	0.838326	-0.037906	0.630689
H204	H	1.338326	0.462094	1.130689
H205	H	0.883438	-0.078958	0.567326
H206	H	1.383438	0.421042	1.067326
H207	H	0.803304	-0.081663	0.567360
H208	H	1.303304	0.418337	1.067360
H209	H	0.906177	0.007955	0.195510
H210	H	1.406177	0.507955	0.695510
C211	C	0.190508	-0.051521	-0.000240
C212	C	0.690508	0.448479	0.499760
H213	H	0.237659	-0.039701	-0.000226
H214	H	0.737659	0.460299	0.499774
H215	H	0.182059	-0.083183	-0.042472
H216	H	0.682059	0.416817	0.457528
H217	H	0.182013	-0.083188	0.041993
H218	H	0.682013	0.416812	0.541993
C219	C	0.801394	0.272564	0.419740
C220	C	1.301394	0.772564	0.919740
H221	H	0.795984	0.318144	0.453352
H222	H	1.295984	0.818144	0.953352
H223	H	0.760950	0.274393	0.390022
H224	H	1.260950	0.774393	0.890022
H225	H	0.841085	0.277095	0.389985
H226	H	1.341085	0.777095	0.889985
C227	C	0.383217	0.236341	0.088896
C228	C	0.883217	0.736341	0.588896
H229	H	0.347479	0.270696	0.114166
H230	H	0.847479	0.770696	0.614166
H231	H	0.407832	0.270759	0.058317
H232	H	0.907832	0.770759	0.558317
H233	H	0.414598	0.207790	0.123019
H234	H	0.914598	0.707790	0.623019
C235	C	0.839623	-0.048864	0.419760
C236	C	1.339623	0.451136	0.919760
H237	H	0.845142	-0.094442	0.453376
H238	H	1.345142	0.405558	0.953376
H239	H	0.880004	-0.050639	0.389921
H240	H	1.380004	0.449361	0.889921
H241	H	0.799883	-0.053449	0.390129
H242	H	1.299883	0.446551	0.890129
H243	H	0.906219	0.007963	0.665722
H244	H	1.406219	0.507963	1.165722
C245	C	0.231078	0.233652	0.088865
C246	C	0.731078	0.733652	0.588865
H247	H	0.183653	0.224394	0.082785
H248	H	0.683653	0.724394	0.582785
H249	H	0.236951	0.289435	0.073945
H250	H	0.736951	0.789435	0.573945
H251	H	0.243722	0.226479	0.138657
H252	H	0.743722	0.726479	0.638657
H253	H	0.734838	0.215741	0.665781
H254	H	1.234838	0.715741	1.165781
C255	C	0.919720	-0.008394	0.814895
C256	C	1.419720	0.491606	1.314895
H257	H	0.947852	-0.042489	0.781269
H258	H	1.447852	0.457511	1.281269
H259	H	0.894744	-0.043288	0.844649
H260	H	1.394744	0.456712	1.344649
H261	H	0.948633	0.021745	0.844611
H262	H	1.448633	0.521745	1.344611
C263	C	0.801405	0.272566	0.579808
C264	C	1.301405	0.772566	1.079808
H265	H	0.795970	0.318142	0.546187
H266	H	1.295970	0.818142	1.046187
H267	H	0.841095	0.277110	0.609520
H268	H	1.341095	0.777110	1.109520
H269	H	0.760962	0.274389	0.609567
H270	H	1.260962	0.774389	1.109567
H271	H	0.147754	0.247939	-0.000249
H272	H	0.647754	0.747939	0.499751
C273	C	0.721318	0.232095	0.344753
C274	C	1.221318	0.732095	0.844753
H275	H	0.728092	0.223903	0.395606
H276	H	1.228092	0.723903	0.895606
H277	H	0.674962	0.223116	0.332289
H278	H	1.174962	0.723116	0.832289
H279	H	0.728864	0.288134	0.332245
H280	H	1.228864	0.788134	0.832245
