data_functionalizedCrystal
_audit_creation_method	'MofGen! by Chris Wilmer'
_symmetry_space_group_name_H-M	'P1'
_symmetry_Int_Tables_number	1
_symmetry_cell_setting	triclinic
loop_
_symmetry_equiv_pos_as_xyz
  x,y,z
_cell_length_a	20.016444
_cell_length_b	12.970454
_cell_length_c	12.970454
_cell_angle_alpha	59.999776
_cell_angle_beta	90.001047
_cell_angle_gamma	60.002422
loop_
_atom_site_label
_atom_site_type_symbol
_atom_site_fract_x
_atom_site_fract_y
_atom_site_fract_z
Zr1	Zr	0.643581	1.128568	-0.135306
O2	O	0.536909	1.343650	-0.299931
O3	O	0.676281	0.913480	-0.084839
O4	O	0.676282	1.128569	-0.299930
O5	O	0.536908	1.128561	0.084826
O6	O	0.786222	1.128577	-0.299930
O7	O	0.536908	1.128560	-0.084840
O8	O	0.786221	0.743821	0.084828
O9	O	0.536910	1.513317	-0.299932
O10	O	0.772275	1.001957	-0.063317
O11	O	0.690227	1.001951	0.063304
O12	O	0.690228	1.255192	-0.189938
O13	O	0.608181	1.255186	-0.063318
Zr14	Zr	0.818921	1.128582	0.135292
Zr15	Zr	0.818922	1.128581	-0.135307
Zr16	Zr	0.643580	1.128569	0.135292
Zr17	Zr	0.643581	1.399168	-0.135308
Zr18	Zr	0.818921	0.857982	0.135293
O19	O	0.786221	1.343670	0.084825
O20	O	0.786222	1.343668	-0.299931
O21	O	0.536908	1.343652	0.084825
O22	O	0.925593	0.913500	0.299916
O23	O	0.925594	0.913498	-0.084840
O24	O	0.676280	0.913482	0.299917
O25	O	0.925594	1.128589	-0.084841
O26	O	0.786220	1.128581	0.299916
O27	O	0.676280	1.128572	0.299916
O28	O	0.925594	1.128590	0.084826
O29	O	0.676283	1.513327	-0.299932
O30	O	0.786220	0.743822	0.299918
O31	O	0.925593	0.743833	0.299917
O32	O	0.925594	0.743831	0.084828
O33	O	0.536909	1.513318	-0.084842
O34	O	0.676282	1.513329	-0.084842
O35	O	0.772274	1.001958	0.189924
O36	O	0.854321	1.001963	0.063303
O37	O	0.772275	1.255198	-0.063318
O38	O	0.690227	1.255193	0.063302
C39	C	0.731251	0.790096	-0.000006
C40	C	0.731251	0.675219	-0.000005
C41	C	0.511926	1.128559	-0.000007
C42	C	0.437489	1.128553	-0.000007
C43	C	0.309049	0.996384	0.066091
C44	C	0.239104	0.996390	0.066094
C45	C	0.153455	1.260776	-0.066108
C46	C	0.223399	1.260768	-0.066103
C47	C	0.301196	1.128568	-0.000006
C48	C	0.161306	1.128582	-0.000008
C49	C	0.085468	1.128589	-0.000005
C50	C	0.377039	1.128560	-0.000007
C51	C	0.950576	1.128591	-0.000008
C52	C	1.025013	1.128597	-0.000008
C53	C	0.731253	1.128573	-0.338485
C54	C	0.731253	1.128572	-0.453361
C55	C	0.731251	1.467054	-0.000009
C56	C	0.731251	1.581931	-0.000010
C57	C	0.731250	1.128577	0.338470
C58	C	0.731249	1.128577	0.453346
C59	C	0.950576	0.790112	-0.000006
C60	C	1.025013	0.675241	-0.000006
C61	C	0.731249	0.790097	0.338472
C62	C	0.731249	0.675221	0.453349
C63	C	0.950575	0.790114	0.338472
C64	C	1.025011	0.675243	0.453348
C65	C	0.511927	1.467036	-0.338486
C66	C	0.437491	1.581907	-0.453363
C67	C	0.511926	1.467038	-0.000009
C68	C	0.437489	1.581909	-0.000009
C69	C	0.731253	1.467052	-0.338486
C70	C	0.731253	1.581928	-0.453363
C71	C	1.017142	0.621292	-0.066111
C72	C	1.087077	0.513373	-0.066136
C73	C	1.164882	0.459398	-0.000047
C74	C	1.172751	0.513356	0.066060
C75	C	1.102817	0.621281	0.066077
C76	C	1.102803	0.621301	0.441201
C77	C	1.172750	0.513383	0.549129
C78	C	1.164905	0.459401	0.669204
C79	C	1.087105	0.513354	0.681349
C80	C	1.017159	0.621277	0.573421
C81	C	0.359699	1.635862	-0.441215
C82	C	0.289752	1.743813	-0.549144
C83	C	0.297597	1.797801	-0.669218
C84	C	0.375397	1.743842	-0.681363
C85	C	0.445343	1.635899	-0.573436
C86	C	0.445360	1.635869	0.066085
C87	C	0.375425	1.743817	0.066080
C88	C	0.297620	1.797797	-0.000012
C89	C	0.289751	1.743833	-0.066115
C90	C	0.359685	1.635894	-0.066116
H91	H	0.372392	0.888738	0.119925
O92	O	0.520873	1.583649	0.130314
C93	C	0.598446	1.595003	0.261488
C94	C	0.512883	1.654281	0.188777
H95	H	0.592016	1.652061	0.308796
H96	H	0.633350	1.616270	0.193068
H97	H	0.633322	1.472700	0.336507
H98	H	0.477939	1.776591	0.113757
H99	H	0.478041	1.632902	0.257275
O100	O	0.229605	1.902700	-0.000186
C101	C	0.082238	2.057569	-0.072648
C102	C	0.159192	1.938790	-0.072583
H103	H	0.025290	2.086763	-0.131152
H104	H	0.082184	2.158693	-0.115178
H105	H	0.082277	2.015106	0.028431
H106	H	0.159203	1.981117	-0.173622
H107	H	0.159216	1.837689	-0.029981
H108	H	0.245505	0.888753	0.119919
O109	O	0.520969	1.583392	-0.585020
C110	C	0.666685	1.417103	-0.477383
C111	C	0.581091	1.476438	-0.464070
H112	H	0.715317	1.330599	-0.379610
H113	H	0.674092	1.510053	-0.531132
H114	H	0.674011	1.366663	-0.531279
H115	H	0.573706	1.526862	-0.410147
H116	H	0.573723	1.383436	-0.410371
H117	H	0.381775	1.787812	-0.779141
O118	O	1.248292	0.460874	0.130453
C119	C	1.342940	0.338844	0.332307
C120	C	1.257358	0.398267	0.259521
H121	H	1.350304	0.288185	0.436675
H122	H	1.350356	0.431768	0.293266
H123	H	1.391546	0.252490	0.320867
H124	H	1.208701	0.484598	0.270930
H125	H	1.250013	0.305263	0.298578
H126	H	1.236092	0.469466	0.539218
H127	H	0.216999	1.368415	-0.119924
H128	H	1.221866	0.371523	0.757075
H129	H	0.226411	1.787729	-0.539231
O130	O	0.077823	1.389058	-0.130300
C131	C	-0.067889	1.506245	-0.188844
C132	C	0.017713	1.360859	-0.116113
H133	H	-0.116511	1.483496	-0.177378
H134	H	-0.075308	1.571445	-0.293226
H135	H	-0.075217	1.571436	-0.149696
H136	H	0.025099	1.295550	-0.155154
H137	H	0.025093	1.295769	-0.011739
O138	O	0.214211	1.796016	-0.130210
C139	C	0.119561	1.740231	-0.154255
C140	C	0.205142	1.680943	-0.081599
H141	H	0.112194	1.647231	-0.114964
H142	H	0.112150	1.790713	-0.258621
H143	H	0.070954	1.826682	-0.142913
H144	H	0.253800	1.594443	-0.092839
H145	H	0.212482	1.630554	0.022739
O146	O	0.941550	0.673581	-0.130118
C147	C	0.812851	0.706682	-0.118035
C148	C	0.898438	0.647372	-0.045377
H149	H	0.777964	0.685541	-0.049558
H150	H	0.819202	0.649559	-0.165249
H151	H	0.778004	0.828964	-0.193118
H152	H	0.933332	0.525101	0.029766
H153	H	0.892029	0.704604	0.001749
O154	O	1.232897	0.354593	0.000028
C155	C	1.380264	0.199598	0.072616
C156	C	1.303311	0.318319	0.072609
H157	H	1.437212	0.170212	0.131313
H158	H	1.380331	0.242017	-0.028416
H159	H	1.380212	0.098591	0.115027
H160	H	1.303311	0.419365	0.030257
H161	H	1.303273	0.275782	0.173665
O162	O	0.941638	0.673680	0.585392
C163	C	0.847020	0.795557	0.665335
C164	C	0.932576	0.736253	0.651882
H165	H	0.839660	0.846189	0.719068
H166	H	0.839653	0.702574	0.719236
H167	H	0.798382	0.881909	0.567568
H168	H	0.981266	0.649924	0.749596
H169	H	0.939873	0.829316	0.597917
H170	H	0.381848	1.787737	0.119914
H171	H	1.080729	0.469386	0.779128
O172	O	1.110581	0.673509	0.324663
C173	C	1.202932	0.661822	0.204946
C174	C	1.194231	0.602667	0.336994
H175	H	1.270559	0.604551	0.214870
H176	H	1.172385	0.784116	0.150958
H177	H	1.172284	0.640525	0.151245
H178	H	1.224884	0.623860	0.390800
H179	H	1.224757	0.480390	0.390886
O180	O	0.351921	1.583650	-0.324678
C181	C	0.259570	1.595028	-0.204960
C182	C	0.268271	1.654287	-0.337008
H183	H	0.191943	1.652090	-0.214884
H184	H	0.290128	1.616306	-0.151111
H185	H	0.290207	1.472724	-0.151120
H186	H	0.237629	1.776598	-0.390953
H187	H	0.237735	1.632896	-0.390761
H188	H	1.080654	0.469453	-0.119968
H189	H	1.109238	0.665192	0.119915
H190	H	0.240636	1.885694	-0.757089
H191	H	0.353265	1.591963	-0.119935
