data_functionalizedCrystal
_audit_creation_method	'MofGen! by Chris Wilmer'
_symmetry_space_group_name_H-M	'P1'
_symmetry_Int_Tables_number	1
_symmetry_cell_setting	triclinic
loop_
_symmetry_equiv_pos_as_xyz
  x,y,z
_cell_length_a	16.625548
_cell_length_b	12.645330
_cell_length_c	12.645323
_cell_angle_alpha	89.975130
_cell_angle_beta	89.977535
_cell_angle_gamma	90.018760
loop_
_atom_site_label
_atom_site_type_symbol
_atom_site_fract_x
_atom_site_fract_y
_atom_site_fract_z
Zn1	Zn	1.232722	-0.422001	-0.599440
Zn2	Zn	1.566056	-0.088667	-0.266107
Zn3	Zn	1.899389	0.244666	0.067226
Zn4	Zn	1.232632	-0.599289	-0.422180
Zn5	Zn	1.565966	-0.265955	-0.088847
Zn6	Zn	1.899299	0.067378	0.244486
Zn7	Zn	1.097880	-0.422043	-0.422185
Zn8	Zn	1.431213	-0.088710	-0.088852
Zn9	Zn	1.764546	0.244624	0.244481
Zn10	Zn	1.097866	-0.599226	-0.599396
Zn11	Zn	1.431199	-0.265893	-0.266063
Zn12	Zn	1.764532	0.067441	0.067270
O13	O	1.165275	-0.510640	-0.510801
O14	O	1.498608	-0.177306	-0.177467
O15	O	1.831942	0.156027	0.155866
O16	O	1.345543	-0.445527	-0.575943
O17	O	1.678876	-0.112194	-0.242609
O18	O	2.012209	0.221140	0.090724
O19	O	1.214725	-0.575821	-0.273834
O20	O	1.548059	-0.242487	0.059500
O21	O	1.881392	0.090846	0.392833
O22	O	1.115810	-0.273690	-0.445719
O23	O	1.449144	0.059643	-0.112386
O24	O	1.782477	0.392977	0.220948
O25	O	1.345477	-0.575780	-0.445711
O26	O	1.678810	-0.242446	-0.112377
O27	O	2.012143	0.090887	0.220956
O28	O	1.214879	-0.273659	-0.575948
O29	O	1.548212	0.059674	-0.242614
O30	O	1.881545	0.393008	0.090719
O31	O	1.115723	-0.445599	-0.273837
O32	O	1.449056	-0.112266	0.059496
O33	O	1.782390	0.221068	0.392829
O34	O	0.985045	-0.445538	-0.445677
O35	O	1.318379	-0.112205	-0.112343
O36	O	1.651712	0.221129	0.220990
O37	O	1.115787	-0.575673	-0.747750
O38	O	1.449120	-0.242339	-0.414416
O39	O	1.782453	0.090994	-0.081083
O40	O	0.985035	-0.575714	-0.575873
O41	O	1.318369	-0.242380	-0.242539
O42	O	1.651702	0.090953	0.090794
O43	O	1.214865	-0.445466	-0.747782
O44	O	1.548199	-0.112133	-0.414449
O45	O	1.881532	0.221201	-0.081115
O46	O	1.214712	-0.747628	-0.445668
O47	O	1.548045	-0.414294	-0.112335
O48	O	1.881378	-0.080961	0.220999
O49	O	1.115699	-0.747582	-0.575868
O50	O	1.449033	-0.414248	-0.242535
O51	O	1.782366	-0.080915	0.090799
C52	C	0.955784	-0.510624	-0.510771
C53	C	1.289118	-0.177291	-0.177438
C54	C	1.622451	0.156042	0.155896
C55	C	0.866163	-0.510644	-0.510783
C56	C	1.199496	-0.177310	-0.177450
C57	C	1.532830	0.156023	0.155883
C58	C	0.537987	-0.510650	-0.510829
C59	C	0.871321	-0.177317	-0.177495
C60	C	1.204654	0.156016	0.155838
C61	C	0.629296	-0.510646	-0.510813
C62	C	0.962629	-0.177312	-0.177479
C63	C	1.295963	0.156021	0.155854
C64	C	0.702072	-0.510648	-0.510805
C65	C	1.035406	-0.177314	-0.177472
C66	C	1.368739	0.156019	0.155861
C67	C	0.793387	-0.510642	-0.510791
C68	C	1.126720	-0.177308	-0.177458
C69	C	1.460053	0.156025	0.155876
C70	C	1.165216	-0.786069	-0.510786
C71	C	1.498550	-0.452736	-0.177452
C72	C	1.831883	-0.119403	0.155881
C73	C	1.165265	-0.903899	-0.510815
C74	C	1.498598	-0.570566	-0.177482
C75	C	1.831931	-0.237233	0.155852
C76	C	1.103233	-1.071478	-0.592976
C77	C	1.436566	-0.738145	-0.259643
C78	C	1.769900	-0.404812	0.073690
C79	C	1.102916	-0.948919	-0.592712
C80	C	1.436249	-0.615586	-0.259379
C81	C	1.769582	-0.282252	0.073955
C82	C	1.142260	-0.948494	-0.399093
C83	C	1.475594	-0.615161	-0.065760
C84	C	1.808927	-0.281827	0.267574
C85	C	1.141882	-1.071092	-0.399592
C86	C	1.475215	-0.737759	-0.066258
C87	C	1.808548	-0.404426	0.267075
C88	C	1.250681	-1.070987	-0.539469
C89	C	1.584014	-0.737653	-0.206136
C90	C	1.917347	-0.404320	0.127197
C91	C	1.250157	-0.948380	-0.541912
C92	C	1.583491	-0.615046	-0.208579
C93	C	1.916824	-0.281713	0.124754
C94	C	1.375584	-0.510656	-0.510831
C95	C	1.708917	-0.177322	-0.177498
C96	C	2.042251	0.156011	0.155836
C97	C	1.465205	-0.510662	-0.510844
C98	C	1.798538	-0.177329	-0.177511
C99	C	2.131872	0.156004	0.155823
C100	C	1.165334	-0.510558	-0.787306
C101	C	1.498668	-0.177224	-0.453973
C102	C	1.832001	0.156109	-0.120639
C103	C	1.165360	-0.510523	-0.905136
C104	C	1.498693	-0.177189	-0.571803
C105	C	1.832026	0.156144	-0.238470
C106	C	1.165356	-0.234134	-0.510839
C107	C	1.498689	0.099199	-0.177505
C108	C	1.832023	0.432532	0.155828
C109	C	1.165391	-0.116304	-0.510855
C110	C	1.498724	0.217029	-0.177522
C111	C	1.832057	0.550362	0.155812
C112	C	1.102837	-0.592050	-1.072680
C113	C	1.436170	-0.258716	-0.739347
C114	C	1.769504	0.074617	-0.406013
C115	C	1.103001	-0.592453	-0.950120
C116	C	1.436334	-0.259120	-0.616787
C117	C	1.769667	0.074213	-0.283453
C118	C	1.250318	-0.540839	-0.949656
C119	C	1.583651	-0.207506	-0.616322
C120	C	1.916985	0.125828	-0.282989
C121	C	1.249975	-0.541350	-1.072254
C122	C	1.583308	-0.208017	-0.738921
C123	C	1.916642	0.125316	-0.405587
C124	C	1.143727	-0.398223	-1.072334
C125	C	1.477061	-0.064890	-0.739001
C126	C	1.810394	0.268443	-0.405668
C127	C	1.141832	-0.398896	-0.949728
C128	C	1.475165	-0.065563	-0.616394
C129	C	1.808498	0.267770	-0.283061
C130	C	1.165262	-0.510645	-0.235371
C131	C	1.498596	-0.177311	0.097962
C132	C	1.831929	0.156022	0.431296
C133	C	1.165393	-0.510381	-0.117541
C134	C	1.498727	-0.177048	0.215792
C135	C	1.832060	0.156286	0.549125
H136	H	1.117309	-0.918765	-0.675553
H137	H	1.450642	-0.585431	-0.342220
H138	H	1.783975	-0.252098	-0.008886
Cl139	Cl	1.207047	-0.299984	-0.902469
Cl140	Cl	1.540380	0.033350	-0.569135
Cl141	Cl	1.873714	0.366683	-0.235802
H142	H	1.082854	-0.370589	-1.103239
H143	H	1.416188	-0.037255	-0.769905
H144	H	1.749521	0.296078	-0.436572
Cl145	Cl	1.125129	-0.720813	-0.904853
Cl146	Cl	1.458463	-0.387480	-0.571520
Cl147	Cl	1.791796	-0.054147	-0.238187
Cl148	Cl	1.278326	-0.667935	-1.116432
Cl149	Cl	1.611659	-0.334602	-0.783098
Cl150	Cl	1.944993	-0.001269	-0.449765
H151	H	1.040398	-1.102381	-0.574261
H152	H	1.373731	-0.769047	-0.240928
H153	H	1.707065	-0.435714	0.092406
H154	H	1.039686	-0.919686	-0.573755
H155	H	1.373019	-0.586353	-0.240421
H156	H	1.706352	-0.253019	0.092912
Cl157	Cl	1.125244	-1.116891	-0.721300
Cl158	Cl	1.458578	-0.783558	-0.387967
Cl159	Cl	1.791911	-0.450225	-0.054634
Cl160	Cl	1.005735	-0.563159	-0.903641
Cl161	Cl	1.339069	-0.229826	-0.570307
Cl162	Cl	1.672402	0.103507	-0.236974
Cl163	Cl	1.045622	-1.115397	-0.362169
Cl164	Cl	1.378955	-0.782064	-0.028835
Cl165	Cl	1.712289	-0.448730	0.304498
Cl166	Cl	1.324332	-0.453441	-1.118080
Cl167	Cl	1.657666	-0.120108	-0.784747
Cl168	Cl	1.990999	0.213225	-0.451414
Cl169	Cl	1.279160	-0.666098	-0.902279
Cl170	Cl	1.612494	-0.332765	-0.568946
Cl171	Cl	1.945827	0.000568	-0.235613
Cl172	Cl	1.283080	-1.118603	-0.663112
Cl173	Cl	1.616413	-0.785270	-0.329779
Cl174	Cl	1.949746	-0.451936	0.003554
Cl175	Cl	1.208735	-1.116885	-0.301895
Cl176	Cl	1.542069	-0.783551	0.031438
Cl177	Cl	1.875402	-0.450218	0.364771
H178	H	1.298907	-0.917728	-0.486455
H179	H	1.632240	-0.584395	-0.153122
H180	H	1.965573	-0.251061	0.180211
Cl181	Cl	1.047001	-0.901245	-0.360990
Cl182	Cl	1.380335	-0.567911	-0.027657
Cl183	Cl	1.713668	-0.234578	0.305677
H184	H	1.186098	-0.919335	-0.336234
H185	H	1.519431	-0.586001	-0.002901
H186	H	1.852764	-0.252668	0.330432
Cl187	Cl	1.324212	-0.451908	-0.904677
Cl188	Cl	1.657545	-0.118575	-0.571344
Cl189	Cl	1.990879	0.214758	-0.238011
Cl190	Cl	1.276946	-0.903374	-0.668856
Cl191	Cl	1.610279	-0.570041	-0.335523
Cl192	Cl	1.943613	-0.236708	-0.002190
Cl193	Cl	1.322182	-1.115762	-0.447142
Cl194	Cl	1.655516	-0.782428	-0.113809
Cl195	Cl	1.988849	-0.449095	0.219525
Cl196	Cl	1.214071	-0.304281	-1.117127
Cl197	Cl	1.547405	0.029052	-0.783794
Cl198	Cl	1.880738	0.362386	-0.450460
Cl199	Cl	1.005277	-0.563039	-1.118175
Cl200	Cl	1.338610	-0.229706	-0.784841
Cl201	Cl	1.671944	0.103627	-0.451508
H202	H	1.117000	-0.674677	-1.103499
H203	H	1.450334	-0.341344	-0.770166
H204	H	1.783667	-0.008011	-0.436832
Cl205	Cl	1.045298	-0.363600	-0.904816
Cl206	Cl	1.378631	-0.030266	-0.571482
Cl207	Cl	1.711964	0.303067	-0.238149
