data_functionalizedCrystal
_audit_creation_method	'MofGen! by Chris Wilmer'
_symmetry_space_group_name_H-M	'P1'
_symmetry_Int_Tables_number	1
_symmetry_cell_setting	triclinic
loop_
_symmetry_equiv_pos_as_xyz
  x,y,z
_cell_length_a	10.654541
_cell_length_b	23.532407
_cell_length_c	9.730217
_cell_angle_alpha	89.988287
_cell_angle_beta	89.999932
_cell_angle_gamma	83.666338
loop_
_atom_site_label
_atom_site_type_symbol
_atom_site_fract_x
_atom_site_fract_y
_atom_site_fract_z
O1	O	1.665305	0.079977	-0.114277
O2	O	1.299584	0.087599	-0.114291
O3	O	1.493473	0.000928	-0.114245
O4	O	1.471416	0.166648	-0.114323
O5	O	1.493467	0.000928	0.114335
O6	O	1.299578	0.087598	0.114289
O7	O	1.665299	0.079977	0.114304
Zn8	Zn	1.482438	0.083787	0.150588
Zn9	Zn	1.482445	0.083788	-0.150576
O10	O	1.471410	0.166647	0.114257
C11	C	1.252801	0.087039	-0.000002
C12	C	1.113410	0.085366	-0.000006
C13	C	1.492908	-0.020292	0.000052
C14	C	1.491219	-0.083520	0.000073
C15	C	1.082156	0.189004	-0.000072
C16	C	1.001045	0.240035	-0.000110
C17	C	0.870077	0.238459	-0.000111
C18	C	0.820219	0.185847	-0.000069
C19	C	0.901330	0.134816	-0.000031
C20	C	1.032299	0.136398	-0.000035
C21	C	0.932584	0.031179	0.000045
C22	C	1.063552	0.032754	0.000035
C23	C	0.882725	-0.021433	0.000086
C24	C	0.963837	-0.072465	0.000115
C25	C	1.094812	-0.070887	0.000114
C26	C	1.144663	-0.018277	0.000074
C27	C	1.369516	-0.350480	-0.000018
C28	C	1.371085	-0.291069	-0.000007
O29	O	1.274539	-0.254953	-0.000055
N30	N	1.486351	-0.267692	0.000013
C31	C	1.600057	-0.303730	0.000009
O32	O	1.698244	-0.278391	0.000026
C33	C	1.598487	-0.363139	-0.000011
C34	C	1.483213	-0.386512	-0.000018
C35	C	1.254251	-0.373853	-0.000026
C36	C	1.252683	-0.433260	-0.000034
C37	C	1.366380	-0.469292	-0.000034
C38	C	1.481645	-0.445919	-0.000026
C39	C	1.712191	-0.399175	-0.000025
C40	C	1.710611	-0.458588	-0.000047
C41	C	1.595337	-0.481961	-0.000053
C42	C	1.593773	-0.541357	-0.000034
N43	N	1.478506	-0.564734	-0.000054
C44	C	1.364810	-0.528702	-0.000054
C45	C	1.603345	-0.178966	0.000050
C46	C	1.604917	-0.119557	0.000080
C47	C	1.375944	-0.106901	0.000061
C48	C	1.374374	-0.166310	0.000041
C49	C	1.488079	-0.202342	0.000029
C50	C	1.361525	-0.653460	-0.000070
C51	C	1.359967	-0.712872	-0.000072
C52	C	1.588939	-0.725523	-0.000061
C53	C	1.590498	-0.666116	-0.000051
C54	C	1.476781	-0.630085	-0.000061
O55	O	1.690268	-0.577508	0.000008
O56	O	1.266639	-0.554049	-0.000090
C57	C	1.712082	0.080536	0.000012
C58	C	1.851473	0.082210	0.000007
C59	C	1.471975	0.187867	-0.000043
C60	C	1.473664	0.251095	-0.000073
N61	N	1.482441	0.083786	0.356125
N62	N	1.482451	0.083785	-0.356112
C63	C	1.654199	0.007062	0.356156
C64	C	1.740086	-0.031299	0.428112
C65	C	1.740099	-0.031299	0.571992
C66	C	1.654213	0.007064	0.643919
C67	C	1.568326	0.045425	0.571964
C68	C	1.568325	0.045422	0.428080
C69	C	1.396564	0.122146	0.571932
C70	C	1.396556	0.122150	0.428052
C71	C	1.310678	0.160509	0.643859
C72	C	1.224795	0.198873	0.571904
C73	C	1.224787	0.198872	0.428015
C74	C	1.310669	0.160510	0.356096
H75	H	1.041654	0.282871	-0.000141
H76	H	1.310674	0.160508	0.238942
C77	C	0.703634	-0.051915	-0.117399
C78	C	0.738764	-0.023168	0.000083
H79	H	0.614758	-0.052990	-0.117398
H80	H	0.727491	-0.032422	-0.197108
H81	H	0.744814	-0.089835	-0.117352
H82	H	0.697591	0.014753	0.000030
H83	H	0.714894	-0.042661	0.079812
H84	H	1.188796	0.190293	-0.000102
H85	H	0.923230	-0.115298	0.000148
C86	C	1.909877	-0.107142	0.557587
C87	C	1.834499	-0.073468	0.651094
H88	H	1.968157	-0.133173	0.606425
H89	H	1.857868	-0.127848	0.501485
H90	H	1.954744	-0.083242	0.501451
H91	H	1.789624	-0.097368	0.707224
H92	H	1.886515	-0.052761	0.707220
C93	C	1.112539	-0.173490	0.000182
C94	C	1.183966	-0.126983	0.000149
H95	H	1.167578	-0.208121	0.000193
H96	H	1.060814	-0.171946	0.079890
H97	H	1.060798	-0.171947	-0.079532
H98	H	1.235699	-0.128523	0.079868
H99	H	1.235712	-0.128527	-0.079568
C100	C	1.335319	0.214278	0.849929
C101	C	1.310683	0.160511	0.802014
H102	H	1.335312	0.214281	0.947568
H103	H	1.415466	0.222408	0.817377
H104	H	1.271870	0.242608	0.817354
H105	H	1.374137	0.132182	0.834581
H106	H	1.230524	0.152375	0.834581
C107	C	1.340788	-0.044231	-0.117412
C108	C	1.288624	-0.016540	0.000070
H109	H	1.429662	-0.043154	-0.117413
H110	H	1.322712	-0.082862	-0.117371
H111	H	1.305379	-0.025450	-0.197130
H112	H	1.324026	-0.035324	0.079788
H113	H	1.306711	0.022098	0.000040
C114	C	1.225339	-0.772345	0.117414
C115	C	1.233249	-0.738562	-0.000086
H116	H	1.147107	-0.788201	0.117405
H117	H	1.292815	-0.802308	0.117406
H118	H	1.230710	-0.749435	0.197120
H119	H	1.227887	-0.761474	-0.079792
H120	H	1.165754	-0.708596	-0.000090
H121	H	0.804035	0.280013	-0.000132
C122	C	1.055002	0.274707	0.557429
C123	C	1.130390	0.241035	0.650964
H124	H	0.996714	0.300733	0.606244
H125	H	1.107003	0.295418	0.501310
H126	H	1.010144	0.250805	0.501312
H127	H	1.175255	0.264937	0.707075
H128	H	1.078381	0.220322	0.707107
H129	H	1.268926	-0.624130	-0.000078
C130	C	1.560675	0.048838	0.150033
C131	C	1.654195	0.007066	0.198002
H132	H	1.560682	0.048842	0.052395
H133	H	1.480534	0.040697	0.182582
H134	H	1.577401	0.085307	0.182577
H135	H	1.637464	-0.029404	0.165466
H136	H	1.734354	0.015204	0.165439
H137	H	1.280508	-0.185336	0.000041
C138	C	0.624094	0.211798	-0.117579
C139	C	0.676257	0.184114	-0.000060
H140	H	0.535219	0.210723	-0.117574
H141	H	0.642177	0.250428	-0.117594
H142	H	0.659498	0.193009	-0.197271
H143	H	0.640859	0.202905	0.079633
H144	H	0.658163	0.145476	-0.000033
H145	H	1.283366	-0.077552	0.000062
H146	H	1.654218	0.007057	0.761074
H147	H	1.158815	-0.452284	-0.000051
C148	C	1.816451	-0.065320	0.207563
C149	C	1.834559	-0.073434	0.349047
H150	H	1.874799	-0.091323	0.158759
H151	H	1.732765	-0.071896	0.183959
H152	H	1.829530	-0.027240	0.184018
H153	H	1.821470	-0.111513	0.372595
H154	H	1.918264	-0.066863	0.372661
H155	H	1.161660	-0.344521	-0.000030
C156	C	1.053721	0.210506	0.266220
C157	C	1.130374	0.241040	0.348927
H158	H	0.995430	0.236541	0.217407
H159	H	1.104864	0.187668	0.202794
H160	H	1.008867	0.186608	0.322377
H161	H	1.175236	0.264935	0.292769
H162	H	1.079225	0.263888	0.412361
H163	H	1.698784	-0.100533	0.000107
H164	H	1.695943	-0.208300	0.000050
H165	H	1.803205	-0.487923	-0.000064
C166	C	1.938353	-0.417678	-0.000047
C167	C	1.838906	-0.373494	-0.000028
H168	H	2.016585	-0.401823	-0.000058
H169	H	1.932974	-0.440593	0.079656
H170	H	1.932951	-0.440576	-0.079767
H171	H	1.844302	-0.350597	0.079697
H172	H	1.844287	-0.350569	-0.079739
H173	H	1.681508	-0.754871	-0.000054
H174	H	1.684363	-0.647085	-0.000026
