data_functionalizedCrystal
_audit_creation_method	'MofGen! by Chris Wilmer'
_symmetry_space_group_name_H-M	'P1'
_symmetry_Int_Tables_number	1
_symmetry_cell_setting	triclinic
loop_
_symmetry_equiv_pos_as_xyz
  x,y,z
_cell_length_a	31.640172
_cell_length_b	14.809374
_cell_length_c	14.809374
_cell_angle_alpha	60.797835
_cell_angle_beta	90.004769
_cell_angle_gamma	67.424801
loop_
_atom_site_label
_atom_site_type_symbol
_atom_site_fract_x
_atom_site_fract_y
_atom_site_fract_z
Zr1	Zr	0.466858	0.955103	-0.203542
O2	O	0.415083	1.113035	-0.350716
O3	O	0.475400	0.777335	-0.145463
O4	O	0.492689	0.926479	-0.331998
O5	O	0.392494	0.993388	-0.031784
O6	O	0.562244	0.926464	-0.331979
O7	O	0.397794	0.963891	-0.164181
O8	O	0.531317	0.659673	0.001699
O9	O	0.423421	1.260179	-0.365462
O10	O	0.539807	0.857789	-0.136340
O11	O	0.483944	0.879813	-0.037548
O12	O	0.504299	1.055411	-0.257169
O13	O	0.448436	1.077435	-0.158378
Zr14	Zr	0.569338	1.002124	0.007646
Zr15	Zr	0.577791	0.955080	-0.203511
Zr16	Zr	0.458405	1.002147	0.007615
Zr17	Zr	0.480156	1.189781	-0.227060
Zr18	Zr	0.556040	0.767446	0.031163
O19	O	0.560796	1.179892	-0.050433
O20	O	0.572815	1.113002	-0.350672
O21	O	0.403064	1.179925	-0.050478
O22	O	0.621113	0.844192	0.154820
O23	O	0.633132	0.777301	-0.145419
O24	O	0.463381	0.844225	0.154775
O25	O	0.643702	0.963839	-0.164112
O26	O	0.543507	1.030748	0.136102
O27	O	0.473952	1.030763	0.136082
O28	O	0.638402	0.993336	-0.031715
O29	O	0.511598	1.260160	-0.365437
O30	O	0.524598	0.697066	0.169540
O31	O	0.612775	0.697048	0.169565
O32	O	0.619494	0.659654	0.001723
O33	O	0.416702	1.297573	-0.197620
O34	O	0.504879	1.297554	-0.197595
O35	O	0.531897	0.901816	0.061273
O36	O	0.587760	0.879792	-0.037519
O37	O	0.552252	1.077413	-0.158348
O38	O	0.496389	1.099437	-0.059557
C39	C	0.501464	0.685067	-0.068532
C40	C	0.495818	0.585440	-0.058548
C41	C	0.521013	0.530098	-0.103104
C42	C	0.515179	0.427128	-0.092786
C43	C	0.379338	0.978643	-0.097987
C44	C	0.332244	0.978652	-0.098000
C45	C	0.058767	0.875449	-0.034855
C46	C	-0.118220	0.875432	-0.034834
O47	O	-0.125344	0.787708	0.018842
N48	N	-0.158885	0.978587	-0.097907
C49	C	-0.155301	1.081756	-0.160984
O50	O	-0.193950	1.169497	-0.214623
C51	C	0.021685	1.081773	-0.160999
C52	C	0.062349	0.978609	-0.097931
C53	C	0.099429	0.772294	0.028209
C54	C	0.143673	0.772298	0.028199
C55	C	0.147255	0.875458	-0.034876
C56	C	0.106593	0.978614	-0.097941
C57	C	0.025268	1.184942	-0.224071
C58	C	0.069519	1.184937	-0.224067
C59	C	0.110183	1.081773	-0.160998
C60	C	0.154419	1.081778	-0.161027
N61	N	0.195083	0.978623	-0.097954
C62	C	0.191502	0.875463	-0.034878
C63	C	-0.248220	1.081739	-0.160973
C64	C	-0.292466	1.081734	-0.160971
C65	C	-0.255382	0.875410	-0.034819
C66	C	-0.211135	0.875415	-0.034828
C67	C	-0.207556	0.978583	-0.097900
C68	C	0.284416	0.875480	-0.034906
C69	C	0.328662	0.875493	-0.034925
C70	C	0.291575	1.081817	-0.161073
C71	C	0.247332	1.081804	-0.161058
C72	C	0.243755	0.978626	-0.097966
O73	O	0.161578	1.169458	-0.214666
O74	O	0.230155	0.787738	0.018770
C75	C	0.014523	0.875445	-0.034845
C76	C	-0.026139	0.978600	-0.097910
C77	C	-0.022557	1.081760	-0.160985
C78	C	-0.070386	0.978596	-0.097907
C79	C	-0.073968	0.875436	-0.034832
C80	C	-0.033303	0.772281	0.028241
C81	C	0.010941	0.772285	0.028230
C82	C	-0.063222	1.184916	-0.224058
C83	C	-0.107464	1.184902	-0.224043
C84	C	-0.111046	1.081743	-0.160968
C85	C	0.656858	0.978584	-0.097909
C86	C	0.703952	0.978574	-0.097896
C87	C	0.528671	0.919768	-0.362074
C88	C	0.532259	0.899797	-0.451716
C89	C	0.534732	1.272160	-0.127365
C90	C	0.540378	1.371787	-0.137349
C91	C	0.516245	0.988927	-0.551620
C92	C	0.519953	0.968288	-0.644271
C93	C	0.507525	1.037458	0.166177
C94	C	0.503937	1.057430	0.255819
C95	C	0.640224	0.685038	-0.068493
C96	C	0.681672	0.585401	-0.058496
C97	C	0.490891	0.743912	0.195594
C98	C	0.481657	0.664256	0.295220
C99	C	0.629651	0.743883	0.195633
C100	C	0.667511	0.664217	0.295272
C101	C	0.406545	1.213344	-0.391529
C102	C	0.368686	1.293009	-0.491168
C103	C	0.395972	1.272189	-0.127404
C104	C	0.354524	1.371826	-0.137401
C105	C	0.545305	1.213315	-0.391490
C106	C	0.554539	1.292970	-0.491116
C107	C	0.676106	0.527124	-0.105393
C108	C	0.715048	0.433513	-0.096021
C109	C	0.759556	0.398176	-0.039745
C110	C	0.765121	0.456463	0.007154
C111	C	0.726180	0.550077	-0.002225
C112	C	0.502351	0.638336	0.393597
C113	C	0.493674	0.563506	0.487212
C114	C	0.464304	0.514591	0.482449
C115	C	0.443607	0.540519	0.384061
C116	C	0.452282	0.615354	0.290447
C117	C	0.714455	0.615309	0.290495
C118	C	0.750034	0.540466	0.384107
C119	C	0.738667	0.514527	0.482495
C120	C	0.691718	0.563444	0.487269
C121	C	0.656140	0.638291	0.393657
C122	C	0.321742	1.341929	-0.486393
C123	C	0.286165	1.416801	-0.580007
C124	C	0.297532	1.442745	-0.678396
C125	C	0.344481	1.393823	-0.683169
C126	C	0.380057	1.318958	-0.589556
C127	C	0.360091	1.430111	-0.090513
C128	C	0.321151	1.523743	-0.099911
C129	C	0.276644	1.559082	-0.156191
C130	C	0.271078	1.500791	-0.203085
C131	C	0.310018	1.407167	-0.193693
C132	C	0.583911	1.341863	-0.486318
C133	C	0.592596	1.416697	-0.579917
C134	C	0.571907	1.442644	-0.678314
C135	C	0.542533	1.393742	-0.683110
C136	C	0.533851	1.318903	-0.589511
H137	H	0.566271	0.400629	-0.183132
C138	C	0.802387	0.295188	-0.029429
N139	N	0.834646	0.217613	-0.021658
C140	C	0.554491	0.776063	-0.428824
N141	N	0.571235	0.682864	-0.411579
C142	C	0.309227	1.313414	-0.378175
N143	N	0.299797	1.291948	-0.296669
C144	C	0.409046	1.391262	-0.028605
N145	N	0.445919	1.362013	0.018021
H146	H	0.546905	0.558943	-0.148884
C147	C	0.777808	0.432180	0.585462
N148	N	0.807291	0.370151	0.663014
C149	C	0.460841	0.546469	0.003307
N150	N	0.434495	0.517118	0.049895
H151	H	0.457244	0.453658	0.558683
H152	H	0.730718	0.597517	0.035972
H153	H	0.489289	0.398279	-0.046996
H154	H	0.234835	1.529579	-0.248908
H155	H	0.801364	0.427678	0.052973
H156	H	0.509932	1.279103	-0.593432
H157	H	0.247940	1.456622	-0.576100
C158	C	-0.259331	0.761935	0.034571
N159	N	-0.262308	0.676472	0.086839
H160	H	0.305479	1.359713	-0.231872
H161	H	0.526266	0.678157	0.397496
C162	C	0.327283	1.587838	-0.048310
N163	N	0.331903	1.636110	-0.009441
H164	H	0.710507	0.386065	-0.134213
C165	C	0.516450	0.534990	0.595429
N166	N	0.533607	0.513510	0.676936
C167	C	0.604501	0.692081	0.398930
N168	N	0.565607	0.732594	0.402909
C169	C	0.373392	0.762000	0.034461
N170	N	0.407080	0.676520	0.086724
H171	H	0.487481	1.149024	-0.761130
C172	C	0.411304	0.486695	0.378839
N173	N	0.386975	0.446147	0.374910
C174	C	0.627152	0.565980	-0.167311
N175	N	0.590281	0.595245	-0.213956
H176	H	0.435431	0.636445	0.210348
H177	H	0.499791	1.080514	-0.568560
C178	C	0.356976	1.422362	-0.791406
N179	N	0.366386	1.443852	-0.872933
C180	C	0.801674	0.486659	0.378833
N181	N	0.840568	0.446130	0.374858
C182	C	0.280489	0.761978	0.034491
N183	N	0.277532	0.676487	0.086753
C184	C	0.679221	0.534888	0.595508
N185	N	0.669809	0.513370	0.677037
C186	C	0.258390	1.525090	-0.781363
N187	N	0.228907	1.587108	-0.858914
C188	C	0.431695	1.265139	-0.594826
N189	N	0.470588	1.224602	-0.598802
H190	H	0.244940	1.635319	-0.163830
C191	C	0.606678	1.313330	-0.378090
N192	N	0.623831	1.291839	-0.296574
H193	H	0.176780	0.688291	0.079552
C194	C	0.624906	1.470482	-0.574619
N195	N	0.649241	1.510991	-0.570626
H196	H	0.723719	0.636416	0.210391
C197	C	0.581461	1.524973	-0.781268
N198	N	0.588659	1.586987	-0.858809
H199	H	0.525690	1.414880	-0.763237
H200	H	0.096520	0.688285	0.079578
H201	H	-0.325572	1.165738	-0.212341
C202	C	-0.166408	0.761929	0.034560
N203	N	-0.132722	0.676447	0.086828
H204	H	-0.245312	1.165755	-0.212342
H205	H	-0.007835	1.268949	-0.275427
H206	H	0.072428	1.268954	-0.275417
H207	H	0.214222	1.165805	-0.212427
H208	H	0.294500	1.165806	-0.212431
H209	H	0.044047	0.688279	0.079590
H210	H	-0.140572	1.268916	-0.275412
C211	C	-0.037252	0.658805	0.097625
N212	N	-0.040229	0.573341	0.149888
H213	H	-0.060312	1.268922	-0.275424
H214	H	0.536412	0.876694	-0.627324
