data_functionalizedCrystal
_audit_creation_method	'MofGen! by Chris Wilmer'
_symmetry_space_group_name_H-M	'P1'
_symmetry_Int_Tables_number	1
_symmetry_cell_setting	triclinic
loop_
_symmetry_equiv_pos_as_xyz
  x,y,z
_cell_length_a	15.186229
_cell_length_b	9.065218
_cell_length_c	9.065218
_cell_angle_alpha	94.984115
_cell_angle_beta	90.001905
_cell_angle_gamma	89.996565
loop_
_atom_site_label
_atom_site_type_symbol
_atom_site_fract_x
_atom_site_fract_y
_atom_site_fract_z
O1	O	0.073227	-1.960399	0.216355
O2	O	0.406560	-1.627066	0.549688
O3	O	0.739894	-1.293733	0.883022
O4	O	0.073228	-1.531114	0.234101
O5	O	0.406561	-1.197781	0.567435
O6	O	0.739895	-0.864448	0.900768
O7	O	0.073226	-1.754630	0.010586
O8	O	0.406559	-1.421297	0.343919
O9	O	0.739892	-1.087963	0.677252
O10	O	0.073229	-1.736884	0.439871
O11	O	0.406563	-1.403550	0.773204
O12	O	0.739896	-1.070217	1.106537
O13	O	-0.073232	-1.754615	0.010582
O14	O	0.260102	-1.421282	0.343916
O15	O	0.593435	-1.087948	0.677249
O16	O	-0.073229	-1.531099	0.234098
O17	O	0.260104	-1.197766	0.567431
O18	O	0.593437	-0.864433	0.900765
O19	O	-0.073230	-1.960384	0.216352
O20	O	0.260103	-1.627051	0.549685
O21	O	0.593436	-1.293717	0.883018
Zn22	Zn	-0.096483	-1.745739	0.225224
Zn23	Zn	0.236850	-1.412406	0.558558
Zn24	Zn	0.570184	-1.079073	0.891891
Zn25	Zn	0.096481	-1.745759	0.225229
Zn26	Zn	0.429814	-1.412426	0.558562
Zn27	Zn	0.763147	-1.079093	0.891895
O28	O	-0.073228	-1.736868	0.439867
O29	O	0.260105	-1.403535	0.773200
O30	O	0.593439	-1.070202	1.106534
C31	C	-0.000001	-1.476120	0.232394
C32	C	0.333333	-1.142787	0.565727
C33	C	0.666666	-0.809454	0.899061
C34	C	-0.000000	-1.312277	0.227294
C35	C	0.333333	-0.978944	0.560628
C36	C	0.666666	-0.645611	0.893961
N37	N	-0.228176	-1.745736	0.225220
N38	N	0.105158	-1.412403	0.558554
N39	N	0.438491	-1.079070	0.891887
C40	C	-0.000002	-1.752917	-0.044403
C41	C	0.333332	-1.419584	0.288931
C42	C	0.666665	-1.086250	0.622264
C43	C	0.000003	-1.747817	-0.208245
C44	C	0.333336	-1.414484	0.125088
C45	C	0.666669	-1.081151	0.458421
C46	C	-0.453900	-1.844744	0.126282
C47	C	-0.120566	-1.511410	0.459615
C48	C	0.212767	-1.178077	0.792949
C49	C	-0.546089	-1.844748	0.126278
C50	C	-0.212756	-1.511415	0.459612
C51	C	0.120577	-1.178082	0.792945
C52	C	-0.546096	-1.646756	0.324164
C53	C	-0.212763	-1.313422	0.657497
C54	C	0.120570	-0.980089	0.990831
C55	C	-0.453908	-1.646745	0.324159
C56	C	-0.120575	-1.313412	0.657493
C57	C	0.212758	-0.980078	0.990826
C58	C	-0.407812	-1.745747	0.225220
C59	C	-0.074479	-1.412414	0.558553
C60	C	0.258854	-1.079081	0.891887
C61	C	-0.592190	-1.745763	0.225221
C62	C	-0.258857	-1.412429	0.558555
C63	C	0.074477	-1.079096	0.891888
C64	C	-0.692146	-1.745767	0.225218
C65	C	-0.358813	-1.412434	0.558552
C66	C	-0.025480	-1.079100	0.891885
C67	C	-0.307850	-1.745742	0.225221
C68	C	0.025483	-1.412408	0.558554
C69	C	0.358817	-1.079075	0.891887
N70	N	0.228173	-1.745774	0.225221
N71	N	0.561507	-1.412440	0.558554
N72	N	0.894840	-1.079107	0.891888
C73	C	0.000000	-2.015378	0.218059
C74	C	0.333333	-1.682045	0.551392
C75	C	0.666667	-1.348712	0.884725
C76	C	0.000005	-2.179221	0.223158
C77	C	0.333339	-1.845888	0.556492
C78	C	0.666672	-1.512555	0.889825
C79	C	0.000001	-1.738582	0.494855
C80	C	0.333334	-1.405248	0.828189
C81	C	0.666668	-1.071915	1.161522
C82	C	0.000003	-1.743681	0.658698
C83	C	0.333336	-1.410348	0.992032
C84	C	0.666669	-1.077015	1.325365
H85	H	-0.416370	-1.925355	0.045717
H86	H	-0.083037	-1.592022	0.379051
H87	H	0.250296	-1.258689	0.712384
H88	H	-0.416382	-1.566123	0.404727
H89	H	-0.083048	-1.232790	0.738060
H90	H	0.250285	-0.899457	1.071394
H91	H	-0.583611	-1.925358	0.045712
H92	H	-0.250278	-1.592025	0.379046
H93	H	0.083056	-1.258692	0.712379
H94	H	-0.583637	-1.566152	0.404720
H95	H	-0.250304	-1.232819	0.738054
H96	H	0.083030	-0.899486	1.071387
