data_functionalizedCrystal
_audit_creation_method	'MofGen! by Chris Wilmer'
_symmetry_space_group_name_H-M	'P1'
_symmetry_Int_Tables_number	1
_symmetry_cell_setting	triclinic
loop_
_symmetry_equiv_pos_as_xyz
  x,y,z
_cell_length_a	16.625547
_cell_length_b	29.839131
_cell_length_c	16.625539
_cell_angle_alpha	90.027924
_cell_angle_beta	90.024822
_cell_angle_gamma	90.041640
loop_
_atom_site_label
_atom_site_type_symbol
_atom_site_fract_x
_atom_site_fract_y
_atom_site_fract_z
Zn1	Zn	1.232573	-0.178853	0.456003
Zn2	Zn	1.482573	0.071147	0.706003
Zn3	Zn	1.732573	0.321147	0.956003
Zn4	Zn	1.982573	0.571147	1.206003
Zn5	Zn	1.232431	-0.253984	0.321171
Zn6	Zn	1.482431	-0.003984	0.571171
Zn7	Zn	1.732431	0.246016	0.821171
Zn8	Zn	1.982431	0.496016	1.071171
Zn9	Zn	1.097735	-0.178869	0.321173
Zn10	Zn	1.347735	0.071131	0.571173
Zn11	Zn	1.597735	0.321131	0.821173
Zn12	Zn	1.847735	0.571131	1.071173
Zn13	Zn	1.097660	-0.253957	0.455951
Zn14	Zn	1.347660	-0.003957	0.705951
Zn15	Zn	1.597660	0.246043	0.955951
Zn16	Zn	1.847660	0.496043	1.205951
O17	O	1.165099	-0.216416	0.388575
O18	O	1.415099	0.033584	0.638575
O19	O	1.665099	0.283584	0.888575
O20	O	1.915099	0.533584	1.138575
O21	O	1.345386	-0.188824	0.438138
O22	O	1.595386	0.061176	0.688138
O23	O	1.845386	0.311176	0.938138
O24	O	2.095386	0.561176	1.188138
O25	O	1.214535	-0.244038	0.208339
O26	O	1.464535	0.005962	0.458339
O27	O	1.714535	0.255962	0.708339
O28	O	1.964535	0.505962	0.958339
O29	O	1.115712	-0.116000	0.339082
O30	O	1.365712	0.134000	0.589082
O31	O	1.615712	0.384000	0.839082
O32	O	1.865712	0.634000	1.089082
O33	O	1.345282	-0.244023	0.339078
O34	O	1.595282	0.005977	0.589078
O35	O	1.845282	0.255977	0.839078
O36	O	2.095282	0.505977	1.089078
O37	O	1.214777	-0.115988	0.438140
O38	O	1.464777	0.134012	0.688140
O39	O	1.714777	0.384012	0.938140
O40	O	1.964777	0.634012	1.188140
O41	O	1.115574	-0.188851	0.208341
O42	O	1.365574	0.061149	0.458341
O43	O	1.615574	0.311149	0.708341
O44	O	1.865574	0.561149	0.958341
O45	O	0.984892	-0.188825	0.339031
O46	O	1.234892	0.061175	0.589031
O47	O	1.484892	0.311175	0.839031
O48	O	1.734892	0.561175	1.089031
O49	O	1.115584	-0.243976	0.568790
O50	O	1.365584	0.006024	0.818790
O51	O	1.615584	0.256024	1.068790
O52	O	1.865584	0.506024	1.318790
O53	O	0.984837	-0.243991	0.438052
O54	O	1.234837	0.006009	0.688052
O55	O	1.484837	0.256009	0.938052
O56	O	1.734837	0.506009	1.188052
O57	O	1.214704	-0.188798	0.568828
O58	O	1.464704	0.061202	0.818828
O59	O	1.714704	0.311202	1.068828
O60	O	1.964704	0.561202	1.318828
O61	O	1.214462	-0.316848	0.339027
O62	O	1.464462	-0.066848	0.589027
O63	O	1.714462	0.183152	0.839027
O64	O	1.964462	0.433152	1.089027
O65	O	1.115447	-0.316828	0.438049
O66	O	1.365447	-0.066828	0.688049
O67	O	1.615447	0.183172	0.938049
O68	O	1.865447	0.433172	1.188049
C69	C	0.955609	-0.216407	0.388536
C70	C	1.205609	0.033593	0.638536
C71	C	1.455609	0.283593	0.888536
C72	C	1.705609	0.533593	1.138536
C73	C	0.865987	-0.216414	0.388539
C74	C	1.115987	0.033586	0.638539
C75	C	1.365987	0.283586	0.888539
C76	C	1.615987	0.533586	1.138539
C77	C	0.793205	-0.216415	0.388549
C78	C	1.043205	0.033585	0.638549
C79	C	1.293205	0.283585	0.888549
C80	C	1.543205	0.533585	1.138549
C81	C	0.701897	-0.216417	0.388569
C82	C	0.951897	0.033583	0.638569
C83	C	1.201897	0.283583	0.888569
C84	C	1.451897	0.533583	1.138569
C85	C	0.629120	-0.216422	0.388590
C86	C	0.879120	0.033578	0.638590
C87	C	1.129120	0.283578	0.888590
C88	C	1.379120	0.533578	1.138590
C89	C	0.537806	-0.216425	0.388609
C90	C	0.787806	0.033575	0.638609
C91	C	1.037806	0.283575	0.888609
C92	C	1.287806	0.533575	1.138609
C93	C	1.164953	-0.333138	0.388550
C94	C	1.414953	-0.083138	0.638550
C95	C	1.664953	0.166862	0.888550
C96	C	1.914953	0.416862	1.138550
C97	C	1.164964	-0.383073	0.388566
C98	C	1.414964	-0.133073	0.638566
C99	C	1.664964	0.116927	0.888566
C100	C	1.914964	0.366927	1.138566
C101	C	1.113575	-0.739665	0.440132
C102	C	1.363575	-0.489665	0.690132
C103	C	1.613575	-0.239665	0.940132
C104	C	1.863575	0.010335	1.190132
C105	C	1.113469	-0.551992	0.440107
C106	C	1.363469	-0.301992	0.690107
C107	C	1.613469	-0.051992	0.940107
C108	C	1.863469	0.198008	1.190107
O109	O	1.069600	-0.527732	0.483935
O110	O	1.319600	-0.277732	0.733935
O111	O	1.569600	-0.027732	0.983935
O112	O	1.819600	0.222268	1.233935
N113	N	1.165049	-0.528518	0.388590
N114	N	1.415049	-0.278518	0.638590
N115	N	1.665049	-0.028518	0.888590
N116	N	1.915049	0.221482	1.138590
C117	C	1.216664	-0.551965	0.337080
C118	C	1.466664	-0.301965	0.587080
C119	C	1.716664	-0.051965	0.837080
C120	C	1.966664	0.198035	1.087080
O121	O	1.260539	-0.527692	0.293268
O122	O	1.510539	-0.277692	0.543268
O123	O	1.760539	-0.027692	0.793268
O124	O	2.010539	0.222308	1.043268
C125	C	1.216774	-0.739637	0.337110
C126	C	1.466774	-0.489637	0.587110
C127	C	1.716774	-0.239637	0.837110
C128	C	1.966774	0.010363	1.087110
C129	C	1.165184	-0.763109	0.388624
C130	C	1.415184	-0.513109	0.638624
C131	C	1.665184	-0.263109	0.888624
C132	C	1.915184	-0.013109	1.138624
C133	C	1.061990	-0.763137	0.491642
C134	C	1.311990	-0.513137	0.741642
C135	C	1.561990	-0.263137	0.991642
C136	C	1.811990	-0.013137	1.241642
C137	C	1.062014	-0.810052	0.491645
C138	C	1.312014	-0.560052	0.741645
C139	C	1.562014	-0.310052	0.991645
C140	C	1.812014	-0.060052	1.241645
C141	C	1.113623	-0.833496	0.440137
C142	C	1.363623	-0.583496	0.690137
C143	C	1.613623	-0.333496	0.940137
C144	C	1.863623	-0.083496	1.190137
C145	C	1.165208	-0.810024	0.388627
C146	C	1.415208	-0.560024	0.638627
C147	C	1.665208	-0.310024	0.888627
C148	C	1.915208	-0.060024	1.138627
C149	C	1.268392	-0.763083	0.285605
C150	C	1.518392	-0.513083	0.535605
C151	C	1.768392	-0.263083	0.785605
C152	C	2.018392	-0.013083	1.035605
C153	C	1.268416	-0.810004	0.285618
C154	C	1.518416	-0.560004	0.535618
C155	C	1.768416	-0.310004	0.785618
C156	C	2.018416	-0.060004	1.035618
C157	C	1.216826	-0.833476	0.337132
C158	C	1.466826	-0.583476	0.587132
C159	C	1.716826	-0.333476	0.837132
C160	C	1.966826	-0.083476	1.087132
C161	C	1.216841	-0.880383	0.337122
C162	C	1.466841	-0.630383	0.587122
C163	C	1.716841	-0.380383	0.837122
C164	C	1.966841	-0.130383	1.087122
N165	N	1.165260	-0.903858	0.388638
N166	N	1.415260	-0.653858	0.638638
N167	N	1.665260	-0.403858	0.888638
N168	N	1.915260	-0.153858	1.138638
C169	C	1.113652	-0.880414	0.440146
C170	C	1.363652	-0.630414	0.690146
C171	C	1.613652	-0.380414	0.940146
C172	C	1.863652	-0.130414	1.190146
C173	C	1.216601	-0.453434	0.337067
C174	C	1.466601	-0.203434	0.587067
C175	C	1.716601	0.046566	0.837067
C176	C	1.966601	0.296566	1.087067
C177	C	1.216573	-0.406516	0.337058
C178	C	1.466573	-0.156516	0.587058
C179	C	1.716573	0.093484	0.837058
C180	C	1.966573	0.343484	1.087058
C181	C	1.113379	-0.406547	0.440086
C182	C	1.363379	-0.156547	0.690086
C183	C	1.613379	0.093453	0.940086
C184	C	1.863379	0.343453	1.190086
C185	C	1.113403	-0.453466	0.440090
C186	C	1.363403	-0.203466	0.690090
C187	C	1.613403	0.046534	0.940090
C188	C	1.863403	0.296534	1.190090
C189	C	1.165021	-0.476908	0.388584
C190	C	1.415021	-0.226908	0.638584
C191	C	1.665021	0.023092	0.888584
C192	C	1.915021	0.273092	1.138584
C193	C	1.113706	-0.978940	0.440147
C194	C	1.363706	-0.728940	0.690147
C195	C	1.613706	-0.478940	0.940147
C196	C	1.863706	-0.228940	1.190147
C197	C	1.113732	-1.025859	0.440143
C198	C	1.363732	-0.775859	0.690143
C199	C	1.613732	-0.525859	0.940143
C200	C	1.863732	-0.275859	1.190143
C201	C	1.216929	-1.025825	0.337119
C202	C	1.466929	-0.775825	0.587119
C203	C	1.716929	-0.525825	0.837119
C204	C	1.966929	-0.275825	1.087119
C205	C	1.216900	-0.978909	0.337119
C206	C	1.466900	-0.728909	0.587119
C207	C	1.716900	-0.478909	0.837119
C208	C	1.966900	-0.228909	1.087119
C209	C	1.165285	-0.955468	0.388640
C210	C	1.415285	-0.705468	0.638640
C211	C	1.665285	-0.455468	0.888640
C212	C	1.915285	-0.205468	1.138640
O213	O	1.260692	-0.904672	0.293323
O214	O	1.510692	-0.654672	0.543323
O215	O	1.760692	-0.404672	0.793323
O216	O	2.010692	-0.154672	1.043323
O217	O	1.069795	-0.904694	0.483965
O218	O	1.319795	-0.654694	0.733965
O219	O	1.569795	-0.404694	0.983965
O220	O	1.819795	-0.154694	1.233965
C221	C	1.113551	-0.692750	0.440129
C222	C	1.363551	-0.442750	0.690129
C223	C	1.613551	-0.192750	0.940129
C224	C	1.863551	0.057250	1.190129
C225	C	1.165136	-0.669278	0.388619
C226	C	1.415136	-0.419278	0.638619
C227	C	1.665136	-0.169278	0.888619
C228	C	1.915136	0.080722	1.138619
C229	C	1.216745	-0.692722	0.337111
C230	C	1.466745	-0.442722	0.587111
C231	C	1.716745	-0.192722	0.837111
C232	C	1.966745	0.057278	1.087111
C233	C	1.165107	-0.622360	0.388610
C234	C	1.415107	-0.372360	0.638610
C235	C	1.665107	-0.122360	0.888610
C236	C	1.915107	0.127640	1.138610
C237	C	1.113499	-0.598916	0.440118
C238	C	1.363499	-0.348916	0.690118
C239	C	1.613499	-0.098916	0.940118
C240	C	1.863499	0.151084	1.190118
C241	C	1.061918	-0.622391	0.491634
C242	C	1.311918	-0.372391	0.741634
C243	C	1.561918	-0.122391	0.991634
C244	C	1.811918	0.127609	1.241634
C245	C	1.061942	-0.669306	0.491637
C246	C	1.311942	-0.419306	0.741637
C247	C	1.561942	-0.169306	0.991637
C248	C	1.811942	0.080694	1.241637
C249	C	1.268325	-0.669247	0.285595
C250	C	1.518325	-0.419247	0.535595
C251	C	1.768325	-0.169247	0.785595
C252	C	2.018325	0.080753	1.035595
C253	C	1.268296	-0.622332	0.285595
C254	C	1.518296	-0.372332	0.535595
C255	C	1.768296	-0.122332	0.785595
C256	C	2.018296	0.127668	1.035595
C257	C	1.216687	-0.598888	0.337103
C258	C	1.466687	-0.348888	0.587103
C259	C	1.716687	-0.098888	0.837103
C260	C	1.966687	0.151112	1.087103
C261	C	1.375408	-0.216425	0.388613
C262	C	1.625408	0.033575	0.638613
C263	C	1.875408	0.283575	0.888613
C264	C	2.125408	0.533575	1.138613
C265	C	1.465029	-0.216429	0.388630
C266	C	1.715029	0.033571	0.638630
C267	C	1.965029	0.283571	0.888630
C268	C	2.215029	0.533571	1.138630
C269	C	1.165152	-0.216382	0.598884
C270	C	1.415152	0.033618	0.848884
C271	C	1.665152	0.283618	1.098884
C272	C	1.915152	0.533618	1.348884
C273	C	1.165174	-0.216368	0.688505
C274	C	1.415174	0.033632	0.938505
C275	C	1.665174	0.283632	1.188505
C276	C	1.915174	0.533632	1.438505
C277	C	1.165269	-0.099237	0.388617
C278	C	1.415269	0.150763	0.638617
C279	C	1.665269	0.400763	0.888617
C280	C	1.915269	0.650763	1.138617
C281	C	1.165341	-0.049303	0.388635
C282	C	1.415341	0.200697	0.638635
C283	C	1.665341	0.450697	0.888635
C284	C	1.915341	0.700697	1.138635
C285	C	1.165094	-0.216417	0.179084
C286	C	1.415094	0.033583	0.429084
C287	C	1.665094	0.283583	0.679084
C288	C	1.915094	0.533583	0.929084
C289	C	1.165228	-0.216304	0.089463
C290	C	1.415228	0.033696	0.339463
C291	C	1.665228	0.283696	0.589463
C292	C	1.915228	0.533696	0.839463
C293	C	1.165211	-0.216318	1.016681
C294	C	1.415211	0.033682	1.266681
C295	C	1.665211	0.283682	1.516681
C296	C	1.915211	0.533682	1.766681
C297	C	1.165199	-0.216333	0.925372
C298	C	1.415199	0.033667	1.175372
C299	C	1.665199	0.283667	1.425372
C300	C	1.915199	0.533667	1.675372
C301	C	1.165193	-0.216343	0.852596
C302	C	1.415193	0.033657	1.102596
C303	C	1.665193	0.283657	1.352596
C304	C	1.915193	0.533657	1.602596
C305	C	1.165180	-0.216358	0.761281
C306	C	1.415180	0.033642	1.011281
C307	C	1.665180	0.283642	1.261281
C308	C	1.915180	0.533642	1.511281
H309	H	1.071678	-0.959859	0.482101
H310	H	1.321678	-0.709859	0.732101
H311	H	1.571678	-0.459859	0.982101
H312	H	1.821678	-0.209859	1.232101
O313	O	1.272269	-0.478717	0.281503
O314	O	1.522269	-0.228717	0.531503
O315	O	1.772269	0.021283	0.781503
O316	O	2.022269	0.271283	1.031503
H317	H	1.308120	-0.454507	0.245677
H318	H	1.558120	-0.204507	0.495677
H319	H	1.808120	0.045493	0.745677
H320	H	2.058120	0.295493	0.995677
O321	O	1.324044	-0.737773	0.230052
O322	O	1.574044	-0.487773	0.480052
O323	O	1.824044	-0.237773	0.730052
O324	O	2.074044	0.012227	0.980052
H325	H	1.359939	-0.761965	0.194252
H326	H	1.609939	-0.511965	0.444252
H327	H	1.859939	-0.261965	0.694252
H328	H	2.109939	-0.011965	0.944252
O329	O	1.323989	-0.694532	0.230037
O330	O	1.573989	-0.444532	0.480037
O331	O	1.823989	-0.194532	0.730037
O332	O	2.073989	0.055468	0.980037
H333	H	1.310184	-0.685554	0.166742
H334	H	1.560184	-0.435554	0.416742
H335	H	1.810184	-0.185554	0.666742
H336	H	2.060184	0.064446	0.916742
O337	O	1.324085	-0.835290	0.230059
O338	O	1.574085	-0.585290	0.480059
O339	O	1.824085	-0.335290	0.730059
O340	O	2.074085	-0.085290	0.980059
H341	H	1.359944	-0.811083	0.194236
H342	H	1.609944	-0.561083	0.444236
H343	H	1.859944	-0.311083	0.694236
H344	H	2.109944	-0.061083	0.944236
H345	H	1.071720	-1.044968	0.482094
H346	H	1.321720	-0.794968	0.732094
H347	H	1.571720	-0.544968	0.982094
H348	H	1.821720	-0.294968	1.232094
O349	O	1.006380	-0.835366	0.547215
O350	O	1.256380	-0.585366	0.797215
O351	O	1.506380	-0.335366	1.047215
O352	O	1.756380	-0.085366	1.297215
H353	H	0.970500	-0.811176	0.583032
H354	H	1.220500	-0.561176	0.833032
H355	H	1.470500	-0.311176	1.083032
H356	H	1.720500	-0.061176	1.333032
O357	O	1.057716	-0.381251	0.495637
O358	O	1.307716	-0.131251	0.745637
O359	O	1.557716	0.118749	0.995637
O360	O	1.807716	0.368749	1.245637
H361	H	0.994444	-0.390291	0.481744
H362	H	1.244444	-0.140291	0.731744
H363	H	1.494444	0.109709	0.981744
H364	H	1.744444	0.359709	1.231744
H365	H	1.019893	-0.603295	0.533571
H366	H	1.269893	-0.353295	0.783571
H367	H	1.519893	-0.103295	1.033571
H368	H	1.769893	0.146705	1.283571
H369	H	1.258944	-1.044921	0.295179
H370	H	1.508944	-0.794921	0.545179
H371	H	1.758944	-0.544921	0.795179
H372	H	2.008944	-0.294921	1.045179
O373	O	1.006307	-0.737855	0.547187
O374	O	1.256307	-0.487855	0.797187
O375	O	1.506307	-0.237855	1.047187
O376	O	1.756307	0.012145	1.297187
H377	H	0.970440	-0.762066	0.582993
H378	H	1.220440	-0.512066	0.832993
H379	H	1.470440	-0.262066	1.082993
H380	H	1.720440	-0.012066	1.332993
H381	H	1.258900	-0.959798	0.295164
H382	H	1.508900	-0.709798	0.545164
H383	H	1.758900	-0.459798	0.795164
H384	H	2.008900	-0.209798	1.045164
O385	O	1.272212	-0.381202	0.281495
O386	O	1.522212	-0.131202	0.531495
O387	O	1.772212	0.118798	0.781495
O388	O	2.022212	0.368798	1.031495
H389	H	1.308107	-0.405391	0.245689
H390	H	1.558107	-0.155391	0.495689
H391	H	1.808107	0.094609	0.745689
H392	H	2.058107	0.344609	0.995689
O393	O	1.006305	-0.694620	0.547204
O394	O	1.256305	-0.444620	0.797204
O395	O	1.506305	-0.194620	1.047204
O396	O	1.756305	0.055380	1.297204
H397	H	0.970424	-0.670429	0.583020
H398	H	1.220424	-0.420429	0.833020
H399	H	1.470424	-0.170429	1.083020
H400	H	1.720424	0.079571	1.333020
H401	H	1.310305	-0.603224	0.243639
H402	H	1.560305	-0.353224	0.493639
H403	H	1.810305	-0.103224	0.743639
H404	H	2.060305	0.146776	0.993639
O405	O	1.057768	-0.478781	0.495657
O406	O	1.307768	-0.228781	0.745657
O407	O	1.557768	0.021219	0.995657
O408	O	1.807768	0.271219	1.245657
H409	H	1.021883	-0.454592	0.531472
H410	H	1.271883	-0.204592	0.781472
H411	H	1.521883	0.045408	1.031472
H412	H	1.771883	0.295408	1.281472
