data_functionalizedCrystal
_audit_creation_method	'MofGen! by Chris Wilmer'
_symmetry_space_group_name_H-M	'P1'
_symmetry_Int_Tables_number	1
_symmetry_cell_setting	triclinic
loop_
_symmetry_equiv_pos_as_xyz
  x,y,z
_cell_length_a	17.077404
_cell_length_b	29.839131
_cell_length_c	17.077396
_cell_angle_alpha	89.968087
_cell_angle_beta	89.980499
_cell_angle_gamma	90.041645
loop_
_atom_site_label
_atom_site_type_symbol
_atom_site_fract_x
_atom_site_fract_y
_atom_site_fract_z
Zn1	Zn	1.199954	-0.178851	-0.443824
Zn2	Zn	1.699954	0.321149	0.056176
Zn3	Zn	1.199818	-0.253981	-0.312550
Zn4	Zn	1.699818	0.246019	0.187450
Zn5	Zn	1.068685	-0.178866	-0.312572
Zn6	Zn	1.568685	0.321134	0.187428
Zn7	Zn	1.068611	-0.253955	-0.443774
Zn8	Zn	1.568611	0.246045	0.056226
O9	O	1.134267	-0.216413	-0.378180
O10	O	1.634267	0.283587	0.121820
O11	O	1.309782	-0.188821	-0.426422
O12	O	1.809782	0.311179	0.073578
O13	O	1.182398	-0.244035	-0.202706
O14	O	1.682398	0.255965	0.297294
O15	O	1.086186	-0.115997	-0.330013
O16	O	1.586186	0.384003	0.169987
O17	O	1.309683	-0.244020	-0.329976
O18	O	1.809683	0.255980	0.170024
O19	O	1.182628	-0.115986	-0.426443
O20	O	1.682628	0.384014	0.073557
O21	O	1.086055	-0.188848	-0.202722
O22	O	1.586055	0.311152	0.297278
O23	O	0.958829	-0.188822	-0.329964
O24	O	1.458829	0.311178	0.170036
O25	O	1.086059	-0.243974	-0.553627
O26	O	1.586059	0.256026	-0.053627
O27	O	0.958774	-0.243989	-0.426358
O28	O	1.458774	0.256011	0.073642
O29	O	1.182556	-0.188796	-0.553664
O30	O	1.682556	0.311204	-0.053664
O31	O	1.182325	-0.316845	-0.329927
O32	O	1.682325	0.183155	0.170073
O33	O	1.085928	-0.316825	-0.426336
O34	O	1.585928	0.183175	0.073664
C35	C	0.930319	-0.216405	-0.378158
C36	C	1.430319	0.283595	0.121842
C37	C	0.843069	-0.216412	-0.378168
C38	C	1.343069	0.283588	0.121832
C39	C	1.134125	-0.333136	-0.378141
C40	C	1.634125	0.166864	0.121859
C41	C	1.134136	-0.383070	-0.378151
C42	C	1.634136	0.116930	0.121849
C43	C	0.802071	-0.245181	-0.428279
C44	C	1.302071	0.254819	0.071721
C45	C	0.720091	-0.245182	-0.428292
C46	C	1.220091	0.254818	0.071708
C47	C	0.679110	-0.216416	-0.378188
C48	C	1.179110	0.283584	0.121812
C49	C	0.720114	-0.187644	-0.328074
C50	C	1.220114	0.312356	0.171926
C51	C	0.802093	-0.187641	-0.328066
C52	C	1.302093	0.312359	0.171934
C53	C	0.549244	-0.187653	-0.328093
C54	C	1.049244	0.312347	0.171907
C55	C	0.467259	-0.187657	-0.328100
C56	C	0.967259	0.312343	0.171900
C57	C	0.467242	-0.245194	-0.428319
C58	C	0.967242	0.254806	0.071681
C59	C	0.549221	-0.245191	-0.428311
C60	C	1.049221	0.254809	0.071689
C61	C	0.590219	-0.216420	-0.378196
C62	C	1.090219	0.283580	0.121804
C63	C	1.184552	-0.692711	-0.328053
C64	C	1.684552	-0.192711	0.171947
C65	C	1.184649	-0.880384	-0.328083
C66	C	1.684649	-0.380384	0.171917
O67	O	1.227402	-0.904647	-0.285459
O68	O	1.727402	-0.404647	0.214541
N69	N	1.134430	-0.903855	-0.378239
N70	N	1.634430	-0.403855	0.121761
C71	C	1.084186	-0.880405	-0.428394
C72	C	1.584186	-0.380405	0.071606
O73	O	1.041479	-0.904675	-0.471061
O74	O	1.541479	-0.404675	0.028939
C75	C	1.084094	-0.692733	-0.428367
C76	C	1.584094	-0.192733	0.071633
C77	C	1.134311	-0.669264	-0.378203
C78	C	1.634311	-0.169264	0.121797
C79	C	1.234766	-0.669242	-0.277893
C80	C	1.734766	-0.169242	0.222107
C81	C	1.234738	-0.622327	-0.277883
C82	C	1.734738	-0.122327	0.222117
C83	C	1.184497	-0.598880	-0.328033
C84	C	1.684497	-0.098880	0.171967
C85	C	1.134283	-0.622349	-0.378193
C86	C	1.634283	-0.122349	0.121807
C87	C	1.033855	-0.669284	-0.478526
C88	C	1.533855	-0.169284	0.021474
C89	C	1.033837	-0.622363	-0.478516
C90	C	1.533837	-0.122363	0.021484
C91	C	1.084055	-0.598894	-0.428352
C92	C	1.584055	-0.098894	0.071648
C93	C	1.084014	-0.551987	-0.428332
C94	C	1.584014	-0.051987	0.071668
N95	N	1.134233	-0.528516	-0.378177
N96	N	1.634233	-0.028516	0.121823
C97	C	1.184475	-0.551962	-0.328027
C98	C	1.684475	-0.051962	0.171973
C99	C	1.084237	-0.978936	-0.428404
C100	C	1.584237	-0.478936	0.071596
C101	C	1.084259	-1.025854	-0.428410
C102	C	1.584259	-0.525854	0.071590
C103	C	1.184723	-1.025829	-0.328100
C104	C	1.684723	-0.525829	0.171900
C105	C	1.184697	-0.978911	-0.328090
C106	C	1.684697	-0.478911	0.171910
C107	C	1.134457	-0.955465	-0.378248
C108	C	1.634457	-0.455465	0.121752
C109	C	1.184412	-0.453437	-0.328009
C110	C	1.684412	0.046563	0.171991
C111	C	1.184378	-0.406517	-0.328001
C112	C	1.684378	0.093483	0.171999
C113	C	1.083917	-0.406545	-0.428314
C114	C	1.583917	0.093455	0.071686
C115	C	1.083948	-0.453461	-0.428319
C116	C	1.583948	0.046539	0.071681
C117	C	1.134202	-0.476905	-0.378164
C118	C	1.634202	0.023095	0.121836
O119	O	1.041290	-0.527695	-0.470941
O120	O	1.541290	-0.027695	0.029059
O121	O	1.227188	-0.527685	-0.285378
O122	O	1.727188	-0.027685	0.214622
C123	C	1.184580	-0.739627	-0.328063
C124	C	1.684580	-0.239627	0.171937
C125	C	1.134366	-0.763095	-0.378223
C126	C	1.634366	-0.263095	0.121777
C127	C	1.084125	-0.739649	-0.428373
C128	C	1.584125	-0.239649	0.071627
C129	C	1.134388	-0.810013	-0.378229
C130	C	1.634388	-0.310013	0.121771
C131	C	1.184630	-0.833460	-0.328079
C132	C	1.684630	-0.333460	0.171921
C133	C	1.234849	-0.809989	-0.277923
C134	C	1.734849	-0.309989	0.222077
C135	C	1.234822	-0.763073	-0.277913
C136	C	1.734822	-0.263073	0.222087
C137	C	1.033905	-0.763120	-0.478529
C138	C	1.533905	-0.263120	0.021471
C139	C	1.033937	-0.810035	-0.478534
C140	C	1.533937	-0.310035	0.021466
C141	C	1.084178	-0.833482	-0.428384
C142	C	1.584178	-0.333482	0.071616
C143	C	1.339011	-0.216422	-0.378202
C144	C	1.839011	0.283578	0.121798
C145	C	1.426261	-0.216425	-0.378212
C146	C	1.926261	0.283575	0.121788
C147	C	1.134314	-0.216380	-0.582924
C148	C	1.634314	0.283620	-0.082924
C149	C	1.134335	-0.216366	-0.670174
C150	C	1.634335	0.283634	-0.170174
C151	C	1.134431	-0.099235	-0.378236
C152	C	1.634431	0.400765	0.121764
C153	C	1.134500	-0.049300	-0.378260
C154	C	1.634500	0.450700	0.121740
C155	C	1.184582	-0.187632	-0.711185
C156	C	1.684582	0.312368	-0.211185
C157	C	1.184592	-0.187617	-0.793165
C158	C	1.684592	0.312383	-0.293165
C159	C	1.134357	-0.216339	-0.834134
C160	C	1.634357	0.283661	-0.334134
C161	C	1.084104	-0.245074	-0.793117
C162	C	1.584104	0.254926	-0.293117
C163	C	1.084091	-0.245086	-0.711138
C164	C	1.584091	0.254914	-0.211138
C165	C	1.084135	-0.245047	-0.963987
C166	C	1.584135	0.254953	-0.463987
C167	C	1.084149	-0.245035	-1.045972
C168	C	1.584149	0.254965	-0.545972
C169	C	1.184636	-0.187578	-1.046014
C170	C	1.684636	0.312422	-0.546014
C171	C	1.184624	-0.187590	-0.964035
C172	C	1.684624	0.312410	-0.464035
C173	C	1.134371	-0.216326	-0.923025
C174	C	1.634371	0.283674	-0.423025
C175	C	1.134265	-0.216414	-0.174232
C176	C	1.634265	0.283586	0.325768
C177	C	1.134397	-0.216301	-0.086983
C178	C	1.634397	0.283699	0.413017
H179	H	0.835432	-0.268607	-0.469077
H180	H	1.335432	0.231393	0.030923
H181	H	1.225534	-0.164205	-0.930681
H182	H	1.725534	0.335795	-0.430681
C183	C	1.229258	-0.162030	-1.171697
C184	C	1.729258	0.337970	-0.671697
C185	C	1.239862	-0.155983	-1.091090
C186	C	1.739862	0.344017	-0.591090
H187	H	1.263347	-0.142523	-1.199526
H188	H	1.763347	0.357477	-0.699526
H189	H	1.240714	-0.192208	-1.185122
H190	H	1.740714	0.307792	-0.685122
H191	H	1.176522	-0.155453	-1.185111
H192	H	1.676522	0.344547	-0.685111
H193	H	1.292597	-0.162563	-1.077675
H194	H	1.792597	0.337437	-0.577675
H195	H	1.228412	-0.125798	-1.077660
H196	H	1.728412	0.374202	-0.577660
C197	C	0.641457	-0.251503	-0.533864
C198	C	1.141457	0.248497	-0.033864
C199	C	0.594269	-0.276810	-0.483386
C200	C	1.094269	0.223190	0.016614
H201	H	0.669271	-0.271023	-0.567863
H202	H	1.169271	0.228977	-0.067863
H203	H	0.609510	-0.231957	-0.563954
H204	H	1.109510	0.268043	-0.063954
H205	H	0.677603	-0.234370	-0.504007
H206	H	1.177603	0.265630	-0.004007
H207	H	0.558120	-0.293940	-0.513243
H208	H	1.058120	0.206060	-0.013243
H209	H	0.626219	-0.296363	-0.453293
H210	H	1.126219	0.203637	0.046707
H211	H	1.043242	-0.268422	-1.079326
H212	H	1.543242	0.231578	-0.579326
C213	C	0.927771	-0.162088	-0.283559
C214	C	1.427771	0.337912	0.216441
C215	C	0.847162	-0.156018	-0.272983
C216	C	1.347162	0.343982	0.227017
H217	H	0.955593	-0.142561	-0.249556
H218	H	1.455593	0.357439	0.250444
H219	H	0.941163	-0.192260	-0.271969
H220	H	1.441163	0.307740	0.228031
H221	H	0.941227	-0.155551	-0.336324
H222	H	1.441227	0.344449	0.163676
H223	H	0.833706	-0.162558	-0.220219
H224	H	1.333706	0.337442	0.279781
H225	H	0.833765	-0.125839	-0.284567
H226	H	1.333765	0.374161	0.215433
C227	C	0.341570	-0.270744	-0.472847
C228	C	0.841570	0.229256	0.027153
C229	C	0.422180	-0.276817	-0.483412
C230	C	0.922180	0.223183	0.016588
H231	H	0.313750	-0.290265	-0.506861
H232	H	0.813750	0.209735	-0.006861
H233	H	0.328105	-0.277281	-0.420093
H234	H	0.828105	0.222719	0.079907
H235	H	0.328186	-0.240566	-0.484437
H236	H	0.828186	0.259434	0.015563
H237	H	0.435565	-0.306994	-0.471817
H238	H	0.935565	0.193006	0.028183
H239	H	0.435650	-0.270284	-0.536179
H240	H	0.935650	0.229716	-0.036179
H241	H	1.275756	-0.829087	-0.237087
H242	H	1.775756	-0.329087	0.262913
C243	C	1.073096	-0.305526	-0.618903
C244	C	1.573096	0.194474	-0.118903
C245	C	1.028864	-0.276672	-0.666048
C246	C	1.528864	0.223328	-0.166048
H247	H	1.038998	-0.325022	-0.591062
H248	H	1.538998	0.174978	-0.091062
H249	H	1.107268	-0.322707	-0.650882
H250	H	1.607268	0.177293	-0.150882
H251	H	1.103011	-0.288414	-0.582781
H252	H	1.603011	0.211586	-0.082781
H253	H	0.998953	-0.293783	-0.702174
H254	H	1.498953	0.206217	-0.202174
H255	H	0.994679	-0.259489	-0.634066
H256	H	1.494679	0.240511	-0.134066
C257	C	1.222916	-0.111565	-0.685992
C258	C	1.722916	0.388435	-0.185992
C259	C	1.239801	-0.156059	-0.666156
C260	C	1.739801	0.343941	-0.166156
H261	H	1.257003	-0.092072	-0.658191
H262	H	1.757003	0.407928	-0.158191
H263	H	1.230116	-0.107450	-0.740679
H264	H	1.730116	0.392550	-0.240679
H265	H	1.170180	-0.104997	-0.672545
H266	H	1.670180	0.395003	-0.172545
H267	H	1.292536	-0.162628	-0.679608
H268	H	1.792536	0.337372	-0.179608
H269	H	1.232607	-0.160176	-0.611457
H270	H	1.732607	0.339824	-0.111457
C271	C	1.195590	-0.127164	-0.885367
C272	C	1.695590	0.372836	-0.385367
C273	C	1.239822	-0.156026	-0.838237
C274	C	1.739822	0.343974	-0.338237
H275	H	1.229688	-0.107657	-0.913185
H276	H	1.729688	0.392343	-0.413185
H277	H	1.165687	-0.144266	-0.921501
H278	H	1.665687	0.355734	-0.421501
H279	H	1.161408	-0.109991	-0.853374
H280	H	1.661408	0.390009	-0.353374
H281	H	1.274001	-0.173202	-0.870230
H282	H	1.774001	0.326798	-0.370230
H283	H	1.269739	-0.138923	-0.802098
H284	H	1.769739	0.361077	-0.302098
H285	H	0.433895	-0.164227	-0.287311
H286	H	0.933895	0.335773	0.212689
H287	H	1.275713	-0.743969	-0.237065
H288	H	1.775713	-0.243969	0.262935
C289	C	0.984836	-0.301858	-0.972176
C290	C	1.484836	0.198142	-0.472176
C291	C	1.028915	-0.276644	-0.918907
C292	C	1.528915	0.223356	-0.418907
H293	H	0.950757	-0.321370	-0.944343
H294	H	1.450757	0.178630	-0.444343
H295	H	0.954826	-0.282282	-1.004144
H296	H	1.454826	0.217718	-0.504144
H297	H	1.019032	-0.319028	-1.004159
H298	H	1.519032	0.180972	-0.504159
H299	H	0.994719	-0.259471	-0.886927
H300	H	1.494719	0.240529	-0.386927
H301	H	1.058927	-0.296222	-0.886925
H302	H	1.558927	0.203778	-0.386925
C303	C	0.541030	-0.130788	-0.229014
C304	C	1.041030	0.369212	0.270986
C305	C	0.594311	-0.156032	-0.272997
C306	C	1.094311	0.343968	0.227003
H307	H	0.568855	-0.111272	-0.194995
H308	H	1.068855	0.388728	0.305005
H309	H	0.509097	-0.113625	-0.263269
H310	H	1.009097	0.386375	0.236731
H311	H	0.509014	-0.150347	-0.198938
H312	H	1.009014	0.349653	0.301062
H313	H	0.626324	-0.136473	-0.303078
H314	H	1.126324	0.363527	0.196922
H315	H	0.626257	-0.173196	-0.238738
H316	H	1.126257	0.326804	0.261262
H317	H	1.225632	-1.044928	-0.287266
H318	H	1.725632	-0.544928	0.212734
H319	H	0.686741	-0.164221	-0.287283
H320	H	1.186741	0.335779	0.212717
H321	H	1.043199	-0.268458	-0.826480
H322	H	1.543199	0.231542	-0.326480
H323	H	0.992958	-0.688384	-0.519372
H324	H	1.492958	-0.188384	-0.019372
H325	H	0.686714	-0.268609	-0.469097
H326	H	1.186714	0.231391	0.030903
H327	H	1.225271	-0.387410	-0.287148
H328	H	1.725271	0.112590	0.212852
H329	H	1.225336	-0.472520	-0.287169
H330	H	1.725336	0.027480	0.212831
C331	C	1.039289	-0.334630	-0.472837
C332	C	1.539289	0.165370	0.027163
C333	C	1.028697	-0.380766	-0.483441
C334	C	1.528697	0.119234	0.016559
H335	H	1.005204	-0.318715	-0.506878
H336	H	1.505204	0.181285	-0.006878
H337	H	1.027820	-0.326972	-0.420090
H338	H	1.527820	0.173028	0.079910
H339	H	1.092026	-0.326914	-0.484366
H340	H	1.592026	0.173086	0.015634
H341	H	0.975961	-0.388483	-0.471906
H342	H	1.475961	0.111517	0.028094
H343	H	1.040160	-0.388428	-0.536199
H344	H	1.540160	0.111572	-0.036199
H345	H	1.275632	-0.603222	-0.237037
H346	H	1.775632	-0.103222	0.262963
C347	C	0.934637	-0.805335	-0.577698
C348	C	1.434637	-0.305335	-0.077698
C349	C	0.978734	-0.835829	-0.533682
C350	C	1.478734	-0.335829	-0.033682
H351	H	0.900567	-0.821258	-0.611749
H352	H	1.400567	-0.321258	-0.111749
H353	H	0.904618	-0.787070	-0.543465
H354	H	1.404618	-0.287070	-0.043465
H355	H	0.968824	-0.787000	-0.607741
H356	H	1.468824	-0.287000	-0.107741
H357	H	0.944548	-0.854161	-0.503635
H358	H	1.444548	-0.354161	-0.003635
H359	H	1.008755	-0.854101	-0.567920
H360	H	1.508755	-0.354101	-0.067920
H361	H	1.275683	-0.688328	-0.237055
H362	H	1.775683	-0.188328	0.262945
H363	H	1.225588	-0.959805	-0.287243
H364	H	1.725588	-0.459805	0.212757
H365	H	1.043360	-1.044958	-0.469252
H366	H	1.543360	-0.544958	0.030748
C367	C	0.984925	-0.983683	-0.527547
C368	C	1.484925	-0.483683	-0.027547
C369	C	1.028998	-0.953168	-0.483534
C370	C	1.528998	-0.453168	0.016466
H371	H	0.950817	-0.967775	-0.561575
H372	H	1.450817	-0.467775	-0.061575
H373	H	1.019118	-1.001949	-0.557607
H374	H	1.519118	-0.501949	-0.057607
H375	H	0.954939	-1.002014	-0.493305
H376	H	1.454939	-0.502014	0.006695
H377	H	1.058988	-0.934839	-0.517775
H378	H	1.558988	-0.434839	-0.017775
H379	H	0.994801	-0.934894	-0.453471
H380	H	1.494801	-0.434894	0.046529
H381	H	0.992926	-0.603275	-0.519363
H382	H	1.492926	-0.103275	-0.019363
H383	H	1.043059	-0.472570	-0.469170
H384	H	1.543059	0.027430	0.030830
H385	H	0.992994	-0.744033	-0.519368
H386	H	1.492994	-0.244033	-0.019368
