data_functionalizedCrystal
_audit_creation_method	'MofGen! by Chris Wilmer'
_symmetry_space_group_name_H-M	'P1'
_symmetry_Int_Tables_number	1
_symmetry_cell_setting	triclinic
loop_
_symmetry_equiv_pos_as_xyz
  x,y,z
_cell_length_a	10.967926
_cell_length_b	11.792254
_cell_length_c	9.482900
_cell_angle_alpha	99.398945
_cell_angle_beta	92.549900
_cell_angle_gamma	84.460570
loop_
_atom_site_label
_atom_site_type_symbol
_atom_site_fract_x
_atom_site_fract_y
_atom_site_fract_z
O1	O	1.611521	0.200404	0.282842
O2	O	2.111521	0.700404	0.782842
O3	O	1.262324	0.202894	0.195354
O4	O	1.762324	0.702894	0.695354
O5	O	1.445387	0.036809	0.241229
O6	O	1.945387	0.536809	0.741229
O7	O	1.428458	0.366489	0.236967
O8	O	1.928458	0.866489	0.736967
O9	O	1.408203	0.070687	0.473704
O10	O	1.908203	0.570687	0.973704
O11	O	1.225140	0.236771	0.427829
O12	O	1.725140	0.736771	0.927829
O13	O	1.574338	0.234282	0.515317
O14	O	2.074338	0.734282	1.015317
Cu15	Cu	1.396344	0.238620	0.492799
Cu16	Cu	1.896344	0.738620	0.992799
Cu17	Cu	1.440317	0.198556	0.217871
Cu18	Cu	1.940317	0.698556	0.717871
O19	O	1.391274	0.400366	0.469442
O20	O	1.891274	0.900366	0.969442
C21	C	1.199027	0.217091	0.300391
C22	C	1.699027	0.717091	0.800391
C23	C	1.065820	0.208911	0.267017
C24	C	1.565820	0.708911	0.767017
C25	C	1.425729	0.011416	0.357199
C26	C	1.925729	0.511416	0.857199
C27	C	1.422536	-0.114721	0.356398
C28	C	1.922536	0.385279	0.856398
C29	C	0.987170	0.222813	0.372567
C30	C	1.487170	0.722813	0.872567
C31	C	0.849493	0.214358	0.338076
C32	C	1.349493	0.714358	0.838076
C33	C	1.419943	-0.217159	0.355743
C34	C	1.919943	0.282841	0.855743
C35	C	1.416702	-0.345673	0.354917
C36	C	1.916702	0.154327	0.854917
C37	C	1.637635	0.220083	0.410277
C38	C	2.137635	0.720083	0.910277
C39	C	1.770843	0.228263	0.443641
C40	C	2.270843	0.728263	0.943641
C41	C	1.410933	0.425759	0.353469
C42	C	1.910933	0.925759	0.853469
C43	C	1.414127	0.551895	0.354261
C44	C	1.914127	1.051895	0.854261
N45	N	1.365424	0.266798	0.686171
N46	N	1.865424	0.766798	1.186171
N47	N	1.471247	0.170368	0.024502
N48	N	1.971247	0.670368	0.524502
C49	C	1.431189	0.206861	0.774851
C50	C	1.931189	0.706861	1.274851
C51	C	1.405472	0.230315	0.935824
C52	C	1.905472	0.730315	1.435824
H53	H	1.021761	0.240968	0.488466
H54	H	1.521761	0.740968	0.988466
H55	H	1.290076	0.335473	0.729419
H56	H	1.790076	0.835473	1.229419
N57	N	0.803685	0.190300	0.184546
N58	N	1.303685	0.690300	0.684546
H59	H	0.825005	0.253452	0.132224
H60	H	1.325005	0.753452	0.632224
H61	H	0.843550	0.113628	0.136997
H62	H	1.343550	0.613628	0.636997
N63	N	0.816638	0.252311	0.597178
N64	N	1.316638	0.752311	1.097178
H65	H	0.908498	0.254940	0.600058
H66	H	1.408498	0.754940	1.100058
H67	H	0.776702	0.328941	0.644760
H68	H	1.276702	0.828941	1.144760
H69	H	1.031229	0.190746	0.151118
H70	H	1.531229	0.690746	0.651118
H71	H	1.506528	0.138177	0.731603
H72	H	2.006528	0.638177	1.231603
H73	H	1.330120	0.298994	0.979065
H74	H	1.830120	0.798994	1.479065
H75	H	1.546590	0.101681	0.981259
H76	H	2.046590	0.601681	1.481259
