data_functionalizedCrystal
_audit_creation_method	'MofGen! by Chris Wilmer'
_symmetry_space_group_name_H-M	'P1'
_symmetry_Int_Tables_number	1
_symmetry_cell_setting	triclinic
loop_
_symmetry_equiv_pos_as_xyz
  x,y,z
_cell_length_a	14.971494
_cell_length_b	14.044191
_cell_length_c	13.448316
_cell_angle_alpha	89.995859
_cell_angle_beta	89.995115
_cell_angle_gamma	88.404667
loop_
_atom_site_label
_atom_site_type_symbol
_atom_site_fract_x
_atom_site_fract_y
_atom_site_fract_z
O1	O	0.215693	1.257963	-0.082636
O2	O	0.207905	0.981984	-0.082649
O3	O	0.082182	1.127366	-0.082640
O4	O	0.341416	1.112580	-0.082645
O5	O	0.082172	1.127348	0.082744
O6	O	0.207895	0.981966	0.082735
O7	O	0.215684	1.257944	0.082747
Cu8	Cu	0.211788	1.119953	0.097842
Cu9	Cu	0.211800	1.119975	-0.097744
O10	O	0.341406	1.112562	0.082738
C11	C	0.204492	0.946656	0.000041
C12	C	0.194329	0.841419	0.000036
C13	C	0.247830	0.591194	0.000045
C14	C	0.175762	0.648739	0.000045
C15	C	0.186095	0.755956	0.000040
C16	C	0.237499	0.483968	0.000050
C17	C	0.048800	1.126694	0.000050
C18	C	-0.050653	1.124708	0.000045
C19	C	-0.097366	1.123788	-0.090107
C20	C	-0.190812	1.121916	-0.090108
C21	C	-0.237545	1.120971	0.000044
C22	C	-0.190825	1.121889	0.090203
C23	C	-0.097380	1.123755	0.090203
C24	C	-0.385595	1.118004	0.090196
C25	C	-0.479046	1.116141	0.090196
C26	C	-0.479027	1.116165	-0.090115
C27	C	-0.385581	1.118030	-0.090115
C28	C	-0.338869	1.118950	0.000045
C29	C	0.374788	1.113234	0.000046
C30	C	0.474241	1.115220	0.000044
C31	C	0.219096	1.293272	0.000055
C32	C	0.229259	1.398510	0.000053
N33	N	0.211780	1.119945	0.235406
N34	N	0.211802	1.119991	-0.235308
C35	C	0.156137	1.184340	0.287450
C36	C	0.156136	1.184346	0.391554
C37	C	0.211785	1.119961	0.443611
C38	C	0.267431	1.055559	0.391559
C39	C	0.267426	1.055549	0.287458
C40	C	0.267439	1.055585	0.608539
C41	C	0.267445	1.055596	0.712648
C42	C	0.156150	1.184382	0.712635
C43	C	0.156144	1.184373	0.608534
C44	C	0.211792	1.119971	0.556489
H45	H	-0.059323	1.124562	-0.163519
Br46	Br	0.363596	0.643288	0.000032
Br47	Br	0.059989	0.596649	0.000049
Br48	Br	-0.254205	1.120665	-0.212462
Br49	Br	-0.254246	1.120592	0.212553
H50	H	-0.517093	1.115364	0.163605
H51	H	-0.347535	1.118806	-0.163524
H52	H	0.110836	1.236804	0.566149
H53	H	0.312759	1.003165	0.755027
H54	H	0.312749	1.003139	0.566168
H55	H	-0.517064	1.115414	-0.163526
Br56	Br	-0.033983	1.124999	0.212557
H57	H	0.312737	1.003130	0.433950
Br58	Br	0.342939	0.968145	0.216826
Br59	Br	-0.322199	1.119254	0.212556
H60	H	0.110825	1.236774	0.245072
H61	H	0.110840	1.236819	0.755016
Br62	Br	0.080616	1.271737	0.462189
