data_functionalizedCrystal
_audit_creation_method	'MofGen! by Chris Wilmer'
_symmetry_space_group_name_H-M	'P1'
_symmetry_Int_Tables_number	1
_symmetry_cell_setting	triclinic
loop_
_symmetry_equiv_pos_as_xyz
  x,y,z
_cell_length_a	10.723024
_cell_length_b	14.853567
_cell_length_c	9.798715
_cell_angle_alpha	90.000647
_cell_angle_beta	89.996609
_cell_angle_gamma	84.051400
loop_
_atom_site_label
_atom_site_type_symbol
_atom_site_fract_x
_atom_site_fract_y
_atom_site_fract_z
O1	O	1.655908	0.126445	-0.113470
O2	O	1.292633	0.138549	-0.113473
O3	O	1.483974	0.001318	-0.113475
O4	O	1.464567	0.263675	-0.113467
O5	O	1.483960	0.001318	0.113507
O6	O	1.292619	0.138548	0.113509
O7	O	1.655894	0.126445	0.113513
Zn8	Zn	1.474254	0.132497	0.149549
Zn9	Zn	1.474273	0.132497	-0.149510
O10	O	1.464553	0.263675	0.113515
C11	C	1.246136	0.137668	0.000017
C12	C	1.107608	0.135032	0.000016
C13	C	1.031849	0.211819	0.000017
C14	C	0.888673	0.209097	0.000015
C15	C	1.483088	-0.032275	0.000012
C16	C	1.480453	-0.132373	-0.000000
C17	C	1.355653	-0.545565	0.000025
C18	C	1.582971	-0.565646	0.000027
C19	C	1.585448	-0.471599	0.000019
C20	C	1.473027	-0.414531	0.000016
C21	C	1.358127	-0.451510	0.000021
C22	C	1.700345	-0.434614	0.000028
C23	C	1.702828	-0.340562	0.000021
C24	C	1.590405	-0.283491	0.000008
C25	C	1.475501	-0.320475	0.000012
C26	C	1.363079	-0.263407	0.000009
C27	C	1.248174	-0.300389	0.000003
C28	C	1.245704	-0.394440	0.000008
C29	C	1.592874	-0.189441	0.000003
C30	C	1.365554	-0.169351	0.000005
C31	C	1.702392	0.127326	0.000019
C32	C	1.840919	0.129961	0.000012
C33	C	1.465439	0.297269	0.000025
C34	C	1.468075	0.397366	0.000028
N35	N	1.474251	0.132496	0.353649
N36	N	1.474287	0.132491	-0.353609
C37	C	1.554592	0.074623	0.421425
C38	C	1.554612	0.074619	0.578588
H39	H	0.906010	0.064222	0.000002
H40	H	1.072985	0.279574	0.000027
C41	C	1.647494	0.007688	0.342644
H42	H	1.635297	0.016474	0.247347
H43	H	1.633631	-0.052541	0.365996
H44	H	1.730878	0.017849	0.365973
C45	C	1.829212	-0.299884	0.000023
H46	H	1.814588	-0.235698	0.000028
H47	H	1.875516	-0.319429	-0.079125
H48	H	1.875496	-0.319420	0.079192
H49	H	1.405504	0.182044	0.588115
H50	H	1.686428	-0.159334	0.000017
C51	C	0.800741	0.297904	0.000018
H52	H	0.716047	0.284424	0.000025
H53	H	0.815963	0.332039	-0.079132
H54	H	0.815951	0.332033	0.079185
H55	H	1.152154	-0.424559	0.000004
H56	H	1.156641	-0.253912	0.000010
H57	H	1.623400	0.025075	0.636872
C58	C	1.381327	0.199418	0.432424
H59	H	1.330908	0.235720	0.369521
H60	H	1.426471	0.237110	0.488171
H61	H	1.329247	0.166703	0.488160
C62	C	1.241887	-0.106583	0.000003
H63	H	1.173107	-0.142080	0.000009
H64	H	1.238132	-0.069474	-0.079148
H65	H	1.238121	-0.069479	0.079170
C66	C	1.052055	0.043496	0.000013
H67	H	1.118152	-0.004327	0.000022
H68	H	1.001879	0.039166	-0.079139
H69	H	1.001877	0.039168	0.079179
H70	H	1.262100	-0.575681	0.000014
C71	C	1.706627	-0.628414	0.000031
H72	H	1.775410	-0.592919	0.000035
H73	H	1.710388	-0.665526	-0.079117
H74	H	1.710381	-0.665514	0.079200
C75	C	1.824000	-0.497383	0.000030
H76	H	1.892785	-0.461890	0.000045
H77	H	1.827763	-0.534489	-0.079125
H78	H	1.827749	-0.534489	0.079192
