data_functionalizedCrystal
_audit_creation_method	'MofGen! by Chris Wilmer'
_symmetry_space_group_name_H-M	'P1'
_symmetry_Int_Tables_number	1
_symmetry_cell_setting	triclinic
loop_
_symmetry_equiv_pos_as_xyz
  x,y,z
_cell_length_a	14.519709
_cell_length_b	14.519709
_cell_length_c	12.996460
_cell_angle_alpha	89.999948
_cell_angle_beta	90.000034
_cell_angle_gamma	96.319856
loop_
_atom_site_label
_atom_site_type_symbol
_atom_site_fract_x
_atom_site_fract_y
_atom_site_fract_z
O1	O	-1.223869	0.120893	0.085418
O2	O	-0.890535	0.454226	0.418752
O3	O	-0.557202	0.787560	0.752085
O4	O	-0.955392	0.135129	0.085448
O5	O	-0.622059	0.468463	0.418781
O6	O	-0.288725	0.801796	0.752115
O7	O	-1.096749	-0.006227	0.085442
O8	O	-0.763415	0.327106	0.418775
O9	O	-0.430082	0.660439	0.752108
O10	O	-1.082512	0.262250	0.085425
O11	O	-0.749179	0.595583	0.418758
O12	O	-0.415845	0.928916	0.752091
O13	O	-1.096734	-0.006235	-0.085692
O14	O	-0.763400	0.327098	0.247641
O15	O	-0.430067	0.660432	0.580975
O16	O	-0.955377	0.135122	-0.085686
O17	O	-0.622044	0.468455	0.247648
O18	O	-0.288710	0.801788	0.580981
O19	O	-1.223854	0.120885	-0.085716
O20	O	-0.890521	0.454218	0.247618
O21	O	-0.557187	0.787552	0.580951
Cu22	Cu	-1.089614	0.128003	-0.101327
Cu23	Cu	-0.756281	0.461336	0.232007
Cu24	Cu	-0.422948	0.794669	0.565340
Cu25	Cu	-1.089632	0.128012	0.101059
Cu26	Cu	-0.756298	0.461345	0.434392
Cu27	Cu	-0.422965	0.794679	0.767726
O28	O	-1.082497	0.262242	-0.085709
O29	O	-0.749164	0.595575	0.247624
O30	O	-0.415831	0.928908	0.580957
C31	C	-0.921025	0.134462	-0.000115
C32	C	-0.587691	0.467795	0.333219
C33	C	-0.254358	0.801129	0.666552
C34	C	-0.818643	0.132474	-0.000103
C35	C	-0.485310	0.465807	0.333231
C36	C	-0.151977	0.799141	0.666564
C37	C	-1.096078	-0.040591	-0.000120
C38	C	-0.762744	0.292742	0.333213
C39	C	-0.429411	0.626076	0.666546
C40	C	-1.094090	-0.142972	-0.000107
C41	C	-0.760756	0.190361	0.333227
C42	C	-0.427423	0.523694	0.666560
C43	C	-1.258221	0.121553	-0.000150
C44	C	-0.924888	0.454886	0.333183
C45	C	-0.591554	0.788219	0.666516
C46	C	-1.360602	0.123541	-0.000156
C47	C	-1.027269	0.456874	0.333178
C48	C	-0.693936	0.790207	0.666511
C49	C	-1.083168	0.296605	-0.000145
C50	C	-0.749835	0.629939	0.333189
C51	C	-0.416501	0.963272	0.666522
C52	C	-1.085156	0.398987	-0.000152
C53	C	-0.751823	0.732320	0.333181
C54	C	-0.418490	1.065653	0.666515
C55	C	-0.443748	0.125154	-0.000149
C56	C	-0.110414	0.458488	0.333184
C57	C	0.222919	0.791821	0.666518
C58	C	-0.548056	0.127187	-0.000136
C59	C	-0.214722	0.460520	0.333197
C60	C	0.118611	0.793854	0.666531
C61	C	-0.631192	0.128814	-0.000125
C62	C	-0.297859	0.462147	0.333208
C63	C	0.035474	0.795481	0.666542
C64	C	-0.735507	0.130847	-0.000114
C65	C	-0.402173	0.464180	0.333220
C66	C	-0.068840	0.797514	0.666553
N67	N	-1.089609	0.127996	-0.243674
N68	N	-0.756275	0.461329	0.089660
N69	N	-0.422942	0.794662	0.422993
C70	C	-1.092476	0.773883	-0.000112
C71	C	-0.759142	1.107216	0.333221
C72	C	-0.425809	1.440549	0.666555
C73	C	-1.090443	0.669575	-0.000123
C74	C	-0.757110	1.002908	0.333210
C75	C	-0.423777	1.336241	0.666543
C76	C	-1.088816	0.586438	-0.000133
C77	C	-0.755483	0.919771	0.333200
C78	C	-0.422150	1.253105	0.666534
C79	C	-1.086783	0.482123	-0.000142
C80	C	-0.753450	0.815457	0.333191
C81	C	-0.420117	1.148790	0.666524
C82	C	-1.089630	0.128013	-0.663488
C83	C	-0.756297	0.461346	-0.330155
C84	C	-0.422964	0.794680	0.003179
C85	C	-1.089622	0.128011	-0.546683
C86	C	-0.756288	0.461344	-0.213349
C87	C	-0.422955	0.794678	0.119984
C88	C	-1.089620	0.128005	-0.453585
C89	C	-0.756287	0.461338	-0.120251
C90	C	-0.422953	0.794672	0.213082
C91	C	-1.089610	0.128002	-0.336772
C92	C	-0.756277	0.461335	-0.003439
C93	C	-0.422944	0.794668	0.329895
N94	N	-1.089644	0.128012	0.243406
N95	N	-0.756311	0.461345	0.576739
N96	N	-0.422978	0.794678	0.910073
