data_functionalizedCrystal
_audit_creation_method	'MofGen! by Chris Wilmer'
_symmetry_space_group_name_H-M	'P1'
_symmetry_Int_Tables_number	1
_symmetry_cell_setting	triclinic
loop_
_symmetry_equiv_pos_as_xyz
  x,y,z
_cell_length_a	10.540539
_cell_length_b	19.288865
_cell_length_c	17.766277
_cell_angle_alpha	90.011603
_cell_angle_beta	89.994232
_cell_angle_gamma	96.169130
loop_
_atom_site_label
_atom_site_type_symbol
_atom_site_fract_x
_atom_site_fract_y
_atom_site_fract_z
O1	O	1.683715	-0.097883	-0.062542
O2	O	1.314096	-0.107106	-0.062558
O3	O	1.509585	-0.001436	-0.062535
O4	O	1.488225	-0.203554	-0.062565
O5	O	1.509551	-0.001430	0.062654
O6	O	1.314062	-0.107100	0.062631
O7	O	1.683680	-0.097878	0.062647
Cu8	Cu	1.498868	-0.102489	0.074069
Cu9	Cu	1.498908	-0.102495	-0.073981
O10	O	1.488191	-0.203548	0.062623
C11	C	1.266791	-0.106411	0.000034
C12	C	1.125889	-0.104342	0.000029
C13	C	1.508881	0.024448	0.000062
C14	C	1.506818	0.101566	0.000068
C15	C	1.730985	-0.098572	0.000052
C16	C	1.871887	-0.100641	0.000053
C17	C	2.053547	-0.179930	0.000305
C18	C	1.906975	-0.177833	0.000035
C19	C	1.934366	-0.063496	-0.071434
C20	C	2.080852	-0.066131	-0.071507
C21	C	2.081418	-0.064555	0.070856
C22	C	1.934452	-0.063844	0.071813
C23	C	1.488895	-0.229432	0.000025
C24	C	1.490958	-0.306549	0.000014
N25	N	1.498849	-0.102483	0.178200
C26	C	1.621522	0.145496	0.000077
C27	C	1.619584	0.217956	0.000065
C28	C	1.502935	0.246482	0.000059
C29	C	1.388215	0.202542	0.000047
C30	C	1.390157	0.130083	0.000051
C31	C	1.411223	0.355384	0.043906
C32	C	1.409286	0.427841	0.043907
C33	C	1.496941	0.469968	0.000042
C34	C	1.586555	0.439630	-0.043812
C35	C	1.588497	0.367172	-0.043808
C36	C	1.500816	0.325051	0.000054
C37	C	1.609552	0.592469	0.000037
C38	C	1.607609	0.664930	0.000020
C39	C	1.376237	0.649513	0.000009
C40	C	1.378183	0.577054	0.000019
C41	C	1.494844	0.548536	0.000036
N42	N	1.498938	-0.102495	-0.178111
C43	C	1.585439	-0.055716	0.217597
C44	C	1.585447	-0.055713	0.296399
C45	C	1.498875	-0.102489	0.335800
C46	C	1.412269	-0.149260	0.296393
C47	C	1.412255	-0.149257	0.217593
C48	C	1.481882	-0.165663	0.460628
C49	C	1.481905	-0.165667	0.539427
C50	C	1.498909	-0.102498	0.578846
C51	C	1.515919	-0.039322	0.539457
C52	C	1.515905	-0.039319	0.460657
C53	C	1.498880	-0.102497	0.421246
C54	C	1.585513	-0.055723	0.703690
C55	C	1.585511	-0.055719	0.782493
C56	C	1.412339	-0.149272	0.782486
C57	C	1.412335	-0.149270	0.703684
C58	C	1.498928	-0.102496	0.664291
H59	H	1.863724	-0.207064	0.051278
H60	H	1.296748	0.094314	0.000044
N61	N	1.880233	-0.095882	-0.138176
N62	N	1.949960	-0.122757	-0.184316
H63	H	1.911733	-0.145635	-0.231451
H64	H	1.656019	-0.017635	0.671614
N65	N	2.120276	-0.095900	0.138823
N66	N	2.038436	-0.119827	0.185607
H67	H	2.065876	-0.141972	0.233607
H68	H	1.281259	0.672738	0.000001
H69	H	1.864559	-0.207268	-0.051299
H70	H	2.108434	-0.093589	-0.124952
N71	N	1.882354	-0.097906	0.138153
N72	N	1.799451	-0.149091	0.132662
H73	H	1.762653	-0.173151	0.179514
N74	N	1.728700	0.563322	0.000035
N75	N	1.730420	0.498626	0.000040
H76	H	1.814568	0.478041	0.000037
N77	N	1.673936	-0.007955	0.336649
N78	N	1.752596	-0.030427	0.380595
H79	H	1.815099	0.003300	0.409019
N80	N	1.321656	0.312365	0.088711
N81	N	1.241658	0.339458	0.127864
H82	H	1.178399	0.309077	0.159504
H83	H	1.655946	-0.017628	0.185525
H84	H	1.701019	0.700698	0.000023
N85	N	1.905661	0.006759	0.077260
N86	N	1.947904	0.044004	0.131161
H87	H	1.927570	0.093870	0.135005
H88	H	1.656020	-0.017631	0.814571
H89	H	2.129882	-0.008799	0.071341
H90	H	1.913276	-0.006809	-0.074080
H91	H	1.468013	-0.217107	0.428539
H92	H	1.529752	0.012121	0.428590
N93	N	1.261002	0.532185	0.000012
N94	N	1.156857	0.557660	0.000005
H95	H	1.074091	0.525972	-0.000002
N96	N	1.323789	-0.197034	0.177357
N97	N	1.246489	-0.238793	0.212541
H98	H	1.184008	-0.272537	0.184125
H99	H	1.341829	-0.187356	0.671605
H100	H	1.468063	-0.217109	0.571491
H101	H	2.081474	-0.210421	0.051562
N102	N	1.533271	0.025204	0.579724
N103	N	1.533257	0.025196	0.650081
H104	H	1.545506	0.070766	0.678523
N105	N	1.676119	0.482639	-0.088624
N106	N	1.793167	0.482329	-0.077561
H107	H	1.856425	0.512705	-0.109207
H108	H	2.083072	-0.210301	-0.050682
H109	H	1.716517	0.122282	0.000089
N110	N	2.142570	0.003513	-0.075568
N111	N	2.077414	0.053906	-0.078345
H112	H	2.120996	0.103092	-0.081215
H113	H	1.712993	0.253732	0.000069
H114	H	1.341846	-0.187356	0.814566
N115	N	1.323839	-0.197032	0.336649
N116	N	1.323862	-0.197029	0.407005
H117	H	1.261401	-0.230767	0.435437
N118	N	1.317787	0.458819	0.088735
N119	N	1.239542	0.421201	0.127904
H120	H	1.174931	0.443078	0.159575
N121	N	1.680035	0.336193	-0.088604
N122	N	1.758300	0.373806	-0.127765
H123	H	1.822949	0.351928	-0.159406
N124	N	1.269072	0.231688	0.000034
N125	N	1.267353	0.296383	0.000031
H126	H	1.183204	0.316968	0.000018
