data_functionalizedCrystal
_audit_creation_method	'MofGen! by Chris Wilmer'
_symmetry_space_group_name_H-M	'P1'
_symmetry_Int_Tables_number	1
_symmetry_cell_setting	triclinic
loop_
_symmetry_equiv_pos_as_xyz
  x,y,z
_cell_length_a	9.065218
_cell_length_b	9.616153
_cell_length_c	9.065218
_cell_angle_alpha	89.999628
_cell_angle_beta	94.984115
_cell_angle_gamma	90.006967
loop_
_atom_site_label
_atom_site_type_symbol
_atom_site_fract_x
_atom_site_fract_y
_atom_site_fract_z
O1	O	1.960407	0.115643	-0.216351
O2	O	1.531122	0.115644	-0.234097
O3	O	1.754638	0.115641	-0.010582
O4	O	1.736892	0.115647	-0.439867
O5	O	1.754607	-0.115651	-0.010586
O6	O	1.531091	-0.115647	-0.234102
O7	O	1.960376	-0.115648	-0.216355
Zn8	Zn	1.745729	-0.152370	-0.225229
Zn9	Zn	1.745770	0.152366	-0.225223
O10	O	1.736861	-0.115645	-0.439871
C11	C	1.476120	-0.000001	-0.232394
C12	C	1.312277	-0.000000	-0.227294
N13	N	1.745712	-0.360345	-0.225233
C14	C	1.625777	-0.580713	-0.344394
C15	C	1.626044	-0.419545	-0.344844
C16	C	1.900127	-0.418794	-0.260920
C17	C	1.899474	-0.580012	-0.261764
C18	C	1.712766	-0.580258	-0.069998
C19	C	1.709229	-0.419031	-0.070988
C20	C	2.015378	0.000000	-0.218059
C21	C	2.179221	0.000009	-0.223158
C22	C	1.752917	-0.000003	0.044403
C23	C	1.747817	0.000004	0.208245
N24	N	1.745798	0.360341	-0.225209
C25	C	1.738582	0.000002	-0.494855
C26	C	1.743681	0.000004	-0.658698
H27	H	1.511332	-0.380030	-0.323277
H28	H	1.991683	-0.619002	-0.178488
H29	H	1.800267	-0.618376	0.018720
C30	C	1.563781	-0.635241	-0.024357
N31	N	1.451559	-0.676653	0.010003
C32	C	1.470323	-0.633176	-0.315723
N33	N	1.353233	-0.672710	-0.294132
C34	C	1.819453	-0.364627	0.054657
N35	N	1.902495	-0.323661	0.149288
C36	C	1.654179	-0.635420	-0.499062
N37	N	1.675577	-0.676627	-0.615557
C38	C	1.938344	-0.630793	-0.414779
N39	N	1.967610	-0.669035	-0.530038
C40	C	1.654827	-0.367418	-0.500390
N41	N	1.676515	-0.328157	-0.617552
H42	H	1.991648	-0.380443	-0.176509
H43	H	1.929546	-0.378402	-0.372901
C44	C	1.555756	-0.367435	-0.034466
N45	N	1.440157	-0.328566	-0.006963
