data_functionalizedCrystal
_audit_creation_method	'MofGen! by Chris Wilmer'
_symmetry_space_group_name_H-M	'P1'
_symmetry_Int_Tables_number	1
_symmetry_cell_setting	triclinic
loop_
_symmetry_equiv_pos_as_xyz
  x,y,z
_cell_length_a	17.699104
_cell_length_b	17.699083
_cell_length_c	16.776229
_cell_angle_alpha	89.992455
_cell_angle_beta	89.991971
_cell_angle_gamma	83.287266
loop_
_atom_site_label
_atom_site_type_symbol
_atom_site_fract_x
_atom_site_fract_y
_atom_site_fract_z
O1	O	1.004069	0.095788	-0.066306
O2	O	0.783692	0.108224	-0.066304
O3	O	0.900107	-0.008183	-0.066298
O4	O	0.887654	0.212195	-0.066312
O5	O	0.900091	-0.008190	0.066278
O6	O	0.783677	0.108217	0.066272
O7	O	1.004053	0.095781	0.066271
Zn8	Zn	0.893863	0.101998	0.087321
Zn9	Zn	0.893883	0.102007	-0.087354
O10	O	0.887639	0.212188	0.066264
C11	C	0.755488	0.107772	-0.000016
C12	C	0.671471	0.106427	-0.000015
C13	C	0.146600	0.167171	-0.000027
C14	C	0.225543	0.168430	-0.000029
C15	C	0.274161	0.100095	-0.000025
C16	C	0.243831	0.030496	-0.000026
C17	C	0.164889	0.029238	-0.000029
C18	C	0.562197	0.035569	-0.000014
C19	C	0.641144	0.036833	-0.000008
C20	C	0.622852	0.174762	-0.000014
C21	C	0.543909	0.173503	-0.000017
C22	C	0.513587	0.103905	-0.000022
C23	C	0.427987	0.102541	-0.000021
C24	C	0.359759	0.101459	-0.000020
C25	C	0.899653	-0.036383	-0.000010
C26	C	0.898314	-0.120402	-0.000009
C27	C	0.966647	-0.169017	-0.000009
C28	C	0.965385	-0.247961	-0.000016
C29	C	0.895789	-0.278287	-0.000018
C30	C	0.827451	-0.229665	-0.000021
C31	C	0.828714	-0.150723	-0.000019
C32	C	0.822356	-0.548028	-0.000027
C33	C	0.821098	-0.626976	-0.000026
C34	C	0.959026	-0.645266	-0.000024
C35	C	0.960289	-0.566324	-0.000022
C36	C	0.891952	-0.517709	-0.000029
C37	C	0.893321	-0.432110	-0.000023
C38	C	0.894419	-0.363885	-0.000018
C39	C	1.032258	0.096233	-0.000020
C40	C	1.116275	0.097578	-0.000026
C41	C	0.888093	0.240388	-0.000026
C42	C	0.889431	0.324406	-0.000031
N43	N	0.893854	0.101991	0.206532
N44	N	0.893897	0.102008	-0.206566
C45	C	0.945418	0.050467	0.248252
C46	C	0.945422	0.050466	0.331704
C47	C	0.893866	0.101994	0.373435
C48	C	0.842296	0.153520	0.331709
C49	C	0.842289	0.153516	0.248259
C50	C	0.842324	0.153535	0.668257
C51	C	0.842336	0.153536	0.751713
C52	C	0.945457	0.050485	0.751702
C53	C	0.945450	0.050481	0.668251
C54	C	0.893878	0.102004	0.626533
C55	C	0.893873	0.102004	0.536045
C56	C	0.893874	0.101999	0.463922
H57	H	0.140200	-0.027432	-0.000030
O58	O	0.995442	0.000455	0.207594
C59	C	0.984353	0.011469	0.124992
H60	H	0.955996	0.071691	0.113576
H61	H	1.041669	0.002922	0.093246
H62	H	0.946427	-0.031300	0.101358
H63	H	0.987434	0.008525	0.634277
H64	H	1.023320	-0.144333	-0.000002
O65	O	1.027848	-0.536777	-0.000129
C66	C	1.032718	-0.491670	-0.068802
H67	H	0.973030	-0.471899	-0.091690
H68	H	1.062792	-0.440030	-0.053361
H69	H	1.066269	-0.526602	-0.116883
O70	O	0.792173	0.203617	0.792128
C71	C	0.746663	0.249103	0.737413
H72	H	0.745862	0.218072	0.677931
H73	H	0.686205	0.260712	0.761543
H74	H	0.771121	0.305304	0.728521
O75	O	0.762356	-0.103463	-0.000159
C76	C	0.758979	-0.057233	-0.068812
H77	H	0.797741	-0.086210	-0.116802
H78	H	0.698001	-0.048243	-0.091862
H79	H	0.778464	0.000136	-0.053289
O80	O	0.759797	-0.259030	0.000081
C81	C	0.718148	-0.234196	0.068752
H82	H	0.738673	-0.179484	0.091645
H83	H	0.655102	-0.223123	0.053307
H84	H	0.726988	-0.279899	0.116832
O85	O	0.792340	0.203625	0.627655
C86	C	0.832782	0.250283	0.579384
H87	H	0.892054	0.220061	0.566863
H88	H	0.801161	0.262305	0.520711
H89	H	0.837832	0.306210	0.611542
H90	H	0.987409	0.008511	0.365672
O91	O	0.290978	-0.035936	0.000082
C92	C	0.277250	-0.078197	0.068754
H93	H	0.217330	-0.059501	0.091642
H94	H	0.282915	-0.141330	0.053312
H95	H	0.320405	-0.067935	0.116836
O96	O	1.025342	-0.692600	-0.000061
C97	C	1.009310	-0.768780	-0.000046
H98	H	0.949872	-0.771700	-0.025149
H99	H	1.052883	-0.804616	-0.038537
H100	H	1.012212	-0.791626	0.063556
H101	H	0.764421	-0.651664	-0.000026
O102	O	0.688404	-0.029532	0.000130
C103	C	0.734616	-0.032932	0.068785
H104	H	0.705627	0.005814	0.116778
H105	H	0.743601	-0.093918	0.091828
H106	H	0.791989	-0.013442	0.053267
H107	H	0.987447	0.008529	0.785678
H108	H	0.800314	0.195472	0.365691
H109	H	0.800300	0.195471	0.214291
H110	H	1.021028	-0.287541	-0.000014
O111	O	0.099484	0.233623	-0.000067
C112	C	0.143182	0.295317	-0.000051
H113	H	0.202140	0.275995	-0.025146
H114	H	0.113986	0.343190	-0.038547
H115	H	0.148755	0.316655	0.063551
H116	H	0.250230	0.225100	-0.000038
O117	O	0.652434	0.242306	-0.000055
C118	C	0.732536	0.228769	-0.000036
H119	H	0.751182	0.169673	-0.025132
H120	H	0.756700	0.273296	-0.038530
H121	H	0.754497	0.232393	0.063567
O122	O	0.496791	0.239954	-0.000057
C123	C	0.540486	0.301651	-0.000040
H124	H	0.599444	0.282332	-0.025134
H125	H	0.511287	0.349522	-0.038536
H126	H	0.546057	0.322989	0.063562
O127	O	0.532874	-0.032102	0.000026
C128	C	0.592715	-0.092143	0.000017
H129	H	0.646301	-0.071023	0.025116
H130	H	0.576299	-0.140742	0.038513
H131	H	0.603935	-0.113214	-0.063583
H132	H	0.766711	-0.508455	-0.000033
