data_functionalizedCrystal
_audit_creation_method	'MofGen! by Chris Wilmer'
_symmetry_space_group_name_H-M	'P1'
_symmetry_Int_Tables_number	1
_symmetry_cell_setting	triclinic
loop_
_symmetry_equiv_pos_as_xyz
  x,y,z
_cell_length_a	8.559649
_cell_length_b	10.489716
_cell_length_c	7.681481
_cell_angle_alpha	84.203772
_cell_angle_beta	94.913240
_cell_angle_gamma	77.153900
loop_
_atom_site_label
_atom_site_type_symbol
_atom_site_fract_x
_atom_site_fract_y
_atom_site_fract_z
O1	O	2.104684	-0.029684	-0.146403
O2	O	1.640230	0.036115	-0.146407
O3	O	1.883045	-0.183499	-0.146411
O4	O	1.861869	0.189930	-0.146399
O5	O	1.912931	-0.210584	0.146446
O6	O	1.670116	0.009030	0.146451
O7	O	2.134570	-0.056770	0.146454
Zn8	Zn	1.907088	-0.028170	0.192950
Zn9	Zn	1.867712	0.007516	-0.192902
O10	O	1.891755	0.162844	0.146459
C11	C	1.595700	0.027559	0.000021
C12	C	1.418489	0.042402	0.000019
C13	C	1.896397	-0.244406	0.000012
C14	C	1.891635	-0.385534	-0.000004
C15	C	2.040538	-0.498888	0.000013
C16	C	1.947120	-0.554610	-0.144377
C17	C	1.976551	-0.581274	0.144358
C18	C	1.798266	-0.439385	-0.144513
C19	C	1.827732	-0.466059	0.144351
C20	C	1.734201	-0.521716	-0.000074
C21	C	2.179100	-0.048213	0.000023
C22	C	2.356310	-0.063055	0.000013
C23	C	1.878403	0.223751	0.000032
C24	C	1.883164	0.364881	0.000036
N25	N	1.933973	-0.052527	0.456284
N26	N	1.840840	0.031861	-0.456236
H27	H	2.170043	-0.487837	-0.000132
N28	N	2.010355	-0.603302	-0.297516
N29	N	2.152524	-0.603060	-0.323251
H30	H	2.197194	-0.637444	-0.431403
H31	H	1.745770	0.117997	0.468569
H32	H	1.722972	-0.378164	-0.266719
H33	H	1.604576	-0.532491	-0.000153
H34	H	2.051897	-0.642658	0.266425
H35	H	1.777387	-0.427218	0.266428
N36	N	1.459612	-0.190558	-0.000006
N37	N	1.608251	-0.202841	-0.000010
H38	H	1.681219	-0.292891	-0.000025
N39	N	1.315175	0.169914	0.000010
N40	N	1.166536	0.182202	0.000003
H41	H	1.093568	0.272256	-0.000002
N42	N	2.053245	-0.160583	0.550639
N43	N	2.069911	-0.175674	0.715226
H44	H	2.154141	-0.251991	0.781868
