data_functionalizedCrystal
_audit_creation_method	'MofGen! by Chris Wilmer'
_symmetry_space_group_name_H-M	'P1'
_symmetry_Int_Tables_number	1
_symmetry_cell_setting	triclinic
loop_
_symmetry_equiv_pos_as_xyz
  x,y,z
_cell_length_a	12.759401
_cell_length_b	12.759400
_cell_length_c	12.759393
_cell_angle_alpha	90.031564
_cell_angle_beta	90.019125
_cell_angle_gamma	90.014328
loop_
_atom_site_label
_atom_site_type_symbol
_atom_site_fract_x
_atom_site_fract_y
_atom_site_fract_z
Zn1	Zn	1.606256	-0.418214	0.593999
Zn2	Zn	2.106256	0.081786	1.093999
Zn3	Zn	1.606150	-0.593933	0.418319
Zn4	Zn	2.106150	-0.093933	0.918319
Zn5	Zn	1.430557	-0.418268	0.418336
Zn6	Zn	1.930557	0.081732	0.918336
Zn7	Zn	1.430546	-0.593851	0.593959
Zn8	Zn	1.930546	-0.093851	1.093959
O9	O	1.518377	-0.506066	0.506153
O10	O	2.018377	-0.006066	1.006153
O11	O	1.753263	-0.441536	0.570704
O12	O	2.253263	0.058464	1.070704
O13	O	1.582818	-0.570688	0.271300
O14	O	2.082818	-0.070688	0.771300
O15	O	1.453913	-0.271240	0.441663
O16	O	1.953913	0.228760	0.941663
O17	O	1.753185	-0.570636	0.441633
O18	O	2.253185	-0.070636	0.941633
O19	O	1.582998	-0.271200	0.570721
O20	O	2.082998	0.228800	1.070721
O21	O	1.453811	-0.441627	0.271313
O22	O	1.953811	0.058373	0.771313
O23	O	1.283535	-0.441547	0.441623
O24	O	1.783535	0.058453	0.941623
O25	O	1.453894	-0.570495	0.740985
O26	O	1.953894	-0.070495	1.240985
O27	O	1.283527	-0.570547	0.570652
O28	O	1.783527	-0.070547	1.070652
O29	O	1.582987	-0.441456	0.741015
O30	O	2.082987	0.058544	1.241015
O31	O	1.582807	-0.740943	0.441594
O32	O	2.082807	-0.240943	0.941594
O33	O	1.453791	-0.740883	0.570636
O34	O	1.953791	-0.240883	1.070636
C35	C	1.245410	-0.506045	0.506136
C36	C	1.745410	-0.006045	1.006136
C37	C	1.128633	-0.506061	0.506154
C38	C	1.628633	-0.006061	1.006154
C39	C	0.964020	-0.438825	0.439097
C40	C	1.464020	0.061175	0.939097
C41	C	1.073744	-0.438803	0.439087
C42	C	1.573744	0.061197	0.939087
C43	C	1.073793	-0.573338	0.573243
C44	C	1.573793	-0.073338	1.073243
C45	C	0.964071	-0.573354	0.573258
C46	C	1.464071	-0.073354	1.073258
C47	C	0.909136	-0.371570	0.372018
C48	C	1.409136	0.128430	0.872018
C49	C	0.963969	-0.304291	0.304930
C50	C	1.463969	0.195709	0.804930
C51	C	1.073693	-0.304269	0.304919
C52	C	1.573693	0.195731	0.804919
C53	C	1.128584	-0.371526	0.371997
C54	C	1.628584	0.128474	0.871997
C55	C	1.518315	-0.779034	0.506131
C56	C	2.018315	-0.279034	1.006131
C57	C	1.518384	-0.895810	0.506157
C58	C	2.018384	-0.395810	1.006157
C59	C	1.585637	-0.950669	0.439039
C60	C	2.085637	-0.450669	0.939039
C61	C	1.585702	-1.060393	0.439072
C62	C	2.085702	-0.560393	0.939072
C63	C	1.451252	-1.060390	0.573343
C64	C	1.951252	-0.560390	1.073343
C65	C	1.451193	-0.950668	0.573315
C66	C	1.951193	-0.450668	1.073315
C67	C	1.652828	-0.895811	0.371882
C68	C	2.152828	-0.395811	0.871882
C69	C	1.720086	-0.950670	0.304758
C70	C	2.220086	-0.450670	0.804758
C71	C	1.720150	-1.060394	0.304790
C72	C	2.220150	-0.560394	0.804790
C73	C	1.652957	-1.115260	0.371947
C74	C	2.152957	-0.615260	0.871947
C75	C	1.792410	-0.506089	0.506171
C76	C	2.292410	-0.006089	1.006171
C77	C	1.909187	-0.506099	0.506179
C78	C	2.409187	-0.006099	1.006179
C79	C	1.518451	-0.505960	0.780187
C80	C	2.018451	-0.005960	1.280187
C81	C	1.518482	-0.505915	0.896963
C82	C	2.018482	-0.005915	1.396963
C83	C	1.518468	-0.232033	0.506198
C84	C	2.018468	0.267967	1.006198
C85	C	1.518507	-0.115257	0.506217
C86	C	2.018507	0.384743	1.006217
C87	C	1.518364	-0.506096	0.233186
C88	C	2.018364	-0.006096	0.733186
C89	C	1.518537	-0.505845	0.116410
C90	C	2.018537	-0.005845	0.616410
C91	C	1.585710	-0.438718	0.951843
C92	C	2.085710	0.061282	1.451843
C93	C	1.585735	-0.438680	1.061567
C94	C	2.085735	0.061320	1.561567
C95	C	1.451301	-0.573046	1.061523
C96	C	1.951301	-0.073046	1.561523
C97	C	1.451272	-0.573077	0.951801
C98	C	1.951272	-0.073077	1.451801
C99	C	1.652920	-0.371556	0.897005
C100	C	2.152920	0.128444	1.397005
C101	C	1.720155	-0.304354	0.951885
C102	C	2.220155	0.195646	1.451885
C103	C	1.720180	-0.304316	1.061609
C104	C	2.220180	0.195684	1.561609
C105	C	1.652970	-0.371480	1.116454
C106	C	2.152970	0.128520	1.616454
H107	H	0.819793	-0.371582	0.372017
H108	H	1.319793	0.128418	0.872017
N109	N	1.792682	-1.119571	0.232396
N110	N	2.292682	-0.619571	0.732396
H111	H	1.841376	-1.165020	0.275142
H112	H	2.341376	-0.665020	0.775142
H113	H	1.835165	-1.068103	0.189863
H114	H	2.335165	-0.568103	0.689863
N115	N	1.378776	-1.119570	0.645756
N116	N	1.878776	-0.619570	1.145756
H117	H	1.303709	-1.100545	0.629367
H118	H	1.803709	-0.600545	1.129367
H119	H	1.395128	-1.100386	0.720806
H120	H	1.895128	-0.600386	1.220806
H121	H	1.774917	-0.249590	1.106289
H122	H	2.274917	0.250410	1.606289
H123	H	1.653024	-1.204604	0.371976
H124	H	2.153024	-0.704604	0.871976
H125	H	1.118494	-0.628095	0.627854
H126	H	1.618494	-0.128095	1.127854
H127	H	1.396431	-0.906002	0.627969
H128	H	1.896431	-0.406002	1.127969
H129	H	0.919269	-0.249527	0.250324
H130	H	1.419269	0.250473	0.750324
H131	H	1.652910	-0.371582	0.807663
H132	H	2.152910	0.128418	1.307663
H133	H	0.919425	-0.628131	0.627885
H134	H	1.419425	-0.128131	1.127885
N135	N	1.246930	-0.371496	0.371978
N136	N	1.746930	0.128504	0.871978
H137	H	1.273346	-0.443540	0.352538
H138	H	1.773346	0.056460	0.852538
H139	H	1.273313	-0.352217	0.444094
H140	H	1.773313	0.147783	0.944094
N141	N	1.652984	-0.371431	1.234799
N142	N	2.152984	0.128569	1.734799
H143	H	1.705768	-0.318666	1.261246
H144	H	2.205768	0.181334	1.761246
H145	H	1.672244	-0.443531	1.261135
H146	H	2.172244	0.056469	1.761135
N147	N	1.792644	-0.231922	0.892735
N148	N	2.292644	0.268078	1.392735
H149	H	1.835234	-0.189345	0.944153
H150	H	2.335234	0.310655	1.444153
H151	H	1.749887	-0.183311	0.847215
H152	H	2.249887	0.316689	1.347215
N153	N	1.378804	-0.645471	1.120671
N154	N	1.878804	-0.145471	1.620671
H155	H	1.389022	-0.635251	1.198507
H156	H	1.889022	-0.135251	1.698507
H157	H	1.395112	-0.720517	1.101481
H158	H	1.895112	-0.220517	1.601481
H159	H	1.396513	-0.627779	0.907117
H160	H	1.896513	-0.127779	1.407117
H161	H	1.652780	-0.806469	0.371845
H162	H	2.152780	-0.306469	0.871845
N163	N	1.132837	-0.231692	0.232583
N164	N	1.632837	0.268308	0.732583
H165	H	1.081416	-0.189088	0.190098
H166	H	1.581416	0.310912	0.690098
H167	H	1.178343	-0.274385	0.183883
H168	H	1.678343	0.225615	0.683883
H169	H	1.774798	-0.905993	0.250087
H170	H	2.274798	-0.405993	0.750087
