data_functionalizedCrystal
_audit_creation_method	'MofGen! by Chris Wilmer'
_symmetry_space_group_name_H-M	'P1'
_symmetry_Int_Tables_number	1
_symmetry_cell_setting	triclinic
loop_
_symmetry_equiv_pos_as_xyz
  x,y,z
_cell_length_a	16.120530
_cell_length_b	13.032721
_cell_length_c	13.032268
_cell_angle_alpha	76.710373
_cell_angle_beta	85.357344
_cell_angle_gamma	94.676741
loop_
_atom_site_label
_atom_site_type_symbol
_atom_site_fract_x
_atom_site_fract_y
_atom_site_fract_z
Zn1	Zn	1.140844	-0.582228	0.737196
Zn2	Zn	1.140755	-0.737306	0.582138
Zn3	Zn	1.023441	-0.551167	0.551075
Zn4	Zn	0.983450	-0.748315	0.748236
O5	O	1.072122	-0.654754	0.654661
O6	O	1.255799	-0.611192	0.725007
O7	O	1.141891	-0.695007	0.430612
O8	O	1.055788	-0.407879	0.558145
O9	O	1.255733	-0.725127	0.611086
O10	O	1.142044	-0.430700	0.694887
O11	O	1.055701	-0.558252	0.407790
O12	O	0.903169	-0.568927	0.568849
O13	O	0.987631	-0.743890	0.894177
O14	O	0.873789	-0.713771	0.713702
O15	O	1.103267	-0.621867	0.886066
O16	O	1.103114	-0.886174	0.621791
O17	O	0.987544	-0.894263	0.743822
C18	C	1.040999	-0.928444	0.687400
C19	C	1.027756	-1.045540	0.701446
C20	C	0.858670	-0.639174	0.639104
C21	C	0.767348	-0.632537	0.632476
C22	C	1.079073	-1.093717	0.647381
C23	C	1.065386	-1.214741	0.661897
C24	C	0.600142	-0.620396	0.620382
C25	C	0.544926	-0.689199	0.689026
C26	C	0.451887	-0.682444	0.682297
C27	C	0.693190	-0.627150	0.627110
C28	C	1.286409	-0.670396	0.670280
C29	C	1.377725	-0.677062	0.676936
C30	C	1.040998	-0.687571	0.929410
C31	C	1.027735	-0.701556	1.046492
C32	C	1.103387	-0.379999	0.621819
C33	C	1.116710	-0.262915	0.607824
C34	C	1.103182	-0.621992	0.380975
C35	C	1.116638	-0.607722	0.263870
C36	C	1.079036	-0.647416	1.094678
C37	C	1.065329	-0.661869	1.215688
H38	H	1.011319	-1.263090	0.718940
N39	N	0.571779	-0.540146	0.540330
N40	N	0.495141	-0.534710	0.534913
H41	H	0.475099	-0.478036	0.478376
N42	N	1.146857	-0.575827	1.034050
N43	N	1.132491	-0.499309	0.962514
H44	H	1.180390	-0.448745	0.919697
N45	N	1.146899	-1.033086	0.575815
N46	N	1.195149	-1.078317	0.524973
H47	H	1.243054	-1.035499	0.474427
H48	H	1.011252	-0.718917	1.264016
N49	N	0.573262	-0.769467	0.769097
N50	N	0.553543	-0.773582	0.864821
H51	H	0.573558	-0.830272	0.921366
N52	N	1.184483	-0.536162	1.203253
N53	N	1.258124	-0.550136	1.221815
H54	H	1.306041	-0.499599	1.179003
H55	H	0.973661	-0.758600	1.094825
N56	N	1.184546	-1.202282	0.536269
N57	N	1.258193	-1.220763	0.550291
H58	H	1.306100	-1.177938	0.499755
N59	N	0.959937	-1.106203	0.773001
N60	N	0.948917	-1.204429	0.784695
H61	H	0.901018	-1.247273	0.835233
