data_functionalizedCrystal
_audit_creation_method	'MofGen! by Chris Wilmer'
_symmetry_space_group_name_H-M	'P1'
_symmetry_Int_Tables_number	1
_symmetry_cell_setting	triclinic
loop_
_symmetry_equiv_pos_as_xyz
  x,y,z
_cell_length_a	16.120530
_cell_length_b	18.050589
_cell_length_c	16.120297
_cell_angle_alpha	87.124343
_cell_angle_beta	89.871860
_cell_angle_gamma	87.123928
loop_
_atom_site_label
_atom_site_type_symbol
_atom_site_fract_x
_atom_site_fract_y
_atom_site_fract_z
Zn1	Zn	1.247404	-0.376248	0.534587
Zn2	Zn	1.580738	-0.042915	0.867920
Zn3	Zn	1.914071	0.290419	1.201254
Zn4	Zn	1.254344	-0.494473	0.395537
Zn5	Zn	1.587677	-0.161139	0.728870
Zn6	Zn	1.921011	0.172194	1.062203
Zn7	Zn	1.115396	-0.363698	0.388504
Zn8	Zn	1.448729	-0.030365	0.721838
Zn9	Zn	1.782063	0.302968	1.055171
Zn10	Zn	1.108300	-0.493789	0.527506
Zn11	Zn	1.441634	-0.160455	0.860839
Zn12	Zn	1.774967	0.172878	1.194173
O13	O	1.181361	-0.432052	0.461533
O14	O	1.514694	-0.098719	0.794867
O15	O	1.848028	0.234615	1.128200
O16	O	1.364691	-0.397469	0.522048
O17	O	1.698024	-0.064136	0.855382
O18	O	2.031357	0.269198	1.188715
O19	O	1.241786	-0.472159	0.278238
O20	O	1.575119	-0.138826	0.611571
O21	O	1.908452	0.194507	0.944905
O22	O	1.132972	-0.261442	0.407903
O23	O	1.466306	0.071891	0.741236
O24	O	1.799639	0.405224	1.074570
O25	O	1.369789	-0.484328	0.419888
O26	O	1.703122	-0.150995	0.753222
O27	O	2.036456	0.182339	1.086555
O28	O	1.229959	-0.270662	0.515230
O29	O	1.563292	0.062671	0.848563
O30	O	1.896625	0.396004	1.181896
O31	O	1.139701	-0.376080	0.273071
O32	O	1.473035	-0.042747	0.606405
O33	O	1.806368	0.290586	0.939738
O34	O	0.998089	-0.375417	0.401037
O35	O	1.331422	-0.042084	0.734370
O36	O	1.664756	0.291250	1.067703
O37	O	1.120879	-0.483162	0.644811
O38	O	1.454212	-0.149829	0.978144
O39	O	1.787546	0.183504	1.311478
O40	O	0.992876	-0.470994	0.503160
O41	O	1.326209	-0.137660	0.836494
O42	O	1.659542	0.195673	1.169827
O43	O	1.223078	-0.396806	0.650014
O44	O	1.556412	-0.063472	0.983347
O45	O	1.889745	0.269861	1.316680
O46	O	1.234906	-0.598303	0.413022
O47	O	1.568239	-0.264969	0.746355
O48	O	1.901572	0.068364	1.079689
O49	O	1.127608	-0.597800	0.509979
O50	O	1.460941	-0.264467	0.843313
O51	O	1.794275	0.068866	1.176646
C52	C	0.965310	-0.421770	0.450568
C53	C	1.298643	-0.088437	0.783901
C54	C	1.631977	0.244897	1.117234
C55	C	0.872881	-0.417390	0.445896
C56	C	1.206215	-0.084057	0.779229
C57	C	1.539548	0.249277	1.112563
C58	C	0.703653	-0.409376	0.437374
C59	C	1.036986	-0.076043	0.770707
C60	C	1.370319	0.257290	1.104041
C61	C	0.659907	-0.454785	0.485754
C62	C	0.993240	-0.121452	0.819087
C63	C	1.326574	0.211882	1.152420
C64	C	0.565742	-0.450326	0.481012
C65	C	0.899076	-0.116993	0.814345
C66	C	1.232409	0.216341	1.147679
C67	C	0.797826	-0.413834	0.442115
C68	C	1.131159	-0.080501	0.775448
C69	C	1.464493	0.252832	1.108781
C70	C	1.181261	-0.624999	0.461515
C71	C	1.514595	-0.291665	0.794848
C72	C	1.847928	0.041668	1.128181
C73	C	1.181293	-0.707547	0.461538
C74	C	1.514627	-0.374214	0.794872
C75	C	1.847960	-0.040880	1.128205
C76	C	1.123001	-0.906753	0.514247
C77	C	1.456334	-0.573420	0.847580
C78	C	1.789667	-0.240086	1.180914
C79	C	1.106578	-0.951975	0.437341
C80	C	1.439911	-0.618642	0.770675
C81	C	1.773244	-0.285308	1.104008
C82	C	1.181375	-0.858682	0.461553
C83	C	1.514708	-0.525348	0.794886
C84	C	1.848041	-0.192015	1.128220
C85	C	1.197838	-0.960544	0.538470
C86	C	1.531171	-0.627210	0.871803
C87	C	1.864505	-0.293877	1.205136
C88	C	1.181451	-1.004671	0.461574
C89	C	1.514784	-0.671338	0.794908
C90	C	1.848118	-0.338005	1.128241
C91	C	1.164914	-0.902813	0.384605
C92	C	1.498247	-0.569479	0.717939
C93	C	1.831580	-0.236146	1.051272
C94	C	1.256207	-0.911381	0.485787
C95	C	1.589540	-0.578048	0.819120
C96	C	1.922873	-0.244714	1.152453
C97	C	1.239815	-0.956580	0.408830
C98	C	1.573149	-0.623246	0.742163
C99	C	1.906482	-0.289913	1.075497
C100	C	1.181328	-0.774581	0.461542
C101	C	1.514662	-0.441248	0.794875
C102	C	1.847995	-0.107914	1.128209
C103	C	1.181498	-1.088770	0.461577
C104	C	1.514831	-0.755437	0.794910
C105	C	1.848165	-0.422103	1.128244
C106	C	1.398256	-0.442375	0.472543
C107	C	1.731589	-0.109041	0.805876
C108	C	2.064922	0.224292	1.139209
C109	C	1.490683	-0.446774	0.477234
C110	C	1.824017	-0.113440	0.810568
C111	C	2.157350	0.219893	1.143901
C112	C	1.170413	-0.441308	0.678428
C113	C	1.503746	-0.107974	1.011762
C114	C	1.837080	0.225359	1.345095
C115	C	1.165748	-0.445252	0.770856
C116	C	1.499081	-0.111919	1.104189
C117	C	1.832414	0.221415	1.437522
C118	C	1.181483	-0.238354	0.461572
C119	C	1.514816	0.094980	0.794905
C120	C	1.848150	0.428313	1.128238
C121	C	1.181535	-0.155811	0.461588
C122	C	1.514868	0.177522	0.794921
C123	C	1.848201	0.510856	1.128255
C124	C	1.192314	-0.422781	0.245485
C125	C	1.525648	-0.089448	0.578818
C126	C	1.858981	0.243886	0.912152
C127	C	1.197141	-0.418635	0.153066
C128	C	1.530474	-0.085302	0.486399
C129	C	1.863808	0.248031	0.819733
C130	C	1.157199	-0.452435	0.940081
C131	C	1.490533	-0.119102	1.273414
C132	C	1.823866	0.214232	1.606748
C133	C	1.205687	-0.411454	0.983846
C134	C	1.539020	-0.078121	1.317180
C135	C	1.872353	0.255213	1.650513
C136	C	1.200930	-0.415451	1.078009
C137	C	1.534264	-0.082118	1.411342
C138	C	1.867597	0.251216	1.744675
C139	C	1.161955	-0.448439	0.845910
C140	C	1.495288	-0.115106	1.179243
C141	C	1.828621	0.218227	1.512576
H142	H	0.670386	-0.367156	0.392397
H143	H	1.003720	-0.033823	0.725731
H144	H	1.337053	0.299511	1.059064
H145	H	1.250770	-0.373367	0.950596
H146	H	1.584103	-0.040033	1.283930
H147	H	1.917436	0.293300	1.617263
N148	N	1.097471	-0.502872	0.984114
N149	N	1.430804	-0.169539	1.317447
N150	N	1.764138	0.163795	1.650781
H151	H	1.102496	-0.498606	1.046113
H152	H	1.435829	-0.165273	1.379447
H153	H	1.769163	0.168060	1.712780
H154	H	1.111120	-0.555900	0.969650
H155	H	1.444453	-0.222567	1.302983
H156	H	1.777787	0.110767	1.636316
N157	N	0.703960	-0.510723	0.545334
N158	N	1.037293	-0.177390	0.878668
N159	N	1.370627	0.155943	1.212001
H160	H	0.738080	-0.483923	0.585711
H161	H	1.071413	-0.150590	0.919044
H162	H	1.404746	0.182743	1.252377
H163	H	0.741634	-0.545303	0.513187
H164	H	1.074968	-0.211970	0.846520
H165	H	1.408301	0.121363	1.179854
H166	H	1.073570	-0.884877	0.558738
H167	H	1.406903	-0.551544	0.892072
H168	H	1.740237	-0.218211	1.225405
H169	H	1.043330	-0.969970	0.416862
H170	H	1.376663	-0.636637	0.750196
H171	H	1.709997	-0.303304	1.083529
H172	H	1.150946	-0.877680	0.319545
H173	H	1.484279	-0.544346	0.652878
H174	H	1.817612	-0.211013	0.986211
N175	N	1.305256	-0.985370	0.349752
N176	N	1.638590	-0.652037	0.683086
N177	N	1.971923	-0.318704	1.016419
H178	H	1.292741	-0.964155	0.291706
H179	H	1.626075	-0.630821	0.625039
H180	H	1.959408	-0.297488	0.958372
H181	H	1.305227	-1.041351	0.350509
H182	H	1.638560	-0.708017	0.683843
H183	H	1.971893	-0.374684	1.017176
N184	N	1.339965	-0.887545	0.512953
N185	N	1.673299	-0.554211	0.846286
N186	N	2.006632	-0.220878	1.179620
H187	H	1.352322	-0.908626	0.571085
H188	H	1.685655	-0.575293	0.904418
H189	H	2.018989	-0.241959	1.237751
H190	H	1.339413	-0.831540	0.512161
H191	H	1.672746	-0.498206	0.845494
H192	H	2.006079	-0.164873	1.178828
H193	H	1.211733	-0.985762	0.603509
H194	H	1.545066	-0.652429	0.936842
H195	H	1.878399	-0.319095	1.270175
