data_functionalizedCrystal
_audit_creation_method	'MofGen! by Chris Wilmer'
_symmetry_space_group_name_H-M	'P1'
_symmetry_Int_Tables_number	1
_symmetry_cell_setting	triclinic
loop_
_symmetry_equiv_pos_as_xyz
  x,y,z
_cell_length_a	21.295420
_cell_length_b	21.295417
_cell_length_c	12.827885
_cell_angle_alpha	89.965426
_cell_angle_beta	90.021308
_cell_angle_gamma	89.976359
loop_
_atom_site_label
_atom_site_type_symbol
_atom_site_fract_x
_atom_site_fract_y
_atom_site_fract_z
Zn1	Zn	0.962347	0.250650	0.590871
Zn2	Zn	0.962260	0.355932	0.416116
Zn3	Zn	0.857076	0.250672	0.416138
Zn4	Zn	0.857044	0.355877	0.590810
O5	O	0.909682	0.303283	0.503484
O6	O	1.050424	0.264629	0.567705
O7	O	0.948284	0.342001	0.269883
O8	O	0.871090	0.162580	0.439351
O9	O	1.050361	0.341979	0.439314
O10	O	0.948432	0.162563	0.567726
O11	O	0.871006	0.264668	0.269899
O12	O	0.768982	0.264615	0.439292
O13	O	0.871036	0.341886	0.737054
O14	O	0.768959	0.341908	0.567623
O15	O	0.948401	0.264576	0.737099
O16	O	0.948253	0.444014	0.439255
O17	O	0.870952	0.443974	0.567602
C18	C	0.909607	0.466834	0.503443
C19	C	0.909632	0.536802	0.503460
C20	C	0.746130	0.303259	0.503454
C21	C	0.676162	0.303263	0.503466
C22	C	0.950078	1.036260	0.436861
C23	C	0.950054	0.970518	0.436833
C24	C	0.909765	0.937642	0.503591
C25	C	0.869485	0.970514	0.570363
C26	C	0.869505	1.036255	0.570382
N27	N	0.904874	0.834383	0.595028
N28	N	0.904858	0.771931	0.595007
C29	C	0.909701	0.739567	0.503536
N30	N	0.914572	0.772014	0.412085
N31	N	0.914591	0.834471	0.412108
C32	C	0.909739	0.866356	0.503577
C33	C	0.949950	0.635418	0.436733
C34	C	0.949922	0.569674	0.436703
C35	C	0.869356	0.569671	0.570242
C36	C	0.869381	0.635414	0.570262
C37	C	0.909681	0.668283	0.503509
C38	C	0.176736	0.263101	0.570461
C39	C	0.242479	0.263097	0.570461
C40	C	0.275322	0.303302	0.503508
C41	C	0.242418	0.343526	0.436569
C42	C	0.176677	0.343534	0.436578
N43	N	0.378516	0.308053	0.412005
N44	N	0.440967	0.308042	0.411999
C45	C	0.473397	0.303281	0.503477
N46	N	0.441016	0.298520	0.594964
N47	N	0.378559	0.298528	0.594969
C48	C	0.346608	0.303298	0.503491
C49	C	0.577579	0.263057	0.570417
C50	C	0.643323	0.263057	0.570419
C51	C	0.643261	0.343483	0.436517
C52	C	0.577518	0.343487	0.436525
C53	C	0.544681	0.303271	0.503474
C54	C	1.073872	0.303307	0.503514
C55	C	1.143840	0.303318	0.503527
C56	C	0.909724	0.303222	0.776054
C57	C	0.909743	0.303196	0.892207
C58	C	0.909772	1.139092	0.503561
C59	C	0.909805	1.069124	0.503629
C60	C	0.909675	0.303297	0.231974
C61	C	0.909779	0.303146	0.115821
C62	C	0.948030	0.264933	0.944014
C63	C	0.948049	0.264906	1.064064
H64	H	0.982891	1.063018	0.382502
O65	O	0.993363	0.534222	0.364690
H66	H	1.021393	0.568126	0.318288
H67	H	0.836711	1.063013	0.624755
H68	H	0.982850	0.943755	0.382461
O69	O	0.141318	0.219731	0.642672
H70	H	0.175242	0.191768	0.689221
O71	O	0.825900	0.534223	0.642250
H72	H	0.832654	0.482987	0.631026
H73	H	0.836588	0.662172	0.624635
H74	H	0.876974	0.335930	0.936730
O75	O	0.866342	0.346528	1.056818
H76	H	0.838308	0.374532	1.113000
H77	H	0.982764	0.662181	0.382377
O78	O	0.826031	0.935061	0.642373
H79	H	0.832787	0.883825	0.631152
H80	H	0.980830	0.232150	1.108617
H81	H	0.269268	0.230345	0.624966
H82	H	0.670001	0.376224	0.382011
O83	O	0.277836	0.386888	0.364345
H84	H	0.329077	0.380120	0.375573
H85	H	0.149893	0.376285	0.382071
O86	O	0.542155	0.219692	0.642633
H87	H	0.576078	0.191733	0.689192
O88	O	0.678809	0.219674	0.642608
H89	H	0.644928	0.191707	0.689149
O90	O	0.542030	0.386853	0.364314
H91	H	0.575911	0.414805	0.317747
H92	H	0.980792	0.232193	0.899491
