data_functionalizedCrystal
_audit_creation_method	'MofGen! by Chris Wilmer'
_symmetry_space_group_name_H-M	'P1'
_symmetry_Int_Tables_number	1
_symmetry_cell_setting	triclinic
loop_
_symmetry_equiv_pos_as_xyz
  x,y,z
_cell_length_a	14.853568
_cell_length_b	16.098538
_cell_length_c	17.019361
_cell_angle_alpha	96.591607
_cell_angle_beta	83.514432
_cell_angle_gamma	87.260287
loop_
_atom_site_label
_atom_site_type_symbol
_atom_site_fract_x
_atom_site_fract_y
_atom_site_fract_z
O1	O	-1.199704	0.062046	-0.099836
O2	O	-0.937161	0.061177	-0.112149
O3	O	-1.076238	0.069866	0.009250
O4	O	-1.060628	0.053356	-0.221235
O5	O	-1.068114	-0.069153	0.002186
O6	O	-0.929037	-0.077842	-0.119212
O7	O	-1.191580	-0.076973	-0.106900
Zn8	Zn	-1.059019	-0.099480	-0.114178
Zn9	Zn	-1.069723	0.083683	-0.104871
O10	O	-1.052504	-0.085662	-0.228299
C11	C	-0.899514	-0.008291	-0.115122
C12	C	-0.799442	-0.008166	-0.113450
N13	N	-1.051720	-0.224483	-0.120529
C14	C	-0.387453	-0.002514	-0.034269
C15	C	-0.365178	-0.012844	-0.178494
C16	C	-0.459201	-0.012954	-0.180066
C17	C	-0.517355	-0.007842	-0.108738
C18	C	-0.481485	-0.002621	-0.035839
C19	C	-0.495078	-0.018166	-0.252964
C20	C	-0.589107	-0.018275	-0.254539
C21	C	-0.647262	-0.013170	-0.183211
C22	C	-0.611387	-0.007949	-0.110308
C23	C	-0.669541	-0.002838	-0.038981
C24	C	-0.633667	0.002377	0.033923
C25	C	-0.539641	0.002484	0.035489
C26	C	-0.741289	-0.013277	-0.184778
C27	C	-0.763573	-0.002945	-0.040550
C28	C	-1.110771	-0.264382	-0.069021
C29	C	-1.105674	-0.351889	-0.073471
C30	C	-1.041529	-0.399497	-0.129434
C31	C	-0.982472	-0.359593	-0.180944
C32	C	-0.987566	-0.272087	-0.176490
C33	C	-1.023064	-0.663902	-0.145569
C34	C	-1.017977	-0.751414	-0.150022
C35	C	-1.141179	-0.743704	-0.042547
C36	C	-1.146270	-0.656197	-0.038100
C37	C	-1.087210	-0.616300	-0.089608
C38	C	-1.036320	-0.488944	-0.133986
C39	C	-1.092416	-0.526855	-0.085052
C40	C	-0.229227	-0.007504	-0.103926
C41	C	-0.329300	-0.007626	-0.105597
C42	C	-1.071744	0.002471	0.035215
C43	C	-1.070446	0.008773	0.123106
N44	N	-1.077028	0.208687	-0.098514
C45	C	-1.065406	-0.064042	0.160555
C46	C	-1.064193	-0.058114	0.243139
C47	C	-1.068014	0.020629	0.288272
C48	C	-1.073057	0.093450	0.250819
C49	C	-1.074276	0.087521	0.168237
C50	C	-1.064559	0.042322	0.537810
C51	C	-1.063337	0.048245	0.620397
C52	C	-1.054475	-0.103320	0.612711
C53	C	-1.055689	-0.109242	0.530127
C54	C	-1.060737	-0.036421	0.492681
C55	C	-1.066771	0.026691	0.372687
C56	C	-1.061986	-0.042483	0.408270
C57	C	-1.056998	-0.018268	0.745736
C58	C	-1.058297	-0.024570	0.657845
H59	H	-0.810916	0.001214	0.017534
H60	H	-1.076173	0.157565	0.287574
H61	H	-1.198502	-0.617436	0.007469
F62	F	-0.433184	-0.023594	-0.328869
H63	H	-1.189262	-0.776197	-0.000611
H64	H	-0.317825	-0.016999	-0.236565
F65	F	-0.949702	-0.802077	-0.209590
F66	F	-0.924712	-0.229625	-0.231310
H67	H	-0.618306	-0.022521	-0.313901
H68	H	-0.984093	-0.527714	-0.179554
F69	F	-0.779465	-0.018821	-0.262360
F70	F	-1.067399	0.132058	0.668430
F71	F	-1.179048	-0.213722	-0.009460
F72	F	-1.069928	0.119824	0.497967
H73	H	-1.153758	-0.384374	-0.031529
F74	F	-1.079644	0.165021	0.128383
F75	F	-0.695569	0.007822	0.109832
H76	H	-0.510422	0.006710	0.094842
H77	H	-0.358241	0.001728	0.025087
H78	H	-1.144640	-0.488090	-0.039484
H79	H	-1.062280	-0.128164	0.123810
F80	F	-0.960211	-0.621448	-0.200389
F81	F	-1.058828	-0.135615	0.282990
H82	H	-1.052598	-0.173363	0.493387
F83	F	-0.914199	-0.410261	-0.240501
F84	F	-1.049104	-0.180815	0.652570
F85	F	-1.057925	-0.126285	0.360234
F86	F	-1.070842	0.110493	0.420729
