data_functionalizedCrystal
_audit_creation_method	'MofGen! by Chris Wilmer'
_symmetry_space_group_name_H-M	'P1'
_symmetry_Int_Tables_number	1
_symmetry_cell_setting	triclinic
loop_
_symmetry_equiv_pos_as_xyz
  x,y,z
_cell_length_a	16.120490
_cell_length_b	12.645330
_cell_length_c	16.120297
_cell_angle_alpha	87.122770
_cell_angle_beta	90.129683
_cell_angle_gamma	92.881193
loop_
_atom_site_label
_atom_site_type_symbol
_atom_site_fract_x
_atom_site_fract_y
_atom_site_fract_z
Zn1	Zn	1.247425	0.537163	-0.534569
Zn2	Zn	1.254369	0.705924	-0.395521
Zn3	Zn	1.115416	0.519240	-0.388489
Zn4	Zn	1.108325	0.704938	-0.527494
O5	O	1.181384	0.616816	-0.461518
O6	O	1.364713	0.567463	-0.522028
O7	O	1.241810	0.674072	-0.278222
O8	O	1.132988	0.373276	-0.407884
O9	O	1.369815	0.691451	-0.419870
O10	O	1.229975	0.386443	-0.515208
O11	O	1.139722	0.536916	-0.273055
O12	O	0.998109	0.535960	-0.401024
O13	O	1.120903	0.689770	-0.644799
O14	O	0.992899	0.672391	-0.503151
O15	O	1.223100	0.566507	-0.649996
O16	O	1.234935	0.854136	-0.413011
O17	O	1.127637	0.853411	-0.509970
C18	C	0.965331	0.602124	-0.450557
C19	C	0.872902	0.595866	-0.445888
C20	C	0.659938	0.649272	-0.485741
C21	C	0.703678	0.584449	-0.437361
C22	C	0.797843	0.590803	-0.442107
C23	C	0.565764	0.642920	-0.480996
C24	C	1.181292	0.892239	-0.461505
C25	C	1.181327	1.010073	-0.461531
C26	C	1.114061	1.177254	-0.522741
C27	C	1.113758	1.054661	-0.522517
C28	C	1.162045	1.047687	-0.372695
C29	C	1.161620	1.170282	-0.373068
C30	C	1.268258	1.184520	-0.488469
C31	C	1.267635	1.061995	-0.490357
C32	C	1.398280	0.631567	-0.472522
C33	C	1.490708	0.637852	-0.477212
C34	C	1.170436	0.630028	-0.678413
C35	C	1.165771	0.635658	-0.770841
C36	C	1.181469	1.340319	-0.461552
C37	C	1.181430	1.222487	-0.461571
C38	C	1.157223	0.645911	-0.940067
C39	C	1.205709	0.587416	-0.983830
C40	C	1.200953	0.593120	-1.077993
C41	C	1.161978	0.640207	-0.845895
C42	C	1.192337	0.603583	-0.245469
C43	C	1.197163	0.597666	-0.153050
H44	H	0.693209	0.709538	-0.530719
F45	F	1.078832	1.200557	-0.343960
F46	F	1.264650	0.516376	-0.940370
F47	F	1.029513	1.009466	-0.498769
F48	F	1.223281	1.209037	-0.311146
H49	H	1.209761	1.018577	-0.325677
F50	F	1.128951	1.222226	-0.608930
F51	F	0.660190	0.505675	-0.378562
H52	H	1.099400	1.011569	-0.350116
F53	F	1.336245	1.022905	-0.436830
F54	F	1.333795	1.222908	-0.430316
F55	F	1.128852	1.021766	-0.608434
H56	H	1.049999	1.202855	-0.504781
F57	F	1.292375	1.231785	-0.572008
F58	F	1.286750	1.030648	-0.575841
H59	H	1.112145	0.700271	-0.973317
