data_functionalizedCrystal
_audit_creation_method	'MofGen! by Chris Wilmer'
_symmetry_space_group_name_H-M	'P1'
_symmetry_Int_Tables_number	1
_symmetry_cell_setting	triclinic
loop_
_symmetry_equiv_pos_as_xyz
  x,y,z
_cell_length_a	11.792241
_cell_length_b	19.188924
_cell_length_c	10.868271
_cell_angle_alpha	89.992800
_cell_angle_beta	89.999893
_cell_angle_gamma	83.667690
loop_
_atom_site_label
_atom_site_type_symbol
_atom_site_fract_x
_atom_site_fract_y
_atom_site_fract_z
O1	O	1.505472	0.095695	-0.102209
O2	O	2.005472	0.595695	0.397791
O3	O	1.174983	0.105558	-0.102238
O4	O	1.674983	0.605558	0.397762
O5	O	1.349769	-0.000975	-0.102208
O6	O	1.849769	0.499025	0.397792
O7	O	1.330686	0.202229	-0.102239
O8	O	1.830686	0.702229	0.397761
O9	O	1.349755	-0.000980	0.102436
O10	O	1.849755	0.499020	0.602436
O11	O	1.174969	0.105554	0.102406
O12	O	1.674969	0.605554	0.602406
O13	O	1.505458	0.095691	0.102436
O14	O	2.005458	0.595691	0.602436
Zn15	Zn	1.340211	0.100622	0.134913
Zn16	Zn	1.840211	0.600622	0.634913
Zn17	Zn	1.340230	0.100627	-0.134715
Zn18	Zn	1.840230	0.600627	0.365285
O19	O	1.330672	0.202224	0.102406
O20	O	1.830672	0.702224	0.602406
C21	C	1.132694	0.104936	0.000081
C22	C	1.632694	0.604936	0.500081
C23	C	1.006708	0.103082	0.000070
C24	C	1.506708	0.603082	0.500070
C25	C	1.349145	-0.026992	0.000115
C26	C	1.849145	0.473008	0.500115
C27	C	1.347294	-0.104507	0.000118
C28	C	1.847294	0.395493	0.500118
C29	C	0.776047	0.099672	0.000106
C30	C	1.276047	0.599672	0.500106
C31	C	0.904404	0.101567	0.000086
C32	C	1.404404	0.601567	0.500086
C33	C	1.346438	-0.140909	-0.111434
C34	C	1.846438	0.359091	0.388566
C35	C	1.344682	-0.213741	-0.111443
C36	C	1.844682	0.286259	0.388557
C37	C	1.343806	-0.250172	0.000106
C38	C	1.843806	0.249828	0.500106
C39	C	1.344656	-0.213761	0.111673
C40	C	1.844656	0.286239	0.611673
C41	C	1.346400	-0.140929	0.111679
C42	C	1.846400	0.359071	0.611679
N43	N	1.405648	-0.369486	0.083134
N44	N	1.905648	0.130514	0.583134
N45	N	1.403994	-0.438674	0.083121
N46	N	1.903994	0.061326	0.583121
C47	C	1.338549	-0.469610	0.000093
C48	C	1.838549	0.030390	0.500093
N49	N	1.274835	-0.428747	-0.082939
N50	N	1.774835	0.071253	0.417061
N51	N	1.276495	-0.359553	-0.082929
N52	N	1.776495	0.140447	0.417071
C53	C	1.341914	-0.329146	0.000111
C54	C	1.841914	0.170854	0.500111
C55	C	1.335788	-0.584985	-0.111477
C56	C	1.835788	-0.084985	0.388523
C57	C	1.334025	-0.657819	-0.111482
C58	C	1.834025	-0.157819	0.388518
C59	C	1.334010	-0.657838	0.111637
C60	C	1.834010	-0.157838	0.611637
C61	C	1.335761	-0.585005	0.111639
C62	C	1.835761	-0.085005	0.611639
C63	C	1.336655	-0.548583	0.000078
C64	C	1.836655	-0.048583	0.500078
C65	C	1.547747	0.096313	0.000114
C66	C	2.047747	0.596313	0.500114
C67	C	1.673733	0.098167	0.000117
C68	C	2.173733	0.598167	0.500117
C69	C	1.331296	0.228241	0.000080
C70	C	1.831296	0.728241	0.500080
C71	C	1.333147	0.305756	0.000068
C72	C	1.833147	0.805756	0.500068
N73	N	1.340207	0.100618	0.318927
N74	N	1.840207	0.600618	0.818927
N75	N	1.340243	0.100626	-0.318729
N76	N	1.840243	0.600626	0.181271
C77	C	1.340224	0.100626	0.569933
C78	C	1.840224	0.600626	1.069933
C79	C	1.340211	0.100623	0.430255
C80	C	1.840211	0.600623	0.930255
H81	H	1.347163	-0.111259	-0.202275
H82	H	1.847163	0.388741	0.297725
H83	H	1.333322	-0.687455	-0.202325
H84	H	1.833322	-0.187455	0.297675
H85	H	1.343978	-0.243385	-0.202285
H86	H	1.843978	0.256615	0.297715
C87	C	1.336758	-0.544918	-0.234185
C88	C	1.836758	-0.044918	0.265815
H89	H	1.335979	-0.577030	-0.300626
H90	H	1.835979	-0.077030	0.199374
H91	H	1.403610	-0.521583	-0.238817
H92	H	1.903610	-0.021583	0.261183
H93	H	1.271263	-0.511429	-0.238824
H94	H	1.771263	-0.011429	0.261176
H95	H	1.336468	-0.555367	0.202477
H96	H	1.836468	-0.055367	0.702477
C97	C	1.333037	-0.697901	0.234340
C98	C	1.833037	-0.197901	0.734340
H99	H	1.331879	-0.746492	0.218361
H100	H	1.831879	-0.246492	0.718361
H101	H	1.267149	-0.680891	0.280166
H102	H	1.767149	-0.180891	0.780166
H103	H	1.399496	-0.691048	0.280186
H104	H	1.899496	-0.191048	0.780186
C105	C	1.343695	-0.253831	0.234373
C106	C	1.843695	0.246169	0.734373
H107	H	1.342545	-0.302422	0.218393
H108	H	1.842545	0.197578	0.718393
H109	H	1.277808	-0.236826	0.280205
H110	H	1.777808	0.263174	0.780205
H111	H	1.410154	-0.246973	0.280215
H112	H	1.910154	0.253027	0.780215
H113	H	1.347092	-0.111291	0.202521
H114	H	1.847092	0.388709	0.702521
