data_functionalizedCrystal
_audit_creation_method	'MofGen! by Chris Wilmer'
_symmetry_space_group_name_H-M	'P1'
_symmetry_Int_Tables_number	1
_symmetry_cell_setting	triclinic
loop_
_symmetry_equiv_pos_as_xyz
  x,y,z
_cell_length_a	10.654550
_cell_length_b	10.654551
_cell_length_c	9.130313
_cell_angle_alpha	89.998309
_cell_angle_beta	89.999724
_cell_angle_gamma	84.485146
loop_
_atom_site_label
_atom_site_type_symbol
_atom_site_fract_x
_atom_site_fract_y
_atom_site_fract_z
O1	O	1.667840	0.176399	-0.121680
O2	O	1.302362	0.193205	-0.121706
O3	O	1.493503	0.002063	-0.121693
O4	O	1.476699	0.367541	-0.121693
O5	O	1.493490	0.002057	0.121906
O6	O	1.302349	0.193199	0.121893
O7	O	1.667827	0.176393	0.121919
Cu8	Cu	1.485087	0.184796	0.144148
Cu9	Cu	1.485102	0.184802	-0.143935
O10	O	1.476685	0.367535	0.121906
C11	C	1.255557	0.191968	0.000090
C12	C	1.116114	0.188276	0.000080
C13	C	1.036629	0.300818	0.000084
C14	C	0.905608	0.297341	0.000110
C15	C	0.933570	0.068772	0.000120
C16	C	1.064588	0.072249	0.000105
C17	C	1.492262	-0.044738	0.000103
C18	C	1.488570	-0.184181	0.000093
C19	C	1.486845	-0.249690	-0.132690
C20	C	1.483365	-0.380711	-0.132684
C21	C	1.483340	-0.380702	0.132901
C22	C	1.486811	-0.249683	0.132893
C23	C	1.488604	-0.184188	-0.265490
C24	C	1.486880	-0.249698	-0.398285
C25	C	1.483400	-0.380718	-0.398278
C26	C	1.481643	-0.446229	-0.265478
C27	C	1.714631	0.177630	0.000120
C28	C	1.854075	0.181322	0.000120
C29	C	1.477926	0.414336	0.000107
C30	C	1.481619	0.553779	0.000107
N31	N	1.485085	0.184790	0.346771
N32	N	1.485114	0.184798	-0.346558
C33	C	1.569751	0.100188	0.423429
C34	C	1.569763	0.100189	0.576765
C35	C	1.400438	0.269404	0.576774
C36	C	1.400421	0.269396	0.423440
H37	H	0.840895	0.388984	0.000116
O38	O	1.481469	-0.444452	0.261802
C39	C	1.370868	-0.506937	0.269758
H40	H	1.334157	-0.522141	0.154463
H41	H	1.392843	-0.602054	0.325967
H42	H	1.296169	-0.447144	0.335278
O43	O	1.318083	0.351635	0.651026
C44	C	1.243368	0.426323	0.550479
H45	H	1.241496	0.374812	0.441183
H46	H	1.143244	0.444545	0.594795
H47	H	1.284944	0.520005	0.534156
H48	H	0.891602	-0.025693	0.000150
O49	O	1.141937	-0.036997	-0.000098
C50	C	1.218529	-0.041835	-0.126286
H51	H	1.226010	0.057911	-0.168353
H52	H	1.316583	-0.087753	-0.097919
H53	H	1.174932	-0.099575	-0.214622
O54	O	1.491926	-0.056910	-0.265761
C55	C	1.493143	-0.013144	-0.411441
H56	H	1.451457	-0.083791	-0.486642
H57	H	1.434606	0.081956	-0.419524
H58	H	1.594344	-0.002204	-0.445959
H59	H	1.488298	-0.196348	-0.506406
O60	O	1.488264	-0.185945	0.261831
C61	C	1.381705	-0.096863	0.269717
H62	H	1.304781	-0.127087	0.194360
H63	H	1.345282	-0.090895	0.387155
H64	H	1.408883	-0.000574	0.234014
H65	H	1.638687	0.031295	0.361009
H66	H	1.478791	-0.552913	-0.265483
O67	O	1.086474	0.413628	0.000137
C68	C	0.988216	0.512213	0.000112
H69	H	0.898926	0.476227	0.046241
H70	H	1.016298	0.593146	0.070830
H71	H	0.969972	0.546985	-0.116753
O72	O	1.481884	-0.444512	-0.527173
C73	C	1.588468	-0.533560	-0.535118
H74	H	1.624133	-0.557616	-0.419820
H75	H	1.561608	-0.622705	-0.591322
H76	H	1.665846	-0.492367	-0.600638
O77	O	1.652131	0.017963	0.651003
C78	C	1.726825	-0.056732	0.550446
H79	H	1.728675	-0.005226	0.441142
H80	H	1.826957	-0.074954	0.594736
H81	H	1.685243	-0.150413	0.534150
H82	H	1.331470	0.338290	0.361021
