data_functionalizedCrystal
_audit_creation_method	'MofGen! by Chris Wilmer'
_symmetry_space_group_name_H-M	'P1'
_symmetry_Int_Tables_number	1
_symmetry_cell_setting	triclinic
loop_
_symmetry_equiv_pos_as_xyz
  x,y,z
_cell_length_a	18.050589
_cell_length_b	12.645331
_cell_length_c	12.645324
_cell_angle_alpha	90.021980
_cell_angle_beta	89.967769
_cell_angle_gamma	89.972800
loop_
_atom_site_label
_atom_site_type_symbol
_atom_site_fract_x
_atom_site_fract_y
_atom_site_fract_z
Zn1	Zn	-0.295624	-1.620646	-0.599442
Zn2	Zn	0.204376	-1.120646	-0.099442
Zn3	Zn	-0.419838	-1.620498	-0.422180
Zn4	Zn	0.080162	-1.120498	0.077820
Zn5	Zn	-0.295664	-1.443363	-0.422186
Zn6	Zn	0.204336	-0.943363	0.077814
Zn7	Zn	-0.419775	-1.443310	-0.599396
Zn8	Zn	0.080225	-0.943310	-0.099396
O9	O	-0.357725	-1.531954	-0.510801
O10	O	0.142275	-1.031954	-0.010801
O11	O	-0.312111	-1.768974	-0.575945
O12	O	0.187889	-1.268974	-0.075945
O13	O	-0.403409	-1.596960	-0.273834
O14	O	0.096591	-1.096960	0.226166
O15	O	-0.191734	-1.466965	-0.445722
O16	O	0.308266	-0.966965	0.054278
O17	O	-0.403370	-1.768865	-0.445711
O18	O	0.096630	-1.268865	0.054289
O19	O	-0.191705	-1.597214	-0.575951
O20	O	0.308295	-1.097214	-0.075951
O21	O	-0.312179	-1.466820	-0.273838
O22	O	0.187821	-0.966820	0.226162
O23	O	-0.312118	-1.295009	-0.445677
O24	O	0.187882	-0.795009	0.054323
O25	O	-0.403263	-1.466874	-0.747749
O26	O	0.096737	-0.966874	-0.247749
O27	O	-0.403301	-1.294970	-0.575872
O28	O	0.096699	-0.794970	-0.075872
O29	O	-0.312050	-1.597163	-0.747783
O30	O	0.187950	-1.097163	-0.247783
O31	O	-0.523754	-1.596909	-0.445666
O32	O	-0.023754	-1.096909	0.054334
O33	O	-0.523708	-1.466730	-0.575866
O34	O	-0.023708	-0.966730	-0.075866
C35	C	-0.357707	-1.256525	-0.510770
C36	C	0.142293	-0.756525	-0.010770
C37	C	-0.357718	-1.138695	-0.510783
C38	C	0.142282	-0.638695	-0.010783
C39	C	-0.550677	-1.531826	-0.510784
C40	C	-0.050677	-1.031826	-0.010784
C41	C	-0.633223	-1.531869	-0.510811
C42	C	-0.133223	-1.031869	-0.010811
C43	C	-0.357645	-1.532029	-0.787307
C44	C	0.142355	-1.032029	-0.287307
C45	C	-0.357610	-1.532061	-0.905137
C46	C	0.142390	-1.032061	-0.405137
C47	C	-0.832675	-1.461147	-0.581589
C48	C	-0.332675	-0.961147	-0.081589
C49	C	-0.882126	-1.435301	-0.484854
C50	C	-0.382126	-0.935301	0.015146
C51	C	-0.784353	-1.531973	-0.510825
C52	C	-0.284353	-1.031973	-0.010825
C53	C	-0.881985	-1.557870	-0.607571
C54	C	-0.381985	-1.057870	-0.107571
C55	C	-0.930338	-1.532071	-0.510847
C56	C	-0.430338	-1.032071	-0.010847
C57	C	-0.832716	-1.506077	-0.414039
C58	C	-0.332716	-1.006077	0.085961
C59	C	-0.832571	-1.628690	-0.536821
C60	C	-0.332571	-1.128690	-0.036821
C61	C	-0.881999	-1.602882	-0.440020
C62	C	-0.381999	-1.102882	0.059980
C63	C	-0.700255	-1.531913	-0.510814
C64	C	-0.200255	-1.031913	-0.010814
C65	C	-1.014435	-1.532131	-0.510847
C66	C	-0.514435	-1.032131	-0.010847
C67	C	-0.164019	-1.532112	-0.510842
C68	C	0.335981	-1.032112	-0.010842
C69	C	-0.081474	-1.532179	-0.510859
C70	C	0.418526	-1.032179	-0.010859
C71	C	-0.357743	-1.808460	-0.510832
C72	C	0.142257	-1.308460	-0.010832
C73	C	-0.357751	-1.926290	-0.510846
C74	C	0.142249	-1.426290	-0.010846
C75	C	-0.300090	-0.971120	-0.429329
C76	C	0.199910	-0.471120	0.070671
C77	C	-0.300239	-1.093679	-0.428970
C78	C	0.199761	-0.593679	0.071030
C79	C	-0.435953	-1.094154	-0.480267
C80	C	0.064047	-0.594154	0.019733
C81	C	-0.435639	-0.971556	-0.479711
C82	C	0.064361	-0.471556	0.020289
C83	C	-0.337854	-0.971549	-0.623067
C84	C	0.162146	-0.471549	-0.123067
C85	C	-0.336106	-1.094155	-0.622443
C86	C	0.163894	-0.594155	-0.122443
C87	C	-0.300216	-1.614044	-0.950040
C88	C	0.199784	-1.114044	-0.450040
C89	C	-0.300366	-1.614395	-1.072600
C90	C	0.199634	-1.114395	-0.572600
C91	C	-0.435911	-1.561996	-1.073017
C92	C	0.064089	-1.061996	-0.573017
C93	C	-0.435598	-1.562560	-0.950419
C94	C	0.064402	-1.062560	-0.450419
C95	C	-0.337348	-1.420001	-0.950307
C96	C	0.162652	-0.920001	-0.450307
C97	C	-0.335602	-1.420633	-1.072915
C98	C	0.164398	-0.920633	-0.572915
C99	C	-0.357752	-1.531941	-0.235371
C100	C	0.142248	-1.031941	0.264629
C101	C	-0.357577	-1.532115	-0.117542
C102	C	0.142423	-1.032115	0.382458
H103	H	-0.811017	-1.401164	-0.641347
H104	H	-0.311017	-0.901164	-0.141347
Br105	Br	-0.509476	-1.142730	-0.576128
Br106	Br	-0.009476	-0.642730	-0.076128
H107	H	-0.903627	-1.579735	-0.689379
H108	H	-0.403627	-1.079735	-0.189379
H109	H	-0.453115	-1.124806	-0.399108
H110	H	0.046885	-0.624806	0.100892
Br111	Br	-0.463759	-0.923799	-0.342974
Br112	Br	0.036241	-0.423799	0.157026
H113	H	-0.241901	-0.941671	-0.448251
H114	H	0.258099	-0.441671	0.051749
H115	H	-0.242292	-1.595726	-1.102707
H116	H	0.257708	-1.095726	-0.602707
Br117	Br	-0.796800	-1.469481	-0.277646
Br118	Br	-0.296800	-0.969481	0.222354
H119	H	-0.313391	-1.122955	-0.345809
H120	H	0.186609	-0.622955	0.154191
H121	H	-0.242225	-1.123795	-0.448097
H122	H	0.257775	-0.623795	0.051903
Br123	Br	-0.917869	-1.702787	-0.340186
Br124	Br	-0.417869	-1.202787	0.159814
Br125	Br	-0.244425	-0.920082	-0.669323
Br126	Br	0.255575	-0.420082	-0.169323
Br127	Br	-0.407005	-1.318198	-0.901881
Br128	Br	0.092995	-0.818198	-0.401881
H129	H	-0.278534	-1.123274	-0.645454
H130	H	0.221466	-0.623274	-0.145454
H131	H	-0.375040	-1.124802	-0.686428
H132	H	0.124960	-0.624802	-0.186428
H133	H	-0.453346	-1.642999	-1.103757
H134	H	0.046654	-1.142999	-0.603757
H135	H	-0.379852	-0.942558	-0.683804
H136	H	0.120148	-0.442558	-0.183804
Br137	Br	-0.203122	-1.583293	-0.900958
Br138	Br	0.296878	-1.083293	-0.400958
Br139	Br	-0.322338	-1.751662	-0.898734
Br140	Br	0.177662	-1.251662	-0.398734
H141	H	-0.313790	-1.697446	-1.101942
H142	H	0.186210	-1.197446	-0.601942
H143	H	-0.903908	-1.353557	-0.462887
H144	H	-0.403908	-0.853557	0.037113
Br145	Br	-0.509671	-0.922119	-0.574346
Br146	Br	-0.009671	-0.422119	-0.074346
H147	H	-0.452737	-1.644463	-0.921834
H148	H	0.047263	-1.144463	-0.421834
Br149	Br	-0.509324	-1.467332	-0.900896
Br150	Br	-0.009324	-0.967332	-0.400896
Br151	Br	-0.509122	-1.465549	-1.121524
Br152	Br	-0.009122	-0.965549	-0.621524
Br153	Br	-0.243774	-1.374501	-0.898801
Br154	Br	0.256226	-0.874501	-0.398801
Br155	Br	-0.239518	-1.383054	-1.121423
Br156	Br	0.260482	-0.883054	-0.621423
H157	H	-0.810790	-1.710416	-0.558835
H158	H	-0.310790	-1.210416	-0.058835
H159	H	-0.313096	-0.940269	-0.346658
H160	H	0.186904	-0.440269	0.153342
Br161	Br	-0.400143	-1.313453	-1.123897
Br162	Br	0.099857	-0.813453	-0.623897
