data_functionalizedCrystal
_audit_creation_method	'MofGen! by Chris Wilmer'
_symmetry_space_group_name_H-M	'P1'
_symmetry_Int_Tables_number	1
_symmetry_cell_setting	triclinic
loop_
_symmetry_equiv_pos_as_xyz
  x,y,z
_cell_length_a	18.101395
_cell_length_b	14.908571
_cell_length_c	14.908308
_cell_angle_alpha	89.824947
_cell_angle_beta	93.266316
_cell_angle_gamma	93.272726
loop_
_atom_site_label
_atom_site_type_symbol
_atom_site_fract_x
_atom_site_fract_y
_atom_site_fract_z
Zn1	Zn	-0.386468	-1.345208	-0.587575
Zn2	Zn	-0.503604	-1.353762	-0.437213
Zn3	Zn	-0.372244	-1.203527	-0.428573
Zn4	Zn	-0.502724	-1.194790	-0.578865
O5	O	-0.441260	-1.274322	-0.508057
O6	O	-0.408328	-1.472167	-0.574890
O7	O	-0.480594	-1.341069	-0.310243
O8	O	-0.270503	-1.222397	-0.449694
O9	O	-0.494387	-1.478452	-0.464420
O10	O	-0.280953	-1.326490	-0.566512
O11	O	-0.384085	-1.230692	-0.303895
O12	O	-0.383231	-1.076543	-0.441249
O13	O	-0.492887	-1.207507	-0.705845
O14	O	-0.479094	-1.070124	-0.551667
O15	O	-0.407474	-1.318019	-0.712244
O16	O	-0.607115	-1.332598	-0.455974
O17	O	-0.606469	-1.215801	-0.560045
C18	C	-0.429524	-1.040709	-0.494576
C19	C	-0.424523	-0.940767	-0.488830
C20	C	-0.633663	-1.274203	-0.508023
C21	C	-0.715980	-1.274233	-0.508044
C22	C	-0.451669	-1.260834	-0.742582
C23	C	-0.456105	-1.255087	-0.842522
C24	C	-1.015083	-1.274427	-0.508104
C25	C	-0.983397	-1.201093	-0.573764
C26	C	-0.897753	-1.200777	-0.573527
C27	C	-0.866694	-1.274331	-0.508075
C28	C	-0.892332	-1.254147	-0.411835
C29	C	-0.977973	-1.253677	-0.412227
C30	C	-0.989281	-1.368144	-0.537857
C31	C	-0.903695	-1.367465	-0.539903
C32	C	-0.782831	-1.274278	-0.508053
C33	C	-1.098945	-1.274478	-0.508119
C34	C	-0.248107	-1.274464	-0.508111
C35	C	-0.165797	-1.274525	-0.508134
C36	C	-0.453042	-1.508847	-0.521591
C37	C	-0.458063	-1.608787	-0.527358
C38	C	-0.515086	-0.746339	-0.592857
C39	C	-0.510389	-0.652434	-0.587462
C40	C	-0.410428	-0.659052	-0.472648
C41	C	-0.415125	-0.752956	-0.478044
C42	C	-0.467457	-0.796596	-0.538149
C43	C	-0.472157	-0.890503	-0.543540
C44	C	-0.372193	-0.897118	-0.428731
C45	C	-0.367496	-0.803213	-0.423336
C46	C	-0.375483	-1.359359	-1.036986
C47	C	-0.379648	-1.353962	-1.130890
C48	C	-0.468597	-1.238890	-1.124234
C49	C	-0.464432	-1.244288	-1.030330
C50	C	-0.417874	-1.304525	-0.986710
C51	C	-0.413713	-1.309927	-0.892805
C52	C	-0.502657	-1.194851	-0.886151
C53	C	-0.506822	-1.189453	-0.980054
C54	C	-0.430840	-1.287808	-0.274447
C55	C	-0.426205	-1.293730	-0.174517
H56	H	-0.880629	-1.212770	-0.644716
H57	H	-0.506502	-1.189847	-1.159766
H58	H	-0.345127	-1.398611	-1.171821
H59	H	-0.887413	-1.382784	-0.610757
H60	H	-1.009859	-1.422713	-0.490101
H61	H	-0.324888	-0.767668	-0.374402
H62	H	-0.873076	-1.131201	-0.553387
H63	H	-0.544727	-1.140408	-1.015582
H64	H	-0.367818	-0.623503	-0.423719
H65	H	-0.993611	-1.185333	-0.387659
H66	H	-0.337578	-1.408412	-1.001471
H67	H	-0.514769	-0.926033	-0.592479
H68	H	-0.866562	-1.186561	-0.386941
H69	H	-0.333411	-0.938048	-0.384182
H70	H	-0.557700	-0.781872	-0.641793
H71	H	-0.549172	-0.611518	-0.632012
H72	H	-0.882912	-1.424553	-0.496001
H73	H	-0.998720	-1.305069	-0.361342
H74	H	-0.872037	-1.306121	-0.361340
H75	H	-0.375804	-1.358977	-0.857292
H76	H	-0.537177	-1.150203	-0.845206
H77	H	-1.007887	-1.212915	-0.645171
H78	H	-1.000760	-1.131935	-0.553850
H79	H	-1.015032	-1.387612	-0.607127
