data_functionalizedCrystal
_audit_creation_method	'MofGen! by Chris Wilmer'
_symmetry_space_group_name_H-M	'P1'
_symmetry_Int_Tables_number	1
_symmetry_cell_setting	triclinic
loop_
_symmetry_equiv_pos_as_xyz
  x,y,z
_cell_length_a	17.699097
_cell_length_b	16.974813
_cell_length_c	16.776229
_cell_angle_alpha	86.338786
_cell_angle_beta	89.989262
_cell_angle_gamma	83.341721
loop_
_atom_site_label
_atom_site_type_symbol
_atom_site_fract_x
_atom_site_fract_y
_atom_site_fract_z
O1	O	1.004145	0.100042	-0.072807
O2	O	1.504145	0.600042	0.427193
O3	O	0.783777	0.113040	-0.073632
O4	O	1.283777	0.613040	0.426368
O5	O	0.900104	-0.008574	-0.065790
O6	O	1.400104	0.491426	0.434210
O7	O	0.887818	0.221656	-0.080649
O8	O	1.387818	0.721656	0.419351
O9	O	0.900088	-0.008582	0.066787
O10	O	1.400088	0.491418	0.566787
O11	O	0.783762	0.113033	0.058945
O12	O	1.283762	0.613033	0.558945
O13	O	1.004129	0.100035	0.059770
O14	O	1.504129	0.600035	0.559770
Zn15	Zn	0.893943	0.106533	0.080407
Zn16	Zn	1.393943	0.606533	0.580407
Zn17	Zn	0.893963	0.106542	-0.094269
Zn18	Zn	1.393963	0.606542	0.405731
O19	O	0.887802	0.221649	0.051928
O20	O	1.387802	0.721649	0.551928
C21	C	0.755572	0.112569	-0.007312
C22	C	1.255572	0.612569	0.492688
C23	C	0.671554	0.111166	-0.007216
C24	C	1.171554	0.611166	0.492784
C25	C	0.155837	0.102573	-0.078961
C26	C	0.655837	0.602573	0.421039
C27	C	0.234782	0.103886	-0.079042
C28	C	0.734782	0.603886	0.420958
C29	C	0.274241	0.104539	-0.006813
C30	C	0.774241	0.604539	0.493187
C31	C	0.234750	0.103872	0.065501
C32	C	0.734750	0.603872	0.565501
C33	C	0.155808	0.102554	0.065581
C34	C	0.655808	0.602554	0.565581
C35	C	0.553118	0.109187	0.065179
C36	C	1.053118	0.609187	0.565179
C37	C	0.632066	0.110507	0.065093
C38	C	1.132066	0.610507	0.565093
C39	C	0.632093	0.110519	-0.079444
C40	C	1.132093	0.610519	0.420556
C41	C	0.553150	0.109200	-0.079364
C42	C	1.053150	0.609200	0.420636
C43	C	0.513668	0.108529	-0.007050
C44	C	1.013668	0.608529	0.492950
C45	C	0.428067	0.107105	-0.006963
C46	C	0.928067	0.607105	0.493037
C47	C	0.359839	0.105969	-0.006900
C48	C	0.859839	0.605969	0.493100
C49	C	0.899628	-0.038035	0.002398
C50	C	1.399628	0.461965	0.502398
C51	C	0.898226	-0.125810	0.008058
C52	C	1.398226	0.374190	0.508058
C53	C	0.897578	-0.167038	-0.061550
C54	C	1.397578	0.332962	0.438450
C55	C	0.896256	-0.249511	-0.056229
C56	C	1.396256	0.250489	0.443771
C57	C	0.895587	-0.290754	0.018700
C58	C	1.395587	0.209246	0.518700
C59	C	0.896234	-0.249520	0.088313
C60	C	1.396234	0.250480	0.588313
C61	C	0.897550	-0.167048	0.082992
C62	C	1.397550	0.332952	0.582992
C63	C	0.891643	-0.537409	0.042365
C64	C	1.391643	-0.037409	0.542365
C65	C	0.890328	-0.619887	0.047681
C66	C	1.390328	-0.119887	0.547681
C67	C	0.890349	-0.619872	-0.096862
C68	C	1.390349	-0.119872	0.403138
C69	C	0.891670	-0.537399	-0.102177
C70	C	1.391670	-0.037399	0.397823
C71	C	0.892313	-0.496171	-0.032564
C72	C	1.392313	0.003829	0.467436
N73	N	0.894238	-0.375055	0.024141
N74	N	1.394238	0.124945	0.524141
N75	N	0.893656	-0.411871	-0.038005
N76	N	1.393656	0.088129	0.461995
C77	C	1.032334	0.100506	-0.006552
C78	C	1.532334	0.600506	0.493448
C79	C	1.116353	0.101908	-0.006653
C80	C	1.616353	0.601908	0.493347
C81	C	0.888278	0.251110	-0.016261
C82	C	1.388278	0.751110	0.483739
C83	C	0.889680	0.338885	-0.021927
C84	C	1.389680	0.838885	0.478073
N85	N	0.893935	0.106525	0.199619
N86	N	1.393935	0.606525	0.699619
N87	N	0.893978	0.106543	-0.213480
N88	N	1.393978	0.606543	0.286520
C89	C	0.945460	0.052697	0.244807
C90	C	1.445460	0.552697	0.744807
C91	C	0.945464	0.052696	0.328259
C92	C	1.445464	0.552696	0.828259
C93	C	0.893946	0.106528	0.366521
C94	C	1.393946	0.606528	0.866521
C95	C	0.842415	0.160360	0.321327
C96	C	1.342415	0.660360	0.821327
C97	C	0.842408	0.160356	0.237877
C98	C	1.342408	0.660356	0.737877
C99	C	0.842443	0.160375	0.657874
C100	C	1.342443	0.660375	1.157874
C101	C	0.842455	0.160376	0.741330
C102	C	1.342455	0.660376	1.241330
C103	C	0.945498	0.052715	0.748256
C104	C	1.445498	0.552715	1.248256
C105	C	0.945491	0.052711	0.664805
C106	C	1.445491	0.552711	1.164805
C107	C	0.893958	0.106540	0.619619
C108	C	1.393958	0.606540	1.119619
C109	C	0.893953	0.106539	0.529130
C110	C	1.393953	0.606539	1.029130
C111	C	0.893954	0.106534	0.457008
C112	C	1.393954	0.606534	0.957008
H113	H	0.266884	0.104399	0.124311
H114	H	0.766884	0.604399	0.624311
N115	N	0.786876	0.218436	0.609135
N116	N	1.286876	0.718436	1.109135
H117	H	0.753394	0.188262	0.576474
H118	H	1.253394	0.688262	1.076474
H119	H	0.754294	0.252530	0.646084
H120	H	1.254294	0.752530	1.146084
H121	H	0.987457	0.008883	0.785056
H122	H	1.487457	0.508883	1.285056
H123	H	0.123716	0.102047	-0.137779
H124	H	0.623716	0.602047	0.362221
H125	H	0.664191	0.111039	0.123914
H126	H	1.164191	0.611039	0.623914
N127	N	1.001013	-0.005382	0.203545
N128	N	1.501013	0.494618	0.703545
H129	H	0.993190	0.002779	0.143822
H130	H	1.493190	0.502779	0.643822
H131	H	1.054699	0.003673	0.217525
H132	H	1.554699	0.503673	0.717525
H133	H	0.800500	0.204215	0.772481
H134	H	1.300500	0.704215	1.272481
H135	H	0.898126	-0.133464	-0.122566
H136	H	1.398126	0.366536	0.377434
H137	H	0.123659	0.102021	0.124462
H138	H	0.623659	0.602021	0.624462
N139	N	0.786853	0.218421	0.362600
N140	N	1.286853	0.718421	0.862600
H141	H	0.795505	0.274529	0.344444
H142	H	1.295505	0.774529	0.844444
H143	H	0.733171	0.209313	0.348668
H144	H	1.233171	0.709313	0.848668
H145	H	0.266928	0.104422	-0.137923
H146	H	0.766928	0.604422	0.362077
H147	H	0.987419	0.008864	0.365051
H148	H	1.487419	0.508864	0.865051
N149	N	0.892471	-0.492930	-0.182995
N150	N	1.392471	0.007070	0.317005
H151	H	0.893435	-0.434432	-0.175803
H152	H	1.393435	0.065568	0.324197
H153	H	0.939170	-0.513881	-0.213139
H154	H	1.439170	-0.013881	0.286861
N155	N	0.895665	-0.293994	-0.131305
N156	N	1.395665	0.206006	0.368695
H157	H	0.896330	-0.255358	-0.179579
H158	H	1.396330	0.244642	0.320421
H159	H	0.942051	-0.334669	-0.131747
H160	H	1.442051	0.165331	0.368253
H161	H	0.664250	0.111062	-0.138326
H162	H	1.164250	0.611062	0.361674
H163	H	0.987444	0.008879	0.633655
H164	H	1.487444	0.508879	1.133655
N165	N	0.889655	-0.664337	-0.171941
N166	N	1.389655	-0.164337	0.328059
H167	H	0.888719	-0.722841	-0.157204
H168	H	1.388719	-0.222841	0.342796
H169	H	0.842993	-0.643421	-0.204846
H170	H	1.342993	-0.143421	0.295154
N171	N	0.786830	0.218413	0.189140
N172	N	1.286830	0.718413	0.689140
H173	H	0.795483	0.274524	0.200029
H174	H	1.295483	0.774524	0.700029
H175	H	0.794666	0.210173	0.130488
H176	H	1.294666	0.710173	0.630488
N177	N	0.510592	0.108497	-0.157267
N178	N	1.010592	0.608497	0.342733
H179	H	0.547586	0.109114	-0.203088
H180	H	1.047586	0.609114	0.296912
H181	H	0.484027	0.058951	-0.157215
H182	H	0.984027	0.558951	0.342785
N183	N	0.889610	-0.664375	0.128502
N184	N	1.389610	-0.164375	0.628502
H185	H	0.890216	-0.625744	0.171795
H186	H	1.390216	-0.125744	0.671795
H187	H	0.842169	-0.692101	0.133436
H188	H	1.342169	-0.192101	0.633436
H189	H	0.520983	0.108629	0.124063
H190	H	1.020983	0.608629	0.624063
H191	H	0.892181	-0.503854	0.099049
H192	H	1.392181	-0.003854	0.599049
N193	N	0.895520	-0.294001	0.169132
N194	N	1.395520	0.205999	0.669132
H195	H	0.894595	-0.352504	0.161942
H196	H	1.394595	0.147496	0.661942
H197	H	0.942647	-0.286078	0.200168
H198	H	1.442647	0.213922	0.700168
H199	H	0.898068	-0.133480	0.139674
H200	H	1.398068	0.366520	0.639674
