data_functionalizedCrystal
_audit_creation_method	'MofGen! by Chris Wilmer'
_symmetry_space_group_name_H-M	'P1'
_symmetry_Int_Tables_number	1
_symmetry_cell_setting	triclinic
loop_
_symmetry_equiv_pos_as_xyz
  x,y,z
_cell_length_a	16.974885
_cell_length_b	12.811415
_cell_length_c	16.053802
_cell_angle_alpha	87.154093
_cell_angle_beta	91.069328
_cell_angle_gamma	84.066381
loop_
_atom_site_label
_atom_site_type_symbol
_atom_site_fract_x
_atom_site_fract_y
_atom_site_fract_z
O1	O	1.049988	0.133187	-0.008632
O2	O	0.820639	0.149171	-0.025326
O3	O	0.940535	-0.010866	-0.005111
O4	O	0.930091	0.293224	-0.028847
O5	O	0.933935	-0.002094	0.132638
O6	O	0.814039	0.157943	0.112423
O7	O	1.043388	0.141960	0.129117
Zn8	Zn	0.927666	0.151344	0.142640
Zn9	Zn	0.936361	0.139786	-0.038850
O10	O	0.923491	0.301997	0.108902
C11	C	0.787971	0.152788	0.041624
C12	C	0.700463	0.150482	0.035891
C13	C	0.208279	0.136950	-0.004495
C14	C	0.290502	0.139118	0.000903
C15	C	0.328006	0.144991	0.078689
C16	C	0.283286	0.148686	0.151083
C17	C	0.201066	0.146511	0.145684
C18	C	0.573522	0.152002	0.102886
C19	C	0.655748	0.154180	0.108279
C20	C	0.662958	0.144609	-0.041902
C21	C	0.580736	0.142441	-0.047293
C22	C	0.536022	0.146131	0.025100
N23	N	0.412051	0.147210	0.084208
N24	N	0.451981	0.143904	0.019581
C25	C	0.936448	-0.045399	0.066656
C26	C	0.934092	-0.161365	0.075275
C27	C	0.936847	-0.388831	-0.058722
C28	C	0.934634	-0.497792	-0.050628
C29	C	0.927447	-0.488249	0.099556
C30	C	0.929660	-0.379288	0.091462
C31	C	0.934361	-0.329583	0.012320
C32	C	0.936580	-0.220621	0.004228
C33	C	0.929388	-0.211079	0.154410
C34	C	0.927174	-0.320040	0.162504
C35	C	1.076056	0.138343	0.062165
C36	C	1.163564	0.140648	0.067893
C37	C	0.927579	0.336529	0.037133
C38	C	0.929935	0.452495	0.028509
N39	N	0.921737	0.159232	0.266503
N40	N	0.942296	0.131890	-0.162711
C41	C	0.972772	0.091160	0.318798
C42	C	0.968632	0.096688	0.405507
C43	C	0.913461	0.170292	0.439919
C44	C	0.862420	0.238367	0.387617
C45	C	0.866557	0.232834	0.300910
C46	C	0.895392	0.194432	0.698280
C47	C	0.891261	0.199962	0.784994
C48	C	0.997472	0.058281	0.802877
C49	C	1.001607	0.052758	0.716168
C50	C	0.950564	0.120829	0.663874
N51	N	0.909230	0.175946	0.528549
N52	N	0.954792	0.115170	0.575246
H53	H	0.326906	0.136099	-0.058043
H54	H	0.550205	0.137657	-0.110635
H55	H	0.537128	0.154991	0.161836
F56	F	0.937277	-0.560844	-0.126241
H57	H	0.923613	-0.528736	0.163988
H58	H	0.923343	-0.360524	0.226938
H59	H	0.927367	-0.162828	0.212258
H60	H	0.853832	0.249860	0.655709
F61	F	0.832537	0.278309	0.821611
F62	F	0.941861	-0.335931	-0.142948
H63	H	1.017702	0.031228	0.290786
F64	F	1.022949	0.024237	0.461163
H65	H	0.699372	0.141603	-0.100840
F66	F	0.153477	0.150440	0.222730
H67	H	0.817494	0.298294	0.415640
F68	F	1.060327	-0.025579	0.679546
F69	F	0.695661	0.160431	0.191073
H70	H	1.039029	0.002859	0.845463
H71	H	0.824998	0.288264	0.258332
H72	H	0.313829	0.153462	0.214418
H73	H	0.940411	-0.180154	-0.060213
F74	F	0.168371	0.130706	-0.087287
