data_functionalizedCrystal
_audit_creation_method	'MofGen! by Chris Wilmer'
_symmetry_space_group_name_H-M	'P1'
_symmetry_Int_Tables_number	1
_symmetry_cell_setting	triclinic
loop_
_symmetry_equiv_pos_as_xyz
  x,y,z
_cell_length_a	16.625548
_cell_length_b	19.121063
_cell_length_c	16.625539
_cell_angle_alpha	87.591339
_cell_angle_beta	90.020568
_cell_angle_gamma	92.470058
loop_
_atom_site_label
_atom_site_type_symbol
_atom_site_fract_x
_atom_site_fract_y
_atom_site_fract_z
Zn1	Zn	1.218959	-0.279593	0.469577
Zn2	Zn	1.718959	0.220407	0.969577
Zn3	Zn	1.213098	-0.397050	0.340486
Zn4	Zn	1.713098	0.102950	0.840486
Zn5	Zn	1.084119	-0.279620	0.334759
Zn6	Zn	1.584119	0.220380	0.834759
Zn7	Zn	1.078329	-0.397010	0.475274
Zn8	Zn	1.578329	0.102990	0.975274
O9	O	1.148626	-0.338318	0.405024
O10	O	1.648626	0.161682	0.905024
O11	O	1.331013	-0.295179	0.452466
O12	O	1.831013	0.204821	0.952466
O13	O	1.195959	-0.381501	0.226895
O14	O	1.695959	0.118499	0.726895
O15	O	1.106883	-0.181331	0.347862
O16	O	1.606883	0.318669	0.847862
O17	O	1.326707	-0.381475	0.357623
O18	O	1.826707	0.118525	0.857623
O19	O	1.205949	-0.181312	0.446912
O20	O	1.705949	0.318688	0.946912
O21	O	1.101199	-0.295225	0.222688
O22	O	1.601199	0.204775	0.722688
O23	O	0.970519	-0.295186	0.353386
O24	O	1.470519	0.204814	0.853386
O25	O	1.097013	-0.381406	0.587349
O26	O	1.597013	0.118594	1.087349
O27	O	0.966265	-0.381432	0.456622
O28	O	1.466265	0.118568	0.956622
O29	O	1.200333	-0.295140	0.583164
O30	O	1.700333	0.204860	1.083164
O31	O	1.190344	-0.495330	0.363147
O32	O	1.690344	0.004670	0.863147
O33	O	1.091330	-0.495300	0.462175
O34	O	1.591330	0.004700	0.962175
C35	C	0.939136	-0.338308	0.405001
C36	C	1.439136	0.161692	0.905001
C37	C	0.849514	-0.338321	0.405011
C38	C	1.349514	0.161679	0.905011
C39	C	1.139594	-0.520799	0.413918
C40	C	1.639594	-0.020799	0.913918
C41	C	1.135804	-0.598865	0.417750
C42	C	1.635804	-0.098865	0.917750
C43	C	0.521338	-0.338325	0.405046
C44	C	1.021338	0.161675	0.905046
C45	C	0.612647	-0.338322	0.405034
C46	C	1.112647	0.161678	0.905034
C47	C	0.685423	-0.338323	0.405028
C48	C	1.185423	0.161677	0.905028
C49	C	0.776738	-0.338319	0.405017
C50	C	1.276738	0.161681	0.905017
C51	C	1.185615	-0.635533	0.368035
C52	C	1.685615	-0.135533	0.868035
C53	C	1.182055	-0.708884	0.371644
C54	C	1.682055	-0.208884	0.871644
C55	C	1.128680	-0.745566	0.424964
C56	C	1.628680	-0.245566	0.924964
C57	C	1.078867	-0.708893	0.474685
C58	C	1.578867	-0.208893	0.974685
C59	C	1.082431	-0.635543	0.471080
C60	C	1.582431	-0.135543	0.971080
C61	C	1.115340	-0.967036	0.438431
C62	C	1.615340	-0.467036	0.938431
C63	C	1.111778	-1.040391	0.442031
C64	C	1.611778	-0.540391	0.942031
C65	C	1.214967	-1.040377	0.338989
C66	C	1.714967	-0.540377	0.838989
C67	C	1.218524	-0.967025	0.335386
C68	C	1.718524	-0.467025	0.835386
C69	C	1.168714	-0.930359	0.385109
C70	C	1.668714	-0.430359	0.885109
C71	C	1.125038	-0.820543	0.428653
C72	C	1.625038	-0.320543	0.928653
C73	C	1.172360	-0.855383	0.381425
C74	C	1.672360	-0.355383	0.881425
C75	C	1.358934	-0.338329	0.405048
C76	C	1.858934	0.161671	0.905048
C77	C	1.448555	-0.338333	0.405058
C78	C	1.948555	0.161667	0.905058
C79	C	1.148681	-0.338266	0.615331
C80	C	1.648681	0.161734	1.115331
C81	C	1.148705	-0.338244	0.704951
C82	C	1.648705	0.161756	1.204951
C83	C	1.157715	-0.155125	0.396113
C84	C	1.657715	0.344875	0.896113
C85	C	1.161589	-0.077059	0.392315
C86	C	1.661589	0.422941	0.892315
C87	C	1.148620	-0.338320	0.195533
C88	C	1.648620	0.161680	0.695533
C89	C	1.148763	-0.338144	0.105904
C90	C	1.648763	0.161856	0.605904
C91	C	1.148746	-0.338165	1.033123
C92	C	1.648746	0.161835	1.533123
C93	C	1.148732	-0.338189	0.941815
C94	C	1.648732	0.161811	1.441815
C95	C	1.148725	-0.338205	0.869040
C96	C	1.648725	0.161795	1.369040
C97	C	1.148711	-0.338228	0.777726
C98	C	1.648711	0.161772	1.277726
H99	H	1.222616	-0.738735	0.331159
H100	H	1.722616	-0.238735	0.831159
C101	C	1.012965	-0.974429	0.540622
C102	C	1.512965	-0.474429	1.040622
C103	C	1.060574	-0.926739	0.493071
C104	C	1.560574	-0.426739	0.993071
H105	H	0.979147	-0.949547	0.574349
H106	H	1.479147	-0.449547	1.074349
H107	H	1.046687	-1.002987	0.572907
H108	H	1.546687	-0.502987	1.072907
H109	H	0.980763	-1.003087	0.506857
H110	H	1.480763	-0.503087	1.006857
H111	H	1.092780	-0.898084	0.526837
H112	H	1.592780	-0.398084	1.026837
H113	H	1.026848	-0.898168	0.460784
H114	H	1.526848	-0.398168	0.960784
C115	C	1.187613	-0.772958	0.268931
C116	C	1.687613	-0.272958	0.768931
C117	C	1.231027	-0.815065	0.322812
C118	C	1.731027	-0.315065	0.822812
H119	H	1.223831	-0.748066	0.232742
H120	H	1.723831	-0.248066	0.732742
H121	H	1.158465	-0.740628	0.298031
H122	H	1.658465	-0.240628	0.798031
H123	H	1.151110	-0.801625	0.239469
H124	H	1.651110	-0.301625	0.739469
H125	H	1.267527	-0.786396	0.352278
H126	H	1.767527	-0.286396	0.852278
H127	H	1.260188	-0.847398	0.293709
H128	H	1.760188	-0.347398	0.793709
C129	C	1.063598	-0.791329	0.587181
C130	C	1.563598	-0.291329	1.087181
C131	C	1.020196	-0.749215	0.533296
C132	C	1.520196	-0.249215	1.033296
H133	H	1.027373	-0.816223	0.623360
H134	H	1.527373	-0.316223	1.123360
H135	H	1.100095	-0.762670	0.616647
H136	H	1.600095	-0.262670	1.116647
H137	H	1.092751	-0.823662	0.558077
H138	H	1.592751	-0.323662	1.058077
H139	H	0.991047	-0.716879	0.562399
H140	H	1.491047	-0.216879	1.062399
H141	H	0.983684	-0.777876	0.503827
H142	H	1.483684	-0.277876	1.003827
C143	C	0.980076	-0.642920	0.573293
C144	C	1.480076	-0.142920	1.073293
C145	C	1.027679	-0.595235	0.525731
C146	C	1.527679	-0.095235	1.025731
H147	H	0.946273	-0.618035	0.607032
H148	H	1.446273	-0.118035	1.107032
H149	H	1.013802	-0.671486	0.605565
H150	H	1.513802	-0.171486	1.105565
H151	H	0.947857	-0.671573	0.539535
H152	H	1.447857	-0.171573	1.039535
H153	H	1.059902	-0.566586	0.559488
H154	H	1.559902	-0.066586	1.059488
H155	H	0.993949	-0.566658	0.493455
H156	H	1.493949	-0.066658	0.993455
C157	C	1.255339	-1.152810	0.298776
C158	C	1.755339	-0.652810	0.798776
C159	C	1.269730	-1.080682	0.284349
C160	C	1.769730	-0.580682	0.784349
H161	H	1.289157	-1.177691	0.265048
H162	H	1.789157	-0.677691	0.765048
H163	H	1.200594	-1.164878	0.287507
H164	H	1.700594	-0.664878	0.787507
H165	H	1.266520	-1.164778	0.353555
H166	H	1.766520	-0.664778	0.853555
H167	H	1.258543	-1.068713	0.229571
H168	H	1.758543	-0.568713	0.729571
H169	H	1.324488	-1.068609	0.295612
H170	H	1.824488	-0.568609	0.795612
H171	H	1.081578	-0.850418	0.472065
H172	H	1.581578	-0.350418	0.972065
H173	H	1.229075	-0.605671	0.324612
H174	H	1.729075	-0.105671	0.824612
C175	C	1.320181	-0.974382	0.233912
C176	C	1.820181	-0.474382	0.733912
C177	C	1.277206	-0.926706	0.276783
C178	C	1.777206	-0.426706	0.776783
H179	H	1.356412	-0.949489	0.197737
H180	H	1.856412	-0.449489	0.697737
H181	H	1.283679	-1.003031	0.204440
H182	H	1.783679	-0.503031	0.704440
H183	H	1.349608	-1.002950	0.270485
H184	H	1.849608	-0.502950	0.770485
H185	H	1.247773	-0.898141	0.240210
H186	H	1.747773	-0.398141	0.740210
H187	H	1.313713	-0.898045	0.306256
H188	H	1.813713	-0.398045	0.806256
H189	H	1.068323	-1.070256	0.485465
H190	H	1.568323	-0.570256	0.985465
