data_functionalizedCrystal
_audit_creation_method	'MofGen! by Chris Wilmer'
_symmetry_space_group_name_H-M	'P1'
_symmetry_Int_Tables_number	1
_symmetry_cell_setting	triclinic
loop_
_symmetry_equiv_pos_as_xyz
  x,y,z
_cell_length_a	15.944551
_cell_length_b	10.540539
_cell_length_c	9.616153
_cell_angle_alpha	90.000138
_cell_angle_beta	89.992540
_cell_angle_gamma	95.987885
loop_
_atom_site_label
_atom_site_type_symbol
_atom_site_fract_x
_atom_site_fract_y
_atom_site_fract_z
O1	O	0.118375	-1.684271	-0.115583
O2	O	0.129528	-1.314706	-0.115601
O3	O	0.001737	-1.509580	-0.115579
O4	O	0.246167	-1.489396	-0.115605
O5	O	0.001728	-1.509573	0.115712
O6	O	0.129519	-1.314698	0.115690
O7	O	0.118366	-1.684263	0.115708
Zn8	Zn	0.123942	-1.499480	0.152422
Zn9	Zn	0.123953	-1.499490	-0.152315
O10	O	0.246158	-1.489389	0.115686
C11	C	0.128688	-1.267411	0.000043
C12	C	0.126185	-1.126497	0.000036
C13	C	-0.029566	-1.508739	0.000067
C14	C	-0.122827	-1.506227	0.000067
C15	C	0.119207	-1.731559	0.000061
C16	C	0.121710	-1.872473	0.000058
C17	C	-0.338440	-1.379430	0.000042
C18	C	-0.399110	-1.438306	0.114086
C19	C	-0.293580	-1.501682	0.000056
C20	C	-0.399085	-1.438343	-0.113950
C21	C	-0.458519	-1.497283	0.000040
C22	C	-0.353022	-1.560592	0.114194
C23	C	-0.352991	-1.560611	-0.113944
C24	C	-0.413643	-1.619577	0.000128
C25	C	-0.198563	-1.504213	0.000067
C26	C	-0.553535	-1.494762	0.000039
C27	C	0.277461	-1.490231	0.000037
C28	C	0.370722	-1.492743	0.000027
N29	N	0.123933	-1.499482	0.360396
C30	C	0.030298	-0.944375	0.000587
C31	C	0.032835	-1.090959	0.000051
C32	C	0.171115	-1.064217	-0.132042
C33	C	0.167929	-0.917716	-0.132138
C34	C	0.169817	-0.917193	0.130883
C35	C	0.170677	-1.064163	0.132615
N36	N	0.123955	-1.499497	-0.360289
C37	C	0.055809	-1.604110	0.580735
C38	C	0.055549	-1.603834	0.419567
C39	C	0.103996	-1.367049	0.418923
C40	C	0.103519	-1.367672	0.580141
C41	C	0.212232	-1.526123	0.580263
C42	C	0.211655	-1.529125	0.419034
H43	H	-0.305737	-1.277955	0.000151
Cl44	Cl	-0.430639	-1.358473	0.262936
Cl45	Cl	-0.463907	-1.776380	0.000229
Cl46	Cl	0.123165	-0.869128	0.285454
Cl47	Cl	0.273918	-0.842862	0.132252
Cl48	Cl	0.271579	-0.842238	-0.141408
H49	H	-0.332728	-1.612253	0.210715
H50	H	0.039115	-1.344205	0.617764
H51	H	-0.332548	-1.612278	-0.210358
H52	H	0.264800	-1.457866	0.378752
Cl53	Cl	0.122940	-1.130623	-0.283797
H54	H	-0.009948	-1.586820	0.381019
H55	H	0.137855	-1.105569	0.230326
H56	H	0.226765	-1.626548	0.380782
Cl57	Cl	0.241511	-1.672045	0.643006
Cl58	Cl	0.290543	-1.408345	0.639154
H59	H	0.040318	-1.343004	0.378566
Cl60	Cl	0.275759	-1.100122	0.144914
H61	H	-0.002759	-1.133192	-0.094786
H62	H	-0.419466	-1.386622	-0.210371
H63	H	0.134729	-0.889961	-0.230861
Cl64	Cl	-0.021749	-1.157496	0.146227
Cl65	Cl	0.276949	-1.097323	-0.139676
H66	H	-0.006585	-0.916289	0.095308
Cl67	Cl	-0.044737	-1.578228	0.643305
Cl68	Cl	-0.026400	-0.898510	-0.144820
H69	H	0.067538	-1.702277	0.379996
H70	H	0.067619	-1.702886	0.619498
Cl71	Cl	0.177167	-1.243873	0.640383
H72	H	0.152273	-1.287325	0.380596
