data_functionalizedCrystal
_audit_creation_method	'MofGen! by Chris Wilmer'
_symmetry_space_group_name_H-M	'P1'
_symmetry_Int_Tables_number	1
_symmetry_cell_setting	triclinic
loop_
_symmetry_equiv_pos_as_xyz
  x,y,z
_cell_length_a	11.792241
_cell_length_b	9.065218
_cell_length_c	8.140239
_cell_angle_alpha	90.001686
_cell_angle_beta	89.998521
_cell_angle_gamma	84.604650
loop_
_atom_site_label
_atom_site_type_symbol
_atom_site_fract_x
_atom_site_fract_y
_atom_site_fract_z
O1	O	-1.508028	-0.202221	-0.136447
O2	O	-1.008028	0.297779	0.363553
O3	O	-1.177802	-0.223063	-0.136484
O4	O	-0.677802	0.276937	0.363516
O5	O	-1.349740	0.002064	-0.136461
O6	O	-0.849740	0.502064	0.363539
O7	O	-1.336089	-0.427349	-0.136470
O8	O	-0.836089	0.072651	0.363530
O9	O	-1.349731	0.002067	0.136766
O10	O	-0.849731	0.502067	0.636766
O11	O	-1.177792	-0.223060	0.136743
O12	O	-0.677792	0.276940	0.636743
O13	O	-1.508018	-0.202219	0.136780
O14	O	-1.008018	0.297781	0.636780
Zn15	Zn	-1.342904	-0.212639	0.180142
Zn16	Zn	-0.842904	0.287361	0.680142
Zn17	Zn	-1.342916	-0.212643	-0.179846
Zn18	Zn	-0.842916	0.287357	0.320154
O19	O	-1.336079	-0.427346	0.136757
O20	O	-0.836079	0.072654	0.636757
C21	C	-1.348424	0.057040	0.000149
C22	C	-0.848424	0.557040	0.500149
C23	C	-1.344501	0.220846	0.000141
C24	C	-0.844501	0.720846	0.500141
C25	C	-1.135499	-0.221752	0.000124
C26	C	-0.635499	0.278248	0.500124
C27	C	-1.009464	-0.217834	0.000110
C28	C	-0.509464	0.282166	0.500110
C29	C	-1.550321	-0.203529	0.000168
C30	C	-1.050321	0.296471	0.500168
C31	C	-1.676356	-0.207448	0.000172
C32	C	-1.176356	0.292552	0.500172
C33	C	-0.778711	-0.210629	0.000157
C34	C	-0.278711	0.289371	0.500157
C35	C	-0.907119	-0.214632	0.000131
C36	C	-0.407119	0.285368	0.500131
C37	C	-1.337396	-0.482322	0.000143
C38	C	-0.837396	0.017678	0.500143
C39	C	-1.341319	-0.646128	0.000141
C40	C	-0.841319	-0.146128	0.500141
N41	N	-1.342903	-0.212636	0.425825
N42	N	-0.842903	0.287364	0.925825
N43	N	-1.342926	-0.212634	-0.425529
N44	N	-0.842926	0.287366	0.074471
