data_functionalizedCrystal
_audit_creation_method	'MofGen! by Chris Wilmer'
_symmetry_space_group_name_H-M	'P1'
_symmetry_Int_Tables_number	1
_symmetry_cell_setting	triclinic
loop_
_symmetry_equiv_pos_as_xyz
  x,y,z
_cell_length_a	18.215407
_cell_length_b	18.215405
_cell_length_c	18.215399
_cell_angle_alpha	90.029767
_cell_angle_beta	89.985640
_cell_angle_gamma	89.975026
loop_
_atom_site_label
_atom_site_type_symbol
_atom_site_fract_x
_atom_site_fract_y
_atom_site_fract_z
Zn1	Zn	1.125037	0.293025	-0.416070
Zn2	Zn	1.124946	0.416101	-0.293005
Zn3	Zn	1.001976	0.293047	-0.293023
Zn4	Zn	1.001929	0.416048	-0.416036
O5	O	1.063472	0.354555	-0.354534
O6	O	1.228009	0.309363	-0.399753
O7	O	1.108615	0.399809	-0.190023
O8	O	1.018357	0.190060	-0.309368
O9	O	1.227942	0.399787	-0.309337
O10	O	1.108770	0.190043	-0.399770
O11	O	1.018269	0.309402	-0.190036
O12	O	0.898985	0.309351	-0.309334
O13	O	1.018278	0.399697	-0.519025
O14	O	0.898951	0.399720	-0.399711
O15	O	1.108725	0.309312	-0.519050
O16	O	1.108570	0.519078	-0.309304
O17	O	1.018190	0.519040	-0.399693
C18	C	0.872266	0.354533	-0.354521
C19	C	0.790467	0.354541	-0.354533
C20	C	0.602306	0.307554	-0.401686
C21	C	0.525448	0.307560	-0.401689
C22	C	0.525389	0.401577	-0.307394
C23	C	0.602246	0.401567	-0.307388
C24	C	0.640703	0.354556	-0.354539
C25	C	0.486987	0.354573	-0.354547
C26	C	0.403653	0.354580	-0.354549
C27	C	0.724042	0.354548	-0.354536
C28	C	1.063385	0.545762	-0.354509
C29	C	1.063416	0.627560	-0.354523
C30	C	1.110512	0.892552	-0.401663
C31	C	1.110494	0.815693	-0.401653
C32	C	1.016430	0.815818	-0.307431
C33	C	1.016451	0.892675	-0.307438
C34	C	1.063491	0.931040	-0.354558
C35	C	1.063452	0.777324	-0.354541
C36	C	1.063433	0.693990	-0.354530
C37	C	1.063512	1.014379	-0.354569
C38	C	1.255425	0.354579	-0.354547
C39	C	1.337224	0.354588	-0.354553
C40	C	1.063507	0.354497	-0.546487
C41	C	1.063521	0.354471	-0.628286
C42	C	1.063555	1.162602	-0.354571
C43	C	1.063528	1.080804	-0.354577
C44	C	1.016518	0.307365	-0.816487
C45	C	1.016531	0.307350	-0.893346
C46	C	1.110613	0.401490	-0.893322
C47	C	1.110596	0.401508	-0.816464
C48	C	1.063549	0.354441	-0.778049
C49	C	1.063579	0.354409	-0.931765
C50	C	1.063593	0.354393	-1.015099
C51	C	1.063534	0.354458	-0.694710
C52	C	1.063480	0.354561	-0.163327
C53	C	1.063607	0.354379	-0.081529
H54	H	0.633510	0.439842	-0.268991
H55	H	1.148896	0.439847	-0.785167
H56	H	0.633616	0.269273	-0.440077
H57	H	1.148916	0.439810	-0.924609
C58	C	1.162260	0.934754	-0.453488
C59	C	1.213985	0.892414	-0.505299
C60	C	1.265737	0.934614	-0.557123
C61	C	1.265764	1.019154	-0.557136
C62	C	1.214037	1.061499	-0.505323
C63	C	1.162285	1.019299	-0.453499
H64	H	1.213967	0.829828	-0.505291
H65	H	1.304028	0.903267	-0.595479
H66	H	1.304073	1.050393	-0.595500
H67	H	1.214055	1.124084	-0.505331
H68	H	1.123993	1.050646	-0.415144
C69	C	0.964763	0.255599	-0.774230
C70	C	0.906958	0.287497	-0.721381
C71	C	0.855198	0.235732	-0.679127
C72	C	0.861244	0.152068	-0.689721
C73	C	0.919051	0.120165	-0.742572
C74	C	0.970810	0.171931	-0.784827
H75	H	0.902480	0.349434	-0.713536
H76	H	0.812406	0.259349	-0.640003
H77	H	0.822928	0.113748	-0.658442
H78	H	0.923529	0.058228	-0.750417
H79	H	1.013603	0.148314	-0.823951
C80	C	0.483209	0.255863	-0.453556
C81	C	0.430380	0.198049	-0.421776
C82	C	0.388141	0.146349	-0.473646
C83	C	0.398731	0.152464	-0.557296
C84	C	0.451563	0.210280	-0.589081
C85	C	0.493802	0.261979	-0.537211
H86	H	0.422539	0.193521	-0.359849
H87	H	0.349032	0.103550	-0.450116
H88	H	0.367464	0.114193	-0.595693
H89	H	0.459404	0.214808	-0.651007
H90	H	0.532911	0.304778	-0.560740
H91	H	0.494068	0.439852	-0.269006
H92	H	1.148784	0.784358	-0.440009
H93	H	0.978130	0.784573	-0.269068
C94	C	0.964723	0.935018	-0.255621
C95	C	0.912973	0.892822	-0.203798
C96	C	0.861249	0.935166	-0.151983
C97	C	0.861275	1.019706	-0.151990
C98	C	0.913027	1.061907	-0.203815
C99	C	0.964751	1.019563	-0.255630
H100	H	0.912952	0.830236	-0.203791
H101	H	0.822939	0.903925	-0.113619
H102	H	0.822986	1.051051	-0.113633
H103	H	0.913048	1.124493	-0.203822
H104	H	1.003061	1.050804	-0.293994
C105	C	0.964799	0.255561	-0.935628
C106	C	0.913053	0.203792	-0.893370
C107	C	0.861318	0.152001	-0.935651
C108	C	0.861330	0.151980	-1.020191
C109	C	0.913078	0.203751	-1.062455
C110	C	0.964812	0.255542	-1.020173
H111	H	0.913043	0.203806	-0.830784
H112	H	0.823011	0.113677	-0.904365
H113	H	0.823032	0.113641	-1.051491
H114	H	0.913088	0.203737	-1.125041
H115	H	1.003120	0.293867	-1.051459
