data_functionalizedCrystal
_audit_creation_method	'MofGen! by Chris Wilmer'
_symmetry_space_group_name_H-M	'P1'
_symmetry_Int_Tables_number	1
_symmetry_cell_setting	triclinic
loop_
_symmetry_equiv_pos_as_xyz
  x,y,z
_cell_length_a	16.109301
_cell_length_b	14.519709
_cell_length_c	15.186229
_cell_angle_alpha	89.995307
_cell_angle_beta	89.999362
_cell_angle_gamma	83.570813
loop_
_atom_site_label
_atom_site_type_symbol
_atom_site_fract_x
_atom_site_fract_y
_atom_site_fract_z
O1	O	1.103336	0.118540	-0.073175
O2	O	1.436669	0.451873	0.260159
O3	O	1.770002	0.785207	0.593492
O4	O	0.861299	0.133292	-0.073189
O5	O	1.194633	0.466625	0.260144
O6	O	1.527966	0.799959	0.593478
O7	O	0.988735	-0.008336	-0.073174
O8	O	1.322068	0.324997	0.260160
O9	O	1.655402	0.658330	0.593493
O10	O	0.975900	0.260168	-0.073190
O11	O	1.309234	0.593501	0.260143
O12	O	1.642567	0.926835	0.593476
O13	O	0.988726	-0.008338	0.073284
O14	O	1.322060	0.324995	0.406617
O15	O	1.655393	0.658328	0.739950
O16	O	0.861291	0.133290	0.073268
O17	O	1.194624	0.466623	0.406602
O18	O	1.527958	0.799957	0.739935
O19	O	1.103327	0.118538	0.073282
O20	O	1.436661	0.451871	0.406616
O21	O	1.769994	0.785205	0.739949
Zn22	Zn	0.982308	0.125914	0.096529
Zn23	Zn	1.315641	0.459247	0.429862
Zn24	Zn	1.648974	0.792580	0.763195
Zn25	Zn	0.982319	0.125916	-0.096435
Zn26	Zn	1.315652	0.459250	0.236898
Zn27	Zn	1.648986	0.792583	0.570232
O28	O	0.975892	0.260166	0.073267
O29	O	1.309225	0.593499	0.406600
O30	O	1.642559	0.926833	0.739934
C31	C	0.830319	0.132693	0.000038
C32	C	1.163653	0.466027	0.333371
C33	C	1.496986	0.799360	0.666705
C34	C	0.738021	0.130902	0.000033
C35	C	1.071354	0.464235	0.333366
C36	C	1.404687	0.797569	0.666699
C37	C	0.988132	-0.042696	0.000055
C38	C	1.321466	0.290638	0.333389
C39	C	1.654799	0.623971	0.666722
C40	C	0.986340	-0.145073	0.000056
C41	C	1.319673	0.188260	0.333389
C42	C	1.653007	0.521594	0.666722
C43	C	0.515887	0.210775	0.000038
C44	C	0.849220	0.544109	0.333371
C45	C	1.182553	0.877442	0.666705
C46	C	0.429163	0.209085	0.000044
C47	C	0.762497	0.542418	0.333377
C48	C	1.095830	0.875752	0.666710
C49	C	0.448747	0.041048	0.000050
C50	C	0.782080	0.374381	0.333384
C51	C	1.115414	0.707715	0.666717
C52	C	0.535468	0.042739	0.000051
C53	C	0.868802	0.376073	0.333384
C54	C	1.202135	0.709406	0.666718
C55	C	0.569036	0.127606	0.000040
C56	C	0.902369	0.460939	0.333374
C57	C	1.235703	0.794273	0.666707
C58	C	0.395591	0.124224	0.000045
C59	C	0.728924	0.457557	0.333379
C60	C	1.062258	0.790891	0.666712
C61	C	0.301562	0.122390	0.000052
C62	C	0.634895	0.455724	0.333385
C63	C	0.968228	0.789057	0.666718
C64	C	0.663071	0.129440	0.000036
C65	C	0.996404	0.462773	0.333369
C66	C	1.329738	0.796107	0.666702
C67	C	0.979741	-0.519955	0.000032
C68	C	1.313075	-0.186622	0.333366
C69	C	1.646408	0.146712	0.666699
C70	C	0.981574	-0.415651	0.000039
C71	C	1.314907	-0.082318	0.333372
C72	C	1.648241	0.251016	0.666706
C73	C	0.983041	-0.332517	0.000045
C74	C	1.316374	0.000816	0.333378
C75	C	1.649707	0.334149	0.666711
C76	C	0.984873	-0.228207	0.000050
C77	C	1.318207	0.105127	0.333383
C78	C	1.651540	0.438460	0.666717
C79	C	1.134307	0.119136	0.000054
C80	C	1.467641	0.452470	0.333387
C81	C	1.800974	0.785803	0.666720
C82	C	1.226606	0.120928	0.000053
C83	C	1.559939	0.454261	0.333386
C84	C	1.893273	0.787595	0.666720
C85	C	0.976494	0.294526	0.000036
C86	C	1.309828	0.627859	0.333370
C87	C	1.643161	0.961192	0.666703
C88	C	0.978287	0.396903	0.000030
C89	C	1.311620	0.730236	0.333364
C90	C	1.644953	1.063570	0.666697
N91	N	0.982306	0.125911	0.228221
N92	N	1.315639	0.459245	0.561555
N93	N	1.648973	0.792578	0.894888
N94	N	0.982327	0.125911	-0.228128
N95	N	1.315660	0.459245	0.105206
N96	N	1.648994	0.792578	0.438539
C97	C	1.038754	0.063219	0.453951
C98	C	1.372087	0.396553	0.787284
C99	C	1.705420	0.729886	1.120618
C100	C	1.038756	0.063217	0.546141
C101	C	1.372090	0.396551	0.879474
C102	C	1.705423	0.729884	1.212807
C103	C	0.925873	0.188606	0.546136
C104	C	1.259207	0.521939	0.879469
C105	C	1.592540	0.855273	1.212803
C106	C	0.925867	0.188603	0.453948
C107	C	1.259201	0.521936	0.787281
C108	C	1.592534	0.855270	1.120615
C109	C	0.982312	0.125911	0.407858
C110	C	1.315646	0.459244	0.741191
C111	C	1.648979	0.792578	1.074525
C112	C	0.982321	0.125912	0.592236
C113	C	1.315654	0.459245	0.925569
C114	C	1.648988	0.792578	1.258902
C115	C	0.982323	0.125910	0.692192
C116	C	1.315657	0.459243	1.025525
C117	C	1.648990	0.792576	1.358858
C118	C	0.982309	0.125911	0.307895
C119	C	1.315642	0.459245	0.641229
C120	C	1.648976	0.792578	0.974562
H121	H	0.543214	0.279879	0.000036
H122	H	0.876547	0.613213	0.333369
H123	H	1.209881	0.946546	0.666703
F124	F	0.865806	0.255327	0.595194
F125	F	1.199139	0.588660	0.928528
F126	F	1.532472	0.921994	1.261861
H127	H	0.879902	0.239654	0.416417
H128	H	1.213235	0.572988	0.749750
H129	H	1.546569	0.906321	1.083083
F130	F	0.413014	-0.049268	0.000058
F131	F	0.746348	0.284065	0.333391
F132	F	1.079681	0.617399	0.666725
H133	H	0.385892	0.276810	0.000044
H134	H	0.719226	0.610143	0.333377
H135	H	1.052559	0.943477	0.666710
F136	F	0.592038	-0.045786	0.000059
F137	F	0.925371	0.287547	0.333393
F138	F	1.258704	0.620881	0.666726
F139	F	1.098826	-0.003506	0.404902
F140	F	1.432159	0.329828	0.738235
F141	F	1.765492	0.663161	1.071569
H142	H	1.084715	0.012167	0.583667
H143	H	1.418048	0.345500	0.917000
H144	H	1.751382	0.678834	1.250334
