data_functionalizedCrystal
_audit_creation_method	'MofGen! by Chris Wilmer'
_symmetry_space_group_name_H-M	'P1'
_symmetry_Int_Tables_number	1
_symmetry_cell_setting	triclinic
loop_
_symmetry_equiv_pos_as_xyz
  x,y,z
_cell_length_a	10.654534
_cell_length_b	10.654550
_cell_length_c	9.730223
_cell_angle_alpha	90.004253
_cell_angle_beta	90.004077
_cell_angle_gamma	84.481667
loop_
_atom_site_label
_atom_site_type_symbol
_atom_site_fract_x
_atom_site_fract_y
_atom_site_fract_z
O1	O	-1.667851	-0.176303	-0.114315
O2	O	-1.302370	-0.193130	-0.114313
O3	O	-1.493513	-0.001977	-0.114305
O4	O	-1.476707	-0.367456	-0.114323
O5	O	-1.493501	-0.001972	0.114274
O6	O	-1.302357	-0.193125	0.114267
O7	O	-1.667838	-0.176298	0.114264
Zn8	Zn	-1.485096	-0.184711	0.150558
Zn9	Zn	-1.485112	-0.184718	-0.150606
O10	O	-1.476695	-0.367451	0.114257
C11	C	-1.255565	-0.191896	-0.000022
C12	C	-1.116121	-0.188212	-0.000021
C13	C	-1.050609	-0.186475	0.124581
C14	C	-0.919589	-0.182993	0.124584
C15	C	-0.919603	-0.182990	-0.124627
C16	C	-1.050622	-0.186464	-0.124628
C17	C	-1.492273	0.044824	-0.000016
C18	C	-1.488581	0.184267	-0.000018
C19	C	-0.714642	-0.177542	-0.000023
C20	C	-0.854082	-0.181257	-0.000016
C21	C	-1.477935	-0.414252	-0.000035
C22	C	-1.481627	-0.553695	-0.000042
N23	N	-1.485094	-0.184705	0.356094
C24	C	-1.601123	0.263759	-0.000020
C25	C	-1.597647	0.394779	-0.000036
C26	C	-1.369076	0.366803	-0.000045
C27	C	-1.372554	0.235785	-0.000038
N28	N	-1.485124	-0.184713	-0.356142
C29	C	-1.569761	-0.100099	0.428023
C30	C	-1.569774	-0.100099	0.571906
C31	C	-1.400447	-0.269324	0.571918
C32	C	-1.400430	-0.269316	0.428038
H33	H	-0.866255	-0.181579	0.226047
H34	H	-1.103935	-0.187899	0.226044
O35	O	-1.661037	-0.008813	0.350415
H36	H	-1.722538	-0.062221	0.284834
H37	H	-1.274610	0.408766	-0.000058
H38	H	-1.695600	0.221817	-0.000007
O39	O	-1.309094	-0.360577	0.350460
H40	H	-1.247587	-0.307127	0.284948
H41	H	-1.280902	0.171059	-0.000041
H42	H	-1.638716	-0.031203	0.630467
O43	O	-0.848965	-0.181112	-0.259026
H44	H	-0.778827	-0.264986	-0.265004
O45	O	-1.121296	-0.188342	-0.259025
H46	H	-1.053739	-0.186562	-0.345673
O47	O	-1.309147	-0.360596	0.649513
H48	H	-1.323393	-0.346400	0.761647
H49	H	-1.689291	0.459497	-0.000041
