data_functionalizedCrystal
_audit_creation_method	'MofGen! by Chris Wilmer'
_symmetry_space_group_name_H-M	'P1'
_symmetry_Int_Tables_number	1
_symmetry_cell_setting	triclinic
loop_
_symmetry_equiv_pos_as_xyz
  x,y,z
_cell_length_a	6.817900
_cell_length_b	13.167930
_cell_length_c	12.200875
_cell_angle_alpha	98.450964
_cell_angle_beta	107.143593
_cell_angle_gamma	105.754568
loop_
_atom_site_label
_atom_site_type_symbol
_atom_site_fract_x
_atom_site_fract_y
_atom_site_fract_z
V1	V	-4.089551	-0.149149	-0.373537
O2	O	-4.054055	0.006916	-0.350116
O3	O	-4.061620	-0.295496	-0.386668
O4	O	-4.058964	-0.146966	-0.529293
O5	O	-4.056729	-0.142643	-0.206505
V6	V	-4.568219	-0.130469	-0.351653
O7	O	-4.361460	-0.190126	-0.421541
O8	O	-4.746507	-0.089493	-0.303649
O9	O	-4.372944	0.015878	-0.338521
O10	O	-4.721113	-0.286534	-0.375073
O11	O	-4.718438	-0.136975	-0.518685
O12	O	-4.375600	-0.132653	-0.195897
C13	C	-3.911023	-0.331169	-0.384823
C14	C	-3.969591	-0.450810	-0.396598
C15	C	-3.970373	-0.644747	-0.205315
C16	C	-4.025400	-0.757160	-0.216373
C17	C	-4.134688	-0.788051	-0.429771
C18	C	-4.079660	-0.675638	-0.418713
C19	C	-3.997500	-0.603990	-0.306481
C20	C	-3.942458	-0.491575	-0.295424
C21	C	-4.051760	-0.522468	-0.508821
C22	C	-4.106787	-0.634880	-0.519879
C23	C	-3.907634	-0.141702	-0.566753
C24	C	-3.964044	-0.140885	-0.694187
C25	C	-4.067283	-0.139390	-0.927503
C26	C	-4.009825	-0.140221	-0.797669
C27	C	-4.186883	0.051545	-0.340364
C28	C	-4.107554	0.171185	-0.328597
C29	C	-4.190272	-0.137920	-0.158431
C30	C	-4.113099	-0.138732	-0.030995
H31	H	-4.201619	-0.846406	-0.521145
C32	C	-4.061261	-0.915763	-0.138571
C33	C	-3.995599	-0.801964	-0.105170
H34	H	-4.042880	-0.943421	-0.069915
H35	H	-3.975289	-0.937018	-0.180166
H36	H	-4.210161	-0.944028	-0.188271
H37	H	-3.846694	-0.773699	-0.055477
H38	H	-4.081570	-0.780699	-0.063556
H39	H	-4.073838	-0.489272	-0.591198
C40	C	-3.840013	-0.472337	-0.085604
C41	C	-3.852176	-0.412817	-0.172063
H42	H	-3.784299	-0.423716	-0.009447
H43	H	-3.746309	-0.513308	-0.090304
H44	H	-3.981197	-0.520343	-0.098418
H45	H	-3.710990	-0.364816	-0.159255
H46	H	-3.945882	-0.371828	-0.167360
C47	C	-4.405177	-0.784398	-0.662067
C48	C	-4.197092	-0.713646	-0.643237
H49	H	-4.460914	-0.833026	-0.738222
H50	H	-4.498853	-0.743410	-0.657369
H51	H	-4.396875	-0.824754	-0.603390
H52	H	-4.205397	-0.673284	-0.701909
H53	H	-4.103395	-0.754638	-0.647946
H54	H	-3.903447	-0.586409	-0.113931
