data_functionalizedCrystal
_audit_creation_method	'MofGen! by Chris Wilmer'
_symmetry_space_group_name_H-M	'P1'
_symmetry_Int_Tables_number	1
_symmetry_cell_setting	triclinic
loop_
_symmetry_equiv_pos_as_xyz
  x,y,z
_cell_length_a	13.262390
_cell_length_b	23.532407
_cell_length_c	12.376457
_cell_angle_alpha	101.199798
_cell_angle_beta	63.168449
_cell_angle_gamma	83.670349
loop_
_atom_site_label
_atom_site_type_symbol
_atom_site_fract_x
_atom_site_fract_y
_atom_site_fract_z
O1	O	1.512267	0.012087	-0.558968
O2	O	1.184918	0.032062	-0.458327
O3	O	1.358459	-0.061156	-0.511660
O4	O	1.338726	0.105304	-0.505635
O5	O	1.315090	-0.037882	-0.310319
O6	O	1.141549	0.055336	-0.256986
O7	O	1.468898	0.035361	-0.357627
Zn8	Zn	1.298337	0.049043	-0.275339
Zn9	Zn	1.355479	0.018379	-0.540614
O10	O	1.295357	0.128578	-0.304294
C11	C	1.121362	0.044719	-0.344783
C12	C	0.996596	0.047754	-0.306424
C13	C	0.739478	0.005552	-0.637317
C14	C	0.856703	0.002698	-0.673360
C15	C	0.891682	0.013962	-0.581629
C16	C	0.809425	0.028081	-0.453849
C17	C	0.692190	0.030931	-0.417804
C18	C	0.844394	0.039340	-0.362115
C19	C	0.762136	0.053459	-0.234335
C20	C	0.644914	0.056309	-0.198296
C21	C	0.609934	0.045045	-0.290027
C22	C	0.961629	0.036490	-0.398161
C23	C	0.914340	0.061868	-0.178647
C24	C	0.797116	0.064723	-0.142605
C25	C	1.336271	-0.070719	-0.410832
C26	C	1.334758	-0.133889	-0.410358
C27	C	1.427992	-0.535839	-0.439084
C28	C	1.426590	-0.595198	-0.438662
O29	O	1.513015	-0.634580	-0.465274
N30	N	1.323417	-0.614681	-0.406941
C31	C	1.221642	-0.574804	-0.375653
O32	O	1.133757	-0.596826	-0.348635
C33	C	1.223047	-0.515447	-0.376085
C34	C	1.326224	-0.495966	-0.407795
C35	C	1.531161	-0.516358	-0.470793
C36	C	1.532562	-0.457003	-0.471213
C37	C	1.430794	-0.417130	-0.439924
C38	C	1.327625	-0.436612	-0.408215
C39	C	1.121276	-0.475572	-0.344806
C40	C	1.122690	-0.416212	-0.345241
C41	C	1.225867	-0.396732	-0.376951
C42	C	1.227259	-0.337384	-0.377346
N43	N	1.330432	-0.317901	-0.409067
C44	C	1.432200	-0.357774	-0.440356
C45	C	1.218699	-0.699457	-0.374751
C46	C	1.217291	-0.758811	-0.374311
C47	C	1.422240	-0.779202	-0.437322
C48	C	1.423645	-0.719845	-0.437753
C49	C	1.321872	-0.679974	-0.406472
C50	C	1.435134	-0.233124	-0.441235
C51	C	1.436525	-0.173762	-0.441647
C52	C	1.231579	-0.153377	-0.378643
C53	C	1.230185	-0.212733	-0.378224
C54	C	1.331973	-0.252606	-0.409527
O55	O	1.140880	-0.297969	-0.350752
O56	O	1.520074	-0.335744	-0.467386
C57	C	1.532455	0.022702	-0.471174
C58	C	1.657222	0.019667	-0.509541
C59	C	1.317546	0.138141	-0.405125
C60	C	1.319061	0.201310	-0.405607
N61	N	1.259348	0.069970	-0.094299
N62	N	1.394477	-0.002553	-0.721658
C63	C	1.484983	-0.051143	0.191343
C64	C	1.512265	-0.065790	0.064619
C65	C	1.449038	-0.031851	0.024883
C66	C	1.358525	0.016737	0.111884
C67	C	1.331245	0.031388	0.238619
C68	C	1.295300	0.050680	0.072159
C69	C	1.204787	0.099268	0.159160
C70	C	1.177512	0.113917	0.285882
C71	C	1.240739	0.079978	0.325618
C72	C	1.322580	0.036029	-0.054576
C73	C	1.168842	0.118560	-0.007300
C74	C	1.141560	0.133207	0.119424
H75	H	0.942819	0.071040	-0.103952
H76	H	1.471255	-0.043779	-0.078303
C77	C	1.108235	-0.656081	-0.340605
C78	C	1.080752	-0.609434	-0.235443
C79	C	0.979011	-0.569464	-0.203965
H80	H	1.046487	-0.676107	-0.321562
H81	H	1.119621	-0.640574	-0.409633
H82	H	1.069359	-0.624939	-0.166430
H83	H	1.142471	-0.589391	-0.254458
H84	H	0.990397	-0.553958	-0.272993
H85	H	0.917273	-0.589496	-0.184927
H86	H	0.960357	-0.537807	-0.132618
C87	C	1.420687	-0.016818	-0.148870
C88	C	1.396379	-0.068614	-0.112550
C89	C	1.486720	-0.117320	-0.199370
H90	H	1.491219	-0.010797	-0.151209
H91	H	1.427912	-0.020748	-0.230066
H92	H	1.389167	-0.064684	-0.031376
H93	H	1.325863	-0.074654	-0.110219
H94	H	1.493945	-0.121250	-0.280566
H95	H	1.557246	-0.111293	-0.201703
H96	H	1.470235	-0.152470	-0.174746
C97	C	1.644461	-0.435739	-0.505568
C98	C	1.623927	-0.375219	-0.499226
C99	C	1.726985	-0.355615	-0.530858
H100	H	1.701530	-0.457710	-0.588662
H101	H	1.671222	-0.441513	-0.448211
H102	H	1.597183	-0.369450	-0.556581
H103	H	1.566877	-0.353234	-0.416142
H104	H	1.753745	-0.361389	-0.473501
H105	H	1.784045	-0.377590	-0.613951
H106	H	1.713064	-0.314549	-0.526548
H107	H	1.520547	-0.157905	-0.467467
H108	H	0.987133	0.011638	-0.610983
C109	C	0.555453	0.071710	-0.059606
C110	C	0.473556	0.123479	-0.028462
C111	C	0.391120	0.137677	0.099282
H112	H	0.592906	0.078054	-0.009985
H113	H	0.517617	0.039879	-0.043705
H114	H	0.511388	0.155303	-0.044351
H115	H	0.436074	0.117149	-0.078050
H116	H	0.353283	0.105846	0.115183
H117	H	0.428583	0.144018	0.148891
H118	H	0.335537	0.172800	0.120427
C119	C	1.100087	0.155502	-0.050191
C120	C	1.015009	0.201201	0.053114
C121	C	0.951670	0.235247	0.013638
H122	H	1.064063	0.130909	-0.085269
H123	H	1.150862	0.172201	-0.111958
H124	H	0.964242	0.184503	0.114860
H125	H	1.051001	0.225809	0.088204
H126	H	1.002444	0.251946	-0.048129
H127	H	0.915653	0.210648	-0.021440
H128	H	0.893944	0.266261	0.083721
C129	C	0.707784	0.079925	-0.003904
C130	C	0.652313	0.032893	0.019161
C131	C	0.570025	0.046871	0.146918
H132	H	0.652024	0.115026	0.017597
H133	H	0.745362	0.086199	0.045615
H134	H	0.614735	0.026626	-0.030342
H135	H	0.708043	-0.002214	-0.002311
H136	H	0.607603	0.053146	0.196438
H137	H	0.514273	0.081974	0.168407
H138	H	0.532385	0.014961	0.162586
H139	H	1.518021	-0.265583	-0.466729
C140	C	1.211336	0.095806	0.463143
C141	C	1.286097	0.055690	0.479308
C142	C	1.259060	0.070256	0.605974
H143	H	1.133451	0.093691	0.514019
H144	H	1.220190	0.135016	0.487220
H145	H	1.277233	0.016491	0.455246
H146	H	1.363987	0.057799	0.428461
H147	H	1.267913	0.109466	0.630051
H148	H	1.181174	0.068141	0.656839
H149	H	1.309787	0.043043	0.616956
C150	C	1.532845	-0.822404	-0.471282
C151	C	1.623504	-0.792641	-0.499124
C152	C	1.725399	-0.832418	-0.530394
H153	H	1.551827	-0.854108	-0.542666
H154	H	1.521487	-0.837864	-0.402205
H155	H	1.634862	-0.777190	-0.568195
H156	H	1.604560	-0.760940	-0.427757
H157	H	1.714041	-0.847879	-0.461317
H158	H	1.744370	-0.864121	-0.601776
H159	H	1.786920	-0.812229	-0.549278
C160	C	1.012232	-0.372838	-0.311111
C161	C	0.984742	-0.326191	-0.205944
C162	C	0.883006	-0.286221	-0.174476
H163	H	0.950484	-0.392864	-0.292076
H164	H	1.023627	-0.357330	-0.380140
H165	H	0.973340	-0.341698	-0.136930
H166	H	1.046461	-0.306150	-0.224950
H167	H	0.894401	-0.270714	-0.243505
H168	H	0.821267	-0.306252	-0.155447
H169	H	0.864347	-0.254564	-0.103125
C170	C	1.553590	-0.088094	0.234359
C171	C	1.542644	-0.147040	0.208945
C172	C	1.605842	-0.181101	0.248542
H173	H	1.524451	-0.072487	0.322287
H174	H	1.633038	-0.086828	0.190507
H175	H	1.463213	-0.148303	0.252799
H176	H	1.571790	-0.162665	0.121025
H177	H	1.685289	-0.179835	0.204690
H178	H	1.576697	-0.165489	0.336468
H179	H	1.598432	-0.221101	0.231294
H180	H	0.923669	-0.008800	-0.777398
C181	C	1.610136	-0.118740	-0.029640
C182	C	1.565965	-0.159979	-0.083741
C183	C	1.655986	-0.208835	-0.170461
H184	H	1.643704	-0.136887	0.012274
H185	H	1.667594	-0.105758	-0.093701
H186	H	1.508528	-0.172960	-0.019690
H187	H	1.532406	-0.141850	-0.125679
H188	H	1.713443	-0.195854	-0.234522
H189	H	1.689547	-0.226978	-0.128536
H190	H	1.626030	-0.236820	-0.207187
H191	H	1.148721	-0.120902	-0.353164
C192	C	1.641769	-0.559545	-0.504737
C193	C	1.732400	-0.529763	-0.532564
C194	C	1.834310	-0.569520	-0.563814
H195	H	1.660779	-0.591254	-0.576123
H196	H	1.630415	-0.575000	-0.435655
H197	H	1.743754	-0.514317	-0.601640
H198	H	1.713429	-0.498056	-0.461196
H199	H	1.822956	-0.584975	-0.494731
H200	H	1.853308	-0.601228	-0.635197
H201	H	1.895812	-0.549318	-0.582687
C202	C	1.535627	-0.698639	-0.472358
C203	C	1.564724	-0.677116	-0.578017
C204	C	1.667870	-0.657572	-0.609925
H205	H	1.596139	-0.730842	-0.491019
H206	H	1.525335	-0.667768	-0.403667
H207	H	1.575023	-0.707984	-0.646693
H208	H	1.504240	-0.644907	-0.559385
H209	H	1.657579	-0.626701	-0.541235
H210	H	1.728374	-0.689779	-0.628580
H211	H	1.687621	-0.642962	-0.681610
H212	H	1.133270	-0.774664	-0.348468
H213	H	1.037260	-0.491423	-0.318991
C214	C	1.118064	-0.233780	-0.343819
C215	C	1.029247	-0.186156	-0.316535
C216	C	0.925951	-0.205521	-0.284869
H217	H	1.097970	-0.248395	-0.272108
H218	H	1.128333	-0.264602	-0.412576
H219	H	1.018977	-0.155344	-0.247785
H220	H	1.049303	-0.171535	-0.388230
H221	H	0.936220	-0.236343	-0.353626
H222	H	0.905868	-0.220136	-0.213160
H223	H	0.865679	-0.173213	-0.266364
C224	C	1.079171	0.166678	0.380160
C225	C	1.029617	0.193256	0.318250
C226	C	0.939014	0.241856	0.405058
H227	H	1.108566	0.194830	0.417275
H228	H	1.021915	0.153459	0.443921
H229	H	1.086862	0.206476	0.254511
H230	H	1.000198	0.165120	0.281140
H231	H	0.881758	0.228637	0.468819
H232	H	0.968420	0.270004	0.442168
H233	H	0.905374	0.259893	0.363066
H234	H	1.067862	0.172769	0.190276
H235	H	0.710986	-0.003623	-0.711991
H236	H	1.028592	0.024996	-0.502200
H237	H	0.514482	0.047370	-0.260687
