data_functionalizedCrystal
_audit_creation_method	'MofGen! by Chris Wilmer'
_symmetry_space_group_name_H-M	'P1'
_symmetry_Int_Tables_number	1
_symmetry_cell_setting	triclinic
loop_
_symmetry_equiv_pos_as_xyz
  x,y,z
_cell_length_a	14.519731
_cell_length_b	14.044190
_cell_length_c	12.996460
_cell_angle_alpha	89.989157
_cell_angle_beta	89.994327
_cell_angle_gamma	88.440315
loop_
_atom_site_label
_atom_site_type_symbol
_atom_site_fract_x
_atom_site_fract_y
_atom_site_fract_z
O1	O	1.233891	0.124370	-0.085581
O2	O	0.966596	0.138984	-0.085584
O3	O	1.096228	-0.006315	-0.085562
O4	O	1.104259	0.269669	-0.085603
O5	O	1.096213	-0.006323	0.085571
O6	O	0.966581	0.138975	0.085550
O7	O	1.233876	0.124362	0.085553
Cu8	Cu	1.100227	0.131668	0.101177
Cu9	Cu	1.100245	0.131677	-0.101209
O10	O	1.104244	0.269661	0.085531
C11	C	0.932174	0.138295	-0.000017
C12	C	0.829628	0.136243	-0.000018
C13	C	0.746349	0.134576	-0.000021
C14	C	0.641872	0.132492	-0.000022
C15	C	0.558600	0.130839	-0.000021
C16	C	0.454117	0.128756	-0.000023
C17	C	1.092707	-0.041640	0.000007
C18	C	1.082228	-0.146884	0.000016
C19	C	1.137393	-0.397073	-0.000023
C20	C	1.063083	-0.339576	-0.000017
C21	C	1.073738	-0.232353	0.000001
C22	C	1.126740	-0.504306	-0.000042
C23	C	1.268298	0.125051	-0.000016
C24	C	1.370844	0.127102	-0.000023
C25	C	1.107765	0.304985	-0.000041
C26	C	1.118244	0.410230	-0.000057
N27	N	1.100221	0.131661	0.243524
N28	N	1.100258	0.131677	-0.243556
C29	C	1.100244	0.131678	0.663338
C30	C	1.100235	0.131677	0.546533
C31	C	1.100233	0.131670	0.453435
C32	C	1.100223	0.131667	0.336622
H33	H	0.991463	-0.370878	-0.000024
Cl34	Cl	1.247963	-0.348747	-0.000006
