data_functionalizedCrystal
_audit_creation_method	'MofGen! by Chris Wilmer'
_symmetry_space_group_name_H-M	'P1'
_symmetry_Int_Tables_number	1
_symmetry_cell_setting	triclinic
loop_
_symmetry_equiv_pos_as_xyz
  x,y,z
_cell_length_a	17.699083
_cell_length_b	16.176319
_cell_length_c	17.699083
_cell_angle_alpha	90.007696
_cell_angle_beta	83.283015
_cell_angle_gamma	90.001389
loop_
_atom_site_label
_atom_site_type_symbol
_atom_site_fract_x
_atom_site_fract_y
_atom_site_fract_z
O1	O	-1.004079	-0.068632	-0.095713
O2	O	-0.504079	0.431368	0.404287
O3	O	-0.783700	-0.068660	-0.108166
O4	O	-0.283700	0.431340	0.391834
O5	O	-0.900116	-0.068638	0.008250
O6	O	-0.400116	0.431362	0.508250
O7	O	-0.887663	-0.068654	-0.212129
O8	O	-0.387663	0.431346	0.287871
O9	O	-0.900100	0.068855	0.008257
O10	O	-0.400100	0.568855	0.508257
O11	O	-0.783684	0.068834	-0.108158
O12	O	-0.283684	0.568834	0.391842
O13	O	-1.004063	0.068861	-0.095706
O14	O	-0.504063	0.568861	0.404294
Cu15	Cu	-0.893872	0.081401	-0.101931
Cu16	Cu	-0.393872	0.581401	0.398069
Cu17	Cu	-0.893891	-0.081200	-0.101940
Cu18	Cu	-0.393891	0.418800	0.398060
O19	O	-0.887647	0.068839	-0.212121
O20	O	-0.387647	0.568839	0.287879
C21	C	-0.755495	0.000084	-0.107716
C22	C	-0.255495	0.500084	0.392284
C23	C	-0.671477	0.000073	-0.106377
C24	C	-0.171477	0.500073	0.393623
N25	N	-0.893864	0.195767	-0.101925
N26	N	-0.393864	0.695767	0.398075
N27	N	-0.893905	-0.195565	-0.101941
N28	N	-0.393905	0.304435	0.398059
C29	C	-1.032268	0.000116	-0.096156
C30	C	-0.532268	0.500116	0.403844
C31	C	-1.116286	0.000121	-0.097494
C32	C	-0.616286	0.500121	0.402506
C33	C	-0.622856	0.000069	-0.174710
C34	C	-0.122856	0.500069	0.325290
C35	C	-0.543913	0.000079	-0.173448
C36	C	-0.043913	0.500079	0.326552
C37	C	-0.513592	0.000089	-0.103852
C38	C	-0.013592	0.500089	0.396148
C39	C	-0.562219	0.000096	-0.035513
C40	C	-0.062219	0.500096	0.464487
C41	C	-0.641161	0.000091	-0.036776
C42	C	-0.141161	0.500091	0.463224
C43	C	-0.243856	0.000117	-0.030418
C44	C	0.256144	0.500117	0.469582
C45	C	-0.164908	0.000120	-0.029160
C46	C	0.335092	0.500120	0.470840
C47	C	-0.146608	0.000105	-0.167090
C48	C	0.353392	0.500105	0.332910
C49	C	-0.225550	0.000100	-0.168353
C50	C	0.274450	0.500100	0.331647
C51	C	-0.274170	0.000112	-0.100015
C52	C	0.225830	0.500112	0.399985
C53	C	-0.359769	0.000102	-0.101384
C54	C	0.140231	0.500102	0.398616
C55	C	-0.427995	0.000093	-0.102481
C56	C	0.072005	0.500093	0.397519
C57	C	-0.899662	0.000109	0.036451
C58	C	-0.399662	0.500109	0.536451
C59	C	-0.898323	0.000109	0.120469
C60	C	-0.398323	0.500109	0.620469
C61	C	-0.945429	0.239040	-0.050397
C62	C	-0.445429	0.739040	0.449603
C63	C	-0.945432	0.325588	-0.050396
C64	C	-0.445432	0.825588	0.449604
C65	C	-0.893875	0.368859	-0.101927
C66	C	-0.393875	0.868859	0.398073
C67	C	-0.842305	0.325579	-0.153457
C68	C	-0.342305	0.825579	0.346543
C69	C	-0.842299	0.239034	-0.153454
C70	C	-0.342299	0.739034	0.346546
C71	C	-0.842331	0.674608	-0.153472
C72	C	-0.342331	1.174608	0.346528
C73	C	-0.842344	0.761159	-0.153473
C74	C	-0.342344	1.261159	0.346527
C75	C	-0.945465	0.761161	-0.050414
C76	C	-0.445465	1.261161	0.449586
C77	C	-0.945458	0.674616	-0.050410
C78	C	-0.445458	1.174616	0.449590
C79	C	-0.893886	0.631344	-0.101937
C80	C	-0.393886	1.131344	0.398063
C81	C	-0.893882	0.537499	-0.101937
C82	C	-0.393882	1.037499	0.398063
C83	C	-0.893883	0.462702	-0.101932
C84	C	-0.393883	0.962702	0.398068
C85	C	-0.888102	0.000091	-0.240322
C86	C	-0.388102	0.500091	0.259678
C87	C	-0.889440	0.000085	-0.324340
C88	C	-0.389440	0.500085	0.175660
C89	C	-0.966656	0.000119	0.169090
C90	C	-0.466656	0.500119	0.669090
C91	C	-0.965394	0.000111	0.248033
C92	C	-0.465394	0.500111	0.748033
C93	C	-0.895798	0.000100	0.278354
C94	C	-0.395798	0.500100	0.778354
C95	C	-0.827459	0.000088	0.229727
C96	C	-0.327459	0.500088	0.729727
C97	C	-0.828722	0.000089	0.150785
C98	C	-0.328722	0.500089	0.650785
C99	C	-0.822364	0.000080	0.548090
C100	C	-0.322364	0.500080	1.048090
C101	C	-0.821106	0.000081	0.627038
C102	C	-0.321106	0.500081	1.127038
C103	C	-0.959036	0.000102	0.645338
C104	C	-0.459036	0.500102	1.145338
C105	C	-0.960299	0.000104	0.566396
C106	C	-0.460299	0.500104	1.066396
C107	C	-0.891961	0.000087	0.517776
C108	C	-0.391961	0.500087	1.017776
C109	C	-0.893330	0.000094	0.432177
C110	C	-0.393330	0.500094	0.932177
C111	C	-0.894427	0.000099	0.363951
C112	C	-0.394427	0.500099	0.863951
H113	H	-0.647537	0.000060	-0.231384
H114	H	-0.147537	0.500060	0.268616
Br115	Br	-0.733005	0.000059	0.270875
Br116	Br	-0.233005	0.500059	0.770875
Br117	Br	-0.772369	0.819886	-0.223413
Br118	Br	-0.272369	1.319886	0.276587
H119	H	-0.504328	0.000075	-0.229092
H120	H	-0.004328	0.500075	0.270908
Br121	Br	-0.266696	0.000079	-0.262808
Br122	Br	0.233304	0.500079	0.237192
Br123	Br	-1.015409	0.180324	0.019537
Br124	Br	-0.515409	0.680324	0.519537
H125	H	-0.800309	0.203801	-0.195412
H126	H	-0.300309	0.703801	0.304588
Br127	Br	-1.061114	0.000146	0.127948
Br128	Br	-0.561114	0.500146	0.627948
Br129	Br	-1.015411	0.384319	0.019538
Br130	Br	-0.515411	0.884319	0.519538
H131	H	-0.800341	0.639382	-0.195428
H132	H	-0.300341	1.139382	0.304572
Br133	Br	-1.015435	0.615892	0.019522
Br134	Br	-0.515435	1.115892	0.519522
H135	H	-0.987456	0.796403	-0.008455
H136	H	-0.487456	1.296403	0.491545
Br137	Br	-1.058137	0.000124	0.314016
Br138	Br	-0.558137	0.500124	0.814016
Br139	Br	-0.729619	0.000053	0.482115
Br140	Br	-0.229619	0.500053	0.982115
H141	H	-0.107012	0.000100	-0.222734
H142	H	0.392988	0.500100	0.277266
Br143	Br	-1.054754	0.000118	0.525250
Br144	Br	-0.554754	0.500118	1.025250
H145	H	-0.764429	0.000074	0.651721
H146	H	-0.264429	0.500074	1.151721
Br147	Br	-1.051783	0.000124	0.711327
Br148	Br	-0.551783	0.500124	1.211327
Br149	Br	-0.772327	0.384302	-0.223389
Br150	Br	-0.272327	0.884302	0.276611
H151	H	-0.773078	0.000081	0.111198
H152	H	-0.273078	0.500081	0.611198
H153	H	-0.140225	0.000128	0.027517
H154	H	0.359775	0.500128	0.527517
H155	H	-0.283434	0.000127	0.025228
H156	H	0.216566	0.500127	0.525228
Br157	Br	-0.707148	0.000105	0.055966
Br158	Br	-0.207148	0.500105	0.555966
Br159	Br	-0.521071	0.000118	0.058941
Br160	Br	-0.021071	0.500118	0.558941
