data_functionalizedCrystal
_audit_creation_method	'MofGen! by Chris Wilmer'
_symmetry_space_group_name_H-M	'P1'
_symmetry_Int_Tables_number	1
_symmetry_cell_setting	triclinic
loop_
_symmetry_equiv_pos_as_xyz
  x,y,z
_cell_length_a	11.026660
_cell_length_b	11.792254
_cell_length_c	10.065875
_cell_angle_alpha	98.849918
_cell_angle_beta	79.302288
_cell_angle_gamma	96.391716
loop_
_atom_site_label
_atom_site_type_symbol
_atom_site_fract_x
_atom_site_fract_y
_atom_site_fract_z
O1	O	1.630979	0.462821	-0.113508
O2	O	1.277316	0.408633	-0.113508
O3	O	1.462720	0.272261	-0.113499
O4	O	1.445574	0.599193	-0.113518
O5	O	1.427367	0.298399	0.113488
O6	O	1.241962	0.434770	0.113479
O7	O	1.595626	0.488959	0.113478
Zn8	Zn	1.413181	0.466015	0.149518
Zn9	Zn	1.459760	0.431577	-0.149547
O10	O	1.410221	0.625331	0.113469
C11	C	1.214362	0.411705	-0.000015
C12	C	1.079451	0.381903	-0.000014
C13	C	1.443963	0.242825	-0.000006
C14	C	1.440730	0.116169	-0.000007
C15	C	0.866754	0.433399	-0.000021
C16	C	1.006191	0.464203	-0.000020
C17	C	1.438104	0.013311	-0.000012
C18	C	1.434821	-0.115730	-0.000024
C19	C	1.658580	0.485887	-0.000018
C20	C	1.793492	0.515687	-0.000027
C21	C	1.428978	0.654767	-0.000027
C22	C	1.432213	0.781421	-0.000035
N23	N	1.381400	0.489519	0.353622
N24	N	1.491550	0.408066	-0.353651
C25	C	1.448695	0.439746	0.421404
C26	C	1.424246	0.457846	0.578570
H27	H	0.826244	0.340147	0.000004
Cl28	Cl	1.565320	0.352955	0.331369
H29	H	1.046691	0.557464	-0.000017
H30	H	1.038966	0.288632	-0.000099
Cl31	Cl	1.307334	0.544323	0.668600
Cl32	Cl	0.856018	0.659671	-0.000024
Cl33	Cl	1.608718	0.321876	0.556322
Cl34	Cl	1.264493	0.575992	0.443657
