data_functionalizedCrystal
_audit_creation_method	'MofGen! by Chris Wilmer'
_symmetry_space_group_name_H-M	'P1'
_symmetry_Int_Tables_number	1
_symmetry_cell_setting	triclinic
loop_
_symmetry_equiv_pos_as_xyz
  x,y,z
_cell_length_a	18.426585
_cell_length_b	14.628931
_cell_length_c	14.628931
_cell_angle_alpha	59.999807
_cell_angle_beta	89.999756
_cell_angle_gamma	60.001356
loop_
_atom_site_label
_atom_site_type_symbol
_atom_site_fract_x
_atom_site_fract_y
_atom_site_fract_z
Zr1	Zr	0.699112	1.000616	-0.119985
O2	O	0.583235	1.191316	-0.265942
O3	O	0.734634	0.809912	-0.075241
O4	O	0.734634	1.000618	-0.265947
O5	O	0.583236	1.000609	0.075196
O6	O	0.854060	1.000625	-0.265951
O7	O	0.583235	1.000610	-0.075236
O8	O	0.854060	0.659486	0.075188
O9	O	0.583236	1.341748	-0.265943
O10	O	0.838910	0.888358	-0.056161
O11	O	0.749784	0.888353	0.056108
O12	O	0.749784	1.112885	-0.168424
O13	O	0.660658	1.112880	-0.056156
Zr14	Zr	0.889582	1.000626	0.119931
Zr15	Zr	0.889582	1.000626	-0.119991
Zr16	Zr	0.699112	1.000615	0.119937
Zr17	Zr	0.699112	1.240538	-0.119985
Zr18	Zr	0.889582	0.760704	0.119931
O19	O	0.854060	1.191329	0.075187
O20	O	0.854060	1.191330	-0.265951
O21	O	0.583236	1.191315	0.075196
O22	O	1.005459	0.809926	0.265889
O23	O	1.005458	0.809927	-0.075249
O24	O	0.734634	0.809911	0.265897
O25	O	1.005459	1.000632	-0.075250
O26	O	0.854060	1.000623	0.265893
O27	O	0.734634	1.000617	0.265897
O28	O	1.005459	1.000632	0.075182
O29	O	0.734634	1.341756	-0.265947
O30	O	0.854060	0.659486	0.265894
O31	O	1.005459	0.659494	0.265889
O32	O	1.005458	0.659494	0.075183
O33	O	0.583236	1.341747	-0.075237
O34	O	0.734634	1.341755	-0.075242
O35	O	0.838910	0.888357	0.168371
O36	O	0.928036	0.888362	0.056102
O37	O	0.838910	1.112889	-0.056161
O38	O	0.749784	1.112884	0.056107
C39	C	0.794347	0.700516	-0.000026
C40	C	0.794347	0.598663	-0.000026
C41	C	0.838559	0.553256	-0.055719
C42	C	0.838560	0.447986	-0.055720
C43	C	0.556098	1.000608	-0.000019
C44	C	0.475238	1.000604	-0.000017
C45	C	0.179123	1.000643	-0.000036
C46	C	0.261509	1.000637	-0.000034
C47	C	0.327178	1.000623	-0.000027
C48	C	0.409569	1.000618	-0.000023
C49	C	1.032597	1.000634	-0.000035
C50	C	1.113456	1.000638	-0.000037
C51	C	0.794347	1.000622	-0.300133
C52	C	0.794347	1.000622	-0.401986
C53	C	0.794347	1.300726	-0.000027
C54	C	0.794348	1.402579	-0.000027
C55	C	0.838559	0.889242	-0.391705
C56	C	0.838560	0.889239	-0.496974
C57	C	0.794347	1.000620	0.300079
C58	C	0.794348	1.000620	0.401932
C59	C	1.032596	0.700528	-0.000034
C60	C	1.113456	0.598680	-0.000037
C61	C	0.794347	0.700515	0.300079
C62	C	0.794347	0.598661	0.401932
C63	C	1.032597	0.700527	0.300072
C64	C	1.113456	0.598679	0.401922
C65	C	0.556098	1.300714	-0.300125
C66	C	0.475238	1.402563	-0.401976
C67	C	0.556098	1.300713	-0.000020
C68	C	0.475238	1.402562	-0.000017
C69	C	0.794347	1.300727	-0.300133
C70	C	0.794347	1.402580	-0.401986
C71	C	1.104905	0.550848	-0.058648
C72	C	1.180874	0.455164	-0.058673
C73	C	1.265393	0.407306	-0.000079
C74	C	1.273942	0.455147	0.058534
C75	C	1.197974	0.550836	0.058552
C76	C	1.197960	0.550852	0.391149
C77	C	1.273943	0.455167	0.486840
C78	C	1.265422	0.407305	0.593302
C79	C	1.180909	0.455141	0.604073
C80	C	1.104928	0.550830	0.508383
C81	C	0.390734	1.450402	-0.391203
C82	C	0.314751	1.546116	-0.486893
C83	C	0.323273	1.593984	-0.593356
C84	C	0.407785	1.546141	-0.604126
C85	C	0.483767	1.450435	-0.508437
C86	C	0.483789	1.450404	0.058584
C87	C	0.407820	1.546114	0.058582
C88	C	0.323301	1.593975	-0.000015
C89	C	0.314753	1.546130	-0.058623
C90	C	0.390721	1.450427	-0.058628
C91	C	0.838560	0.553254	0.503032
C92	C	0.838561	0.447984	0.608304
H93	H	0.876415	0.592309	-0.103395
H94	H	0.756492	0.559606	0.393313
H95	H	0.756489	0.441627	0.047650
H96	H	0.876415	0.793883	-0.488347
H97	H	0.383779	1.411433	-0.304525
H98	H	0.756497	1.095981	-0.606704
H99	H	0.414798	1.585054	0.106313
H100	H	0.756490	1.095977	-0.488721
H101	H	1.173896	0.416223	-0.106402
H102	H	1.036093	0.589813	-0.106376
H103	H	0.383746	1.411477	-0.106345
H104	H	1.327244	0.329389	-0.000101
H105	H	0.876408	0.408943	-0.103406
H106	H	0.876407	0.592319	0.511651
H107	H	0.552571	1.411486	-0.517222
H108	H	0.756498	0.559600	0.047656
H109	H	1.342750	0.416229	0.478050
H110	H	1.204915	0.589808	0.304471
H111	H	1.342767	0.416167	0.106239
H112	H	1.173984	0.416157	0.690767
H113	H	1.204948	0.589768	0.106287
H114	H	1.327298	0.329388	0.671209
H115	H	1.036124	0.589758	0.517171
H116	H	0.414713	1.585128	-0.690819
H117	H	0.876407	0.793887	-0.304969
H118	H	0.876414	0.408933	0.695033
H119	H	0.245945	1.585053	-0.478102
H120	H	0.261396	1.671913	-0.671263
H121	H	0.552601	1.411442	0.106308
H122	H	0.261450	1.671902	-0.000002
H123	H	0.245927	1.585113	-0.106332
H124	H	0.756499	0.441615	0.511292
