data_functionalizedCrystal
_audit_creation_method	'MofGen! by Chris Wilmer'
_symmetry_space_group_name_H-M	'P1'
_symmetry_Int_Tables_number	1
_symmetry_cell_setting	triclinic
loop_
_symmetry_equiv_pos_as_xyz
  x,y,z
_cell_length_a	19.121102
_cell_length_b	19.121063
_cell_length_c	12.759387
_cell_angle_alpha	92.402374
_cell_angle_beta	87.539768
_cell_angle_gamma	90.126902
loop_
_atom_site_label
_atom_site_type_symbol
_atom_site_fract_x
_atom_site_fract_y
_atom_site_fract_z
Zn1	Zn	1.059866	-0.324848	-0.682296
Zn2	Zn	1.054768	-0.442100	-0.513752
Zn3	Zn	0.942624	-0.319877	-0.498836
Zn4	Zn	0.937591	-0.437039	-0.681593
O5	O	0.998712	-0.380966	-0.594119
O6	O	1.157295	-0.344601	-0.666475
O7	O	1.039865	-0.425925	-0.364753
O8	O	0.962417	-0.222433	-0.517225
O9	O	1.153550	-0.430745	-0.542646
O10	O	1.048554	-0.226086	-0.652012
O11	O	0.957473	-0.336128	-0.353795
O12	O	0.843851	-0.331220	-0.516543
O13	O	0.953838	-0.422119	-0.828707
O14	O	0.840154	-0.417298	-0.650813
O15	O	1.043673	-0.339693	-0.829223
O16	O	1.034985	-0.539532	-0.541964
O17	O	0.948895	-0.535813	-0.665276
C18	C	0.816565	-0.373171	-0.581984
C19	C	0.738641	-0.369853	-0.576818
C20	C	0.990860	-0.563110	-0.605187
C21	C	0.987564	-0.641035	-0.609961
C22	C	0.700122	-0.413178	-0.644198
C23	C	0.626904	-0.410051	-0.639348
C24	C	0.592206	-0.363602	-0.567114
C25	C	0.630730	-0.320272	-0.499732
C26	C	0.703947	-0.323396	-0.504587
C27	C	0.371235	-0.351921	-0.548968
C28	C	0.298014	-0.348802	-0.544116
C29	C	0.294192	-0.438581	-0.683734
C30	C	0.367410	-0.441703	-0.688578
C31	C	0.405928	-0.398371	-0.621200
C32	C	0.517366	-0.360406	-0.562154
C33	C	0.480767	-0.401563	-0.626166
C34	C	1.030873	-0.679559	-0.548060
C35	C	1.027778	-0.752777	-0.552556
C36	C	0.981370	-0.787471	-0.618949
C37	C	0.938059	-0.748942	-0.680857
C38	C	0.941158	-0.675725	-0.676366
C39	C	0.969771	-1.008444	-0.635725
C40	C	0.966674	-1.081666	-0.640210
C41	C	1.056394	-1.085496	-0.511910
C42	C	1.059486	-1.012277	-0.507419
C43	C	1.016178	-0.973755	-0.569332
C44	C	0.978203	-0.862312	-0.623544
C45	C	1.019349	-0.898915	-0.564741
C46	C	1.181571	-0.388792	-0.606303
C47	C	1.259495	-0.392127	-0.611495
C48	C	0.998763	-0.380896	-0.868152
C49	C	0.998785	-0.380866	-0.984928
C50	C	1.006615	-0.198111	-0.583033
C51	C	1.009983	-0.120190	-0.578309
C52	C	0.912996	-0.287354	-0.973536
C53	C	0.870116	-0.240585	-1.022701
C54	C	0.870138	-0.240561	-1.132422
C55	C	0.913044	-0.287312	-1.192982
C56	C	0.955924	-0.334081	-1.143817
C57	C	0.955899	-0.334099	-1.034093
C58	C	1.041708	-0.427595	-1.155209
C59	C	1.041691	-0.427617	-1.045488
C60	C	1.084614	-0.474346	-1.215769
C61	C	1.127500	-0.521113	-1.166605
C62	C	1.127476	-0.521135	-1.056876
C63	C	1.084571	-0.474386	-0.996323
C64	C	0.998705	-0.380987	-0.321153
C65	C	0.998827	-0.380826	-0.204374
H66	H	0.728367	-0.451004	-0.703015
Br67	Br	0.423501	-0.293109	-0.457531
Br68	Br	0.527858	-0.464598	-0.724198
Br69	Br	1.093852	-0.632481	-0.457941
Br70	Br	0.241915	-0.497388	-0.775167
H71	H	0.602474	-0.282449	-0.440922
Br72	Br	0.912975	-0.287373	-0.824627
H73	H	0.395656	-0.479529	-0.747396
H74	H	1.162397	-0.559218	-1.016853
Br75	Br	1.084541	-0.474408	-0.847413
H76	H	0.905893	-0.644359	-0.726773
Br77	Br	1.122480	-0.965199	-0.417326
Br78	Br	0.250924	-0.285768	-0.446066
H79	H	1.091654	-1.116869	-0.461506
H80	H	0.735308	-0.288112	-0.449725
H81	H	0.595545	-0.445332	-0.694215
Br82	Br	0.903676	-1.128750	-0.730302
Br83	Br	0.910996	-0.956173	-0.719750
H84	H	0.900276	-0.777195	-0.734920
H85	H	0.835181	-0.202523	-0.973381
Br86	Br	1.086561	-0.805057	-0.468550
H87	H	0.489107	-0.322589	-0.503338
H88	H	1.057137	-0.870666	-0.510688
H89	H	0.940416	-0.890568	-0.677599
H90	H	0.835219	-0.202478	-1.172452
Br91	Br	0.913057	-0.287292	-1.341891
Br92	Br	1.084635	-0.474322	-1.364678
Br93	Br	1.185715	-0.584560	-1.248795
