data_functionalizedCrystal
_audit_creation_method	'MofGen! by Chris Wilmer'
_symmetry_space_group_name_H-M	'P1'
_symmetry_Int_Tables_number	1
_symmetry_cell_setting	triclinic
loop_
_symmetry_equiv_pos_as_xyz
  x,y,z
_cell_length_a	17.077404
_cell_length_b	21.295417
_cell_length_c	17.077396
_cell_angle_alpha	90.033192
_cell_angle_beta	90.019501
_cell_angle_gamma	90.030732
loop_
_atom_site_label
_atom_site_type_symbol
_atom_site_fract_x
_atom_site_fract_y
_atom_site_fract_z
Zn1	Zn	1.200013	-0.250605	0.443817
Zn2	Zn	1.700013	0.249395	0.943817
Zn3	Zn	1.199903	-0.355878	0.312540
Zn4	Zn	1.699903	0.144122	0.812540
Zn5	Zn	1.068745	-0.250628	0.312565
Zn6	Zn	1.568745	0.249372	0.812565
Zn7	Zn	1.068695	-0.355841	0.443764
Zn8	Zn	1.568695	0.144159	0.943764
O9	O	1.134339	-0.303238	0.378171
O10	O	1.634339	0.196762	0.878171
O11	O	1.309845	-0.264577	0.426415
O12	O	1.809845	0.235423	0.926415
O13	O	1.182479	-0.341942	0.202697
O14	O	1.682479	0.158058	0.702697
O15	O	1.086225	-0.162535	0.330008
O16	O	1.586225	0.337465	0.830008
O17	O	1.309764	-0.341920	0.329966
O18	O	1.809764	0.158080	0.829966
O19	O	1.182667	-0.162519	0.426439
O20	O	1.682667	0.337481	0.926439
O21	O	1.086118	-0.264614	0.202715
O22	O	1.586118	0.235386	0.702715
O23	O	0.958891	-0.264578	0.329957
O24	O	1.458891	0.235422	0.829957
O25	O	1.086140	-0.341857	0.553618
O26	O	1.586140	0.158143	1.053618
O27	O	0.958855	-0.341878	0.426348
O28	O	1.458855	0.158122	0.926348
O29	O	1.182619	-0.264540	0.553657
O30	O	1.682619	0.235460	1.053657
O31	O	1.182431	-0.443963	0.329915
O32	O	1.682431	0.056037	0.829915
O33	O	1.086033	-0.443935	0.426324
O34	O	1.586033	0.056065	0.926324
C35	C	0.930391	-0.303227	0.378150
C36	C	1.430391	0.196773	0.878150
C37	C	0.843141	-0.303237	0.378159
C38	C	1.343141	0.196763	0.878159
C39	C	0.802153	-0.343548	0.428270
C40	C	1.302153	0.156452	0.928270
C41	C	0.720172	-0.343549	0.428282
C42	C	1.220172	0.156451	0.928282
C43	C	0.679182	-0.303242	0.378180
C44	C	1.179182	0.196758	0.878180
C45	C	0.720176	-0.262927	0.328067
C46	C	1.220176	0.237073	0.828067
C47	C	0.802155	-0.262923	0.328059
C48	C	1.302155	0.237077	0.828059
C49	C	0.549306	-0.262940	0.328086
C50	C	1.049306	0.237060	0.828086
C51	C	0.467322	-0.262944	0.328093
C52	C	0.967322	0.237056	0.828093
C53	C	0.467323	-0.343566	0.428309
C54	C	0.967323	0.156434	0.928309
C55	C	0.549302	-0.343562	0.428301
C56	C	1.049302	0.156438	0.928301
C57	C	0.590291	-0.303247	0.378187
C58	C	1.090291	0.196753	0.878187
C59	C	1.134236	-0.466790	0.378128
C60	C	1.634236	0.033210	0.878128
C61	C	1.134264	-0.536758	0.378136
C62	C	1.634264	-0.036758	0.878136
C63	C	1.184503	-0.569618	0.327987
C64	C	1.684503	-0.069618	0.827987
C65	C	1.184539	-0.635360	0.328004
C66	C	1.684539	-0.135360	0.828004
C67	C	1.134323	-0.668240	0.378163
C68	C	1.634323	-0.168240	0.878163
C69	C	1.084081	-0.635372	0.428321
C70	C	1.584081	-0.135372	0.928321
C71	C	1.084051	-0.569631	0.428308
C72	C	1.584051	-0.069631	0.928308
N73	N	1.065655	-0.771506	0.384140
N74	N	1.565655	-0.271506	0.884140
N75	N	1.065685	-0.833958	0.384148
N76	N	1.565685	-0.333958	0.884148
C77	C	1.134411	-0.866315	0.378208
C78	C	1.634411	-0.366315	0.878208
N79	N	1.203107	-0.833862	0.372244
N80	N	1.703107	-0.333862	0.872244
N81	N	1.203076	-0.771405	0.372231
N82	N	1.703076	-0.271405	0.872231
C83	C	1.134351	-0.739526	0.378183
C84	C	1.634351	-0.239526	0.878183
C85	C	1.184694	-0.970461	0.328075
C86	C	1.684694	-0.470461	0.828075
C87	C	1.184732	-1.036204	0.328098
C88	C	1.684732	-0.536204	0.828098
C89	C	1.084267	-1.036215	0.428411
C90	C	1.584267	-0.536215	0.928411
C91	C	1.084236	-0.970473	0.428392
C92	C	1.584236	-0.470473	0.928392
C93	C	1.134449	-0.937599	0.378220
C94	C	1.634449	-0.437599	0.878220
C95	C	1.339083	-0.303250	0.378194
C96	C	1.839083	0.196750	0.878194
C97	C	1.426333	-0.303255	0.378203
C98	C	1.926333	0.196745	0.878203
C99	C	1.134386	-0.303192	0.582916
C100	C	1.634386	0.196808	1.082916
C101	C	1.134407	-0.303172	0.670166
C102	C	1.634407	0.196828	1.170166
C103	C	1.134464	-0.139048	0.378232
C104	C	1.634464	0.360952	0.878232
C105	C	1.134517	-0.069080	0.378258
C106	C	1.634517	0.430920	0.878258
C107	C	1.134337	-0.303239	0.174224
C108	C	1.634337	0.196761	0.674224
C109	C	1.134469	-0.303081	0.086974
C110	C	1.634469	0.196919	0.586974
C111	C	1.184645	-0.262910	0.711177
C112	C	1.684645	0.237090	1.211177
C113	C	1.184654	-0.262889	0.793158
C114	C	1.684654	0.237111	1.293158
C115	C	1.134429	-0.303134	0.834125
C116	C	1.634429	0.196866	1.334125
C117	C	1.084185	-0.343397	0.793108
C118	C	1.584185	0.156603	1.293108
C119	C	1.084172	-0.343415	0.711129
C120	C	1.584172	0.156585	1.211129
C121	C	1.084217	-0.343360	0.963978
C122	C	1.584217	0.156640	1.463978
C123	C	1.084231	-0.343343	1.045963
C124	C	1.584231	0.156657	1.545963
C125	C	1.184699	-0.262834	1.046007
C126	C	1.684699	0.237166	1.546007
C127	C	1.184686	-0.262851	0.964028
C128	C	1.684686	0.237149	1.464028
C129	C	1.134443	-0.303116	0.923016
C130	C	1.634443	0.196884	1.423016
H131	H	0.835521	-0.376372	0.469066
H132	H	1.335521	0.123628	0.969066
H133	H	0.686795	-0.230106	0.287276
H134	H	1.186795	0.269894	0.787276
C135	C	1.028929	-0.387661	0.838175
C136	C	1.528929	0.112339	1.338175
N137	N	0.987309	-0.421001	0.872118
N138	N	1.487309	0.078999	1.372118
C139	C	0.847242	-0.218579	0.272932
C140	C	1.347242	0.281421	0.772932
N141	N	0.881201	-0.185177	0.231410
N142	N	1.381201	0.314823	0.731410
H143	H	1.043255	-0.376194	0.677738
H144	H	1.543255	0.123806	1.177738
C145	C	1.239935	-0.218579	0.918966
C146	C	1.739935	0.281421	1.418966
N147	N	1.281546	-0.185230	0.885025
N148	N	1.781546	0.314770	1.385025
H149	H	1.225565	-0.230105	0.826546
H150	H	1.725565	0.269895	1.326546
C151	C	0.422234	-0.387909	0.483439
C152	C	0.922234	0.112091	0.983439
N153	N	0.388270	-0.421308	0.524959
N154	N	0.888270	0.078692	1.024959
H155	H	1.043324	-0.943716	0.469225
H156	H	1.543324	-0.443716	0.969225
H157	H	0.686803	-0.376375	0.469086
H158	H	1.186803	0.123625	0.969086
C159	C	0.594390	-0.387904	0.483412
C160	C	1.094390	0.112096	0.983412
N161	N	0.628350	-0.421303	0.524923
N162	N	1.128350	0.078697	1.024923
C163	C	1.239966	-0.218542	1.091122
C164	C	1.739966	0.281458	1.591122
N165	N	1.281594	-0.185184	1.125106
N166	N	1.781594	0.314816	1.625106
C167	C	0.422234	-0.218603	0.272981
C168	C	0.922234	0.281397	0.772981
N169	N	0.388274	-0.185203	0.231470
N170	N	0.888274	0.314797	0.731470
C171	C	1.239897	-0.218636	0.666121
C172	C	1.739897	0.281364	1.166121
N173	N	1.281512	-0.185286	0.632187
N174	N	1.781512	0.314714	1.132187
C175	C	1.028975	-0.387610	1.091025
C176	C	1.528975	0.112390	1.591025
N177	N	0.987355	-0.420952	1.124966
N178	N	1.487355	0.079048	1.624966
H179	H	1.225390	-0.542854	0.287136
H180	H	1.725390	-0.042854	0.787136
H181	H	1.225583	-0.943694	0.287224
H182	H	1.725583	-0.443694	0.787224
C183	C	0.594392	-0.218593	0.272956
C184	C	1.094392	0.281407	0.772956
N185	N	0.628350	-0.185194	0.231429
N186	N	1.128350	0.314806	0.731429
H187	H	1.043291	-0.376138	0.930589
H188	H	1.543291	0.123862	1.430589
H189	H	1.043196	-0.662147	0.469162
H190	H	1.543196	-0.162147	0.969162
C191	C	1.239804	-0.671514	0.272830
C192	C	1.739804	-0.171514	0.772830
N193	N	1.281428	-0.698743	0.231271
N194	N	1.781428	-0.198743	0.731271
H195	H	1.043140	-0.542876	0.469146
H196	H	1.543140	-0.042876	0.969146
C197	C	1.240001	-1.072350	0.272927
C198	C	1.740001	-0.572350	0.772927
N199	N	1.281630	-1.099576	0.231369
N200	N	1.781630	-0.599576	0.731369
H201	H	1.043384	-1.062985	0.469255
H202	H	1.543384	-0.562985	0.969255
