data_functionalizedCrystal
_audit_creation_method	'MofGen! by Chris Wilmer'
_symmetry_space_group_name_H-M	'P1'
_symmetry_Int_Tables_number	1
_symmetry_cell_setting	triclinic
loop_
_symmetry_equiv_pos_as_xyz
  x,y,z
_cell_length_a	19.851628
_cell_length_b	14.446369
_cell_length_c	19.851628
_cell_angle_alpha	60.002400
_cell_angle_beta	90.005228
_cell_angle_gamma	59.999397
loop_
_atom_site_label
_atom_site_type_symbol
_atom_site_fract_x
_atom_site_fract_y
_atom_site_fract_z
Zr1	Zr	0.648986	1.013123	-0.088350
O2	O	0.541424	1.206242	-0.195924
O3	O	0.681959	0.820004	-0.055369
O4	O	0.681965	1.013100	-0.195901
O5	O	0.541415	1.013163	0.055456
O6	O	0.792826	1.013082	-0.195887
O7	O	0.541419	1.013145	-0.055392
O8	O	0.792817	0.667668	0.055498
O9	O	0.541425	1.358578	-0.195929
O10	O	0.778758	0.899423	-0.041298
O11	O	0.696020	0.899450	0.041417
O12	O	0.696027	1.126796	-0.124041
O13	O	0.613289	1.126823	-0.041326
Zr14	Zr	0.825793	1.013123	0.088462
Zr15	Zr	0.825798	1.013094	-0.088329
Zr16	Zr	0.648981	1.013151	0.088441
Zr17	Zr	0.648988	1.256081	-0.088359
Zr18	Zr	0.825791	0.770165	0.088470
O19	O	0.792820	1.206242	0.055480
O20	O	0.792828	1.206201	-0.195894
O21	O	0.541417	1.206282	0.055450
O22	O	0.933355	0.820004	0.196036
O23	O	0.933363	0.819963	-0.055338
O24	O	0.681952	0.820044	0.196005
O25	O	0.933364	1.013082	-0.055345
O26	O	0.792815	1.013145	0.196012
O27	O	0.681953	1.013163	0.195999
O28	O	0.933361	1.013100	0.055504
O29	O	0.681967	1.358555	-0.195912
O30	O	0.792812	0.667690	0.196024
O31	O	0.933354	0.667668	0.196041
O32	O	0.933358	0.667645	0.055516
O33	O	0.541421	1.358600	-0.055404
O34	O	0.681963	1.358578	-0.055387
O35	O	0.778753	0.899450	0.124152
O36	O	0.861490	0.899423	0.041437
O37	O	0.778759	1.126796	-0.041306
O38	O	0.696022	1.126823	0.041410
C39	C	0.737388	0.709219	0.000066
C40	C	0.737387	0.606077	0.000069
C41	C	0.685454	0.459085	0.052477
C42	C	0.685172	0.566704	0.052265
C43	C	0.699324	0.655065	-0.089831
C44	C	0.698934	0.547832	-0.089559
C45	C	0.827419	0.372611	0.036789
C46	C	0.827287	0.478762	0.038623
C47	C	0.516225	1.013158	0.000029
C48	C	0.441164	1.013171	0.000020
C49	C	0.214711	1.137115	-0.045067
C50	C	0.192350	1.075135	-0.077752
C51	C	0.303757	1.013137	0.000043
C52	C	0.192377	1.075124	0.032713
C53	C	0.171025	1.013113	0.000066
C54	C	0.282385	0.951157	-0.032686
C55	C	0.282410	0.951163	0.077821
C56	C	0.260103	0.889093	0.045156
C57	C	0.380219	1.013154	0.000029
C58	C	0.094568	1.013086	0.000079
C59	C	0.958554	1.013087	0.000083
C60	C	1.033615	1.013075	0.000092
C61	C	0.737396	1.013087	-0.221083
C62	C	0.737399	1.013075	-0.296135
C63	C	0.737392	1.317026	0.000046
C64	C	0.737392	1.420168	0.000042
C65	C	0.782504	0.889131	-0.432386
C66	C	0.704711	0.951110	-0.499851
C67	C	0.737391	1.013109	-0.433567
C68	C	0.815168	0.951121	-0.499837
C69	C	0.737389	1.013132	-0.566316
C70	C	0.659552	1.075089	-0.500043
C71	C	0.770064	1.075082	-0.500018
C72	C	0.692225	1.137152	-0.567495
C73	C	0.737392	1.013092	-0.357092
C74	C	0.737379	1.013159	-0.642792
C75	C	0.737383	1.013158	0.221194
C76	C	0.737381	1.013171	0.296247
C77	C	0.958552	0.709184	0.000093
C78	C	1.033613	0.606030	0.000105
C79	C	0.737381	0.709255	0.221205
C80	C	0.737378	0.606125	0.296260
C81	C	0.958545	0.709219	0.221231
C82	C	1.033604	0.606077	0.296296
C83	C	0.516234	1.317026	-0.221120
C84	C	0.441175	1.420168	-0.296185
C85	C	0.516227	1.317062	0.000019
C86	C	0.441166	1.420216	0.000006
C87	C	0.737398	1.316990	-0.221093
C88	C	0.737401	1.420120	-0.296149
C89	C	1.025676	0.557587	-0.043083
C90	C	1.096197	0.460676	-0.043088
C91	C	1.174653	0.412203	0.000101
C92	C	1.182588	0.460655	0.043291
C93	C	1.112068	0.557571	0.043290
C94	C	0.780562	0.557694	0.374702
C95	C	0.780556	0.460806	0.445231
C96	C	0.737370	0.412344	0.437318
C97	C	0.694181	0.460785	0.358868
C98	C	0.694183	0.557678	0.288340
C99	C	1.112047	0.557627	0.288371
C100	C	1.182579	0.460727	0.358896
C101	C	1.174666	0.412274	0.437345
C102	C	1.096214	0.460734	0.445269
C103	C	1.025684	0.557638	0.374745
C104	C	0.362732	1.468630	-0.288260
C105	C	0.292200	1.565560	-0.358784
C106	C	0.300113	1.614019	-0.437234
C107	C	0.378565	1.565552	-0.445157
C108	C	0.449095	1.468631	-0.374633
C109	C	0.449103	1.468668	0.043187
C110	C	0.378582	1.565606	0.043173
C111	C	0.300126	1.614083	-0.000019
C112	C	0.292191	1.565626	-0.043205
C113	C	0.362711	1.468697	-0.043195
C114	C	0.780595	1.468551	-0.288209
C115	C	0.780614	1.565440	-0.358725
C116	C	0.737434	1.613902	-0.437180
C117	C	0.694238	1.565462	-0.445119
C118	C	0.694225	1.468568	-0.374603
H119	H	0.710851	0.370223	0.118841
O120	O	0.949467	0.604892	0.382408
C121	C	0.819687	0.794057	0.352884
C122	C	0.905981	0.740717	0.344154
H123	H	0.784497	0.903882	0.321947
H124	H	0.826107	0.742870	0.421058
H125	H	0.784550	0.774910	0.322058
H126	H	0.941166	0.759851	0.374934
H127	H	0.899502	0.791905	0.275966
O128	O	0.386448	1.612471	0.085205
C129	C	0.479594	1.602228	0.170858
C130	C	0.470802	1.549023	0.123307
H131	H	0.547790	1.550973	0.201662
H132	H	0.448782	1.583147	0.219942
H133	H	0.448708	1.712037	0.126118
H134	H	0.501693	1.439208	0.167983
H135	H	0.501591	1.568205	0.074212
H136	H	0.321081	0.898788	-0.060382
H137	H	0.737376	0.333448	0.494753
H138	H	0.356273	1.429180	-0.224389
H139	H	0.228328	1.605005	-0.352317
H140	H	0.242676	1.692938	-0.494652
O141	O	1.119931	0.604426	0.085327
C142	C	1.213080	0.594187	0.170975
C143	C	1.204286	0.540993	0.123416
H144	H	1.281276	0.542944	0.201768
H145	H	1.182280	0.575081	0.220067
H146	H	1.182182	0.704000	0.126242
H147	H	1.235187	0.431174	0.168086
H148	H	1.235063	0.560200	0.074313
H149	H	0.278707	0.784178	0.083306
H150	H	0.659047	1.429146	-0.381080
O151	O	0.328611	0.888902	0.156263
C152	C	0.334295	0.883839	0.279401
C153	C	0.281893	0.954481	0.190568
H154	H	0.296538	0.936814	0.307169
H155	H	0.391783	0.883657	0.278707
H156	H	0.353343	0.778675	0.318112
H157	H	0.262784	1.059672	0.151805
H158	H	0.224443	0.954556	0.191325
H159	H	0.654020	1.242067	-0.625244
H160	H	0.196261	1.241944	-0.083271
O161	O	0.822618	1.421587	-0.212065
C162	C	0.908264	1.431860	-0.133839
C163	C	0.860716	1.485138	-0.220118
H164	H	0.939063	1.483238	-0.140320
H165	H	0.957352	1.322064	-0.098641
H166	H	0.863520	1.450898	-0.098676
H167	H	0.905396	1.466194	-0.255349
H168	H	0.811616	1.594919	-0.255253
O169	O	0.652280	1.612363	-0.521271
C170	C	0.566554	1.602256	-0.599541
C171	C	0.614056	1.548995	-0.513249
H172	H	0.535624	1.551067	-0.593085
H173	H	0.611269	1.583142	-0.634720
H174	H	0.517554	1.712075	-0.634709
H175	H	0.663057	1.439171	-0.478012
H176	H	0.569291	1.568211	-0.478133
O177	O	0.386298	1.612348	-0.521343
C178	C	0.438331	1.562089	-0.616747
C179	C	0.429687	1.508953	-0.530420
H180	H	0.473395	1.478525	-0.624120
H181	H	0.473531	1.607453	-0.624339
H182	H	0.374405	1.639659	-0.665719
H183	H	0.493579	1.431338	-0.481397
H184	H	0.394446	1.463671	-0.522899
O185	O	0.580990	1.137647	-0.499493
C186	C	0.437057	1.252154	-0.569532
C187	C	0.525982	1.181375	-0.570271
H188	H	0.392560	1.287505	-0.626741
H189	H	0.421038	1.339613	-0.569372
H190	H	0.431751	1.181653	-0.511895
H191	H	0.531354	1.251774	-0.627899
H192	H	0.541962	1.093899	-0.570389
H193	H	1.246452	0.421281	0.352430
O194	O	0.216039	1.612608	-0.085223
C195	C	0.137772	1.602336	-0.170831
C196	C	0.224065	1.549044	-0.123306
H197	H	0.144232	1.550948	-0.201619
H198	H	0.102577	1.712128	-0.219924
H199	H	0.102616	1.583322	-0.126076
H200	H	0.259289	1.567964	-0.167997
H201	H	0.259197	1.439268	-0.074202
O202	O	0.525342	1.421332	-0.382224
C203	C	0.655081	1.232176	-0.352774
C204	C	0.568764	1.285550	-0.344099
H205	H	0.690206	1.122396	-0.321971
H206	H	0.690310	1.251129	-0.321873
H207	H	0.648604	1.283523	-0.420961
H208	H	0.575166	1.234237	-0.275933
H209	H	0.533567	1.266617	-0.375051
H210	H	0.659020	0.421313	0.352437
H211	H	0.632687	0.588536	-0.118975
O212	O	0.525328	1.421386	0.085250
C213	C	0.655101	1.232201	0.193403
C214	C	0.568797	1.285567	0.145849
H215	H	0.690277	1.122381	0.242396
H216	H	0.648699	1.283396	0.224319
H217	H	0.690243	1.251316	0.148650
H218	H	0.533609	1.266465	0.190548
H219	H	0.575259	1.234370	0.114920
H220	H	0.242711	1.693009	-0.000021
H221	H	0.356238	1.429250	-0.078356
O222	O	0.671863	0.888403	-0.500560
C223	C	0.682234	0.686865	-0.431030
C224	C	0.719522	0.757723	-0.430140
H225	H	0.720739	0.581206	-0.374093
H226	H	0.682026	0.688215	-0.488944
H227	H	0.616285	0.738758	-0.430687
H228	H	0.785484	0.705885	-0.430453
H229	H	0.719666	0.756384	-0.372231
O230	O	0.145990	1.137847	0.065533
C231	C	0.014397	1.315967	0.044013
C232	C	0.066847	1.245065	0.006746
H233	H	-0.049605	1.402650	-0.003492
H234	H	0.045355	1.352482	0.062152
H235	H	0.008599	1.245188	0.101001
H236	H	0.072664	1.315767	-0.050265
H237	H	0.035868	1.208528	-0.011334
H238	H	0.797723	1.127427	-0.499310
O239	O	1.243246	0.318260	0.505786
C240	C	1.368136	0.258986	0.583297
C241	C	1.290510	0.365562	0.505751
H242	H	1.406362	0.297201	0.583303
H243	H	1.406481	0.168243	0.583310
H244	H	1.348997	0.232640	0.640723
H245	H	1.309576	0.392020	0.448284
H246	H	1.252184	0.456237	0.505810
H247	H	0.735336	0.683838	-0.130588
H248	H	0.815788	1.604870	-0.352245
O249	O	0.621095	0.765323	-0.125255
C250	C	0.527255	0.993653	-0.236878
C251	C	0.615885	0.868895	-0.196842
H252	H	0.523010	1.077416	-0.294773
H253	H	0.510494	1.020639	-0.191408
H254	H	0.482627	0.975233	-0.254121
H255	H	0.660572	0.887217	-0.179599
H256	H	0.632578	0.841945	-0.242337
O257	O	0.822591	0.413858	0.521369
C258	C	0.908239	0.424160	0.599568
C259	C	0.860685	0.477419	0.513298
H260	H	0.939037	0.475545	0.593072
H261	H	0.957330	0.314363	0.634771
H262	H	0.863500	0.443204	0.634734
H263	H	0.905361	0.458469	0.478063
H264	H	0.811584	0.587200	0.478157
O265	O	1.088681	0.413468	0.521538
C266	C	1.159083	0.264204	0.668460
C267	C	1.167730	0.317607	0.582133
H268	H	1.222984	0.186710	0.717474
H269	H	1.123973	0.218731	0.675950
H270	H	1.123881	0.347719	0.675860
H271	H	1.202950	0.234164	0.574674
H272	H	1.202807	0.363118	0.574682
H273	H	0.737451	1.692800	-0.494592
H274	H	0.710704	0.530001	0.118464
H275	H	0.618766	0.655512	0.026789
O276	O	0.606650	0.501916	0.022368
C277	C	0.462547	0.680336	-0.036529
C278	C	0.551749	0.631991	-0.002435
H279	H	0.418135	0.785516	-0.056608
H280	H	0.447768	0.615179	0.013490
H281	H	0.455707	0.676123	-0.091769
H282	H	0.558653	0.636205	0.052792
H283	H	0.566487	0.697158	-0.052505
O284	O	0.873814	0.341398	-0.008488
C285	C	0.929296	0.205399	-0.058002
C286	C	0.876760	0.240593	-0.006682
H287	H	0.931681	0.123914	-0.056574
H288	H	0.994520	0.170909	-0.031008
H289	H	0.900528	0.295401	-0.124473
H290	H	0.905456	0.150647	0.059797
H291	H	0.811540	0.275134	-0.033743
O292	O	0.865396	0.260912	0.114612
C293	C	0.930390	0.156310	0.258089
C294	C	0.887422	0.282879	0.169992
H295	H	0.948194	0.174034	0.302890
H296	H	0.988222	0.074968	0.260320
H297	H	0.886504	0.126246	0.276282
H298	H	0.931243	0.313062	0.151743
H299	H	0.829579	0.364143	0.167808
H300	H	0.659020	0.597097	0.224473
O301	O	0.145974	1.137531	-0.156154
C302	C	0.023151	1.206493	-0.243898
C303	C	0.075598	1.135765	-0.155066
H304	H	-0.033768	1.205112	-0.243049
H305	H	0.061207	1.154650	-0.272129
H306	H	0.003159	1.312170	-0.282291
H307	H	0.095602	1.030085	-0.116607
H308	H	0.037510	1.187709	-0.126901
H309	H	0.734320	0.525851	-0.130749
O310	O	0.828054	0.764100	-0.363352
C311	C	0.945532	0.601270	-0.238342
C312	C	0.894038	0.742881	-0.316499
H313	H	0.998881	0.584078	-0.200431
H314	H	0.970933	0.530154	-0.256722
H315	H	0.904860	0.584769	-0.199984
H316	H	0.934657	0.759509	-0.354892
H317	H	0.868629	0.813925	-0.298062
O318	O	1.243212	0.317926	0.000255
C319	C	1.368072	0.099035	0.081994
C320	C	1.290479	0.205704	0.081940
H321	H	1.406300	0.008269	0.148028
H322	H	1.406432	0.137031	0.054306
H323	H	1.348893	0.072812	0.043671
H324	H	1.309584	0.231974	0.120271
H325	H	1.252138	0.167651	0.109597
O326	O	0.861355	0.431482	0.117607
C327	C	0.971535	0.375278	0.214530
C328	C	0.933046	0.428807	0.125060
H329	H	1.029493	0.373123	0.220581
H330	H	0.988335	0.271912	0.258121
H331	H	0.925227	0.441262	0.231113
H332	H	0.979312	0.362921	0.108399
H333	H	0.916227	0.532192	0.081519
H334	H	0.880946	0.898696	-0.500479
H335	H	0.869244	0.500252	0.004406
O336	O	0.949451	0.604546	-0.084911
C337	C	0.819673	0.634296	-0.077034
C338	C	0.905976	0.581032	-0.029552
H339	H	0.784493	0.615329	-0.032300
H340	H	0.826077	0.583001	-0.107878
H341	H	0.784536	0.744087	-0.126096
H342	H	0.941161	0.471251	0.019549
H343	H	0.899513	0.632425	0.001234
H344	H	1.089720	0.421239	-0.078258
H345	H	0.815729	0.597141	0.381161
H346	H	1.118506	0.597064	0.224500
H347	H	1.246476	0.421174	0.078454
