data_functionalizedCrystal
_audit_creation_method	'MofGen! by Chris Wilmer'
_symmetry_space_group_name_H-M	'P1'
_symmetry_Int_Tables_number	1
_symmetry_cell_setting	triclinic
loop_
_symmetry_equiv_pos_as_xyz
  x,y,z
_cell_length_a	16.109302
_cell_length_b	10.489716
_cell_length_c	15.186229
_cell_angle_alpha	90.000291
_cell_angle_beta	89.994701
_cell_angle_gamma	83.995458
loop_
_atom_site_label
_atom_site_type_symbol
_atom_site_fract_x
_atom_site_fract_y
_atom_site_fract_z
O1	O	1.104131	0.163953	-0.073260
O2	O	0.862194	0.184355	-0.073252
O3	O	0.988679	-0.011526	-0.073260
O4	O	0.977647	0.359834	-0.073253
O5	O	0.988670	-0.011528	0.073198
O6	O	0.862186	0.184353	0.073205
O7	O	1.104123	0.163950	0.073197
Zn8	Zn	0.983153	0.174151	0.096454
Zn9	Zn	0.983164	0.174155	-0.096510
O10	O	0.977638	0.359831	0.073204
C11	C	0.831210	0.183527	-0.000023
C12	C	0.738900	0.181049	-0.000020
C13	C	0.526519	0.175317	0.079805
C14	C	0.439785	0.172975	0.079802
C15	C	0.439804	0.172985	-0.079874
C16	C	0.526538	0.175318	-0.079870
C17	C	0.569892	0.176491	-0.000028
C18	C	0.396425	0.171815	-0.000035
C19	C	0.302383	0.169276	-0.000039
C20	C	0.663940	0.179028	-0.000024
C21	C	0.987845	-0.059047	-0.000034
C22	C	0.985366	-0.200642	-0.000042
C23	C	1.062930	-0.299441	-0.000036
C24	C	1.021947	-0.376206	-0.072244
C25	C	1.021921	-0.376172	0.072152
C26	C	0.944416	-0.275542	-0.072309
C27	C	0.944401	-0.275503	0.072152
C28	C	0.903361	-0.352218	-0.000073
C29	C	1.135107	0.164778	-0.000034
C30	C	1.227417	0.167257	-0.000043
C31	C	0.978472	0.407353	-0.000024
C32	C	0.980951	0.548948	-0.000021
N33	N	0.983151	0.174148	0.228147
N34	N	0.983172	0.174148	-0.228202
C35	C	1.039178	0.087441	0.453867
C36	C	1.039181	0.087438	0.546056
C37	C	0.927140	0.260859	0.546072
C38	C	0.927134	0.260855	0.453884
C39	C	0.983157	0.174147	0.407784
C40	C	0.983166	0.174148	0.592161
C41	C	0.983168	0.174146	0.692117
C42	C	0.983154	0.174148	0.307821
H43	H	0.404474	0.172020	0.144810
H44	H	0.881527	0.331456	0.583616
C45	C	0.866214	0.354798	0.403795
C46	C	0.814904	0.286826	0.350897
C47	C	0.758771	0.373316	0.304752
H48	H	0.896338	0.407935	0.367754
H49	H	0.832805	0.406429	0.444424
H50	H	0.848310	0.235218	0.310274
H51	H	0.784762	0.233694	0.386917
H52	H	0.725361	0.424946	0.345380
H53	H	0.788902	0.426448	0.268715
H54	H	0.723945	0.327210	0.268861
C55	C	0.392576	0.171786	-0.166464
C56	C	0.307331	0.169529	-0.149383
C57	C	0.263799	0.168445	-0.229130
H58	H	0.412591	0.097852	-0.199337
H59	H	0.400845	0.246536	-0.199270
H60	H	0.299067	0.094786	-0.116592
H61	H	0.287292	0.243456	-0.116523
H62	H	0.272068	0.243195	-0.261935
H63	H	0.283821	0.094511	-0.261997
H64	H	0.205955	0.166926	-0.217552
C65	C	0.573481	0.176654	-0.166643
C66	C	0.516947	0.175173	-0.236567
C67	C	0.560160	0.176416	-0.316510
H68	H	0.613218	0.103248	-0.170087
H69	H	0.601396	0.251930	-0.170003
H70	H	0.489046	0.099906	-0.233208
H71	H	0.477209	0.248574	-0.233152
H72	H	0.588075	0.251691	-0.319870
H73	H	0.599895	0.103008	-0.319944
H74	H	0.521808	0.175423	-0.363962
H75	H	0.911694	-0.231762	-0.133422
H76	H	1.054694	-0.420175	-0.133293
C77	C	0.573447	0.176505	0.166580
C78	C	0.516897	0.174939	0.236492
C79	C	0.560096	0.176009	0.316444
H80	H	0.601387	0.251730	0.170034
H81	H	0.613166	0.103047	0.169942
H82	H	0.477193	0.248390	0.233132
H83	H	0.488955	0.099720	0.233067
H84	H	0.599814	0.102551	0.319806
H85	H	0.588033	0.251235	0.319889
H86	H	0.521734	0.174935	0.363889
C87	C	0.813320	-0.383427	-0.000299
C88	C	0.773105	-0.332038	-0.076039
C89	C	0.690164	-0.360778	-0.076286
H90	H	0.785479	-0.347424	0.050452
H91	H	0.812181	-0.473795	0.000144
H92	H	0.774239	-0.241688	-0.076473
H93	H	0.800921	-0.368032	-0.126803
H94	H	0.689025	-0.451147	-0.075844
H95	H	0.662330	-0.324774	-0.025532
H96	H	0.662869	-0.325926	-0.127679
H97	H	1.054677	-0.420121	0.133196
C98	C	1.152890	-0.267845	-0.000336
C99	C	1.193130	-0.319015	-0.076133
C100	C	1.275990	-0.289892	-0.076460
H101	H	1.180833	-0.303769	0.050375
H102	H	1.153856	-0.177445	0.000131
H103	H	1.192168	-0.409398	-0.076592
H104	H	1.165212	-0.283100	-0.126857
H105	H	1.276956	-0.199492	-0.075993
H106	H	1.303925	-0.325817	-0.025745
H107	H	1.303301	-0.324596	-0.127891
H108	H	1.084796	0.016832	0.583574
H109	H	0.911683	-0.231512	0.133203
H110	H	1.084795	0.016837	0.416334
