data_functionalizedCrystal
_audit_creation_method	'MofGen! by Chris Wilmer'
_symmetry_space_group_name_H-M	'P1'
_symmetry_Int_Tables_number	1
_symmetry_cell_setting	triclinic
loop_
_symmetry_equiv_pos_as_xyz
  x,y,z
_cell_length_a	19.077115
_cell_length_b	16.959453
_cell_length_c	16.959455
_cell_angle_alpha	90.014910
_cell_angle_beta	92.298620
_cell_angle_gamma	87.716317
loop_
_atom_site_label
_atom_site_type_symbol
_atom_site_fract_x
_atom_site_fract_y
_atom_site_fract_z
Zn1	Zn	1.075879	-0.363425	0.495398
Zn2	Zn	1.575879	0.136575	0.995398
Zn3	Zn	1.075837	-0.495578	0.363216
Zn4	Zn	1.575837	0.004422	0.863216
Zn5	Zn	0.958217	-0.358101	0.357932
Zn6	Zn	1.458217	0.141899	0.857932
Zn7	Zn	0.958160	-0.490244	0.490050
Zn8	Zn	1.458160	0.009756	0.990050
O9	O	1.017023	-0.426837	0.426649
O10	O	1.517023	0.073163	0.926649
O11	O	1.174363	-0.385416	0.482313
O12	O	1.674363	0.114584	0.982313
O13	O	1.060240	-0.477346	0.251904
O14	O	1.560240	0.022654	0.751904
O15	O	0.973867	-0.248198	0.376194
O16	O	1.473867	0.251802	0.876194
O17	O	1.174332	-0.482508	0.385199
O18	O	1.674332	0.017492	0.885199
O19	O	1.060313	-0.252110	0.477189
O20	O	1.560313	0.247890	0.977189
O21	O	0.973826	-0.376342	0.248022
O22	O	1.473826	0.123658	0.748022
O23	O	0.859720	-0.371169	0.371008
O24	O	1.359720	0.128831	0.871008
O25	O	0.973769	-0.473417	0.601370
O26	O	1.473769	0.026583	1.101370
O27	O	0.859678	-0.468254	0.468075
O28	O	1.359678	0.031746	0.968075
O29	O	1.060257	-0.380243	0.605299
O30	O	1.560257	0.119757	1.105299
O31	O	1.060185	-0.605479	0.380014
O32	O	1.560185	-0.105479	0.880014
O33	O	0.973728	-0.601561	0.473198
O34	O	1.473728	-0.101561	0.973198
C35	C	0.834161	-0.418556	0.418389
C36	C	1.334161	0.081444	0.918389
C37	C	0.755932	-0.415032	0.414873
C38	C	1.255932	0.084968	0.914873
C39	C	0.315585	-0.389726	0.389671
C40	C	0.815585	0.110274	0.889671
C41	C	0.389090	-0.393041	0.392978
C42	C	0.889090	0.106959	0.892978
C43	C	0.425836	-0.445329	0.445086
C44	C	0.925836	0.054671	0.945086
C45	C	0.389074	-0.494299	0.493897
C46	C	0.889074	0.005701	0.993897
C47	C	0.315571	-0.490979	0.490594
C48	C	0.815571	0.009021	0.990594
C49	C	0.645667	-0.460682	0.460381
C50	C	1.145667	0.039318	0.960381
C51	C	0.719175	-0.464000	0.463679
C52	C	1.219175	0.036000	0.963679
C53	C	0.719186	-0.362741	0.362760
C54	C	1.219186	0.137259	0.862760
C55	C	0.645681	-0.359429	0.359458
C56	C	1.145681	0.140571	0.859458
C57	C	0.608926	-0.408396	0.408271
C58	C	1.108926	0.091604	0.908271
N59	N	0.500970	-0.448720	0.448466
N60	N	1.000970	0.051280	0.948466
N61	N	0.533793	-0.405000	0.404895
N62	N	1.033793	0.095000	0.904895
C63	C	1.016965	-0.632201	0.426617
C64	C	1.516965	-0.132201	0.926617
C65	C	1.017004	-0.720059	0.426633
C66	C	1.517004	-0.220059	0.926633
C67	C	1.062093	-1.093516	0.479335
C68	C	1.562093	-0.593516	0.979335
C69	C	0.972150	-1.089563	0.374089
C70	C	1.472150	-0.589563	0.874089
C71	C	0.972124	-1.007016	0.374069
C72	C	1.472124	-0.507016	0.874069
C73	C	1.017082	-0.967715	0.426685
C74	C	1.517082	-0.467715	0.926685
C75	C	1.062067	-1.010961	0.479319
C76	C	1.562067	-0.510961	0.979319
C77	C	0.927135	-0.963764	0.321441
C78	C	1.427135	-0.463764	0.821441
C79	C	0.927107	-0.881212	0.321420
C80	C	1.427107	-0.381212	0.821420
C81	C	0.972069	-0.841909	0.374032
C82	C	1.472069	-0.341909	0.874032
C83	C	1.017056	-0.885161	0.426668
C84	C	1.517056	-0.385161	0.926668
C85	C	1.062015	-0.845860	0.479284
C86	C	1.562015	-0.345860	0.979284
C87	C	1.107006	-0.889110	0.531917
C88	C	1.607006	-0.389110	1.031917
C89	C	1.107029	-0.971659	0.531931
C90	C	1.607029	-0.471659	1.031931
C91	C	0.972045	-0.759360	0.374018
C92	C	1.472045	-0.259360	0.874018
C93	C	1.061988	-0.763305	0.479268
C94	C	1.561988	-0.263305	0.979268
C95	C	1.200599	-0.435151	0.434942
C96	C	1.700599	0.064849	0.934942
C97	C	1.278828	-0.438694	0.438476
C98	C	1.778828	0.061306	0.938476
C99	C	1.017012	-0.426829	0.632817
C100	C	1.517012	0.073171	1.132817
C101	C	1.017007	-0.426826	0.720673
C102	C	1.517007	0.073174	1.220673
C103	C	1.017101	-0.220672	0.426699
C104	C	1.517101	0.279328	0.926699
C105	C	1.017135	-0.132817	0.426720
C106	C	1.517135	0.367183	0.926720
C107	C	0.971987	-0.475359	1.090106
C108	C	1.471987	0.024641	1.590106
C109	C	1.062047	-0.378337	1.094192
C110	C	1.562047	0.121663	1.594192
C111	C	1.062045	-0.378330	1.011646
C112	C	1.562045	0.121670	1.511646
C113	C	1.017014	-0.426839	0.968326
C114	C	1.517014	0.073161	1.468326
C115	C	0.971985	-0.475355	1.007552
C116	C	1.471985	0.024645	1.507552
C117	C	1.107078	-0.329821	0.972414
C118	C	1.607078	0.170179	1.472414
C119	C	1.107078	-0.329813	0.889863
C120	C	1.607078	0.170187	1.389863
C121	C	1.062043	-0.378319	0.846542
C122	C	1.562043	0.121681	1.346542
C123	C	1.017011	-0.426836	0.885773
C124	C	1.517011	0.073164	1.385773
C125	C	0.971980	-0.475345	0.842453
C126	C	1.471980	0.024655	1.342453
C127	C	0.926944	-0.523859	0.881682
C128	C	1.426944	-0.023859	1.381682
C129	C	0.926949	-0.523861	0.964231
C130	C	1.426949	-0.023861	1.464231
C131	C	1.062038	-0.378316	0.763993
C132	C	1.562038	0.121684	1.263993
C133	C	0.971978	-0.475342	0.759899
C134	C	1.471978	0.024658	1.259899
C135	C	1.017025	-0.426858	1.221283
C136	C	1.517025	0.073142	1.721283
C137	C	1.017018	-0.426849	1.133426
C138	C	1.517018	0.073151	1.633426
H139	H	0.615749	-0.500558	0.500125
H140	H	1.115749	-0.000558	1.000125
H141	H	0.935411	-0.724149	0.331168
H142	H	1.435411	-0.224149	0.831168
O143	O	0.279972	-0.538623	0.538036
O144	O	0.779972	-0.038623	1.038036
C145	C	0.287714	-0.639363	0.638527
C146	C	0.787714	-0.139363	1.138527
C147	C	0.328116	-0.585469	0.584822
C148	C	0.828116	-0.085469	1.084822
H149	H	0.326621	-0.677240	0.676379
H150	H	0.826621	-0.177240	1.176379
H151	H	0.253300	-0.679137	0.600661
H152	H	0.753300	-0.179137	1.100661
H153	H	0.253302	-0.601562	0.678341
H154	H	0.753302	-0.101562	1.178341
H155	H	0.362566	-0.623207	0.544999
H156	H	0.862566	-0.123207	1.044999
H157	H	0.362485	-0.545690	0.622735
H158	H	0.862485	-0.045690	1.122735
O159	O	0.928214	-0.522544	0.717942
O160	O	1.428214	-0.022544	1.217942
C161	C	0.838862	-0.618750	0.722600
C162	C	1.338862	-0.118750	1.222600
C163	C	0.888396	-0.565344	0.770212
C164	C	1.388396	-0.065344	1.270212
H165	H	0.806645	-0.653356	0.764840
H166	H	1.306645	-0.153356	1.264840
H167	H	0.871130	-0.661595	0.685423
H168	H	1.371130	-0.161595	1.185423
H169	H	0.802104	-0.580788	0.682279
H170	H	1.302104	-0.080788	1.182279
H171	H	0.925164	-0.603243	0.810577
H172	H	1.425164	-0.103243	1.310577
H173	H	0.856084	-0.522496	0.807337
H174	H	1.356084	-0.022496	1.307337
H175	H	1.098602	-0.731312	0.522111
H176	H	1.598602	-0.231312	1.022111
H177	H	0.615767	-0.316857	0.317019
H178	H	1.115767	0.183143	0.817019
H179	H	0.749092	-0.506579	0.506116
H180	H	1.249092	-0.006579	1.006116
H181	H	1.143749	-0.290309	0.857930
H182	H	1.643749	0.209691	1.357930
H183	H	0.890530	-0.995769	0.278607
H184	H	1.390530	-0.495769	0.778607
H185	H	0.890474	-0.846002	0.278564
H186	H	1.390474	-0.346002	0.778564
H187	H	0.419014	-0.353170	0.353232
H188	H	0.919014	0.146830	0.853232
O189	O	1.105705	-0.331082	0.725917
O190	O	1.605705	0.168918	1.225917
C191	C	1.139959	-0.198183	0.702279
C192	C	1.639959	0.301817	1.202279
C193	C	1.090449	-0.251587	0.745432
C194	C	1.590449	0.248413	1.245432
H195	H	1.127652	-0.133903	0.718054
H196	H	1.627652	0.366097	1.218054
H197	H	1.132217	-0.206443	0.635829
H198	H	1.632217	0.293557	1.135829
H199	H	1.196700	-0.214681	0.721051
H200	H	1.696700	0.285319	1.221051
H201	H	1.033688	-0.235123	0.726726
H202	H	1.533688	0.264877	1.226726
H203	H	1.098251	-0.243321	0.811874
H204	H	1.598251	0.256679	1.311874
O205	O	1.150654	-0.850806	0.582951
O206	O	1.650654	-0.350806	1.082951
C207	C	1.190429	-0.725373	0.629599
C208	C	1.690429	-0.225373	1.129599
C209	C	1.140977	-0.768656	0.571750
C210	C	1.640977	-0.268656	1.071750
H211	H	1.182612	-0.658947	0.620574
H212	H	1.682612	-0.158947	1.120574
H213	H	1.247214	-0.744063	0.618337
H214	H	1.747214	-0.244063	1.118337
H215	H	1.178036	-0.741073	0.692759
H216	H	1.678036	-0.241073	1.192759
H217	H	1.153306	-0.752978	0.508569
H218	H	1.653306	-0.252978	1.008569
H219	H	1.084206	-0.749963	0.583081
H220	H	1.584206	-0.249963	1.083081
O221	O	1.150660	-1.013791	0.583030
O222	O	1.650660	-0.513791	1.083030
C223	C	1.190581	-1.142719	0.629670
C224	C	1.690581	-0.642719	1.129670
C225	C	1.141127	-1.095098	0.571771
C226	C	1.641127	-0.595098	1.071771
H227	H	1.182901	-1.208465	0.620576
H228	H	1.682901	-0.708465	1.120576
H229	H	1.178165	-1.125966	0.692848
H230	H	1.678165	-0.625966	1.192848
H231	H	1.247333	-1.128973	0.618414
H232	H	1.747333	-0.628973	1.118414
H233	H	1.084359	-1.108819	0.582955
H234	H	1.584359	-0.608819	1.082955
H235	H	1.153604	-1.111857	0.508612
H236	H	1.653604	-0.611857	1.008612
H237	H	1.098726	-1.128734	0.522186
H238	H	1.598726	-0.628734	1.022186
O239	O	0.424876	-0.545071	0.544446
O240	O	0.924876	-0.045071	1.044446
C241	C	0.538105	-0.595034	0.594291
C242	C	1.038105	-0.095034	1.094291
C243	C	0.497649	-0.537508	0.536997
C244	C	0.997649	-0.037508	1.036997
H245	H	0.596948	-0.588927	0.588300
H246	H	1.096948	-0.088927	1.088300
H247	H	0.523683	-0.658113	0.579644
H248	H	1.023683	-0.158113	1.079644
H249	H	0.523624	-0.580608	0.657394
H250	H	1.023624	-0.080608	1.157394
H251	H	0.512108	-0.551861	0.473875
H252	H	1.012108	-0.051861	0.973875
H253	H	0.512074	-0.474445	0.551712
H254	H	1.012074	0.025555	1.051712
H255	H	0.749120	-0.322874	0.323020
H256	H	1.249120	0.177126	0.823020
O257	O	0.928547	-1.127862	0.323009
O258	O	1.428547	-0.627862	0.823009
C259	C	0.888698	-1.253285	0.276423
C260	C	1.388698	-0.753285	0.776423
C261	C	0.938126	-1.210009	0.334305
C262	C	1.438126	-0.710009	0.834305
H263	H	0.896415	-1.319708	0.285546
H264	H	1.396415	-0.819708	0.785546
H265	H	0.901108	-1.237695	0.213238
H266	H	1.401108	-0.737695	0.713238
H267	H	0.831937	-1.234480	0.287670
H268	H	1.331937	-0.734480	0.787670
H269	H	0.994903	-1.228791	0.323129
H270	H	1.494903	-0.728791	0.823129
H271	H	0.925656	-1.225600	0.397469
H272	H	1.425656	-0.725600	0.897469
H273	H	0.890283	-0.563359	0.846400
H274	H	1.390283	-0.063359	1.346400
H275	H	0.890286	-0.563361	0.996179
H276	H	1.390286	-0.063361	1.496179
H277	H	0.935318	-0.514855	1.122050
H278	H	1.435318	-0.014855	1.622050
O279	O	1.150759	-0.282732	1.014613
O280	O	1.650759	0.217268	1.514613
C281	C	1.190712	-0.239790	1.143602
C282	C	1.690712	0.260210	1.643602
C283	C	1.141192	-0.293141	1.095904
C284	C	1.641192	0.206859	1.595904
H285	H	1.183005	-0.248199	1.209335
H286	H	1.683005	0.251801	1.709335
H287	H	1.178386	-0.175474	1.126898
H288	H	1.678386	0.324526	1.626898
H289	H	1.247448	-0.256241	1.129877
H290	H	1.747448	0.243759	1.629877
H291	H	1.084439	-0.276760	1.109603
H292	H	1.584439	0.223240	1.609603
H293	H	1.153578	-0.357443	1.112614
H294	H	1.653578	0.142557	1.612614
H295	H	1.098714	-0.338847	1.129468
H296	H	1.598714	0.161153	1.629468
H297	H	0.285672	-0.347148	0.347237
H298	H	0.785672	0.152852	0.847237
