data_functionalizedCrystal
_audit_creation_method	'MofGen! by Chris Wilmer'
_symmetry_space_group_name_H-M	'P1'
_symmetry_Int_Tables_number	1
_symmetry_cell_setting	triclinic
loop_
_symmetry_equiv_pos_as_xyz
  x,y,z
_cell_length_a	8.497374
_cell_length_b	19.077409
_cell_length_c	19.077068
_cell_angle_alpha	85.466866
_cell_angle_beta	92.284024
_cell_angle_gamma	87.712417
loop_
_atom_site_label
_atom_site_type_symbol
_atom_site_fract_x
_atom_site_fract_y
_atom_site_fract_z
Zn1	Zn	0.817664	1.066316	0.237438
Zn2	Zn	0.564881	1.061520	0.355300
Zn3	Zn	0.564884	0.948462	0.242166
Zn4	Zn	0.839606	0.943654	0.360035
O5	O	0.696759	1.004988	0.298735
O6	O	0.774948	1.164330	0.249112
O7	O	0.344118	1.046527	0.340290
O8	O	0.589234	0.968115	0.142885
O9	O	0.589229	1.160806	0.335705
O10	O	0.774951	1.054702	0.139411
O11	O	0.344120	0.963464	0.257171
O12	O	0.610510	0.849174	0.261762
O13	O	1.057459	0.959920	0.343775
O14	O	0.812348	0.845642	0.348359
O15	O	1.041338	1.050040	0.253703
O16	O	0.610505	1.041865	0.454582
O17	O	0.812345	0.955270	0.458060
C18	C	0.713811	0.821829	0.306088
C19	C	0.721146	0.743472	0.309251
C20	C	0.713839	0.997545	0.481900
C21	C	0.721192	0.994425	0.560257
C22	C	0.773818	0.302211	0.331879
C23	C	0.766897	0.375835	0.328913
C24	C	0.658512	0.414466	0.282271
C25	C	0.557029	0.379469	0.238597
C26	C	0.563943	0.305846	0.241568
C27	C	0.626576	0.634851	0.268548
C28	C	0.619674	0.708480	0.265579
C29	C	0.829541	0.704841	0.355896
C30	C	0.836451	0.631216	0.358860
C31	C	0.734963	0.596225	0.315189
N32	N	0.651439	0.489722	0.279236
N33	N	0.742029	0.520970	0.318228
C34	C	1.108240	1.004983	0.298736
C35	C	1.286884	1.004984	0.298743
C36	C	0.679640	1.188862	0.291353
C37	C	0.672346	1.267218	0.288208
C38	C	0.679645	1.012480	0.114853
C39	C	0.672352	1.015672	0.036494
C40	C	0.619640	1.038080	0.595233
C41	C	0.626566	1.035150	0.668857
C42	C	0.735036	0.988560	0.707504
C43	C	0.836599	0.944903	0.672523
C44	C	0.829680	0.947838	0.598900
C45	C	0.766996	0.974950	0.927890
C46	C	0.773904	0.972017	1.001518
C47	C	0.563872	1.062265	0.997847
C48	C	0.556956	1.065192	0.924223
C49	C	0.658524	1.021537	0.889248
N50	N	0.742114	0.985562	0.782760
N51	N	0.651453	1.024539	0.813993
H52	H	0.849523	0.404322	0.364477
O53	O	0.942044	0.899742	0.710136
C54	C	1.044295	0.938144	0.751047
H55	H	0.984809	0.991151	0.759894
H56	H	1.072921	0.907356	0.803994
H57	H	1.157835	0.946976	0.722338
H58	H	0.481317	0.277356	0.206003
O59	O	0.941516	0.593608	0.404208
C60	C	0.859749	0.549179	0.451400
H61	H	0.738998	0.539154	0.426891
H62	H	0.929703	0.497027	0.462979
H63	H	0.844429	0.575429	0.502489
H64	H	0.849694	0.939403	0.899419
O65	O	0.527772	0.600850	0.226243
C66	C	0.433484	0.556640	0.268049
H67	H	0.426742	0.576572	0.322677
H68	H	0.309827	0.556865	0.242533
H69	H	0.487635	0.500734	0.272745
O70	O	0.928172	0.738913	0.398219
C71	C	1.022513	0.783125	0.356440
H72	H	0.961060	0.796316	0.302528
H73	H	1.041362	0.833734	0.383084
H74	H	1.141400	0.755077	0.349925
H75	H	0.912376	0.912290	0.570423
O76	O	0.879059	0.264581	0.377126
C77	C	0.863382	0.192094	0.370398
H78	H	0.807793	0.184237	0.316360
H79	H	0.984612	0.163933	0.376396
H80	H	0.785067	0.169497	0.412995
H81	H	0.531424	0.739932	0.227588
H82	H	0.481183	1.097806	1.026332
H83	H	0.468773	0.410928	0.200623
H84	H	0.531305	1.076015	0.563772
H85	H	0.543870	1.070698	0.697331
H86	H	0.468631	1.103128	0.892758
O87	O	0.879430	0.926744	1.038952
C88	C	0.967572	0.888832	0.992297
H89	H	0.965465	0.919795	0.938629
H90	H	1.094555	0.880425	1.013860
H91	H	0.913974	0.835620	0.986674
