data_functionalizedCrystal
_audit_creation_method	'MofGen! by Chris Wilmer'
_symmetry_space_group_name_H-M	'P1'
_symmetry_Int_Tables_number	1
_symmetry_cell_setting	triclinic
loop_
_symmetry_equiv_pos_as_xyz
  x,y,z
_cell_length_a	12.827893
_cell_length_b	18.050590
_cell_length_c	12.827885
_cell_angle_alpha	89.965317
_cell_angle_beta	89.980728
_cell_angle_gamma	90.018713
loop_
_atom_site_label
_atom_site_type_symbol
_atom_site_fract_x
_atom_site_fract_y
_atom_site_fract_z
Zn1	Zn	1.597647	-0.295620	-0.590813
Zn2	Zn	1.597531	-0.419828	-0.416058
Zn3	Zn	1.422888	-0.295657	-0.416087
Zn4	Zn	1.422864	-0.419773	-0.590758
O5	O	1.510232	-0.357720	-0.503429
O6	O	1.743867	-0.312104	-0.567643
O7	O	1.574326	-0.403395	-0.269826
O8	O	1.446129	-0.191727	-0.439299
O9	O	1.743782	-0.403359	-0.439251
O10	O	1.574523	-0.191701	-0.567670
O11	O	1.446017	-0.312167	-0.269847
O12	O	1.276649	-0.312114	-0.439246
O13	O	1.446087	-0.403266	-0.737002
O14	O	1.276631	-0.403301	-0.567577
O15	O	1.574499	-0.312051	-0.737042
O16	O	1.574303	-0.523745	-0.439198
O17	O	1.445975	-0.523705	-0.567549
C18	C	1.238722	-0.357706	-0.503409
C19	C	1.122569	-0.357718	-0.503426
C20	C	1.070826	-0.312642	-0.567057
C21	C	0.950776	-0.312654	-0.567075
C22	C	1.510152	-0.550672	-0.503388
C23	C	1.510213	-0.633218	-0.503405
C24	C	1.580143	-0.832663	-0.433705
C25	C	1.605673	-0.881988	-0.529080
C26	C	1.510273	-0.784348	-0.503446
C27	C	1.484849	-0.882104	-0.408114
C28	C	1.510332	-0.930333	-0.503478
C29	C	1.535851	-0.832586	-0.598872
C30	C	1.414984	-0.832698	-0.477842
C31	C	1.440477	-0.882000	-0.573282
C32	C	1.510241	-0.700250	-0.503427
C33	C	1.510363	-1.014429	-0.503509
C34	C	1.782802	-0.357734	-0.503450
C35	C	1.898956	-0.357740	-0.503459
C36	C	1.510303	-0.357648	-0.776000
C37	C	1.510334	-0.357618	-0.892153
C38	C	1.510341	-0.164014	-0.503494
C39	C	1.510388	-0.081468	-0.503521
C40	C	1.573883	-0.312473	-0.943957
C41	C	1.573916	-0.312441	-1.064008
C42	C	1.510222	-0.357737	-0.231919
C43	C	1.510394	-0.357558	-0.115767
H44	H	0.906278	-0.274065	-0.621555
O45	O	1.638622	-0.266356	-0.890733
C46	C	1.579080	-0.218431	-0.827626
H47	H	1.499849	-0.244631	-0.811371
H48	H	1.567685	-0.163355	-0.869641
C49	C	1.733775	-0.172908	-0.743859
C50	C	1.636465	-0.205090	-0.723887
H51	H	1.769173	-0.164676	-0.679870
H52	H	1.773890	-0.205194	-0.786378
H53	H	1.724265	-0.127015	-0.778874
H54	H	1.645976	-0.250987	-0.688885
H55	H	1.596352	-0.172812	-0.681361
O56	O	1.069445	-0.403691	-0.438299
C57	C	1.096013	-0.387403	-0.334159
H58	H	1.126100	-0.328086	-0.328998
H59	H	1.159262	-0.427232	-0.306678
C60	C	0.962000	-0.468788	-0.270838
C61	C	0.998945	-0.395932	-0.264497
H62	H	0.902127	-0.474052	-0.227864
H63	H	0.944103	-0.479764	-0.340998
H64	H	1.014717	-0.501971	-0.247939
H65	H	0.946234	-0.362752	-0.287408
H66	H	1.016832	-0.384951	-0.194338
O67	O	1.650793	-0.806846	-0.363534
C68	C	1.751182	-0.831977	-0.390930
H69	H	1.753110	-0.845783	-0.477616
H70	H	1.770824	-0.883677	-0.343786
C71	C	1.829333	-0.753982	-0.260975
C72	C	1.831704	-0.770933	-0.367446
H73	H	1.879004	-0.716330	-0.246485
H74	H	1.761699	-0.737053	-0.242514
H75	H	1.845698	-0.797071	-0.221701
H76	H	1.815326	-0.727848	-0.406717
H77	H	1.899337	-0.787854	-0.385913
H78	H	0.943447	-0.396337	-0.448985
H79	H	1.115404	-0.274040	-0.621516
H80	H	1.686282	-0.903642	-0.550757
O81	O	1.561680	-0.806630	-0.695023
C82	C	1.561354	-0.728525	-0.693840
H83	H	1.573013	-0.708120	-0.610570
H84	H	1.483549	-0.707396	-0.724804
C85	C	1.636028	-0.724373	-0.865476
C86	C	1.650357	-0.699312	-0.763204
H87	H	1.690926	-0.706352	-0.908267
H88	H	1.636244	-0.776994	-0.866275
H89	H	1.571188	-0.706764	-0.891266
H90	H	1.715189	-0.716929	-0.737412
H91	H	1.650153	-0.646693	-0.762402
H92	H	1.381415	-0.903527	-0.632343
H93	H	1.334397	-0.811028	-0.456136
H94	H	1.463322	-0.903855	-0.327480
H95	H	1.628326	-0.273793	-1.108558
O96	O	1.445628	-0.403709	-1.062516
C97	C	1.505143	-0.451666	-0.999391
H98	H	1.584363	-0.425470	-0.983165
H99	H	1.516566	-0.506718	-1.041375
C100	C	1.350412	-0.497244	-0.915570
C101	C	1.447708	-0.465068	-0.895634
H102	H	1.314983	-0.505514	-0.851570
H103	H	1.310314	-0.464937	-0.958101
H104	H	1.359945	-0.543118	-0.950559
H105	H	1.438174	-0.419191	-0.860658
H106	H	1.487803	-0.497368	-0.853095
O107	O	1.445304	-0.403623	-0.945216
C108	C	1.341129	-0.387427	-0.918602
H109	H	1.335847	-0.328126	-0.888545
H110	H	1.313717	-0.427302	-0.855316
C111	C	1.277986	-0.468811	-1.052535
C112	C	1.271497	-0.395975	-1.015628
H113	H	1.235032	-0.474087	-1.112383
H114	H	1.348171	-0.479725	-1.070463
H115	H	1.255144	-0.502032	-0.999788
H116	H	1.294351	-0.362756	-1.068370
H117	H	1.201314	-0.385055	-0.997710
