data_functionalizedCrystal
_audit_creation_method	'MofGen! by Chris Wilmer'
_symmetry_space_group_name_H-M	'P1'
_symmetry_Int_Tables_number	1
_symmetry_cell_setting	triclinic
loop_
_symmetry_equiv_pos_as_xyz
  x,y,z
_cell_length_a	17.019386
_cell_length_b	15.500227
_cell_length_c	17.038272
_cell_angle_alpha	86.966746
_cell_angle_beta	92.752134
_cell_angle_gamma	83.288903
loop_
_atom_site_label
_atom_site_type_symbol
_atom_site_fract_x
_atom_site_fract_y
_atom_site_fract_z
O1	O	-1.060537	0.150877	0.092058
O2	O	-0.727204	0.484211	0.425391
O3	O	-0.393870	0.817544	0.758724
O4	O	-0.830913	0.133789	0.105605
O5	O	-0.497579	0.467122	0.438938
O6	O	-0.164246	0.800456	0.772272
O7	O	-0.944360	0.142225	-0.014978
O8	O	-0.611026	0.475558	0.318356
O9	O	-0.277693	0.808891	0.651689
O10	O	-0.947090	0.142442	0.212640
O11	O	-0.613757	0.475775	0.545973
O12	O	-0.280423	0.809108	0.879307
O13	O	-0.937474	-0.002176	-0.007689
O14	O	-0.604140	0.331157	0.325644
O15	O	-0.270807	0.664491	0.658978
O16	O	-0.824027	-0.010612	0.112894
O17	O	-0.490693	0.322722	0.446227
O18	O	-0.157360	0.656055	0.779560
O19	O	-1.053651	0.006476	0.099346
O20	O	-0.720317	0.339810	0.432680
O21	O	-0.386984	0.673143	0.766013
Cu22	Cu	-0.938210	-0.015253	0.106785
Cu23	Cu	-0.604877	0.318081	0.440119
Cu24	Cu	-0.271543	0.651414	0.773452
Cu25	Cu	-0.946354	0.155518	0.098166
Cu26	Cu	-0.613020	0.488851	0.431499
Cu27	Cu	-0.279687	0.822185	0.764832
O28	O	-0.940204	-0.001959	0.219929
O29	O	-0.606870	0.331374	0.553262
O30	O	-0.273537	0.664707	0.886595
C31	C	-0.797944	0.059391	0.108876
C32	C	-0.464611	0.392725	0.442210
C33	C	-0.131277	0.726058	0.775543
C34	C	-0.709966	0.052844	0.107756
C35	C	-0.376633	0.386177	0.441090
C36	C	-0.043299	0.719511	0.774423
C37	C	-0.672380	0.128474	0.103259
C38	C	-0.339046	0.461808	0.436593
C39	C	-0.005713	0.795141	0.769926
C40	C	-0.589714	0.122310	0.102220
C41	C	-0.256380	0.455643	0.435553
C42	C	0.076953	0.788976	0.768887
C43	C	-0.544635	0.040514	0.105672
C44	C	-0.211302	0.373847	0.439006
C45	C	0.122031	0.707180	0.772339
C46	C	-0.582227	-0.035123	0.110172
C47	C	-0.248894	0.298211	0.443505
C48	C	0.084440	0.631544	0.776839
C49	C	-0.664891	-0.028957	0.111217
C50	C	-0.331558	0.304376	0.444550
C51	C	0.001775	0.637710	0.777884
C52	C	-0.294855	0.017960	0.102722
C53	C	0.038478	0.351293	0.436055
C54	C	0.371812	0.684626	0.769388
C55	C	-0.212185	0.011800	0.101674
C56	C	0.121148	0.345133	0.435007
C57	C	0.454481	0.678466	0.768341
C58	C	-0.219678	0.169233	0.093724
C59	C	0.113656	0.502566	0.427057
C60	C	0.446989	0.835899	0.760390
C61	C	-0.302343	0.175391	0.094764
C62	C	0.030990	0.508724	0.428097
C63	C	0.364323	0.842058	0.761431
C64	C	-0.339927	0.099755	0.099268
C65	C	-0.006594	0.433088	0.432601
C66	C	0.326739	0.766422	0.765935
C67	C	-0.460137	0.034210	0.104608
C68	C	-0.126804	0.367544	0.437941
C69	C	0.206529	0.700877	0.771274
C70	C	-0.424424	0.106059	0.100338
C71	C	-0.091090	0.439392	0.433671
C72	C	0.242243	0.772726	0.767005
N73	N	-0.932488	-0.135363	0.112848
N74	N	-0.599154	0.197970	0.446181
N75	N	-0.265821	0.531304	0.779514
C76	C	-0.980578	-0.177064	0.061771
C77	C	-0.647245	0.156270	0.395104
C78	C	-0.313912	0.489603	0.728438
C79	C	-0.976259	-0.267958	0.066363
C80	C	-0.642925	0.065376	0.399696
C81	C	-0.309592	0.398709	0.733030
C82	C	-0.923852	-0.317149	0.122036
C83	C	-0.590518	0.016184	0.455369
C84	C	-0.257185	0.349517	0.788702
C85	C	-0.875756	-0.275443	0.173114
C86	C	-0.542423	0.057891	0.506448
C87	C	-0.209089	0.391224	0.839781
C88	C	-0.880072	-0.184550	0.168518
C89	C	-0.546739	0.148783	0.501851
C90	C	-0.213405	0.482116	0.835185
C91	C	-0.908302	-0.591772	0.138580
C92	C	-0.574969	-0.258439	0.471913
C93	C	-0.241635	0.074894	0.805247
C94	C	-0.903991	-0.682670	0.143174
C95	C	-0.570658	-0.349337	0.476507
C96	C	-0.237324	-0.016004	0.809840
C97	C	-1.004493	-0.675179	0.036421
C98	C	-0.671160	-0.341846	0.369754
C99	C	-0.337826	-0.008513	0.703088
C100	C	-1.008808	-0.584286	0.031833
C101	C	-0.675475	-0.250952	0.365166
C102	C	-0.342142	0.082381	0.698500
C103	C	-0.960709	-0.542587	0.082909
C104	C	-0.627376	-0.209254	0.416242
C105	C	-0.294043	0.124080	0.749575
C106	C	-0.919437	-0.410057	0.126732
C107	C	-0.586103	-0.076724	0.460066
C108	C	-0.252770	0.256609	0.793399
C109	C	-0.965121	-0.449681	0.078208
C110	C	-0.631787	-0.116347	0.411541
C111	C	-0.298454	0.216986	0.744875
C112	C	-0.086620	0.080876	0.096070
C113	C	0.246713	0.414210	0.429404
C114	C	0.580047	0.747543	0.762737
C115	C	-0.174599	0.087430	0.097177
C116	C	0.158734	0.420764	0.430510
C117	C	0.492068	0.754097	0.763844
C118	C	-0.938434	0.069840	-0.040450
C119	C	-0.605101	0.403173	0.292883
C120	C	-0.271768	0.736506	0.626216
C121	C	-0.931028	0.069289	-0.127210
C122	C	-0.597694	0.402622	0.206124
C123	C	-0.264361	0.735955	0.539457
N124	N	-0.952082	0.275629	0.092097
N125	N	-0.618748	0.608962	0.425431
N126	N	-0.285415	0.942296	0.758764
C127	C	-0.999028	0.074348	-0.177632
C128	C	-0.665695	0.407682	0.155701
C129	C	-0.332361	0.741015	0.489034
C130	C	-0.992065	0.073838	-0.259152
C131	C	-0.658731	0.407172	0.074182
C132	C	-0.325398	0.740505	0.407515
C133	C	-0.917100	0.068262	-0.290246
C134	C	-0.583766	0.401596	0.043087
C135	C	-0.250433	0.734929	0.376420
C136	C	-0.849094	0.063205	-0.239817
C137	C	-0.515761	0.396538	0.093516
C138	C	-0.182428	0.729872	0.426850
C139	C	-0.856059	0.063721	-0.158300
C140	C	-0.522726	0.397055	0.175034
C141	C	-0.189392	0.730388	0.508367
C142	C	-0.892495	0.066443	-0.535893
C143	C	-0.559162	0.399777	-0.202560
C144	C	-0.225829	0.733110	0.130774
C145	C	-0.885536	0.065925	-0.617417
C146	C	-0.552202	0.399258	-0.284083
C147	C	-0.218869	0.732591	0.049250
C148	C	-1.028507	0.076560	-0.636746
C149	C	-0.695173	0.409893	-0.303413
C150	C	-0.361840	0.743226	0.029921
C151	C	-1.035465	0.077070	-0.555226
C152	C	-0.702131	0.410404	-0.221893
C153	C	-0.368798	0.743737	0.111441
C154	C	-0.967459	0.072017	-0.504804
C155	C	-0.634126	0.405351	-0.171471
C156	C	-0.300793	0.738684	0.161863
C157	C	-0.909980	0.067738	-0.373572
C158	C	-0.576647	0.401072	-0.040238
C159	C	-0.243313	0.734405	0.293095
C160	C	-0.974580	0.072548	-0.421481
C161	C	-0.641247	0.405881	-0.088147
C162	C	-0.307913	0.739215	0.245186
C163	C	-0.946129	0.070428	0.245401
C164	C	-0.612796	0.403761	0.578735
C165	C	-0.279463	0.737094	0.912068
C166	C	-0.953536	0.070984	0.332160
C167	C	-0.620203	0.404318	0.665494
C168	C	-0.286869	0.737651	0.998827
H169	H	-0.461129	0.172657	0.097532
H170	H	-0.127796	0.505990	0.430865
H171	H	0.205537	0.839323	0.764199
Cl172	Cl	-0.542466	0.217393	0.096567
Cl173	Cl	-0.209133	0.550726	0.429900
Cl174	Cl	0.124201	0.884059	0.763234
Cl175	Cl	-0.791287	0.058909	-0.656505
Cl176	Cl	-0.457954	0.392243	-0.323172
Cl177	Cl	-0.124620	0.725576	0.010162
H178	H	-1.015417	-0.301910	0.024772
H179	H	-0.682084	0.031424	0.358105
H180	H	-0.348751	0.364757	0.691439
H181	H	-1.060072	0.078883	-0.152322
H182	H	-0.726739	0.412217	0.181011
H183	H	-0.393406	0.745550	0.514345
H184	H	-0.837120	0.062329	-0.494849
H185	H	-0.503787	0.395662	-0.161515
H186	H	-0.170454	0.728995	0.171818
Cl187	Cl	-0.729042	0.231309	0.098914
Cl188	Cl	-0.395709	0.564642	0.432247
Cl189	Cl	-0.062375	0.897976	0.765581
Cl190	Cl	-0.525557	-0.137953	0.114519
Cl191	Cl	-0.192223	0.195381	0.447852
Cl192	Cl	0.141110	0.528714	0.781185
H193	H	-1.007788	-0.409627	0.032876
H194	H	-0.674454	-0.076293	0.366210
H195	H	-0.341121	0.257040	0.699543
H196	H	-0.695492	-0.090544	0.114882
H197	H	-0.362159	0.242790	0.448216
H198	H	-0.028826	0.576123	0.781549
H199	H	-0.423426	-0.032388	0.107416
H200	H	-0.090092	0.300945	0.440750
H201	H	0.243241	0.634278	0.774083
Cl202	Cl	-1.074693	-0.522445	-0.038155
Cl203	Cl	-0.741359	-0.189111	0.295178
Cl204	Cl	-0.408026	0.144222	0.628512
H205	H	-1.047438	0.077956	-0.300203
H206	H	-0.714105	0.411290	0.033130
H207	H	-0.380771	0.744623	0.366463
Cl208	Cl	-0.853556	-0.471902	0.196722
Cl209	Cl	-0.520223	-0.138569	0.530055
Cl210	Cl	-0.186890	0.194765	0.863388
Cl211	Cl	-0.155517	-0.091037	0.105999
Cl212	Cl	0.177816	0.242296	0.439332
Cl213	Cl	0.511150	0.575629	0.772665
H214	H	-1.043652	-0.709139	-0.005163
H215	H	-0.710319	-0.375806	0.328170
H216	H	-0.376985	-0.042472	0.661503
H217	H	-0.869139	-0.557829	0.180169
H218	H	-0.535806	-0.224495	0.513503
H219	H	-0.202473	0.108838	0.846836
H220	H	-0.339041	0.241998	0.091947
H221	H	-0.005708	0.575331	0.425281
H222	H	0.327625	0.908665	0.758614
Cl223	Cl	-0.838103	-0.744506	0.213170
Cl224	Cl	-0.504769	-0.411172	0.546504
Cl225	Cl	-0.171436	-0.077839	0.879837
Cl226	Cl	-1.129711	0.084108	-0.516144
Cl227	Cl	-0.796378	0.417442	-0.182810
Cl228	Cl	-0.463045	0.750775	0.150523
Cl229	Cl	-0.809868	-0.337282	0.243100
Cl230	Cl	-0.476534	-0.003948	0.576434
Cl231	Cl	-0.143201	0.329385	0.909767
Cl232	Cl	-0.754853	0.056206	-0.278908
Cl233	Cl	-0.421519	0.389539	0.054426
Cl234	Cl	-0.088186	0.722873	0.387759
Cl235	Cl	-0.172425	0.264312	0.088054
Cl236	Cl	0.160909	0.597645	0.421387
Cl237	Cl	0.494242	0.930978	0.754720
H238	H	-1.035617	0.077107	-0.396161
H239	H	-0.702284	0.410440	-0.062827
H240	H	-0.368951	0.743774	0.270506
Cl241	Cl	-0.819609	-0.132128	0.232729
Cl242	Cl	-0.486276	0.201205	0.566062
Cl243	Cl	-0.152943	0.534539	0.899396
H244	H	-1.083872	0.080675	-0.677808
H245	H	-0.750539	0.414008	-0.344475
H246	H	-0.417206	0.747342	-0.011141
Cl247	Cl	-0.770569	0.057364	-0.094910
Cl248	Cl	-0.437236	0.390697	0.238423
Cl249	Cl	-0.103902	0.724030	0.571757
Cl250	Cl	-0.342093	-0.077127	0.108382
Cl251	Cl	-0.008759	0.256206	0.441716
Cl252	Cl	0.324574	0.589540	0.775049
H253	H	-0.848943	0.063196	-0.398898
H254	H	-0.515610	0.396530	-0.065565
H255	H	-0.182276	0.729863	0.267769
Cl256	Cl	-1.046469	-0.115232	-0.008217
Cl257	Cl	-0.713136	0.218101	0.325116
Cl258	Cl	-0.379802	0.551435	0.658449
