data_functionalizedCrystal
_audit_creation_method	'MofGen! by Chris Wilmer'
_symmetry_space_group_name_H-M	'P1'
_symmetry_Int_Tables_number	1
_symmetry_cell_setting	triclinic
loop_
_symmetry_equiv_pos_as_xyz
  x,y,z
_cell_length_a	19.077105
_cell_length_b	15.297327
_cell_length_c	15.298431
_cell_angle_alpha	88.343933
_cell_angle_beta	96.995165
_cell_angle_gamma	97.818066
loop_
_atom_site_label
_atom_site_type_symbol
_atom_site_fract_x
_atom_site_fract_y
_atom_site_fract_z
Zn1	Zn	0.952636	-0.302444	-0.611406
Zn2	Zn	0.945782	-0.474008	-0.489867
Zn3	Zn	0.852623	-0.323688	-0.459092
Zn4	Zn	0.813596	-0.443126	-0.628538
O5	O	0.891159	-0.385817	-0.547226
O6	O	1.048902	-0.329236	-0.600994
O7	O	0.946889	-0.475883	-0.364007
O8	O	0.885091	-0.199085	-0.459248
O9	O	1.043867	-0.455283	-0.511699
O10	O	0.958570	-0.183477	-0.571152
O11	O	0.878446	-0.365443	-0.341396
O12	O	0.750271	-0.335499	-0.475860
O13	O	0.818575	-0.402650	-0.748044
O14	O	0.721598	-0.423249	-0.600351
O15	O	0.920727	-0.299291	-0.735457
O16	O	0.909046	-0.591697	-0.528312
O17	O	0.811930	-0.569008	-0.630193
C18	C	0.710737	-0.378329	-0.536626
C19	C	0.633546	-0.375142	-0.532115
C20	C	0.582368	-0.419432	-0.594738
C21	C	0.509841	-0.416426	-0.590502
C22	C	0.488492	-0.369135	-0.523639
C23	C	0.539677	-0.324840	-0.461012
C24	C	0.612203	-0.327841	-0.465253
C25	C	0.273182	-0.355244	-0.504018
C26	C	0.200649	-0.352248	-0.499780
C27	C	0.170818	-0.443834	-0.629272
C28	C	0.243347	-0.446835	-0.633503
C29	C	0.294525	-0.402536	-0.570880
N30	N	0.414357	-0.366064	-0.519306
N31	N	0.368659	-0.405603	-0.575217
C32	C	0.855526	-0.611928	-0.584471
C33	C	0.840342	-0.708656	-0.600437
C34	C	0.999933	-1.028424	-0.433427
C35	C	1.014199	-0.937543	-0.418421
C36	C	0.970736	-0.880317	-0.463924
C37	C	0.913005	-0.913980	-0.524435
C38	C	0.898734	-1.004871	-0.539437
C39	C	0.869537	-0.856764	-0.569934
C40	C	0.811806	-0.890427	-0.630445
C41	C	0.797538	-0.981309	-0.645444
C42	C	0.841001	-1.038535	-0.599941
C43	C	0.883808	-0.765874	-0.554932
C44	C	0.782609	-0.742321	-0.660942
C45	C	0.768343	-0.833201	-0.675947
C46	C	1.072286	-0.393335	-0.557868
C47	C	1.149471	-0.396538	-0.562404
C48	C	0.866062	-0.345156	-0.774209
C49	C	0.855367	-0.327829	-0.870936
C50	C	0.926948	-0.158820	-0.509856
C51	C	0.942200	-0.062088	-0.493931
C52	C	0.814707	-0.262186	-0.904599
C53	C	0.804649	-0.245907	-0.995478
C54	C	0.835256	-0.295265	-1.052703
C55	C	0.875921	-0.360905	-1.019040
C56	C	0.885975	-0.377190	-0.928152
C57	C	0.906523	-0.410269	-1.076256
C58	C	0.947188	-0.475910	-1.042592
C59	C	0.957241	-0.492192	-0.951713
C60	C	0.926635	-0.442834	-0.894489
C61	C	0.896469	-0.393984	-1.167143
C62	C	0.967737	-0.508989	-1.190696
C63	C	0.977795	-0.525268	-1.099817
C64	C	0.916209	-0.426258	-0.321118
C65	C	0.927077	-0.443346	-0.224359
H66	H	0.599743	-0.457945	-0.649184
H67	H	0.992661	-0.549178	-1.237289
H68	H	0.990343	-0.545652	-0.924310
N69	N	0.735267	-1.017609	-0.710706
H70	H	0.753087	-1.049213	-0.758935
H71	H	0.701116	-1.060332	-0.679584
H72	H	0.982355	-0.806319	-0.451702
H73	H	0.829390	-1.112538	-0.612158
H74	H	1.061203	-0.910138	-0.369153
H75	H	0.934825	-0.456082	-0.820486
H76	H	0.468173	-0.452493	-0.641496
H77	H	0.653873	-0.291770	-0.414262
H78	H	0.930813	-0.738474	-0.505663
H79	H	0.789787	-0.222010	-0.858001
H80	H	1.035310	-1.075025	-0.396379
H81	H	0.260722	-0.485347	-0.687949
N82	N	0.706077	-0.869513	-0.741209
H83	H	0.703635	-0.935771	-0.743805
H84	H	0.660477	-0.854067	-0.722091
N85	N	0.735727	-0.680605	-0.710018
H86	H	0.765387	-0.636791	-0.745800
H87	H	0.696992	-0.715785	-0.750573
N88	N	0.328376	-0.307451	-0.436488
H89	H	0.303844	-0.277036	-0.393491
H90	H	0.357360	-0.351266	-0.403733
H91	H	1.010904	-0.578713	-1.072395
H92	H	0.183272	-0.313727	-0.445336
H93	H	0.522289	-0.286330	-0.406574
N94	N	0.852610	-0.323194	-1.203447
H95	H	0.874947	-0.264292	-1.178029
H96	H	0.850895	-0.320446	-1.269701
N97	N	0.115620	-0.491611	-0.696813
H98	H	0.066435	-0.482536	-0.683984
H99	H	0.123554	-0.467550	-0.757512
N100	N	0.824419	-0.277705	-1.150723
H101	H	0.799822	-0.332953	-1.181696
H102	H	0.794036	-0.228606	-1.163292
H103	H	0.771537	-0.192465	-1.022881
