data_functionalizedCrystal
_audit_creation_method	'MofGen! by Chris Wilmer'
_symmetry_space_group_name_H-M	'P1'
_symmetry_Int_Tables_number	1
_symmetry_cell_setting	triclinic
loop_
_symmetry_equiv_pos_as_xyz
  x,y,z
_cell_length_a	10.723024
_cell_length_b	10.268362
_cell_length_c	10.723023
_cell_angle_alpha	90.004269
_cell_angle_beta	84.467709
_cell_angle_gamma	90.004272
loop_
_atom_site_label
_atom_site_type_symbol
_atom_site_fract_x
_atom_site_fract_y
_atom_site_fract_z
O1	O	1.657188	0.108289	0.175028
O2	O	1.294036	0.108293	0.191782
O3	O	1.483989	0.108285	0.001829
O4	O	1.467235	0.108296	0.364981
O5	O	1.483972	-0.108315	0.001821
O6	O	1.294019	-0.108308	0.191774
O7	O	1.657171	-0.108312	0.175020
Cu8	Cu	1.475594	-0.128087	0.183396
Cu9	Cu	1.475613	0.128068	0.183406
O10	O	1.467218	-0.108304	0.364973
C11	C	1.247528	-0.000007	0.190558
C12	C	1.108973	-0.000005	0.186911
N13	N	1.475589	-0.308253	0.183389
C14	C	1.033991	-0.000001	0.293198
C15	C	0.890787	0.000000	0.289431
C16	C	1.475607	-0.573924	0.183403
C17	C	1.475593	-0.426086	0.183399
C18	C	1.703679	-0.000009	0.176243
C19	C	1.842234	-0.000002	0.179891
C20	C	1.482762	-0.000014	-0.044675
C21	C	1.479114	-0.000009	-0.183229
N22	N	1.475628	0.308234	0.183403
C23	C	1.477497	0.112198	-0.244991
C24	C	1.473727	0.112205	-0.388194
C25	C	1.468445	-0.000003	0.411477
C26	C	1.472093	0.000002	0.550031
H27	H	1.075812	-0.000006	0.386984
F28	F	1.471919	0.237774	-0.457614
F29	F	0.806573	0.000014	0.408367
F30	F	0.926440	0.000003	0.060950
F31	F	1.054316	-0.000018	0.064321
H32	H	1.478898	0.208258	-0.191849
H33	H	1.473490	-0.096068	-0.396864
H34	H	1.477700	-0.096069	-0.236369
