data_functionalizedCrystal
_audit_creation_method	'MofGen! by Chris Wilmer'
_symmetry_space_group_name_H-M	'P1'
_symmetry_Int_Tables_number	1
_symmetry_cell_setting	triclinic
loop_
_symmetry_equiv_pos_as_xyz
  x,y,z
_cell_length_a	17.699097
_cell_length_b	10.654551
_cell_length_c	16.776229
_cell_angle_alpha	90.000568
_cell_angle_beta	90.009351
_cell_angle_gamma	83.886896
loop_
_atom_site_label
_atom_site_type_symbol
_atom_site_fract_x
_atom_site_fract_y
_atom_site_fract_z
O1	O	1.005082	0.158882	0.066350
O2	O	1.505082	0.658882	0.566350
O3	O	0.784836	0.179526	0.066336
O4	O	1.284836	0.679526	0.566336
O5	O	0.900022	-0.013623	0.066343
O6	O	1.400022	0.486377	0.566343
O7	O	0.889895	0.352032	0.066342
O8	O	1.389895	0.852032	0.566342
O9	O	0.900009	-0.013624	-0.066233
O10	O	1.400009	0.486376	0.433767
O11	O	0.784823	0.179526	-0.066241
O12	O	1.284823	0.679526	0.433759
O13	O	1.005068	0.158882	-0.066227
O14	O	1.505068	0.658882	0.433773
Zn15	Zn	0.894943	0.169204	-0.087283
Zn16	Zn	1.394943	0.669204	0.412717
Zn17	Zn	0.894961	0.169204	0.087392
Zn18	Zn	1.394961	0.669204	0.587392
O19	O	0.889882	0.352031	-0.066234
O20	O	1.389882	0.852031	0.433766
C21	C	0.756628	0.178783	0.000046
C22	C	1.256628	0.678783	0.500046
C23	C	0.672596	0.176556	0.000041
C24	C	1.172596	0.676556	0.500041
C25	C	0.899272	-0.060408	0.000057
C26	C	1.399272	0.439592	0.500057
C27	C	0.897047	-0.199813	0.000062
C28	C	1.397047	0.300187	0.500062
C29	C	0.156798	0.162902	0.072341
C30	C	0.656798	0.662902	0.572341
C31	C	0.235755	0.164986	0.072337
C32	C	0.735755	0.664986	0.572337
C33	C	0.275221	0.166030	0.000066
C34	C	0.775221	0.666030	0.500066
C35	C	0.235726	0.164977	-0.072205
C36	C	0.735726	0.664977	0.427795
C37	C	0.156770	0.162883	-0.072201
C38	C	0.656770	0.662883	0.427799
C39	C	0.554143	0.173418	-0.072226
C40	C	1.054143	0.673418	0.427774
C41	C	0.633104	0.175515	-0.072226
C42	C	1.133104	0.675515	0.427774
C43	C	0.633128	0.175521	0.072311
C44	C	1.133128	0.675521	0.572311
C45	C	0.554173	0.173427	0.072316
C46	C	1.054173	0.673427	0.572316
C47	C	0.514685	0.172367	0.000045
C48	C	1.014685	0.672367	0.500045
C49	C	0.429071	0.170105	0.000050
C50	C	0.929071	0.670105	0.500050
C51	C	0.360833	0.168302	0.000060
C52	C	0.860833	0.668302	0.500060
C53	C	0.896010	-0.265306	0.072328
C54	C	1.396010	0.234694	0.572328
C55	C	0.893913	-0.396290	0.072324
C56	C	1.393913	0.103710	0.572324
C57	C	0.893892	-0.396276	-0.072218
C58	C	1.393892	0.103724	0.427782
C59	C	0.895984	-0.265293	-0.072213
C60	C	1.395984	0.234707	0.427787
C61	C	0.897073	-0.199826	0.144604
C62	C	1.397073	0.300174	0.644604
C63	C	0.896037	-0.265319	0.216875
C64	C	1.396037	0.234681	0.716875
C65	C	0.893940	-0.396303	0.216872
C66	C	1.393940	0.103697	0.716872
C67	C	0.892878	-0.461793	0.144596
C68	C	1.392878	0.038207	0.644596
C69	C	1.033276	0.159625	0.000065
C70	C	1.533276	0.659625	0.500065
C71	C	1.117308	0.161852	0.000075
C72	C	1.617308	0.661852	0.500075
C73	C	0.890632	0.398816	0.000054
C74	C	1.390632	0.898816	0.500054
C75	C	0.892858	0.538221	0.000054
C76	C	1.392858	1.038221	0.500054
N77	N	0.894937	0.169202	-0.206494
N78	N	1.394937	0.669202	0.293506
C79	C	0.941236	0.245279	-0.248205
C80	C	1.441236	0.745279	0.251795
C81	C	0.941244	0.245274	-0.331657
C82	C	1.441244	0.745274	0.168343
C83	C	0.894949	0.169199	-0.373397
C84	C	1.394949	0.669199	0.126603
C85	C	0.848649	0.093114	-0.331680
C86	C	1.348649	0.593114	0.168320
C87	C	0.848645	0.093112	-0.248230
C88	C	1.348645	0.593112	0.251770
C89	C	0.848664	0.093115	-0.668228
C90	C	1.348664	0.593115	-0.168228
C91	C	0.848670	0.093125	-0.751684
C92	C	1.348670	0.593125	-0.251684
C93	C	0.941263	0.245277	-0.751655
C94	C	1.441263	0.745277	-0.251655
C95	C	0.941259	0.245276	-0.668205
C96	C	1.441259	0.745276	-0.168205
C97	C	0.894962	0.169186	-0.626495
C98	C	1.394962	0.669186	-0.126495
C99	C	0.894955	0.169190	-0.536007
C100	C	1.394955	0.669190	-0.036007
C101	C	0.894952	0.169200	-0.463884
C102	C	1.394952	0.669200	0.036116
N103	N	0.894973	0.169196	0.206603
N104	N	1.394973	0.669196	0.706603
H105	H	0.124670	0.162061	0.131192
H106	H	0.624670	0.662061	0.631192
F107	F	0.675161	0.176641	0.149229
F108	F	1.175161	0.676641	0.649229
F109	F	0.897164	-0.195619	0.293792
F110	F	1.397164	0.304381	0.793792
F111	F	0.512126	0.172316	-0.149144
F112	F	1.012126	0.672316	0.350856
H113	H	0.267865	0.165819	-0.131049
H114	H	0.767865	0.665819	0.368951
F115	F	0.990520	0.326247	-0.376046
F116	F	1.490520	0.826247	0.123954
F117	F	0.897091	-0.195587	-0.149127
F118	F	1.397091	0.304413	0.350873
F119	F	0.675105	0.176625	-0.149150
F120	F	1.175105	0.676625	0.350850
H121	H	0.893088	-0.449623	0.275719
H122	H	1.393088	0.050377	0.775719
F123	F	0.990508	0.326253	-0.203790
F124	F	1.490508	0.826253	0.296210
H125	H	0.978954	0.307229	-0.634224
H126	H	1.478954	0.807229	-0.134224
F127	F	0.990539	0.326256	-0.796052
F128	F	1.490539	0.826256	-0.296052
F129	F	0.114743	0.161757	-0.149116
F130	F	0.614743	0.661757	0.350884
F131	F	0.890639	-0.601198	0.144596
F132	F	1.390639	-0.101198	0.644596
F133	F	0.799395	0.012150	-0.796105
F134	F	1.299395	0.512150	-0.296105
H135	H	0.810966	0.031158	-0.634278
H136	H	1.310966	0.531158	-0.134278
F137	F	0.892763	-0.465979	-0.149133
F138	F	1.392763	0.034021	0.350867
H139	H	0.810959	0.031165	-0.365672
H140	H	1.310959	0.531165	0.134328
F141	F	0.799374	0.012131	-0.203838
F142	F	1.299374	0.512131	0.296162
H143	H	0.267905	0.165833	0.131183
H144	H	0.767905	0.665833	0.631183
H145	H	0.898782	-0.093173	0.144615
H146	H	1.398782	0.406827	0.644615
F147	F	0.512175	0.172322	0.149236
F148	F	1.012175	0.672322	0.649236
