data_functionalizedCrystal
_audit_creation_method	'MofGen! by Chris Wilmer'
_symmetry_space_group_name_H-M	'P1'
_symmetry_Int_Tables_number	1
_symmetry_cell_setting	triclinic
loop_
_symmetry_equiv_pos_as_xyz
  x,y,z
_cell_length_a	10.540558
_cell_length_b	9.016244
_cell_length_c	10.540510
_cell_angle_alpha	90.000273
_cell_angle_beta	84.523224
_cell_angle_gamma	89.993943
loop_
_atom_site_label
_atom_site_type_symbol
_atom_site_fract_x
_atom_site_fract_y
_atom_site_fract_z
O1	O	-1.685860	0.123288	-0.179011
O2	O	-1.316448	0.123299	-0.195842
O3	O	-1.509602	0.123293	-0.002718
O4	O	-1.492707	0.123294	-0.372135
O5	O	-1.509573	-0.123388	-0.002722
O6	O	-1.316420	-0.123381	-0.195846
O7	O	-1.685832	-0.123393	-0.179015
Cu8	Cu	-1.501123	-0.145911	-0.187431
Cu9	Cu	-1.501157	0.145817	-0.187426
O10	O	-1.492678	-0.123387	-0.372139
C11	C	-1.269132	-0.000040	-0.194577
C12	C	-1.128185	-0.000035	-0.190785
N13	N	-1.501109	-0.351097	-0.187434
C14	C	-0.944775	-0.000614	-0.045854
C15	C	-1.091392	-0.000041	-0.049698
C16	C	-1.066522	0.140826	-0.258675
C17	C	-0.919979	0.140926	-0.253850
C18	C	-0.919458	-0.139596	-0.256725
C19	C	-1.066439	-0.141440	-0.258034
C20	C	-1.397467	-0.586126	-0.290396
C21	C	-1.397697	-0.414235	-0.290781
C22	C	-1.633828	-0.413440	-0.217577
C23	C	-1.633262	-0.585385	-0.218306
C24	C	-1.473350	-0.585640	-0.053992
C25	C	-1.470304	-0.413686	-0.054856
C26	C	-0.733150	-0.000055	-0.180263
C27	C	-0.874103	-0.000062	-0.184004
C28	C	-1.508329	-0.000045	0.044584
C29	C	-1.504562	-0.000036	0.185534
N30	N	-1.501181	0.351003	-0.187413
C31	C	-1.493951	-0.000046	-0.419440
C32	C	-1.497718	-0.000045	-0.560391
C33	C	-1.638745	-0.000605	0.402980
C34	C	-1.642763	-0.000041	0.256384
C35	C	-1.433833	0.140830	0.230300
C36	C	-1.430793	0.140941	0.377061
C37	C	-1.427883	-0.139581	0.376865
C38	C	-1.434438	-0.141436	0.230523
H39	H	-1.133999	-0.101016	0.003721
H40	H	-1.107394	-0.245649	-0.208438
H41	H	-1.485903	-0.245647	0.201906
H42	H	-0.916185	-0.101635	0.009883
H43	H	-1.088864	0.146068	-0.362286
H44	H	-1.298545	-0.627517	-0.272536
O45	O	-1.709682	0.132447	0.460593
H46	H	-1.661540	0.235464	0.423966
H47	H	-1.698105	-0.101018	0.227035
O48	O	-1.300791	-0.152695	0.165522
H49	H	-1.231450	-0.151314	0.238420
O50	O	-1.290443	-0.140864	0.406225
H51	H	-1.271899	-0.042660	0.465211
H52	H	-1.692575	-0.101627	0.444930
O53	O	-0.904783	0.132433	0.027690
H54	H	-0.834794	0.198955	-0.033727
O55	O	-1.716505	0.133952	0.218734
H56	H	-1.749422	0.198608	0.305282
H57	H	-1.415124	-0.629320	-0.388822
O58	O	-1.421399	-0.359710	-0.421894
H59	H	-1.432755	-0.456155	-0.485267
O60	O	-1.495067	0.280410	0.430074
H61	H	-1.426430	0.346451	0.480343
O62	O	-1.666804	-0.356394	-0.345059
H63	H	-1.678756	-0.451497	-0.409714
O64	O	-1.146728	0.133945	0.021556
H65	H	-1.105498	0.236265	-0.024129
O66	O	-1.267064	-0.358394	-0.266792
H67	H	-1.274498	-0.289785	-0.178963
O68	O	-1.098504	-0.152706	-0.394291
H69	H	-1.053474	-0.253649	-0.438898
H70	H	-1.378616	-0.629085	-0.025306
O71	O	-0.882621	0.280379	-0.187350
H72	H	-0.969186	0.347108	-0.158930
H73	H	-0.887905	-0.246369	-0.211066
H74	H	-1.712911	-0.626970	-0.146321
H75	H	-0.872221	-0.140548	-0.358627
O76	O	-0.856410	0.149426	-0.388239
H77	H	-0.930375	0.153458	-0.456384
O78	O	-1.293884	0.149447	0.407548
H79	H	-1.230137	0.153475	0.317499
H80	H	-1.109127	0.245659	-0.211511
H81	H	-1.657605	-0.625474	-0.315646
O82	O	-1.738568	-0.359271	-0.120944
H83	H	-1.697042	-0.287160	-0.050244
O84	O	-1.340967	-0.359738	-0.024596
H85	H	-1.340841	-0.236694	-0.021282
H86	H	-1.540839	-0.370713	0.025461
H87	H	-1.548969	-0.626295	0.022659
O88	O	-1.299067	0.147802	0.167535
H89	H	-1.281030	0.050710	0.103611
O90	O	-1.499233	0.279698	0.189899
H91	H	-1.582059	0.248744	0.137892
O92	O	-1.485726	-0.281022	0.433058
H93	H	-1.564904	-0.253438	0.506343
