data_functionalizedCrystal
_audit_creation_method	'MofGen! by Chris Wilmer'
_symmetry_space_group_name_H-M	'P1'
_symmetry_Int_Tables_number	1
_symmetry_cell_setting	triclinic
loop_
_symmetry_equiv_pos_as_xyz
  x,y,z
_cell_length_a	11.026607
_cell_length_b	15.944551
_cell_length_c	9.482900
_cell_angle_alpha	99.334197
_cell_angle_beta	78.636152
_cell_angle_gamma	96.042377
loop_
_atom_site_label
_atom_site_type_symbol
_atom_site_fract_x
_atom_site_fract_y
_atom_site_fract_z
O1	O	1.629108	0.341447	-0.120915
O2	O	1.275798	0.301394	-0.120914
O3	O	1.462099	0.200605	-0.120901
O4	O	1.442807	0.442235	-0.120927
O5	O	1.424257	0.221183	0.120889
O6	O	1.237956	0.321972	0.120876
O7	O	1.591266	0.362024	0.120875
Cu8	Cu	1.411156	0.343877	0.142953
Cu9	Cu	1.455908	0.319541	-0.142992
O10	O	1.404965	0.462813	0.120862
C11	C	1.211666	0.304294	-0.000019
C12	C	1.076950	0.282267	-0.000019
C13	C	1.003151	0.343086	-0.000026
C14	C	0.863914	0.320322	-0.000026
C15	C	1.442377	0.179479	-0.000006
C16	C	1.439975	0.085870	-0.000005
C17	C	1.318759	-0.147313	-0.000025
C18	C	1.356391	-0.189675	0.119192
C19	C	1.435632	-0.085514	-0.000016
C20	C	1.393728	-0.209942	-0.119194
C21	C	1.431430	-0.251064	-0.000034
C22	C	1.473281	-0.126634	0.119299
C23	C	1.510618	-0.146907	-0.119194
C24	C	1.548331	-0.189236	0.000052
C25	C	1.438050	0.009855	-0.000005
C26	C	1.429020	-0.346429	-0.000034
C27	C	1.655399	0.359124	-0.000023
C28	C	1.790116	0.381150	-0.000033
C29	C	1.424688	0.483939	-0.000036
C30	C	1.427091	0.577547	-0.000046
N31	N	1.379688	0.360994	0.344071
N32	N	1.487386	0.302419	-0.344110
C33	C	1.446618	0.324584	0.416275
C34	C	1.420446	0.338834	0.583690
H35	H	1.043047	0.412009	-0.000025
Cl36	Cl	1.015360	0.175853	0.000003
Cl37	Cl	0.802330	0.213904	-0.000004
Cl38	Cl	1.606038	0.238218	0.559994
H39	H	1.575784	-0.127888	-0.219988
Cl40	Cl	1.341727	-0.265745	-0.274792
H41	H	1.523292	0.282860	0.354152
Cl42	Cl	0.851692	0.487571	-0.000024
Cl43	Cl	1.261294	0.425404	0.439976
H44	H	1.221729	-0.128660	0.000094
H45	H	1.506881	-0.090590	0.220198
Cl46	Cl	1.255719	-0.219015	0.274802
Cl47	Cl	1.698222	-0.217765	0.000150
Cl48	Cl	1.302046	0.403247	0.679590
