data_functionalizedCrystal
_audit_creation_method	'MofGen! by Chris Wilmer'
_symmetry_space_group_name_H-M	'P1'
_symmetry_Int_Tables_number	1
_symmetry_cell_setting	triclinic
loop_
_symmetry_equiv_pos_as_xyz
  x,y,z
_cell_length_a	21.295418
_cell_length_b	25.639239
_cell_length_c	21.295411
_cell_angle_alpha	90.019526
_cell_angle_beta	90.043738
_cell_angle_gamma	90.054499
loop_
_atom_site_label
_atom_site_type_symbol
_atom_site_fract_x
_atom_site_fract_y
_atom_site_fract_z
Zn1	Zn	0.962320	-0.207990	0.356243
Zn2	Zn	1.295653	0.125344	0.689576
Zn3	Zn	1.628987	0.458677	1.022910
Zn4	Zn	0.962207	-0.295410	0.250972
Zn5	Zn	1.295541	0.037924	0.584305
Zn6	Zn	1.628874	0.371257	0.917639
Zn7	Zn	0.857043	-0.208014	0.250953
Zn8	Zn	1.190377	0.125319	0.584286
Zn9	Zn	1.523710	0.458652	0.917619
Zn10	Zn	0.856998	-0.295420	0.356169
Zn11	Zn	1.190331	0.037913	0.689502
Zn12	Zn	1.523664	0.371247	1.022835
O13	O	0.909642	-0.251708	0.303584
O14	O	1.242975	0.081625	0.636917
O15	O	1.576309	0.414958	0.970251
O16	O	1.050395	-0.219572	0.342318
O17	O	1.383728	0.113762	0.675651
O18	O	1.717061	0.447095	1.008984
O19	O	0.948229	-0.283822	0.162880
O20	O	1.281562	0.049511	0.496213
O21	O	1.614896	0.382844	0.829547
O22	O	0.871075	-0.134846	0.264943
O23	O	1.204408	0.198488	0.598276
O24	O	1.537741	0.531821	0.931609
O25	O	1.050312	-0.283799	0.264976
O26	O	1.383645	0.049535	0.598309
O27	O	1.716978	0.382868	0.931642
O28	O	0.948421	-0.134828	0.342299
O29	O	1.281754	0.198506	0.675632
O30	O	1.615088	0.531839	1.008965
O31	O	0.870965	-0.219613	0.162866
O32	O	1.204299	0.113720	0.496199
O33	O	1.537632	0.447053	0.829532
O34	O	0.768948	-0.219623	0.264871
O35	O	1.102281	0.113710	0.598204
O36	O	1.435614	0.447043	0.931537
O37	O	0.870997	-0.283816	0.444268
O38	O	1.204330	0.049517	0.777601
O39	O	1.537664	0.382850	1.110935
O40	O	0.768914	-0.283840	0.342172
O41	O	1.102248	0.049493	0.675506
O42	O	1.435581	0.382827	1.008839
O43	O	0.948377	-0.219582	0.444322
O44	O	1.281710	0.113752	0.777656
O45	O	1.615043	0.447085	1.110989
O46	O	0.948185	-0.368576	0.264904
O47	O	1.281518	-0.035243	0.598237
O48	O	1.614852	0.298090	0.931570
O49	O	0.870888	-0.368584	0.342191
O50	O	1.204221	-0.035251	0.675524
O51	O	1.537554	0.298083	1.008858
C52	C	0.746090	-0.251736	0.303512
C53	C	1.079424	0.081597	0.636845
C54	C	1.412757	0.414931	0.970178
C55	C	0.676122	-0.251760	0.303496
C56	C	1.009456	0.081573	0.636829
C57	C	1.342789	0.414906	0.970162
C58	C	0.909536	-0.387551	0.303555
C59	C	1.242870	-0.054218	0.636889
C60	C	1.576203	0.279116	0.970222
C61	C	0.909548	-0.445665	0.303564
C62	C	1.242882	-0.112332	0.636897
C63	C	1.576215	0.221002	0.970231
C64	C	0.643255	-0.285242	0.343686
C65	C	0.976588	0.048091	0.677020
C66	C	1.309921	0.381424	1.010353
C67	C	0.577512	-0.285229	0.343715
C68	C	0.910845	0.048104	0.677048
C69	C	1.244179	0.381437	1.010381
C70	C	0.544640	-0.251740	0.303541
C71	C	0.877973	0.081593	0.636874
C72	C	1.211306	0.414927	0.970207
C73	C	0.577515	-0.218252	0.263347
C74	C	0.910849	0.115082	0.596680
C75	C	1.244182	0.448415	0.930014
C76	C	0.643257	-0.218262	0.263325
C77	C	0.976590	0.115072	0.596658
C78	C	1.309923	0.448405	0.929991
N79	N	0.441365	-0.247648	0.248483
N80	N	0.774698	0.085686	0.581816
N81	N	1.108031	0.419019	0.915150
N82	N	0.378913	-0.247641	0.248506
N83	N	0.712246	0.085692	0.581840
N84	N	1.045580	0.419026	0.915173
C85	C	0.346565	-0.251707	0.303608
C86	C	0.679898	0.081627	0.636941
C87	C	1.013232	0.414960	0.970274
N88	N	0.379028	-0.255789	0.358686
N89	N	0.712361	0.077544	0.692019
N90	N	1.045695	0.410877	1.025353
N91	N	0.441485	-0.255799	0.358662
N92	N	0.774818	0.077535	0.691995
N93	N	1.108152	0.410868	1.025328
C94	C	0.473354	-0.251725	0.303561
C95	C	0.806688	0.081608	0.636894
C96	C	1.140021	0.414942	0.970228
C97	C	0.242412	-0.285176	0.343832
C98	C	0.575745	0.048157	0.677166
C99	C	0.909079	0.381490	1.010499
C100	C	0.176668	-0.285160	0.343862
C101	C	0.510002	0.048173	0.677195
C102	C	0.843335	0.381507	1.010528
C103	C	0.176673	-0.218185	0.263489
C104	C	0.510006	0.115148	0.596822
C105	C	0.843339	0.448482	0.930155
C106	C	0.242415	-0.218199	0.263465
C107	C	0.575749	0.115135	0.596798
C108	C	0.909082	0.448468	0.930132
C109	C	0.275281	-0.251697	0.303636
C110	C	0.608614	0.081636	0.636969
C111	C	0.941948	0.414969	0.970303
C112	C	0.949996	-0.806011	0.263409
C113	C	1.283329	-0.472678	0.596742
C114	C	1.616662	-0.139345	0.930076
C115	C	0.950020	-0.860616	0.263418
C116	C	1.283353	-0.527282	0.596751
C117	C	1.616687	-0.193949	0.930084
O118	O	0.984300	-0.888838	0.229245
O119	O	1.317633	-0.555505	0.562578
O120	O	1.650967	-0.222172	0.895912
N121	N	0.909753	-0.887947	0.303626
N122	N	1.243086	-0.554614	0.636959
N123	N	1.576419	-0.221281	0.970292
C124	C	0.869463	-0.860672	0.343833
C125	C	1.202796	-0.527339	0.677166
C126	C	1.536129	-0.194005	1.010499
O127	O	0.835215	-0.888934	0.378034
O128	O	1.168548	-0.555600	0.711368
O129	O	1.501881	-0.222267	1.044701
C130	C	0.869442	-0.806069	0.343827
C131	C	1.202775	-0.472735	0.677160
C132	C	1.536109	-0.139402	1.010494
C133	C	0.909708	-0.778740	0.303612
C134	C	1.243041	-0.445406	0.636945
C135	C	1.576374	-0.112073	0.970278
C136	C	0.990259	-0.778683	0.223198
C137	C	1.323592	-0.445349	0.556531
C138	C	1.656925	-0.112016	0.889864
C139	C	0.990233	-0.724082	0.223188
C140	C	1.323567	-0.390749	0.556522
C141	C	1.656900	-0.057415	0.889855
C142	C	0.949945	-0.696810	0.263391
C143	C	1.283278	-0.363477	0.596724
C144	C	1.616612	-0.030144	0.930058
C145	C	0.909682	-0.724139	0.303603
C146	C	1.243016	-0.390806	0.636936
C147	C	1.576349	-0.057473	0.970269
C148	C	0.829156	-0.778794	0.384037
C149	C	1.162489	-0.445461	0.717370
C150	C	1.495822	-0.112127	1.050703
C151	C	0.829139	-0.724187	0.384028
C152	C	1.162472	-0.390854	0.717361
C153	C	1.495805	-0.057520	1.050695
C154	C	0.869404	-0.696858	0.343812
C155	C	1.202738	-0.363525	0.677146
C156	C	1.536071	-0.030192	1.010479
C157	C	0.869369	-0.642267	0.343796
C158	C	1.202702	-0.308934	0.677129
C159	C	1.536035	0.024400	1.010463
N160	N	0.909636	-0.614935	0.303588
N161	N	1.242969	-0.281602	0.636921
N162	N	1.576303	0.051731	0.970254
C163	C	0.949924	-0.642207	0.263385
C164	C	1.283258	-0.308874	0.596719
C165	C	1.616591	0.024460	0.930052
C166	C	0.869510	-0.975343	0.343842
C167	C	1.202844	-0.642009	0.677176
C168	C	1.536177	-0.308676	1.010509
C169	C	0.869527	-1.029945	0.343845
C170	C	1.202861	-0.696611	0.677179
C171	C	1.536194	-0.363278	1.010512
C172	C	0.950086	-1.029885	0.263431
C173	C	1.283419	-0.696552	0.596764
C174	C	1.616752	-0.363218	0.930098
C175	C	0.950065	-0.975282	0.263425
C176	C	1.283398	-0.641948	0.596759
C177	C	1.616732	-0.308615	0.930092
C178	C	0.909778	-0.948011	0.303634
C179	C	1.243111	-0.614678	0.636968
C180	C	1.576444	-0.281344	0.970301
C181	C	0.949868	-0.527542	0.263369
C182	C	1.283201	-0.194209	0.596702
C183	C	1.616534	0.139125	0.930035
C184	C	0.949837	-0.472937	0.263361
C185	C	1.283170	-0.139603	0.596695
C186	C	1.616503	0.193730	0.930028
C187	C	0.869281	-0.473001	0.343778
C188	C	1.202614	-0.139668	0.677111
C189	C	1.535948	0.193665	1.010445
C190	C	0.869309	-0.527602	0.343783
C191	C	1.202642	-0.194269	0.677117
C192	C	1.535976	0.139065	1.010450
C193	C	0.909607	-0.554871	0.303577
C194	C	1.242941	-0.221538	0.636910
C195	C	1.576274	0.111796	0.970243
O196	O	0.835108	-0.614010	0.377953
O197	O	1.168441	-0.280676	0.711286
O198	O	1.501775	0.052657	1.044620
O199	O	0.984172	-0.613939	0.229195
O200	O	1.317506	-0.280605	0.562529
O201	O	1.650839	0.052728	0.895862
C202	C	1.073832	-0.251681	0.303657
C203	C	1.407166	0.081652	0.636990
C204	C	1.740499	0.414985	0.970324
C205	C	1.143801	-0.251670	0.303688
C206	C	1.477134	0.081664	0.637022
C207	C	1.810467	0.414997	0.970355
C208	C	0.909694	-0.251697	0.467774
C209	C	1.243028	0.081636	0.801108
C210	C	1.576361	0.414969	1.134441
C211	C	0.909717	-0.251693	0.537743
C212	C	1.243050	0.081641	0.871076
C213	C	1.576383	0.414974	1.204409
C214	C	0.909766	-0.115335	0.303627
C215	C	1.243099	0.217998	0.636960
C216	C	1.576432	0.551331	0.970293
C217	C	0.909818	-0.057221	0.303645
C218	C	1.243151	0.276112	0.636978
C219	C	1.576485	0.609445	0.970312
C220	C	0.909626	-0.251682	0.140032
C221	C	1.242960	0.081652	0.473366
C222	C	1.576293	0.414985	0.806699
C223	C	0.909726	-0.251539	0.070065
C224	C	1.243059	0.081794	0.403398
C225	C	1.576393	0.415128	0.736731
C226	C	0.950007	-0.218244	0.570639
C227	C	1.283340	0.115089	0.903972
C228	C	1.616673	0.448423	1.237305
C229	C	0.950006	-0.218221	0.636381
C230	C	1.283339	0.115112	0.969714
C231	C	1.616672	0.448445	1.303048
C232	C	0.909721	-0.251657	0.669225
C233	C	1.243055	0.081677	1.002558
C234	C	1.576388	0.415010	1.335892
C235	C	0.869424	-0.285108	0.636321
C236	C	1.202757	0.048226	0.969654
C237	C	1.536090	0.381559	1.302988
C238	C	0.869421	-0.285126	0.570580
C239	C	1.202755	0.048208	0.903913
C240	C	1.536088	0.381541	1.237246
N241	N	0.904857	-0.297396	0.772441
N242	N	1.238190	0.035937	1.105774
N243	N	1.571524	0.369271	1.439108
N244	N	0.904863	-0.297377	0.834892
N245	N	1.238196	0.035956	1.168226
N246	N	1.571530	0.369289	1.501559
C247	C	0.909725	-0.251604	0.867300
C248	C	1.243059	0.081730	1.200633
C249	C	1.576392	0.415063	1.533967
N250	N	0.914594	-0.205848	0.834897
N251	N	1.247927	0.127485	1.168230
N252	N	1.581261	0.460818	1.501563
N253	N	0.914591	-0.205867	0.772440
N254	N	1.247925	0.127466	1.105773
N255	N	1.581258	0.460799	1.439106
C256	C	0.909719	-0.251641	0.740511
C257	C	1.243053	0.081693	1.073844
C258	C	1.576386	0.415026	1.407177
C259	C	0.950017	-0.218128	0.971482
C260	C	1.283350	0.115206	1.304815
C261	C	1.616683	0.448539	1.638148
C262	C	0.950011	-0.218104	1.037225
C263	C	1.283345	0.115229	1.370559
C264	C	1.616678	0.448562	1.703892
C265	C	0.869433	-0.284995	1.037164
C266	C	1.202766	0.048338	1.370497
C267	C	1.536099	0.381672	1.703831
C268	C	0.869435	-0.285014	0.971422
C269	C	1.202768	0.048320	1.304755
C270	C	1.536101	0.381653	1.638088
C271	C	0.909730	-0.251581	0.938584
C272	C	1.243063	0.081752	1.271918
C273	C	1.576397	0.415086	1.605251
H274	H	0.550746	-0.312494	0.376445
H275	H	0.884079	0.020839	0.709778
H276	H	1.217413	0.354173	1.043112
C277	C	0.140524	-0.181345	0.219299
C278	C	0.473858	0.151989	0.552632
C279	C	0.807191	0.485322	0.885966
H280	H	0.169518	-0.161403	0.195360
H281	H	0.502851	0.171930	0.528694
H282	H	0.836184	0.505263	0.862027
H283	H	0.114818	-0.201305	0.191837
H284	H	0.448151	0.132028	0.525170
H285	H	0.781485	0.465362	0.858503
H286	H	0.114940	-0.158587	0.243444
H287	H	0.448273	0.174747	0.576777
H288	H	0.781606	0.508080	0.910110
C289	C	0.824970	-0.442996	0.388000
C290	C	1.158304	-0.109662	0.721333
C291	C	1.491637	0.223671	1.054667
H292	H	0.830731	-0.406563	0.382237
H293	H	1.164065	-0.073229	0.715571
H294	H	1.497398	0.260104	1.048904
H295	H	0.782681	-0.451989	0.378744
H296	H	1.116014	-0.118656	0.712077
H297	H	1.449347	0.214677	1.045410
H298	H	0.834175	-0.451917	0.430310
H299	H	1.167508	-0.118584	0.763643
H300	H	1.500842	0.214750	1.096976
H301	H	0.982818	-0.191020	0.543907
H302	H	1.316151	0.142314	0.877240
H303	H	1.649484	0.475647	1.210573
H304	H	0.982824	-0.190902	0.944744
H305	H	1.316157	0.142432	1.278077
H306	H	1.649491	0.475765	1.611411
C307	C	0.825184	-0.945349	0.388068
C308	C	1.158517	-0.612016	0.721401
C309	C	1.491850	-0.278683	1.054734
H310	H	0.801204	-0.969451	0.412008
H311	H	1.134537	-0.636118	0.745342
H312	H	1.467871	-0.302784	1.078675
H313	H	0.849236	-0.924012	0.415527
H314	H	1.182569	-0.590679	0.748860
H315	H	1.515903	-0.257345	1.082194
H316	H	0.797755	-0.924088	0.363947
H317	H	1.131089	-0.590755	0.697280
H318	H	1.464422	-0.257422	1.030614
C319	C	0.994331	-0.181431	0.672575
C320	C	1.327665	0.151903	1.005908
C321	C	1.660998	0.485236	1.339241
H322	H	1.018332	-0.161525	0.643602
H323	H	1.351665	0.171808	0.976935
H324	H	1.684999	0.505141	1.310269
H325	H	0.970279	-0.158646	0.698207
H326	H	1.303612	0.174688	1.031540
H327	H	1.636945	0.508021	1.364873
H328	H	1.021740	-0.201429	0.698236
H329	H	1.355073	0.131904	1.031569
H330	H	1.688407	0.465237	1.364903
C331	C	0.784822	-0.694190	0.428257
C332	C	1.118155	-0.360857	0.761590
C333	C	1.451489	-0.027523	1.094924
H334	H	0.790575	-0.657755	0.422499
H335	H	1.123908	-0.324422	0.755833
H336	H	1.457241	0.008911	1.089166
H337	H	0.742535	-0.703190	0.418996
H338	H	1.075869	-0.369856	0.752330
H339	H	1.409202	-0.036523	1.085663
H340	H	0.794026	-0.703114	0.470566
H341	H	1.127359	-0.369780	0.803899
H342	H	1.460692	-0.036447	1.137233
H343	H	0.836622	-0.312329	0.663067
H344	H	1.169955	0.021004	0.996400
H345	H	1.503289	0.354338	1.329734
C346	C	0.825109	-0.321928	0.534393
C347	C	1.158443	0.011406	0.867726
C348	C	1.491776	0.344739	1.201059
H349	H	0.801120	-0.341841	0.563366
H350	H	1.134453	-0.008508	0.896700
H351	H	1.467786	0.324825	1.230033
H352	H	0.797699	-0.301944	0.508721
H353	H	1.131032	0.031389	0.842055
H354	H	1.464366	0.364722	1.175388
H355	H	0.849179	-0.344713	0.508771
H356	H	1.182512	-0.011380	0.842104
H357	H	1.515845	0.321954	1.175437
H358	H	0.836626	-0.312213	1.063905
H359	H	1.169959	0.021120	1.397238
H360	H	1.503293	0.354453	1.730572
C361	C	0.679413	-0.181433	0.219109
C362	C	1.012746	0.151900	0.552443
C363	C	1.346079	0.485234	0.885776
H364	H	0.650422	-0.161487	0.195184
H365	H	0.983755	0.171847	0.528518
H366	H	1.317088	0.505180	0.861851
H367	H	0.705119	-0.158687	0.243229
H368	H	1.038453	0.174646	0.576562
H369	H	1.371786	0.507979	0.909895
H370	H	0.704997	-0.201409	0.191626
H371	H	1.038330	0.131925	0.524959
H372	H	1.371663	0.465258	0.858292
H373	H	0.670010	-0.312519	0.376398
H374	H	1.003343	0.020815	0.709731
H375	H	1.336676	0.354148	1.043064
H376	H	0.836630	-0.312254	0.944637
H377	H	1.169963	0.021079	1.277971
H378	H	1.503296	0.354412	1.611304
C379	C	0.140514	-0.321999	0.388065
C380	C	0.473847	0.011334	0.721399
C381	C	0.807180	0.344667	1.054732
H382	H	0.169505	-0.341955	0.411977
H383	H	0.502839	-0.008622	0.745311
H384	H	0.836172	0.324712	1.078644
H385	H	0.114922	-0.302038	0.415552
H386	H	0.448255	0.031295	0.748885
H387	H	0.781589	0.364629	1.082218
H388	H	0.114814	-0.344743	0.363930
H389	H	0.448148	-0.011410	0.697263
H390	H	0.781481	0.321923	1.030596
C391	C	0.541359	-0.181414	0.219157
C392	C	0.874692	0.151919	0.552491
C393	C	1.208025	0.485252	0.885824
H394	H	0.497498	-0.186207	0.224922
H395	H	0.830831	0.147126	0.558256
H396	H	1.164164	0.480460	0.891589
H397	H	0.552190	-0.146298	0.228443
H398	H	0.885523	0.187035	0.561777
H399	H	1.218857	0.520369	0.895110
H400	H	0.552076	-0.189018	0.176839
H401	H	0.885410	0.144315	0.510173
H402	H	1.218743	0.477648	0.843506
H403	H	0.796364	-0.801036	0.416781
H404	H	1.129697	-0.467703	0.750115
H405	H	1.463031	-0.134369	1.083448
H406	H	0.982819	-0.190863	1.064008
H407	H	1.316153	0.142470	1.397342
H408	H	1.649486	0.475803	1.730675
H409	H	0.269176	-0.190937	0.230734
H410	H	0.602510	0.142397	0.564067
H411	H	0.935843	0.475730	0.897401
C412	C	0.278570	-0.322015	0.388024
C413	C	0.611903	0.011319	0.721358
C414	C	0.945236	0.344652	1.054691
H415	H	0.322431	-0.317230	0.382250
H416	H	0.655764	0.016103	0.715583
H417	H	0.989097	0.349436	1.048916
H418	H	0.267854	-0.314411	0.430339
H419	H	0.601188	0.018923	0.763673
H420	H	0.934521	0.352256	1.097006
H421	H	0.267736	-0.357134	0.378738
H422	H	0.601070	-0.023800	0.712071
H423	H	0.934403	0.309533	1.045405
C424	C	0.994133	-0.442878	0.219126
C425	C	1.327467	-0.109545	0.552459
C426	C	1.660800	0.223789	0.885792
H427	H	1.018135	-0.466944	0.195190
H428	H	1.351468	-0.133610	0.528523
H429	H	1.684802	0.199723	0.861857
H430	H	0.970061	-0.421614	0.191662
H431	H	1.303394	-0.088280	0.524996
H432	H	1.636728	0.245053	0.858329
H433	H	1.021543	-0.421539	0.243241
H434	H	1.354876	-0.088206	0.576575
H435	H	1.688209	0.245128	0.909908
H436	H	1.023023	-0.701834	0.190444
H437	H	1.356356	-0.368501	0.523777
H438	H	1.689689	-0.035167	0.857110
C439	C	0.994190	-0.557530	0.219138
C440	C	1.327523	-0.224197	0.552471
C441	C	1.660856	0.109136	0.885805
H442	H	1.018158	-0.533428	0.195187
H443	H	1.351491	-0.200094	0.528520
H444	H	1.684824	0.133239	0.861853
H445	H	1.021620	-0.578793	0.243248
H446	H	1.354953	-0.245460	0.576581
H447	H	1.688287	0.087873	0.909914
H448	H	0.970128	-0.578865	0.191679
H449	H	1.303461	-0.245532	0.525013
H450	H	1.636794	0.087801	0.858346
H451	H	1.023070	-0.800881	0.190460
H452	H	1.356403	-0.467548	0.523793
H453	H	1.689736	-0.134215	0.857126
H454	H	0.982853	-0.953034	0.230679
H455	H	1.316186	-0.619700	0.564012
H456	H	1.649520	-0.286367	0.897346
C457	C	0.994401	-1.059891	0.219207
C458	C	1.327734	-0.726557	0.552540
C459	C	1.661067	-0.393224	0.885873
H460	H	0.988646	-1.096324	0.224976
H461	H	1.321979	-0.762990	0.558309
H462	H	1.655313	-0.429657	0.891643
H463	H	0.985205	-1.050969	0.176899
H464	H	1.318538	-0.717636	0.510232
H465	H	1.651871	-0.384302	0.843565
H466	H	1.036692	-1.050897	0.228472
H467	H	1.370025	-0.717564	0.561805
H468	H	1.703359	-0.384231	0.895139
C469	C	0.825232	-1.060003	0.388077
C470	C	1.158566	-0.726670	0.721410
C471	C	1.491899	-0.393336	1.054744
H472	H	0.831010	-1.096430	0.382326
H473	H	1.164343	-0.763096	0.715659
H474	H	1.497677	-0.429763	1.048993
H475	H	0.834421	-1.051025	0.430381
H476	H	1.167754	-0.717691	0.763714
H477	H	1.501087	-0.384358	1.097048
H478	H	0.782936	-1.051103	0.378805
H479	H	1.116269	-0.717770	0.712138
H480	H	1.449603	-0.384436	1.045472
C481	C	0.825018	-0.557665	0.388018
C482	C	1.158351	-0.224331	0.721351
C483	C	1.491684	0.109002	1.054684
H484	H	0.801022	-0.533600	0.411961
H485	H	1.134356	-0.200267	0.745295
H486	H	1.467689	0.133066	1.078628
H487	H	0.797612	-0.579010	0.363913
H488	H	1.130945	-0.245677	0.697246
H489	H	1.464278	0.087657	1.030580
H490	H	0.849102	-0.578923	0.415483
H491	H	1.182435	-0.245589	0.748816
H492	H	1.515769	0.087744	1.082150
