data_functionalizedCrystal
_audit_creation_method	'MofGen! by Chris Wilmer'
_symmetry_space_group_name_H-M	'P1'
_symmetry_Int_Tables_number	1
_symmetry_cell_setting	triclinic
loop_
_symmetry_equiv_pos_as_xyz
  x,y,z
_cell_length_a	15.021413
_cell_length_b	15.944551
_cell_length_c	15.944551
_cell_angle_alpha	83.498738
_cell_angle_beta	90.003065
_cell_angle_gamma	89.997174
loop_
_atom_site_label
_atom_site_type_symbol
_atom_site_fract_x
_atom_site_fract_y
_atom_site_fract_z
O1	O	0.073941	-1.114529	-0.108321
O2	O	0.073964	-0.869979	-0.121677
O3	O	0.073944	-0.998932	0.007276
O4	O	0.073961	-0.985576	-0.237274
O5	O	-0.074121	-0.998912	0.007257
O6	O	-0.074101	-0.869959	-0.121695
O7	O	-0.074123	-1.114508	-0.108339
Zn8	Zn	-0.097620	-0.992230	-0.115020
Zn9	Zn	0.097461	-0.992257	-0.114996
O10	O	-0.074103	-0.985555	-0.237292
C11	C	-0.000066	-0.838675	-0.121132
C12	C	-0.000057	-0.745429	-0.119470
N13	N	-0.230758	-0.992218	-0.115036
C14	C	-0.000089	-0.998367	0.038561
C15	C	-0.000089	-0.996705	0.131807
C16	C	-0.470432	-0.932581	-0.174636
C17	C	-0.529772	-1.008481	-0.190943
C18	C	-0.412365	-0.992239	-0.115015
C19	C	-0.529766	-0.916360	-0.098727
C20	C	-0.587789	-0.992253	-0.114997
C21	C	-0.470398	-1.068178	-0.131360
C22	C	-0.470387	-0.976006	-0.039111
C23	C	-0.529701	-1.051962	-0.055386
C24	C	-0.311307	-0.992230	-0.115028
C25	C	-0.688844	-0.992271	-0.114984
N26	N	0.230598	-0.992276	-0.114973
C27	C	-0.000092	-1.145813	-0.108885
C28	C	-0.000094	-1.239059	-0.110547
C29	C	-0.000081	-0.530572	-0.035565
C30	C	0.072926	-0.469562	-0.074518
C31	C	-0.000068	-0.574703	-0.116462
C32	C	-0.073054	-0.469564	-0.074556
C33	C	-0.000083	-0.409790	-0.113551
C34	C	0.072998	-0.514921	-0.155438
C35	C	-0.073047	-0.514930	-0.155464
C36	C	-0.000023	-0.453937	-0.194476
C37	C	-0.000059	-0.669705	-0.118137
C38	C	-0.000085	-0.314789	-0.111883
C39	C	-0.000069	-0.986120	-0.268577
C40	C	-0.000063	-0.987782	-0.361823
C41	C	-0.000069	-0.912801	0.346663
C42	C	-0.073077	-0.951753	0.407672
C43	C	-0.000082	-0.993698	0.302533
C44	C	0.072903	-0.951792	0.407673
C45	C	-0.000071	-0.990787	0.467445
C46	C	-0.073150	-1.032672	0.362313
C47	C	0.072895	-1.032700	0.362308
C48	C	-0.000131	-1.071711	0.423298
C49	C	-0.000089	-0.995372	0.207530
C50	C	-0.000070	-0.989119	0.562446
H51	H	-0.444409	-0.882181	-0.225096
H52	H	-0.134773	-0.449470	-0.040332
C53	C	0.156277	-1.078896	0.335119
N54	N	0.219087	-1.113685	0.314638
C55	C	-0.435320	-1.154896	-0.150069
N56	N	-0.408896	-1.220208	-0.164165
C57	C	-0.000160	-0.822090	0.301659
N58	N	-0.000235	-0.753769	0.267759
C59	C	-0.156451	-0.905516	0.434831
N60	N	-0.219245	-0.870686	0.455286
C61	C	0.156285	-0.905562	0.434819
N62	N	0.219086	-0.870735	0.455260
C63	C	-0.156629	-1.078844	0.335298
N64	N	-0.219507	-1.113615	0.314949
H65	H	-0.444283	-0.962240	0.025051
C66	C	-0.564652	-1.120201	0.012736
N67	N	-0.590984	-1.171602	0.064039
C68	C	-0.565021	-1.027042	-0.277649
N69	N	-0.591570	-1.041015	-0.342957
C70	C	-0.564993	-0.829660	-0.080121
N71	N	-0.591521	-0.764356	-0.066114
C72	C	-0.000197	-1.162502	0.468103
N73	N	-0.000252	-1.230884	0.501853
H74	H	0.134642	-0.449461	-0.040295
C75	C	0.000010	-0.575572	0.055148
N76	N	0.000083	-0.609467	0.123471
C77	C	0.156477	-0.541933	-0.201610
N78	N	0.219354	-0.562281	-0.236383
H79	H	-0.134767	-0.535052	-0.189659
C80	C	0.000039	-0.409134	-0.285267
N81	N	0.000091	-0.375385	-0.353649
