data_functionalizedCrystal
_audit_creation_method	'MofGen! by Chris Wilmer'
_symmetry_space_group_name_H-M	'P1'
_symmetry_Int_Tables_number	1
_symmetry_cell_setting	triclinic
loop_
_symmetry_equiv_pos_as_xyz
  x,y,z
_cell_length_a	17.699083
_cell_length_b	17.699097
_cell_length_c	16.176319
_cell_angle_alpha	89.988988
_cell_angle_beta	89.992304
_cell_angle_gamma	83.285722
loop_
_atom_site_label
_atom_site_type_symbol
_atom_site_fract_x
_atom_site_fract_y
_atom_site_fract_z
O1	O	0.095761	1.004072	-0.068817
O2	O	0.429094	1.337406	0.264517
O3	O	0.762428	1.670739	0.597850
O4	O	0.108203	0.783695	-0.068804
O5	O	0.441536	1.117029	0.264530
O6	O	0.774870	1.450362	0.597863
O7	O	-0.008207	0.900110	-0.068803
O8	O	0.325126	1.233443	0.264530
O9	O	0.658460	1.566777	0.597863
O10	O	0.212171	0.887658	-0.068817
O11	O	0.545504	1.220991	0.264516
O12	O	0.878837	1.554324	0.597850
O13	O	-0.008214	0.900094	0.068690
O14	O	0.325119	1.233427	0.402023
O15	O	0.658452	1.566761	0.735357
O16	O	0.108195	0.783679	0.068690
O17	O	0.441529	1.117013	0.402023
O18	O	0.774862	1.450346	0.735356
O19	O	0.095754	1.004056	0.068676
O20	O	0.429087	1.337390	0.402010
O21	O	0.762420	1.670723	0.735343
Cu22	Cu	0.101974	0.893867	0.081237
Cu23	Cu	0.435307	1.227200	0.414571
Cu24	Cu	0.768640	1.560533	0.747904
Cu25	Cu	0.101983	0.893885	-0.081364
Cu26	Cu	0.435316	1.227219	0.251969
Cu27	Cu	0.768649	1.560552	0.585302
O28	O	0.212163	0.887642	0.068676
O29	O	0.545497	1.220975	0.402009
O30	O	0.878830	1.554308	0.735343
C31	C	0.107752	0.755491	-0.000055
C32	C	0.441085	1.088824	0.333278
C33	C	0.774418	1.422157	0.666611
C34	C	0.106409	0.671473	-0.000050
C35	C	0.439742	1.004806	0.333283
C36	C	0.773076	1.338140	0.666617
C37	C	0.098184	0.155764	-0.075030
C38	C	0.431517	0.489097	0.258303
C39	C	0.764850	0.822430	0.591636
C40	C	0.099440	0.234708	-0.075026
C41	C	0.432773	0.568041	0.258307
C42	C	0.766107	0.901374	0.591640
C43	C	0.100065	0.274165	-0.000076
C44	C	0.433399	0.607498	0.333258
C45	C	0.766732	0.940832	0.666591
C46	C	0.099427	0.234675	0.074876
C47	C	0.432760	0.568008	0.408210
C48	C	0.766093	0.901342	0.741543
C49	C	0.098165	0.155733	0.074871
C50	C	0.431498	0.489066	0.408205
C51	C	0.764832	0.822400	0.741538
C52	C	0.104514	0.553039	0.074898
C53	C	0.437847	0.886372	0.408231
C54	C	0.771181	1.219706	0.741564
C55	C	0.105778	0.631986	0.074897
C56	C	0.439111	0.965320	0.408230
C57	C	0.772445	1.298653	0.741563
C58	C	0.105789	0.632014	-0.075000
C59	C	0.439122	0.965347	0.258333
C60	C	0.772456	1.298680	0.591667
C61	C	0.104527	0.553072	-0.075005
C62	C	0.437861	0.886405	0.258328
C63	C	0.771194	1.219738	0.591662
C64	C	0.103885	0.513589	-0.000054
C65	C	0.437218	0.846923	0.333280
C66	C	0.770551	1.180256	0.666613
C67	C	0.102521	0.427989	-0.000059
C68	C	0.435854	0.761323	0.333274
C69	C	0.769188	1.094656	0.666608
C70	C	0.101434	0.359763	-0.000069
C71	C	0.434768	0.693096	0.333264
C72	C	0.768101	1.026429	0.666597
C73	C	-0.036408	0.899656	-0.000057
C74	C	0.296926	1.232989	0.333277
C75	C	0.630259	1.566323	0.666610
C76	C	-0.120426	0.898317	-0.000056
C77	C	0.212907	1.231651	0.333277
C78	C	0.546241	1.564984	0.666611
C79	C	-0.169044	0.966650	-0.000059
C80	C	0.164290	1.299984	0.333274
C81	C	0.497623	1.633317	0.666608
C82	C	-0.247987	0.965388	-0.000066
C83	C	0.085346	1.298721	0.333267
C84	C	0.418680	1.632055	0.666600
C85	C	-0.278311	0.895792	-0.000065
C86	C	0.055022	1.229125	0.333269
C87	C	0.388356	1.562459	0.666602
C88	C	-0.229687	0.827454	-0.000064
C89	C	0.103646	1.160787	0.333269
C90	C	0.436980	1.494121	0.666602
C91	C	-0.150745	0.828717	-0.000063
C92	C	0.182588	1.162050	0.333270
C93	C	0.515921	1.495384	0.666604
C94	C	-0.548050	0.822359	-0.000071
C95	C	-0.214717	1.155692	0.333263
C96	C	0.118616	1.489025	0.666596
C97	C	-0.626998	0.821101	-0.000070
C98	C	-0.293665	1.154434	0.333264
C99	C	0.039668	1.487767	0.666597
C100	C	-0.645292	0.959030	-0.000074
C101	C	-0.311959	1.292363	0.333259
C102	C	0.021375	1.625696	0.666593
C103	C	-0.566350	0.960293	-0.000073
C104	C	-0.233017	1.293626	0.333261
C105	C	0.100316	1.626960	0.666594
C106	C	-0.517733	0.891955	-0.000077
C107	C	-0.184400	1.225288	0.333257
C108	C	0.148933	1.558622	0.666590
C109	C	-0.432134	0.893325	-0.000070
C110	C	-0.098801	1.226658	0.333263
C111	C	0.234533	1.559991	0.666596
C112	C	-0.363909	0.894422	-0.000065
C113	C	-0.030575	1.227755	0.333268
C114	C	0.302758	1.561088	0.666602
C115	C	0.240364	0.888096	-0.000073
C116	C	0.573697	1.221429	0.333261
C117	C	0.907031	1.554763	0.666594
C118	C	0.324382	0.889435	-0.000078
C119	C	0.657716	1.222768	0.333255
C120	C	0.991049	1.556101	0.666588
C121	C	0.096205	1.032261	-0.000074
C122	C	0.429538	1.365595	0.333260
C123	C	0.762871	1.698928	0.666593
C124	C	0.097547	1.116279	-0.000084
C125	C	0.430881	1.449612	0.333249
C126	C	0.764214	1.782946	0.666582
N127	N	0.101967	0.893859	0.195602
N128	N	0.435301	1.227192	0.528936
N129	N	0.768634	1.560525	0.862269
N130	N	0.101983	0.893899	-0.195730
N131	N	0.435317	1.227233	0.137604
N132	N	0.768650	1.560566	0.470937
C133	C	0.050442	0.945423	0.238867
C134	C	0.383775	1.278756	0.572200
C135	C	0.717109	1.612089	0.905533
C136	C	0.050441	0.945426	0.325414
C137	C	0.383774	1.278760	0.658747
C138	C	0.717108	1.612093	0.992080
C139	C	0.101970	0.893869	0.368695
C140	C	0.435303	1.227203	0.702028
C141	C	0.768636	1.560536	1.035362
C142	C	0.153498	0.842300	0.325425
C143	C	0.486831	1.175633	0.658758
C144	C	0.820164	1.508967	0.992091
C145	C	0.153494	0.842293	0.238879
C146	C	0.486827	1.175627	0.572212
C147	C	0.820161	1.508960	0.905546
C148	C	0.153512	0.842326	0.674453
C149	C	0.486845	1.175659	1.007786
C150	C	0.820178	1.508993	1.341120
C151	C	0.153513	0.842338	0.761004
C152	C	0.486846	1.175672	1.094338
C153	C	0.820179	1.509005	1.427671
C154	C	0.050459	0.945459	0.760988
C155	C	0.383792	1.278793	1.094321
C156	C	0.717125	1.612126	1.427654
C157	C	0.050455	0.945452	0.674442
C158	C	0.383789	1.278786	1.007775
C159	C	0.717122	1.612119	1.341109
C160	C	0.101980	0.893881	0.631179
C161	C	0.435313	1.227214	0.964513
C162	C	0.768647	1.560547	1.297846
C163	C	0.101979	0.893876	0.537335
C164	C	0.435313	1.227210	0.870668
C165	C	0.768646	1.560543	1.204002
C166	C	0.101975	0.893877	0.462538
C167	C	0.435308	1.227210	0.795871
C168	C	0.768641	1.560544	1.129204
H169	H	0.103980	0.520903	0.135928
H170	H	0.437313	0.854237	0.469261
H171	H	0.770646	1.187570	0.802594
H172	H	-0.111161	0.773073	-0.000061
H173	H	0.222173	1.106406	0.333273
H174	H	0.555506	1.439740	0.666606
N175	N	-0.005133	1.001026	0.192177
N176	N	0.328200	1.334359	0.525511
N177	N	0.661534	1.667693	0.858844
H178	H	0.003515	1.054727	0.207217
H179	H	0.336848	1.388060	0.540550
H180	H	0.670182	1.721393	0.873883
H181	H	-0.058816	0.992345	0.207268
H182	H	0.274518	1.325678	0.540601
H183	H	0.607851	1.659011	0.873934
N184	N	-0.005126	1.001050	0.372075
N185	N	0.328207	1.334383	0.705409
N186	N	0.661540	1.667717	1.038742
H187	H	0.002691	0.993231	0.433469
H188	H	0.336024	1.326564	0.766802
H189	H	0.669357	1.659898	1.100136
H190	H	-0.058811	0.992414	0.356959
H191	H	0.274522	1.325747	0.690293
H192	H	0.607856	1.659080	1.023626
H193	H	0.099931	0.266808	0.135903
H194	H	0.433264	0.600141	0.469236
H195	H	0.766598	0.933475	0.802569
H196	H	0.097655	0.123585	0.135900
H197	H	0.430988	0.456918	0.469233
H198	H	0.764321	0.790251	0.802567
H199	H	0.008498	0.987437	0.639205
H200	H	0.341832	1.320771	0.972539
H201	H	0.675165	1.654104	1.305872
N202	N	0.106478	0.674599	-0.155844
N203	N	0.439811	1.007932	0.177489
N204	N	0.773145	1.341265	0.510823
H205	H	0.107369	0.730596	-0.144472
H206	H	0.440702	1.063929	0.188861
H207	H	0.774036	1.397263	0.522194
H208	H	0.059360	0.667025	-0.188573
H209	H	0.392694	1.000358	0.144760
H210	H	0.726027	1.333691	0.478094
H211	H	0.106287	0.664110	0.135935
H212	H	0.439621	0.997443	0.469268
H213	H	0.772954	1.330777	0.802601
N214	N	-0.005118	1.001084	0.807649
N215	N	0.328215	1.334418	1.140983
N216	N	0.661549	1.667751	1.474316
H217	H	0.002698	0.993267	0.869043
H218	H	0.336032	1.326600	1.202377
H219	H	0.669365	1.659934	1.535710
H220	H	-0.058802	0.992446	0.792532
H221	H	0.274531	1.325780	1.125866
H222	H	0.607865	1.659113	1.459199
N223	N	0.209088	0.786724	0.807689
N224	N	0.542421	1.120057	1.141023
N225	N	0.875755	1.453390	1.474356
H226	H	0.241726	0.754049	0.767151
H227	H	0.575059	1.087382	1.100484
H228	H	0.908393	1.420715	1.433818
H229	H	0.180144	0.753332	0.843614
H230	H	0.513477	1.086665	1.176947
H231	H	0.846810	1.419999	1.510281
H232	H	-0.287569	1.021032	-0.000067
H233	H	0.045764	1.354365	0.333266
H234	H	0.379098	1.687698	0.666600
H235	H	-0.508475	0.766714	-0.000074
H236	H	-0.175142	1.100047	0.333260
H237	H	0.158191	1.433380	0.666593
N238	N	0.103844	0.510518	-0.155846
N239	N	0.437177	0.843851	0.177488
N240	N	0.770511	1.177185	0.510821
H241	H	0.102948	0.454517	-0.144476
H242	H	0.436281	0.787851	0.188857
H243	H	0.769614	1.121184	0.522191
H244	H	0.150965	0.518100	-0.188581
H245	H	0.484299	0.851434	0.144752
H246	H	0.817632	1.184767	0.478085
N247	N	-0.697735	1.032737	-0.000072
N248	N	-0.364401	1.366070	0.333261
N249	N	-0.031068	1.699403	0.666594
H250	H	-0.730889	1.035299	-0.051042
H251	H	-0.397555	1.368632	0.282291
H252	H	-0.064222	1.701965	0.615624
H253	H	-0.666494	1.076975	-0.000036
H254	H	-0.333161	1.410308	0.333297
H255	H	0.000173	1.743641	0.666630
H256	H	-0.541665	1.016965	-0.000070
H257	H	-0.208332	1.350298	0.333263
H258	H	0.125002	1.683632	0.666597
H259	H	0.195466	0.800336	0.639235
H260	H	0.528800	1.133669	0.972568
H261	H	0.862133	1.467003	1.305902
N262	N	0.209071	0.786685	0.372102
N263	N	0.542404	1.120019	0.705435
N264	N	0.875738	1.453352	1.038768
H265	H	0.201257	0.794514	0.433493
H266	H	0.534590	1.127848	0.766827
H267	H	0.867924	1.461181	1.100160
H268	H	0.262754	0.795323	0.356959
H269	H	0.596087	1.128656	0.690293
H270	H	0.929421	1.461989	1.023626
N271	N	0.209063	0.786674	0.192211
N272	N	0.542397	1.120008	0.525544
N273	N	0.875730	1.453341	0.858878
H274	H	0.241708	0.754014	0.232760
H275	H	0.575041	1.087347	0.566094
H276	H	0.908375	1.420681	0.899427
H277	H	0.242489	0.815578	0.156284
H278	H	0.575822	1.148912	0.489617
H279	H	0.909156	1.482245	0.822951
N280	N	-0.136340	1.041715	-0.000053
N281	N	0.196994	1.375049	0.333280
N282	N	0.530327	1.708382	0.666614
H283	H	-0.179121	1.084812	-0.000057
H284	H	0.154213	1.418145	0.333276
H285	H	0.487546	1.751479	0.666609
H286	H	-0.103977	1.045251	-0.051022
H287	H	0.229356	1.378585	0.282311
H288	H	0.562689	1.711918	0.615645
H289	H	-0.254383	0.770787	-0.000068
H290	H	0.078950	1.104121	0.333265
H291	H	0.412284	1.437454	0.666599
N292	N	0.097514	0.113208	-0.155871
N293	N	0.430848	0.446541	0.177462
N294	N	0.764181	0.779875	0.510795
H295	H	0.098106	0.150204	-0.203348
H296	H	0.431440	0.483537	0.129985
H297	H	0.764773	0.816871	0.463319
H298	H	0.050090	0.086677	-0.159136
H299	H	0.383424	0.420010	0.174198
H300	H	0.716757	0.753343	0.507531
N301	N	0.100117	0.277297	-0.155861
N302	N	0.433450	0.610630	0.177473
N303	N	0.766783	0.943964	0.510806
H304	H	0.099531	0.240322	-0.203342
H305	H	0.432864	0.573655	0.129992
H306	H	0.766198	0.906989	0.463325
H307	H	0.147537	0.303836	-0.159130
H308	H	0.480871	0.637169	0.174204
H309	H	0.814204	0.970502	0.507537
H310	H	-0.651685	0.764424	-0.000067
H311	H	-0.318351	1.097757	0.333267
H312	H	0.014982	1.431091	0.666600
