data_functionalizedCrystal
_audit_creation_method	'MofGen! by Chris Wilmer'
_symmetry_space_group_name_H-M	'P1'
_symmetry_Int_Tables_number	1
_symmetry_cell_setting	triclinic
loop_
_symmetry_equiv_pos_as_xyz
  x,y,z
_cell_length_a	23.532355
_cell_length_b	22.610064
_cell_length_c	23.532407
_cell_angle_alpha	90.000603
_cell_angle_beta	82.838075
_cell_angle_gamma	90.004331
loop_
_atom_site_label
_atom_site_type_symbol
_atom_site_fract_x
_atom_site_fract_y
_atom_site_fract_z
O1	O	-0.755283	-0.049137	-0.068986
O2	O	-0.589415	-0.049151	-0.079020
O3	O	-0.677351	-0.049133	0.008929
O4	O	-0.667347	-0.049155	-0.156936
O5	O	-0.677335	0.049236	0.008917
O6	O	-0.589400	0.049218	-0.079033
O7	O	-0.755267	0.049232	-0.068999
Zn8	Zn	-0.672331	0.064843	-0.074018
Zn9	Zn	-0.672351	-0.064762	-0.074001
O10	O	-0.667332	0.049214	-0.156949
C11	C	-0.568191	0.000032	-0.078776
C12	C	-0.504972	0.000027	-0.078022
C13	C	-0.677088	0.000053	0.030139
C14	C	-0.676322	0.000058	0.093356
N15	N	-0.672321	0.153296	-0.074029
C16	C	-0.231736	-0.053588	-0.074717
C17	C	-0.291136	-0.053590	-0.075431
O18	O	-0.321869	-0.099191	-0.075774
N19	N	-0.320833	0.000031	-0.075798
C20	C	-0.291128	0.053658	-0.075446
O21	O	-0.321843	0.099267	-0.075824
C22	C	-0.231730	0.053659	-0.074728
C23	C	-0.202035	0.000035	-0.074366
C24	C	-0.202041	-0.107208	-0.074354
C25	C	-0.142645	-0.107205	-0.073642
C26	C	-0.112944	-0.053583	-0.073291
C27	C	-0.142639	0.000037	-0.073654
C28	C	-0.202027	0.107285	-0.074372
C29	C	-0.142625	0.107282	-0.073654
C30	C	-0.112930	0.053658	-0.073292
C31	C	-0.053542	0.053662	-0.072591
N32	N	-0.023845	0.000041	-0.072223
C33	C	-0.053546	-0.053582	-0.072574
C34	C	-0.415869	0.053651	-0.076953
C35	C	-0.475266	0.053650	-0.077675
C36	C	-0.475269	-0.053598	-0.077658
C37	C	-0.415871	-0.053596	-0.076940
C38	C	-0.386172	0.000030	-0.076585
C39	C	0.071190	-0.053573	-0.071077
C40	C	0.130591	-0.053566	-0.070367
C41	C	0.130590	0.053681	-0.070381
C42	C	0.071194	0.053675	-0.071094
C43	C	0.041495	0.000043	-0.071440
O44	O	-0.022772	0.099240	-0.072245
O45	O	-0.022825	-0.099183	-0.072188
C46	C	0.223509	0.000050	-0.069248
C47	C	0.160292	0.000056	-0.070017
N48	N	-0.672366	-0.153215	-0.073986
C49	C	-0.711291	0.561945	-0.035063
C50	C	-0.711294	0.623865	-0.035059
O51	O	-0.744403	0.655891	-0.001937
N52	N	-0.672351	0.654833	-0.073989
C53	C	-0.633399	0.623878	-0.112923
O54	O	-0.600275	0.655904	-0.146035
C55	C	-0.633394	0.561959	-0.112924
C56	C	-0.672343	0.530994	-0.073995
C57	C	-0.750237	0.530981	0.003863
C58	C	-0.750234	0.469065	0.003858
C59	C	-0.711286	0.438114	-0.035073
C60	C	-0.672341	0.469079	-0.074000
C61	C	-0.594439	0.531005	-0.151854
C62	C	-0.594437	0.469082	-0.151851
C63	C	-0.633386	0.438117	-0.112922
C64	C	-0.633390	0.376212	-0.112936
N65	N	-0.672333	0.345244	-0.074005
C66	C	-0.711281	0.376195	-0.035074
C67	C	-0.633412	0.753911	-0.112917
C68	C	-0.633419	0.815829	-0.112919
C69	C	-0.711314	0.815812	-0.035055
C70	C	-0.711309	0.753893	-0.035055
C71	C	-0.672355	0.722943	-0.073987
C72	C	-0.711273	0.246168	-0.035088
C73	C	-0.711269	0.184247	-0.035098
C74	C	-0.633373	0.184269	-0.112960
C75	C	-0.633379	0.246185	-0.112953
C76	C	-0.672331	0.277133	-0.074012
O77	O	-0.600296	0.344147	-0.146040
O78	O	-0.744395	0.344161	-0.001962
C79	C	-0.667594	0.000027	-0.178158
C80	C	-0.668360	0.000018	-0.241375
C81	C	-0.723557	0.000029	0.492468
C82	C	-0.722845	0.000025	0.551868
O83	O	-0.766632	0.000007	0.588621
N84	N	-0.670568	0.000021	0.574484
C85	C	-0.618998	0.000015	0.537697
O86	O	-0.574467	0.000011	0.562388
C87	C	-0.619710	0.000016	0.478298
C88	C	-0.671991	0.000026	0.455685
C89	C	-0.775834	0.000039	0.469854
C90	C	-0.776545	0.000044	0.410458
C91	C	-0.724979	0.000041	0.373676
C92	C	-0.672703	0.000031	0.396289
C93	C	-0.568141	0.000006	0.441512
C94	C	-0.568858	0.000006	0.382110
C95	C	-0.621139	0.000016	0.359497
C96	C	-0.621848	0.000033	0.300111
N97	N	-0.674126	0.000037	0.277494
C98	C	-0.725691	0.000041	0.314277
C99	C	-0.617507	0.000014	0.662439
C100	C	-0.616794	0.000018	0.721837
C101	C	-0.720642	0.000026	0.736004
C102	C	-0.721354	0.000026	0.676605
C103	C	-0.669784	0.000018	0.639823
C104	C	-0.727181	0.000053	0.189540
C105	C	-0.727888	0.000061	0.130138
C106	C	-0.624041	0.000050	0.115977
C107	C	-0.623334	0.000045	0.175374
C108	C	-0.674909	0.000045	0.212154
O109	O	-0.578084	0.000049	0.263323
O110	O	-0.770216	0.000037	0.289577
H111	H	0.154767	-0.097235	-0.070074
H112	H	0.047016	-0.097245	-0.071360
C113	C	-0.590529	0.150217	-0.155782
C114	C	-0.591106	0.158725	-0.220634
C115	C	-0.548258	0.124672	-0.263453
C116	C	-0.504833	0.082111	-0.241421
C117	C	-0.504255	0.073600	-0.176566
C118	C	-0.547103	0.107654	-0.133747
H119	H	-0.623253	0.190233	-0.236947
H120	H	-0.548686	0.130972	-0.311463
H121	H	-0.473115	0.056902	-0.273118
H122	H	-0.472108	0.042092	-0.160253
H123	H	-0.546674	0.101354	-0.085737
H124	H	-0.817827	0.000039	0.499797
C125	C	-0.383201	0.112645	-0.076572
C126	C	-0.384618	0.156871	-0.126140
C127	C	-0.351954	0.215864	-0.125759
C128	C	-0.317874	0.230631	-0.075808
C129	C	-0.316456	0.186404	-0.026235
C130	C	-0.349120	0.127411	-0.026617
H131	H	-0.409848	0.145940	-0.163120
H132	H	-0.353004	0.248603	-0.162456
H133	H	-0.293695	0.274301	-0.075525
H134	H	-0.291226	0.197335	0.010744
H135	H	-0.348070	0.094672	0.010080
H136	H	-0.499437	0.097317	-0.077978
C137	C	-0.565823	0.000032	0.200247
C138	C	-0.551064	-0.051063	0.239121
C139	C	-0.493552	-0.051086	0.263988
C140	C	-0.450799	-0.000015	0.249981
C141	C	-0.465556	0.051083	0.211105
C142	C	-0.523069	0.051107	0.186238
H143	H	-0.582714	-0.088872	0.249492
H144	H	-0.482628	-0.088913	0.292767
H145	H	-0.408224	-0.000032	0.268388
H146	H	-0.433907	0.088893	0.200734
H147	H	-0.533993	0.088933	0.157459
H148	H	-0.118473	-0.150872	-0.073345
C149	C	-0.551591	0.565057	-0.194673
C150	C	-0.486747	0.556544	-0.194047
C151	C	-0.443894	0.590596	-0.236867
C152	C	-0.465886	0.633162	-0.280314
C153	C	-0.530733	0.641677	-0.280942
C154	C	-0.573586	0.607625	-0.238121
H155	H	-0.470464	0.525033	-0.161884
H156	H	-0.395890	0.584293	-0.236402
H157	H	-0.434164	0.658369	-0.312012
H158	H	-0.547016	0.673188	-0.313105
H159	H	-0.621590	0.613928	-0.238586
C160	C	-0.109955	0.166273	-0.073266
C161	C	-0.111371	0.210504	-0.122831
C162	C	-0.078703	0.269494	-0.122446
C163	C	-0.044618	0.284253	-0.072496
C164	C	-0.043201	0.240021	-0.022928
C165	C	-0.075869	0.181031	-0.023313
H166	H	-0.136604	0.199580	-0.159810
H167	H	-0.079752	0.302237	-0.159140
H168	H	-0.020435	0.327921	-0.072211
H169	H	-0.017968	0.250945	0.014051
H170	H	-0.074820	0.148288	0.013381
C171	C	-0.785400	0.000070	0.105266
C172	C	-0.800167	0.051155	0.066386
C173	C	-0.857678	0.051162	0.041516
C174	C	-0.900422	0.000083	0.055526
C175	C	-0.885656	-0.051006	0.094408
C176	C	-0.828145	-0.051013	0.119278
H177	H	-0.768525	0.088970	0.056012
H178	H	-0.868608	0.088982	0.012732
H179	H	-0.942995	0.000089	0.037116
H180	H	-0.917299	-0.088821	0.104781
H181	H	-0.817215	-0.088833	0.148062
C182	C	0.163269	0.112663	-0.069993
C183	C	0.210862	0.127403	-0.118960
C184	C	0.243543	0.186384	-0.118567
C185	C	0.228632	0.230626	-0.069207
C186	C	0.181037	0.215888	-0.020236
C187	C	0.148356	0.156906	-0.020629
H188	H	0.221902	0.094651	-0.155503
H189	H	0.278776	0.197295	-0.154819
H190	H	0.252825	0.274288	-0.068916
H191	H	0.169997	0.248639	0.016307
H192	H	0.113123	0.145996	0.015623
H193	H	-0.769178	0.000051	0.219481
H194	H	-0.742991	0.271359	-0.003378
C195	C	-0.793073	0.435007	0.046687
C196	C	-0.792482	0.443526	0.111535
C197	C	-0.835321	0.409472	0.154367
C198	C	-0.878751	0.366899	0.132351
C199	C	-0.879344	0.358378	0.067499
C200	C	-0.836505	0.392432	0.024667
H201	H	-0.760331	0.475043	0.127836
H202	H	-0.834882	0.415780	0.202375
H203	H	-0.910463	0.341690	0.164058
H204	H	-0.911495	0.326860	0.051198
H205	H	-0.836944	0.386123	-0.023341
C206	C	-0.567321	0.000044	0.075508
C207	C	-0.553551	-0.051040	0.032724
C208	C	-0.496832	-0.051052	-0.007748
C209	C	-0.453883	0.000020	-0.005435
C210	C	-0.467652	0.051107	0.037351
C211	C	-0.524372	0.051119	0.077822
H212	H	-0.585345	-0.088850	0.031010
H213	H	-0.486639	-0.088870	-0.039421
H214	H	-0.411896	0.000011	-0.035394
H215	H	-0.435858	0.088917	0.039064
H216	H	-0.534564	0.088937	0.109495
C217	C	-0.234704	-0.166199	-0.074743
C218	C	-0.233285	-0.210434	-0.025181
C219	C	-0.265941	-0.269430	-0.025575
C220	C	-0.300018	-0.284192	-0.075530
C221	C	-0.301439	-0.239957	-0.125095
C222	C	-0.268782	-0.180960	-0.124701
H223	H	-0.208058	-0.199507	0.011802
H224	H	-0.264889	-0.302176	0.011117
H225	H	-0.324192	-0.327865	-0.075821
H226	H	-0.326665	-0.250883	-0.162078
H227	H	-0.269834	-0.148214	-0.161393
H228	H	-0.762629	0.000026	0.765963
C229	C	-0.507947	-0.112585	-0.078037
C230	C	-0.506537	-0.156814	-0.028469
C231	C	-0.539216	-0.215798	-0.028849
C232	C	-0.573305	-0.230554	-0.078796
C233	C	-0.574716	-0.186324	-0.128368
C234	C	-0.542037	-0.127340	-0.127988
H235	H	-0.481302	-0.145891	0.008508
H236	H	-0.538172	-0.248539	0.007848
H237	H	-0.597496	-0.274217	-0.079077
H238	H	-0.599952	-0.197247	-0.165345
H239	H	-0.543082	-0.094599	-0.164685
C240	C	-0.590538	0.280247	-0.155778
C241	C	-0.525692	0.271733	-0.155163
C242	C	-0.482846	0.305790	-0.197985
C243	C	-0.504844	0.348360	-0.241423
C244	C	-0.569693	0.356876	-0.242041
C245	C	-0.612540	0.322820	-0.199218
H246	H	-0.509405	0.240218	-0.123006
H247	H	-0.434840	0.299485	-0.197528
H248	H	-0.473127	0.373571	-0.273123
H249	H	-0.585981	0.388391	-0.274198
H250	H	-0.660545	0.329124	-0.199675
C251	C	-0.834057	0.000043	0.385592
C252	C	-0.876793	0.051120	0.399613
C253	C	-0.934309	0.051115	0.374752
C254	C	-0.949088	0.000032	0.335870
C255	C	-0.906351	-0.051049	0.321847
C256	C	-0.848835	-0.051043	0.346708
H257	H	-0.865853	0.088938	0.428397
H258	H	-0.965945	0.088929	0.385133
H259	H	-0.991664	0.000028	0.317467
H260	H	-0.917290	-0.088866	0.293063
H261	H	-0.817198	-0.088857	0.336327
C262	C	-0.778863	0.000032	0.651733
C263	C	-0.821592	0.051116	0.665749
C264	C	-0.879104	0.051120	0.640881
C265	C	-0.893887	0.000040	0.601998
C266	C	-0.851156	-0.051048	0.587981
C267	C	-0.793644	-0.051052	0.612848
H268	H	-0.810650	0.088932	0.694534
H269	H	-0.910736	0.088939	0.651258
H270	H	-0.936460	0.000043	0.583589
H271	H	-0.862098	-0.088864	0.559195
H272	H	-0.762013	-0.088871	0.602471
H273	H	0.047016	0.097340	-0.071400
H274	H	-0.742988	0.159037	-0.003397
H275	H	-0.391697	-0.097262	-0.076645
H276	H	-0.226195	0.150952	-0.074665
H277	H	-0.525569	-0.000005	0.459912
C278	C	-0.560776	0.000015	0.621981
C279	C	-0.517847	-0.051065	0.624309
C280	C	-0.461116	-0.051064	0.583854
C281	C	-0.447315	0.000017	0.541073
C282	C	-0.490245	0.051102	0.538744
C283	C	-0.546975	0.051101	0.579198
H284	H	-0.528063	-0.088882	0.655979
H285	H	-0.429337	-0.088881	0.585579
H286	H	-0.405319	0.000018	0.511127
H287	H	-0.480029	0.088919	0.507074
H288	H	-0.578755	0.088917	0.577474
C289	C	-0.754150	0.719835	0.007771
C290	C	-0.753565	0.728356	0.072620
C291	C	-0.796407	0.694302	0.115449
C292	C	-0.839834	0.651727	0.093429
C293	C	-0.840420	0.643205	0.028576
C294	C	-0.797578	0.677259	-0.014253
H295	H	-0.721416	0.759874	0.088923
H296	H	-0.795972	0.700611	0.163457
H297	H	-0.871548	0.626519	0.125133
H298	H	-0.872569	0.611687	0.012273
H299	H	-0.798013	0.670950	-0.062261
H300	H	-0.574222	0.000020	0.740243
H301	H	-0.781953	0.556175	0.035569
H302	H	-0.743027	0.841024	-0.003354
H303	H	-0.601692	0.728715	-0.144624
C304	C	-0.590579	0.849886	-0.155746
C305	C	-0.590575	0.917995	-0.155750
C306	C	-0.547730	0.952050	-0.198576
C307	C	-0.504890	0.917997	-0.241398
C308	C	-0.504893	0.849885	-0.241396
C309	C	-0.547738	0.815830	-0.198570
H310	H	-0.622289	0.943206	-0.124049
H311	H	-0.547728	1.002471	-0.198577
H312	H	-0.473174	0.943207	-0.273100
H313	H	-0.473179	0.824673	-0.273097
H314	H	-0.547739	0.765408	-0.198569
H315	H	-0.562714	0.443885	-0.183553
H316	H	-0.526863	-0.000002	0.352164
