data_functionalizedCrystal
_audit_creation_method	'MofGen! by Chris Wilmer'
_symmetry_space_group_name_H-M	'P1'
_symmetry_Int_Tables_number	1
_symmetry_cell_setting	triclinic
loop_
_symmetry_equiv_pos_as_xyz
  x,y,z
_cell_length_a	12.759401
_cell_length_b	12.759394
_cell_length_c	12.759393
_cell_angle_alpha	89.968780
_cell_angle_beta	89.980324
_cell_angle_gamma	90.015263
loop_
_atom_site_label
_atom_site_type_symbol
_atom_site_fract_x
_atom_site_fract_y
_atom_site_fract_z
Zn1	Zn	1.606265	-0.418204	-0.593979
Zn2	Zn	1.606156	-0.593919	-0.418297
Zn3	Zn	1.430564	-0.418256	-0.418318
Zn4	Zn	1.430556	-0.593843	-0.593938
O5	O	1.518385	-0.506055	-0.506133
O6	O	1.753272	-0.441523	-0.570683
O7	O	1.582821	-0.570671	-0.271279
O8	O	1.453921	-0.271228	-0.441646
O9	O	1.753192	-0.570620	-0.441610
O10	O	1.583008	-0.271190	-0.570704
O11	O	1.453815	-0.441612	-0.271295
O12	O	1.283542	-0.441538	-0.441607
O13	O	1.453906	-0.570490	-0.740965
O14	O	1.283536	-0.570541	-0.570634
O15	O	1.582999	-0.441448	-0.740995
O16	O	1.582813	-0.740930	-0.441570
O17	O	1.453800	-0.740874	-0.570613
C18	C	1.245418	-0.506037	-0.506119
C19	C	1.128641	-0.506055	-0.506137
C20	C	1.073822	-0.438955	-0.573449
C21	C	0.964098	-0.438966	-0.573456
C22	C	0.964022	-0.573185	-0.438836
C23	C	1.073744	-0.573168	-0.438825
C24	C	1.518322	-0.779023	-0.506108
C25	C	1.518391	-0.895800	-0.506132
C26	C	1.652833	-0.895805	-0.371861
C27	C	1.720082	-0.950669	-0.304737
C28	C	1.720143	-1.060390	-0.304766
C29	C	1.652951	-1.115251	-0.371927
C30	C	1.585703	-1.060387	-0.439051
C31	C	1.585647	-0.950663	-0.439013
C32	C	1.451268	-1.060382	-0.573326
C33	C	1.451199	-0.950660	-0.573294
C34	C	1.384076	-1.115242	-0.640487
C35	C	1.316821	-1.060379	-0.707607
C36	C	1.316761	-0.950651	-0.707575
C37	C	1.383951	-0.895797	-0.640417
C38	C	1.792418	-0.506074	-0.506149
C39	C	1.909195	-0.506082	-0.506156
C40	C	1.518464	-0.505955	-0.780167
C41	C	1.518497	-0.505912	-0.896944
C42	C	1.518477	-0.232022	-0.506182
C43	C	1.518516	-0.115245	-0.506203
C44	C	1.585721	-0.438709	-0.951823
C45	C	1.585739	-0.438664	-1.061547
C46	C	1.451306	-0.573033	-1.061503
C47	C	1.451284	-0.573072	-0.951781
C48	C	1.518367	-0.506080	-0.233166
C49	C	1.518537	-0.505827	-0.116390
H50	H	1.652776	-0.806464	-0.371817
H51	H	1.396586	-0.627714	-1.106165
C52	C	0.903631	-0.647015	-0.364805
C53	C	0.828162	-0.601406	-0.282412
C54	C	0.767772	-0.675240	-0.208383
C55	C	0.782852	-0.794684	-0.216746
C56	C	0.858325	-0.840299	-0.299143
C57	C	0.918714	-0.766465	-0.373172
H58	H	0.816996	-0.512981	-0.276218
H59	H	0.711903	-0.641472	-0.147387
H60	H	0.738148	-0.849341	-0.161945
H61	H	0.869491	-0.928724	-0.305337
H62	H	0.974584	-0.800233	-0.434168
H63	H	1.640478	-0.383939	-1.106225
C64	C	1.377325	-0.646996	-0.891410
C65	C	1.294841	-0.601476	-0.815984
C66	C	1.220878	-0.675391	-0.755615
C67	C	1.229400	-0.794824	-0.770671
C68	C	1.311887	-0.840350	-0.846100
C69	C	1.385850	-0.766435	-0.906469
H70	H	1.288530	-0.513059	-0.804836
H71	H	1.159816	-0.641689	-0.699778
H72	H	1.174649	-0.849540	-0.725982
H73	H	1.318199	-0.928767	-0.857248
H74	H	1.446913	-0.800137	-0.962306
H75	H	1.118380	-0.627810	-0.384006
H76	H	1.118516	-0.384304	-0.628256
H77	H	1.640448	-0.384020	-0.907178
C78	C	0.903799	-0.365158	-0.647506
C79	C	0.918938	-0.373883	-0.766924
C80	C	0.858641	-0.300071	-0.840978
C81	C	0.783205	-0.217533	-0.795612
C82	C	0.768063	-0.208805	-0.676187
C83	C	0.828360	-0.282617	-0.602134
H84	H	0.974783	-0.434986	-0.800512
H85	H	0.869850	-0.306533	-0.929384
H86	H	0.738569	-0.162893	-0.850431
H87	H	0.712218	-0.147702	-0.642599
H88	H	0.817150	-0.276155	-0.513728
C89	C	1.794114	-1.120748	-0.230932
C90	C	1.748658	-1.196287	-0.148440
C91	C	1.822628	-1.256646	-0.074607
C92	C	1.942054	-1.241466	-0.083265
C93	C	1.987516	-1.165923	-0.165760
C94	C	1.913546	-1.105564	-0.239593
H95	H	1.660247	-1.207528	-0.142028
H96	H	1.788974	-1.312568	-0.013538
H97	H	1.996811	-1.286147	-0.028609
H98	H	2.075927	-1.154683	-0.172173
H99	H	1.947201	-1.049643	-0.300662
H100	H	1.653017	-1.204592	-0.371954
H101	H	1.774791	-0.905991	-0.250057
H102	H	1.262124	-1.105055	-0.762289
H103	H	1.384136	-1.204584	-0.640510
H104	H	1.262004	-0.905987	-0.762239
H105	H	1.383902	-0.806456	-0.640378
