data_functionalizedCrystal
_audit_creation_method	'MofGen! by Chris Wilmer'
_symmetry_space_group_name_H-M	'P1'
_symmetry_Int_Tables_number	1
_symmetry_cell_setting	triclinic
loop_
_symmetry_equiv_pos_as_xyz
  x,y,z
_cell_length_a	17.640112
_cell_length_b	16.120484
_cell_length_c	17.640968
_cell_angle_alpha	82.192558
_cell_angle_beta	92.139080
_cell_angle_gamma	103.499326
loop_
_atom_site_label
_atom_site_type_symbol
_atom_site_fract_x
_atom_site_fract_y
_atom_site_fract_z
Zn1	Zn	1.246898	-0.023860	-0.196404
Zn2	Zn	1.214806	-0.195187	-0.078925
Zn3	Zn	1.092236	-0.077878	-0.098046
Zn4	Zn	1.113950	-0.184256	-0.230901
O5	O	1.166972	-0.120295	-0.151069
O6	O	1.349575	-0.028555	-0.158380
O7	O	1.176029	-0.206807	0.023304
O8	O	1.117096	0.045508	-0.104658
O9	O	1.325997	-0.154428	-0.072070
O10	O	1.230725	0.085195	-0.176921
O11	O	1.085978	-0.120621	0.009256
O12	O	0.988182	-0.110021	-0.138109
O13	O	1.154104	-0.135798	-0.331090
O14	O	1.004135	-0.188177	-0.235717
O15	O	1.251780	-0.017955	-0.305745
O16	O	1.197083	-0.309958	-0.105520
O17	O	1.122985	-0.301927	-0.217176
C18	C	0.968432	-0.153775	-0.192732
C19	C	0.883498	-0.168113	-0.210574
C20	C	0.562620	-0.011353	-0.015528
C21	C	0.482814	-0.024840	-0.032305
C22	C	0.499439	-0.106413	-0.133786
C23	C	0.579249	-0.092929	-0.117021
C24	C	0.610833	-0.045399	-0.057890
C25	C	0.627462	-0.126975	-0.159383
C26	C	0.707264	-0.113496	-0.142616
C27	C	0.738854	-0.065971	-0.083486
C28	C	0.690635	-0.031920	-0.041123
C29	C	0.595875	-0.174510	-0.218510
C30	C	0.644088	-0.208556	-0.260872
C31	C	0.723893	-0.195072	-0.244108
C32	C	0.755483	-0.147546	-0.184979
C33	C	0.772112	-0.229122	-0.286472
C34	C	0.851914	-0.215643	-0.269705
C35	C	0.835285	-0.134067	-0.168212
C36	C	1.158932	-0.336069	-0.163028
C37	C	1.155568	-0.428360	-0.168155
C38	C	1.149433	-0.597332	-0.177530
C39	C	1.184651	-0.642392	-0.124592
C40	C	1.181238	-0.736414	-0.129808
C41	C	1.152846	-0.503302	-0.172315
C42	C	1.366289	-0.086685	-0.109244
C43	C	1.451225	-0.072363	-0.091421
C44	C	1.208944	-0.069632	-0.346341
C45	C	1.226829	-0.048042	-0.429555
C46	C	1.175068	0.096329	-0.139075
C47	C	1.178518	0.188641	-0.133963
C48	C	1.031408	-0.283809	-0.769207
C49	C	1.048230	-0.263509	-0.847394
C50	C	1.149932	-0.140810	-0.820995
C51	C	1.133115	-0.161098	-0.742803
C52	C	1.073853	-0.232599	-0.716916
C53	C	1.175560	-0.109887	-0.690513
C54	C	1.158747	-0.130176	-0.612328
C55	C	1.099489	-0.201675	-0.586434
C56	C	1.057040	-0.252888	-0.638731
C57	C	1.234826	-0.038390	-0.716401
C58	C	1.277271	0.012820	-0.664110
C59	C	1.260455	-0.007464	-0.585924
C60	C	1.201197	-0.078964	-0.560030
C61	C	1.302904	0.043748	-0.533627
C62	C	1.286092	0.023459	-0.455442
C63	C	1.184384	-0.099252	-0.481846
C64	C	1.125211	-0.170694	0.043456
C65	C	1.107482	-0.192025	0.126714
H66	H	0.618361	-0.247257	-0.309014
N67	N	1.108401	-0.637526	-0.239293
N68	N	1.105654	-0.714955	-0.243491
H69	H	1.076674	-0.743352	-0.287110
H70	H	0.716355	0.006798	0.007017
H71	H	1.136109	-0.157459	-0.460770
N72	N	0.739829	-0.277680	-0.346859
N73	N	0.668575	-0.289717	-0.361816
H74	H	0.645775	-0.324013	-0.404464
H75	H	1.013662	-0.305217	-0.889969
H76	H	1.008765	-0.311094	-0.617656
H77	H	1.085804	-0.218196	-0.522770
H78	H	0.588340	0.027365	0.032612
H79	H	0.443562	0.002895	0.002191
H80	H	1.217365	-0.610356	-0.075352
H81	H	0.473711	-0.145114	-0.181929
H82	H	0.983133	-0.342016	-0.748131
N83	N	1.210454	-0.067774	-0.847458
N84	N	1.194921	-0.008070	-0.893803
H85	H	1.237663	0.043515	-0.912494
N86	N	0.901155	-0.250431	-0.312977
N87	N	0.872946	-0.292867	-0.365768
H88	H	0.907722	-0.317442	-0.396329
N89	N	1.329431	0.075765	-0.402015
N90	N	1.314410	0.057639	-0.332210
H91	H	1.345021	0.094579	-0.294474
N92	N	0.514361	-0.188257	-0.235646
N93	N	0.484542	-0.125427	-0.255295
H94	H	0.426974	-0.135132	-0.267401
H95	H	1.248515	-0.021875	-0.780065
N96	N	1.337806	0.085846	-0.690569
N97	N	1.352814	0.103951	-0.760378
H98	H	1.395567	0.155528	-0.779064
N99	N	1.363431	0.116780	-0.560091
N100	N	1.347905	0.176485	-0.606440
H101	H	1.390652	0.228065	-0.625131
N102	N	0.867564	-0.085492	-0.107829
N103	N	0.862593	-0.009054	-0.110547
H104	H	0.885393	0.025254	-0.067906
N105	N	0.820370	-0.052184	-0.066351
N106	N	0.848559	-0.009745	-0.013556
H107	H	0.906130	-0.000006	-0.001453
