data_functionalizedCrystal
_audit_creation_method	'MofGen! by Chris Wilmer'
_symmetry_space_group_name_H-M	'P1'
_symmetry_Int_Tables_number	1
_symmetry_cell_setting	triclinic
loop_
_symmetry_equiv_pos_as_xyz
  x,y,z
_cell_length_a	10.654548
_cell_length_b	10.654542
_cell_length_c	9.730223
_cell_angle_alpha	90.008022
_cell_angle_beta	90.000020
_cell_angle_gamma	95.516920
loop_
_atom_site_label
_atom_site_type_symbol
_atom_site_fract_x
_atom_site_fract_y
_atom_site_fract_z
O1	O	1.667836	-0.176388	-0.114198
O2	O	2.167836	0.323612	0.385802
O3	O	1.302357	-0.193196	-0.114224
O4	O	1.802357	0.306804	0.385776
O5	O	1.493504	-0.002052	-0.114189
O6	O	1.993504	0.497948	0.385811
O7	O	1.476689	-0.367532	-0.114233
O8	O	1.976689	0.132468	0.385767
O9	O	1.493492	-0.002047	0.114391
O10	O	1.993492	0.497953	0.614391
O11	O	1.302344	-0.193191	0.114355
O12	O	1.802344	0.306809	0.614355
O13	O	1.667824	-0.176382	0.114382
O14	O	2.167824	0.323618	0.614382
Zn15	Zn	1.485082	-0.184786	0.150661
Zn16	Zn	1.985082	0.315214	0.650661
Zn17	Zn	1.485098	-0.184793	-0.150503
Zn18	Zn	1.985098	0.315207	0.349497
O19	O	1.476676	-0.367527	0.114347
O20	O	1.976676	0.132473	0.614347
C21	C	1.255553	-0.191960	0.000062
C22	C	1.755553	0.308040	0.500062
C23	C	1.116109	-0.188269	0.000053
C24	C	1.616109	0.311731	0.500053
C25	C	1.492265	0.044749	0.000104
C26	C	1.992265	0.544749	0.500104
C27	C	1.488577	0.184192	0.000112
C28	C	1.988577	0.684192	0.500112
N29	N	1.485080	-0.184780	0.356197
N30	N	1.985080	0.315220	0.856197
C31	C	1.714628	-0.177619	0.000092
C32	C	2.214628	0.322381	0.500092
C33	C	1.854071	-0.181310	0.000093
C34	C	2.354071	0.318690	0.500093
C35	C	2.050620	-0.186528	0.124663
C36	C	2.550620	0.313472	0.624663
C37	C	1.919600	-0.183043	0.124684
C38	C	2.419600	0.316957	0.624684
C39	C	1.919570	-0.183047	-0.124527
C40	C	2.419570	0.316953	0.375473
C41	C	2.050589	-0.186522	-0.124546
C42	C	2.550589	0.313478	0.375454
C43	C	1.597645	0.394708	0.000128
C44	C	2.097645	0.894708	0.500128
C45	C	1.601120	0.263687	0.000128
C46	C	2.101120	0.763687	0.500128
C47	C	1.372550	0.235724	0.000110
C48	C	1.872550	0.735724	0.500110
C49	C	1.369076	0.366743	0.000120
C50	C	1.869076	0.866743	0.500120
C51	C	1.477921	0.585673	0.000073
C52	C	1.977921	1.085673	0.500073
C53	C	1.481628	0.446232	0.000122
C54	C	1.981628	0.946232	0.500122
N55	N	1.485110	-0.184788	-0.356039
N56	N	1.985110	0.315212	0.143961
C57	C	1.569749	-0.100178	0.428139
C58	C	2.069749	0.399822	0.928139
C59	C	1.569762	-0.100178	0.572022
C60	C	2.069762	0.399822	1.072022
C61	C	1.400432	-0.269395	0.572009
C62	C	1.900432	0.230605	1.072009
C63	C	1.400414	-0.269387	0.428128
C64	C	1.900414	0.230613	0.928128
H65	H	2.103963	-0.187950	0.226120
H66	H	2.603963	0.312050	0.726120
F67	F	1.724602	0.208859	0.000131
F68	F	2.224602	0.708859	0.500131
H69	H	1.866207	-0.181627	-0.225971
H70	H	2.366207	0.318373	0.274029
H71	H	1.280915	0.170988	0.000105
H72	H	1.780915	0.670988	0.500105
F73	F	1.849907	-0.181191	0.257311
F74	F	2.349907	0.318809	0.757311
H75	H	1.638705	-0.031286	0.630593
H76	H	2.138705	0.468714	1.130593
F77	F	1.310332	-0.359439	0.648572
F78	F	1.810332	0.140561	1.148572
H79	H	1.689292	0.459426	0.000130
H80	H	2.189292	0.959426	0.500130
H81	H	1.331460	-0.338282	0.369549
H82	H	1.831460	0.161718	0.869549
F83	F	1.659855	-0.010128	0.351590
F84	F	2.159855	0.489872	0.851590
F85	F	2.120293	-0.188368	-0.257180
F86	F	2.620293	0.311632	0.242820
F87	F	1.245588	0.421580	0.000121
F88	F	1.745588	0.921580	0.500121
