data_functionalizedCrystal
_audit_creation_method	'MofGen! by Chris Wilmer'
_symmetry_space_group_name_H-M	'P1'
_symmetry_Int_Tables_number	1
_symmetry_cell_setting	triclinic
loop_
_symmetry_equiv_pos_as_xyz
  x,y,z
_cell_length_a	6.817900
_cell_length_b	16.417825
_cell_length_c	11.168136
_cell_angle_alpha	93.915456
_cell_angle_beta	108.508683
_cell_angle_gamma	103.385495
loop_
_atom_site_label
_atom_site_type_symbol
_atom_site_fract_x
_atom_site_fract_y
_atom_site_fract_z
V1	V	-4.083861	-0.115898	-0.394142
O2	O	-4.070714	0.005556	-0.386184
O3	O	-4.034576	-0.229794	-0.391884
O4	O	-4.060550	-0.114121	-0.565841
O5	O	-4.044560	-0.110917	-0.211023
V6	V	-4.564352	-0.101370	-0.372186
O7	O	-4.351769	-0.147766	-0.442303
O8	O	-4.746641	-0.069502	-0.324024
O9	O	-4.390430	0.012526	-0.374444
O10	O	-4.694895	-0.222824	-0.380144
O11	O	-4.721049	-0.106351	-0.555305
O12	O	-4.364456	-0.103147	-0.200487
C13	C	-3.878550	-0.257559	-0.385779
C14	C	-3.919709	-0.350670	-0.385078
C15	C	-3.957358	-0.552931	-0.267809
C16	C	-3.996055	-0.640420	-0.267160
C17	C	-4.110237	-0.664338	-0.498532
C18	C	-4.071555	-0.576850	-0.499181
C19	C	-3.995104	-0.521148	-0.383815
C20	C	-4.072483	-0.696125	-0.382517
C21	C	-4.114440	-0.790985	-0.381814
C22	C	-3.953148	-0.426282	-0.384518
C23	C	-3.911681	-0.110006	-0.607677
C24	C	-3.973900	-0.109306	-0.748044
C25	C	-4.175586	-0.112967	-0.816750
C26	C	-4.239896	-0.112244	-0.961828
C27	C	-4.209797	0.040287	-0.380545
C28	C	-4.147878	0.133397	-0.381255
C29	C	-4.176666	-0.107265	-0.158644
C30	C	-4.093686	-0.107960	-0.018275
H31	H	-4.172482	-0.709700	-0.592459
H32	H	-3.965317	-0.666292	-0.172697
C33	C	-4.361976	-0.190888	-0.693012
C34	C	-4.344434	-0.117922	-0.751180
H35	H	-4.466231	-0.193948	-0.652541
H36	H	-4.227119	-0.188678	-0.631113
H37	H	-4.404511	-0.239525	-0.755941
H38	H	-4.301883	-0.069284	-0.688248
H39	H	-4.479320	-0.120126	-0.813084
H40	H	-3.895108	-0.507580	-0.173871
C41	C	-3.921707	-0.488303	-0.628175
C42	C	-4.113052	-0.541904	-0.626701
H43	H	-3.947340	-0.466725	-0.706893
H44	H	-3.817364	-0.519209	-0.619087
H45	H	-3.870670	-0.442616	-0.559552
H46	H	-4.164081	-0.587596	-0.695318
H47	H	-4.217430	-0.510998	-0.635803
H48	H	-3.920907	-0.104831	-0.959222
C49	C	-4.557915	-0.188685	-1.135069
C50	C	-4.473146	-0.116476	-1.041555
H51	H	-4.701914	-0.191293	-1.184296
H52	H	-4.554837	-0.237831	-1.095067
H53	H	-4.474498	-0.185895	-1.189277
H54	H	-4.556554	-0.119269	-0.987341
H55	H	-4.476239	-0.067318	-1.081559
H56	H	-3.848837	-0.105631	-0.796626
