data_functionalizedCrystal
_audit_creation_method	'MofGen! by Chris Wilmer'
_symmetry_space_group_name_H-M	'P1'
_symmetry_Int_Tables_number	1
_symmetry_cell_setting	triclinic
loop_
_symmetry_equiv_pos_as_xyz
  x,y,z
_cell_length_a	16.120490
_cell_length_b	12.759394
_cell_length_c	12.759387
_cell_angle_alpha	89.968340
_cell_angle_beta	87.081216
_cell_angle_gamma	87.107313
loop_
_atom_site_label
_atom_site_type_symbol
_atom_site_fract_x
_atom_site_fract_y
_atom_site_fract_z
Zn1	Zn	1.274641	-0.499852	-0.675381
Zn2	Zn	1.774641	0.000148	-0.175381
Zn3	Zn	1.274554	-0.675564	-0.499694
Zn4	Zn	1.774554	-0.175564	0.000306
Zn5	Zn	1.135215	-0.490974	-0.490816
Zn6	Zn	1.635215	0.009026	0.009184
Zn7	Zn	1.135208	-0.666559	-0.666436
Zn8	Zn	1.635208	-0.166559	-0.166436
O9	O	1.204905	-0.583237	-0.583082
O10	O	1.704905	-0.083237	-0.083082
O11	O	1.391297	-0.530644	-0.659535
O12	O	1.891297	-0.030644	-0.159535
O13	O	1.256037	-0.651130	-0.351493
O14	O	1.756037	-0.151130	0.148507
O15	O	1.153749	-0.345133	-0.515328
O16	O	1.653749	0.154867	-0.015328
O17	O	1.391233	-0.659739	-0.530458
O18	O	1.891233	-0.159739	-0.030458
O19	O	1.256185	-0.351656	-0.650927
O20	O	1.756185	0.148344	-0.150927
O21	O	1.153665	-0.515514	-0.344970
O22	O	1.653665	-0.015514	0.155030
O23	O	1.018546	-0.506782	-0.506654
O24	O	1.518546	-0.006782	-0.006654
O25	O	1.153738	-0.644392	-0.814646
O26	O	1.653738	-0.144392	-0.314646
O27	O	1.018542	-0.635783	-0.635681
O28	O	1.518542	-0.135783	-0.135681
O29	O	1.256179	-0.521913	-0.821218
O30	O	1.756179	-0.021913	-0.321218
O31	O	1.256031	-0.821388	-0.521784
O32	O	1.756031	-0.321388	-0.021784
O33	O	1.153654	-0.814772	-0.644289
O34	O	1.653654	-0.314772	-0.144289
C35	C	1.204855	-0.856202	-0.583053
C36	C	1.704855	-0.356202	-0.083053
C37	C	1.204910	-0.972982	-0.583081
C38	C	1.704910	-0.472982	-0.083081
C39	C	0.988293	-0.569343	-0.569234
C40	C	1.488293	-0.069343	-0.069234
C41	C	0.895626	-0.563424	-0.563334
C42	C	1.395626	-0.063424	-0.063334
C43	C	1.311595	-0.979822	-0.455622
C44	C	1.811595	-0.479822	0.044378
C45	C	1.364959	-1.038105	-0.391907
C46	C	1.864959	-0.538105	0.108093
C47	C	1.365008	-1.147830	-0.391939
C48	C	1.865008	-0.647830	0.108061
C49	C	1.311688	-1.199274	-0.455695
C50	C	1.811688	-0.699274	0.044305
C51	C	1.258324	-1.140992	-0.519410
C52	C	1.758324	-0.640992	-0.019410
C53	C	1.258279	-1.031265	-0.519370
C54	C	1.758279	-0.531265	-0.019370
C55	C	1.151644	-1.134151	-0.646873
C56	C	1.651644	-0.634151	-0.146873
C57	C	1.151590	-1.024426	-0.646837
C58	C	1.651590	-0.524426	-0.146837
C59	C	1.098325	-1.185596	-0.710629
C60	C	1.598325	-0.685596	-0.210629
C61	C	1.044955	-1.127313	-0.774341
C62	C	1.544955	-0.627313	-0.274341
C63	C	1.044908	-1.017582	-0.774306
C64	C	1.544908	-0.517582	-0.274306
C65	C	1.098226	-0.966144	-0.710553
C66	C	1.598226	-0.466144	-0.210553
C67	C	0.684693	-0.613930	-0.613685
C68	C	1.184693	-0.113930	-0.113685
C69	C	0.725967	-0.552628	-0.552562
C70	C	1.225967	-0.052628	-0.052562
C71	C	0.820374	-0.558637	-0.558557
C72	C	1.320374	-0.058637	-0.058557
C73	C	0.590278	-0.607923	-0.607690
C74	C	1.090278	-0.107923	-0.107690
C75	C	1.422362	-0.597186	-0.596985
C76	C	1.922362	-0.097186	-0.096985
C77	C	1.515029	-0.603131	-0.602909
C78	C	2.015029	-0.103131	-0.102909
C79	C	1.204968	-0.583138	-0.857119
C80	C	1.704968	-0.083138	-0.357119
C81	C	1.204994	-0.583096	-0.973898
C82	C	1.704994	-0.083096	-0.473898
C83	C	1.204978	-0.309209	-0.583135
C84	C	1.704978	0.190791	-0.083135
C85	C	1.205009	-0.192434	-0.583158
C86	C	1.705009	0.307566	-0.083158
C87	C	1.311674	-0.455568	-0.980762
C88	C	1.811674	0.044432	-0.480762
C89	C	1.365025	-0.391789	-1.039055
C90	C	1.865025	0.108211	-0.539055
C91	C	1.365045	-0.391752	-1.148778
C92	C	1.865045	0.108248	-0.648778
C93	C	1.311707	-0.455499	-1.200210
C94	C	1.811707	0.044501	-0.700210
C95	C	1.258355	-0.519278	-1.141916
C96	C	1.758355	-0.019278	-0.641916
C97	C	1.258343	-0.519310	-1.032191
C98	C	1.758343	-0.019310	-0.532191
C99	C	1.151673	-0.646799	-1.135052
C100	C	1.651673	-0.146799	-0.635052
C101	C	1.151656	-0.646843	-1.025329
C102	C	1.651656	-0.146843	-0.525329
C103	C	1.098335	-0.710545	-1.186484
C104	C	1.598335	-0.210545	-0.686484
C105	C	1.044987	-0.774331	-1.128190
C106	C	1.544987	-0.274331	-0.628190
C107	C	1.044969	-0.774366	-1.018461
C108	C	1.544969	-0.274366	-0.518461
C109	C	1.098305	-0.710622	-0.967036
C110	C	1.598305	-0.210622	-0.467036
C111	C	1.204890	-0.583263	-0.310113
C112	C	1.704890	-0.083263	0.189887
C113	C	1.205025	-0.583020	-0.193346
C114	C	1.705025	-0.083020	0.306654
H115	H	1.311550	-0.890478	-0.455576
H116	H	1.811550	-0.390478	0.044424
H117	H	0.720257	-0.670921	-0.670511
H118	H	1.220257	-0.170921	-0.170511
C119	C	1.423693	-0.321670	-0.982473
C120	C	1.923693	0.178330	-0.482473
N121	N	1.467881	-0.268855	-0.939857
N122	N	1.967881	0.231145	-0.439857
H123	H	1.408373	-0.996209	-0.339999
H124	H	1.908373	-0.496209	0.160001
H125	H	1.408466	-1.195284	-0.340061
H126	H	1.908466	-0.695284	0.159939
C127	C	1.311662	-0.455611	-0.860064
C128	C	1.811662	0.044389	-0.360064
N129	N	1.311654	-0.455640	-0.769153
N130	N	1.811654	0.044360	-0.269153
H131	H	1.001559	-0.826222	-1.170074
H132	H	1.501559	-0.326222	-0.670074
H133	H	0.690401	-0.495633	-0.495731
H134	H	1.190401	0.004367	0.004269
C135	C	1.423734	-0.321593	-1.212903
C136	C	1.923734	0.178407	-0.712903
N137	N	1.467939	-0.268751	-1.261202
N138	N	1.967939	0.231249	-0.761202
H139	H	1.311721	-0.455454	-1.289552
H140	H	1.811721	0.044546	-0.789552
H141	H	1.098299	-0.710649	-0.877694
H142	H	1.598299	-0.210649	-0.377694
H143	H	1.098352	-0.710506	-1.275826
H144	H	1.598352	-0.210506	-0.775826
H145	H	1.311740	-1.288618	-0.455725
H146	H	1.811740	-0.788618	0.044275
C147	C	1.098379	-1.306296	-0.710660
C148	C	1.598379	-0.806296	-0.210660
N149	N	1.098415	-1.397209	-0.710680
N150	N	1.598415	-0.897209	-0.210680
C151	C	0.986276	-0.844528	-0.954346
C152	C	1.486276	-0.344528	-0.454346
N153	N	0.942068	-0.897376	-0.906059
N154	N	1.442068	-0.397376	-0.406059
H155	H	1.001456	-0.970134	-0.826195
H156	H	1.501456	-0.470134	-0.326195
C157	C	0.986309	-1.183909	-0.844463
C158	C	1.486309	-0.683909	-0.344463
N159	N	0.942133	-1.226541	-0.897277
N160	N	1.442133	-0.726541	-0.397277
H161	H	1.098187	-0.876800	-0.710511
H162	H	1.598187	-0.376800	-0.210511
