data_functionalizedCrystal
_audit_creation_method	'MofGen! by Chris Wilmer'
_symmetry_space_group_name_H-M	'P1'
_symmetry_Int_Tables_number	1
_symmetry_cell_setting	triclinic
loop_
_symmetry_equiv_pos_as_xyz
  x,y,z
_cell_length_a	19.805407
_cell_length_b	18.050590
_cell_length_c	19.805399
_cell_angle_alpha	90.027426
_cell_angle_beta	90.017803
_cell_angle_gamma	90.015869
loop_
_atom_site_label
_atom_site_type_symbol
_atom_site_fract_x
_atom_site_fract_y
_atom_site_fract_z
Zn1	Zn	1.034773	-0.295730	0.382688
Zn2	Zn	1.534773	0.204270	0.882688
Zn3	Zn	1.034703	-0.419922	0.269500
Zn4	Zn	1.534703	0.080078	0.769500
Zn5	Zn	0.921587	-0.295744	0.269516
Zn6	Zn	1.421587	0.204256	0.769516
Zn7	Zn	0.921566	-0.419877	0.382651
Zn8	Zn	1.421566	0.080123	0.882651
O9	O	0.978157	-0.357818	0.326089
O10	O	1.478157	0.142182	0.826089
O11	O	1.129480	-0.312217	0.367683
O12	O	1.629480	0.187783	0.867683
O13	O	1.019678	-0.403475	0.174786
O14	O	1.519678	0.096525	0.674786
O15	O	0.936639	-0.191818	0.284551
O16	O	1.436639	0.308182	0.784551
O17	O	1.129429	-0.403460	0.284524
O18	O	1.629429	0.096540	0.784524
O19	O	1.019796	-0.191807	0.367698
O20	O	1.519796	0.308193	0.867698
O21	O	0.936572	-0.312242	0.174798
O22	O	1.436572	0.187758	0.674798
O23	O	0.826868	-0.312198	0.284515
O24	O	1.326868	0.187802	0.784515
O25	O	0.936604	-0.403383	0.477372
O26	O	1.436604	0.096617	0.977372
O27	O	0.826853	-0.403397	0.367634
O28	O	1.326853	0.096603	0.867634
O29	O	1.019776	-0.312173	0.477400
O30	O	1.519776	0.187827	0.977400
O31	O	1.019657	-0.523841	0.284488
O32	O	1.519657	-0.023841	0.784488
O33	O	0.936536	-0.523807	0.367619
O34	O	1.436536	-0.023807	0.867619
C35	C	0.802301	-0.357795	0.326073
C36	C	1.302301	0.142205	0.826073
C37	C	0.727069	-0.357803	0.326082
C38	C	1.227069	0.142197	0.826082
C39	C	0.691752	-0.310377	0.369448
C40	C	1.191752	0.189623	0.869448
C41	C	0.621064	-0.310380	0.369451
C42	C	1.121064	0.189620	0.869451
C43	C	0.585694	-0.357815	0.326090
C44	C	1.085694	0.142185	0.826090
C45	C	0.621016	-0.405244	0.282718
C46	C	1.121016	0.094756	0.782718
C47	C	0.691703	-0.405235	0.282713
C48	C	1.191703	0.094765	0.782713
C49	C	0.335942	-0.405277	0.282739
C50	C	0.835942	0.094723	0.782739
C51	C	0.265250	-0.405283	0.282749
C52	C	0.765250	0.094717	0.782749
C53	C	0.265304	-0.310422	0.369477
C54	C	0.765304	0.189578	0.869477
C55	C	0.335991	-0.310414	0.369472
C56	C	0.835991	0.189586	0.869472
C57	C	0.371306	-0.357839	0.326098
C58	C	0.871306	0.142161	0.826098
C59	C	0.447955	-0.357833	0.326095
C60	C	0.947955	0.142167	0.826095
C61	C	0.509047	-0.357825	0.326096
C62	C	1.009047	0.142175	0.826096
C63	C	0.978105	-0.550770	0.326062
C64	C	1.478105	-0.050770	0.826062
C65	C	0.978145	-0.633316	0.326073
C66	C	1.478145	-0.133316	0.826073
C67	C	1.023440	-0.832758	0.280930
C68	C	1.523440	-0.332758	0.780930
C69	C	1.039973	-0.882093	0.342704
C70	C	1.539973	-0.382093	0.842704
C71	C	0.978183	-0.784446	0.326100
C72	C	1.478183	-0.284446	0.826100
C73	C	0.961720	-0.882194	0.264353
C74	C	1.461720	-0.382194	0.764353
C75	C	0.978222	-0.930432	0.326121
C76	C	1.478222	-0.430432	0.826121
C77	C	0.994748	-0.832694	0.387907
C78	C	1.494748	-0.332694	0.887907
C79	C	0.916466	-0.832791	0.309515
C80	C	1.416466	-0.332791	0.809515
C81	C	0.932975	-0.882103	0.371332
C82	C	1.432975	-0.382103	0.871332
C83	C	0.978163	-0.700348	0.326087
C84	C	1.478163	-0.200348	0.826087
C85	C	0.978242	-1.014528	0.326141
C86	C	1.478242	-0.514528	0.826141
C87	C	1.154700	-0.357842	0.326106
C88	C	1.654700	0.142158	0.826106
C89	C	1.229932	-0.357852	0.326113
C90	C	1.729932	0.142148	0.826113
C91	C	0.978195	-0.357771	0.502632
C92	C	1.478195	0.142229	1.002632
C93	C	0.978211	-0.357752	0.577864
C94	C	1.478211	0.142248	1.077864
C95	C	0.978228	-0.164113	0.326131
C96	C	1.478228	0.335887	0.826131
C97	C	0.978258	-0.081567	0.326149
C98	C	1.478258	0.418433	0.826149
C99	C	0.978158	-0.357811	0.150233
C100	C	1.478158	0.142189	0.650233
C101	C	0.978273	-0.357622	0.075001
C102	C	1.478273	0.142378	0.575001
C103	C	1.021520	-0.310256	0.613223
C104	C	1.521520	0.189744	1.113223
C105	C	1.021527	-0.310235	0.683912
C106	C	1.521527	0.189765	1.183912
C107	C	0.978228	-0.357713	0.719239
C108	C	1.478228	0.142287	1.219239
C109	C	0.934915	-0.405210	0.683875
C110	C	1.434915	0.094790	1.183875
C111	C	0.934905	-0.405228	0.613188
C112	C	1.434905	0.094772	1.113188
C113	C	0.934953	-0.405141	0.968948
C114	C	1.434953	0.094859	1.468948
C115	C	0.934968	-0.405122	1.039640
C116	C	1.434968	0.094878	1.539640
C117	C	1.021575	-0.310148	1.039673
C118	C	1.521575	0.189852	1.539673
C119	C	1.021565	-0.310165	0.968985
C120	C	1.521565	0.189835	1.468985
C121	C	0.978250	-0.357660	0.933627
C122	C	1.478250	0.142340	1.433627
C123	C	0.978242	-0.357682	0.856979
C124	C	1.478242	0.142318	1.356979
C125	C	0.978239	-0.357695	0.795887
C126	C	1.478239	0.142305	1.295887
H127	H	0.592312	-0.271762	0.404766
H128	H	1.092312	0.228238	0.904766
O129	O	0.892999	-0.451323	1.073988
O130	O	1.392999	0.048677	1.573988
C131	C	0.931523	-0.499275	1.114880
C132	C	1.431523	0.000725	1.614880
H133	H	0.984824	-0.503878	1.093582
H134	H	1.484824	-0.003878	1.593582
H135	H	0.933875	-0.476302	1.168459
H136	H	1.433875	0.023698	1.668459
C137	C	0.832957	-0.570819	1.142103
C138	C	1.332957	-0.070819	1.642103
C139	C	0.898422	-0.576477	1.115941
C140	C	1.398422	-0.076477	1.615941
H141	H	0.812538	-0.618439	1.142761
H142	H	1.312538	-0.118439	1.642761
H143	H	0.807002	-0.538511	1.114555
H144	H	1.307002	-0.038511	1.614555
H145	H	0.834926	-0.551671	1.186750
H146	H	1.334926	-0.051671	1.686750
H147	H	0.896450	-0.595615	1.071293
H148	H	1.396450	-0.095615	1.571293
H149	H	0.924375	-0.608790	1.143481
H150	H	1.424375	-0.108790	1.643481
H151	H	0.720457	-0.443854	0.247399
H152	H	1.220457	0.056146	0.747399
H153	H	0.947779	-0.903936	0.212127
H154	H	1.447779	-0.403936	0.712127
H155	H	0.364786	-0.271790	0.404783
H156	H	0.864786	0.228210	0.904783
O157	O	0.230860	-0.451440	0.240719
O158	O	0.730860	0.048560	0.740719
C159	C	0.189969	-0.499457	0.279178
C160	C	0.689969	0.000543	0.779178
H161	H	0.211296	-0.504125	0.332475
H162	H	0.711296	-0.004125	0.832475
H163	H	0.136402	-0.476504	0.281558
H164	H	0.636402	0.023496	0.781558
C165	C	0.162660	-0.570877	0.180518
C166	C	0.662660	-0.070877	0.680518
C167	C	0.188857	-0.576615	0.245977
C168	C	0.688857	-0.076615	0.745977
H169	H	0.161970	-0.618470	0.160037
H170	H	0.661970	-0.118470	0.660037
H171	H	0.190207	-0.538525	0.154607
H172	H	0.690207	-0.038525	0.654607
H173	H	0.118023	-0.551746	0.182510
H174	H	0.618023	-0.051746	0.682510
H175	H	0.233496	-0.595736	0.243983
H176	H	0.733496	-0.095736	0.743983
H177	H	0.161317	-0.608971	0.271887
H178	H	0.661317	-0.108971	0.771887
H179	H	0.236541	-0.271803	0.404792
H180	H	0.736541	0.228197	0.904792
H181	H	0.899692	-0.443825	0.940168
H182	H	1.399692	0.056175	1.440168
O183	O	1.063553	-0.263933	0.934704
O184	O	1.563553	0.236067	1.434704
C185	C	1.048794	-0.189914	0.952012
C186	C	1.548794	0.310086	1.452012
H187	H	0.994725	-0.186160	0.971434
H188	H	1.494725	0.313840	1.471434
H189	H	1.085092	-0.170498	0.993057
H190	H	1.585092	0.329502	1.493057
C191	C	1.123086	-0.144968	0.865382
C192	C	1.623086	0.355032	1.365382
C193	C	1.056675	-0.140357	0.889231
C194	C	1.556675	0.359643	1.389231
H195	H	1.127950	-0.114398	0.826657
H196	H	1.627950	0.385602	1.326657
H197	H	1.133032	-0.194836	0.853723
H198	H	1.633032	0.305164	1.353723
H199	H	1.153327	-0.128789	0.899592
H200	H	1.653327	0.371211	1.399592
H201	H	1.026437	-0.156545	0.855025
H202	H	1.526437	0.343455	1.355025
H203	H	1.046725	-0.090490	0.900883
H204	H	1.546725	0.409510	1.400883
H205	H	1.056843	-0.271473	1.068470
H206	H	1.556843	0.228527	1.568470
H207	H	1.056781	-0.271596	0.584465
H208	H	1.556781	0.228404	1.084465
O209	O	0.370137	-0.451416	0.240588
O210	O	0.870137	0.048584	0.740588
C211	C	0.323758	-0.493270	0.202309
C212	C	0.823758	0.006730	0.702309
H213	H	0.273383	-0.495888	0.230038
H214	H	0.773383	0.004112	0.730038
H215	H	0.316220	-0.465999	0.150951
H216	H	0.816220	0.034001	0.650951
C217	C	0.413199	-0.569078	0.158360
C218	C	0.913199	-0.069078	0.658360
C219	C	0.351329	-0.572299	0.192419
C220	C	0.851329	-0.072299	0.692419
H221	H	0.430207	-0.617825	0.152257
H222	H	0.930207	-0.117825	0.652257
H223	H	0.444447	-0.540878	0.184147
H224	H	0.944447	-0.040878	0.684147
H225	H	0.406909	-0.546348	0.115565
H226	H	0.906909	-0.046348	0.615565
H227	H	0.357622	-0.595019	0.235217
H228	H	0.857622	-0.095019	0.735217
H229	H	0.320083	-0.600504	0.166639
H230	H	0.820083	-0.100504	0.666639
H231	H	0.592211	-0.443862	0.247410
H232	H	1.092211	0.056138	0.747410
H233	H	1.061725	-0.811091	0.242770
H234	H	1.561725	-0.311091	0.742770
O235	O	1.102297	-0.907902	0.359345
O236	O	1.602297	-0.407902	0.859345
C237	C	1.149843	-0.882751	0.311595
C238	C	1.649843	-0.382751	0.811595
H239	H	1.122952	-0.868942	0.262284
H240	H	1.622952	-0.368942	0.762284
H241	H	1.176093	-0.831049	0.331742
H242	H	1.676093	-0.331049	0.831742
C243	C	1.235675	-0.960735	0.359397
C244	C	1.735675	-0.460735	0.859397
C245	C	1.202648	-0.943780	0.298831
C246	C	1.702648	-0.443780	0.798831
H247	H	1.268250	-0.998378	0.351525
H248	H	1.768250	-0.498378	0.851525
H249	H	1.203644	-0.977678	0.391569
H250	H	1.703644	-0.477678	0.891569
H251	H	1.257544	-0.917644	0.376180
H252	H	1.757544	-0.417644	0.876180
H253	H	1.180773	-0.986867	0.282054
H254	H	1.680773	-0.486867	0.782054
H255	H	1.234677	-0.926845	0.266656
H256	H	1.734677	-0.426845	0.766656
H257	H	1.008637	-0.811043	0.440179
H258	H	1.508637	-0.311043	0.940179
O259	O	0.892950	-0.451409	0.718221
O260	O	1.392950	0.048591	1.218221
C261	C	0.931472	-0.499359	0.759116
C262	C	1.431472	0.000641	1.259116
H263	H	0.984776	-0.503961	0.737821
H264	H	1.484776	-0.003961	1.237821
H265	H	0.933822	-0.476385	0.812694
H266	H	1.433822	0.023615	1.312694
C267	C	0.832907	-0.570906	0.786335
C268	C	1.332907	-0.070906	1.286335
C269	C	0.898374	-0.576562	0.760176
C270	C	1.398374	-0.076562	1.260176
H271	H	0.812489	-0.618527	0.786992
H272	H	1.312489	-0.118527	1.286992
H273	H	0.806953	-0.538599	0.758785
H274	H	1.306953	-0.038599	1.258785
H275	H	0.834874	-0.551757	0.830981
H276	H	1.334874	-0.051757	1.330981
H277	H	0.896405	-0.595701	0.715528
H278	H	1.396405	-0.095701	1.215528
H279	H	0.924327	-0.608874	0.787718
H280	H	1.424327	-0.108874	1.287718
O281	O	0.887412	-0.907759	0.417055
O282	O	1.387412	-0.407759	0.917055
C283	C	0.905032	-0.882383	0.482054
C284	C	1.405032	-0.382383	0.982054
H285	H	0.961183	-0.868559	0.483391
H286	H	1.461183	-0.368559	0.983391
H287	H	0.874501	-0.830643	0.494589
H288	H	1.374501	-0.330643	0.994589
C289	C	0.820703	-0.960208	0.532677
C290	C	1.320703	-0.460208	1.032677
C291	C	0.889671	-0.943235	0.534320
C292	C	1.389671	-0.443235	1.034320
H293	H	0.811225	-0.997742	0.564917
H294	H	1.311225	-0.497742	1.064917
H295	H	0.808830	-0.977303	0.488885
H296	H	1.308830	-0.477303	0.988885
H297	H	0.795269	-0.917086	0.543121
H298	H	1.295269	-0.417086	1.043121
H299	H	0.915103	-0.986354	0.523867
H300	H	1.415103	-0.486354	1.023867
H301	H	0.901548	-0.926149	0.578111
H302	H	1.401548	-0.426149	1.078111
H303	H	1.056795	-0.271561	0.712699
H304	H	1.556795	0.228439	1.212699
O305	O	0.892915	-0.451477	0.578863
O306	O	1.392915	0.048523	1.078863
C307	C	0.907678	-0.525490	0.596134
C308	C	1.407678	-0.025490	1.096134
H309	H	0.961750	-0.529236	0.615580
H310	H	1.461750	-0.029236	1.115580
H311	H	0.871385	-0.544894	0.637149
H312	H	1.371385	-0.044894	1.137149
C313	C	0.833376	-0.570466	0.509440
C314	C	1.333376	-0.070466	1.009440
C315	C	0.899790	-0.575068	0.533319
C316	C	1.399790	-0.075068	1.033319
H317	H	0.828508	-0.601049	0.470695
H318	H	1.328508	-0.101049	0.970695
H319	H	0.823428	-0.520602	0.497806
H320	H	1.323428	-0.020602	0.997806
H321	H	0.803140	-0.586635	0.543625
H322	H	1.303140	-0.086635	1.043625
H323	H	0.930024	-0.558891	0.499138
H324	H	1.430024	-0.058891	0.999138
H325	H	0.909743	-0.624930	0.544946
H326	H	1.409743	-0.124930	1.044946
O327	O	0.726004	-0.264230	0.411594
O328	O	1.226004	0.235770	0.911594
C329	C	0.679670	-0.222385	0.449882
C330	C	1.179670	0.277615	0.949882
H331	H	0.629272	-0.219778	0.422165
H332	H	1.129272	0.280222	0.922165
H333	H	0.672166	-0.249657	0.501243
H334	H	1.172166	0.250343	1.001243
C335	C	0.769173	-0.146557	0.493810
C336	C	1.269173	0.353443	0.993810
C337	C	0.707275	-0.143350	0.459765
C338	C	1.207275	0.356650	0.959765
H339	H	0.786202	-0.097806	0.499909
H340	H	1.286202	0.402194	0.999909
H341	H	0.800389	-0.174750	0.468017
H342	H	1.300389	0.325250	0.968017
H343	H	0.762911	-0.169287	0.536607
H344	H	1.262911	0.330713	1.036607
H345	H	0.713539	-0.120629	0.416966
H346	H	1.213539	0.379371	0.916966
H347	H	0.676060	-0.115151	0.485551
H348	H	1.176060	0.384849	0.985551
O349	O	0.854219	-0.806961	0.292626
O350	O	1.354219	-0.306961	0.792626
C351	C	0.837027	-0.832155	0.227453
C352	C	1.337027	-0.332155	0.727453
H353	H	0.885012	-0.846018	0.198297
H354	H	1.385012	-0.346018	0.698297
H355	H	0.804202	-0.883833	0.231702
H356	H	1.304202	-0.383833	0.731702
C357	C	0.738836	-0.754112	0.225716
C358	C	1.238836	-0.254112	0.725716
C359	C	0.797772	-0.771133	0.189904
C360	C	1.297772	-0.271133	0.689904
H361	H	0.714618	-0.716473	0.202554
H362	H	1.214618	-0.216473	0.702554
H363	H	0.750416	-0.737140	0.269625
H364	H	1.250416	-0.237140	0.769625
H365	H	0.711489	-0.797182	0.229254
H366	H	1.211489	-0.297182	0.729254
H367	H	0.825121	-0.728065	0.186374
H368	H	1.325121	-0.228065	0.686374
H369	H	0.786195	-0.788096	0.145993
H370	H	1.286195	-0.288096	0.645993
