data_functionalizedCrystal
_audit_creation_method	'MofGen! by Chris Wilmer'
_symmetry_space_group_name_H-M	'P1'
_symmetry_Int_Tables_number	1
_symmetry_cell_setting	triclinic
loop_
_symmetry_equiv_pos_as_xyz
  x,y,z
_cell_length_a	13.262397
_cell_length_b	18.266242
_cell_length_c	13.339070
_cell_angle_alpha	90.000085
_cell_angle_beta	99.431569
_cell_angle_gamma	105.909198
loop_
_atom_site_label
_atom_site_type_symbol
_atom_site_fract_x
_atom_site_fract_y
_atom_site_fract_z
O1	O	-1.432355	-0.224355	-0.136459
O2	O	-0.932355	0.275645	0.363541
O3	O	-1.131103	-0.164365	-0.151286
O4	O	-0.631103	0.335635	0.348714
O5	O	-1.247155	-0.187473	0.003538
O6	O	-0.747155	0.312527	0.503538
O7	O	-1.316303	-0.201247	-0.291282
O8	O	-0.816303	0.298753	0.208718
O9	O	-1.247125	-0.309229	0.003546
O10	O	-0.747125	0.190771	0.503546
O11	O	-1.131073	-0.286121	-0.151278
O12	O	-0.631073	0.213879	0.348722
O13	O	-1.432326	-0.346111	-0.136451
O14	O	-0.932326	0.153889	0.363549
Zn15	Zn	-1.281695	-0.335447	-0.143863
Zn16	Zn	-0.781695	0.164553	0.356137
Zn17	Zn	-1.281734	-0.175029	-0.143874
Zn18	Zn	-0.781734	0.324971	0.356126
O19	O	-1.316274	-0.323003	-0.291274
O20	O	-0.816274	0.176997	0.208726
C21	C	-1.091744	-0.217408	-0.150450
C22	C	-0.591744	0.282592	0.349550
C23	C	-0.974505	-0.194061	-0.147958
C24	C	-0.474505	0.305939	0.352042
N25	N	-1.281676	-0.444931	-0.143855
N26	N	-0.781676	0.055069	0.356145
C27	C	-0.919442	-0.116722	-0.146790
C28	C	-0.419442	0.383278	0.353210
C29	C	-0.809292	-0.094788	-0.144459
C30	C	-0.309292	0.405212	0.355541
C31	C	-0.754194	-0.150191	-0.143287
C32	C	-0.254194	0.349809	0.356713
C33	C	-0.809257	-0.227532	-0.144447
C34	C	-0.309257	0.272468	0.355553
C35	C	-0.919418	-0.249469	-0.146787
C36	C	-0.419418	0.250531	0.353213
C37	C	-0.754171	-0.282938	-0.143284
C38	C	-0.254171	0.217062	0.356716
C39	C	-0.809234	-0.360279	-0.144444
C40	C	-0.309234	0.139721	0.355556
C41	C	-0.919384	-0.382212	-0.146783
C42	C	-0.419384	0.117788	0.353217
C43	C	-0.974482	-0.326808	-0.147955
C44	C	-0.474482	0.173192	0.352045
C45	C	-0.644009	-0.261002	-0.140944
C46	C	-0.144009	0.238998	0.359056
C47	C	-0.643986	-0.393749	-0.140941
C48	C	-0.143986	0.106251	0.359059
C49	C	-0.754136	-0.415683	-0.143272
C50	C	-0.254136	0.084317	0.356728
C51	C	-1.333097	-0.493478	-0.075333
C52	C	-0.833097	0.006522	0.424667
C53	C	-1.333102	-0.570124	-0.075328
C54	C	-0.833102	-0.070124	0.424672
C55	C	-1.281701	-0.598223	-0.143863
C56	C	-0.781701	-0.098223	0.356137
C57	C	-1.230268	-0.549663	-0.212390
C58	C	-0.730268	-0.049663	0.287610
C59	C	-1.230255	-0.473017	-0.212386
C60	C	-0.730255	0.026983	0.287614
N61	N	-1.294425	-0.721090	-0.233430
N62	N	-0.794425	-0.221090	0.266570
N63	N	-1.294443	-0.793902	-0.233431
N64	N	-0.794443	-0.293902	0.266569
C65	C	-1.281735	-0.829152	-0.143878
C66	C	-0.781735	-0.329152	0.356122
N67	N	-1.269029	-0.788843	-0.054322
N68	N	-0.769029	-0.288843	0.445678
N69	N	-1.269017	-0.716026	-0.054322
N70	N	-0.769017	-0.216026	0.445678
C71	C	-1.281709	-0.681331	-0.143875
C72	C	-0.781709	-0.181331	0.356125
C73	C	-1.333164	-0.960808	-0.075345
C74	C	-0.833164	-0.460808	0.424655
C75	C	-1.333162	-1.037454	-0.075339
C76	C	-0.833162	-0.537454	0.424661
C77	C	-1.230336	-1.016993	-0.212410
C78	C	-0.730336	-0.516993	0.287590
C79	C	-1.230330	-0.940347	-0.212407
C80	C	-0.730330	-0.440347	0.287593
C81	C	-1.281751	-0.912260	-0.143876
C82	C	-0.781751	-0.412260	0.356124
C83	C	-0.471685	-0.293067	-0.137285
C84	C	0.028315	0.206933	0.362715
C85	C	-0.588922	-0.316409	-0.139773
C86	C	-0.088922	0.183591	0.360227
C87	C	-1.327969	-0.264452	-0.329017
C88	C	-0.827969	0.235548	0.170983
C89	C	-1.362786	-0.271387	-0.441466
C90	C	-0.862786	0.228613	0.058534
N91	N	-1.281759	-0.065547	-0.143874
N92	N	-0.781759	0.434453	0.356126
C93	C	-1.092069	-0.217467	-0.805113
C94	C	-0.592069	0.282533	-0.305113
C95	C	-1.059354	-0.210963	-0.699462
C96	C	-0.559354	0.289037	-0.199462
C97	C	-1.135209	-0.226068	-0.634958
C98	C	-0.635209	0.273932	-0.134958
C99	C	-1.243785	-0.247679	-0.676115
C100	C	-0.743785	0.252321	-0.176115
C101	C	-1.276504	-0.254190	-0.781777
C102	C	-0.776504	0.245810	-0.281777
C103	C	-1.319644	-0.262791	-0.611621
C104	C	-0.819644	0.237209	-0.111621
C105	C	-1.428219	-0.284402	-0.652779
C106	C	-0.928219	0.215598	-0.152779
C107	C	-1.460932	-0.290911	-0.758430
C108	C	-0.960932	0.209089	-0.258430
C109	C	-1.385077	-0.275806	-0.822934
C110	C	-0.885077	0.224194	-0.322934
C111	C	-1.286925	-0.256280	-0.505960
C112	C	-0.786925	0.243720	-0.005960
C113	C	-1.471359	-0.293002	-0.482623
C114	C	-0.971359	0.206998	0.017377
C115	C	-1.504074	-0.299507	-0.588275
C116	C	-1.004074	0.200493	-0.088275
C117	C	-1.235460	-0.246023	0.041280
C118	C	-0.735460	0.253977	0.541280
C119	C	-1.200643	-0.239083	0.153729
C120	C	-0.700643	0.260917	0.653729
H121	H	-0.664505	-0.132328	-0.141389
H122	H	-0.164505	0.367672	0.358611
O123	O	-1.174896	-1.047287	-0.286336
O124	O	-0.674896	-0.547287	0.213664
H125	H	-1.183548	-1.108741	-0.274832
H126	H	-0.683548	-0.608741	0.225168
O127	O	-0.978786	-0.465629	-0.148077
O128	O	-0.478786	0.034371	0.351923
H129	H	-0.921972	-0.500471	-0.146873
H130	H	-0.421972	-0.000471	0.353127
H131	H	-0.798983	-0.478655	-0.144218
H132	H	-0.298983	0.021345	0.355782
H133	H	-1.592479	-0.317097	-0.621800
H134	H	-1.092479	0.182903	-0.121800
H135	H	-1.374963	-0.470612	-0.019529
H136	H	-0.874963	0.029388	0.480471
H137	H	-1.188415	-0.572544	-0.268191
H138	H	-0.688415	-0.072544	0.231809
O139	O	-1.174787	-0.420657	-0.286300
O140	O	-0.674787	0.079343	0.213700
H141	H	-1.111284	-0.373110	-0.243411
H142	H	-0.611284	0.126890	0.256589
H143	H	-1.064174	-0.344663	-0.149846
H144	H	-0.564174	0.155337	0.350154
H145	H	-1.198522	-0.238688	-0.472460
H146	H	-0.698522	0.261312	0.027540
O147	O	-1.388604	-0.930501	-0.001422
O148	O	-0.888604	-0.430501	0.498578
H149	H	-1.424346	-0.977137	0.046241
H150	H	-0.924346	-0.477137	0.546241
O151	O	-0.584622	-0.453524	-0.139972
O152	O	-0.084622	0.046476	0.360028
H153	H	-0.498789	-0.425281	-0.138248
H154	H	0.001211	0.074719	0.361752
H155	H	-0.970952	-0.193364	-0.665960
H156	H	-0.470952	0.306636	-0.165960
O157	O	-1.388640	-1.089825	-0.001441
O158	O	-0.888640	-0.589825	0.498559
H159	H	-1.424404	-1.057417	0.046200
H160	H	-0.924404	-0.557417	0.546200
H161	H	-1.108566	-0.220769	-0.548933
H162	H	-0.608566	0.279231	-0.048933
O163	O	-0.749926	-0.011371	-0.143190
O164	O	-0.249926	0.488629	0.356810
H165	H	-0.710472	-0.000321	-0.211078
H166	H	-0.210472	0.499679	0.288922
O167	O	-1.420353	-0.282823	-0.936892
O168	O	-0.920353	0.217177	-0.436892
H169	H	-1.468789	-0.242835	-0.959714
H170	H	-0.968789	0.257165	-0.459714
O171	O	-1.174884	-0.887980	-0.286325
O172	O	-0.674884	-0.387980	0.213675
H173	H	-1.139150	-0.920394	-0.333989
H174	H	-0.639150	-0.420394	0.166011
O175	O	-1.388579	-0.622504	-0.001431
O176	O	-0.888579	-0.122504	0.498569
H177	H	-1.424339	-0.590098	0.046217
H178	H	-0.924339	-0.090098	0.546217
H179	H	-1.030320	-0.205176	-0.857641
H180	H	-0.530320	0.294824	-0.357641
H181	H	-1.549342	-0.308516	-0.791936
H182	H	-1.049342	0.191484	-0.291936
H183	H	-1.533127	-0.305303	-0.430104
H184	H	-1.033127	0.194697	0.069896
O185	O	-0.584639	-0.177586	-0.139678
O186	O	-0.084639	0.322414	0.360322
H187	H	-0.545185	-0.166541	-0.207567
H188	H	-0.045185	0.333459	0.292433
O189	O	-0.978861	-0.056969	-0.148039
O190	O	-0.478861	0.443031	0.351961
H191	H	-1.064707	-0.085218	-0.149850
H192	H	-0.564707	0.414782	0.350150
