data_functionalizedCrystal
_audit_creation_method	'MofGen! by Chris Wilmer'
_symmetry_space_group_name_H-M	'P1'
_symmetry_Int_Tables_number	1
_symmetry_cell_setting	triclinic
loop_
_symmetry_equiv_pos_as_xyz
  x,y,z
_cell_length_a	19.077105
_cell_length_b	17.640280
_cell_length_c	19.076919
_cell_angle_alpha	81.491119
_cell_angle_beta	90.076224
_cell_angle_gamma	76.093206
loop_
_atom_site_label
_atom_site_type_symbol
_atom_site_fract_x
_atom_site_fract_y
_atom_site_fract_z
Zn1	Zn	1.129876	-0.382634	-0.374495
Zn2	Zn	1.158314	-0.509803	-0.235079
Zn3	Zn	1.015111	-0.372039	-0.254114
Zn4	Zn	1.036046	-0.509326	-0.347913
O5	O	1.084837	-0.443450	-0.302900
O6	O	1.232847	-0.404137	-0.359159
O7	O	1.142458	-0.487294	-0.140002
O8	O	1.009672	-0.262768	-0.289173
O9	O	1.253740	-0.497568	-0.256731
O10	O	1.093989	-0.270552	-0.377617
O11	O	1.037247	-0.386079	-0.153987
O12	O	0.918689	-0.385616	-0.263398
O13	O	1.045353	-0.496755	-0.449041
O14	O	0.934070	-0.486481	-0.332312
O15	O	1.114289	-0.403674	-0.468571
O16	O	1.162758	-0.620416	-0.230956
O17	O	1.072929	-0.620066	-0.313855
C18	C	0.900659	-0.434848	-0.297037
C19	C	0.821869	-0.431187	-0.294542
C20	C	0.792897	-0.482056	-0.329166
C21	C	0.718864	-0.478606	-0.326827
C22	C	0.673806	-0.424291	-0.289859
C23	C	0.702782	-0.373417	-0.255233
C24	C	0.776813	-0.376864	-0.257577
C25	C	0.451534	-0.408341	-0.279014
C26	C	0.377499	-0.404900	-0.276671
C27	C	0.393586	-0.510088	-0.348266
C28	C	0.467618	-0.513532	-0.350603
C29	C	0.496587	-0.462656	-0.315981
N30	N	0.598132	-0.420765	-0.287465
N31	N	0.572258	-0.466178	-0.318379
C32	C	1.123220	-0.648940	-0.267471
C33	C	1.139704	-0.736853	-0.252340
C34	C	0.959888	-1.025193	-0.418115
C35	C	0.975380	-1.107800	-0.403874
C36	C	1.068973	-1.108106	-0.317643
C37	C	1.053491	-1.025498	-0.331879
C38	C	0.998948	-0.984048	-0.382115
C39	C	1.092551	-0.984353	-0.295879
C40	C	1.077068	-0.901751	-0.310111
C41	C	1.022525	-0.860295	-0.360343
C42	C	0.983465	-0.901447	-0.396347
C43	C	1.147091	-1.025804	-0.245640
C44	C	1.186150	-0.984658	-0.209640
C45	C	1.170671	-0.902056	-0.223875
C46	C	1.116128	-0.860600	-0.274107
C47	C	1.209731	-0.860904	-0.187872
C48	C	1.194248	-0.778303	-0.202104
C49	C	1.100645	-0.777998	-0.288339
C50	C	1.269734	-0.452087	-0.308787
C51	C	1.348526	-0.455768	-0.311295
C52	C	1.078984	-0.451343	-0.484821
C53	C	1.076490	-0.454707	-0.562344
C54	C	1.046323	-0.237160	-0.338484
C55	C	1.029910	-0.149252	-0.353647
C56	C	1.111208	-0.407827	-0.608934
C57	C	1.108856	-0.410984	-0.681775
C58	C	1.071789	-0.461025	-0.708026
C59	C	1.037067	-0.507907	-0.661431
C60	C	1.039416	-0.504745	-0.588591
C61	C	1.060912	-0.475673	-0.924783
C62	C	1.058568	-0.478833	-0.997629
C63	C	1.130356	-0.381909	-1.017969
C64	C	1.132705	-0.378755	-0.945126
C65	C	1.097980	-0.425634	-0.898538
N66	N	1.069386	-0.464255	-0.782482
N67	N	1.100379	-0.422399	-0.824084
C68	C	1.090696	-0.435533	-0.121699
C69	C	1.093286	-0.431953	-0.044218
H70	H	0.475112	-0.366919	-0.250816
H71	H	1.009915	-0.793035	-0.371925
H72	H	1.162891	-0.338009	-0.923758
H73	H	1.032649	-0.513857	-0.886858
H74	H	0.504301	-0.557763	-0.380705
Cl75	Cl	0.990466	-0.570813	-0.694432
H76	H	1.230557	-1.018418	-0.168736
Cl77	Cl	0.849536	-0.550344	-0.375639
H78	H	1.254135	-0.894665	-0.146965
H79	H	1.226054	-0.744802	-0.172788
Cl80	Cl	0.914901	-0.849332	-0.459509
Cl81	Cl	0.646136	-0.305130	-0.208764
Cl82	Cl	0.891324	-0.973079	-0.481276
H83	H	1.028383	-0.519584	-1.018998
Cl84	Cl	1.174005	-0.322977	-1.076540
H85	H	0.340811	-0.360661	-0.246573
Cl86	Cl	1.032081	-0.725884	-0.351501
Cl87	Cl	0.813234	-0.312910	-0.214049
Cl88	Cl	1.137541	-1.160223	-0.254494
Cl89	Cl	0.926262	-1.159523	-0.449129
Cl90	Cl	1.157813	-0.344919	-0.575940
H91	H	1.137129	-0.372812	-0.719706
H92	H	0.695279	-0.520029	-0.355021
Cl93	Cl	0.995766	-0.563680	-0.530021
Cl94	Cl	1.166580	-1.129649	-0.227774
H95	H	0.369990	-0.551507	-0.376454
