data_functionalizedCrystal
_audit_creation_method	'MofGen! by Chris Wilmer'
_symmetry_space_group_name_H-M	'P1'
_symmetry_Int_Tables_number	1
_symmetry_cell_setting	triclinic
loop_
_symmetry_equiv_pos_as_xyz
  x,y,z
_cell_length_a	23.532361
_cell_length_b	23.532407
_cell_length_c	15.500227
_cell_angle_alpha	92.805592
_cell_angle_beta	87.178185
_cell_angle_gamma	82.839173
loop_
_atom_site_label
_atom_site_type_symbol
_atom_site_fract_x
_atom_site_fract_y
_atom_site_fract_z
O1	O	0.757938	0.066352	-0.071865
O2	O	0.592072	0.076382	-0.071887
O3	O	0.680006	-0.011565	-0.071860
O4	O	0.670004	0.154299	-0.071893
O5	O	0.674670	-0.006249	0.072027
O6	O	0.586736	0.081698	0.072000
O7	O	0.752602	0.071668	0.072022
Cu8	Cu	0.669182	0.077169	0.085149
Cu9	Cu	0.675492	0.070882	-0.085014
O10	O	0.664668	0.159615	0.071994
C11	C	0.568187	0.078789	0.000054
C12	C	0.504969	0.078033	0.000046
C13	C	0.234634	0.071832	-0.078381
C14	C	0.294034	0.072547	-0.078383
O15	O	0.327233	0.070433	-0.145086
N16	N	0.320831	0.075806	0.000050
C17	C	0.288225	0.078345	0.078490
O18	O	0.316473	0.081182	0.145203
C19	C	0.228827	0.077626	0.078491
C20	C	0.202033	0.074372	0.000053
C21	C	0.207839	0.068579	-0.156813
C22	C	0.148443	0.067865	-0.156810
C23	C	0.115842	0.070405	-0.078376
C24	C	0.142637	0.073659	0.000056
C25	C	0.196224	0.080160	0.156931
C26	C	0.136822	0.079440	0.156926
C27	C	0.110027	0.076187	0.078487
C28	C	0.050640	0.075485	0.078493
N29	N	0.023843	0.072226	0.000060
C30	C	0.056444	0.069686	-0.078375
C31	C	0.412966	0.079853	0.078481
C32	C	0.472362	0.080576	0.078481
C33	C	0.478167	0.074778	-0.078393
C34	C	0.418768	0.074059	-0.078392
C35	C	0.386169	0.076594	0.000048
C36	C	-0.068292	0.068188	-0.078363
C37	C	-0.127694	0.067477	-0.078354
C38	C	-0.133493	0.073272	0.078520
C39	C	-0.074096	0.073986	0.078511
C40	C	-0.041497	0.071442	0.000062
O41	O	0.017404	0.077595	0.145162
O42	O	0.028190	0.066842	-0.145077
C43	C	0.677083	-0.030123	0.000086
C44	C	0.676317	-0.093339	0.000092
C45	C	0.723553	-0.492452	0.000051
C46	C	0.722842	-0.551852	0.000045
O47	O	0.766630	-0.588605	0.000018
N48	N	0.670565	-0.574470	0.000038
C49	C	0.618996	-0.537684	0.000030
O50	O	0.574464	-0.562376	0.000023
C51	C	0.619708	-0.478285	0.000030
C52	C	0.671988	-0.455671	0.000045
C53	C	0.775829	-0.469837	0.000065
C54	C	0.776540	-0.410440	0.000074
C55	C	0.724975	-0.373659	0.000068
C56	C	0.672699	-0.396274	0.000054
C57	C	0.568139	-0.441500	0.000016
C58	C	0.568856	-0.382098	0.000015
C59	C	0.621136	-0.359484	0.000031
C60	C	0.621845	-0.300097	0.000056
N61	N	0.674122	-0.277479	0.000062
C62	C	0.725687	-0.314260	0.000068
C63	C	0.617504	-0.662426	0.000027
C64	C	0.616791	-0.721824	0.000033
C65	C	0.720638	-0.735988	0.000046
C66	C	0.721350	-0.676589	0.000047
C67	C	0.669781	-0.639809	0.000034
C68	C	0.727176	-0.189523	0.000086
C69	C	0.727882	-0.130121	0.000098
C70	C	0.624036	-0.115962	0.000081
C71	C	0.623329	-0.175359	0.000073
C72	C	0.674904	-0.212139	0.000073
O73	O	0.578080	-0.263309	0.000079
O74	O	0.770211	-0.289560	0.000064
C75	C	0.776487	0.069261	0.000079
C76	C	0.839705	0.070017	0.000081
C77	C	0.667591	0.178173	0.000046
C78	C	0.668357	0.241389	0.000034
N79	N	0.664747	0.081590	0.204832
N80	N	0.679931	0.066456	-0.204698
C81	C	0.702021	0.044337	0.250120
C82	C	0.698673	0.047686	0.340692
C83	C	0.658053	0.088291	0.385974
C84	C	0.620776	0.125546	0.340679
C85	C	0.624122	0.122193	0.250109
C86	C	0.645999	0.100358	0.659437
C87	C	0.642657	0.103708	0.750014
C88	C	0.720554	0.025848	0.750020
C89	C	0.723899	0.022502	0.659448
C90	C	0.686619	0.059754	0.614162
C91	C	0.654631	0.091717	0.478553
C92	C	0.690039	0.056326	0.521584
H93	H	0.396957	0.071410	-0.142263
O94	O	0.583921	0.162368	0.201248
H95	H	0.590281	0.207373	0.218597
O96	O	0.513336	0.072027	-0.162996
H97	H	0.559140	0.073065	-0.149812
H98	H	0.526862	-0.352154	0.000004
O99	O	0.561879	-0.622756	0.000026
H100	H	0.557547	-0.593193	0.058671
O101	O	0.610825	0.135514	0.527399
H102	H	0.585464	0.160858	0.480695
H103	H	0.218029	0.082807	0.220804
H104	H	0.609578	0.136776	0.786878
O105	O	-0.156593	0.063949	-0.162957
H106	H	-0.123938	0.062291	-0.217496
O107	O	0.101658	0.082180	0.241530
H108	H	0.130273	0.084568	0.296066
H109	H	-0.041757	0.066117	-0.142243
O110	O	0.605798	0.140540	0.610596
H111	H	0.576997	0.169342	0.657302
H112	H	0.817822	-0.499779	0.000067
H113	H	0.729023	0.017352	0.377566
H114	H	0.723110	0.023263	0.484713
O115	O	-0.045198	0.077500	0.163114
H116	H	-0.023574	0.116787	0.166863
O117	O	0.560404	-0.746213	0.000028
H118	H	0.524670	-0.710652	0.000021
O119	O	0.767719	-0.021288	0.610615
H120	H	0.763790	-0.017353	0.540027
H121	H	0.234377	0.066508	-0.220687
H122	H	0.494172	0.083235	0.142353
H123	H	0.580758	-0.193771	0.000085
H124	H	0.126633	0.065213	-0.220683
H125	H	0.582053	-0.086004	0.000079
O126	O	0.511751	-0.465884	-0.000004
H127	H	0.476021	-0.430320	-0.000018
O128	O	0.777737	-0.652199	0.000047
H129	H	0.813471	-0.687760	0.000044
H130	H	-0.160047	0.075342	0.142379
H131	H	0.819112	-0.392034	0.000082
O132	O	0.776255	-0.775669	0.000052
H133	H	0.812731	-0.749968	0.000066
H134	H	0.386425	0.081925	0.142360
O135	O	0.784273	-0.105729	0.000101
H136	H	0.820008	-0.141288	0.000091
H137	H	0.769173	-0.219463	0.000083
H138	H	0.735100	0.011275	0.213258
H139	H	0.750905	-0.004482	0.786901
H140	H	0.587699	0.158605	0.377553
