data_functionalizedCrystal
_audit_creation_method	'MofGen! by Chris Wilmer'
_symmetry_space_group_name_H-M	'P1'
_symmetry_Int_Tables_number	1
_symmetry_cell_setting	triclinic
loop_
_symmetry_equiv_pos_as_xyz
  x,y,z
_cell_length_a	15.944551
_cell_length_b	11.792254
_cell_length_c	10.868271
_cell_angle_alpha	90.005308
_cell_angle_beta	89.999827
_cell_angle_gamma	83.848668
loop_
_atom_site_label
_atom_site_type_symbol
_atom_site_fract_x
_atom_site_fract_y
_atom_site_fract_z
O1	O	1.115189	0.146380	0.102194
O2	O	1.615189	0.646380	0.602194
O3	O	0.870722	0.164427	0.102225
O4	O	1.370722	0.664427	0.602225
O5	O	0.998883	-0.009815	0.102200
O6	O	1.498883	0.490185	0.602200
O7	O	0.987029	0.320621	0.102219
O8	O	1.487029	0.820621	0.602219
O9	O	0.998872	-0.009822	-0.102444
O10	O	1.498872	0.490178	0.397556
O11	O	0.870711	0.164420	-0.102420
O12	O	1.370711	0.664420	0.397580
O13	O	1.115179	0.146373	-0.102450
O14	O	1.615179	0.646373	0.397550
Zn15	Zn	0.992943	0.155395	-0.134927
Zn16	Zn	1.492943	0.655395	0.365073
Zn17	Zn	0.992957	0.155404	0.134702
Zn18	Zn	1.492957	0.655404	0.634702
O19	O	0.987018	0.320615	-0.102425
O20	O	1.487018	0.820615	0.397575
C21	C	0.839419	0.163674	-0.000093
C22	C	1.339419	0.663674	0.499907
C23	C	0.746163	0.161428	-0.000082
C24	C	1.246163	0.661428	0.499918
C25	C	0.998131	-0.052103	-0.000122
C26	C	1.498131	0.447897	0.499878
C27	C	0.995895	-0.178098	-0.000120
C28	C	1.495895	0.321902	0.499880
C29	C	0.994079	-0.280420	-0.000116
C30	C	1.494079	0.219580	0.499884
C31	C	0.991809	-0.408787	-0.000104
C32	C	1.491809	0.091213	0.499896
C33	C	0.530791	0.048056	-0.000112
C34	C	1.030791	0.548056	0.499888
C35	C	0.470015	0.100705	0.100791
C36	C	0.970015	0.600705	0.600791
C37	C	0.575418	0.157364	-0.000097
C38	C	1.075418	0.657364	0.499903
C39	C	0.470027	0.100725	-0.100972
C40	C	0.970027	0.600725	0.399028
C41	C	0.410488	0.153431	-0.000116
C42	C	0.910488	0.653431	0.499884
C43	C	0.515871	0.210044	0.100890
C44	C	1.015871	0.710044	0.600890
C45	C	0.515889	0.210048	-0.100964
C46	C	1.015889	0.710048	0.399036
C47	C	0.455132	0.262777	-0.000036
C48	C	0.955132	0.762777	0.499964
C49	C	0.670431	0.159627	-0.000084
C50	C	1.170431	0.659627	0.499916
C51	C	0.315477	0.151177	-0.000120
C52	C	0.815477	0.651177	0.499880
C53	C	1.146481	0.147125	-0.000129
C54	C	1.646481	0.647125	0.499871
C55	C	1.239738	0.149371	-0.000132
C56	C	1.739738	0.649371	0.499868
C57	C	0.987770	0.362903	-0.000101
C58	C	1.487770	0.862903	0.499899
C59	C	0.990005	0.488897	-0.000094
C60	C	1.490005	0.988897	0.499906
N61	N	0.992940	0.155388	-0.318941
N62	N	1.492940	0.655388	0.181059
C63	C	0.992953	0.155402	-0.569947
C64	C	1.492953	0.655402	-0.069947
C65	C	0.992943	0.155398	-0.430269
C66	C	1.492943	0.655398	0.069731
N67	N	0.992967	0.155402	0.318716
N68	N	1.492967	0.655402	0.818716
H69	H	0.563711	-0.042661	0.000007
H70	H	1.063711	0.457339	0.500007
C71	C	0.442600	0.038249	-0.216213
C72	C	0.942600	0.538249	0.283787
H73	H	0.405154	0.088822	-0.263729
H74	H	0.905154	0.588822	0.236271
H75	H	0.490866	0.012919	-0.264040
H76	H	0.990866	0.512919	0.235960
H77	H	0.414844	-0.025536	-0.191953
H78	H	0.914844	0.474464	0.308047
H79	H	0.536073	0.256245	0.186290
H80	H	1.036073	0.756245	0.686290
C81	C	0.410886	0.385446	0.000038
C82	C	0.910886	0.885446	0.500038
H83	H	0.377000	0.397247	-0.071670
H84	H	0.877000	0.897247	0.428330
H85	H	0.376284	0.396793	0.071066
H86	H	0.876284	0.896793	0.571066
H87	H	0.452083	0.437979	0.000744
H88	H	0.952083	0.937979	0.500744
C89	C	0.442561	0.038256	0.216020
C90	C	0.942561	0.538256	0.716020
H91	H	0.468714	-0.038021	0.215895
H92	H	0.968714	0.461979	0.715895
H93	H	0.459018	0.076353	0.287676
H94	H	0.959018	0.576353	0.787676
H95	H	0.383010	0.037887	0.215558
H96	H	0.883010	0.537887	0.715558
C97	C	0.543374	0.272445	-0.216200
C98	C	1.043374	0.772445	0.283800
H99	H	0.527852	0.233494	-0.287830
H100	H	1.027852	0.733494	0.212170
H101	H	0.516423	0.348294	-0.216922
H102	H	1.016423	0.848294	0.283078
H103	H	0.602814	0.274014	-0.214958
H104	H	1.102814	0.774014	0.285042
