data_functionalizedCrystal
_audit_creation_method	'MofGen! by Chris Wilmer'
_symmetry_space_group_name_H-M	'P1'
_symmetry_Int_Tables_number	1
_symmetry_cell_setting	triclinic
loop_
_symmetry_equiv_pos_as_xyz
  x,y,z
_cell_length_a	11.792241
_cell_length_b	10.868271
_cell_length_c	16.109301
_cell_angle_alpha	89.994353
_cell_angle_beta	83.827448
_cell_angle_gamma	90.008606
loop_
_atom_site_label
_atom_site_type_symbol
_atom_site_fract_x
_atom_site_fract_y
_atom_site_fract_z
O1	O	1.505895	-0.102207	0.113955
O2	O	1.839228	0.231126	0.447288
O3	O	2.172561	0.564460	0.780621
O4	O	1.175451	-0.102236	0.125699
O5	O	1.508784	0.231097	0.459032
O6	O	1.842117	0.564431	0.792366
O7	O	1.349750	-0.102208	-0.001161
O8	O	1.683083	0.231125	0.332172
O9	O	2.016417	0.564458	0.665505
O10	O	1.331595	-0.102235	0.240815
O11	O	1.664928	0.231098	0.574148
O12	O	1.998262	0.564432	0.907482
O13	O	1.349765	0.102436	-0.001166
O14	O	1.683098	0.435770	0.332167
O15	O	2.016431	0.769103	0.665500
O16	O	1.175465	0.102409	0.125694
O17	O	1.508798	0.435742	0.459027
O18	O	1.842132	0.769075	0.792361
O19	O	1.505909	0.102438	0.113950
O20	O	1.839242	0.435771	0.447283
O21	O	2.172576	0.769104	0.780616
Zn22	Zn	1.340689	0.134915	0.119821
Zn23	Zn	1.674023	0.468248	0.453154
Zn24	Zn	2.007356	0.801581	0.786488
Zn25	Zn	1.340670	-0.134713	0.119828
Zn26	Zn	1.674004	0.198620	0.453161
Zn27	Zn	2.007337	0.531953	0.786494
O28	O	1.331609	0.102410	0.240810
O29	O	1.664943	0.435743	0.574143
O30	O	1.998276	0.769076	0.907477
C31	C	1.133173	0.000083	0.124959
C32	C	1.466507	0.333416	0.458292
C33	C	1.799840	0.666749	0.791625
C34	C	1.007179	0.000072	0.122751
C35	C	1.340512	0.333405	0.456084
C36	C	1.673846	0.666739	0.789417
N37	N	1.340658	-0.318727	0.119826
N38	N	1.673991	0.014606	0.453159
N39	N	2.007325	0.347939	0.786493
C40	C	1.349022	0.000115	-0.032142
C41	C	1.682355	0.333448	0.301191
C42	C	2.015689	0.666781	0.634524
C43	C	1.346817	0.000116	-0.124448
C44	C	1.680150	0.333450	0.208885
C45	C	2.013484	0.666783	0.542219
C46	C	0.776502	0.000108	0.118690
C47	C	1.109836	0.333441	0.452024
C48	C	1.443169	0.666774	0.785357
C49	C	0.904868	0.000088	0.120946
C50	C	1.238201	0.333421	0.454280
C51	C	1.571534	0.666755	0.787613
C52	C	1.548186	0.000116	0.114690
C53	C	1.881520	0.333449	0.448023
C54	C	2.214853	0.666783	0.781357
C55	C	1.674181	0.000119	0.116898
C56	C	2.007514	0.333452	0.450231
C57	C	2.340847	0.666785	0.783565
C58	C	1.340666	-0.430065	0.119826
C59	C	1.673999	-0.096732	0.453159
C60	C	2.007333	0.236602	0.786493
C61	C	1.340687	-0.569743	0.119823
C62	C	1.674020	-0.236409	0.453156
C63	C	2.007354	0.096924	0.786489
N64	N	1.340710	0.318929	0.119816
N65	N	1.674044	0.652262	0.453149
N66	N	2.007377	0.985596	0.786483
C67	C	1.445116	0.000105	-0.346258
C68	C	1.778450	0.333439	-0.012924
C69	C	2.111783	0.666772	0.320409
C70	C	1.443036	0.000095	-0.432988
C71	C	1.776369	0.333428	-0.099655
C72	C	2.109703	0.666762	0.233679
C73	C	1.236235	0.000082	-0.414087
C74	C	1.569569	0.333415	-0.080753
C75	C	1.902902	0.666748	0.252580
C76	C	1.238317	0.000083	-0.327358
C77	C	1.571650	0.333416	0.005975
C78	C	1.904984	0.666750	0.339308
C79	C	1.342761	0.000101	-0.293446
C80	C	1.676094	0.333435	0.039887
C81	C	2.009428	0.666768	0.373220
C82	C	1.338599	0.000089	-0.466905
C83	C	1.671932	0.333423	-0.133572
C84	C	2.005265	0.666756	0.199762
C85	C	1.336342	0.000078	-0.560942
C86	C	1.669675	0.333412	-0.227608
C87	C	2.003009	0.666745	0.105725
C88	C	1.345018	0.000110	-0.199404
C89	C	1.678351	0.333443	0.133930
C90	C	2.011685	0.666777	0.467263
C91	C	1.332338	0.000084	0.271791
C92	C	1.665671	0.333417	0.605124
C93	C	1.999004	0.666751	0.938458
C94	C	1.334542	0.000074	0.364097
C95	C	1.667876	0.333408	0.697430
C96	C	2.001209	0.666741	1.030763
H97	H	1.530161	0.000117	-0.318650
H98	H	1.863495	0.333451	0.014684
H99	H	2.196828	0.666784	0.348017
H100	H	1.526384	0.000096	-0.475984
H101	H	1.859718	0.333429	-0.142651
H102	H	2.193051	0.666762	0.190683
H103	H	1.154962	0.000076	-0.284357
H104	H	1.488295	0.333409	0.048977
H105	H	1.821628	0.666743	0.382310
H106	H	1.151201	0.000069	-0.441709
H107	H	1.484534	0.333403	-0.108376
H108	H	1.817867	0.666736	0.224958
