data_functionalizedCrystal
_audit_creation_method	'MofGen! by Chris Wilmer'
_symmetry_space_group_name_H-M	'P1'
_symmetry_Int_Tables_number	1
_symmetry_cell_setting	triclinic
loop_
_symmetry_equiv_pos_as_xyz
  x,y,z
_cell_length_a	19.188933
_cell_length_b	19.188924
_cell_length_c	18.266242
_cell_angle_alpha	89.991576
_cell_angle_beta	89.992377
_cell_angle_gamma	83.143767
loop_
_atom_site_label
_atom_site_type_symbol
_atom_site_fract_x
_atom_site_fract_y
_atom_site_fract_z
O1	O	0.926146	0.087175	-0.060860
O2	O	0.722835	0.098908	-0.060867
O3	O	0.830360	-0.008614	-0.060855
O4	O	0.818621	0.194698	-0.060872
O5	O	0.830342	-0.008620	0.060907
O6	O	0.722817	0.098903	0.060895
O7	O	0.926128	0.087170	0.060902
Zn8	Zn	0.824469	0.093036	0.080231
Zn9	Zn	0.824493	0.093043	-0.080196
O10	O	0.818603	0.194692	0.060890
C11	C	0.696815	0.098525	0.000013
C12	C	0.619310	0.097384	0.000011
C13	C	0.066065	0.089242	-0.066353
C14	C	0.138889	0.090310	-0.066356
C15	C	0.175296	0.090844	0.000016
C16	C	0.138876	0.090293	0.066396
C17	C	0.066054	0.089217	0.066397
N18	N	0.284308	0.132261	0.049416
N19	N	0.353486	0.133284	0.049411
C20	C	0.394705	0.094082	0.000017
N21	N	0.364132	0.053828	-0.049382
N22	N	0.294948	0.052808	-0.049379
C23	C	0.254260	0.092010	0.000022
C24	C	0.510082	0.095787	-0.066362
C25	C	0.582908	0.096851	-0.066362
C26	C	0.582892	0.096841	0.066392
C27	C	0.510068	0.095770	0.066390
C28	C	0.473667	0.095246	0.000011
C29	C	0.829972	-0.034628	0.000027
C30	C	0.828833	-0.112133	0.000029
C31	C	0.828311	-0.148529	-0.066344
C32	C	0.827231	-0.221351	-0.066349
C33	C	0.826687	-0.257777	0.000021
C34	C	0.827205	-0.221372	0.066403
C35	C	0.828278	-0.148550	0.066407
N36	N	0.864728	-0.377442	0.049421
N37	N	0.863710	-0.446621	0.049413
C38	C	0.823453	-0.477186	0.000014
N39	N	0.784261	-0.435962	-0.049387
N40	N	0.785282	-0.366777	-0.049381
C41	C	0.825523	-0.336741	0.000025
C42	C	0.821760	-0.592545	-0.066369
C43	C	0.820675	-0.665368	-0.066372
C44	C	0.820656	-0.665389	0.066382
C45	C	0.821733	-0.592566	0.066383
C46	C	0.822288	-0.556149	0.000006
C47	C	0.952148	0.087553	0.000020
C48	C	1.029653	0.088694	0.000018
C49	C	0.818991	0.220706	0.000006
C50	C	0.820130	0.298211	-0.000000
N51	N	0.824458	0.093030	0.189718
N52	N	0.824510	0.093043	-0.189683
C53	C	0.872086	0.045442	0.228032
C54	C	0.872090	0.045439	0.304677
C55	C	0.824474	0.093036	0.343005
C56	C	0.776837	0.140627	0.304681
C57	C	0.776829	0.140624	0.228038
N58	N	0.815397	0.154843	0.463331
N59	N	0.815408	0.154844	0.536140
C60	C	0.824493	0.093046	0.573927
N61	N	0.833580	0.031245	0.536156
N62	N	0.833572	0.031246	0.463341
C63	C	0.824477	0.093044	0.426112
C64	C	0.872129	0.045451	0.695349
C65	C	0.872128	0.045446	0.771995
C66	C	0.776878	0.140640	0.771997
C67	C	0.776875	0.140638	0.695353
C68	C	0.824504	0.093044	0.657033
H69	H	0.480420	0.095326	0.120437
C70	C	0.681808	0.156029	0.609180
C71	C	0.724529	0.192957	0.653231
H72	H	0.649488	0.188331	0.583179
H73	H	0.710167	0.127688	0.575391
H74	H	0.656786	0.127033	0.639098
H75	H	0.749555	0.221949	0.623312
H76	H	0.696167	0.221310	0.687023
C77	C	0.035631	0.148922	-0.179514
C78	C	0.026059	0.088655	-0.139318
H79	H	0.010936	0.148554	-0.224561
H80	H	0.018235	0.189443	-0.152247
H81	H	0.084216	0.149635	-0.189003
H82	H	-0.022526	0.087944	-0.129824
H83	H	0.043452	0.048124	-0.166591
H84	H	0.480443	0.095359	-0.120412
H85	H	0.612555	0.097292	-0.120412
H86	H	0.738105	0.179391	0.803203
C87	C	0.823461	-0.480908	-0.125310
C88	C	0.822389	-0.552511	-0.139328
H89	H	0.823861	-0.456198	-0.170352
H90	H	0.782922	-0.463520	-0.098061
H91	H	0.864335	-0.474448	-0.098017
H92	H	0.781512	-0.558973	-0.166616
H93	H	0.862931	-0.569905	-0.166589
H94	H	0.168542	0.090760	-0.120405
H95	H	0.910909	0.006694	0.664147
H96	H	0.910876	0.006686	0.335878
H97	H	0.910910	0.006691	0.803191
C98	C	0.250499	0.091947	0.125338
C99	C	0.178891	0.090883	0.139354
H100	H	0.275201	0.092313	0.170382
H101	H	0.267884	0.051422	0.098072
H102	H	0.256976	0.132835	0.098063
H103	H	0.172414	0.049992	0.166624
H104	H	0.161501	0.131411	0.166631
H105	H	0.612534	0.097273	0.120433
C106	C	0.825603	-0.332979	-0.125294
C107	C	0.826661	-0.261371	-0.139311
H108	H	0.825248	-0.357682	-0.170338
H109	H	0.866124	-0.350360	-0.098020
H110	H	0.784712	-0.339460	-0.098028
H111	H	0.867556	-0.254889	-0.166572
H112	H	0.786136	-0.243985	-0.166596
H113	H	0.036407	0.088774	0.120446
C114	C	0.760378	-0.679729	-0.179543
C115	C	0.820109	-0.705374	-0.139338
H116	H	0.760035	-0.704424	-0.224592
H117	H	0.719494	-0.686225	-0.152285
H118	H	0.761105	-0.631145	-0.189029
H119	H	0.819380	-0.753957	-0.129847
H120	H	0.861004	-0.698884	-0.166602
C121	C	0.828221	-0.155829	-0.197565
C122	C	0.828911	-0.108499	-0.139305
H123	H	0.828585	-0.131112	-0.242607
H124	H	0.868507	-0.189678	-0.194803
H125	H	0.787095	-0.178786	-0.194799
H126	H	0.870040	-0.085545	-0.142067
H127	H	0.788620	-0.074637	-0.142068
C128	C	0.768583	-0.118112	0.179555
C129	C	0.828855	-0.108540	0.139369
H130	H	0.768943	-0.093413	0.224601
H131	H	0.728066	-0.100720	0.152281
H132	H	0.767871	-0.166697	0.189048
H133	H	0.829564	-0.059955	0.129871
H134	H	0.869382	-0.125929	0.166649
C135	C	0.825558	-0.333014	0.125341
C136	C	0.826606	-0.261409	0.139359
H137	H	0.825189	-0.357729	0.170383
H138	H	0.784684	-0.339492	0.098069
H139	H	0.866097	-0.350386	0.098071
H140	H	0.786064	-0.244035	0.166624
H141	H	0.867484	-0.254927	0.166643
C142	C	0.734565	0.182905	0.422172
C143	C	0.724498	0.192948	0.346808
H144	H	0.702252	0.215209	0.448177
H145	H	0.727129	0.136331	0.434742
H146	H	0.781140	0.190376	0.434710
H147	H	0.677924	0.185472	0.334270
H148	H	0.731928	0.239533	0.334233
C149	C	0.818976	-0.777021	0.125322
C150	C	0.820037	-0.705417	0.139340
H151	H	0.818590	-0.801733	0.170365
H152	H	0.778106	-0.783490	0.098039
H153	H	0.859519	-0.794403	0.098064
H154	H	0.779491	-0.688033	0.166593
H155	H	0.860911	-0.698944	0.166634
C156	C	0.821620	-0.599905	0.197600
C157	C	0.822322	-0.552556	0.139343
H158	H	0.821988	-0.575204	0.242644
H159	H	0.780497	-0.622854	0.194841
H160	H	0.861909	-0.633761	0.194830
H161	H	0.782030	-0.518703	0.142110
H162	H	0.863450	-0.529596	0.142104
C163	C	0.966235	-0.048653	0.235734
C164	C	0.924432	-0.006880	0.185912
H165	H	0.998547	-0.080957	0.209728
H166	H	0.991260	-0.019648	0.265611
H167	H	0.937247	-0.073691	0.265644
H168	H	0.953419	0.018163	0.156005
H169	H	0.899405	-0.035888	0.156023
C170	C	0.682682	0.234719	0.235740
C171	C	0.724478	0.192942	0.185918
H172	H	0.650367	0.267021	0.209735
H173	H	0.657661	0.205718	0.265641
H174	H	0.711673	0.259761	0.265626
H175	H	0.695487	0.167896	0.156035
H176	H	0.749501	0.221947	0.156004
