data_functionalizedCrystal
_audit_creation_method	'MofGen! by Chris Wilmer'
_symmetry_space_group_name_H-M	'P1'
_symmetry_Int_Tables_number	1
_symmetry_cell_setting	triclinic
loop_
_symmetry_equiv_pos_as_xyz
  x,y,z
_cell_length_a	12.759401
_cell_length_b	21.295417
_cell_length_c	12.759393
_cell_angle_alpha	89.961742
_cell_angle_beta	89.982824
_cell_angle_gamma	90.030668
loop_
_atom_site_label
_atom_site_type_symbol
_atom_site_fract_x
_atom_site_fract_y
_atom_site_fract_z
Zn1	Zn	1.606126	-0.250575	-0.593926
Zn2	Zn	1.605976	-0.355857	-0.418223
Zn3	Zn	1.430432	-0.250606	-0.418265
Zn4	Zn	1.430368	-0.355811	-0.593864
O5	O	1.518226	-0.303212	-0.506069
O6	O	1.753127	-0.264547	-0.570626
O7	O	1.582654	-0.341928	-0.271207
O8	O	1.453828	-0.162513	-0.441611
O9	O	1.753017	-0.341898	-0.441538
O10	O	1.582910	-0.162490	-0.570668
O11	O	1.453682	-0.264601	-0.271238
O12	O	1.283403	-0.264555	-0.441551
O13	O	1.453719	-0.341818	-0.740893
O14	O	1.283356	-0.341849	-0.570562
O15	O	1.582848	-0.264502	-0.740939
O16	O	1.582592	-0.443941	-0.441478
O17	O	1.453574	-0.443906	-0.570521
C18	C	1.245258	-0.303201	-0.506055
C19	C	1.128482	-0.303211	-0.506074
C20	C	1.073623	-0.343522	-0.573139
C21	C	0.963899	-0.343530	-0.573151
C22	C	0.963902	-0.262914	-0.439022
C23	C	1.073624	-0.262904	-0.439017
C24	C	1.128480	-0.383829	-0.640196
C25	C	1.073621	-0.424144	-0.707266
C26	C	0.963897	-0.424152	-0.707277
C27	C	0.909032	-0.383845	-0.640219
C28	C	1.518088	-0.466764	-0.506011
C29	C	1.518125	-0.536732	-0.506021
C30	C	1.585365	-0.569596	-0.438898
C31	C	1.585414	-0.635338	-0.438921
C32	C	1.518205	-0.668215	-0.506058
C33	C	1.450961	-0.635343	-0.573195
C34	C	1.450921	-0.569602	-0.573177
N35	N	1.426298	-0.771480	-0.514062
N36	N	1.426339	-0.833931	-0.514073
C37	C	1.518323	-0.866289	-0.506118
N38	N	1.610267	-0.833836	-0.498130
N39	N	1.610224	-0.771379	-0.498114
C40	C	1.518241	-0.739500	-0.506085
C41	C	1.585621	-0.970438	-0.439016
C42	C	1.585672	-1.036182	-0.439047
C43	C	1.451210	-1.036186	-0.573315
C44	C	1.451168	-0.970443	-0.573289
C45	C	1.518372	-0.937574	-0.506134
C46	C	1.792259	-0.303224	-0.506084
C47	C	1.909036	-0.303230	-0.506091
C48	C	1.518293	-0.303151	-0.780103
C49	C	1.518322	-0.303126	-0.896880
C50	C	1.518393	-0.139022	-0.506151
C51	C	1.518464	-0.069054	-0.506185
C52	C	1.451107	-0.343365	-0.951720
C53	C	1.451145	-0.343342	-1.061444
C54	C	1.585616	-0.262835	-1.061478
C55	C	1.585582	-0.262861	-0.951756
C56	C	1.383846	-0.383629	-0.896843
C57	C	1.316625	-0.423872	-0.951684
C58	C	1.316664	-0.423849	-1.061408
C59	C	1.383923	-0.383584	-1.116292
C60	C	1.518219	-0.303228	-0.233102
C61	C	1.518394	-0.303076	-0.116326
H62	H	0.919234	-0.456974	-0.761896
H63	H	1.640172	-0.662101	-0.384261
F64	F	1.379686	-1.071171	-0.644773
F65	F	1.379597	-0.935466	-0.644729
H66	H	1.640375	-0.230052	-1.106173
H67	H	1.118292	-0.230074	-0.384415
H68	H	0.919223	-0.230099	-0.384426
F69	F	1.379436	-0.670333	-0.644650
F70	F	1.383794	-0.383654	-0.780066
F71	F	1.245258	-0.383826	-0.640186
F72	F	0.792253	-0.383851	-0.640243
H73	H	1.383956	-0.383572	-1.205637
H74	H	1.640089	-0.542835	-0.384219
H75	H	1.118299	-0.456956	-0.761869
F76	F	1.379352	-0.534625	-0.644622
H77	H	1.640347	-0.943675	-0.384338
H78	H	1.640313	-0.230094	-0.907104
F79	F	1.245133	-0.466683	-1.119770
F80	F	1.657249	-1.071158	-0.367608
F81	F	1.245055	-0.466727	-0.893271
