data_functionalizedCrystal
_audit_creation_method	'MofGen! by Chris Wilmer'
_symmetry_space_group_name_H-M	'P1'
_symmetry_Int_Tables_number	1
_symmetry_cell_setting	triclinic
loop_
_symmetry_equiv_pos_as_xyz
  x,y,z
_cell_length_a	16.959455
_cell_length_b	19.805405
_cell_length_c	19.805399
_cell_angle_alpha	89.970699
_cell_angle_beta	90.017502
_cell_angle_gamma	89.976642
loop_
_atom_site_label
_atom_site_type_symbol
_atom_site_fract_x
_atom_site_fract_y
_atom_site_fract_z
Zn1	Zn	1.208374	0.269534	0.382674
Zn2	Zn	1.208274	0.382722	0.269482
Zn3	Zn	1.076195	0.269547	0.269503
Zn4	Zn	1.076152	0.382680	0.382633
O5	O	1.142249	0.326121	0.326073
O6	O	1.318971	0.284561	0.367668
O7	O	1.190730	0.367732	0.174769
O8	O	1.093788	0.174828	0.284541
O9	O	1.318898	0.367720	0.284506
O10	O	1.190899	0.174819	0.367687
O11	O	1.093692	0.284583	0.174783
O12	O	0.965578	0.284542	0.284501
O13	O	1.093716	0.367648	0.477355
O14	O	0.965547	0.367661	0.367618
O15	O	1.190858	0.284520	0.477385
O16	O	1.190689	0.477433	0.284467
O17	O	1.093619	0.477403	0.367598
C18	C	0.936883	0.326099	0.326058
C19	C	0.849026	0.326105	0.326067
C20	C	1.142160	0.501977	0.326040
C21	C	1.142194	0.577209	0.326049
C22	C	1.142293	0.326078	0.502616
C23	C	1.142312	0.326060	0.577848
C24	C	0.477542	0.282805	0.282885
C25	C	0.477558	0.369492	0.369300
C26	C	0.560104	0.369482	0.369296
C27	C	0.601373	0.326134	0.326085
C28	C	0.560096	0.282796	0.282878
C29	C	0.601388	0.412825	0.412498
C30	C	0.683939	0.412817	0.412495
C31	C	0.725209	0.369465	0.369286
C32	C	0.683927	0.326125	0.326078
C33	C	0.725195	0.282776	0.282867
C34	C	0.683914	0.239432	0.239662
C35	C	0.601366	0.239444	0.239670
C36	C	0.807757	0.369453	0.369278
C37	C	0.807749	0.282767	0.282860
C38	C	1.348417	0.326144	0.326089
C39	C	1.436274	0.326154	0.326096
C40	C	1.142360	0.149578	0.326121
C41	C	1.142407	0.074346	0.326141
C42	C	1.192787	0.612547	0.282808
C43	C	1.192821	0.683235	0.282823
C44	C	1.142257	0.718584	0.326076
C45	C	1.091661	0.683242	0.369322
C46	C	1.091632	0.612555	0.369310
C47	C	1.091778	0.968315	0.369372
C48	C	1.091809	1.039007	0.369379
C49	C	1.192966	1.038995	0.282885
C50	C	1.192937	0.968308	0.282873
C51	C	1.142345	0.932972	0.326121
C52	C	1.142311	0.856323	0.326105
C53	C	1.142287	0.795232	0.326089
C54	C	1.142250	0.326114	0.150217
C55	C	1.142384	0.325942	0.074986
C56	C	1.192895	0.282773	0.613209
C57	C	1.192903	0.282753	0.683897
C58	C	1.142332	0.326025	0.719224
C59	C	1.091743	0.369314	0.683858
C60	C	1.091731	0.369329	0.613171
C61	C	1.091787	0.369251	0.968931
C62	C	1.091805	0.369233	1.039623
C63	C	1.192960	0.282675	1.039658
C64	C	1.192948	0.282690	0.968971
C65	C	1.142357	0.325976	0.933611
C66	C	1.142347	0.325996	0.856963
C67	C	1.142344	0.326009	0.795871
H68	H	0.841344	0.247463	0.247676
H69	H	0.841364	0.404746	0.404453
C70	C	1.080715	0.460342	0.763320
C71	C	1.036153	0.416879	0.722687
H72	H	1.046395	0.489710	0.787287
H73	H	1.110835	0.434559	0.794495
H74	H	1.115129	0.486240	0.735733
H75	H	1.001743	0.390978	0.750274
H76	H	1.006019	0.442664	0.691508
C77	C	1.299215	0.273394	0.533734
C78	C	1.248484	0.235206	0.574381
H79	H	1.333535	0.244024	0.509768
H80	H	1.269090	0.299171	0.502559
H81	H	1.329436	0.302877	0.561312
H82	H	1.218259	0.205726	0.546802
H83	H	1.278613	0.209417	0.605559
C84	C	1.080774	0.460265	1.119085
C85	C	1.036210	0.416801	1.078453
H86	H	1.046454	0.489633	1.143052
H87	H	1.110897	0.434484	1.150258
H88	H	1.115185	0.486164	1.091496
H89	H	1.001803	0.390899	1.106043
H90	H	1.006074	0.442585	1.047276
C91	C	0.776803	0.422323	0.503519
C92	C	0.729311	0.460453	0.459991
H93	H	0.804817	0.451731	0.532840
H94	H	0.744616	0.392877	0.529459
H95	H	0.813193	0.396509	0.477777
H96	H	0.692917	0.486263	0.485733
H97	H	0.761501	0.489911	0.434048
C98	C	1.053095	0.704960	0.483910
C99	C	1.036083	0.722098	0.416869
H100	H	1.018784	0.728951	0.513262
H101	H	1.045833	0.657810	0.490088
H102	H	1.106204	0.716507	0.493848
H103	H	0.982975	0.710547	0.406929
H104	H	1.043338	0.769259	0.410688
H105	H	1.050435	0.583783	0.404522
H106	H	0.567781	0.448121	0.447673
C107	C	0.985383	0.378747	0.533667
C108	C	1.036129	0.416917	0.574305
H109	H	0.951051	0.408127	0.509679
H110	H	1.015496	0.352987	0.502512
H111	H	0.955175	0.349248	0.561255
H112	H	1.066341	0.446412	0.546717
H113	H	1.006012	0.442688	0.605464
C114	C	1.326720	0.704792	0.250008
C115	C	1.248494	0.722016	0.235291
H116	H	1.361110	0.728712	0.220660
H117	H	1.338242	0.716360	0.295488
H118	H	1.333863	0.657621	0.243845
H119	H	1.241350	0.769186	0.241459
H120	H	1.236969	0.710452	0.189800
H121	H	1.233959	0.583770	0.247583
H122	H	1.234109	0.939529	0.247650
C123	C	1.231492	0.168143	0.705679
C124	C	1.248511	0.235169	0.722759
H125	H	1.265827	0.138765	0.729666
H126	H	1.178400	0.158229	0.717264
H127	H	1.238720	0.161976	0.658522
H128	H	1.241277	0.241337	0.769915
H129	H	1.301615	0.245085	0.711178
C130	C	0.810454	0.200935	0.201285
C131	C	0.729283	0.191784	0.192165
H132	H	0.838463	0.171517	0.171966
H133	H	0.823952	0.246394	0.191292
H134	H	0.823999	0.191090	0.246782
H135	H	0.715738	0.201634	0.146669
H136	H	0.715780	0.146315	0.202153
H137	H	0.567748	0.204156	0.204493
C138	C	1.237968	1.147349	0.244516
C139	C	1.248604	1.077840	0.235365
H140	H	1.272322	1.171327	0.215185
H141	H	1.184883	1.158981	0.234558
H142	H	1.249498	1.158880	0.290010
H143	H	1.237068	1.066307	0.189871
H144	H	1.301701	1.066203	0.245318
H145	H	1.234131	0.247457	0.940212
H146	H	1.234151	0.247427	1.068456
H147	H	1.050583	0.939550	0.404585
C148	C	0.985509	1.118564	0.378725
C149	C	1.036229	1.077864	0.416931
H150	H	0.951196	1.142549	0.408080
H151	H	1.015643	1.149722	0.352975
H152	H	0.955281	1.091019	0.349214
H153	H	1.066462	1.105410	0.446438
H154	H	1.006092	1.046703	0.442692
H155	H	1.050604	0.404507	0.940150
C156	C	0.350999	0.244321	0.244522
C157	C	0.432171	0.235163	0.235394
H158	H	0.322991	0.214910	0.215200
H159	H	0.337501	0.234474	0.290013
H160	H	0.337456	0.289787	0.234533
H161	H	0.445716	0.189698	0.245388
H162	H	0.445675	0.245005	0.189892
H163	H	0.443953	0.404788	0.404477
