data_functionalizedCrystal
_audit_creation_method	'MofGen! by Chris Wilmer'
_symmetry_space_group_name_H-M	'P1'
_symmetry_Int_Tables_number	1
_symmetry_cell_setting	triclinic
loop_
_symmetry_equiv_pos_as_xyz
  x,y,z
_cell_length_a	16.120490
_cell_length_b	16.120297
_cell_length_c	16.120531
_cell_angle_alpha	84.389419
_cell_angle_beta	89.829344
_cell_angle_gamma	90.129683
loop_
_atom_site_label
_atom_site_type_symbol
_atom_site_fract_x
_atom_site_fract_y
_atom_site_fract_z
Zn1	Zn	1.224942	-0.554758	0.422327
Zn2	Zn	1.558275	-0.221425	0.755660
Zn3	Zn	1.891609	0.111908	1.088994
Zn4	Zn	1.224822	-0.422054	0.555010
Zn5	Zn	1.558156	-0.088721	0.888343
Zn6	Zn	1.891489	0.244612	1.221676
Zn7	Zn	1.093682	-0.408005	0.408236
Zn8	Zn	1.427016	-0.074671	0.741569
Zn9	Zn	1.760349	0.258662	1.074902
Zn10	Zn	1.078819	-0.553990	0.554234
Zn11	Zn	1.412152	-0.220657	0.887568
Zn12	Zn	1.745486	0.112677	1.220901
O13	O	1.155566	-0.484702	0.484952
O14	O	1.488900	-0.151369	0.818285
O15	O	1.822233	0.181965	1.151618
O16	O	1.340961	-0.543356	0.446149
O17	O	1.674295	-0.210023	0.779483
O18	O	2.007628	0.123310	1.112816
O19	O	1.213596	-0.303558	0.529967
O20	O	1.546930	0.029775	0.863300
O21	O	1.880263	0.363108	1.196634
O22	O	1.117365	-0.421914	0.293476
O23	O	1.450698	-0.088580	0.626809
O24	O	1.784031	0.244753	0.960142
O25	O	1.340873	-0.445859	0.543631
O26	O	1.674207	-0.112526	0.876964
O27	O	2.007540	0.220807	1.210298
O28	O	1.213800	-0.529733	0.303828
O29	O	1.547134	-0.196400	0.637162
O30	O	1.880467	0.136934	0.970495
O31	O	1.117249	-0.293236	0.422133
O32	O	1.450582	0.040097	0.755466
O33	O	1.783915	0.373431	1.088799
O34	O	0.975675	-0.421169	0.421381
O35	O	1.309009	-0.087835	0.754714
O36	O	1.642342	0.245498	1.088048
O37	O	1.092032	-0.670724	0.542309
O38	O	1.425366	-0.337391	0.875643
O39	O	1.758699	-0.004058	1.208976
O40	O	0.964755	-0.528424	0.528645
O41	O	1.298089	-0.195090	0.861979
O42	O	1.631422	0.138243	1.195312
O43	O	1.199388	-0.671289	0.445397
O44	O	1.532721	-0.337956	0.778731
O45	O	1.866055	-0.004622	1.112064
O46	O	1.199184	-0.445114	0.671536
O47	O	1.532518	-0.111781	1.004869
O48	O	1.865851	0.221552	1.338203
O49	O	1.091916	-0.542047	0.670966
O50	O	1.425250	-0.208713	1.004300
O51	O	1.758583	0.124620	1.337633
C52	C	0.940129	-0.473189	0.473401
C53	C	1.273462	-0.139855	0.806734
C54	C	1.606795	0.193478	1.140067
C55	C	0.847961	-0.468284	0.468480
C56	C	1.181295	-0.134951	0.801813
C57	C	1.514628	0.198383	1.135147
C58	C	0.632762	-0.510144	0.510469
C59	C	0.966095	-0.176811	0.843802
C60	C	1.299429	0.156522	1.177136
C61	C	0.679215	-0.459329	0.459504
C62	C	1.012548	-0.125995	0.792837
C63	C	1.345882	0.207338	1.126170
C64	C	0.773114	-0.464313	0.464500
C65	C	1.106447	-0.130980	0.797833
C66	C	1.439781	0.202354	1.131166
C67	C	0.538854	-0.505161	0.505474
C68	C	0.872187	-0.171828	0.838808
C69	C	1.205521	0.161505	1.172141
C70	C	1.144066	-0.702094	0.495339
C71	C	1.477399	-0.368760	0.828672
C72	C	1.810732	-0.035427	1.162005
C73	C	1.139165	-0.794733	0.499765
C74	C	1.472498	-0.461400	0.833098
C75	C	1.805831	-0.128067	1.166432
C76	C	1.130187	-0.964344	0.507826
C77	C	1.463521	-0.631011	0.841159
C78	C	1.796854	-0.297677	1.174493
C79	C	1.181122	-1.005908	0.461836
C80	C	1.514455	-0.672575	0.795170
C81	C	1.847789	-0.339242	1.128503
C82	C	1.176127	-1.100286	0.466321
C83	C	1.509460	-0.766952	0.799655
C84	C	1.842794	-0.433619	1.132988
C85	C	1.135181	-0.869958	0.503342
C86	C	1.468515	-0.536625	0.836675
C87	C	1.801848	-0.203292	1.170009
C88	C	1.371845	-0.496261	0.496548
C89	C	1.705179	-0.162927	0.829882
C90	C	2.038512	0.170406	1.163215
C91	C	1.464010	-0.501186	0.501490
C92	C	1.797344	-0.167853	0.834824
C93	C	2.130677	0.165480	1.168157
C94	C	1.143946	-0.495041	0.701494
C95	C	1.477279	-0.161708	1.034827
C96	C	1.810613	0.171626	1.368161
C97	C	1.139049	-0.499496	0.794137
C98	C	1.472382	-0.166163	1.127470
C99	C	1.805716	0.167171	1.460804
C100	C	1.167073	-0.268156	0.474547
C101	C	1.500407	0.065178	0.807881
C102	C	1.833740	0.398511	1.141214
C103	C	1.172147	-0.175514	0.469895
C104	C	1.505481	0.157819	0.803228
C105	C	1.838814	0.491153	1.136562
C106	C	1.130113	-0.507647	0.963758
C107	C	1.463446	-0.174314	1.297091
C108	C	1.796779	0.159019	1.630425
C109	C	1.181054	-0.461711	1.005304
C110	C	1.514387	-0.128378	1.338637
C111	C	1.847721	0.204956	1.671971
C112	C	1.176082	-0.466246	1.099687
C113	C	1.509415	-0.132913	1.433020
C114	C	1.842748	0.200420	1.766354
C115	C	1.135084	-0.503113	0.869367
C116	C	1.468417	-0.169780	1.202700
C117	C	1.801750	0.163554	1.536033
C118	C	1.167225	-0.474325	1.267564
C119	C	1.500558	-0.140992	1.600897
C120	C	1.833892	0.192342	1.934230
C121	C	1.172120	-0.469860	1.174920
C122	C	1.505453	-0.136526	1.508253
C123	C	1.838787	0.196807	1.841587
H124	H	0.663511	-0.557388	0.557851
H125	H	0.996844	-0.224055	0.891184
H126	H	1.330178	0.109278	1.224517
H127	H	0.648464	-0.412080	0.412119
H128	H	0.981798	-0.078747	0.745452
H129	H	1.315131	0.254586	1.078786
H130	H	1.228479	-0.970613	0.419093
H131	H	1.561813	-0.637280	0.752427
H132	H	1.895146	-0.303946	1.085760
H133	H	1.082834	-0.999637	0.550565
H134	H	1.416167	-0.666304	0.883899
H135	H	1.749501	-0.332971	1.217232
H136	H	1.082769	-0.550376	0.999071
H137	H	1.416102	-0.217043	1.332404
H138	H	1.749436	0.116290	1.665738
F139	F	1.242938	-0.405853	0.959147
F140	F	1.576271	-0.072519	1.292480
F141	F	1.909605	0.260814	1.625813
