data_functionalizedCrystal
_audit_creation_method	'MofGen! by Chris Wilmer'
_symmetry_space_group_name_H-M	'P1'
_symmetry_Int_Tables_number	1
_symmetry_cell_setting	triclinic
loop_
_symmetry_equiv_pos_as_xyz
  x,y,z
_cell_length_a	12.811445
_cell_length_b	11.892095
_cell_length_c	16.109301
_cell_angle_alpha	86.113381
_cell_angle_beta	83.754728
_cell_angle_gamma	99.333684
loop_
_atom_site_label
_atom_site_type_symbol
_atom_site_fract_x
_atom_site_fract_y
_atom_site_fract_z
O1	O	1.409668	0.238507	0.098583
O2	O	1.909668	0.738507	0.598583
O3	O	1.101826	0.206954	0.112530
O4	O	1.601826	0.706954	0.612530
O5	O	1.264203	0.223585	-0.015491
O6	O	1.764203	0.723585	0.484509
O7	O	1.247291	0.221875	0.226605
O8	O	1.747291	0.721875	0.726605
O9	O	1.250664	0.034191	-0.004833
O10	O	1.750664	0.534191	0.495167
O11	O	1.088288	0.017560	0.123188
O12	O	1.588288	0.517560	0.623188
O13	O	1.396129	0.049113	0.109241
O14	O	1.896129	0.549113	0.609241
Zn15	Zn	1.240059	0.003266	0.117907
Zn16	Zn	1.740059	0.503266	0.617907
Zn17	Zn	1.257897	0.252801	0.103865
Zn18	Zn	1.757897	0.752801	0.603865
O19	O	1.233752	0.032481	0.237263
O20	O	1.733752	0.532481	0.737263
C21	C	1.055665	0.108219	0.117403
C22	C	1.555665	0.608219	0.617403
C23	C	0.938288	0.096188	0.116035
C24	C	1.438288	0.596188	0.616035
N25	N	1.227893	-0.167035	0.127490
N26	N	1.727893	0.332965	0.627490
C27	C	0.732482	0.280078	0.101860
C28	C	1.232482	0.780078	0.601860
C29	C	0.622197	0.268779	0.100575
C30	C	1.122197	0.768779	0.600575
C31	C	0.607430	0.062290	0.112185
C32	C	1.107430	0.562290	0.612185
C33	C	0.717715	0.073590	0.113470
C34	C	1.217715	0.573590	0.613470
C35	C	0.780238	0.182487	0.108306
C36	C	1.280238	0.682487	0.608306
C37	C	0.890526	0.193786	0.109586
C38	C	1.390526	0.693786	0.609586
C39	C	0.875756	-0.012702	0.121202
C40	C	1.375756	0.487298	0.621202
C41	C	0.765471	-0.024001	0.119917
C42	C	1.265471	0.475999	0.619917
C43	C	1.354728	-0.390691	0.027546
C44	C	1.854728	0.109309	0.527546
C45	C	1.346232	-0.509903	0.034250
C46	C	1.846232	-0.009903	0.534250
C47	C	1.202399	-0.524674	0.147598
C48	C	1.702399	-0.024674	0.647598
C49	C	1.210896	-0.405461	0.140894
C50	C	1.710896	0.094539	0.640894
C51	C	1.287064	-0.338474	0.080866
C52	C	1.787064	0.161526	0.580866
C53	C	1.295564	-0.219259	0.074167
C54	C	1.795564	0.280741	0.574167
C55	C	1.151728	-0.234032	0.187510
C56	C	1.651728	0.265968	0.687510
C57	C	1.143231	-0.353244	0.194215
C58	C	1.643231	0.146756	0.694215
C59	C	1.442291	0.147850	0.104368
C60	C	1.942291	0.647850	0.604368
C61	C	1.559668	0.159889	0.105736
C62	C	2.059668	0.659889	0.605736
C63	C	1.256748	0.128818	-0.041136
C64	C	1.756748	0.628818	0.458864
C65	C	1.254694	0.128605	-0.133427
C66	C	1.754694	0.628605	0.366573
N67	N	1.270071	0.423102	0.094275
N68	N	1.770071	0.923102	0.594275
C69	C	1.346271	0.138010	-0.355893
C70	C	1.846271	0.638010	0.144107
C71	C	1.344334	0.137820	-0.442610
C72	C	1.844334	0.637820	0.057390
C73	C	1.151678	0.118069	-0.422330
C74	C	1.651678	0.618069	0.077670
C75	C	1.153617	0.118267	-0.335615
C76	C	1.653617	0.618267	0.164385
C77	C	1.250916	0.128232	-0.302399
C78	C	1.750916	0.628232	0.197601
C79	C	1.247040	0.127845	-0.475830
C80	C	1.747040	0.627845	0.024170
C81	C	1.244938	0.127639	-0.569852
C82	C	1.744938	0.627639	-0.069852
C83	C	1.253019	0.128439	-0.208371
C84	C	1.753019	0.628439	0.291629
C85	C	1.241207	0.127251	0.262907
C86	C	1.741207	0.627251	0.762907
C87	C	1.243262	0.127471	0.355198
C88	C	1.743262	0.627471	0.855198
H89	H	0.783390	0.368747	0.097651
H90	H	1.283390	0.868747	0.597651
H91	H	0.556504	-0.026369	0.116397
H92	H	1.056504	0.473631	0.616397
O93	O	0.697952	-0.141458	0.125994
O94	O	1.197952	0.358542	0.625994
H95	H	0.613210	-0.132924	0.124198
H96	H	1.113210	0.367076	0.624198
O97	O	0.927259	-0.117973	0.128160
O98	O	1.427259	0.382027	0.628160
H99	H	1.014451	-0.091825	0.128191
H100	H	1.514451	0.408175	0.628191
H101	H	1.416754	-0.336148	-0.021326
H102	H	1.916754	0.163852	0.478674
O103	O	0.570693	0.374042	0.093621
O104	O	1.070693	0.874042	0.593621
H105	H	0.483499	0.347894	0.093602
H106	H	0.983499	0.847894	0.593602
O107	O	1.046741	0.107304	-0.458163
O108	O	1.546741	0.607304	0.041837
H109	H	1.006438	0.179804	-0.441007
H110	H	1.506438	0.679804	0.058993
O111	O	0.957956	0.311240	0.104014
O112	O	1.457956	0.811240	0.604014
H113	H	1.017987	0.322301	0.047662
H114	H	1.517987	0.822301	0.547662
H115	H	1.357586	-0.164718	0.025292
H116	H	1.857586	0.335282	0.525292
O117	O	1.447181	0.148350	-0.500305
O118	O	1.947181	0.648350	-0.000305
H119	H	1.499270	0.230308	-0.492856
H120	H	1.999270	0.730308	0.007144
O121	O	1.419223	-0.566228	-0.023250
O122	O	1.919223	-0.066228	0.476750
H123	H	1.473619	-0.499615	-0.066108
H124	H	1.973619	0.000385	0.433892
O125	O	1.050765	0.107707	-0.277907
O126	O	1.550765	0.607707	0.222093
H127	H	0.982780	0.100724	-0.315569
H128	H	1.482780	0.600724	0.184431
H129	H	1.140378	-0.579231	0.196466
H130	H	1.640378	-0.079231	0.696466
O131	O	1.061090	-0.425503	0.258959
O132	O	1.561090	0.074497	0.758959
H133	H	1.076180	-0.401227	0.322456
H134	H	1.576180	0.098773	0.822456
H135	H	1.096633	-0.191504	0.230930
H136	H	1.596633	0.308496	0.730930
O137	O	1.451211	0.148780	-0.320063
O138	O	1.951211	0.648780	0.179937
H139	H	1.517192	0.155562	-0.371834
H140	H	2.017192	0.655562	0.128166
