data_functionalizedCrystal
_audit_creation_method	'MofGen! by Chris Wilmer'
_symmetry_space_group_name_H-M	'P1'
_symmetry_Int_Tables_number	1
_symmetry_cell_setting	triclinic
loop_
_symmetry_equiv_pos_as_xyz
  x,y,z
_cell_length_a	12.784905
_cell_length_b	12.784905
_cell_length_c	8.140239
_cell_angle_alpha	89.997726
_cell_angle_beta	89.996744
_cell_angle_gamma	73.107319
loop_
_atom_site_label
_atom_site_type_symbol
_atom_site_fract_x
_atom_site_fract_y
_atom_site_fract_z
O1	O	1.409692	0.006715	-0.136623
O2	O	1.095994	0.052627	-0.136622
O3	O	1.275798	-0.127178	-0.136618
O4	O	1.229887	0.186520	-0.136627
O5	O	1.275789	-0.127179	0.136609
O6	O	1.095985	0.052626	0.136605
O7	O	1.409683	0.006714	0.136604
Zn8	Zn	1.252832	0.029670	0.179985
Zn9	Zn	1.252844	0.029671	-0.180003
O10	O	1.229878	0.186519	0.136600
C11	C	1.056114	0.055612	-0.000009
C12	C	0.937299	0.064496	-0.000008
C13	C	0.757644	-0.116512	-0.000032
C14	C	0.646008	-0.108170	-0.000032
C15	C	0.602389	0.089523	-0.000020
C16	C	0.714025	0.081180	-0.000020
C17	C	0.791649	-0.021841	-0.000024
C18	C	0.903287	-0.030182	-0.000012
C19	C	0.859666	0.167509	-0.000011
C20	C	0.748030	0.175852	-0.000011
C21	C	1.278780	-0.167054	-0.000007
C22	C	1.287664	-0.285869	-0.000014
C23	C	1.106656	-0.465524	0.000003
C24	C	1.114998	-0.577160	-0.000004
C25	C	1.312691	-0.620779	-0.000022
C26	C	1.304348	-0.509143	-0.000015
C27	C	1.201327	-0.431518	-0.000005
C28	C	1.192986	-0.319880	-0.000010
C29	C	1.390677	-0.363501	-0.000017
C30	C	1.399020	-0.475137	-0.000023
C31	C	1.449563	0.003729	-0.000013
C32	C	1.568377	-0.005156	-0.000024
C33	C	1.226897	0.226395	-0.000015
C34	C	1.218012	0.345210	-0.000019
N35	N	1.252832	0.029667	0.425668
N36	N	1.252853	0.029664	-0.425686
H37	H	0.539169	0.173397	-0.000039
H38	H	0.887364	0.244598	0.000004
H39	H	1.482896	-0.538353	-0.000025
C40	C	0.662632	0.289169	0.000001
N41	N	0.598311	0.374522	0.000019
H42	H	0.820848	-0.200396	-0.000024
H43	H	1.109101	-0.256679	-0.000006
H44	H	1.022772	-0.402320	-0.000002
H45	H	1.037907	-0.604841	0.000012
C46	C	1.494823	-0.326088	-0.000029
N47	N	1.573263	-0.297907	-0.000044
H48	H	1.396565	-0.683998	-0.000010
H49	H	0.618327	-0.185261	-0.000042
H50	H	0.966489	-0.114067	-0.000012
