data_functionalizedCrystal
_audit_creation_method	'MofGen! by Chris Wilmer'
_symmetry_space_group_name_H-M	'P1'
_symmetry_Int_Tables_number	1
_symmetry_cell_setting	triclinic
loop_
_symmetry_equiv_pos_as_xyz
  x,y,z
_cell_length_a	10.685980
_cell_length_b	12.594516
_cell_length_c	12.594509
_cell_angle_alpha	89.973672
_cell_angle_beta	85.604569
_cell_angle_gamma	94.378643
loop_
_atom_site_label
_atom_site_type_symbol
_atom_site_fract_x
_atom_site_fract_y
_atom_site_fract_z
Zn1	Zn	1.929268	-0.299031	-0.726758
Zn2	Zn	1.929153	-0.477043	-0.548773
Zn3	Zn	1.718241	-0.312711	-0.535126
Zn4	Zn	1.718236	-0.490607	-0.713049
O5	O	1.823724	-0.394848	-0.630927
O6	O	2.105837	-0.311242	-0.714597
O7	O	1.901129	-0.455293	-0.398014
O8	O	1.746284	-0.161947	-0.560572
O9	O	2.105752	-0.442028	-0.583832
O10	O	1.901324	-0.151896	-0.701363
O11	O	1.746173	-0.334559	-0.387987
O12	O	1.541656	-0.347711	-0.547279
O13	O	1.746276	-0.465145	-0.863817
O14	O	1.541653	-0.478411	-0.677998
O15	O	1.901320	-0.324395	-0.873889
O16	O	1.901124	-0.627792	-0.570539
O17	O	1.746165	-0.637757	-0.691232
C18	C	1.495868	-0.416018	-0.609671
C19	C	1.355609	-0.425101	-0.600603
C20	C	1.823666	-0.671393	-0.630904
C21	C	1.823756	-0.789692	-0.630938
C22	C	1.908137	-0.853480	-0.565375
C23	C	1.938974	-0.922186	-0.664521
C24	C	1.793076	-0.931775	-0.531864
C25	C	1.854653	-0.856836	-0.730138
C26	C	1.708702	-0.866422	-0.597412
C27	C	1.739496	-0.935099	-0.696622
C28	C	2.152861	-0.373596	-0.652266
C29	C	2.293120	-0.364540	-0.661360
C30	C	1.823811	-0.394757	-0.908553
C31	C	1.823847	-0.394718	-1.026861
C32	C	1.823817	-0.117221	-0.630974
C33	C	1.823857	0.001087	-0.630995
C34	C	1.739572	-0.471180	-1.161403
C35	C	1.708712	-0.376109	-1.088603
C36	C	1.854651	-0.489782	-1.098086
C37	C	1.792999	-0.299462	-1.164847
C38	C	1.938992	-0.413197	-1.174340
C39	C	1.908175	-0.318056	-1.101575
C40	C	1.823711	-0.394858	-0.354385
C41	C	1.823919	-0.394581	-0.236093
H42	H	1.979506	-0.817815	-0.509986
Cl43	Cl	1.629414	-0.570988	-1.202238
Cl44	Cl	1.272542	-0.515884	-0.509564
Cl45	Cl	1.376182	-0.273749	-0.752382
H46	H	1.767086	-0.964623	-0.448055
Cl47	Cl	2.089267	-0.960365	-0.708367
H48	H	1.766866	-0.218992	-1.194105
H49	H	1.979475	-0.253269	-1.075325
Cl50	Cl	1.629392	-0.989862	-0.782364
Cl51	Cl	1.558420	-0.351873	-1.030840
Cl52	Cl	2.089243	-0.437476	-1.232144
H53	H	1.880547	-0.824127	-0.814012
Cl54	Cl	1.558449	-0.828186	-0.553548
Cl55	Cl	1.894821	-0.613991	-1.052688
