data_functionalizedCrystal
_audit_creation_method	'MofGen! by Chris Wilmer'
_symmetry_space_group_name_H-M	'P1'
_symmetry_Int_Tables_number	1
_symmetry_cell_setting	triclinic
loop_
_symmetry_equiv_pos_as_xyz
  x,y,z
_cell_length_a	15.995343
_cell_length_b	10.540539
_cell_length_c	9.016244
_cell_angle_alpha	90.000732
_cell_angle_beta	89.996981
_cell_angle_gamma	84.007338
loop_
_atom_site_label
_atom_site_type_symbol
_atom_site_fract_x
_atom_site_fract_y
_atom_site_fract_z
O1	O	1.111972	0.163565	-0.123182
O2	O	0.868316	0.183780	-0.123216
O3	O	0.995703	-0.011110	-0.123199
O4	O	0.984585	0.358456	-0.123198
O5	O	0.995684	-0.011106	0.123482
O6	O	0.868297	0.183785	0.123465
O7	O	1.111953	0.163570	0.123499
Cu8	Cu	0.990123	0.173678	0.146006
Cu9	Cu	0.990146	0.173672	-0.145723
O10	O	0.984566	0.358460	0.123482
C11	C	0.837107	0.182949	0.000120
C12	C	0.744141	0.180448	0.000106
C13	C	0.573928	0.175910	0.000126
C14	C	0.549741	0.035229	0.000125
C15	C	0.453047	0.032582	0.000694
C16	C	0.406341	0.171440	0.000144
C17	C	0.435845	0.242179	0.140731
C18	C	0.532647	0.243848	0.140840
C19	C	0.532592	0.245903	-0.139692
C20	C	0.436066	0.240709	-0.141531
C21	C	0.311628	0.168921	0.000159
C22	C	0.668641	0.178433	0.000121
C23	C	0.994860	-0.058400	0.000138
C24	C	0.992365	-0.199313	0.000127
C25	C	1.143162	0.164402	0.000160
C26	C	1.236128	0.166902	0.000164
C27	C	0.985409	0.405750	0.000142
C28	C	0.987904	0.546663	0.000143
N29	N	0.990114	0.173681	0.351192
C30	C	1.083487	0.728772	-0.000414
C31	C	1.080959	0.582189	0.000153
C32	C	0.943111	0.608949	0.140999
C33	C	0.946287	0.755450	0.141106
C34	C	0.944415	0.755973	-0.139417
C35	C	0.943558	0.609003	-0.141267
N36	N	0.990162	0.173659	-0.350909
C37	C	0.921761	0.277591	0.586216
C38	C	0.921913	0.277974	0.414324
C39	C	1.077655	0.202607	0.413543
C40	C	1.077281	0.203342	0.585488
C41	C	0.971795	0.040495	0.585732
C42	C	0.969786	0.041387	0.413778
H43	H	0.560604	0.201516	-0.246286
H44	H	1.120249	0.756842	-0.101442
H45	H	0.874774	0.587538	0.146230
H46	H	1.120123	0.758600	0.099943
H47	H	0.547224	0.349453	-0.141047
H48	H	0.933719	0.376796	0.373180
H49	H	1.116432	0.539952	0.101312
H50	H	0.875717	0.585709	-0.149785
H51	H	0.879363	0.804342	0.147501
H52	H	0.403715	0.342028	-0.150455
H53	H	0.433704	-0.022792	-0.100064
H54	H	0.577430	-0.019302	-0.100675
H55	H	0.415455	0.193647	0.245752
H56	H	0.877197	0.804106	-0.140361
H57	H	0.976290	0.567608	-0.245471
H58	H	0.979377	0.783201	0.246407
H59	H	1.016304	-0.039575	0.370808
H60	H	1.116208	0.539091	-0.100812
H61	H	0.856868	0.260740	0.372171
H62	H	0.578397	-0.018410	0.100791
H63	H	0.417208	0.189194	-0.245539
H64	H	1.021667	-0.036847	0.626391
H65	H	1.129811	0.130628	0.627077
H66	H	0.909309	0.012677	0.629171
H67	H	0.856513	0.260638	0.627599
H68	H	0.974219	0.565941	0.245835
H69	H	0.933414	0.375854	0.629411
H70	H	1.093345	0.300458	0.625580
H71	H	1.129797	0.128925	0.372646
H72	H	1.094077	0.298619	0.370468
H73	H	0.905387	0.019435	0.373026
H74	H	0.434273	-0.022529	0.102062
H75	H	0.547837	0.347013	0.146852
H76	H	0.559136	0.195434	0.246330
H77	H	0.404610	0.344375	0.145564
H78	H	0.974538	0.787108	-0.246183
