data_functionalizedCrystal
_audit_creation_method	'MofGen! by Chris Wilmer'
_symmetry_space_group_name_H-M	'P1'
_symmetry_Int_Tables_number	1
_symmetry_cell_setting	triclinic
loop_
_symmetry_equiv_pos_as_xyz
  x,y,z
_cell_length_a	16.109304
_cell_length_b	14.044202
_cell_length_c	15.186229
_cell_angle_alpha	90.000871
_cell_angle_beta	89.999066
_cell_angle_gamma	91.672330
loop_
_atom_site_label
_atom_site_type_symbol
_atom_site_fract_x
_atom_site_fract_y
_atom_site_fract_z
O1	O	0.200472	-1.257646	-0.073174
O2	O	0.193231	-0.981679	-0.073186
O3	O	0.076385	-1.127242	-0.073180
O4	O	0.317318	-1.112083	-0.073179
O5	O	0.076383	-1.127232	0.073278
O6	O	0.193229	-0.981669	0.073272
O7	O	0.200470	-1.257636	0.073284
Zn8	Zn	0.196849	-1.119651	0.096531
Zn9	Zn	0.196852	-1.119664	-0.096433
O10	O	0.317316	-1.112073	0.073278
C11	C	0.190063	-0.946361	0.000041
C12	C	0.180616	-0.841138	0.000037
C13	C	0.230339	-0.590837	0.000045
C14	C	0.163359	-0.648485	0.000044
C15	C	0.172963	-0.755687	0.000040
C16	C	0.220736	-0.483625	0.000049
C17	C	0.045363	-1.126623	0.000047
C18	C	-0.047069	-1.124780	0.000041
C19	C	-0.259722	-1.120529	-0.079790
C20	C	-0.346572	-1.118789	-0.079789
C21	C	-0.346571	-1.118783	0.079887
C22	C	-0.259723	-1.120516	0.079885
C23	C	-0.216301	-1.121394	0.000044
C24	C	-0.389999	-1.117921	0.000046
C25	C	-0.484165	-1.116035	0.000048
C26	C	-0.122128	-1.123279	0.000042
C27	C	0.348338	-1.112692	0.000049
C28	C	0.440770	-1.114535	0.000050
C29	C	0.203636	-0.292955	0.000054
C30	C	0.213078	-0.398179	0.000052
N31	N	0.196847	-1.119649	0.228224
N32	N	0.196848	-1.119673	-0.228125
C33	C	0.145128	-1.184127	0.453949
C34	C	0.145126	-1.184130	0.546139
C35	C	0.248569	-1.055189	0.546143
C36	C	0.248566	-1.055182	0.453955
C37	C	0.196847	-1.119656	0.407860
C38	C	0.196848	-1.119666	0.592238
C39	C	0.196847	-1.119669	0.692194
C40	C	0.196847	-1.119653	0.307898
H41	H	0.294891	-0.621991	0.000043
C42	C	-0.211960	-1.121484	-0.167611
H43	H	-0.250262	-1.120710	-0.215156
H44	H	-0.180321	-1.177400	-0.170934
H45	H	-0.175839	-1.066911	-0.170928
H46	H	-0.381936	-1.118071	0.144890
C47	C	-0.394332	-1.117847	-0.167607
H48	H	-0.356030	-1.118626	-0.215153
H49	H	-0.425970	-1.061931	-0.170933
H50	H	-0.430452	-1.172420	-0.170919
C51	C	-0.211956	-1.121471	0.167707
H52	H	-0.250254	-1.120714	0.215257
H53	H	-0.175834	-1.066906	0.171023
H54	H	-0.180320	-1.177395	0.171022
H55	H	0.103013	-1.236624	0.416421
C56	C	0.076146	-0.606408	0.000039
H57	H	0.035383	-0.656677	0.000041
H58	H	0.069628	-0.568295	-0.051033
H59	H	0.069620	-0.568299	0.051119
H60	H	0.103011	-1.236626	0.583662
H61	H	0.290680	-1.002697	0.583682
C62	C	0.305462	-0.984264	0.403253
H63	H	0.336274	-0.945876	0.443907
H64	H	0.272607	-0.944818	0.367295
H65	H	0.342618	-1.018354	0.367287
