data_functionalizedCrystal
_audit_creation_method	'MofGen! by Chris Wilmer'
_symmetry_space_group_name_H-M	'P1'
_symmetry_Int_Tables_number	1
_symmetry_cell_setting	triclinic
loop_
_symmetry_equiv_pos_as_xyz
  x,y,z
_cell_length_a	17.077404
_cell_length_b	19.805405
_cell_length_c	17.077396
_cell_angle_alpha	89.968350
_cell_angle_beta	89.980499
_cell_angle_gamma	90.026635
loop_
_atom_site_label
_atom_site_type_symbol
_atom_site_fract_x
_atom_site_fract_y
_atom_site_fract_z
Zn1	Zn	1.200035	-0.269459	-0.443825
Zn2	Zn	1.533369	0.063874	-0.110492
Zn3	Zn	1.866702	0.397208	0.222841
Zn4	Zn	1.199934	-0.382652	-0.312552
Zn5	Zn	1.533268	-0.049319	0.020781
Zn6	Zn	1.866601	0.284015	0.354115
Zn7	Zn	1.068767	-0.269483	-0.312573
Zn8	Zn	1.402101	0.063850	0.020760
Zn9	Zn	1.735434	0.397184	0.354093
Zn10	Zn	1.068727	-0.382612	-0.443776
Zn11	Zn	1.402060	-0.049279	-0.110442
Zn12	Zn	1.735394	0.284055	0.222891
O13	O	1.134366	-0.326052	-0.378182
O14	O	1.467699	0.007282	-0.044848
O15	O	1.801033	0.340615	0.288485
O16	O	1.309869	-0.284481	-0.426424
O17	O	1.643202	0.048852	-0.093090
O18	O	1.976536	0.382185	0.240243
O19	O	1.182509	-0.367667	-0.202708
O20	O	1.515843	-0.034333	0.130625
O21	O	1.849176	0.299000	0.463959
O22	O	1.086239	-0.174763	-0.330014
O23	O	1.419573	0.158570	0.003319
O24	O	1.752906	0.491904	0.336653
O25	O	1.309795	-0.367644	-0.329978
O26	O	1.643128	-0.034310	0.003356
O27	O	1.976461	0.299023	0.336689
O28	O	1.182681	-0.174746	-0.426444
O29	O	1.516015	0.158588	-0.093111
O30	O	1.849348	0.491921	0.240222
O31	O	1.086141	-0.284522	-0.202724
O32	O	1.419475	0.048812	0.130610
O33	O	1.752808	0.382145	0.463943
O34	O	0.958915	-0.284483	-0.329966
O35	O	1.292248	0.048851	0.003368
O36	O	1.625582	0.382184	0.336701
O37	O	1.086171	-0.367575	-0.553629
O38	O	1.419504	-0.034242	-0.220296
O39	O	1.752838	0.299091	0.113037
O40	O	0.958886	-0.367598	-0.426360
O41	O	1.292219	-0.034265	-0.093026
O42	O	1.625552	0.299068	0.240307
O43	O	1.182643	-0.284442	-0.553666
O44	O	1.515976	0.048891	-0.220332
O45	O	1.849309	0.382224	0.113001
O46	O	1.182470	-0.477363	-0.329930
O47	O	1.515804	-0.144030	0.003404
O48	O	1.849137	0.189303	0.336737
O49	O	1.086073	-0.477334	-0.426339
O50	O	1.419406	-0.144001	-0.093006
O51	O	1.752740	0.189333	0.240328
C52	C	0.930418	-0.326039	-0.378160
C53	C	1.263752	0.007294	-0.044827
C54	C	1.597085	0.340627	0.288507
C55	C	0.843168	-0.326050	-0.378169
C56	C	1.176502	0.007283	-0.044836
C57	C	1.509835	0.340616	0.288497
C58	C	0.802183	-0.369394	-0.428281
C59	C	1.135517	-0.036060	-0.094948
C60	C	1.468850	0.297273	0.238386
C61	C	0.720203	-0.369395	-0.428294
C62	C	1.053536	-0.036062	-0.094960
C63	C	1.386870	0.297271	0.238373
C64	C	0.679209	-0.326056	-0.378190
C65	C	1.012542	0.007277	-0.044857
C66	C	1.345876	0.340611	0.288477
C67	C	0.720200	-0.282708	-0.328076
C68	C	1.053533	0.050625	0.005257
C69	C	1.386866	0.383959	0.338591
C70	C	0.802179	-0.282703	-0.328068
C71	C	1.135512	0.050630	0.005265
C72	C	1.468845	0.383963	0.338599
C73	C	0.549330	-0.282721	-0.328095
C74	C	0.882663	0.050612	0.005238
C75	C	1.215996	0.383945	0.338572
C76	C	0.467345	-0.282726	-0.328102
C77	C	0.800678	0.050607	0.005232
C78	C	1.134012	0.383940	0.338565
C79	C	0.467354	-0.369413	-0.428321
C80	C	0.800687	-0.036080	-0.094987
C81	C	1.134021	0.297254	0.238346
C82	C	0.549333	-0.369409	-0.428313
C83	C	0.882666	-0.036075	-0.094979
C84	C	1.216000	0.297258	0.238354
C85	C	0.590318	-0.326061	-0.378197
C86	C	0.923651	0.007272	-0.044864
C87	C	1.256985	0.340606	0.288469
C88	C	1.134278	-0.501908	-0.378144
C89	C	1.467611	-0.168574	-0.044810
C90	C	1.800944	0.164759	0.288523
C91	C	1.134312	-0.577140	-0.378154
C92	C	1.467645	-0.243806	-0.044820
C93	C	1.800978	0.089527	0.288513
C94	C	1.184555	-0.612477	-0.328006
C95	C	1.517888	-0.279143	0.005327
C96	C	1.851221	0.054190	0.338661
C97	C	1.184588	-0.683165	-0.328023
C98	C	1.517921	-0.349832	0.005310
C99	C	1.851255	-0.016498	0.338643
C100	C	1.134374	-0.718515	-0.378185
C101	C	1.467707	-0.385182	-0.044852
C102	C	1.801041	-0.051848	0.288482
C103	C	1.084129	-0.683173	-0.428338
C104	C	1.417462	-0.349840	-0.095005
C105	C	1.750795	-0.016506	0.238328
C106	C	1.084100	-0.612486	-0.428324
C107	C	1.417433	-0.279153	-0.094991
C108	C	1.750767	0.054181	0.238342
C109	C	1.084245	-0.968246	-0.428397
C110	C	1.417578	-0.634913	-0.095063
C111	C	1.750911	-0.301580	0.238270
C112	C	1.084276	-1.038938	-0.428405
C113	C	1.417609	-0.705605	-0.095072
C114	C	1.750942	-0.372272	0.238262
C115	C	1.184733	-1.038925	-0.328095
C116	C	1.518066	-0.705592	0.005238
C117	C	1.851399	-0.372259	0.338571
C118	C	1.184704	-0.968238	-0.328081
C119	C	1.518037	-0.634905	0.005252
C120	C	1.851370	-0.301572	0.338585
C121	C	1.134462	-0.932902	-0.378237
C122	C	1.467795	-0.599569	-0.044904
C123	C	1.801129	-0.266236	0.288429
C124	C	1.134427	-0.856254	-0.378219
C125	C	1.467761	-0.522921	-0.044886
C126	C	1.801094	-0.189587	0.288448
C127	C	1.134404	-0.795162	-0.378200
C128	C	1.467737	-0.461829	-0.044867
C129	C	1.801070	-0.128496	0.288467
C130	C	1.339110	-0.326064	-0.378204
C131	C	1.672444	0.007269	-0.044871
C132	C	2.005777	0.340602	0.288463
C133	C	1.426360	-0.326070	-0.378213
C134	C	1.759693	0.007264	-0.044880
C135	C	2.093027	0.340597	0.288453
C136	C	1.134414	-0.326002	-0.582926
C137	C	1.467747	0.007332	-0.249593
C138	C	1.801080	0.340665	0.083741
C139	C	1.134434	-0.325980	-0.670176
C140	C	1.467767	0.007353	-0.336843
C141	C	1.801100	0.340686	-0.003509
C142	C	1.134476	-0.149509	-0.378237
C143	C	1.467809	0.183825	-0.044904
C144	C	1.801143	0.517158	0.288430
C145	C	1.134523	-0.074277	-0.378261
C146	C	1.467856	0.259057	-0.044927
C147	C	1.801190	0.592390	0.288406
C148	C	1.184668	-0.282690	-0.711186
C149	C	1.518002	0.050644	-0.377853
C150	C	1.851335	0.383977	-0.044520
C151	C	1.184678	-0.282667	-0.793167
C152	C	1.518011	0.050666	-0.459834
C153	C	1.851344	0.384000	-0.126500
C154	C	1.134456	-0.325939	-0.834135
C155	C	1.467789	0.007394	-0.500802
C156	C	1.801123	0.340727	-0.167469
C157	C	1.084216	-0.369232	-0.793119
C158	C	1.417549	-0.035899	-0.459786
C159	C	1.750883	0.297435	-0.126453
C160	C	1.084203	-0.369251	-0.711140
C161	C	1.417536	-0.035917	-0.377807
C162	C	1.750870	0.297416	-0.044474
C163	C	1.084248	-0.369191	-0.963989
C164	C	1.417581	-0.035858	-0.630656
C165	C	1.750914	0.297475	-0.297323
C166	C	1.084261	-0.369174	-1.045974
C167	C	1.417595	-0.035841	-0.712641
C168	C	1.750928	0.297493	-0.379307
C169	C	1.184722	-0.282608	-1.046016
C170	C	1.518056	0.050726	-0.712683
C171	C	1.851389	0.384059	-0.379349
C172	C	1.184709	-0.282626	-0.964037
C173	C	1.518043	0.050707	-0.630704
C174	C	1.851376	0.384040	-0.297370
C175	C	1.134470	-0.325920	-0.923026
C176	C	1.467803	0.007413	-0.589693
C177	C	1.801137	0.340747	-0.256360
C178	C	1.134364	-0.326052	-0.174234
C179	C	1.467697	0.007281	0.159099
C180	C	1.801031	0.340614	0.492433
C181	C	1.134496	-0.325883	-0.086984
C182	C	1.467829	0.007450	0.246349
C183	C	1.801162	0.340784	0.579682
H184	H	0.582697	-0.247417	-0.287293
H185	H	0.916030	0.085916	0.046041
H186	H	1.249364	0.419250	0.379374
Br187	Br	1.252908	-0.223854	-1.101672
Br188	Br	1.586241	0.109479	-0.768338
Br189	Br	1.919574	0.442812	-0.435005
H190	H	1.043247	-0.711961	-0.469184
H191	H	1.376580	-0.378627	-0.135851
H192	H	1.709914	-0.045294	0.197482
H193	H	0.686837	-0.404691	-0.469099
H194	H	1.020170	-0.071357	-0.135766
H195	H	1.353503	0.261976	0.197568
H196	H	1.043364	-0.404408	-1.079328
H197	H	1.376698	-0.071075	-0.745995
H198	H	1.710031	0.262258	-0.412662
Br199	Br	1.252699	-0.564508	-0.259918
Br200	Br	1.586032	-0.231175	0.073415
Br201	Br	1.919366	0.102158	0.406749
Br202	Br	1.252922	-1.086885	-0.260028
Br203	Br	1.586255	-0.753551	0.073306
Br204	Br	1.919589	-0.420218	0.406639
Br205	Br	0.604968	-0.428233	-0.496303
Br206	Br	0.938301	-0.094900	-0.162970
Br207	Br	1.271634	0.238433	0.170363
Br208	Br	0.411733	-0.428233	-0.496344
Br209	Br	0.745066	-0.094900	-0.163011
Br210	Br	1.078400	0.238433	0.170322
Br211	Br	0.411710	-0.223913	-0.260097
Br212	Br	0.745043	0.109420	0.073236
Br213	Br	1.078377	0.442753	0.406570
H214	H	1.043334	-0.939481	-0.469234
H215	H	1.376668	-0.606148	-0.135900
H216	H	1.710001	-0.272815	0.197433
H217	H	1.043386	-1.067719	-0.469259
H218	H	1.376719	-0.734385	-0.135925
H219	H	1.710053	-0.401052	0.197408
Br220	Br	0.857802	-0.223874	-0.260061
Br221	Br	1.191136	0.109459	0.073273
Br222	Br	1.524469	0.442793	0.406606
Br223	Br	1.015916	-0.564528	-0.496390
Br224	Br	1.349249	-0.231194	-0.163057
Br225	Br	1.682582	0.102139	0.170277
H226	H	1.225590	-0.939458	-0.287232
H227	H	1.558923	-0.606125	0.046101
H228	H	1.892257	-0.272792	0.379434
Br229	Br	1.252836	-0.223965	-0.655594
Br230	Br	1.586170	0.109369	-0.322261
Br231	Br	1.919503	0.442702	0.011073
Br232	Br	1.252783	-0.731120	-0.259967
Br233	Br	1.586116	-0.397787	0.073366
Br234	Br	1.919449	-0.064453	0.406699
H235	H	0.686816	-0.247417	-0.287284
H236	H	1.020149	0.085916	0.046049
H237	H	1.353483	0.419249	0.379383
Br238	Br	1.252875	-0.223905	-0.908437
Br239	Br	1.586208	0.109428	-0.575103
Br240	Br	1.919542	0.442762	-0.241770
Br241	Br	1.016062	-0.427946	-0.908333
Br242	Br	1.349396	-0.094612	-0.574999
Br243	Br	1.682729	0.238721	-0.241666
H244	H	1.225586	-0.247417	-0.826554
H245	H	1.558919	0.085917	-0.493221
H246	H	1.892252	0.419250	-0.159887
H247	H	1.043322	-0.404463	-0.826482
H248	H	1.376655	-0.071129	-0.493149
H249	H	1.709988	0.262204	-0.159816
H250	H	0.835555	-0.404688	-0.469079
H251	H	1.168888	-0.071355	-0.135746
H252	H	1.502222	0.261979	0.197588
Br253	Br	1.016020	-0.428001	-0.655482
Br254	Br	1.349353	-0.094667	-0.322149
Br255	Br	1.682687	0.238666	0.011185
