data_functionalizedCrystal
_audit_creation_method	'MofGen! by Chris Wilmer'
_symmetry_space_group_name_H-M	'P1'
_symmetry_Int_Tables_number	1
_symmetry_cell_setting	triclinic
loop_
_symmetry_equiv_pos_as_xyz
  x,y,z
_cell_length_a	10.654553
_cell_length_b	10.723023
_cell_length_c	9.198806
_cell_angle_alpha	89.997839
_cell_angle_beta	89.995852
_cell_angle_gamma	84.476863
loop_
_atom_site_label
_atom_site_type_symbol
_atom_site_fract_x
_atom_site_fract_y
_atom_site_fract_z
O1	O	1.667811	0.175291	-0.120905
O2	O	1.302330	0.191986	-0.120904
O3	O	1.493501	0.002063	-0.120899
O4	O	1.476640	0.365213	-0.120911
O5	O	1.493487	0.002063	0.120886
O6	O	1.302316	0.191985	0.120881
O7	O	1.667797	0.175290	0.120880
Cu8	Cu	1.485055	0.183637	0.142957
Cu9	Cu	1.485072	0.183638	-0.142982
O10	O	1.476625	0.365212	0.120874
C11	C	1.255525	0.190759	-0.000012
C12	C	1.116083	0.187089	-0.000011
C13	C	0.919536	0.181908	0.131776
C14	C	1.050556	0.185363	0.131784
C15	C	1.050581	0.185371	-0.131823
C16	C	0.919563	0.181925	-0.131830
C17	C	0.919523	0.181898	0.283968
C18	C	1.050543	0.185354	0.283976
C19	C	1.492267	-0.044437	-0.000008
C20	C	1.488597	-0.182992	-0.000013
C21	C	1.486968	-0.244758	-0.125266
C22	C	1.483174	-0.387961	-0.125274
C23	C	1.714601	0.176517	-0.000016
C24	C	1.854044	0.180187	-0.000026
C25	C	1.477859	0.411713	-0.000020
C26	C	1.481530	0.550267	-0.000025
N27	N	1.485052	0.183636	0.344071
N28	N	1.485085	0.183630	-0.344096
C29	C	1.411837	0.111261	0.416305
C30	C	1.411853	0.111257	0.583717
H31	H	1.103942	0.186788	-0.239133
C32	C	1.090469	0.308303	0.347794
N33	N	1.120544	0.400906	0.395861
C34	C	1.486683	-0.254772	0.144854
N35	N	1.485243	-0.308836	0.253972
C36	C	0.856992	0.298199	0.363306
N37	N	0.809903	0.385723	0.423207
C38	C	1.113090	0.068842	0.362906
N39	N	1.160200	-0.018914	0.422350
H40	H	1.349137	0.049305	0.354207
C41	C	1.481281	-0.459716	-0.270149
N42	N	1.479853	-0.513765	-0.379273
C43	C	0.879578	0.058951	0.347781
N44	N	0.849492	-0.033651	0.395849
H45	H	1.349174	0.049290	0.645837
C46	C	1.488886	-0.172977	-0.270133
N47	N	1.490335	-0.118915	-0.379251
H48	H	1.482937	-0.396624	0.107215
H49	H	1.547774	0.245592	0.593794
C50	C	1.569754	0.267345	0.427955
N51	N	1.633555	0.330395	0.491135
H52	H	0.866242	0.180539	-0.239156
