data_functionalizedCrystal
_audit_creation_method	'MofGen! by Chris Wilmer'
_symmetry_space_group_name_H-M	'P1'
_symmetry_Int_Tables_number	1
_symmetry_cell_setting	triclinic
loop_
_symmetry_equiv_pos_as_xyz
  x,y,z
_cell_length_a	16.120490
_cell_length_b	16.120297
_cell_length_c	16.120484
_cell_angle_alpha	95.614431
_cell_angle_beta	90.164100
_cell_angle_gamma	90.129683
loop_
_atom_site_label
_atom_site_type_symbol
_atom_site_fract_x
_atom_site_fract_y
_atom_site_fract_z
Zn1	Zn	1.224990	-0.554787	-0.422331
Zn2	Zn	1.724990	-0.054787	0.077669
Zn3	Zn	1.224886	-0.422092	-0.555015
Zn4	Zn	1.724886	0.077908	-0.055015
Zn5	Zn	1.093729	-0.408032	-0.408239
Zn6	Zn	1.593729	0.091968	0.091761
Zn7	Zn	1.078882	-0.554027	-0.554239
Zn8	Zn	1.578882	-0.054027	-0.054239
O9	O	1.155622	-0.484735	-0.484956
O10	O	1.655622	0.015265	0.015044
O11	O	1.341012	-0.543386	-0.446153
O12	O	1.841012	-0.043386	0.053847
O13	O	1.213657	-0.303594	-0.529972
O14	O	1.713657	0.196406	-0.029972
O15	O	1.117398	-0.421933	-0.293478
O16	O	1.617398	0.078067	0.206522
O17	O	1.340936	-0.445896	-0.543636
O18	O	1.840936	0.054104	-0.043636
O19	O	1.213835	-0.529753	-0.303831
O20	O	1.713835	-0.029753	0.196169
O21	O	1.117297	-0.293264	-0.422137
O22	O	1.617297	0.206736	0.077863
O23	O	0.975724	-0.421197	-0.421385
O24	O	1.475724	0.078803	0.078615
O25	O	1.092094	-0.670761	-0.542314
O26	O	1.592094	-0.170761	-0.042314
O27	O	0.964816	-0.528459	-0.528650
O28	O	1.464816	-0.028459	-0.028650
O29	O	1.199439	-0.671319	-0.445401
O30	O	1.699439	-0.171319	0.054599
O31	O	1.199261	-0.445159	-0.671542
O32	O	1.699261	0.054841	-0.171542
O33	O	1.091993	-0.542092	-0.670972
O34	O	1.591993	-0.042092	-0.170972
C35	C	0.940183	-0.473221	-0.473405
C36	C	1.440183	0.026779	0.026595
C37	C	0.848015	-0.468316	-0.468484
C38	C	1.348015	0.031684	0.031516
C39	C	0.632820	-0.510179	-0.510474
C40	C	1.132820	-0.010179	-0.010474
C41	C	0.679267	-0.459359	-0.459508
C42	C	1.179267	0.040641	0.040492
C43	C	0.773167	-0.464344	-0.464504
C44	C	1.273167	0.035656	0.035496
C45	C	0.538912	-0.505195	-0.505479
C46	C	1.038912	-0.005195	-0.005479
C47	C	1.144122	-0.702127	-0.495343
C48	C	1.644122	-0.202127	0.004657
C49	C	1.139222	-0.794767	-0.499770
C50	C	1.639222	-0.294767	0.000230
C51	C	1.130245	-0.964378	-0.507831
C52	C	1.630245	-0.464378	-0.007831
C53	C	1.181175	-1.005939	-0.461840
C54	C	1.681175	-0.505939	0.038160
C55	C	1.176180	-1.100317	-0.466326
C56	C	1.676180	-0.600317	0.033674
C57	C	1.135239	-0.869992	-0.503346
C58	C	1.635239	-0.369992	-0.003346
C59	C	1.371902	-0.496294	-0.496553
C60	C	1.871902	0.003706	0.003447
C61	C	1.464068	-0.501220	-0.501495
C62	C	1.964068	-0.001220	-0.001495
C63	C	1.144026	-0.495088	-0.701500
C64	C	1.644026	0.004912	-0.201500
C65	C	1.139140	-0.499550	-0.794144
C66	C	1.639140	0.000450	-0.294144
C67	C	1.167128	-0.268187	-0.474552
C68	C	1.667128	0.231813	0.025448
C69	C	1.172201	-0.175545	-0.469899
C70	C	1.672201	0.324455	0.030101
C71	C	1.130223	-0.507712	-0.963767
C72	C	1.630223	-0.007712	-0.463767
C73	C	1.181169	-0.461779	-1.005313
C74	C	1.681169	0.038221	-0.505313
C75	C	1.176207	-0.466320	-1.099697
C76	C	1.676207	0.033680	-0.599697
C77	C	1.135183	-0.503171	-0.869375
C78	C	1.635183	-0.003171	-0.369375
C79	C	1.167284	-0.474360	-0.267568
C80	C	1.667284	0.025640	0.232432
C81	C	1.172254	-0.469939	-0.174931
C82	C	1.672254	0.030061	0.325069
H83	H	1.228527	-0.970641	-0.419097
H84	H	1.728527	-0.470641	0.080903
H85	H	0.663575	-0.557426	-0.557856
H86	H	1.163575	-0.057426	-0.057856
O87	O	1.073872	-1.006529	-0.558921
O88	O	1.573872	-0.506529	-0.058921
C89	C	1.115591	-1.062005	-0.617609
C90	C	1.615591	-0.562005	-0.117609
H91	H	1.181985	-1.039447	-0.625028
H92	H	1.681985	-0.539447	-0.125028
H93	H	1.082110	-1.064567	-0.680197
H94	H	1.582110	-0.564567	-0.180197
H95	H	1.116414	-1.126859	-0.595061
H96	H	1.616414	-0.626859	-0.095061
H97	H	0.648511	-0.412108	-0.412123
H98	H	1.148511	0.087892	0.087877
H99	H	1.228511	-0.419042	-0.969997
H100	H	1.728511	0.080958	-0.469997
O101	O	1.073765	-0.558617	-1.006016
O102	O	1.573765	-0.058617	-0.506016
C103	C	1.081329	-0.551878	-1.092213
C104	C	1.581329	-0.051878	-0.592213
H105	H	1.111341	-0.489592	-1.102382
H106	H	1.611341	0.010408	-0.602382
H107	H	1.017207	-0.555717	-1.122370
H108	H	1.517207	-0.055717	-0.622370
H109	H	1.121554	-0.604875	-1.121587
H110	H	1.621554	-0.104875	-0.621587
