data_functionalizedCrystal
_audit_creation_method	'MofGen! by Chris Wilmer'
_symmetry_space_group_name_H-M	'P1'
_symmetry_Int_Tables_number	1
_symmetry_cell_setting	triclinic
loop_
_symmetry_equiv_pos_as_xyz
  x,y,z
_cell_length_a	16.974800
_cell_length_b	13.262508
_cell_length_c	16.053948
_cell_angle_alpha	71.230523
_cell_angle_beta	83.471203
_cell_angle_gamma	82.923469
loop_
_atom_site_label
_atom_site_type_symbol
_atom_site_fract_x
_atom_site_fract_y
_atom_site_fract_z
O1	O	1.050976	0.135536	-0.032389
O2	O	0.820316	0.151917	-0.020516
O3	O	0.939943	-0.011050	0.008400
O4	O	0.931349	0.298503	-0.061305
O5	O	0.945986	-0.003041	-0.132683
O6	O	0.826359	0.159926	-0.161599
O7	O	1.057019	0.143545	-0.173472
Zn8	Zn	0.942648	0.153007	-0.189935
Zn9	Zn	0.934687	0.142455	-0.004052
O10	O	0.937392	0.306512	-0.202388
C11	C	0.793784	0.155152	-0.088885
C12	C	0.705723	0.152847	-0.082409
C13	C	0.667650	0.156127	-0.156272
C14	C	0.584909	0.153944	-0.150185
C15	C	0.540241	0.148488	-0.070237
C16	C	0.578319	0.145205	0.003633
C17	C	0.661060	0.147380	-0.002453
C18	C	0.292431	0.141507	-0.043788
C19	C	0.209685	0.139335	-0.037708
C20	C	0.216280	0.148072	-0.191527
C21	C	0.299021	0.150254	-0.197607
C22	C	0.337093	0.146964	-0.123736
N23	N	0.455666	0.146260	-0.064014
N24	N	0.421667	0.149185	-0.129958
C25	C	0.941927	-0.046662	-0.053074
C26	C	0.938826	-0.164709	-0.026056
C27	C	0.943257	-0.480011	-0.257523
C28	C	0.946164	-0.369100	-0.282909
C29	C	0.944330	-0.317996	-0.218698
C30	C	0.939588	-0.377816	-0.129097
C31	C	0.936674	-0.488737	-0.103709
C32	C	0.937747	-0.326722	-0.064883
C33	C	0.933005	-0.386542	0.024717
C34	C	0.930092	-0.497452	0.050101
C35	C	0.931926	-0.548555	-0.014110
C36	C	0.940661	-0.215801	-0.090272
C37	C	0.934078	-0.224527	0.063543
C38	C	0.931170	-0.335439	0.088928
C39	C	1.083551	0.140310	-0.105101
C40	C	1.171612	0.142615	-0.111571
C41	C	0.935408	0.342124	-0.140912
C42	C	0.938509	0.460171	-0.167924
N43	N	0.948088	0.160209	-0.316796
C44	C	0.901074	0.098087	-0.343230
C45	C	0.904899	0.103137	-0.432040
C46	C	0.955743	0.170304	-0.494413
C47	C	1.002758	0.232432	-0.467974
C48	C	0.998929	0.227387	-0.379166
C49	C	0.972439	0.192329	-0.761944
C50	C	0.976267	0.197367	-0.850756
C51	C	0.878406	0.068072	-0.814817
C52	C	0.874585	0.063028	-0.726008
C53	C	0.921597	0.125161	-0.699577
N54	N	0.959656	0.175465	-0.585191
N55	N	0.917680	0.120005	-0.608801
N56	N	0.929253	0.135245	0.122809
H57	H	0.541945	0.140755	0.068730
C58	C	0.758009	0.053428	0.100155
C59	C	0.702909	0.143776	0.078741
H60	H	0.783840	0.051199	0.150287
H61	H	0.796449	0.056996	0.051675
H62	H	0.731102	-0.009184	0.113041
H63	H	0.729817	0.206390	0.065849
H64	H	0.664464	0.140218	0.127231
C65	C	0.416329	0.140960	0.015192
C66	C	0.334272	0.137905	0.037406
H67	H	0.442161	0.138732	0.065322
H68	H	0.425997	0.205058	-0.031112
H69	H	0.436482	0.081149	-0.003687
H70	H	0.314119	0.197721	0.056279
H71	H	0.324599	0.073799	0.083725
H72	H	0.185274	0.150748	-0.251667
C73	C	0.487938	0.247871	-0.252778
C74	C	0.543052	0.157539	-0.231370
H75	H	0.462093	0.250079	-0.302894
H76	H	0.514830	0.310488	-0.265678
H77	H	0.449504	0.244298	-0.204281
H78	H	0.581489	0.161115	-0.279864
H79	H	0.516158	0.094906	-0.218474
H80	H	1.037210	0.277977	-0.357646
C81	C	0.879190	-0.162438	-0.227261
C82	C	0.945874	-0.150054	-0.188756
H83	H	0.882412	-0.121852	-0.288065
H84	H	0.832215	-0.138051	-0.198519
H85	H	0.877727	-0.235812	-0.221323
H86	H	0.947333	-0.076680	-0.194687
H87	H	0.992860	-0.174435	-0.217506
C88	C	0.665851	0.164529	-0.307698
C89	C	0.716746	0.162118	-0.244154
H90	H	0.696162	0.168218	-0.361951
H91	H	0.628202	0.225451	-0.315840
H92	H	0.638684	0.101540	-0.288401
H93	H	0.743909	0.225111	-0.263448
H94	H	0.754409	0.101190	-0.236013
H95	H	0.927308	-0.384159	0.161883
H96	H	0.929563	-0.638869	0.006555
H97	H	0.335385	0.154691	-0.262708
H98	H	0.173318	0.134895	0.027398
H99	H	0.946696	-0.227687	-0.239372
C100	C	0.807795	-0.025186	-0.387605
C101	C	0.853227	0.034847	-0.461102
H102	H	0.775898	-0.067350	-0.405549
H103	H	0.774440	0.021674	-0.361909
H104	H	0.842239	-0.070609	-0.345519
H105	H	0.818782	0.080275	-0.503186
H106	H	0.886585	-0.012018	-0.486812
H107	H	0.833185	0.008331	-0.675228
H108	H	0.950034	-0.320404	-0.355862
H109	H	0.932578	-0.182919	0.115829
C110	C	1.037384	0.412217	-0.538032
C111	C	1.058648	0.306264	-0.536532
H112	H	1.071888	0.457795	-0.580360
H113	H	1.041833	0.418097	-0.481364
H114	H	0.984012	0.432618	-0.553406
H115	H	1.112018	0.285860	-0.521153
H116	H	1.054206	0.300379	-0.593213
H117	H	0.859674	0.043389	-0.292450
C118	C	0.941725	-0.646172	-0.286888
C119	C	0.945281	-0.536186	-0.328096
H120	H	0.942981	-0.680851	-0.330463
H121	H	0.893786	-0.658134	-0.249839
H122	H	0.986005	-0.674123	-0.252428
H123	H	0.900997	-0.508233	-0.362552
H124	H	0.993225	-0.524217	-0.365161
C125	C	0.923909	-0.494940	0.199590
C126	C	0.924893	-0.563210	0.148590
H127	H	0.920710	-0.535539	0.260392
H128	H	0.879069	-0.443512	0.187810
H129	H	0.971291	-0.459484	0.185166
H130	H	0.877508	-0.598661	0.163010
H131	H	0.969737	-0.614658	0.160377
H132	H	0.840130	0.017489	-0.836347
C133	C	1.072612	0.324678	-0.877368
C134	C	1.032158	0.271204	-0.919320
H135	H	1.107112	0.370261	-0.919698
H136	H	1.102977	0.273883	-0.833787
H137	H	1.035181	0.366171	-0.850181
H138	H	1.069588	0.229705	-0.946502
H139	H	1.001791	0.322006	-0.962917
C140	C	0.974936	0.329717	-0.695037
C141	C	1.024116	0.260631	-0.732907
H142	H	1.006841	0.371893	-0.677117
H143	H	0.944120	0.288998	-0.645178
H144	H	0.940500	0.375126	-0.737140
H145	H	1.058548	0.215217	-0.690801
H146	H	1.054945	0.301354	-0.782771
