data_functionalizedCrystal
_audit_creation_method	'MofGen! by Chris Wilmer'
_symmetry_space_group_name_H-M	'P1'
_symmetry_Int_Tables_number	1
_symmetry_cell_setting	triclinic
loop_
_symmetry_equiv_pos_as_xyz
  x,y,z
_cell_length_a	6.817900
_cell_length_b	19.551823
_cell_length_c	11.102182
_cell_angle_alpha	94.525581
_cell_angle_beta	108.603774
_cell_angle_gamma	101.663376
loop_
_atom_site_label
_atom_site_type_symbol
_atom_site_fract_x
_atom_site_fract_y
_atom_site_fract_z
V1	V	-4.076509	-0.096682	-0.396852
O2	O	-4.072226	0.004638	-0.388686
O3	O	-4.018886	-0.191697	-0.394726
O4	O	-4.053820	-0.095198	-0.569665
O5	O	-4.037050	-0.092529	-0.212536
V6	V	-4.558001	-0.084563	-0.374735
O7	O	-4.342224	-0.123267	-0.445368
O8	O	-4.742484	-0.057978	-0.326219
O9	O	-4.392418	0.010452	-0.376861
O10	O	-4.679681	-0.185883	-0.382901
O11	O	-4.714858	-0.088716	-0.559051
O12	O	-4.357483	-0.086047	-0.201922
C13	C	-3.860811	-0.214860	-0.388617
C14	C	-3.895155	-0.292536	-0.388031
C15	C	-4.094001	-0.332582	-0.394111
C16	C	-4.126278	-0.405568	-0.393573
C17	C	-3.959684	-0.438503	-0.386929
C18	C	-3.760814	-0.398449	-0.380855
C19	C	-3.728549	-0.325465	-0.381406
C20	C	-3.834466	-0.544989	-0.306338
C21	C	-3.866733	-0.617971	-0.305780
C22	C	-4.059195	-0.663609	-0.385235
C23	C	-4.219410	-0.636255	-0.465233
C24	C	-4.187145	-0.563272	-0.465784
C25	C	-3.994650	-0.517641	-0.386331
C26	C	-4.293052	-0.782795	-0.390733
C27	C	-4.325326	-0.855783	-0.390203
C28	C	-3.959850	-0.848661	-0.377472
C29	C	-3.927588	-0.775676	-0.378016
C30	C	-4.094194	-0.742747	-0.384640
C31	C	-3.905372	-0.091765	-0.611767
C32	C	-3.968044	-0.091180	-0.753046
C33	C	-4.034491	-0.154890	-0.837973
C34	C	-4.093397	-0.154332	-0.970718
C35	C	-4.019391	-0.026349	-0.933595
C36	C	-3.960501	-0.026908	-0.800853
C37	C	-4.042034	-0.219162	-0.790166
C38	C	-4.108482	-0.282877	-0.875095
C39	C	-4.167387	-0.282319	-1.007840
C40	C	-4.159845	-0.218046	-1.055656
C41	C	-4.213834	0.033611	-0.382966
C42	C	-4.158729	0.111287	-0.383561
C43	C	-4.169272	-0.089482	-0.159813
C44	C	-4.085839	-0.090063	-0.018533
H45	H	-4.288207	-0.438179	-0.398523
H46	H	-3.736281	-0.640236	-0.240632
F47	F	-3.629608	-0.496424	-0.221772
H48	H	-4.013254	0.025979	-0.972538
F49	F	-3.583517	-0.433502	-0.373790
H50	H	-4.317598	-0.541004	-0.530923
F51	F	-4.222566	-0.217456	-1.196938
F52	F	-3.516901	-0.282844	-0.374934
F53	F	-4.424256	-0.684821	-0.549799
H54	H	-3.906396	0.024970	-0.731703
F55	F	-4.470375	-0.747749	-0.397806
F56	F	-4.116530	-0.351276	-0.824204
F57	F	-4.238128	-0.350128	-1.098224
F58	F	-3.715942	-0.733053	-0.371535
H59	H	-4.229672	-0.305776	-0.399514
F60	F	-3.979336	-0.219761	-0.648889
F61	F	-4.536979	-0.898404	-0.396683
H62	H	-3.824209	-0.875477	-0.372071
