data_functionalizedCrystal
_audit_creation_method	'MofGen! by Chris Wilmer'
_symmetry_space_group_name_H-M	'P1'
_symmetry_Int_Tables_number	1
_symmetry_cell_setting	triclinic
loop_
_symmetry_equiv_pos_as_xyz
  x,y,z
_cell_length_a	25.639242
_cell_length_b	25.639239
_cell_length_c	21.295411
_cell_angle_alpha	89.980474
_cell_angle_beta	89.974510
_cell_angle_gamma	90.030990
loop_
_atom_site_label
_atom_site_type_symbol
_atom_site_fract_x
_atom_site_fract_y
_atom_site_fract_z
Zn1	Zn	0.799282	-0.208318	-0.355936
Zn2	Zn	0.799189	-0.295738	-0.250666
Zn3	Zn	0.711842	-0.208306	-0.250680
Zn4	Zn	0.711804	-0.295712	-0.355896
O5	O	0.755529	-0.252018	-0.303294
O6	O	0.872435	-0.219930	-0.341983
O7	O	0.787579	-0.284146	-0.162578
O8	O	0.723496	-0.135143	-0.264665
O9	O	0.872367	-0.284157	-0.264641
O10	O	0.787738	-0.135151	-0.341997
O11	O	0.723405	-0.219910	-0.162588
O12	O	0.638672	-0.219886	-0.264626
O13	O	0.723431	-0.284113	-0.443990
O14	O	0.638644	-0.284102	-0.341927
O15	O	0.787702	-0.219905	-0.444020
O16	O	0.787542	-0.368900	-0.264602
O17	O	0.723341	-0.368881	-0.341914
C18	C	0.619687	-0.251990	-0.303274
C19	C	0.561573	-0.251991	-0.303280
C20	C	0.310423	-0.218635	-0.343640
C21	C	0.365027	-0.218630	-0.343636
O22	O	0.393301	-0.190247	-0.377947
N23	N	0.392299	-0.252012	-0.303301
C24	C	0.364963	-0.285406	-0.262972
O25	O	0.393174	-0.313801	-0.228665
C26	C	0.310360	-0.285414	-0.262979
C27	C	0.283091	-0.252025	-0.303312
C28	C	0.283154	-0.185249	-0.383970
C29	C	0.228554	-0.185254	-0.383972
C30	C	0.201222	-0.218644	-0.343645
C31	C	0.228491	-0.252030	-0.303315
C32	C	0.283025	-0.318810	-0.222654
C33	C	0.228418	-0.318815	-0.222665
C34	C	0.201149	-0.285426	-0.262998
C35	C	0.146558	-0.285424	-0.262990
N36	N	0.119287	-0.252042	-0.303325
C37	C	0.146619	-0.218651	-0.343652
C38	C	0.479634	-0.285389	-0.262961
C39	C	0.534236	-0.285379	-0.262950
C40	C	0.534297	-0.218603	-0.343615
C41	C	0.479693	-0.218611	-0.343622
C42	C	0.452362	-0.252006	-0.303296
C43	C	0.031954	-0.218663	-0.343654
C44	C	-0.022652	-0.218669	-0.343651
C45	C	-0.022708	-0.285447	-0.262989
C46	C	0.031893	-0.285439	-0.262989
C47	C	0.059222	-0.252046	-0.303327
O48	O	0.118250	-0.313795	-0.228699
O49	O	0.118402	-0.190267	-0.377960
C50	C	0.755441	-0.387861	-0.303265
C51	C	0.755452	-0.445975	-0.303274
C52	C	0.789046	-0.806335	-0.263106
C53	C	0.789066	-0.860940	-0.263115
O54	O	0.817539	-0.889174	-0.228931
N55	N	0.755621	-0.888258	-0.303336
C56	C	0.722157	-0.860968	-0.343556
O57	O	0.693712	-0.889218	-0.377768
C58	C	0.722140	-0.806365	-0.343550
C59	C	0.755584	-0.779050	-0.303322
C60	C	0.822488	-0.779020	-0.222882
C61	C	0.822467	-0.724420	-0.222873
C62	C	0.789004	-0.697134	-0.263088
C63	C	0.755563	-0.724449	-0.303313
C64	C	0.688679	-0.779077	-0.383772
C65	C	0.688665	-0.724470	-0.383764
C66	C	0.722109	-0.697155	-0.343535
C67	C	0.722079	-0.642563	-0.343519
N68	N	0.755524	-0.615246	-0.303298
C69	C	0.788987	-0.642531	-0.263083
C70	C	0.722197	-0.975639	-0.343565
C71	C	0.722211	-1.030241	-0.343568
C72	C	0.789121	-1.030209	-0.263128
C73	C	0.789104	-0.975605	-0.263123
C74	C	0.755642	-0.948321	-0.303344
C75	C	0.788940	-0.527866	-0.263066
C76	C	0.788914	-0.473261	-0.263059
C77	C	0.722006	-0.473298	-0.343501
C78	C	0.722030	-0.527898	-0.343506
C79	C	0.755501	-0.555181	-0.303287
O80	O	0.693623	-0.614294	-0.377687
O81	O	0.817432	-0.614274	-0.228882
C82	C	0.891902	-0.252047	-0.303315
C83	C	0.950016	-0.252059	-0.303324
C84	C	0.755573	-0.252007	-0.467485
C85	C	0.755591	-0.252003	-0.537453
C86	C	0.755632	-0.115645	-0.303337
C87	C	0.755675	-0.057531	-0.303355
C88	C	0.789055	-0.218568	-0.570336
C89	C	0.789054	-0.218545	-0.636078
C90	C	0.755595	-0.251967	-0.668935
C91	C	0.722125	-0.285404	-0.636044
C92	C	0.722123	-0.285422	-0.570303
N93	N	0.751555	-0.297704	-0.772153
N94	N	0.751560	-0.297686	-0.834604
C95	C	0.755599	-0.251914	-0.867010
N96	N	0.759642	-0.206160	-0.834605
N97	N	0.759640	-0.206179	-0.772148
C98	C	0.755593	-0.251951	-0.740221
C99	C	0.789064	-0.218452	-0.971179
C100	C	0.789059	-0.218428	-1.036923
C101	C	0.722132	-0.285291	-1.036887
C102	C	0.722134	-0.285310	-0.971145
C103	C	0.755602	-0.251891	-0.938294
C104	C	0.755516	-0.251992	-0.139743
C105	C	0.755599	-0.251849	-0.069775
H106	H	0.206357	-0.158068	-0.416818
C107	C	-0.052324	-0.182504	-0.387483
C108	C	-0.083678	-0.212159	-0.427757
C109	C	-0.111022	-0.178863	-0.468137
H110	H	-0.028282	-0.162608	-0.411560
H111	H	-0.073654	-0.159701	-0.363473
H112	H	-0.062349	-0.234952	-0.451764
H113	H	-0.107729	-0.232054	-0.403697
H114	H	-0.132352	-0.156061	-0.444128
H115	H	-0.086976	-0.158969	-0.492210
H116	H	-0.132302	-0.198979	-0.495464
C117	C	0.685651	-0.557584	-0.387074
C118	C	0.652157	-0.588970	-0.351402
C119	C	0.618636	-0.616314	-0.391520
H120	H	0.705587	-0.578896	-0.414543
H121	H	0.665688	-0.533526	-0.411009
H122	H	0.672118	-0.613025	-0.327478
H123	H	0.632209	-0.567672	-0.323935
H124	H	0.598673	-0.592256	-0.415455
H125	H	0.638577	-0.637622	-0.418987
H126	H	0.595904	-0.637609	-0.367323
C127	C	0.858754	-0.694836	-0.179100
C128	C	0.847413	-0.708165	-0.116807
C129	C	0.880839	-0.680933	-0.076467
H130	H	0.853991	-0.658399	-0.184763
H131	H	0.893889	-0.703768	-0.188323
H132	H	0.812286	-0.699230	-0.107587
H133	H	0.852179	-0.744598	-0.111124
H134	H	0.915974	-0.689865	-0.085690
H135	H	0.876073	-0.644497	-0.082136
H136	H	0.873152	-0.689977	-0.034197
H137	H	0.457384	-0.312582	-0.230117
C138	C	0.685741	-0.321529	-0.935404
C139	C	0.652242	-0.291927	-0.897657
C140	C	0.618703	-0.325274	-0.864730
H141	H	0.705664	-0.344331	-0.909716
H142	H	0.665782	-0.341423	-0.964365
H143	H	0.672199	-0.272043	-0.868699
H144	H	0.632308	-0.269127	-0.923329
H145	H	0.598744	-0.345167	-0.893691
H146	H	0.638630	-0.348074	-0.839046
H147	H	0.595967	-0.305194	-0.839119
H148	H	0.849740	-0.801230	-0.190134
C149	C	0.825330	-0.945924	-0.219372
C150	C	0.795735	-0.914625	-0.178975
C151	C	0.829090	-0.887283	-0.138657
H152	H	0.848107	-0.924553	-0.243400
H153	H	0.845250	-0.969982	-0.195386
H154	H	0.775824	-0.890569	-0.202959
H155	H	0.772959	-0.935982	-0.154933
H156	H	0.849010	-0.911341	-0.114671
H157	H	0.851865	-0.865916	-0.162691
H158	H	0.809014	-0.866047	-0.111240
C159	C	0.061526	-0.182349	-0.387471
C160	C	0.025949	-0.153107	-0.422775
C161	C	0.053171	-0.119643	-0.463137
H162	H	0.082831	-0.202319	-0.414914
H163	H	0.082815	-0.159507	-0.363455
H164	H	0.004669	-0.175947	-0.446789
H165	H	0.004643	-0.133126	-0.395349
H166	H	0.074460	-0.096800	-0.439121
H167	H	0.074475	-0.139617	-0.490575
H168	H	0.029037	-0.099795	-0.487091
H169	H	0.816309	-0.191198	-1.063695
H170	H	0.694884	-0.312498	-1.063638
H171	H	0.694870	-0.312648	-0.543530
C172	C	0.825322	-0.182186	-0.534714
C173	C	0.813960	-0.130453	-0.550704
C174	C	0.847351	-0.096919	-0.517898
H175	H	0.860464	-0.189771	-0.545481
H176	H	0.820529	-0.186941	-0.490843
H177	H	0.818757	-0.125700	-0.594565
H178	H	0.778823	-0.122851	-0.539935
H179	H	0.842559	-0.101674	-0.474027
H180	H	0.882492	-0.104509	-0.528667
H181	H	0.839644	-0.061814	-0.528738
H182	H	0.556434	-0.312562	-0.230100
C183	C	0.312527	-0.355121	-0.178841
C184	C	0.276893	-0.384371	-0.143546
C185	C	0.304050	-0.417833	-0.103183
H186	H	0.333827	-0.335149	-0.151393
H187	H	0.333816	-0.377958	-0.202855
H188	H	0.255614	-0.361536	-0.119533
H189	H	0.255592	-0.404353	-0.170977
H190	H	0.325339	-0.440671	-0.127197
H191	H	0.325349	-0.397857	-0.075739
H192	H	0.279877	-0.437687	-0.079234
H193	H	0.694760	-0.451073	-0.376242
C194	C	0.825478	-1.059934	-0.219587
C195	C	0.818361	-1.113598	-0.228243
C196	C	0.851865	-1.140998	-0.188175
H197	H	0.817917	-1.051097	-0.177237
H198	H	0.860598	-1.050960	-0.228895
H199	H	0.783249	-1.122568	-0.218930
H200	H	0.825925	-1.122451	-0.270584
H201	H	0.886985	-1.132024	-0.197483
H202	H	0.844302	-1.132157	-0.145827
H203	H	0.847044	-1.177412	-0.194046
H204	H	0.694973	-1.052477	-0.376320
C205	C	0.312729	-0.148934	-0.427780
C206	C	0.277150	-0.119694	-0.463084
C207	C	0.304371	-0.086225	-0.503441
H208	H	0.334037	-0.168900	-0.455222
H209	H	0.334014	-0.126091	-0.403761
H210	H	0.255874	-0.142535	-0.487101
H211	H	0.255841	-0.099717	-0.435658
H212	H	0.325656	-0.063381	-0.479422
H213	H	0.325678	-0.106195	-0.530879
H214	H	0.280235	-0.066378	-0.527395
C215	C	0.685801	-0.946112	-0.387256
C216	C	0.656509	-0.981728	-0.422465
C217	C	0.622973	-0.954551	-0.462713
H218	H	0.705722	-0.924782	-0.414763
H219	H	0.662993	-0.924852	-0.363163
H220	H	0.679314	-1.002980	-0.446557
H221	H	0.636578	-1.003060	-0.394974
H222	H	0.600165	-0.933291	-0.438620
H223	H	0.642897	-0.933222	-0.490216
H224	H	0.603090	-0.978712	-0.486603
C225	C	0.061571	-0.321716	-0.219300
C226	C	0.092924	-0.355260	-0.254870
C227	C	0.120273	-0.388684	-0.214649
H228	H	0.037533	-0.341652	-0.195265
H229	H	0.082903	-0.301695	-0.191926
H230	H	0.071594	-0.375279	-0.282233
H231	H	0.116972	-0.335339	-0.278903
H232	H	0.141605	-0.368664	-0.187276
H233	H	0.096230	-0.408617	-0.190617
H234	H	0.141552	-0.411445	-0.238778
H235	H	0.816148	-0.451022	-0.230298
C236	C	0.450023	-0.182449	-0.387453
C237	C	0.418674	-0.212105	-0.427732
C238	C	0.391332	-0.178810	-0.468115
H239	H	0.474066	-0.162551	-0.411527
H240	H	0.428689	-0.159648	-0.363446
H241	H	0.440006	-0.234896	-0.451737
H242	H	0.394622	-0.232002	-0.403676
H243	H	0.369998	-0.156009	-0.444108
H244	H	0.415379	-0.158914	-0.492184
H245	H	0.370056	-0.198927	-0.495445
C246	C	0.564072	-0.182411	-0.387382
C247	C	0.617727	-0.189566	-0.378752
C248	C	0.645173	-0.156242	-0.419062
H249	H	0.555202	-0.147248	-0.378292
H250	H	0.555170	-0.190123	-0.429674
H251	H	0.626625	-0.181850	-0.336469
H252	H	0.626612	-0.224722	-0.387846
H253	H	0.636271	-0.163955	-0.461355
H254	H	0.636299	-0.121082	-0.409969
H255	H	0.681580	-0.161096	-0.413217
H256	H	0.661417	-0.702257	-0.416519
H257	H	0.816313	-0.191237	-0.944431
H258	H	0.206168	-0.346011	-0.189827
H259	H	-0.044971	-0.312630	-0.230153
C260	C	0.825296	-0.557388	-0.219328
C261	C	0.854564	-0.521770	-0.184091
C262	C	0.888053	-0.548946	-0.143784
H263	H	0.848126	-0.578661	-0.243360
H264	H	0.805327	-0.578705	-0.191845
H265	H	0.874533	-0.500462	-0.211570
H266	H	0.831749	-0.500496	-0.160046
H267	H	0.868084	-0.570263	-0.116301
H268	H	0.910879	-0.570218	-0.167822
H269	H	0.907912	-0.524784	-0.119867
C270	C	0.825336	-0.182267	-0.671904
C271	C	0.818166	-0.189397	-0.736508
C272	C	0.851575	-0.155983	-0.769528
H273	H	0.860479	-0.189901	-0.661222
H274	H	0.817711	-0.147125	-0.661167
H275	H	0.825794	-0.224531	-0.747241
H276	H	0.783029	-0.181760	-0.747209
H277	H	0.843950	-0.120842	-0.758791
H278	H	0.886716	-0.163620	-0.758841
H279	H	0.846711	-0.160814	-0.813365
C280	C	0.652435	-0.808694	-0.427560
C281	C	0.663808	-0.795379	-0.489849
C282	C	0.630434	-0.822655	-0.530208
H283	H	0.617287	-0.799799	-0.418395
H284	H	0.657236	-0.845129	-0.421857
H285	H	0.659003	-0.758952	-0.495550
H286	H	0.698950	-0.804275	-0.499034
H287	H	0.635235	-0.859090	-0.524505
H288	H	0.595289	-0.813758	-0.521037
H289	H	0.638150	-0.813628	-0.572476
C290	C	0.685886	-0.321757	-0.671747
C291	C	0.715467	-0.355275	-0.709487
C292	C	0.682099	-0.388775	-0.742378
H293	H	0.663111	-0.301807	-0.697435
H294	H	0.665964	-0.341704	-0.642763
H295	H	0.735380	-0.335330	-0.738467
H296	H	0.738241	-0.375237	-0.683815
H297	H	0.662178	-0.408722	-0.713395
H298	H	0.659326	-0.368821	-0.768063
H299	H	0.702166	-0.411524	-0.767984
