data_functionalizedCrystal
_audit_creation_method	'MofGen! by Chris Wilmer'
_symmetry_space_group_name_H-M	'P1'
_symmetry_Int_Tables_number	1
_symmetry_cell_setting	triclinic
loop_
_symmetry_equiv_pos_as_xyz
  x,y,z
_cell_length_a	18.101398
_cell_length_b	18.101397
_cell_length_c	11.169409
_cell_angle_alpha	90.039881
_cell_angle_beta	90.028971
_cell_angle_gamma	90.018196
loop_
_atom_site_label
_atom_site_type_symbol
_atom_site_fract_x
_atom_site_fract_y
_atom_site_fract_z
Zn1	Zn	1.132206	-0.294814	0.678773
Zn2	Zn	1.132116	-0.418681	0.478063
Zn3	Zn	1.008356	-0.294853	0.478075
Zn4	Zn	1.008339	-0.418614	0.678676
O5	O	1.070254	-0.356740	0.578397
O6	O	1.235827	-0.311258	0.652184
O7	O	1.115669	-0.402299	0.310115
O8	O	1.024830	-0.191215	0.504743
O9	O	1.235761	-0.402262	0.504723
O10	O	1.115822	-0.191187	0.652195
O11	O	1.024743	-0.311323	0.310124
O12	O	0.904721	-0.311258	0.504650
O13	O	1.024801	-0.402147	0.846639
O14	O	0.904708	-0.402184	0.652030
O15	O	1.115806	-0.311192	0.846710
O16	O	1.115652	-0.522305	0.504629
O17	O	1.024713	-0.522255	0.652019
C18	C	0.877844	-0.356719	0.578332
C19	C	0.795530	-0.356727	0.578332
C20	C	0.644821	-0.356742	0.578386
C21	C	0.613451	-0.299452	0.485813
C22	C	0.527833	-0.299236	0.486116
C23	C	0.496439	-0.356757	0.578437
C24	C	0.527581	-0.335912	0.705066
C25	C	0.613225	-0.335488	0.704501
C26	C	0.613231	-0.435026	0.545447
C27	C	0.527579	-0.434614	0.542687
C28	C	0.412579	-0.356767	0.578474
C29	C	0.728681	-0.356731	0.578358
C30	C	1.070191	-0.549151	0.578339
C31	C	1.070232	-0.631465	0.578354
C32	C	1.070326	-0.930556	0.578463
C33	C	1.127383	-0.899231	0.485481
C34	C	1.127580	-0.813612	0.485722
C35	C	1.070279	-0.782173	0.578408
C36	C	1.091441	-0.813169	0.704918
C37	C	1.091882	-0.898814	0.704412
C38	C	0.991956	-0.899065	0.546030
C39	C	0.992343	-0.813416	0.543206
C40	C	1.070252	-0.698314	0.578384
C41	C	1.070356	-1.014415	0.578495
C42	C	1.263416	-0.356763	0.578463
C43	C	1.345730	-0.356772	0.578491
C44	C	1.070311	-0.356658	0.891439
C45	C	1.070336	-0.356623	1.024839
C46	C	1.070338	-0.163578	0.578481
C47	C	1.070374	-0.081264	0.578517
C48	C	1.070240	-0.356769	0.266572
C49	C	1.070360	-0.356595	0.133173
H50	H	0.506151	-0.279332	0.733398
C51	C	0.640244	-0.258192	0.742080
C52	C	0.723611	-0.241802	0.749329
C53	C	0.750625	-0.164502	0.786895
C54	C	0.694273	-0.103591	0.817211
C55	C	0.610900	-0.119979	0.809963
C56	C	0.583886	-0.197280	0.772397
H57	H	0.765331	-0.286893	0.726887
H58	H	0.812343	-0.152370	0.792260
H59	H	0.714270	-0.046368	0.845019
H60	H	0.569180	-0.074888	0.832405
H61	H	0.522168	-0.209411	0.767032
H62	H	0.507361	-0.241233	0.507986
H63	H	0.506773	-0.312242	0.392238
C64	C	0.641273	-0.389429	0.800904
C65	C	0.585739	-0.432751	0.878159
C66	C	0.613783	-0.486687	0.974564
C67	C	0.697361	-0.497302	0.993714
C68	C	0.752900	-0.453979	0.916456
C69	C	0.724856	-0.400043	0.820051
H70	H	0.523865	-0.424895	0.863986
H71	H	0.572668	-0.518758	1.031756
H72	H	0.718121	-0.537229	1.065079
H73	H	0.814774	-0.461836	0.930629
H74	H	0.765971	-0.367972	0.762859
H75	H	0.634791	-0.454059	0.454650
C76	C	0.641216	-0.316801	0.358568
C77	C	0.692716	-0.383200	0.337156
C78	C	0.720488	-0.400550	0.209908
C79	C	0.696759	-0.351501	0.104072
C80	C	0.645257	-0.285097	0.125481
C81	C	0.617485	-0.267747	0.252729
H82	H	0.710284	-0.419513	0.415505
H83	H	0.758614	-0.449707	0.194060
H84	H	0.717318	-0.364345	0.009875
H85	H	0.627689	-0.248784	0.047132
H86	H	0.579359	-0.218590	0.268577
C87	C	1.169272	-0.925729	0.741510
C88	C	1.185694	-1.009075	0.748725
C89	C	1.263086	-1.035985	0.785820
C90	C	1.324055	-0.979550	0.815700
C91	C	1.307634	-0.896199	0.808487
C92	C	1.230243	-0.869289	0.771392
H93	H	1.140560	-1.050856	0.726604
H94	H	1.275241	-1.097688	0.791159
H95	H	1.381345	-0.999471	0.843160
H96	H	1.352769	-0.854418	0.830607
H97	H	1.218087	-0.807587	0.766052
C98	C	0.500066	-0.455870	0.416801
C99	C	0.449561	-0.402804	0.346757
C100	C	0.422038	-0.424060	0.220875
C101	C	0.445019	-0.498382	0.165036
C102	C	0.495527	-0.551452	0.235081
C103	C	0.523050	-0.530196	0.360963
H104	H	0.432547	-0.347782	0.388092
H105	H	0.384649	-0.384774	0.169024
H106	H	0.424645	-0.514117	0.071851
H107	H	0.512541	-0.606474	0.193746
H108	H	0.560439	-0.569483	0.412814
H109	H	0.506202	-0.479563	0.605152
H110	H	1.052146	-0.919532	0.776079
C111	C	0.640642	-0.492692	0.636514
C112	C	0.724046	-0.506418	0.652115
C113	C	0.751461	-0.564078	0.743184
C114	C	0.695473	-0.608011	0.818653
C115	C	0.612064	-0.594286	0.803055
C116	C	0.584649	-0.536627	0.711985
H117	H	0.765496	-0.473895	0.596246
H118	H	0.813206	-0.574238	0.754731
H119	H	0.715767	-0.650694	0.886069
H120	H	0.570613	-0.626810	0.858923
H121	H	0.522904	-0.526467	0.700438
C122	C	1.109728	-0.927132	0.358370
C123	C	1.167205	-0.972981	0.289038
C124	C	1.149549	-1.000884	0.161920
C125	C	1.074417	-0.982938	0.104134
C126	C	1.016936	-0.937086	0.173466
C127	C	1.034591	-0.909183	0.300584
H128	H	1.222826	-0.986268	0.331814
H129	H	1.192101	-1.034826	0.110596
H130	H	1.061348	-1.003593	0.010034
H131	H	0.961314	-0.923799	0.130690
H132	H	0.992039	-0.875241	0.351908
H133	H	1.051155	-0.792801	0.776061
H134	H	1.148085	-0.791661	0.732854
H135	H	0.949445	-0.919322	0.613752
H136	H	1.114341	-0.792660	0.391917
H137	H	0.972705	-0.920734	0.455377
H138	H	1.185118	-0.920699	0.506695
H139	H	1.185633	-0.793069	0.507183
C140	C	0.970783	-0.786055	0.417436
C141	C	0.900436	-0.739436	0.400186
C142	C	0.878880	-0.712069	0.274416
C143	C	0.927672	-0.731321	0.165895
C144	C	0.998023	-0.777942	0.183141
C145	C	1.019579	-0.805309	0.308911
H146	H	0.864313	-0.725183	0.480523
H147	H	0.826801	-0.677557	0.261650
H148	H	0.911715	-0.711062	0.072792
H149	H	1.034146	-0.792196	0.102804
H150	H	1.071658	-0.839822	0.321677
C151	C	0.642538	-0.221529	0.514979
C152	C	0.726233	-0.206253	0.514739
C153	C	0.755321	-0.128332	0.543913
C154	C	0.700715	-0.065687	0.573327
C155	C	0.617015	-0.080960	0.573568
C156	C	0.587927	-0.158882	0.544394
H157	H	0.766660	-0.252629	0.492964
H158	H	0.817281	-0.117026	0.543735
H159	H	0.722247	-0.008005	0.594924
H160	H	0.576587	-0.034585	0.595343
H161	H	0.525967	-0.170188	0.544573
C162	C	0.931828	-0.784575	0.628060
C163	C	0.850936	-0.808426	0.609761
C164	C	0.790429	-0.779613	0.694661
C165	C	0.810813	-0.726949	0.797860
C166	C	0.891709	-0.703095	0.816164
C167	C	0.952216	-0.731908	0.731264
H168	H	0.835843	-0.847414	0.533363
H169	H	0.730545	-0.797272	0.681111
H170	H	0.766022	-0.705620	0.860708
H171	H	0.906802	-0.664107	0.892562
H172	H	1.012101	-0.714249	0.744814
H173	H	0.507250	-0.376368	0.775951
