data_functionalizedCrystal
_audit_creation_method	'MofGen! by Chris Wilmer'
_symmetry_space_group_name_H-M	'P1'
_symmetry_Int_Tables_number	1
_symmetry_cell_setting	triclinic
loop_
_symmetry_equiv_pos_as_xyz
  x,y,z
_cell_length_a	8.597340
_cell_length_b	10.654545
_cell_length_c	7.088929
_cell_angle_alpha	83.718243
_cell_angle_beta	103.954719
_cell_angle_gamma	84.910392
loop_
_atom_site_label
_atom_site_type_symbol
_atom_site_fract_x
_atom_site_fract_y
_atom_site_fract_z
O1	O	2.103278	0.172468	0.187496
O2	O	1.638822	0.192968	0.110984
O3	O	1.881728	-0.000106	0.151001
O4	O	1.860372	0.365542	0.147480
O5	O	1.914189	-0.025967	0.474323
O6	O	1.671284	0.167107	0.434307
O7	O	2.135739	0.146607	0.510819
Cu8	Cu	1.906475	0.154496	0.502085
Cu9	Cu	1.868086	0.185079	0.119718
O10	O	1.892834	0.339681	0.470803
C11	C	1.595581	0.179277	0.262848
C12	C	1.418375	0.176994	0.233655
C13	C	1.896390	-0.059822	0.312400
C14	C	1.891696	-0.199227	0.311616
C15	C	1.856325	-0.171042	-0.040878
C16	C	1.836441	-0.222441	-0.217486
C17	C	1.832032	-0.353425	-0.218214
C18	C	1.847505	-0.433013	-0.042317
C19	C	1.867389	-0.381613	0.134291
C20	C	1.871800	-0.250625	0.135001
C21	C	1.902748	-0.409797	0.486779
C22	C	1.907168	-0.278815	0.487513
C23	C	1.918220	-0.489385	0.662676
C24	C	1.938116	-0.437986	0.839290
C25	C	1.942526	-0.306995	0.840012
C26	C	1.927052	-0.227415	0.664121
C27	C	2.178980	0.160299	0.358951
C28	C	2.356185	0.162582	0.388131
C29	C	1.878171	0.399397	0.309399
C30	C	1.882864	0.538803	0.310171
N31	N	1.933488	0.132984	0.771023
N32	N	1.841086	0.206581	-0.149218
H33	H	1.823842	-0.157626	-0.360699
O34	O	2.047869	0.041968	0.886970
C35	C	2.129372	-0.023004	0.769320
H36	H	2.117358	0.039994	0.624602
H37	H	2.262480	-0.047068	0.849204
H38	H	2.074189	-0.114474	0.739021
O39	O	1.454200	0.150093	0.572658
C40	C	1.407555	0.249722	0.670463
H41	H	1.275978	0.288408	0.599680
H42	H	1.422002	0.212302	0.831421
H43	H	1.486966	0.329014	0.659379
H44	H	1.843894	-0.539663	-0.042929
O45	O	1.812464	-0.403201	-0.389919
C46	C	1.664766	-0.348274	-0.519664
H47	H	1.627017	-0.252372	-0.476630
H48	H	1.679738	-0.334159	-0.675776
H49	H	1.568113	-0.413871	-0.511504
O50	O	1.320061	0.189857	0.049241
C51	C	1.205800	0.298145	0.020208
H52	H	1.254319	0.366781	0.126492
H53	H	1.182445	0.347079	-0.136940
H54	H	1.088245	0.268140	0.047592
H55	H	1.958693	-0.265152	0.983824
O56	O	1.931144	-0.100175	0.665032
C57	C	1.804299	-0.049765	0.739143
H58	H	1.766080	-0.128683	0.834061
H59	H	1.846964	0.027710	0.831380
H60	H	1.697284	-0.007557	0.611924
O61	O	1.860433	-0.043804	-0.039956
C62	C	1.733595	0.006617	0.034160
H63	H	1.695361	-0.072299	0.129066
H64	H	1.776277	0.084081	0.126409
H65	H	1.626586	0.048840	-0.093057
O66	O	1.727000	0.297731	0.734684
C67	C	1.759461	0.418043	0.788836
H68	H	1.892857	0.413985	0.865936
H69	H	1.728545	0.491723	0.652020
H70	H	1.683232	0.445708	0.892337
H71	H	1.914620	-0.596037	0.662069
H72	H	1.950701	-0.502795	0.982490
