data_functionalizedCrystal
_audit_creation_method	'MofGen! by Chris Wilmer'
_symmetry_space_group_name_H-M	'P1'
_symmetry_Int_Tables_number	1
_symmetry_cell_setting	triclinic
loop_
_symmetry_equiv_pos_as_xyz
  x,y,z
_cell_length_a	6.817900
_cell_length_b	15.300992
_cell_length_c	9.514088
_cell_angle_alpha	90.960074
_cell_angle_beta	118.843545
_cell_angle_gamma	104.175078
loop_
_atom_site_label
_atom_site_type_symbol
_atom_site_fract_x
_atom_site_fract_y
_atom_site_fract_z
V1	V	-4.221170	-0.126358	-0.501233
O2	O	-4.201233	0.004427	-0.491194
O3	O	-4.174963	-0.248965	-0.498283
O4	O	-4.255912	-0.125136	-0.719619
O5	O	-4.119724	-0.120259	-0.268326
V6	V	-4.693740	-0.110630	-0.473317
O7	O	-4.506454	-0.160860	-0.562468
O8	O	-4.858653	-0.076127	-0.412082
O9	O	-4.516740	0.011977	-0.476267
O10	O	-4.831074	-0.241415	-0.483356
O11	O	-4.912583	-0.116729	-0.706224
O12	O	-4.435791	-0.111851	-0.254931
C13	C	-4.017808	-0.278831	-0.490500
C14	C	-4.061870	-0.379069	-0.489544
C15	C	-3.985917	-0.412813	-0.341970
C16	C	-4.027339	-0.506998	-0.341077
C17	C	-4.144701	-0.567436	-0.487760
C18	C	-4.220664	-0.533686	-0.635346
C19	C	-4.179256	-0.439503	-0.636238
C20	C	-4.306961	-0.729991	-0.633477
C21	C	-4.348369	-0.824180	-0.632586
C22	C	-4.155045	-0.797486	-0.338317
C23	C	-4.113636	-0.703303	-0.339208
C24	C	-4.189599	-0.669560	-0.486795
C25	C	-4.121064	-0.120874	-0.772834
C26	C	-4.230767	-0.120687	-0.951369
C27	C	-4.337236	0.041839	-0.484046
C28	C	-4.272416	0.142075	-0.485012
C29	C	-4.233979	-0.116116	-0.201708
C30	C	-4.103513	-0.116299	-0.023171
H31	H	-3.965493	-0.534468	-0.220908
H32	H	-4.241128	-0.412031	-0.756409
C33	C	-4.491348	-0.125562	-1.052846
N34	N	-4.687615	-0.129232	-1.129280
H35	H	-3.890334	-0.363610	-0.222522
H36	H	-4.093186	-0.824964	-0.218146
C37	C	-3.984518	-0.636822	-0.177849
N38	N	-3.887268	-0.586749	-0.056311
H39	H	-4.443930	-0.873387	-0.752029
H40	H	-3.910644	-0.112695	-0.948061
C41	C	-4.390523	-0.692876	-0.795831
N42	N	-4.453448	-0.664920	-0.918113
H43	H	-4.316239	-0.582902	-0.754778
