data_functionalizedCrystal
_audit_creation_method	'MofGen! by Chris Wilmer'
_symmetry_space_group_name_H-M	'P1'
_symmetry_Int_Tables_number	1
_symmetry_cell_setting	triclinic
loop_
_symmetry_equiv_pos_as_xyz
  x,y,z
_cell_length_a	10.908891
_cell_length_b	11.026607
_cell_length_c	9.482944
_cell_angle_alpha	81.873049
_cell_angle_beta	77.834681
_cell_angle_gamma	84.335053
loop_
_atom_site_label
_atom_site_type_symbol
_atom_site_fract_x
_atom_site_fract_y
_atom_site_fract_z
O1	O	-1.683332	0.166432	0.120885
O2	O	-1.330398	0.075889	0.120889
O3	O	-1.477613	0.291911	0.120882
O4	O	-1.536116	-0.049590	0.120892
O5	O	-1.435844	0.317223	-0.120911
O6	O	-1.288629	0.101201	-0.120904
O7	O	-1.641563	0.191744	-0.120908
Cu8	Cu	-1.461282	0.148784	-0.142983
Cu9	Cu	-1.510678	0.118849	0.142965
O10	O	-1.494348	-0.024278	-0.120901
C11	C	-1.263628	0.080083	-0.000007
C12	C	-1.126901	0.054884	-0.000005
N13	N	-1.426549	0.169841	-0.344103
C14	C	-1.056638	0.146828	-0.000008
C15	C	-0.915323	0.120785	-0.000006
C16	C	-1.445936	0.347600	-0.000012
C17	C	-1.413764	0.475820	-0.000007
C18	C	-0.708333	0.187548	-0.000010
C19	C	-0.845062	0.212743	-0.000008
C20	C	-1.526025	-0.079967	-0.000003
C21	C	-1.558199	-0.208188	0.000001
C22	C	-1.502600	0.567554	-0.000006
C23	C	-1.469350	0.700077	-0.000000
C24	C	-1.500424	0.125059	-0.416302
C25	C	-1.471533	0.142592	-0.583720
N26	N	-1.545420	0.097803	0.344085
H27	H	-1.101104	0.244824	-0.000003
H28	H	-0.870864	0.022781	0.000003
H29	H	-1.630065	0.046484	-0.593791
H30	H	-1.368675	0.719644	0.000011
H31	H	-1.658895	0.772234	0.000109
H32	H	-0.889521	0.310746	-0.000001
C33	C	-1.277760	0.502248	-0.000002
C34	C	-1.205529	0.588291	-0.125555
C35	C	-1.069522	0.614715	-0.125550
C36	C	-1.005746	0.555095	0.000007
C37	C	-1.077977	0.469047	0.125568
C38	C	-1.213984	0.442623	0.125564
H39	H	-1.252740	0.632430	-0.218508
H40	H	-1.016052	0.678414	-0.218500
H41	H	-0.905065	0.574655	0.000010
H42	H	-1.030766	0.424908	0.218521
H43	H	-1.267454	0.378924	0.218514
C44	C	-1.312206	0.239173	-0.428023
C45	C	-1.331128	0.356472	-0.532693
C46	C	-1.216783	0.425805	-0.616608
C47	C	-1.083514	0.377840	-0.595854
C48	C	-1.064586	0.260535	-0.491180
C49	C	-1.178932	0.191201	-0.407265
H50	H	-1.429787	0.391984	-0.548060
H51	H	-1.230795	0.512642	-0.694095
H52	H	-0.998868	0.429165	-0.657974
H53	H	-0.965927	0.225022	-0.475813
H54	H	-1.164919	0.104364	-0.329778
H55	H	-1.082437	-0.043114	0.000004
H56	H	-1.603269	0.547980	-0.000016
H57	H	-1.585065	0.073746	-0.354171
H58	H	-1.386893	0.193918	-0.645846
