data_functionalizedCrystal
_audit_creation_method	'MofGen! by Chris Wilmer'
_symmetry_space_group_name_H-M	'P1'
_symmetry_Int_Tables_number	1
_symmetry_cell_setting	triclinic
loop_
_symmetry_equiv_pos_as_xyz
  x,y,z
_cell_length_a	12.827893
_cell_length_b	19.121063
_cell_length_c	12.827885
_cell_angle_alpha	92.403975
_cell_angle_beta	89.980538
_cell_angle_gamma	92.468878
loop_
_atom_site_label
_atom_site_type_symbol
_atom_site_fract_x
_atom_site_fract_y
_atom_site_fract_z
Zn1	Zn	1.579837	-0.279579	-0.608539
Zn2	Zn	2.079837	0.220421	-0.108539
Zn3	Zn	1.572238	-0.397046	-0.441232
Zn4	Zn	2.072238	0.102954	0.058768
Zn5	Zn	1.405076	-0.279614	-0.433815
Zn6	Zn	1.905076	0.220386	0.066185
Zn7	Zn	1.397574	-0.396994	-0.615928
Zn8	Zn	1.897574	0.103006	-0.115928
O9	O	1.488681	-0.338308	-0.524878
O10	O	1.988681	0.161692	-0.024878
O11	O	1.725065	-0.295169	-0.586357
O12	O	2.225065	0.204831	-0.086357
O13	O	1.550023	-0.381505	-0.294014
O14	O	2.050023	0.118495	0.205986
O15	O	1.434578	-0.181325	-0.450796
O16	O	1.934578	0.318675	0.049204
O17	O	1.719482	-0.381471	-0.463437
O18	O	2.219482	0.118529	0.036563
O19	O	1.562975	-0.181300	-0.579165
O20	O	2.062975	0.318700	-0.079165
O21	O	1.427210	-0.295227	-0.288565
O22	O	1.927210	0.204773	0.211435
O23	O	1.257845	-0.295177	-0.457961
O24	O	1.757845	0.204823	0.042039
O25	O	1.421793	-0.381382	-0.761182
O26	O	1.921793	0.118618	-0.261182
O27	O	1.252334	-0.381415	-0.591759
O28	O	1.752334	0.118585	-0.091759
O29	O	1.555701	-0.295118	-0.755753
O30	O	2.055701	0.204882	-0.255753
O31	O	1.542748	-0.495323	-0.470602
O32	O	2.042748	0.004677	0.029398
O33	O	1.414424	-0.495285	-0.598951
O34	O	1.914424	0.004715	-0.098951
C35	C	1.217172	-0.338295	-0.524858
C36	C	1.717172	0.161705	-0.024858
C37	C	1.101019	-0.338306	-0.524875
C38	C	1.601019	0.161694	-0.024875
C39	C	1.046530	-0.381046	-0.590989
C40	C	1.546530	0.118954	-0.090989
C41	C	0.926479	-0.381059	-0.591008
C42	C	1.426479	0.118941	-0.091008
C43	C	1.476976	-0.520788	-0.536406
C44	C	1.976976	-0.020788	-0.036406
C45	C	1.472064	-0.598854	-0.541373
C46	C	1.972064	-0.098854	-0.041373
C47	C	1.536620	-0.635526	-0.476937
C48	C	2.036620	-0.135526	0.023063
C49	C	1.532006	-0.708877	-0.481615
C50	C	2.032006	-0.208877	0.018385
C51	C	1.462831	-0.745554	-0.550723
C52	C	1.962831	-0.245554	-0.050723
C53	C	1.398272	-0.708877	-0.615166
C54	C	1.898272	-0.208877	-0.115166
C55	C	1.402892	-0.635528	-0.610493
C56	C	1.902892	-0.135528	-0.110493
C57	C	1.445542	-0.967023	-0.568177
C58	C	1.945542	-0.467023	-0.068177
C59	C	1.440925	-1.040378	-0.572842
C60	C	1.940925	-0.540378	-0.072842
C61	C	1.574661	-1.040373	-0.439292
C62	C	2.074661	-0.540373	0.060708
C63	C	1.579270	-0.967021	-0.434621
C64	C	2.079270	-0.467021	0.065379
C65	C	1.514716	-0.930351	-0.499067
C66	C	2.014716	-0.430351	0.000933
C67	C	1.458111	-0.820531	-0.555503
C68	C	1.958111	-0.320531	-0.055503
C69	C	1.519441	-0.855375	-0.494292
C70	C	2.019441	-0.355375	0.005708
C71	C	1.761251	-0.338322	-0.524900
C72	C	2.261251	0.161678	-0.024900
C73	C	1.877403	-0.338328	-0.524909
C74	C	2.377403	0.161672	-0.024909
C75	C	1.488758	-0.338241	-0.797445
C76	C	1.988758	0.161759	-0.297445
C77	C	1.488790	-0.338212	-0.913596
C78	C	1.988790	0.161788	-0.413596
C79	C	1.500461	-0.155116	-0.513328
C80	C	2.000461	0.344884	-0.013328
C81	C	1.505481	-0.077050	-0.508407
C82	C	2.005481	0.422950	-0.008407
C83	C	1.428039	-0.295511	-0.962684
C84	C	1.928039	0.204489	-0.462684
C85	C	1.428072	-0.295480	-1.082732
C86	C	1.928072	0.204520	-0.582732
C87	C	1.488669	-0.338325	-0.253370
C88	C	1.988669	0.161675	0.246630
C89	C	1.488851	-0.338156	-0.137206
C90	C	1.988851	0.161844	0.362794
H91	H	0.879630	-0.417652	-0.647607
H92	H	1.379630	0.082348	-0.147607
H93	H	0.924245	-0.301737	-0.468300
H94	H	1.424245	0.198263	0.031700
H95	H	1.058791	-0.301721	-0.468290
H96	H	1.558791	0.198279	0.031710
C97	C	1.612717	-0.595187	-0.400909
C98	C	2.112717	-0.095187	0.099091
N99	N	1.670037	-0.564806	-0.343645
N100	N	2.170037	-0.064806	0.156355
C101	C	1.559121	-0.387548	-1.080173
C102	C	2.059121	0.112452	-0.580173
N103	N	1.612047	-0.424751	-1.037208
N104	N	2.112047	0.075249	-0.537208
H105	H	1.584574	-0.738732	-0.429143
H106	H	2.084574	-0.238732	0.070857
H107	H	1.575768	-0.825511	-0.438028
H108	H	2.075768	-0.325511	0.061972
H109	H	1.088758	-0.417626	-0.647580
H110	H	1.588758	0.082374	-0.147580
H111	H	1.635598	-0.937160	-0.378347
H112	H	2.135598	-0.437160	0.121653
C113	C	1.645670	-1.080716	-0.368409
C114	C	2.145670	-0.580716	0.131591
N115	N	1.699158	-1.111104	-0.315019
N116	N	2.199158	-0.611104	0.184981
H117	H	1.384607	-1.070239	-0.629137
H118	H	1.884607	-0.570239	-0.129137
C119	C	1.374583	-0.926695	-0.639124
C120	C	1.874583	-0.426695	-0.139124
N121	N	1.321152	-0.896317	-0.692585
N122	N	1.821152	-0.396317	-0.192585
H123	H	1.341952	-0.738746	-0.671440
H124	H	1.841952	-0.238746	-0.171440
H125	H	1.350325	-0.605670	-0.662965
H126	H	1.850325	-0.105670	-0.162965
H127	H	1.401786	-0.850402	-0.611769
H128	H	1.901786	-0.350402	-0.111769
C129	C	1.357749	-0.246146	-0.899397
C130	C	1.857749	0.253854	-0.399397
N131	N	1.304809	-0.208959	-0.851730
N132	N	1.804809	0.291041	-0.351730
H133	H	1.540824	-0.374748	-0.960446
H134	H	2.040824	0.125252	-0.460446
C135	C	1.357805	-0.246090	-1.139772
C136	C	1.857805	0.253910	-0.639772
N137	N	1.304877	-0.208888	-1.182738
N138	N	1.804877	0.291112	-0.682738
