data_functionalizedCrystal
_audit_creation_method	'MofGen! by Chris Wilmer'
_symmetry_space_group_name_H-M	'P1'
_symmetry_Int_Tables_number	1
_symmetry_cell_setting	triclinic
loop_
_symmetry_equiv_pos_as_xyz
  x,y,z
_cell_length_a	18.050591
_cell_length_b	18.050589
_cell_length_c	16.120297
_cell_angle_alpha	87.124470
_cell_angle_beta	92.873600
_cell_angle_gamma	89.968854
loop_
_atom_site_label
_atom_site_type_symbol
_atom_site_fract_x
_atom_site_fract_y
_atom_site_fract_z
Zn1	Zn	1.113992	0.317045	-0.471516
Zn2	Zn	1.613992	0.817045	0.028484
Zn3	Zn	1.120176	0.434941	-0.332115
Zn4	Zn	1.620176	0.934941	0.167885
Zn5	Zn	0.996099	0.310761	-0.332108
Zn6	Zn	1.496099	0.810761	0.167892
Zn7	Zn	0.989747	0.441188	-0.471468
Zn8	Zn	1.489747	0.941188	0.028532
O9	O	1.055004	0.375984	-0.401802
O10	O	1.555004	0.875984	0.098198
O11	O	1.218736	0.332700	-0.453046
O12	O	1.718736	0.832700	0.046954
O13	O	1.108963	0.413223	-0.215451
O14	O	1.608963	0.913223	0.284549
O15	O	1.011808	0.207671	-0.350617
O16	O	1.511808	0.707671	0.149383
O17	O	1.223279	0.419317	-0.350629
O18	O	1.723279	0.919317	0.149371
O19	O	1.098423	0.212288	-0.453040
O20	O	1.598423	0.712288	0.046960
O21	O	1.017804	0.321989	-0.215446
O22	O	1.517804	0.821989	0.284554
O23	O	0.891333	0.328047	-0.350571
O24	O	1.391333	0.828047	0.149429
O25	O	1.000982	0.429965	-0.588137
O26	O	1.500982	0.929965	-0.088137
O27	O	0.886666	0.423871	-0.452959
O28	O	1.386666	0.923871	0.047041
O29	O	1.092265	0.338758	-0.588172
O30	O	1.592265	0.838758	-0.088172
O31	O	1.102804	0.539693	-0.350583
O32	O	1.602804	1.039693	0.149417
O33	O	1.006979	0.544283	-0.452966
O34	O	1.506979	1.044283	0.047034
C35	C	0.862053	0.375956	-0.401760
C36	C	1.362053	0.875956	0.098240
C37	C	0.779508	0.375963	-0.401762
C38	C	1.279508	0.875963	0.098238
C39	C	0.533192	0.323808	-0.346215
C40	C	1.033192	0.823808	0.153785
C41	C	0.579195	0.309159	-0.422297
C42	C	1.079195	0.809159	0.077703
C43	C	0.482384	0.376004	-0.401830
C44	C	0.982384	0.876004	0.098170
C45	C	0.583465	0.390598	-0.325719
C46	C	1.083465	0.890598	0.174281
C47	C	0.628371	0.375981	-0.401792
C48	C	1.128371	0.875981	0.098208
C49	C	0.527298	0.361321	-0.477952
C50	C	1.027298	0.861321	0.022048
C51	C	0.531566	0.442789	-0.381323
C52	C	1.031566	0.942789	0.118677
C53	C	0.577543	0.428168	-0.457457
C54	C	1.077543	0.928168	0.042543
C55	C	0.398285	0.376014	-0.401850
C56	C	0.898285	0.876014	0.098150
C57	C	0.712468	0.375971	-0.401780
C58	C	1.212468	0.875971	0.098220
C59	C	1.054893	0.568935	-0.401788
C60	C	1.554893	1.068935	0.098212
C61	C	1.054912	0.651482	-0.401811
C62	C	1.554912	1.151482	0.098189
C63	C	1.002829	0.853455	-0.457468
C64	C	1.502829	1.353455	0.042532
C65	C	0.988157	0.899456	-0.381393
C66	C	1.488157	1.399456	0.118607
C67	C	1.054967	0.802613	-0.401822
C68	C	1.554967	1.302613	0.098178
C69	C	1.069659	0.903694	-0.477907
C70	C	1.569659	1.403694	0.022093
C71	C	1.055019	0.948599	-0.401840
C72	C	1.555019	1.448599	0.098160
C73	C	1.040262	0.847525	-0.325707
C74	C	1.540262	1.347525	0.174293
C75	C	1.121793	0.851761	-0.422272
C76	C	1.621793	1.351761	0.077728
C77	C	1.107149	0.897737	-0.346145
C78	C	1.607149	1.397737	0.153855
C79	C	1.054936	0.718514	-0.401813
C80	C	1.554936	1.218514	0.098187
C81	C	1.055051	1.032695	-0.401840
C82	C	1.555051	1.532695	0.098160
C83	C	1.248707	0.376013	-0.401844
C84	C	1.748707	0.876013	0.098156
C85	C	1.331252	0.376025	-0.401862
C86	C	1.831252	0.876025	0.098138
C87	C	1.045225	0.385759	-0.619250
C88	C	1.545225	0.885759	-0.119250
C89	C	1.041058	0.389925	-0.711913
C90	C	1.541058	0.889925	-0.211913
C91	C	1.055106	1.182280	-0.401834
C92	C	1.555106	1.682280	0.098166
C93	C	1.055077	1.099735	-0.401850
C94	C	1.555077	1.599735	0.098150
C95	C	1.033423	0.397514	-0.881571
C96	C	1.533423	0.897514	-0.381571
C97	C	1.076731	0.354231	-0.922884
C98	C	1.576731	0.854231	-0.422884
C99	C	1.072483	0.358454	-1.017287
C100	C	1.572483	0.858454	-0.517287
C101	C	1.037670	0.393292	-0.787159
C102	C	1.537670	0.893292	-0.287159
C103	C	1.064787	0.366193	-0.185199
C104	C	1.564787	0.866193	0.314801
C105	C	1.069098	0.361818	-0.092536
C106	C	1.569098	0.861818	0.407464
H107	H	0.596960	0.472302	-0.504527
H108	H	1.096960	0.972302	-0.004527
F109	F	0.945133	0.827926	-0.518889
F110	F	1.445133	1.327926	-0.018889
F111	F	1.023962	0.815544	-0.241590
F112	F	1.523962	1.315544	0.258410
H113	H	0.502828	0.348902	-0.542321
H114	H	1.002828	0.848902	-0.042321
H115	H	0.993159	0.437737	-0.917098
H116	H	1.493159	0.937737	-0.417098
H117	H	1.151265	0.917125	-0.299040
H118	H	1.651265	1.417125	0.200960
F119	F	0.914321	0.926877	-0.358786
F120	F	1.414321	1.426877	0.141214
F121	F	1.129377	0.301665	-0.876447
F122	F	1.629377	0.801665	-0.376447
F123	F	1.195607	0.824319	-0.444907
F124	F	1.695607	1.324319	0.055093
F125	F	0.507625	0.266090	-0.284839
F126	F	1.007625	0.766090	0.215161
H127	H	0.608025	0.402951	-0.261368
H128	H	1.108025	0.902951	0.238632
F129	F	0.504159	0.516601	-0.358636
F130	F	1.004159	1.016601	0.141364
F131	F	0.606572	0.235324	-0.444960
F132	F	1.106572	0.735324	0.055040
H133	H	1.082065	0.928253	-0.542243
H134	H	1.582065	1.428253	-0.042243
