data_functionalizedCrystal
_audit_creation_method	'MofGen! by Chris Wilmer'
_symmetry_space_group_name_H-M	'P1'
_symmetry_Int_Tables_number	1
_symmetry_cell_setting	triclinic
loop_
_symmetry_equiv_pos_as_xyz
  x,y,z
_cell_length_a	31.640172
_cell_length_b	20.875641
_cell_length_c	20.875641
_cell_angle_alpha	60.089808
_cell_angle_beta	89.996382
_cell_angle_gamma	62.433422
loop_
_atom_site_label
_atom_site_type_symbol
_atom_site_fract_x
_atom_site_fract_y
_atom_site_fract_z
Zr1	Zr	0.426524	0.694279	-0.105793
O2	O	0.364584	0.820529	-0.209054
O3	O	0.443195	0.563021	-0.070863
O4	O	0.449419	0.687043	-0.204335
O5	O	0.356085	0.703960	0.025978
O6	O	0.518975	0.687032	-0.204339
O7	O	0.358359	0.696507	-0.075582
O8	O	0.507841	0.465179	0.034419
O9	O	0.367220	0.925814	-0.212780
O10	O	0.505013	0.618856	-0.059925
O11	O	0.451408	0.624427	0.015870
O12	O	0.458736	0.770447	-0.141277
O13	O	0.405130	0.776018	-0.065481
Zr14	Zr	0.533832	0.706149	0.056176
Zr15	Zr	0.537458	0.694261	-0.105799
Zr16	Zr	0.422898	0.706167	0.056182
Zr17	Zr	0.430729	0.862196	-0.111736
Zr18	Zr	0.529627	0.538232	0.062119
O19	O	0.517161	0.837407	0.021246
O20	O	0.522317	0.820504	-0.209062
O21	O	0.359427	0.837432	0.021254
O22	O	0.595772	0.579899	0.159437
O23	O	0.600928	0.562996	-0.070871
O24	O	0.438038	0.579924	0.159445
O25	O	0.604270	0.696467	-0.075595
O26	O	0.510937	0.713385	0.154718
O27	O	0.441381	0.713396	0.154722
O28	O	0.601997	0.703921	0.025965
O29	O	0.455398	0.925800	-0.212785
O30	O	0.504958	0.474628	0.163168
O31	O	0.593136	0.474614	0.163163
O32	O	0.596018	0.465165	0.034414
O33	O	0.364337	0.935263	-0.084031
O34	O	0.452515	0.935249	-0.084036
O35	O	0.501620	0.629981	0.091660
O36	O	0.555225	0.624410	0.015864
O37	O	0.508948	0.776001	-0.065487
O38	O	0.455342	0.781572	0.010308
C39	C	0.474919	0.490175	-0.017375
C40	C	0.473134	0.418890	-0.014852
C41	C	0.341417	0.700236	-0.024801
C42	C	0.294322	0.700244	-0.024799
C43	C	0.500275	0.382492	-0.053231
C44	C	0.498599	0.315508	-0.050853
C45	C	0.469779	0.284927	-0.010101
C46	C	0.442636	0.321328	0.028283
C47	C	0.444315	0.388307	0.025910
C48	C	0.461759	0.084917	0.001245
C49	C	0.460080	0.017936	0.003614
C50	C	0.516045	0.012119	-0.075522
C51	C	0.517719	0.079103	-0.077896
C52	C	0.490579	0.115495	-0.039508
N53	N	0.468063	0.216461	-0.007671
N54	N	0.492297	0.183956	-0.041934
C55	C	0.003568	0.696091	-0.080756
C56	C	-0.173418	0.696080	-0.080761
O57	O	-0.195227	0.692549	-0.128325
N58	N	-0.196801	0.700188	-0.024812
C59	C	-0.175934	0.704293	0.031145
O60	O	-0.199881	0.707778	0.078738
C61	C	0.001054	0.704299	0.031153
C62	C	0.024432	0.700199	-0.024805
C63	C	0.026947	0.691991	-0.136709
C64	C	0.071190	0.691999	-0.136709
C65	C	0.092054	0.696107	-0.080758
C66	C	0.068675	0.700207	-0.024805
C67	C	0.021923	0.708398	0.087113
C68	C	0.066174	0.708397	0.087111
C69	C	0.089552	0.704297	0.031154
C70	C	0.133782	0.704323	0.031146
N71	N	0.157165	0.700215	-0.024803
C72	C	0.136301	0.696107	-0.080755
C73	C	-0.268855	0.704292	0.031136
C74	C	-0.313102	0.704292	0.031133
C75	C	-0.310583	0.696077	-0.080772
C76	C	-0.266337	0.696083	-0.080773
C77	C	-0.245472	0.700184	-0.024813
C78	C	0.229213	0.696124	-0.080753
C79	C	0.273458	0.696136	-0.080750
C80	C	0.270937	0.704346	0.031158
C81	C	0.226694	0.704339	0.031153
C82	C	0.205834	0.700225	-0.024805
O83	O	0.155621	0.707842	0.078689
O84	O	0.160261	0.692603	-0.128330
C85	C	-0.040674	0.696084	-0.080756
C86	C	-0.064053	0.700184	-0.024803
C87	C	-0.043189	0.704292	0.031148
C88	C	-0.108300	0.700184	-0.024806
C89	C	-0.129164	0.696076	-0.080758
C90	C	-0.105781	0.691968	-0.136707
C91	C	-0.061538	0.691976	-0.136707
C92	C	-0.066572	0.708400	0.087097
C93	C	-0.110815	0.708393	0.087093
C94	C	-0.131679	0.704285	0.031141
C95	C	0.618939	0.700192	-0.024816
C96	C	0.666034	0.700184	-0.024818
C97	C	0.484714	0.685344	-0.227415
C98	C	0.486253	0.680297	-0.296178
C99	C	0.485437	0.910252	-0.032242
C100	C	0.487222	0.981538	-0.034765
C101	C	0.462821	0.757053	-0.370947
C102	C	0.464274	0.752306	-0.435554
C103	C	0.489157	0.670802	-0.425390
C104	C	0.512592	0.594040	-0.350613
C105	C	0.511142	0.598788	-0.286008
C106	C	0.496087	0.648117	-0.614057
C107	C	0.497535	0.643375	-0.678670
C108	C	0.449218	0.801641	-0.763607
C109	C	0.447767	0.806382	-0.698996
C110	C	0.471204	0.729620	-0.624225
N111	N	0.490641	0.665948	-0.491428
N112	N	0.469723	0.734475	-0.558189
C113	C	0.475642	0.715084	0.177798
C114	C	0.474102	0.720131	0.246561
C115	C	0.613680	0.490153	-0.017382
C116	C	0.658989	0.418860	-0.014862
C117	C	0.470383	0.505045	0.185231
C118	C	0.467058	0.438807	0.256517
C119	C	0.609144	0.505023	0.185224
C120	C	0.652914	0.438777	0.256507
C121	C	0.351212	0.895405	-0.234841
C122	C	0.307442	0.961651	-0.306124
C123	C	0.346676	0.910275	-0.032235
C124	C	0.301366	0.981567	-0.034755
C125	C	0.489973	0.895382	-0.234848
C126	C	0.493298	0.961621	-0.306134
C127	C	0.654057	0.382481	-0.053247
C128	C	0.696626	0.315502	-0.050894
C129	C	0.744127	0.284900	-0.010152
C130	C	0.749059	0.321286	0.028234
C131	C	0.706490	0.388268	0.025876
C132	C	0.491707	0.410601	0.329562
C133	C	0.488581	0.348372	0.396548
C134	C	0.460810	0.314347	0.390488
C135	C	0.436158	0.342560	0.317435
C136	C	0.439281	0.404791	0.250451
C137	C	0.701455	0.404759	0.250418
C138	C	0.742586	0.342523	0.317390
C139	C	0.735175	0.314301	0.390450
C140	C	0.686629	0.348326	0.396537
C141	C	0.645499	0.410565	0.329566
C142	C	0.258901	0.995677	-0.300035
C143	C	0.217770	1.057934	-0.367008
C144	C	0.225182	1.086159	-0.440068
C145	C	0.273728	1.052130	-0.446155
C146	C	0.314857	0.989879	-0.379184
C147	C	0.306299	1.017954	0.003623
C148	C	0.263731	1.084950	0.001252
C149	C	0.216230	1.115554	-0.039493
C150	C	0.211298	1.079165	-0.077876
C151	C	0.253866	1.012174	-0.075509
C152	C	0.521073	0.995627	-0.300049
C153	C	0.524207	1.057856	-0.367023
C154	C	0.499561	1.086084	-0.440081
C155	C	0.471784	1.052071	-0.446165
C156	C	0.468654	0.989838	-0.379191
H157	H	0.523742	0.407390	-0.086421
H158	H	0.191687	1.136848	-0.494594
H159	H	0.692601	0.285884	-0.082152
H160	H	0.538142	-0.017518	-0.106774
H161	H	0.178246	1.085629	-0.362036
H162	H	0.778785	0.230358	-0.008237
H163	H	0.615384	0.407396	-0.086433
H164	H	0.279756	1.075120	-0.505649
H165	H	0.515172	0.585612	-0.553183
H166	H	-0.122777	0.688628	-0.182267
H167	H	0.436609	-0.006959	0.036800
H168	H	-0.129849	0.711738	0.132659
H169	H	0.787740	0.296360	0.061405
H170	H	0.530222	0.536285	-0.225127
H171	H	0.707499	0.427728	0.190935
H172	H	0.541187	0.104000	-0.111080
H173	H	0.354381	0.962175	-0.384150
H174	H	0.344972	0.993041	0.036807
H175	H	0.514322	0.438298	0.334511
H176	H	-0.049588	0.711744	0.132661
H177	H	0.541144	0.972654	-0.240568
H178	H	0.768670	0.263621	0.444976
H179	H	0.680602	0.325338	0.456031
H180	H	0.442556	0.823423	-0.379232
H181	H	0.520701	0.285872	-0.082104
H182	H	0.710513	0.417880	0.057139
H183	H	-0.327579	0.692734	-0.126332
H184	H	0.508658	0.325409	0.456024
H185	H	0.267756	1.114567	0.032511
H186	H	0.458271	0.263675	0.445038
H187	H	0.517796	0.577001	-0.670385
H188	H	0.413547	0.314847	0.312513
H189	H	0.172617	1.104093	-0.111049
H190	H	0.419210	0.427748	0.190977
H191	H	0.439661	0.114537	0.032506
H192	H	0.181572	1.170102	-0.041414
H193	H	0.249843	0.982550	-0.106758
H194	H	0.009965	0.688643	-0.182271
H195	H	0.532855	0.527678	-0.342342
H196	H	0.419172	0.296420	0.061470
H197	H	0.546825	1.085543	-0.362055
H198	H	0.782111	0.314826	0.312419
H199	H	0.451719	1.075064	-0.505658
H200	H	0.502114	1.136758	-0.494609
H201	H	0.605976	0.438255	0.334535
H202	H	0.252857	0.972699	-0.240552
H203	H	0.446034	0.962157	-0.384157
H204	H	0.422212	0.417944	0.057160
H205	H	0.292491	0.692800	-0.126320
H206	H	0.207655	0.707690	0.076712
H207	H	0.212235	0.692772	-0.126318
H208	H	0.090223	0.688657	-0.182273
H209	H	-0.332138	0.707644	0.076692
H210	H	-0.251870	0.707632	0.076706
H211	H	0.002895	0.711736	0.132679
H212	H	-0.247305	0.692744	-0.126337
H213	H	0.287930	0.707695	0.076711
H214	H	0.083161	0.711734	0.132682
H215	H	-0.042506	0.688637	-0.182273
H216	H	0.445194	0.814809	-0.496433
H217	H	0.427507	0.872751	-0.707281
H218	H	0.430137	0.864136	-0.824490
