data_functionalizedCrystal
_audit_creation_method	'MofGen! by Chris Wilmer'
_symmetry_space_group_name_H-M	'P1'
_symmetry_Int_Tables_number	1
_symmetry_cell_setting	triclinic
loop_
_symmetry_equiv_pos_as_xyz
  x,y,z
_cell_length_a	16.974885
_cell_length_b	16.992695
_cell_length_c	16.053919
_cell_angle_alpha	92.708997
_cell_angle_beta	89.241669
_cell_angle_gamma	87.023153
loop_
_atom_site_label
_atom_site_type_symbol
_atom_site_fract_x
_atom_site_fract_y
_atom_site_fract_z
O1	O	1.055365	0.099824	-0.001812
O2	O	0.826668	0.113211	0.013628
O3	O	0.940099	-0.007622	0.005963
O4	O	0.941933	0.220657	0.005852
O5	O	0.933789	-0.013469	-0.132468
O6	O	0.820358	0.107364	-0.124804
O7	O	1.049055	0.093978	-0.140243
Zn8	Zn	0.933705	0.099742	-0.154502
Zn9	Zn	0.942018	0.107446	0.027887
O10	O	0.935624	0.214810	-0.132579
C11	C	0.794115	0.109888	-0.053603
C12	C	0.706517	0.108688	-0.047690
C13	C	0.213806	0.102251	-0.006244
C14	C	0.296113	0.103378	-0.011812
C15	C	0.333819	0.100761	-0.090055
C16	C	0.289214	0.097008	-0.162736
C17	C	0.206908	0.095875	-0.157167
C18	C	0.579606	0.103802	-0.114801
C19	C	0.661917	0.104937	-0.120365
C20	C	0.668811	0.111306	0.030560
C21	C	0.586504	0.110178	0.036122
C22	C	0.541906	0.106421	-0.036559
N23	N	0.417950	0.101915	-0.095749
N24	N	0.457777	0.105261	-0.030865
C25	C	0.934585	-0.039748	-0.063093
C26	C	0.927548	-0.126765	-0.062618
C27	C	0.995454	-0.177274	-0.067203
C28	C	0.988836	-0.259034	-0.066749
C29	C	0.914312	-0.290284	-0.061715
C30	C	0.846401	-0.239768	-0.057126
C31	C	0.853020	-0.158009	-0.057575
C32	C	0.886883	-0.533772	-0.059851
C33	C	0.880270	-0.615537	-0.059405
C34	C	1.022705	-0.634798	-0.069026
C35	C	1.029317	-0.553037	-0.069479
C36	C	0.961406	-0.502529	-0.064887
N37	N	0.907547	-0.373855	-0.061252
N38	N	0.968173	-0.418958	-0.065343
C39	C	1.081608	0.097301	-0.073011
C40	C	1.169206	0.098501	-0.078919
C41	C	0.941137	0.246937	-0.063521
C42	C	0.948175	0.333953	-0.063991
N43	N	0.928037	0.094485	-0.278978
C44	C	0.898876	0.067169	-0.800634
C45	C	0.902838	0.070877	-0.713496
C46	C	0.955611	0.120119	-0.673363
C47	C	1.004432	0.165650	-0.720373
C48	C	1.000474	0.161936	-0.807510
C49	C	0.972899	0.136302	-0.413125
C50	C	0.976852	0.140013	-0.325982
C51	C	0.875258	0.045239	-0.319111
C52	C	0.871302	0.041534	-0.406250
C53	C	0.920125	0.087061	-0.453252
N54	N	0.959660	0.123913	-0.584294
N55	N	0.916080	0.083263	-0.542320
N56	N	0.947692	0.112697	0.152362
H57	H	0.319920	0.094871	-0.226443
H58	H	1.056139	-0.151838	-0.071308
H59	H	0.692614	0.102811	-0.184083
O60	O	0.536194	0.100256	-0.185337
C61	C	0.434630	0.163188	-0.266346
C62	C	0.483734	0.167298	-0.186421
H63	H	0.392217	0.217393	-0.267257
H64	H	0.399637	0.107676	-0.267772
H65	H	0.475731	0.161474	-0.323215
H66	H	0.442690	0.169043	-0.129508
H67	H	0.518736	0.222803	-0.185068
H68	H	0.835510	0.008173	-0.280833
O69	O	1.028079	0.187954	-0.287082
C70	C	1.068343	0.320925	-0.263044
C71	C	1.010297	0.266723	-0.307165
H72	H	1.053977	0.384623	-0.279250
H73	H	1.131201	0.302564	-0.284464
H74	H	1.062790	0.315715	-0.192697
H75	H	1.015779	0.271907	-0.377518
H76	H	0.947462	0.285100	-0.285677
H77	H	0.183112	0.104389	0.057470
O78	O	1.054879	-0.307989	-0.071251
C79	C	1.196855	-0.318463	-0.080804
C80	C	1.122123	-0.262934	-0.075728
H81	H	1.251241	-0.282058	-0.084407
H82	H	1.194726	-0.359660	-0.138784
H83	H	1.199920	-0.354787	-0.022912
H84	H	1.119010	-0.226559	-0.133578
H85	H	1.124282	-0.221790	-0.017712
O86	O	0.820126	-0.006417	-0.445206
C87	C	0.779807	-0.139378	-0.469166
C88	C	0.837828	-0.085170	-0.425013
H89	H	0.794088	-0.203059	-0.452842
H90	H	0.785370	-0.134274	-0.539528
H91	H	0.716967	-0.120917	-0.447769
H92	H	0.900693	-0.103596	-0.446342
H93	H	0.832196	-0.090281	-0.354658
H94	H	0.332423	0.106428	0.047368
H95	H	0.785722	-0.265217	-0.053022
O96	O	0.163697	0.092266	-0.227846
C97	C	0.165544	0.086018	-0.378130
C98	C	0.214572	0.090127	-0.298151
H99	H	0.206656	0.084270	-0.434991
H100	H	0.123092	0.140191	-0.379096
H101	H	0.130582	0.030487	-0.379506
H102	H	0.249581	0.145624	-0.296722
H103	H	0.256975	0.035915	-0.297216
H104	H	1.012655	0.173374	-0.451385
H105	H	0.855899	0.027075	-0.833304
O106	O	0.807922	-0.645985	-0.054403
C107	C	0.721056	-0.724056	0.023427
C108	C	0.803017	-0.689635	0.017857
H109	H	0.717058	-0.759341	0.081854
H110	H	0.711744	-0.764350	-0.034018
H111	H	0.673664	-0.673904	0.026592
H112	H	0.850460	-0.739735	0.014718
H113	H	0.812262	-0.649321	0.075301
H114	H	0.555810	0.112309	0.099836
H115	H	1.090002	-0.527601	-0.073579
H116	H	0.797723	-0.116884	-0.053841
H117	H	1.047405	0.205740	-0.687690
H118	H	0.705132	0.114364	0.089732
H119	H	1.077994	-0.675931	-0.072764
O120	O	0.820835	-0.484829	-0.055433
C121	C	0.678861	-0.474359	-0.045809
C122	C	0.753599	-0.529882	-0.050824
H123	H	0.624483	-0.510761	-0.042064
H124	H	0.675703	-0.438067	-0.103723
H125	H	0.681077	-0.433133	0.012138
H126	H	0.751435	-0.571156	-0.108735
H127	H	0.756730	-0.566119	0.007129
H128	H	0.863089	0.033800	-0.675229
O129	O	1.047924	0.206242	-0.853045
C130	C	1.149145	0.300597	-0.850671
C131	C	1.095435	0.250480	-0.799003
H132	H	1.187583	0.336364	-0.807001
H133	H	1.111292	0.342335	-0.889037
H134	H	1.188365	0.260144	-0.894240
H135	H	1.056206	0.290872	-0.755389
H136	H	1.133335	0.208735	-0.760693
