data_functionalizedCrystal
_audit_creation_method	'MofGen! by Chris Wilmer'
_symmetry_space_group_name_H-M	'P1'
_symmetry_Int_Tables_number	1
_symmetry_cell_setting	triclinic
loop_
_symmetry_equiv_pos_as_xyz
  x,y,z
_cell_length_a	11.792254
_cell_length_b	11.792241
_cell_length_c	14.048226
_cell_angle_alpha	90.001436
_cell_angle_beta	89.993605
_cell_angle_gamma	95.803993
loop_
_atom_site_label
_atom_site_type_symbol
_atom_site_fract_x
_atom_site_fract_y
_atom_site_fract_z
O1	O	1.506903	-0.155639	-0.079149
O2	O	2.006903	0.344361	0.420851
O3	O	1.176564	-0.171657	-0.079149
O4	O	1.676564	0.328343	0.420851
O5	O	1.349750	0.001522	-0.079155
O6	O	1.849750	0.501522	0.420845
O7	O	1.333717	-0.328818	-0.079143
O8	O	1.833717	0.171182	0.420857
O9	O	1.349729	0.001533	0.079167
O10	O	1.849729	0.501533	0.579167
O11	O	1.176543	-0.171646	0.079172
O12	O	1.676543	0.328354	0.579172
O13	O	1.506882	-0.155628	0.079173
O14	O	2.006882	0.344372	0.579173
Zn15	Zn	1.341709	-0.163636	0.104309
Zn16	Zn	1.841709	0.336364	0.604309
Zn17	Zn	1.341737	-0.163649	-0.104286
Zn18	Zn	1.841737	0.336351	0.395714
O19	O	1.333696	-0.328807	0.079178
O20	O	1.833696	0.171193	0.579178
C21	C	1.134263	-0.170642	0.000011
C22	C	1.634263	0.329358	0.500011
C23	C	1.008250	-0.167622	0.000010
C24	C	1.508250	0.332378	0.500010
C25	C	0.905913	-0.165168	0.000006
C26	C	1.405913	0.334832	0.500006
C27	C	0.777527	-0.162100	0.000005
C28	C	1.277527	0.337900	0.500005
C29	C	1.334714	-0.371104	0.000019
C30	C	1.834714	0.128896	0.500019
C31	C	1.337728	-0.497118	0.000023
C32	C	1.837728	0.002882	0.500023
C33	C	1.343271	-0.727830	-0.000001
C34	C	1.843271	-0.227830	0.499999
C35	C	1.340191	-0.599445	0.000012
C36	C	1.840191	-0.099445	0.500012
C37	C	1.549183	-0.156643	0.000010
C38	C	2.049183	0.343357	0.500010
C39	C	1.675196	-0.159663	0.000005
C40	C	2.175196	0.340337	0.500005
C41	C	1.348732	0.043819	0.000003
C42	C	1.848732	0.543819	0.500003
C43	C	1.345718	0.169832	-0.000008
C44	C	1.845718	0.669832	0.499992
N45	N	1.341699	-0.163626	0.246670
N46	N	1.841699	0.336374	0.746670
N47	N	1.341756	-0.163650	-0.246647
N48	N	1.841756	0.336350	0.253353
C49	C	1.418410	-0.086974	0.296486
C50	C	1.918410	0.413026	0.796486
C51	C	1.418417	-0.086973	0.396143
C52	C	1.918417	0.413027	0.896143
C53	C	1.341719	-0.163631	0.445983
C54	C	1.841719	0.336369	0.945983
C55	C	1.264999	-0.240286	0.396161
C56	C	1.764999	0.259714	0.896161
C57	C	1.264987	-0.240280	0.296505
C58	C	1.764987	0.259720	0.796505
C59	C	1.265032	-0.240295	0.603875
C60	C	1.765032	0.259705	1.103875
C61	C	1.265045	-0.240302	0.703538
C62	C	1.765045	0.259698	1.203538
C63	C	1.418462	-0.086988	0.703513
C64	C	1.918462	0.413012	1.203513
C65	C	1.418450	-0.086982	0.603858
C66	C	1.918450	0.413018	1.103858
C67	C	1.341732	-0.163639	0.554042
C68	C	1.841732	0.336361	1.054042
H69	H	1.480881	-0.024557	0.436703
H70	H	1.980881	0.475443	0.936703
C71	C	1.180610	-0.324597	0.241703
C72	C	1.680610	0.175403	0.741703
H73	H	1.191579	-0.313608	0.175214
H74	H	1.691579	0.186392	0.675214
H75	H	1.193395	-0.400435	0.258026
H76	H	1.693395	0.099565	0.758026
H77	H	1.104787	-0.311747	0.258051
H78	H	1.604787	0.188253	0.758051
H79	H	1.480929	-0.024571	0.744079
H80	H	1.980929	0.475429	1.244079
C81	C	1.180596	-0.324576	0.450978
C82	C	1.680596	0.175424	0.950978
H83	H	1.134890	-0.370209	0.407033
H84	H	1.634890	0.129791	0.907033
H85	H	1.221680	-0.372119	0.489858
H86	H	1.721680	0.127881	0.989858
H87	H	1.133117	-0.283386	0.489849
H88	H	1.633117	0.216614	0.989849
C89	C	1.502778	-0.002648	0.241670
C90	C	2.002778	0.497352	0.741670
H91	H	1.548457	0.043010	0.285616
H92	H	2.048457	0.543010	0.785616
H93	H	1.550269	-0.043792	0.202781
H94	H	2.050269	0.456208	0.702781
H95	H	1.461649	0.044884	0.202808
H96	H	1.961649	0.544884	0.702808
C97	C	1.502816	-0.002660	0.549035
C98	C	2.002816	0.497340	1.049035
H99	H	1.548501	0.043001	0.592974
H100	H	2.048501	0.543001	1.092974
H101	H	1.550301	-0.043809	0.510145
H102	H	2.050301	0.456191	1.010145
H103	H	1.461684	0.044869	0.510173
H104	H	1.961684	0.544869	1.010173
C105	C	1.180606	-0.324550	0.758361
C106	C	1.680606	0.175450	1.258361
H107	H	1.134883	-0.370173	0.714421
H108	H	1.634883	0.129827	1.214421
H109	H	1.221655	-0.372108	0.797256
H110	H	1.721655	0.127892	1.297256
H111	H	1.133150	-0.283318	0.797217
H112	H	1.633150	0.216682	1.297217
H113	H	1.202556	-0.302713	0.563318
H114	H	1.702556	0.197287	1.063318
