data_functionalizedCrystal
_audit_creation_method	'MofGen! by Chris Wilmer'
_symmetry_space_group_name_H-M	'P1'
_symmetry_Int_Tables_number	1
_symmetry_cell_setting	triclinic
loop_
_symmetry_equiv_pos_as_xyz
  x,y,z
_cell_length_a	14.044191
_cell_length_b	23.532357
_cell_length_c	13.101039
_cell_angle_alpha	93.334957
_cell_angle_beta	86.337551
_cell_angle_gamma	88.010034
loop_
_atom_site_label
_atom_site_type_symbol
_atom_site_fract_x
_atom_site_fract_y
_atom_site_fract_z
O1	O	1.261616	0.134378	-0.085188
O2	O	0.985695	0.129421	-0.085200
O3	O	1.131999	0.049419	-0.085173
O4	O	1.115312	0.214380	-0.085215
O5	O	1.121502	0.055170	0.085255
O6	O	0.975198	0.135172	0.085228
O7	O	1.251119	0.140129	0.085240
Zn8	Zn	1.111492	0.138563	0.112293
Zn9	Zn	1.125322	0.130987	-0.112253
O10	O	1.104815	0.220131	0.085212
C11	C	0.945153	0.130128	0.000013
C12	C	0.839990	0.123661	0.000009
C13	C	0.589373	0.157706	0.000010
C14	C	0.647447	0.111846	0.000020
C15	C	0.754588	0.118421	0.000014
C16	C	0.482222	0.151132	0.000017
C17	C	1.126333	0.031055	0.000045
C18	C	1.125077	-0.032231	0.000054
C19	C	1.122923	-0.427806	-0.092902
C20	C	1.121730	-0.487270	-0.092908
O21	O	1.125947	-0.520688	-0.171916
N22	N	1.115417	-0.513879	-0.000009
C23	C	1.110286	-0.481020	0.092902
O24	O	1.104805	-0.509113	0.171919
C25	C	1.111472	-0.421556	0.092907
C26	C	1.117795	-0.394951	0.000002
C27	C	1.129245	-0.401200	-0.185799
C28	C	1.130440	-0.341740	-0.185793
C29	C	1.125312	-0.308885	-0.092889
C30	C	1.118990	-0.335491	0.000008
C31	C	1.106334	-0.388698	0.185817
C32	C	1.107520	-0.329231	0.185814
C33	C	1.113844	-0.302626	0.092909
C34	C	1.115057	-0.243176	0.092918
N35	N	1.121370	-0.216567	0.000019
C36	C	1.126498	-0.249422	-0.092884
C37	C	1.107794	-0.605897	0.092885
C38	C	1.106615	-0.665360	0.092881
C39	C	1.118057	-0.671606	-0.092929
C40	C	1.119243	-0.612142	-0.092924
C41	C	1.114107	-0.579288	-0.000014
C42	C	1.129007	-0.124551	-0.092864
C43	C	1.130205	-0.065086	-0.092850
C44	C	1.118757	-0.058844	0.092960
C45	C	1.117564	-0.118305	0.092946
C46	C	1.122686	-0.151157	0.000026
O47	O	1.110839	-0.209722	0.171886
O48	O	1.131965	-0.221321	-0.171888
C49	C	1.291661	0.139422	0.000025
C50	C	1.396824	0.145889	0.000022
C51	C	1.110481	0.238495	-0.000007
C52	C	1.111737	0.301781	-0.000023
N53	N	1.102060	0.143734	0.265540
N54	N	1.134762	0.125812	-0.265500
C55	C	1.089227	0.150774	0.474580
C56	C	1.147592	0.118773	0.525466
C57	C	1.140451	0.122691	0.641784
C58	C	1.096366	0.146858	0.358252
H59	H	1.135357	-0.043427	-0.168507
H60	H	1.202922	0.088435	0.481675
H61	H	0.620118	0.201903	-0.000004
C62	C	1.015509	0.191317	0.532828
C63	C	1.032050	0.247158	0.506788
C64	C	0.964155	0.284521	0.560427
H65	H	1.020385	0.188684	0.604395
H66	H	0.953350	0.181420	0.515294
H67	H	1.094193	0.257052	0.524329
H68	H	1.027165	0.249809	0.435230
H69	H	0.901995	0.274624	0.542893
H70	H	0.969037	0.281883	0.631991
H71	H	0.975363	0.322412	0.542760
H72	H	0.616705	0.067643	-0.000040
H73	H	1.101480	-0.687017	0.168534
H74	H	1.133173	-0.151293	-0.168529
C75	C	1.137248	-0.312964	-0.286771
C76	C	1.141454	-0.354473	-0.368122
C77	C	1.147709	-0.327990	-0.461162
H78	H	1.193198	-0.291437	-0.290787
H79	H	1.082673	-0.288375	-0.290691
H80	H	1.196024	-0.379052	-0.364203
H81	H	1.085511	-0.376003	-0.364139
H82	H	1.093134	-0.303401	-0.465082
H83	H	1.203659	-0.306463	-0.465168
H84	H	1.150555	-0.356149	-0.516370
H85	H	1.133417	-0.427945	-0.261457
C86	C	1.101751	-0.293524	0.286657
C87	C	1.020568	-0.256944	0.292088
C88	C	1.015216	-0.224048	0.384973
H89	H	1.157162	-0.271684	0.290629
H90	H	1.097761	-0.317866	0.342015
H91	H	1.024565	-0.232605	0.236747
H92	H	0.965142	-0.278769	0.288134
H93	H	1.011226	-0.248391	0.440330
H94	H	1.070631	-0.202212	0.388937
H95	H	0.960129	-0.199229	0.388674
C96	C	1.125926	-0.583187	-0.193724
C97	C	1.045420	-0.546963	-0.199137
C98	C	1.051536	-0.520280	-0.291980
H99	H	1.128761	-0.611216	-0.249128
H100	H	1.181847	-0.561618	-0.197620
H101	H	0.989513	-0.568530	-0.195252
H102	H	1.042569	-0.518923	-0.143756
H103	H	1.107458	-0.498712	-0.295875
H104	H	1.054373	-0.548314	-0.347376
H105	H	0.996919	-0.495695	-0.295661
C106	C	1.123417	-0.707306	-0.193770
C107	C	1.041535	-0.739345	-0.199204
C108	C	1.046434	-0.772234	-0.292083
H109	H	1.178385	-0.732221	-0.197730
H110	H	1.127299	-0.682965	-0.249132
H111	H	1.037663	-0.763684	-0.143857
H112	H	0.986555	-0.714445	-0.195263
H113	H	1.050316	-0.747892	-0.347445
H114	H	1.101405	-0.797145	-0.296034
H115	H	0.990875	-0.793972	-0.295787
C116	C	1.102039	-0.570194	0.193735
C117	C	1.020854	-0.533615	0.199186
C118	C	1.015512	-0.500726	0.292077
H119	H	1.157450	-0.548354	0.197704
H120	H	1.098057	-0.594541	0.249086
H121	H	1.024843	-0.509271	0.143850
H122	H	0.965429	-0.555440	0.195235
H123	H	1.011531	-0.525072	0.347428
H124	H	1.070927	-0.478889	0.296038
H125	H	0.960425	-0.475907	0.295792
H126	H	1.101186	-0.410350	0.261470
H127	H	1.112424	-0.139968	0.168597
H128	H	1.114587	-0.032084	0.168600
