data_functionalizedCrystal
_audit_creation_method	'MofGen! by Chris Wilmer'
_symmetry_space_group_name_H-M	'P1'
_symmetry_Int_Tables_number	1
_symmetry_cell_setting	triclinic
loop_
_symmetry_equiv_pos_as_xyz
  x,y,z
_cell_length_a	9.065218
_cell_length_b	8.140239
_cell_length_c	9.065218
_cell_angle_alpha	89.998314
_cell_angle_beta	94.984115
_cell_angle_gamma	90.002802
loop_
_atom_site_label
_atom_site_type_symbol
_atom_site_fract_x
_atom_site_fract_y
_atom_site_fract_z
O1	O	-1.960398	-0.136610	0.216355
O2	O	-1.460398	0.363390	0.716355
O3	O	-1.531113	-0.136612	0.234101
O4	O	-1.031113	0.363388	0.734101
O5	O	-1.754629	-0.136608	0.010585
O6	O	-1.254629	0.363392	0.510585
O7	O	-1.736882	-0.136615	0.439870
O8	O	-1.236882	0.363385	0.939870
O9	O	-1.754616	0.136619	0.010583
O10	O	-1.254616	0.636619	0.510583
O11	O	-1.531101	0.136615	0.234098
O12	O	-1.031101	0.636615	0.734098
O13	O	-1.960385	0.136617	0.216352
O14	O	-1.460385	0.636617	0.716352
Zn15	Zn	-1.745741	0.179997	0.225225
Zn16	Zn	-1.245741	0.679997	0.725225
Zn17	Zn	-1.745758	-0.179992	0.225228
Zn18	Zn	-1.245758	0.320008	0.725228
O19	O	-1.736870	0.136613	0.439868
O20	O	-1.236870	0.636613	0.939868
C21	C	-1.476120	0.000001	0.232394
C22	C	-0.976120	0.500001	0.732394
C23	C	-1.312277	0.000000	0.227294
C24	C	-0.812277	0.500000	0.727294
C25	C	-1.752917	0.000003	-0.044403
C26	C	-1.252917	0.500003	0.455597
C27	C	-1.747817	-0.000005	-0.208245
C28	C	-1.247817	0.499995	0.291755
C29	C	-2.015378	-0.000000	0.218059
C30	C	-1.515378	0.500000	0.718059
C31	C	-2.179221	-0.000010	0.223158
C32	C	-1.679221	0.499990	0.723158
N33	N	-1.745741	0.425679	0.225221
N34	N	-1.245741	0.925679	0.725221
N35	N	-1.745770	-0.425674	0.225220
N36	N	-1.245770	0.074326	0.725220
C37	C	-1.738582	-0.000002	0.494855
C38	C	-1.238582	0.499998	0.994855
C39	C	-1.743681	-0.000005	0.658698
C40	C	-1.243681	0.499995	1.158698
