data_functionalizedCrystal
_audit_creation_method	'MofGen! by Chris Wilmer'
_symmetry_space_group_name_H-M	'P1'
_symmetry_Int_Tables_number	1
_symmetry_cell_setting	triclinic
loop_
_symmetry_equiv_pos_as_xyz
  x,y,z
_cell_length_a	14.971490
_cell_length_b	9.130313
_cell_length_c	14.971486
_cell_angle_alpha	90.001462
_cell_angle_beta	96.385112
_cell_angle_gamma	89.997427
loop_
_atom_site_label
_atom_site_type_symbol
_atom_site_fract_x
_atom_site_fract_y
_atom_site_fract_z
O1	O	-1.186938	0.121879	0.116575
O2	O	-0.926538	0.121865	0.130530
O3	O	-1.063717	0.121862	-0.006648
O4	O	-1.049758	0.121882	0.253752
O5	O	-1.063715	-0.121737	-0.006644
O6	O	-0.926536	-0.121734	0.130534
O7	O	-1.186936	-0.121720	0.116578
Cu8	Cu	-1.056736	-0.143969	0.123556
Cu9	Cu	-1.056738	0.144115	0.123552
O10	O	-1.049757	-0.121717	0.253756
C11	C	-0.893212	0.000064	0.129907
C12	C	-0.793915	0.000058	0.128035
N13	N	-1.056741	-0.346592	0.123559
C14	C	-0.366211	0.132871	0.119955
C15	C	-0.459511	0.132867	0.121711
C16	C	-0.506156	0.000077	0.122597
C17	C	-0.459497	-0.132718	0.121718
C18	C	-0.366199	-0.132712	0.119955
C19	C	-0.653958	-0.132720	0.125394
C20	C	-0.747263	-0.132727	0.127158
C21	C	-0.747271	0.132859	0.127150
C22	C	-0.653973	0.132864	0.125387
C23	C	-0.607320	0.000069	0.124510
C24	C	-1.117499	-0.423245	0.062837
C25	C	-1.117497	-0.576582	0.062826
C26	C	-0.995975	-0.576599	0.184267
C27	C	-0.995974	-0.423265	0.184273
C28	C	-1.178267	-0.346572	0.002123
C29	C	-1.239031	-0.423226	-0.058603
C30	C	-1.239028	-0.576562	-0.058614
C31	C	-1.178262	-0.653246	0.002102
C32	C	-0.220261	0.000082	0.117202
C33	C	-0.319558	0.000086	0.119078
C34	C	-1.063092	0.000063	-0.039971
C35	C	-1.061221	0.000064	-0.139268
N36	N	-1.056740	0.346737	0.123542
C37	C	-1.141810	0.000068	-0.196492
C38	C	-1.140047	0.000082	-0.289791
C39	C	-1.057694	0.000083	-0.325865
C40	C	-0.977099	0.000084	-0.268633
C41	C	-0.978863	0.000080	-0.175336
C42	C	-0.973428	0.000089	-0.463096
C43	C	-0.971663	0.000091	-0.556400
C44	C	-1.134612	0.000092	-0.577552
C45	C	-1.136376	0.000087	-0.484254
C46	C	-1.055780	0.000086	-0.427029
C47	C	-1.050382	0.000086	0.287079
C48	C	-1.052252	0.000094	0.386376
H49	H	-0.328238	0.241004	0.119240
Br50	Br	-0.913508	-0.319231	0.266678
H51	H	-0.328214	-0.240839	0.119251
Br52	Br	-0.522800	-0.312936	0.122916
H53	H	-1.178276	-0.221718	0.002128
H54	H	-0.615996	0.240994	0.124672
H55	H	-0.913239	0.000077	-0.128744
Br56	Br	-1.321481	-0.680592	-0.141034
Br57	Br	-0.810581	0.313082	0.128357
Br58	Br	-1.253581	0.000045	-0.147545
H59	H	-1.288500	-0.360782	-0.108040
Br60	Br	-0.522824	0.313082	0.122893
Br61	Br	-1.178252	-0.861348	0.002073
Br62	Br	-0.913513	-0.680667	0.266662
Br63	Br	-1.249423	0.000087	-0.367451
H64	H	-1.203435	0.000076	-0.454886
Br65	Br	-1.243992	0.000097	-0.655213
H66	H	-0.904604	0.000068	-0.585767
Br67	Br	-0.865332	0.000110	-0.317589
Br68	Br	-0.864047	0.000092	-0.385433
Br69	Br	-0.810567	-0.312943	0.128356
H70	H	-0.615975	-0.240856	0.124690
