data_functionalizedCrystal
_audit_creation_method	'MofGen! by Chris Wilmer'
_symmetry_space_group_name_H-M	'P1'
_symmetry_Int_Tables_number	1
_symmetry_cell_setting	triclinic
loop_
_symmetry_equiv_pos_as_xyz
  x,y,z
_cell_length_a	14.519709
_cell_length_b	10.654550
_cell_length_c	9.130313
_cell_angle_alpha	90.000110
_cell_angle_beta	90.005376
_cell_angle_gamma	95.917476
loop_
_atom_site_label
_atom_site_type_symbol
_atom_site_fract_x
_atom_site_fract_y
_atom_site_fract_z
O1	O	1.224716	-0.164617	-0.121605
O2	O	1.724716	0.335383	0.378395
O3	O	0.956339	-0.184004	-0.121649
O4	O	1.456339	0.315996	0.378351
O5	O	1.096698	0.008488	-0.121620
O6	O	1.596698	0.508488	0.378380
O7	O	1.084357	-0.357109	-0.121633
O8	O	1.584357	0.142891	0.378367
O9	O	1.096696	0.008483	0.121978
O10	O	1.596696	0.508483	0.621978
O11	O	0.956338	-0.184009	0.121950
O12	O	1.456338	0.315991	0.621950
O13	O	1.224714	-0.164623	0.121994
O14	O	1.724714	0.335377	0.621994
Cu15	Cu	1.090526	-0.174316	0.144215
Cu16	Cu	1.590526	0.325684	0.644215
Cu17	Cu	1.090528	-0.174310	-0.143869
Cu18	Cu	1.590528	0.325690	0.356131
O19	O	1.084355	-0.357114	0.121966
O20	O	1.584355	0.142886	0.621966
C21	C	0.921974	-0.183103	0.000145
C22	C	1.421974	0.316897	0.500145
C23	C	0.819579	-0.180396	0.000128
C24	C	1.319579	0.319604	0.500128
N25	N	1.090531	-0.174320	0.346837
N26	N	1.590531	0.325680	0.846837
C27	C	1.095791	0.055275	0.000177
C28	C	1.595791	0.555275	0.500177
C29	C	1.093080	0.194692	0.000172
C30	C	1.593080	0.694692	0.500172
C31	C	0.444631	-0.170428	0.000195
C32	C	0.944631	0.329572	0.500195
C33	C	0.548954	-0.173196	0.000176
C34	C	1.048954	0.326804	0.500176
C35	C	0.632102	-0.175412	0.000160
C36	C	1.132102	0.324588	0.500160
C37	C	0.736431	-0.178180	0.000144
C38	C	1.236431	0.321820	0.500144
C39	C	1.259079	-0.165524	0.000197
C40	C	1.759079	0.334476	0.500197
C41	C	1.361475	-0.168231	0.000205
C42	C	1.861475	0.331769	0.500205
C43	C	1.085262	-0.403901	0.000165
C44	C	1.585262	0.096099	0.500165
C45	C	1.087973	-0.543318	0.000161
C46	C	1.587973	-0.043318	0.500161
C47	C	1.175721	0.274972	0.000190
C48	C	1.675721	0.774972	0.500190
C49	C	1.173168	0.405968	0.000179
C50	C	1.673168	0.905968	0.500179
C51	C	1.005326	0.376391	0.000138
C52	C	1.505326	0.876391	0.500138
C53	C	1.007880	0.245397	0.000138
C54	C	1.507880	0.745397	0.500138
C55	C	1.260921	0.224266	0.000223
C56	C	1.760921	0.724266	0.500223
C57	C	1.343569	0.304548	0.000242
C58	C	1.843569	0.804548	0.500242
C59	C	1.341016	0.435544	0.000232
C60	C	1.841016	0.935544	0.500232
C61	C	1.255815	0.486259	0.000201
C62	C	1.755815	0.986259	0.500201
N63	N	1.090530	-0.174297	-0.346492
N64	N	1.590530	0.325703	0.153508
C65	C	1.152698	-0.089113	0.423502
C66	C	1.652698	0.410887	0.923502
C67	C	1.152695	-0.089098	0.576839
C68	C	1.652695	0.410902	1.076839
C69	C	1.028356	-0.259507	0.576833
C70	C	1.528356	0.240493	1.076833
C71	C	1.028355	-0.259515	0.423499
C72	C	1.528355	0.240485	0.923499
C73	C	1.214874	-0.003918	0.346840
C74	C	1.714874	0.496082	0.846840
C75	C	1.277047	0.081295	0.423505
C76	C	1.777047	0.581295	0.923505
C77	C	1.277044	0.081310	0.576842
C78	C	1.777044	0.581310	1.076842
C79	C	1.214869	-0.003888	0.653514
C80	C	1.714869	0.496112	1.153514
H81	H	1.412936	0.263247	0.000231
H82	H	1.912936	0.763247	0.500231
C83	C	1.431919	0.523855	0.000236
C84	C	1.931919	1.023855	0.500236
H85	H	1.418200	0.609134	0.000212
H86	H	1.918200	1.109134	0.500212
H87	H	1.466820	0.508470	0.085190
H88	H	1.966820	1.008470	0.585190
H89	H	1.466817	0.508455	-0.084717
H90	H	1.966817	1.008455	0.415283
H91	H	0.977732	-0.328897	0.361078
H92	H	1.477732	0.171103	0.861078
C93	C	0.911613	0.432169	0.000112
C94	C	1.411613	0.932169	0.500112
H95	H	0.862759	0.365594	0.000088
H96	H	1.362759	0.865594	0.500088
H97	H	0.907124	0.482657	0.085057
H98	H	1.407124	0.982657	0.585057
H99	H	0.907134	0.482653	-0.084850
H100	H	1.407134	0.982653	0.415150
C101	C	1.345422	0.175042	0.661177
C102	C	1.845422	0.675042	1.161177
H103	H	1.336514	0.162858	0.763477
H104	H	1.836514	0.662858	1.263477
H105	H	1.407056	0.161212	0.636062
H106	H	1.907056	0.661212	1.136062
H107	H	1.334870	0.258890	0.636033
H108	H	1.834870	0.758890	1.136033
C109	C	0.959978	-0.353226	0.661168
C110	C	1.459978	0.146774	1.161168
H111	H	0.968890	-0.341025	0.763469
H112	H	1.468890	0.158975	1.263469
H113	H	0.898343	-0.339406	0.636035
H114	H	1.398343	0.160594	1.136035
H115	H	0.970534	-0.437077	0.636044
H116	H	1.470534	0.062923	1.136044
H117	H	1.327663	0.150667	0.361071
H118	H	1.827663	0.650667	0.861071
H119	H	1.214866	-0.003860	0.778371
H120	H	1.714866	0.496140	1.278371
C121	C	0.916980	0.157079	0.000123
C122	C	1.416980	0.657079	0.500123
H123	H	0.930705	0.071803	0.000112
H124	H	1.430705	0.571803	0.500112
H125	H	0.882075	0.172465	0.085062
H126	H	1.382075	0.672465	0.585062
H127	H	0.882085	0.172470	-0.084845
H128	H	1.382085	0.672470	0.415155
C129	C	1.263733	0.080176	0.000226
C130	C	1.763733	0.580176	0.500226
H131	H	1.326309	0.061473	0.000237
H132	H	1.826309	0.561473	0.500237
H133	H	1.233310	0.045081	0.085164
H134	H	1.733310	0.545081	0.585164
H135	H	1.233325	0.045084	-0.084744
H136	H	1.733325	0.545084	0.415256
C137	C	1.253008	0.630352	0.000182
C138	C	1.753008	1.130352	0.500182
H139	H	1.314429	0.670904	0.000201
H140	H	1.814429	1.170904	0.500201
H141	H	1.221437	0.654520	-0.084773
H142	H	1.721437	1.154520	0.415227
H143	H	1.221438	0.654528	0.085134
H144	H	1.721438	1.154528	0.585134
H145	H	1.214884	-0.003925	0.221986
H146	H	1.714884	0.496075	0.721986
