data_functionalizedCrystal
_audit_creation_method	'MofGen! by Chris Wilmer'
_symmetry_space_group_name_H-M	'P1'
_symmetry_Int_Tables_number	1
_symmetry_cell_setting	triclinic
loop_
_symmetry_equiv_pos_as_xyz
  x,y,z
_cell_length_a	17.699077
_cell_length_b	14.044190
_cell_length_c	16.176319
_cell_angle_alpha	89.988653
_cell_angle_beta	89.993140
_cell_angle_gamma	88.236177
loop_
_atom_site_label
_atom_site_type_symbol
_atom_site_fract_x
_atom_site_fract_y
_atom_site_fract_z
O1	O	1.012350	0.119823	-0.068745
O2	O	0.793047	0.135422	-0.068750
O3	O	0.899404	-0.010354	-0.068731
O4	O	0.905993	0.265600	-0.068764
O5	O	0.899387	-0.010364	0.068762
O6	O	0.793030	0.135413	0.068743
O7	O	1.012333	0.119814	0.068748
Cu8	Cu	0.902680	0.127613	0.081300
Cu9	Cu	0.902700	0.127624	-0.081302
O10	O	0.905976	0.265591	0.068730
C11	C	0.764803	0.134859	-0.000004
C12	C	0.680669	0.133185	-0.000005
C13	C	0.641138	0.132392	0.074943
C14	C	0.562086	0.130804	0.074944
C15	C	0.522566	0.130016	-0.000004
C16	C	0.562103	0.130807	-0.074958
C17	C	0.641154	0.132389	-0.074958
C18	C	0.243299	0.124430	-0.074959
C19	C	0.164243	0.122851	-0.074953
C20	C	0.164232	0.122845	0.074944
C21	C	0.243283	0.124426	0.074944
C22	C	0.282813	0.125212	-0.000010
C23	C	0.368530	0.126932	-0.000010
C24	C	0.436850	0.128303	-0.000005
C25	C	0.896513	-0.045667	0.000018
C26	C	0.887915	-0.150873	0.000025
C27	C	0.933175	-0.401265	-0.000007
C28	C	0.872208	-0.343494	-0.000002
C29	C	0.880950	-0.236310	0.000013
C30	C	0.924435	-0.508459	-0.000022
C31	C	1.040577	0.120377	0.000000
C32	C	1.124711	0.122051	-0.000004
C33	C	0.908867	0.300903	-0.000021
C34	C	0.917465	0.406109	-0.000034
N35	N	0.902672	0.127604	0.195665
N36	N	0.902714	0.127624	-0.195667
C37	C	0.949784	0.063081	0.238938
C38	C	0.949788	0.063080	0.325485
C39	C	0.902683	0.127608	0.368758
C40	C	0.855565	0.192134	0.325479
C41	C	0.855558	0.192130	0.238934
C42	C	0.855593	0.192152	0.674507
C43	C	0.855605	0.192153	0.761059
C44	C	0.949822	0.063102	0.761059
C45	C	0.949815	0.063098	0.674513
C46	C	0.902695	0.127620	0.631242
C47	C	0.902690	0.127619	0.537398
C48	C	0.902691	0.127614	0.462600
H49	H	0.132038	0.122200	0.135975
F50	F	0.520042	0.129940	-0.154724
H51	H	0.813447	-0.374532	-0.000008
F52	F	0.683191	0.133236	0.154715
F53	F	1.009975	-0.360698	0.000005
H54	H	0.275475	0.125067	-0.135991
F55	F	0.999925	-0.005596	0.192891
F56	F	0.999929	-0.005594	0.371539
F57	F	0.999953	-0.005578	0.628462
H58	H	0.673339	0.133037	-0.135989
F59	F	0.805413	0.260802	0.192881
H60	H	0.275456	0.125072	0.135974
H61	H	0.988187	0.010561	0.796299
F62	F	0.805466	0.260835	0.807112
H63	H	0.817227	0.244690	0.639283
F64	F	0.805428	0.260806	0.371534
H65	H	0.529904	0.130141	0.135975
H66	H	0.132068	0.122209	-0.135989
