data_functionalizedCrystal
_audit_creation_method	'MofGen! by Chris Wilmer'
_symmetry_space_group_name_H-M	'P1'
_symmetry_Int_Tables_number	1
_symmetry_cell_setting	triclinic
loop_
_symmetry_equiv_pos_as_xyz
  x,y,z
_cell_length_a	12.594517
_cell_length_b	12.594516
_cell_length_c	16.959447
_cell_angle_alpha	90.026821
_cell_angle_beta	90.008738
_cell_angle_gamma	90.011773
loop_
_atom_site_label
_atom_site_type_symbol
_atom_site_fract_x
_atom_site_fract_y
_atom_site_fract_z
Zn1	Zn	1.627240	-0.423722	0.446810
Zn2	Zn	1.627161	-0.601729	0.314640
Zn3	Zn	1.449261	-0.423765	0.314661
Zn4	Zn	1.449239	-0.601659	0.446791
O5	O	1.538225	-0.512719	0.380725
O6	O	1.776175	-0.447347	0.429277
O7	O	1.603538	-0.578169	0.204032
O8	O	1.472912	-0.274814	0.332207
O9	O	1.776117	-0.578128	0.332172
O10	O	1.603673	-0.274782	0.429297
O11	O	1.472836	-0.447420	0.204047
O12	O	1.300312	-0.447352	0.332189
O13	O	1.472875	-0.578008	0.557405
O14	O	1.300296	-0.578050	0.429265
O15	O	1.603651	-0.447279	0.557419
O16	O	1.603517	-0.750666	0.332153
O17	O	1.472799	-0.750614	0.429244
C18	C	1.261684	-0.512698	0.380727
C19	C	1.143379	-0.512715	0.380747
C20	C	1.003384	-0.583931	0.433448
C21	C	1.074166	-0.609837	0.361309
C22	C	1.074168	-0.486857	0.452878
C23	C	1.003375	-0.538706	0.308545
C24	C	1.003371	-0.415681	0.400164
C25	C	1.074121	-0.441550	0.327974
C26	C	1.538176	-0.789260	0.380712
C27	C	1.538252	-0.907565	0.380732
C28	C	1.609432	-0.976808	0.327981
C29	C	1.635434	-1.047506	0.400124
C30	C	1.512384	-1.047666	0.308635
C31	C	1.564303	-0.976705	0.452913
C32	C	1.441208	-0.976859	0.361376
C33	C	1.467173	-1.047525	0.433569
C34	C	1.815846	-0.512740	0.380724
C35	C	1.934151	-0.512750	0.380723
C36	C	1.538269	-0.512631	0.586894
C37	C	1.538288	-0.512593	0.674750
C38	C	1.538304	-0.235098	0.380756
C39	C	1.538337	-0.116793	0.380770
C40	C	1.538242	-0.512730	0.175359
C41	C	1.538430	-0.512468	0.087503
C42	C	1.470326	-0.580546	1.046221
C43	C	1.606505	-0.444416	1.046231
C44	C	1.606477	-0.444439	0.963685
C45	C	1.538373	-0.512517	0.922403
C46	C	1.470298	-0.580573	0.963668
C47	C	1.674558	-0.376392	0.922415
C48	C	1.674533	-0.376413	0.839864
C49	C	1.606424	-0.444486	0.798580
C50	C	1.538345	-0.512544	0.839850
C51	C	1.470241	-0.580622	0.798568
C52	C	1.402157	-0.648675	0.839836
C53	C	1.402188	-0.648646	0.922385
C54	C	1.606392	-0.444515	0.716032
C55	C	1.470213	-0.580649	0.716015
H56	H	0.972409	-0.560691	0.247518
C57	C	1.290083	-0.632368	1.071634
C58	C	1.395490	-0.655348	1.091579
H59	H	1.243884	-0.678545	1.099640
H60	H	1.280333	-0.642131	1.016569
H61	H	1.274544	-0.560845	1.085179
H62	H	1.411031	-0.726869	1.078028
H63	H	1.405245	-0.645594	1.146656
C64	C	1.658290	-0.264302	0.690639
C65	C	1.681221	-0.369721	0.670667
H66	H	1.704485	-0.218126	0.662628
H67	H	1.668062	-0.254552	0.745703
H68	H	1.586773	-0.248732	0.677117
H69	H	1.752736	-0.385293	0.684195
H70	H	1.671457	-0.379476	0.615591
H71	H	0.972325	-0.644187	0.477970
C72	C	1.079871	-0.387623	0.192269
C73	C	1.115802	-0.360272	0.267731
H74	H	1.105612	-0.337451	0.155076
H75	H	1.004460	-0.387601	0.191635
H76	H	1.105189	-0.456360	0.178913
H77	H	1.090477	-0.291537	0.281089
H78	H	1.191229	-0.360282	0.268366
H79	H	1.407014	-1.078380	0.478247
H80	H	0.972251	-0.333630	0.416623
H81	H	1.586136	-0.945669	0.513953
H82	H	1.490470	-1.078835	0.247648
H83	H	1.730011	-0.320973	0.956032
H84	H	1.359127	-0.945801	0.344961
C85	C	1.335617	-0.715220	0.724297
C86	C	1.395360	-0.655495	0.670641
H87	H	1.289414	-0.761432	0.696284
H88	H	1.294921	-0.668832	0.756497
H89	H	1.382003	-0.755915	0.756492
H90	H	1.348974	-0.614793	0.638450
H91	H	1.436059	-0.701889	0.638428
H92	H	1.717538	-1.078541	0.416517
C93	C	1.350298	-0.828868	0.947773
C94	C	1.327362	-0.723452	0.967748
H95	H	1.304100	-0.875048	0.975778
H96	H	1.421806	-0.844435	0.961292
H97	H	1.340524	-0.838614	0.892701
H98	H	1.337143	-0.713703	1.022819
H99	H	1.255836	-0.707879	0.954234
C100	C	1.667016	-0.383942	1.172776
C101	C	1.681365	-0.369591	1.091606
H102	H	1.713231	-0.337741	1.200789
H103	H	1.682580	-0.455447	1.186282
H104	H	1.595508	-0.368354	1.186307
H105	H	1.752872	-0.385188	1.078074
H106	H	1.665809	-0.298070	1.078094
H107	H	1.729971	-0.320999	0.806270
H108	H	1.346712	-0.704109	0.806214
H109	H	1.105265	-0.464971	0.513889
C110	C	1.178891	-0.760019	0.400671
C111	C	1.116153	-0.720630	0.339116
H112	H	1.204811	-0.828417	0.386970
H113	H	1.137395	-0.764926	0.447288
H114	H	1.237026	-0.713435	0.409491
H115	H	1.058014	-0.767210	0.330299
H116	H	1.157651	-0.715730	0.292485
C117	C	1.792318	-0.970539	0.288300
C118	C	1.690700	-0.934876	0.267814
H119	H	1.842488	-0.944644	0.251160
H120	H	1.793350	-1.045947	0.288230
H121	H	1.810036	-0.945194	0.339400
H122	H	1.672978	-0.960227	0.216715
H123	H	1.689665	-0.859452	0.267876
