data_functionalizedCrystal
_audit_creation_method	'MofGen! by Chris Wilmer'
_symmetry_space_group_name_H-M	'P1'
_symmetry_Int_Tables_number	1
_symmetry_cell_setting	triclinic
loop_
_symmetry_equiv_pos_as_xyz
  x,y,z
_cell_length_a	25.639240
_cell_length_b	29.839134
_cell_length_c	25.639233
_cell_angle_alpha	89.976874
_cell_angle_beta	89.974071
_cell_angle_gamma	90.027617
loop_
_atom_site_label
_atom_site_type_symbol
_atom_site_fract_x
_atom_site_fract_y
_atom_site_fract_z
Zn1	Zn	-0.208286	0.686752	-0.295730
Zn2	Zn	0.291714	1.186752	0.204270
Zn3	Zn	-0.295705	0.686694	-0.208283
Zn4	Zn	0.204295	1.186694	0.291717
Zn5	Zn	-0.208277	0.611633	-0.208292
Zn6	Zn	0.291723	1.111633	0.291708
Zn7	Zn	-0.295684	0.611594	-0.295671
Zn8	Zn	0.204316	1.111594	0.204329
O9	O	-0.251988	0.649168	-0.251994
O10	O	0.248012	1.149168	0.248006
O11	O	-0.219895	0.749611	-0.284150
O12	O	0.280105	1.249611	0.215850
O13	O	-0.284112	0.676729	-0.135119
O14	O	0.215888	1.176729	0.364881
O15	O	-0.135113	0.621638	-0.219919
O16	O	0.364887	1.121638	0.280081
O17	O	-0.284121	0.749569	-0.219903
O18	O	0.215879	1.249569	0.280097
O19	O	-0.135120	0.676828	-0.284159
O20	O	0.364880	1.176828	0.215841
O21	O	-0.219880	0.621582	-0.135126
O22	O	0.280120	1.121582	0.364874
O23	O	-0.219860	0.548761	-0.219863
O24	O	0.280140	1.048761	0.280137
O25	O	-0.284086	0.621571	-0.368844
O26	O	0.215914	1.121571	0.131156
O27	O	-0.284078	0.548732	-0.284060
O28	O	0.215922	1.048732	0.215940
O29	O	-0.219875	0.676790	-0.368887
O30	O	0.280125	1.176790	0.131113
O31	O	-0.368867	0.676691	-0.219847
O32	O	0.131133	1.176691	0.280153
O33	O	-0.368852	0.621515	-0.284051
O34	O	0.131148	1.121515	0.215949
C35	C	-0.251966	0.532445	-0.251956
C36	C	0.248034	1.032445	0.248044
C37	C	-0.251969	0.482511	-0.251953
C38	C	0.248031	0.982511	0.248047
C39	C	-0.285476	0.172862	-0.285380
C40	C	0.214524	0.672862	0.214620
C41	C	-0.285490	-0.014811	-0.285404
C42	C	0.214510	0.485189	0.214596
O43	O	-0.313954	-0.039081	-0.313803
O44	O	0.186046	0.460919	0.186197
N45	N	-0.252007	-0.038274	-0.252033
N46	N	0.247993	0.461726	0.247967
C47	C	-0.218516	-0.014816	-0.218657
C48	C	0.281484	0.485184	0.281343
O49	O	-0.190033	-0.039079	-0.190278
O50	O	0.309967	0.460921	0.309722
C51	C	-0.218499	0.172856	-0.218637
C52	C	0.281501	0.672856	0.281363
C53	C	-0.251988	0.196317	-0.252006
C54	C	0.248012	0.696317	0.247994
C55	C	-0.318962	0.196323	-0.318747
C56	C	0.181038	0.696323	0.181253
C57	C	-0.318960	0.243238	-0.318739
C58	C	0.181040	0.743238	0.181261
C59	C	-0.285472	0.266693	-0.285364
C60	C	0.214528	0.766693	0.214636
C61	C	-0.251986	0.243232	-0.251998
C62	C	0.248014	0.743232	0.248002
C63	C	-0.185005	0.196313	-0.185264
C64	C	0.314995	0.696313	0.314736
C65	C	-0.185003	0.243235	-0.185263
C66	C	0.314997	0.743235	0.314737
C67	C	-0.218492	0.266695	-0.218632
C68	C	0.281508	0.766695	0.281368
C69	C	-0.218496	0.313603	-0.218615
C70	C	0.281504	0.813603	0.281385
N71	N	-0.251979	0.337066	-0.251985
N72	N	0.248021	0.837066	0.248015
C73	C	-0.285467	0.313611	-0.285360
C74	C	0.214533	0.813611	0.214640
C75	C	-0.218528	-0.113347	-0.218669
C76	C	0.281472	0.386653	0.281331
C77	C	-0.218533	-0.160264	-0.218674
C78	C	0.281467	0.339736	0.281326
C79	C	-0.285507	-0.160256	-0.285421
C80	C	0.214493	0.339744	0.214579
C81	C	-0.285504	-0.113338	-0.285414
C82	C	0.214496	0.386662	0.214586
C83	C	-0.252011	-0.089884	-0.252040
C84	C	0.247989	0.410116	0.247960
C85	C	-0.285460	0.412137	-0.285340
C86	C	0.214540	0.912137	0.214660
C87	C	-0.285457	0.459056	-0.285327
C88	C	0.214543	0.959056	0.214673
C89	C	-0.218481	0.459044	-0.218582
C90	C	0.281519	0.959044	0.281418
C91	C	-0.218486	0.412128	-0.218593
C92	C	0.281514	0.912128	0.281407
C93	C	-0.251978	0.388676	-0.251976
C94	C	0.248022	0.888676	0.248024
O95	O	-0.190043	0.337901	-0.190235
O96	O	0.309957	0.837901	0.309765
O97	O	-0.313937	0.337882	-0.313743
O98	O	0.186063	0.837882	0.186257
C99	C	-0.285478	0.125947	-0.285389
C100	C	0.214522	0.625947	0.214611
C101	C	-0.251992	0.102486	-0.252022
C102	C	0.248008	0.602486	0.247978
C103	C	-0.218504	0.125941	-0.218647
C104	C	0.281496	0.625941	0.281353
C105	C	-0.251997	0.055568	-0.252026
C106	C	0.248003	0.555568	0.247974
C107	C	-0.285485	0.032113	-0.285401
C108	C	0.214515	0.532113	0.214599
C109	C	-0.318968	0.055576	-0.318771
C110	C	0.181032	0.555576	0.181229
C111	C	-0.318966	0.102492	-0.318763
C112	C	0.181034	0.602492	0.181237
C113	C	-0.185021	0.102478	-0.185277
C114	C	0.314979	0.602478	0.314723
C115	C	-0.185026	0.055562	-0.185288
C116	C	0.314974	0.555562	0.314712
C117	C	-0.218514	0.032107	-0.218662
C118	C	0.281486	0.532107	0.281338
C119	C	-0.387831	0.649105	-0.251953
C120	C	0.112169	1.149105	0.248047
C121	C	-0.445945	0.649118	-0.251953
C122	C	0.054055	1.149118	0.248047
C123	C	-0.806273	0.677919	-0.285504
C124	C	-0.306273	1.177919	0.214496
C125	C	-0.860877	0.677933	-0.285515
C126	C	-0.360877	1.177933	0.214485
O127	O	-0.889084	0.702345	-0.313999
O128	O	-0.389084	1.202345	0.186001
N129	N	-0.888227	0.649230	-0.252045
N130	N	-0.388227	1.149230	0.247955
C131	C	-0.860970	0.620510	-0.218565
C132	C	-0.360970	1.120510	0.281435
O133	O	-0.889248	0.596097	-0.190098
O134	O	-0.389248	1.096097	0.309902
C135	C	-0.806367	0.620495	-0.218558
C136	C	-0.306367	1.120495	0.281442
C137	C	-0.779020	0.649202	-0.252026
C138	C	-0.279020	1.149202	0.247974
C139	C	-0.778925	0.706624	-0.318970
C140	C	-0.278925	1.206624	0.181030
C141	C	-0.724325	0.706611	-0.318959
C142	C	-0.224325	1.206611	0.181041
C143	C	-0.697072	0.677894	-0.285481
C144	C	-0.197072	1.177894	0.214519
C145	C	-0.724419	0.649189	-0.252015
C146	C	-0.224419	1.149189	0.247985
C147	C	-0.779111	0.591772	-0.185082
C148	C	-0.279111	1.091772	0.314918
C149	C	-0.724504	0.591759	-0.185077
C150	C	-0.224504	1.091759	0.314923
C151	C	-0.697157	0.620466	-0.218546
C152	C	-0.197157	1.120466	0.281454
C153	C	-0.642565	0.620459	-0.218526
C154	C	-0.142565	1.120459	0.281474
N155	N	-0.615215	0.649161	-0.251996
N156	N	-0.115215	1.149161	0.248004
C157	C	-0.642468	0.677879	-0.285474
C158	C	-0.142468	1.177879	0.214526
C159	C	-0.975641	0.620543	-0.218585
C160	C	-0.475641	1.120543	0.281415
C161	C	-1.030243	0.620560	-0.218589
C162	C	-0.530243	1.120560	0.281411
C163	C	-1.030146	0.677983	-0.285539
C164	C	-0.530146	1.177983	0.214461
C165	C	-0.975543	0.677968	-0.285532
C166	C	-0.475543	1.177968	0.214468
C167	C	-0.948291	0.649246	-0.252055
C168	C	-0.448291	1.149246	0.247945
C169	C	-0.527803	0.677850	-0.285447
C170	C	-0.027803	1.177850	0.214553
C171	C	-0.473198	0.677836	-0.285431
C172	C	0.026802	1.177836	0.214569
C173	C	-0.473300	0.620412	-0.218483
C174	C	0.026700	1.120412	0.281517
C175	C	-0.527900	0.620428	-0.218496
C176	C	-0.027900	1.120428	0.281504
C177	C	-0.555151	0.649148	-0.251983
C178	C	-0.055151	1.149148	0.248017
O179	O	-0.614324	0.596058	-0.190058
O180	O	-0.114324	1.096058	0.309942
O181	O	-0.614184	0.702283	-0.313941
O182	O	-0.114184	1.202283	0.186059
C183	C	-0.115615	0.649244	-0.252047
C184	C	0.384385	1.149244	0.247953
C185	C	-0.057501	0.649276	-0.252069
C186	C	0.442499	1.149276	0.247931
C187	C	-0.251979	0.649183	-0.388367
C188	C	0.248021	1.149183	0.111633
C189	C	-0.251975	0.649189	-0.446481
C190	C	0.248025	1.149189	0.053519
C191	C	-0.252011	0.766346	-0.252032
C192	C	0.247989	1.266346	0.247968
C193	C	-0.252020	0.816281	-0.252048
C194	C	0.247980	1.316281	0.247952
C195	C	-0.218441	0.677977	-0.806872
C196	C	0.281559	1.177977	-0.306872
C197	C	-0.218427	0.677983	-0.861477
C198	C	0.281573	1.177983	-0.361477
O199	O	-0.189976	0.702424	-0.889737
O200	O	0.310024	1.202424	-0.389737
N201	N	-0.251853	0.649238	-0.888764
N202	N	0.248147	1.149238	-0.388764
C203	C	-0.285291	0.620483	-0.861444
C204	C	0.214709	1.120483	-0.361444
O205	O	-0.313721	0.596034	-0.889668
O206	O	0.186279	1.096034	-0.389668
C207	C	-0.285303	0.620475	-0.806841
C208	C	0.214697	1.120475	-0.306841
C209	C	-0.251878	0.649225	-0.779556
C210	C	0.248122	1.149225	-0.279556
C211	C	-0.185019	0.706724	-0.779588
C212	C	0.314981	1.206724	-0.279588
C213	C	-0.185034	0.706719	-0.724987
C214	C	0.314966	1.206719	-0.224987
C215	C	-0.218472	0.677967	-0.697671
C216	C	0.281528	1.177967	-0.197671
C217	C	-0.251894	0.649220	-0.724956
C218	C	0.248106	1.149220	-0.224956
C219	C	-0.318739	0.591718	-0.779522
C220	C	0.181261	1.091718	-0.279522
C221	C	-0.318747	0.591713	-0.724915
C222	C	0.181253	1.091713	-0.224915
C223	C	-0.285323	0.620463	-0.697630
C224	C	0.214677	1.120463	-0.197630
C225	C	-0.285346	0.620463	-0.643039
C226	C	0.214654	1.120463	-0.143039
N227	N	-0.251920	0.649208	-0.615752
N228	N	0.248080	1.149208	-0.115752
C229	C	-0.218483	0.677960	-0.643068
C230	C	0.281517	1.177960	-0.143068
C231	C	-0.285264	0.620500	-0.976115
C232	C	0.214736	1.120500	-0.476115
C233	C	-0.285256	0.620510	-1.030717
C234	C	0.214744	1.120510	-0.530717
C235	C	-0.218390	0.678009	-1.030746
C236	C	0.281610	1.178009	-0.530746
C237	C	-0.218402	0.678002	-0.976142
C238	C	0.281598	1.178002	-0.476142
C239	C	-0.251838	0.649245	-0.948827
C240	C	0.248162	1.149245	-0.448827
C241	C	-0.218518	0.677947	-0.528403
C242	C	0.281482	1.177947	-0.028403
C243	C	-0.218538	0.677941	-0.473797
C244	C	0.281462	1.177941	0.026203
C245	C	-0.285401	0.620440	-0.473773
C246	C	0.214599	1.120440	0.026227
C247	C	-0.285384	0.620448	-0.528374
C248	C	0.214616	1.120448	-0.028374
C249	C	-0.251938	0.649203	-0.555687
C250	C	0.248062	1.149203	-0.055687
O251	O	-0.313781	0.596033	-0.614744
O252	O	0.186219	1.096033	-0.114744
O253	O	-0.190053	0.702401	-0.614837
O254	O	0.309947	1.202401	-0.114837
C255	C	-0.251960	0.649179	-0.116151
C256	C	0.248040	1.149179	0.383849
C257	C	-0.251816	0.649260	-0.058038
C258	C	0.248184	1.149260	0.441962
H259	H	-0.346236	0.121589	-0.345936
H260	H	0.153764	0.621589	0.154064
N261	N	-0.443702	0.708801	-0.321529
N262	N	0.056298	1.208801	0.178471
H263	H	-0.469255	0.726993	-0.342740
H264	H	0.030745	1.226993	0.157260
H265	H	-0.421047	0.690494	-0.345698
H266	H	0.078953	1.190494	0.154302
H267	H	-0.702062	0.729986	-0.346213
H268	H	-0.202062	1.229986	0.153787
H269	H	-0.157750	0.121570	-0.158099
H270	H	0.342250	0.621570	0.341901
H271	H	-0.191253	-0.094255	-0.191490
H272	H	0.308747	0.405745	0.308510
N273	N	-0.443894	0.589439	-0.182381
N274	N	0.056106	1.089439	0.317619
H275	H	-0.453419	0.557338	-0.190465
H276	H	0.046581	1.057338	0.309535
H277	H	-0.453420	0.596474	-0.145046
H278	H	0.046580	1.096474	0.354954
N279	N	-0.808593	0.560806	-0.148981
N280	N	-0.308593	1.060806	0.351019
H281	H	-0.799108	0.528703	-0.157066
H282	H	-0.299108	1.028703	0.342934
H283	H	-0.847312	0.565203	-0.154075
H284	H	-0.347312	1.065203	0.345925
H285	H	-0.191183	0.701412	-0.953931
H286	H	0.308817	1.201412	-0.453931
N287	N	-0.354807	0.560692	-0.695453
N288	N	0.145193	1.060692	-0.195453
H289	H	-0.375976	0.542482	-0.721027
H290	H	0.124024	1.042482	-0.221027
H291	H	-0.379016	0.578958	-0.672798
H292	H	0.120984	1.078958	-0.172798
N293	N	-0.808314	0.737589	-0.355095
N294	N	-0.308314	1.237589	0.144905
H295	H	-0.782697	0.755764	-0.376295
H296	H	-0.282697	1.255764	0.123705
H297	H	-0.830968	0.758404	-0.333856
H298	H	-0.330968	1.258404	0.166144
N299	N	-0.695111	0.560778	-0.148970
N300	N	-0.195111	1.060778	0.351030
H301	H	-0.720725	0.542597	-0.127772
H302	H	-0.220725	1.042597	0.372228
H303	H	-0.672455	0.579072	-0.124791
H304	H	-0.172455	1.079072	0.375209
H305	H	-0.550168	0.597055	-0.191240
H306	H	-0.050168	1.097055	0.308760
H307	H	-0.191218	0.478149	-0.191408
H308	H	0.308782	0.978149	0.308592
H309	H	-0.346229	0.262336	-0.345912
H310	H	0.153771	0.762336	0.154088
H311	H	-0.346236	0.036471	-0.345945
H312	H	0.153764	0.536471	0.154055
N313	N	-0.148907	0.030261	-0.149291
N314	N	0.351093	0.530261	0.350709
H315	H	-0.127693	0.052243	-0.128150
H316	H	0.372307	0.552243	0.371850
H317	H	-0.124742	0.010815	-0.170624
H318	H	0.375258	0.510815	0.329376
N319	N	-0.321309	0.589507	-1.060146
N320	N	0.178691	1.089507	-0.560146
H321	H	-0.358669	0.596462	-1.050638
H322	H	0.141331	1.096462	-0.550638
H323	H	-0.313140	0.557424	-1.050622
H324	H	0.186860	1.057424	-0.550622
N325	N	-0.321465	0.589428	-0.444308
N326	N	0.178535	1.089428	0.055692
H327	H	-0.345703	0.607669	-0.421652
H328	H	0.154297	1.107669	0.078348
H329	H	-0.300177	0.568627	-0.421682
H330	H	0.199823	1.068627	0.078318
N331	N	-0.321576	0.484358	-0.321324
N332	N	0.178424	0.984358	0.178676
H333	H	-0.316496	0.517640	-0.316256
H334	H	0.183504	1.017640	0.183744
H335	H	-0.358904	0.476138	-0.313115
H336	H	0.141096	0.976138	0.186885
N337	N	-1.059548	0.708940	-0.321668
N338	N	-0.559548	1.208940	0.178332
H339	H	-1.033941	0.727119	-0.342877
H340	H	-0.533941	1.227119	0.157123
H341	H	-1.082207	0.729752	-0.300430
H342	H	-0.582207	1.229752	0.199570
N343	N	-0.354789	0.560706	-0.808938
N344	N	0.145211	1.060706	-0.308938
H345	H	-0.333532	0.539901	-0.831590
H346	H	0.166468	1.039901	-0.331590
H347	H	-0.379015	0.578979	-0.831563
H348	H	0.120985	1.078979	-0.331563
N349	N	-0.321440	0.589446	-0.557806
N350	N	0.178560	1.089446	-0.057806
H351	H	-0.342626	0.571233	-0.532213
H352	H	0.157374	1.071233	-0.032213
H353	H	-0.300146	0.568668	-0.580455
H354	H	0.199854	1.068668	-0.080455
H355	H	-0.157725	0.262328	-0.158088
H356	H	0.342275	0.762328	0.341912
N357	N	-0.182446	0.708965	-0.557852
N358	N	0.317554	1.208965	-0.057852
H359	H	-0.203690	0.729776	-0.580509
H360	H	0.296310	1.229776	-0.080509
H361	H	-0.158208	0.690697	-0.580475
H362	H	0.341792	1.190697	-0.080475
H363	H	-0.312495	0.597083	-0.953878
H364	H	0.187505	1.097083	-0.453878
N365	N	-0.557182	0.708831	-0.321563
N366	N	-0.057182	1.208831	0.178437
H367	H	-0.579832	0.729671	-0.300350
H368	H	-0.079832	1.229671	0.199650
H369	H	-0.579807	0.690538	-0.345773
H370	H	-0.079807	1.190538	0.154227
N371	N	-0.182374	0.386821	-0.182597
N372	N	0.317626	0.886821	0.317403
H373	H	-0.161161	0.408801	-0.161452
H374	H	0.338839	0.908801	0.338548
H375	H	-0.158208	0.367376	-0.203930
H376	H	0.341792	0.867376	0.296070
N377	N	-0.148877	0.171013	-0.149285
N378	N	0.351123	0.671013	0.350715
H379	H	-0.170079	0.151525	-0.125011
H380	H	0.329921	0.651525	0.374989
H381	H	-0.127666	0.193022	-0.128182
H382	H	0.372334	0.693022	0.371818
N383	N	-0.182488	0.708952	-0.444369
N384	N	0.317512	1.208952	0.055631
H385	H	-0.161303	0.727166	-0.469963
H386	H	0.338697	1.227166	0.030037
H387	H	-0.158293	0.690678	-0.421711
H388	H	0.341707	1.190678	0.078289
H389	H	-0.953280	0.701343	-0.312785
H390	H	-0.453280	1.201343	0.187215
H391	H	-0.953455	0.597156	-0.191319
H392	H	-0.453455	1.097156	0.308681
H393	H	-1.052505	0.597189	-0.191330
H394	H	-0.552505	1.097189	0.308670
N395	N	-0.148982	0.737727	-0.695563
N396	N	0.351018	1.237727	-0.195563
H397	H	-0.127799	0.755938	-0.721160
H398	H	0.372201	1.255938	-0.221160
H399	H	-0.124786	0.719451	-0.672908
H400	H	0.375214	1.219451	-0.172908
H401	H	-0.157787	0.730138	-0.801823
H402	H	0.342213	1.230138	-0.301823
N403	N	-0.182324	0.709021	-1.060213
N404	N	0.317676	1.209021	-0.560213
H405	H	-0.187390	0.704660	-1.098944
H406	H	0.312610	1.204660	-0.598944
H407	H	-0.144983	0.702048	-1.050677
H408	H	0.355017	1.202048	-0.550677
H409	H	-0.346232	0.177231	-0.345927
H410	H	0.153768	0.677231	0.154073
N411	N	-0.321583	0.386845	-0.321344
N412	N	0.178417	0.886845	0.178656
H413	H	-0.342795	0.408833	-0.342476
H414	H	0.157205	0.908833	0.157524
H415	H	-0.345750	0.367361	-0.300017
H416	H	0.154250	0.867361	0.199983
H417	H	-0.312773	-0.094239	-0.312586
H418	H	0.187227	0.405761	0.187414
H419	H	-0.191268	-0.179362	-0.191496
H420	H	0.308732	0.320638	0.308504
N421	N	-0.321627	-0.185558	-0.321418
N422	N	0.178373	0.314442	0.178582
H423	H	-0.316546	-0.218839	-0.316354
H424	H	0.183454	0.281161	0.183646
H425	H	-0.313541	-0.177341	-0.358774
H426	H	0.186459	0.322659	0.141226
