data_functionalizedCrystal
_audit_creation_method	'MofGen! by Chris Wilmer'
_symmetry_space_group_name_H-M	'P1'
_symmetry_Int_Tables_number	1
_symmetry_cell_setting	triclinic
loop_
_symmetry_equiv_pos_as_xyz
  x,y,z
_cell_length_a	14.519709
_cell_length_b	8.559649
_cell_length_c	7.681481
_cell_angle_alpha	94.913240
_cell_angle_beta	95.746595
_cell_angle_gamma	103.270596
loop_
_atom_site_label
_atom_site_type_symbol
_atom_site_fract_x
_atom_site_fract_y
_atom_site_fract_z
O1	O	0.021482	2.104961	-0.146404
O2	O	0.521482	2.604961	0.353596
O3	O	-0.026136	1.639893	-0.146405
O4	O	0.473864	2.139893	0.353595
O5	O	0.132796	1.884756	-0.146421
O6	O	0.632796	2.384756	0.353579
O7	O	-0.137449	1.860098	-0.146389
O8	O	0.362551	2.360098	0.353611
O9	O	0.152397	1.914895	0.146435
O10	O	0.652397	2.414895	0.646435
O11	O	-0.006535	1.670032	0.146451
O12	O	0.493465	2.170032	0.646451
O13	O	0.041083	2.135100	0.146451
O14	O	0.541083	2.635100	0.646451
Zn15	Zn	0.020387	1.907351	0.192948
Zn16	Zn	0.520387	2.407351	0.692948
Zn17	Zn	-0.005439	1.867642	-0.192902
Zn18	Zn	0.494561	2.367642	0.307098
O19	O	-0.117848	1.890237	0.146467
O20	O	0.382152	2.390237	0.646467
C21	C	-0.019944	1.595443	0.000023
C22	C	0.480056	2.095443	0.500023
C23	C	-0.030685	1.418093	0.000021
C24	C	0.469315	1.918093	0.500021
C25	C	-0.161926	1.876317	0.000043
C26	C	0.338074	2.376317	0.500043
C27	C	-0.264059	1.879763	0.000055
C28	C	0.235941	2.379763	0.500055
C29	C	-0.638049	1.892434	-0.000015
C30	C	-0.138049	2.392434	0.499985
C31	C	-0.533993	1.888916	0.000005
C32	C	-0.033993	2.388916	0.500005
C33	C	-0.451057	1.886099	0.000022
C34	C	0.048943	2.386099	0.500022
C35	C	-0.346994	1.882579	0.000039
C36	C	0.153006	2.382579	0.500039
C37	C	0.176873	1.898675	-0.000001
C38	C	0.676873	2.398675	0.499999
C39	C	0.279005	1.895229	-0.000024
C40	C	0.779005	2.395229	0.499976
N41	N	0.038013	1.934463	0.456281
N42	N	0.538013	2.434463	0.956281
C43	C	0.034891	2.179550	0.000020
C44	C	0.534891	2.679550	0.500020
C45	C	0.045632	2.356898	0.000010
C46	C	0.545632	2.856898	0.500010
N47	N	-0.023057	1.840543	-0.456234
N48	N	0.476943	2.340543	0.043766
H49	H	-0.104247	1.334798	0.000021
H50	H	0.395753	1.834798	0.500021
C51	C	-0.193106	1.741723	0.486706
C52	C	0.306894	2.241723	0.986706
C53	C	-0.107209	1.711109	0.442271
C54	C	0.392791	2.211109	0.942271
H55	H	-0.245057	1.661819	0.424029
H56	H	0.254943	2.161819	0.924029
H57	H	-0.195017	1.738779	0.609641
H58	H	0.304983	2.238779	1.109641
H59	H	-0.197503	1.845329	0.456553
H60	H	0.302497	2.345329	0.956553
H61	H	-0.102809	1.607508	0.472436
H62	H	0.397191	2.107508	0.972436
H63	H	-0.105296	1.714038	0.319308
H64	H	0.394704	2.214038	0.819308
C65	C	0.204289	1.456030	0.150532
C66	C	0.704289	1.956030	0.650532
C67	C	0.144937	1.469316	-0.000003
C68	C	0.644937	1.969316	0.499997
H69	H	0.265598	1.525432	0.150513
H70	H	0.765598	2.025432	0.650513
H71	H	0.177688	1.486054	0.252642
H72	H	0.677688	1.986054	0.752642
H73	H	0.209845	1.347592	0.150512
H74	H	0.709845	1.847592	0.650512
H75	H	0.139375	1.577752	0.000023
H76	H	0.639375	2.077752	0.500023
H77	H	0.171544	1.439301	-0.102141
H78	H	0.671544	1.939301	0.397859
H79	H	0.100347	2.030354	0.531480
H80	H	0.600347	2.530354	1.031480
