data_functionalizedCrystal
_audit_creation_method	'MofGen! by Chris Wilmer'
_symmetry_space_group_name_H-M	'P1'
_symmetry_Int_Tables_number	1
_symmetry_cell_setting	triclinic
loop_
_symmetry_equiv_pos_as_xyz
  x,y,z
_cell_length_a	21.883469
_cell_length_b	21.882911
_cell_length_c	21.879399
_cell_angle_alpha	60.006540
_cell_angle_beta	60.013207
_cell_angle_gamma	59.992231
loop_
_atom_site_label
_atom_site_type_symbol
_atom_site_fract_x
_atom_site_fract_y
_atom_site_fract_z
O1	O	0.084645	-0.892842	0.746620
O2	O	0.031867	-0.695139	0.601571
O3	O	0.157054	-0.820237	0.601476
O4	O	-0.040542	-0.767744	0.746716
O5	O	0.198586	-0.778715	0.642912
O6	O	0.073399	-0.653617	0.643007
O7	O	0.126177	-0.851320	0.788056
Cu8	Cu	0.103580	-0.748677	0.719315
Cu9	Cu	0.054464	-0.797782	0.670313
O10	O	0.000990	-0.726222	0.788151
N11	N	0.138128	-0.714145	0.753785
N12	N	0.019923	-0.832320	0.635843
C13	C	0.190018	-0.547369	0.805644
C14	C	0.190029	-0.662289	0.805630
C15	C	0.218780	-0.633565	0.834353
C16	C	0.344122	-0.611968	0.768360
C17	C	0.422474	-0.638085	0.742222
C18	C	0.422504	-0.764859	0.790561
C19	C	0.344154	-0.738739	0.816702
C20	C	0.208899	-0.508180	0.728617
C21	C	0.182748	-0.429822	0.702522
C22	C	0.118843	-0.429847	0.830485
C23	C	0.144993	-0.508205	0.856580
C24	C	0.112994	-0.643364	0.824587
C25	C	0.086865	-0.669476	0.798467
C26	C	0.214799	-0.733437	0.734451
C27	C	0.240932	-0.707325	0.760562
C28	C	0.113084	-0.643389	0.959747
C29	C	0.087018	-0.669524	1.038102
C30	C	0.214996	-0.733501	1.038048
C31	C	0.241061	-0.707367	0.959690
C32	C	0.190103	-0.662308	0.920542
C33	C	0.304966	-0.662293	0.805598
C34	C	-0.117460	-0.854702	0.612901
C35	C	-0.002405	-0.854864	0.498145
C36	C	-0.002621	-0.969735	0.613108
C37	C	-0.002603	-0.854858	0.613180
C38	C	-0.031272	-0.883541	0.584334
N39	N	0.460550	-0.714150	0.753681
O40	O	0.699805	-0.721060	0.574973
O41	O	0.700047	-0.866553	0.772482
O42	O	0.699952	-0.866219	0.647213
O43	O	0.699900	-0.721394	0.700242
O44	O	0.575478	-0.824800	0.688791
O45	O	0.575573	-0.825134	0.814060
O46	O	0.575331	-0.679641	0.616551
Cu47	Cu	0.564087	-0.748606	0.719102
Cu48	Cu	0.711292	-0.797588	0.669931
O49	O	0.575426	-0.679975	0.741820
N50	N	0.814828	-0.832044	0.635345
N51	N	0.138106	-0.391772	0.753815
O52	O	-0.040520	-0.152377	0.746758
O53	O	0.156993	-0.152371	0.601281
O54	O	0.031698	-0.152390	0.601639
O55	O	0.084775	-0.152358	0.746401
O56	O	0.073234	-0.276876	0.643130
O57	O	0.198529	-0.276856	0.642772
O58	O	0.001015	-0.276863	0.788249
Cu59	Cu	0.103564	-0.288226	0.719299
Cu60	Cu	0.054444	-0.141007	0.670231
O61	O	0.126310	-0.276844	0.787892
N62	N	0.019892	-0.037461	0.635717
N63	N	0.138332	-0.714192	1.076133
O64	O	0.131293	-0.892804	1.315506
O65	O	-0.014162	-0.695219	1.315533
O66	O	-0.013826	-0.820490	1.315480
O67	O	0.130957	-0.767533	1.315559
O68	O	0.027651	-0.778981	1.191001
O69	O	0.027314	-0.653710	1.191054
O70	O	0.172770	-0.851295	1.191026
Cu71	Cu	0.103829	-0.748713	1.179674
Cu72	Cu	0.054778	-0.797802	1.326885
O73	O	0.172434	-0.726024	1.191079
N74	N	0.020275	-0.832331	1.430426
C75	C	0.047687	-0.649466	0.602306
C76	C	0.202716	-0.804385	0.602188
C77	C	0.110357	-0.896993	0.787321
C78	C	-0.044672	-0.742074	0.787439
C79	C	0.637839	-0.865879	0.818154
C80	C	0.637724	-0.865466	0.663023
C81	C	0.637536	-0.680313	0.570880
C82	C	0.637655	-0.680728	0.726010
C83	C	0.202592	-0.214459	0.601942
C84	C	0.047481	-0.214636	0.602435
C85	C	-0.044635	-0.214620	0.787537
C86	C	0.110528	-0.214598	0.787096
C87	C	-0.013455	-0.649572	1.253296
C88	C	-0.013030	-0.804697	1.253206
C89	C	0.172063	-0.896942	1.253263
C90	C	0.171648	-0.741808	1.253325
H91	H	0.024299	-0.654107	1.070013
H92	H	-0.101359	-0.214623	0.833209
O93	O	0.125571	-0.214588	0.847343
H94	H	0.119057	-0.265324	0.897055
H95	H	0.637745	-0.910963	0.651673
H96	H	0.217732	-0.953686	1.253245
H97	H	0.259468	-0.815577	0.556577
H98	H	-0.059121	-0.592825	1.253304
H99	H	0.217133	-0.730478	1.253340
O100	O	-0.119845	-0.727256	0.847859
H101	H	-0.164293	-0.713417	0.827729
H102	H	0.259199	-0.214112	0.556156
O103	O	-0.073257	-0.819663	1.253093
H104	H	-0.051836	-0.877568	1.253050
O105	O	0.125281	-0.972216	0.847673
H106	H	0.183176	-1.008809	0.826347
H107	H	0.637900	-0.911553	0.874882
O108	O	0.032433	-0.214645	0.542190
H109	H	0.038937	-0.163904	0.492482
H110	H	0.071582	-0.606692	0.927876
H111	H	0.637644	-0.635235	0.737357
O112	O	0.269957	-0.782152	1.080269
H113	H	0.327892	-0.790940	1.039840
H114	H	0.637457	-0.634634	0.514159
O115	O	0.324136	-0.727766	0.917402
H116	H	0.349827	-0.789545	0.932423
O117	O	0.058089	-0.594800	0.873204
H118	H	0.022368	-0.543039	0.842128
O119	O	0.003777	-0.649075	0.818911
H120	H	-0.027231	-0.613380	0.854645
H121	H	0.256252	-0.770113	0.697763
H122	H	0.303660	-0.722726	0.745118
H123	H	0.454413	-0.827107	0.799589
O124	O	0.301921	-0.793022	0.856856
H125	H	0.316999	-0.834933	0.907708
O126	O	0.464710	-0.583808	0.702061
H127	H	0.449646	-0.541909	0.651199
O128	O	0.301855	-0.529516	0.756392
H129	H	0.342251	-0.498913	0.726112
H130	H	0.245557	-0.540066	0.687141
H131	H	0.198119	-0.397913	0.639797
H132	H	0.129609	-0.540114	0.919306
O133	O	0.070291	-0.387589	0.885410
H134	H	0.018553	-0.402627	0.921120
O135	O	0.032763	-0.574243	0.541955
H136	H	-0.025135	-0.537652	0.563278
