data_functionalizedCrystal
_audit_creation_method	'MofGen! by Chris Wilmer'
_symmetry_space_group_name_H-M	'P1'
_symmetry_Int_Tables_number	1
_symmetry_cell_setting	triclinic
loop_
_symmetry_equiv_pos_as_xyz
  x,y,z
_cell_length_a	18.215407
_cell_length_b	19.805404
_cell_length_c	18.215399
_cell_angle_alpha	89.968894
_cell_angle_beta	89.982632
_cell_angle_gamma	90.026795
loop_
_atom_site_label
_atom_site_type_symbol
_atom_site_fract_x
_atom_site_fract_y
_atom_site_fract_z
Zn1	Zn	1.125049	-0.269516	-0.416051
Zn2	Zn	1.124948	-0.382707	-0.292978
Zn3	Zn	1.001982	-0.269533	-0.293004
Zn4	Zn	1.001938	-0.382664	-0.416008
O5	O	1.063479	-0.326105	-0.354510
O6	O	1.228020	-0.284543	-0.399733
O7	O	1.108612	-0.367719	-0.189997
O8	O	1.018367	-0.174814	-0.309355
O9	O	1.227946	-0.367704	-0.309311
O10	O	1.108785	-0.174802	-0.399758
O11	O	1.018269	-0.284570	-0.190016
O12	O	0.898992	-0.284528	-0.309314
O13	O	1.018293	-0.367629	-0.518998
O14	O	0.898959	-0.367645	-0.399684
O15	O	1.108742	-0.284501	-0.519030
O16	O	1.108570	-0.477418	-0.309270
O17	O	1.018195	-0.477386	-0.399660
C18	C	0.872273	-0.326084	-0.354498
C19	C	0.790474	-0.326092	-0.354510
C20	C	0.602318	-0.282879	-0.401666
C21	C	0.525459	-0.282885	-0.401669
C22	C	0.525393	-0.369350	-0.307368
C23	C	0.602250	-0.369340	-0.307362
C24	C	0.640710	-0.326106	-0.354515
C25	C	0.486994	-0.326121	-0.354524
C26	C	0.403661	-0.326128	-0.354526
C27	C	0.724049	-0.326098	-0.354512
C28	C	1.063387	-0.501961	-0.354473
C29	C	1.063414	-0.577193	-0.354482
C30	C	1.110659	-1.038919	-0.401686
C31	C	1.110630	-0.968230	-0.401670
C32	C	1.063578	-0.932955	-0.354556
C33	C	1.016557	-0.968371	-0.307451
C34	C	1.016590	-1.039058	-0.307465
C35	C	1.016422	-0.683298	-0.307394
C36	C	1.016391	-0.612606	-0.307385
C37	C	1.110462	-0.612470	-0.401599
C38	C	1.110496	-0.683157	-0.401612
C39	C	1.063478	-0.718567	-0.354505
C40	C	1.063511	-0.795216	-0.354523
C41	C	1.063541	-0.856308	-0.354541
C42	C	1.255432	-0.326126	-0.354524
C43	C	1.337231	-0.326135	-0.354530
C44	C	1.063524	-0.326058	-0.546463
C45	C	1.063543	-0.326038	-0.628262
C46	C	1.063592	-0.149562	-0.354564
C47	C	1.063640	-0.074330	-0.354587
C48	C	1.110657	-0.282713	-0.816474
C49	C	1.110666	-0.282693	-0.893333
C50	C	1.016481	-0.369259	-0.893289
C51	C	1.016469	-0.369275	-0.816431
C52	C	1.063561	-0.326003	-0.778026
C53	C	1.063582	-0.325967	-0.931742
C54	C	1.063591	-0.325946	-1.015076
C55	C	1.063551	-0.326023	-0.694687
C56	C	1.063477	-0.326103	-0.163304
C57	C	1.063600	-0.325932	-0.081506
H58	H	0.633510	-0.404542	-0.268962
C59	C	0.964658	-0.416893	-0.774129
C60	C	0.996502	-0.470041	-0.721269
C61	C	0.944690	-0.517651	-0.678965
C62	C	0.861033	-0.512113	-0.689521
C63	C	0.829185	-0.458962	-0.742383
C64	C	0.880997	-0.411352	-0.784687
H65	H	1.058433	-0.474142	-0.713453
H66	H	0.968266	-0.556996	-0.639833
H67	H	0.822678	-0.547356	-0.658205
H68	H	0.767253	-0.454861	-0.750200
H69	H	0.857421	-0.372007	-0.823820
C70	C	0.483229	-0.235338	-0.453541
C71	C	0.430402	-0.264742	-0.511264
C72	C	0.388173	-0.217193	-0.563139
C73	C	0.398771	-0.140240	-0.557292
C74	C	0.451601	-0.110831	-0.499567
C75	C	0.493829	-0.158380	-0.447692
H76	H	0.422554	-0.321711	-0.515594
H77	H	0.349065	-0.238963	-0.605871
H78	H	0.367511	-0.105041	-0.595693
H79	H	0.459448	-0.053862	-0.495237
H80	H	0.532937	-0.136610	-0.404960
H81	H	0.633630	-0.247672	-0.440059
C82	C	0.964694	-0.416873	-0.935531
C83	C	0.881032	-0.411358	-0.924956
C84	C	0.829249	-0.458979	-0.967193
C85	C	0.861126	-0.512115	-1.020004
C86	C	0.944792	-0.517631	-1.030581
C87	C	0.996576	-0.470010	-0.988344
H88	H	0.857431	-0.372022	-0.885860
H89	H	0.767313	-0.454895	-0.959363
H90	H	0.822793	-0.547367	-1.051271
H91	H	0.968394	-0.556967	-1.069678
H92	H	1.058511	-0.474094	-0.996174
C93	C	1.162256	-0.721961	-0.453435
C94	C	1.130360	-0.770547	-0.511194
C95	C	1.182124	-0.809350	-0.563013
C96	C	1.265784	-0.799568	-0.557074
C97	C	1.297685	-0.750980	-0.499313
C98	C	1.245921	-0.712176	-0.447493
H99	H	1.068425	-0.777790	-0.515593
H100	H	1.158508	-0.845318	-0.605772
H101	H	1.304103	-0.828292	-0.595434
H102	H	1.359619	-0.743736	-0.494914
H103	H	1.269536	-0.676208	-0.404734
C104	C	0.483084	-0.416913	-0.255508
C105	C	0.398544	-0.416930	-0.255515
C106	C	0.356237	-0.464496	-0.203656
C107	C	0.398471	-0.512045	-0.151790
C108	C	0.483015	-0.512029	-0.151781
C109	C	0.525322	-0.464463	-0.203640
H110	H	0.367276	-0.381730	-0.293911
H111	H	0.293651	-0.464507	-0.203663
H112	H	0.367153	-0.547256	-0.113401
H113	H	0.514283	-0.547230	-0.113385
H114	H	0.587908	-0.464452	-0.203633
C115	C	1.162450	-0.235109	-0.774227
C116	C	1.214251	-0.187487	-0.816523
C117	C	1.266044	-0.139880	-0.774279
C118	C	1.266036	-0.139895	-0.689739
C119	C	1.214234	-0.187518	-0.647438
C120	C	1.162441	-0.235125	-0.689682
H121	H	1.214258	-0.187475	-0.879109
H122	H	1.304392	-0.104626	-0.805593
H123	H	1.304376	-0.104653	-0.658467
H124	H	1.214226	-0.187530	-0.584852
H125	H	1.124093	-0.270379	-0.658368
H126	H	1.148967	-1.067635	-0.440059
H127	H	1.148749	-0.583632	-0.439954
C128	C	0.964799	-0.929570	-0.255625
C129	C	0.913080	-0.968524	-0.203814
C130	C	0.861318	-0.929724	-0.151987
C131	C	0.861276	-0.851971	-0.151972
C132	C	0.912996	-0.813013	-0.203785
C133	C	0.964758	-0.851813	-0.255611
H134	H	0.913110	-1.026085	-0.203823
H135	H	0.823031	-0.958564	-0.113632
H136	H	0.822959	-0.823250	-0.113607
H137	H	0.912967	-0.755452	-0.203775
H138	H	1.003045	-0.822973	-0.293967
H139	H	1.149014	-0.247441	-0.924634
H140	H	1.148917	-0.939399	-0.440021
H141	H	0.978074	-0.583885	-0.269017
H142	H	0.978137	-0.712120	-0.269036
H143	H	0.978303	-1.067889	-0.269111
