data_functionalizedCrystal
_audit_creation_method	'MofGen! by Chris Wilmer'
_symmetry_space_group_name_H-M	'P1'
_symmetry_Int_Tables_number	1
_symmetry_cell_setting	triclinic
loop_
_symmetry_equiv_pos_as_xyz
  x,y,z
_cell_length_a	17.038272
_cell_length_b	15.186229
_cell_length_c	16.109298
_cell_angle_alpha	90.001652
_cell_angle_beta	87.285872
_cell_angle_gamma	90.002277
loop_
_atom_site_label
_atom_site_type_symbol
_atom_site_fract_x
_atom_site_fract_y
_atom_site_fract_z
O1	O	1.037362	-0.073101	0.180539
O2	O	1.537362	0.426899	0.680539
O3	O	0.809732	-0.073127	0.177672
O4	O	1.309732	0.426873	0.677672
O5	O	0.929801	-0.073119	0.058518
O6	O	1.429801	0.426881	0.558518
O7	O	0.917292	-0.073108	0.299692
O8	O	1.417292	0.426892	0.799692
O9	O	0.929793	0.073338	0.058516
O10	O	1.429793	0.573338	0.558516
O11	O	0.809724	0.073330	0.177669
O12	O	1.309724	0.573330	0.677669
O13	O	1.037354	0.073357	0.180536
O14	O	1.537354	0.573357	0.680536
Zn15	Zn	0.923538	0.096597	0.179102
Zn16	Zn	1.423538	0.596597	0.679102
Zn17	Zn	0.923548	-0.096367	0.179106
Zn18	Zn	1.423548	0.403633	0.679106
O19	O	0.917284	0.073349	0.299690
O20	O	1.417284	0.573349	0.799690
C21	C	0.780599	0.000098	0.175063
C22	C	1.280599	0.500098	0.675063
C23	C	0.693807	0.000088	0.167284
C24	C	1.193807	0.500088	0.667284
N25	N	0.923536	0.228289	0.179100
N26	N	1.423536	0.728289	0.679100
C27	C	0.929291	0.000106	0.027506
C28	C	1.429291	0.500106	0.527506
C29	C	0.927773	0.000095	-0.064897
C30	C	1.427773	0.500095	0.435103
C31	C	0.643691	0.000092	0.238705
C32	C	1.143691	0.500092	0.738705
C33	C	0.562141	0.000104	0.231391
C34	C	1.062141	0.500104	0.731391
C35	C	0.530707	0.000105	0.152655
C36	C	1.030707	0.500105	0.652655
C37	C	0.580829	0.000104	0.081229
C38	C	1.080829	0.500104	0.581229
C39	C	0.662378	0.000098	0.088544
C40	C	1.162378	0.500098	0.588544
C41	C	0.284950	0.000127	0.126813
C42	C	0.784950	0.500127	0.626813
C43	C	0.203395	0.000130	0.119503
C44	C	0.703395	0.500130	0.619503
C45	C	0.184712	0.000132	0.269666
C46	C	0.684712	0.500132	0.769666
C47	C	0.266263	0.000121	0.276974
C48	C	0.766263	0.500121	0.776974
C49	C	0.316378	0.000124	0.205548
C50	C	0.816378	0.500124	0.705548
C51	C	0.447350	0.000114	0.145177
C52	C	0.947350	0.500114	0.645177
C53	C	0.399733	0.000121	0.213026
C54	C	0.899733	0.500121	0.713026
C55	C	1.066486	0.000130	0.183145
C56	C	1.566486	0.500130	0.683145
C57	C	1.153279	0.000134	0.190924
C58	C	1.653279	0.500134	0.690924
N59	N	0.923556	-0.228060	0.179102
N60	N	1.423556	0.271940	0.679102
C61	C	0.976721	0.454016	0.126359
C62	C	1.476721	0.954016	0.626359
C63	C	0.976724	0.546205	0.126357
C64	C	1.476724	1.046205	0.626357
C65	C	0.870365	0.546208	0.231845
C66	C	1.370365	1.046208	0.731845
C67	C	0.870360	0.454020	0.231842
C68	C	1.370360	0.954020	0.731842
C69	C	0.923542	0.407926	0.179100
C70	C	1.423542	0.907926	0.679100
C71	C	0.923550	0.592304	0.179102
C72	C	1.423550	1.092304	0.679102
C73	C	0.923552	0.692260	0.179100
C74	C	1.423552	1.192260	0.679100
C75	C	0.923539	0.307964	0.179100
C76	C	1.423539	0.807964	0.679100
C77	C	0.922824	-0.079721	-0.364316
C78	C	1.422824	0.420279	0.135684
C79	C	0.924261	-0.079727	-0.277494
C80	C	1.424261	0.420273	0.222506
C81	C	0.924264	0.079949	-0.277482
C82	C	1.424264	0.579949	0.222518
C83	C	0.922832	0.079954	-0.364303
C84	C	1.422832	0.579954	0.135697
C85	C	0.922109	0.000117	-0.407717
C86	C	1.422109	0.500117	0.092283
C87	C	0.924977	0.000105	-0.234075
C88	C	1.424977	0.500105	0.265925
C89	C	0.926535	0.000099	-0.139938
C90	C	1.426535	0.500099	0.360062
C91	C	0.920552	0.000122	-0.501860
C92	C	1.420552	0.500122	-0.001860
C93	C	0.917795	0.000122	0.330702
C94	C	1.417795	0.500122	0.830702
C95	C	0.919312	0.000127	0.423105
C96	C	1.419312	0.500127	0.923105
H97	H	0.521339	0.000106	0.289549
H98	H	1.021339	0.500106	0.789549
C99	C	0.926364	-0.150636	-0.144406
C100	C	1.426364	0.349364	0.355594
C101	C	0.924979	-0.167486	-0.229782
C102	C	1.424979	0.332514	0.270218
H103	H	0.926793	-0.204819	-0.114952
H104	H	1.426793	0.295181	0.385048
H105	H	0.881057	-0.117792	-0.127085
H106	H	1.381057	0.382208	0.372915
H107	H	0.972190	-0.117882	-0.133281
H108	H	1.472190	0.382118	0.366719
H109	H	0.879150	-0.200235	-0.240909
H110	H	1.379150	0.299765	0.259091
H111	H	0.970290	-0.200344	-0.247110
H112	H	1.470290	0.299656	0.252890
H113	H	0.924851	0.144950	-0.242123
H114	H	1.424851	0.644950	0.257877
C115	C	0.823128	0.312700	0.278676
C116	C	1.323128	0.812700	0.778676
C117	C	0.811903	0.403350	0.289821
C118	C	1.311903	0.903350	0.789821
H119	H	0.787036	0.281420	0.314464
H120	H	1.287036	0.781420	0.814464
H121	H	0.875296	0.297598	0.291425
H122	H	1.375296	0.797598	0.791425
H123	H	0.814650	0.297604	0.222579
H124	H	1.314650	0.797604	0.722579
H125	H	0.820387	0.418447	0.345917
H126	H	1.320387	0.918447	0.845917
H127	H	0.759722	0.418458	0.277078
H128	H	1.259722	0.918458	0.777078
C129	C	0.382974	0.000052	0.354860
C130	C	0.882974	0.500052	0.854860
C131	C	0.300813	0.000080	0.363522
C132	C	0.800813	0.500080	0.863522
H133	H	0.404302	0.000007	0.408292
H134	H	0.904302	0.500007	0.908292
H135	H	0.400187	0.051133	0.325242
H136	H	0.900187	0.551133	0.825242
H137	H	0.400153	-0.051014	0.325180
H138	H	0.900153	0.448986	0.825180
H139	H	0.283633	0.051150	0.393196
H140	H	0.783633	0.551150	0.893196
H141	H	0.283592	-0.051006	0.393152
H142	H	0.783592	0.448994	0.893152
H143	H	0.669277	0.000090	0.302820
H144	H	1.169277	0.500090	0.802820
C145	C	0.735010	0.574606	0.271006
C146	C	1.235010	1.074606	0.771006
C147	C	0.811912	0.596881	0.289817
C148	C	1.311912	1.096881	0.789817
H149	H	0.698925	0.605894	0.306794
H150	H	1.198925	1.105894	0.806794
H151	H	0.727399	0.513114	0.278558
H152	H	1.227399	1.013114	0.778558
H153	H	0.726549	0.589718	0.214911
H154	H	1.226549	1.089718	0.714911
H155	H	0.820375	0.581762	0.345911
H156	H	1.320375	1.081762	0.845911
H157	H	0.819527	0.658386	0.282273
H158	H	1.319527	1.158386	0.782273
C159	C	1.083091	0.350292	0.115843
C160	C	1.583091	0.850292	0.615843
C161	C	1.035136	0.403326	0.068358
C162	C	1.535136	0.903326	0.568358
H163	H	1.119145	0.318998	0.080025
H164	H	1.619145	0.818998	0.580025
H165	H	1.051419	0.309669	0.147266
H166	H	1.551419	0.809669	0.647266
H167	H	1.111242	0.386248	0.152434
H168	H	1.611242	0.886248	0.652434
H169	H	1.006981	0.367369	0.031771
H170	H	1.506981	0.867369	0.531771
H171	H	1.066812	0.443954	0.036921
H172	H	1.566812	0.943954	0.536921
C173	C	0.922947	-0.237553	-0.355604
C174	C	1.422947	0.262447	0.144396
C175	C	0.922019	-0.167477	-0.412038
C176	C	1.422019	0.332523	0.087962
H177	H	0.922450	-0.291730	-0.385065
H178	H	1.422450	0.208270	0.114935
H179	H	0.877948	-0.234223	-0.318616
H180	H	1.377948	0.265777	0.181384
H181	H	0.969079	-0.234236	-0.324867
H182	H	1.469079	0.265764	0.175133
H183	H	0.875884	-0.170790	-0.442771
H184	H	1.375884	0.329210	0.057229
H185	H	0.967023	-0.170808	-0.449041
H186	H	1.467023	0.329192	0.050959
H187	H	1.020026	0.583729	0.083410
H188	H	1.520026	1.083729	0.583410
C189	C	0.922970	0.237793	-0.355576
C190	C	1.422970	0.737793	0.144424
C191	C	0.922043	0.167718	-0.412015
C192	C	1.422043	0.667718	0.087985
H193	H	0.922480	0.291971	-0.385033
H194	H	1.422480	0.791971	0.114967
H195	H	0.969091	0.234475	-0.324834
H196	H	1.469091	0.734475	0.175166
H197	H	0.877959	0.234464	-0.318591
H198	H	1.377959	0.734464	0.181409
H199	H	0.967057	0.171044	-0.448996
H200	H	1.467057	0.671044	0.051004
H201	H	0.875917	0.171039	-0.442771
H202	H	1.375917	0.671039	0.057229
C203	C	0.295214	0.000120	-0.022349
C204	C	0.795214	0.500120	0.477651
C205	C	0.340029	0.000124	0.048301
C206	C	0.840029	0.500124	0.548301
H207	H	0.329222	0.000113	-0.070819
H208	H	0.829222	0.500113	0.429181
H209	H	0.263023	0.051190	-0.022076
H210	H	0.763023	0.551190	0.477924
H211	H	0.263013	-0.050956	-0.022070
H212	H	0.763013	0.449044	0.477930
H213	H	0.372226	0.051204	0.048026
H214	H	0.872226	0.551204	0.548026
H215	H	0.372234	-0.050952	0.048028
H216	H	0.872234	0.449048	0.548028
H217	H	0.143900	0.000131	0.327816
H218	H	0.643900	0.500131	0.827816
H219	H	0.555230	0.000118	0.017121
H220	H	1.055230	0.500118	0.517121
C221	C	0.086680	0.000136	0.041618
C222	C	0.586680	0.500136	0.541618
C223	C	0.168841	0.000138	0.032951
C224	C	0.668841	0.500138	0.532951
H225	H	0.065349	0.000135	-0.011813
H226	H	0.565349	0.500135	0.488187
H227	H	0.069486	0.051203	0.071269
H228	H	0.569486	0.551203	0.571269
H229	H	0.069484	-0.050943	0.071266
H230	H	0.569484	0.449057	0.571266
H231	H	0.186037	0.051220	0.003308
H232	H	0.686037	0.551220	0.503308
H233	H	0.186042	-0.050935	0.003287
H234	H	0.686042	0.449065	0.503287
C235	C	0.672660	0.000082	-0.060618
C236	C	1.172660	0.500082	0.439382
C237	C	0.717469	0.000086	0.010036
C238	C	1.217469	0.500086	0.510036
H239	H	0.706671	0.000071	-0.109086
H240	H	1.206671	0.500071	0.390914
H241	H	0.640471	0.051155	-0.060350
H242	H	1.140471	0.551155	0.439650
H243	H	0.640456	-0.050992	-0.060341
H244	H	1.140456	0.449008	0.439659
H245	H	0.749668	0.051163	0.009762
H246	H	1.249668	0.551163	0.509762
H247	H	0.749670	-0.050992	0.009768
H248	H	1.249670	0.449008	0.509768
H249	H	0.425330	0.000125	0.277133
H250	H	0.925330	0.500125	0.777133
H251	H	0.421748	0.000141	0.081070
H252	H	0.921748	0.500141	0.581070
