data_functionalizedCrystal
_audit_creation_method	'MofGen! by Chris Wilmer'
_symmetry_space_group_name_H-M	'P1'
_symmetry_Int_Tables_number	1
_symmetry_cell_setting	triclinic
loop_
_symmetry_equiv_pos_as_xyz
  x,y,z
_cell_length_a	12.759401
_cell_length_b	16.120531
_cell_length_c	12.759393
_cell_angle_alpha	87.139487
_cell_angle_beta	89.980324
_cell_angle_gamma	87.067419
loop_
_atom_site_label
_atom_site_type_symbol
_atom_site_fract_x
_atom_site_fract_y
_atom_site_fract_z
Zn1	Zn	1.584934	0.331856	-0.615124
Zn2	Zn	1.575861	0.471292	-0.448326
Zn3	Zn	1.409230	0.331898	-0.439465
Zn4	Zn	1.400265	0.471231	-0.623963
O5	O	1.492572	0.401569	-0.531720
O6	O	1.730751	0.350361	-0.593007
O7	O	1.553712	0.452844	-0.300132
O8	O	1.440086	0.215227	-0.455360
O9	O	1.724085	0.452803	-0.470461
O10	O	1.569175	0.215197	-0.584415
O11	O	1.431289	0.350432	-0.293622
O12	O	1.261020	0.350373	-0.463931
O13	O	1.424806	0.452699	-0.769809
O14	O	1.254433	0.452740	-0.599480
O15	O	1.560482	0.350302	-0.763315
O16	O	1.545019	0.587949	-0.479032
O17	O	1.416009	0.587904	-0.608072
C18	C	1.219606	0.401555	-0.531704
C19	C	1.102828	0.401569	-0.531723
C20	C	1.051431	0.348323	-0.595643
C21	C	0.941707	0.348332	-0.595650
C22	C	0.934785	0.454838	-0.467816
C23	C	1.044508	0.454825	-0.467804
C24	C	0.798104	0.250063	-0.627159
C25	C	0.746703	0.196825	-0.691095
C26	C	0.783179	0.184119	-0.792824
C27	C	0.871052	0.224663	-0.830639
C28	C	0.922448	0.277907	-0.766708
C29	C	0.885975	0.290597	-0.664964
C30	C	1.188112	0.553095	-0.436306
C31	C	1.239509	0.606344	-0.372381
C32	C	1.203035	0.619059	-0.270650
C33	C	1.115157	0.578530	-0.232841
C34	C	1.063760	0.525281	-0.296766
C35	C	1.100242	0.512564	-0.398495
C36	C	1.478586	0.618177	-0.545495
C37	C	1.472698	0.710842	-0.551424
C38	C	1.461955	0.880503	-0.562269
C39	C	1.523229	0.921795	-0.501110
C40	C	1.517251	1.016200	-0.507145
C41	C	1.467931	0.786089	-0.556236
C42	C	1.766605	0.401584	-0.531736
C43	C	1.883381	0.401591	-0.531743
C44	C	1.492656	0.401489	-0.805748
C45	C	1.492692	0.401455	-0.922522
C46	C	1.506605	1.184116	-0.517894
C47	C	1.512489	1.091450	-0.511953
C48	C	1.563343	0.348128	-0.974004
C49	C	1.563364	0.348092	-1.083726
C50	C	1.422077	0.454717	-1.090475
C51	C	1.422053	0.454748	-0.980755
C52	C	1.607299	0.249730	-1.227438
C53	C	1.677966	0.196410	-1.278923
C54	C	1.781301	0.183627	-1.242515
C55	C	1.813988	0.224177	-1.154624
C56	C	1.743325	0.277502	-1.103145
C57	C	1.639977	0.290269	-1.139550
C58	C	1.378128	0.553112	-0.837042
C59	C	1.307470	0.606443	-0.785560
C60	C	1.204133	0.619234	-0.821967
C61	C	1.171449	0.578699	-0.909862
C62	C	1.242107	0.525369	-0.961344
C63	C	1.345443	0.512576	-0.924930
C64	C	1.492553	0.401589	-0.258753
C65	C	1.492736	0.401388	-0.141964
H66	H	1.244871	0.662442	-0.218617
Cl67	Cl	1.348564	0.657410	-0.675069
Cl68	Cl	1.349983	0.657300	-0.419918
H69	H	1.580175	0.886245	-0.444218
Cl70	Cl	0.861461	0.521788	-0.387470
Cl71	Cl	1.374036	0.935386	-0.650098
Cl72	Cl	1.124745	0.281369	-0.675993
H73	H	1.085455	0.588887	-0.150006
Cl74	Cl	1.652143	0.281127	-0.900801
Cl75	Cl	1.508032	0.537008	-0.791242
Cl76	Cl	1.032910	0.328874	-0.814237
H77	H	1.769940	0.310520	-1.031589
H78	H	0.992205	0.492280	-0.265973
Cl79	Cl	1.233980	0.537105	-0.564198
H80	H	1.898137	0.213770	-1.124994
H81	H	0.900737	0.214319	-0.913481
H82	H	1.364567	0.498109	-1.137902
H83	H	0.741320	0.140770	-0.844881
H84	H	1.838839	0.140212	-1.284443
Cl85	Cl	0.636223	0.145873	-0.643565
H86	H	1.523154	0.260126	-1.257084
Cl87	Cl	0.752254	0.266020	-0.499258
H88	H	1.651343	0.163395	-1.350485
Cl89	Cl	1.201017	0.474408	-1.071841
H90	H	1.087305	0.589117	-0.939508
H91	H	1.146607	0.662668	-0.780046
