data_functionalizedCrystal
_audit_creation_method	'MofGen! by Chris Wilmer'
_symmetry_space_group_name_H-M	'P1'
_symmetry_Int_Tables_number	1
_symmetry_cell_setting	triclinic
loop_
_symmetry_equiv_pos_as_xyz
  x,y,z
_cell_length_a	16.959455
_cell_length_b	18.101397
_cell_length_c	18.101398
_cell_angle_alpha	90.020807
_cell_angle_beta	90.009167
_cell_angle_gamma	90.017413
loop_
_atom_site_label
_atom_site_type_symbol
_atom_site_fract_x
_atom_site_fract_y
_atom_site_fract_z
Zn1	Zn	1.208341	-0.294969	0.418698
Zn2	Zn	1.708341	0.205031	0.918698
Zn3	Zn	1.208275	-0.418794	0.294850
Zn4	Zn	1.708275	0.081206	0.794850
Zn5	Zn	1.076182	-0.294965	0.294873
Zn6	Zn	1.576182	0.205035	0.794873
Zn7	Zn	1.076134	-0.418767	0.418653
Zn8	Zn	1.576134	0.081233	0.918653
O9	O	1.142233	-0.356874	0.356768
O10	O	1.642233	0.143126	0.856768
O11	O	1.318943	-0.311408	0.402278
O12	O	1.818943	0.188592	0.902278
O13	O	1.190745	-0.402378	0.191220
O14	O	1.690745	0.097622	0.691220
O15	O	1.093761	-0.191332	0.311326
O16	O	1.593761	0.308668	0.811326
O17	O	1.318895	-0.402382	0.311288
O18	O	1.818895	0.097618	0.811288
O19	O	1.190858	-0.191336	0.402300
O20	O	1.690858	0.308664	0.902300
O21	O	1.093696	-0.311401	0.191237
O22	O	1.593696	0.188599	0.691237
O23	O	0.965564	-0.311374	0.311283
O24	O	1.465564	0.188626	0.811283
O25	O	1.093679	-0.402335	0.522292
O26	O	1.593679	0.097665	1.022292
O27	O	0.965529	-0.402331	0.402224
O28	O	1.465529	0.097669	0.902224
O29	O	1.190811	-0.311382	0.522324
O30	O	1.690811	0.188618	1.022324
O31	O	1.190698	-0.522424	0.311245
O32	O	1.690698	-0.022424	0.811245
O33	O	1.093614	-0.522403	0.402202
O34	O	1.593614	-0.022403	0.902202
C35	C	0.936867	-0.356849	0.356751
C36	C	1.436867	0.143151	0.856751
C37	C	0.849010	-0.356857	0.356762
C38	C	1.349010	0.143143	0.856762
C39	C	0.477528	-0.309474	0.309514
C40	C	0.977528	0.190526	0.809514
C41	C	0.477540	-0.404335	0.404065
C42	C	0.977540	0.095665	0.904065
C43	C	0.560086	-0.404324	0.404060
C44	C	1.060086	0.095676	0.904060
C45	C	0.601357	-0.356888	0.356781
C46	C	1.101357	0.143112	0.856781
C47	C	0.560082	-0.309463	0.309507
C48	C	1.060082	0.190537	0.809507
C49	C	0.601368	-0.451754	0.451328
C50	C	1.101368	0.048246	0.951328
C51	C	0.683919	-0.451746	0.451325
C52	C	1.183919	0.048254	0.951325
C53	C	0.725191	-0.404306	0.404049
C54	C	1.225191	0.095694	0.904049
C55	C	0.683911	-0.356878	0.356774
C56	C	1.183911	0.143122	0.856774
C57	C	0.725181	-0.309442	0.309495
C58	C	1.225181	0.190558	0.809495
C59	C	0.683903	-0.262010	0.262222
C60	C	1.183903	0.237990	0.762222
C61	C	0.601354	-0.262023	0.262231
C62	C	1.101354	0.237977	0.762231
C63	C	0.807739	-0.404293	0.404041
C64	C	1.307739	0.095707	0.904041
C65	C	0.807735	-0.309432	0.309487
C66	C	1.307735	0.190568	0.809487
C67	C	1.142165	-0.549284	0.356732
C68	C	1.642165	-0.049284	0.856732
C69	C	1.142209	-0.631599	0.356742
C70	C	1.642209	-0.131599	0.856742
C71	C	1.142310	-0.930689	0.356809
C72	C	1.642310	-0.430689	0.856809
C73	C	1.203222	-0.899346	0.299428
C74	C	1.703222	-0.399346	0.799428
C75	C	1.203433	-0.813728	0.299577
C76	C	1.703433	-0.313728	0.799577
C77	C	1.142260	-0.782307	0.356775
C78	C	1.642260	-0.282307	0.856775
C79	C	1.164827	-0.813329	0.434835
C80	C	1.664827	-0.313329	0.934835
C81	C	1.165299	-0.898974	0.434523
C82	C	1.665299	-0.398974	0.934523
C83	C	1.058667	-0.899191	0.336806
C84	C	1.558667	-0.399191	0.836806
C85	C	1.059081	-0.813541	0.335063
C86	C	1.559081	-0.313541	0.835063
C87	C	1.142230	-0.698447	0.356761
C88	C	1.642230	-0.198447	0.856761
C89	C	1.142341	-1.014549	0.356829
C90	C	1.642341	-0.514549	0.856829
C91	C	1.348401	-0.356899	0.356786
C92	C	1.848401	0.143101	0.856786
C93	C	1.436258	-0.356910	0.356793
C94	C	1.936258	0.143090	0.856793
C95	C	1.142247	-0.356856	0.549930
C96	C	1.642247	0.143144	1.049930
C97	C	1.142253	-0.356848	0.632244
C98	C	1.642253	0.143152	1.132244
C99	C	1.142322	-0.163712	0.356821
C100	C	1.642322	0.336288	0.856821
C101	C	1.142360	-0.081398	0.356843
C102	C	1.642360	0.418602	0.856843
C103	C	1.142245	-0.356879	0.931335
C104	C	1.642245	0.143121	1.431335
C105	C	1.203565	-0.299847	0.900031
C106	C	1.703565	0.200153	1.400031
C107	C	1.203388	-0.299613	0.814413
C108	C	1.703388	0.200387	1.314413
C109	C	1.142250	-0.356864	0.782953
C110	C	1.642250	0.143136	1.282953
C111	C	1.058971	-0.335664	0.814029
C112	C	1.558971	0.164336	1.314029
C113	C	1.059323	-0.335259	0.899674
C114	C	1.559323	0.164741	1.399674
C115	C	1.163477	-0.435249	0.899743
C116	C	1.663477	0.064751	1.399743
C117	C	1.165319	-0.434827	0.814093
C118	C	1.665319	0.065173	1.314093
C119	C	1.142248	-0.356856	0.699093
C120	C	1.642248	0.143144	1.199093
C121	C	1.142242	-0.356885	1.015195
C122	C	1.642242	0.143115	1.515195
C123	C	1.142222	-0.356903	1.164358
C124	C	1.642222	0.143097	1.664358
C125	C	1.142242	-0.356895	1.082044
C126	C	1.642242	0.143105	1.582044
H127	H	0.841345	-0.442913	0.442527
H128	H	1.341345	0.057087	0.942527
N129	N	1.184749	-0.926692	0.222534
N130	N	1.684749	-0.426692	0.722534
H131	H	1.231143	-0.955573	0.202808
H132	H	1.731143	-0.455573	0.702808
H133	H	1.173984	-0.883134	0.189176
H134	H	1.673984	-0.383134	0.689176
H135	H	1.189340	-0.241544	0.793943
H136	H	1.689340	0.258456	1.293943
H137	H	0.567759	-0.490379	0.489815
H138	H	1.067759	0.009621	0.989815
H139	H	0.717521	-0.490367	0.489818
H140	H	1.217521	0.009633	0.989818
H141	H	1.265141	-0.312889	0.793403
H142	H	1.765141	0.187111	1.293403
N143	N	0.728413	-0.210847	0.211226
N144	N	1.228413	0.289153	0.711226
H145	H	0.762645	-0.240892	0.176849
H146	H	1.262645	0.259108	0.676849
H147	H	0.762636	-0.176582	0.241435
H148	H	1.262636	0.323418	0.741435
H149	H	1.123913	-0.479593	0.792675
H150	H	1.623913	0.020407	1.292675
H151	H	1.012081	-0.374991	0.920381
H152	H	1.512081	0.125009	1.420381
N153	N	1.242533	-0.460805	0.928349
N154	N	1.742533	0.039195	1.428349
H155	H	1.254994	-0.511184	0.907391
H156	H	1.754994	-0.011184	1.407391
H157	H	1.240829	-0.463706	0.984044
H158	H	1.740829	0.036294	1.484044
H159	H	1.122876	-0.919706	0.478750
H160	H	1.622876	-0.419706	0.978750
H161	H	1.189315	-0.792755	0.241697
H162	H	1.689315	-0.292755	0.741697
H163	H	1.041327	-0.277970	0.919668
H164	H	1.541327	0.222030	1.419668
N165	N	1.284846	-0.927788	0.316749
N166	N	1.784846	-0.427788	0.816749
H167	H	1.282538	-0.960887	0.361604
H168	H	1.782538	-0.460887	0.861604
H169	H	1.321097	-0.884715	0.327019
H170	H	1.821097	-0.384715	0.827019
N171	N	0.996812	-0.388973	0.787038
N172	N	1.496812	0.111027	1.287038
H173	H	1.022099	-0.427471	0.754327
H174	H	1.522099	0.072529	1.254327
H175	H	0.955560	-0.361125	0.758006
H176	H	1.455560	0.138875	1.258006
N177	N	1.285621	-0.317212	0.927332
N178	N	1.785621	0.182788	1.427332
H179	H	1.324048	-0.279963	0.906606
H180	H	1.824048	0.220037	1.406606
H181	H	1.301095	-0.368430	0.910609
H182	H	1.801095	0.131570	1.410609
N183	N	1.107868	-0.786368	0.492999
N184	N	1.607868	-0.286368	0.992999
H185	H	1.081171	-0.830076	0.517017
H186	H	1.581171	-0.330076	1.017017
H187	H	1.066833	-0.753695	0.469200
H188	H	1.566833	-0.253695	0.969200
N189	N	0.998546	-0.926038	0.392160
N190	N	1.498546	-0.426038	0.892160
H191	H	1.025315	-0.958446	0.430015
H192	H	1.525315	-0.458446	0.930015
H193	H	0.956411	-0.955355	0.365765
H194	H	1.456411	-0.455355	0.865765
H195	H	1.040655	-0.279001	0.792594
H196	H	1.540655	0.220999	1.292594
H197	H	1.265390	-0.793189	0.312812
H198	H	1.765390	-0.293189	0.812812
H199	H	1.189688	-0.242112	0.921571
H200	H	1.689688	0.257888	1.421571
H201	H	1.118819	-0.477744	0.919993
H202	H	1.618819	0.022256	1.419993
N203	N	0.852247	-0.258260	0.258501
N204	N	1.352247	0.241740	0.758501
H205	H	0.813569	-0.228215	0.228560
H206	H	1.313569	0.271785	0.728560
H207	H	0.886482	-0.288345	0.224167
H208	H	1.386482	0.211655	0.724167
N209	N	0.556834	-0.210892	0.211225
N210	N	1.056834	0.289108	0.711225
H211	H	0.498278	-0.218108	0.218395
H212	H	0.998278	0.281892	0.718395
H213	H	0.571262	-0.222363	0.158321
H214	H	1.071262	0.277637	0.658321
N215	N	1.244910	-0.784862	0.457662
N216	N	1.744910	-0.284862	0.957662
H217	H	1.266684	-0.751878	0.417558
H218	H	1.766684	-0.251878	0.917558
H219	H	1.281764	-0.827935	0.465692
H220	H	1.781764	-0.327935	0.965692
H221	H	1.226437	-0.918898	0.451468
H222	H	1.726437	-0.418898	0.951468
H223	H	1.226605	-0.450814	0.793781
H224	H	1.726605	0.049186	1.293781
H225	H	1.038134	-0.920841	0.280872
H226	H	1.538134	-0.420841	0.780872
H227	H	1.042064	-0.793272	0.277617
H228	H	1.542064	-0.293272	0.777617
H229	H	0.443916	-0.270854	0.271028
H230	H	0.943916	0.229146	0.771028
H231	H	0.443933	-0.442959	0.442553
H232	H	0.943933	0.057041	0.942553
N233	N	0.995722	-0.785207	0.386352
N234	N	1.495722	-0.285207	0.886352
H235	H	1.020150	-0.751576	0.424564
H236	H	1.520150	-0.251576	0.924564
H237	H	0.969415	-0.828292	0.411825
H238	H	1.469415	-0.328292	0.911825
