data_functionalizedCrystal
_audit_creation_method	'MofGen! by Chris Wilmer'
_symmetry_space_group_name_H-M	'P1'
_symmetry_Int_Tables_number	1
_symmetry_cell_setting	triclinic
loop_
_symmetry_equiv_pos_as_xyz
  x,y,z
_cell_length_a	14.044209
_cell_length_b	13.101039
_cell_length_c	14.044220
_cell_angle_alpha	93.667477
_cell_angle_beta	93.188415
_cell_angle_gamma	86.340786
loop_
_atom_site_label
_atom_site_type_symbol
_atom_site_fract_x
_atom_site_fract_y
_atom_site_fract_z
O1	O	-1.281968	0.085094	-0.225339
O2	O	-1.031968	0.335094	0.024661
O3	O	-0.781968	0.585094	0.274661
O4	O	-0.531968	0.835094	0.524661
O5	O	-1.005298	0.085123	-0.217034
O6	O	-0.755298	0.335123	0.032966
O7	O	-0.505298	0.585123	0.282966
O8	O	-0.255298	0.835123	0.532966
O9	O	-1.139480	0.085099	-0.082851
O10	O	-0.889480	0.335099	0.167149
O11	O	-0.639480	0.585099	0.417149
O12	O	-0.389480	0.835099	0.667149
O13	O	-1.147787	0.085118	-0.359521
O14	O	-0.897787	0.335118	-0.109521
O15	O	-0.647787	0.585118	0.140479
O16	O	-0.397787	0.835118	0.390479
O17	O	-1.129854	-0.085329	-0.092496
O18	O	-0.879854	0.164671	0.157504
O19	O	-0.629854	0.414671	0.407504
O20	O	-0.379854	0.664671	0.657504
O21	O	-0.995672	-0.085305	-0.226679
O22	O	-0.745672	0.164695	0.023321
O23	O	-0.495672	0.414695	0.273321
O24	O	-0.245672	0.664695	0.523321
O25	O	-1.272342	-0.085334	-0.234984
O26	O	-1.022342	0.164666	0.015016
O27	O	-0.772342	0.414666	0.265016
O28	O	-0.522342	0.664666	0.515016
Zn29	Zn	-1.132479	-0.112379	-0.232362
Zn30	Zn	-0.882479	0.137621	0.017638
Zn31	Zn	-0.632479	0.387621	0.267638
Zn32	Zn	-0.382479	0.637621	0.517638
Zn33	Zn	-1.145161	0.112168	-0.219655
Zn34	Zn	-0.895161	0.362168	0.030345
Zn35	Zn	-0.645161	0.612168	0.280345
Zn36	Zn	-0.395161	0.862168	0.530345
O37	O	-1.138161	-0.085310	-0.369166
O38	O	-0.888161	0.164690	-0.119166
O39	O	-0.638161	0.414690	0.130834
O40	O	-0.388161	0.664690	0.380834
C41	C	-0.964864	-0.000087	-0.218221
C42	C	-0.714864	0.249913	0.031779
C43	C	-0.464864	0.499913	0.281779
C44	C	-0.214864	0.749913	0.531779
C45	C	-0.858721	-0.000077	-0.207376
C46	C	-0.608721	0.249923	0.042624
C47	C	-0.358721	0.499923	0.292624
C48	C	-0.108721	0.749923	0.542624
C49	C	-0.664383	-0.000096	-0.187553
C50	C	-0.414383	0.249904	0.062447
C51	C	-0.164383	0.499904	0.312447
C52	C	0.085617	0.749904	0.562447
C53	C	-0.613253	-0.000094	-0.264467
C54	C	-0.363253	0.249906	-0.014467
C55	C	-0.113253	0.499906	0.235533
C56	C	0.136747	0.749906	0.485533
C57	C	-0.505116	-0.000105	-0.253437
C58	C	-0.255116	0.249895	-0.003437
C59	C	-0.005116	0.499895	0.246563
C60	C	0.244884	0.749895	0.496563
C61	C	-0.772529	-0.000085	-0.198581
C62	C	-0.522529	0.249915	0.051419
C63	C	-0.272529	0.499915	0.301419
C64	C	-0.022529	0.749915	0.551419
N65	N	-1.123830	-0.265626	-0.241035
N66	N	-0.873830	-0.015626	0.008965
N67	N	-0.623830	0.234374	0.258965
N68	N	-0.373830	0.484374	0.508965
C69	C	-1.112064	-0.474666	-0.252843
C70	C	-0.862064	-0.224666	-0.002843
C71	C	-0.612064	0.025334	0.247157
C72	C	-0.362064	0.275334	0.497157
C73	C	-1.165580	-0.525551	-0.199170
C74	C	-0.915580	-0.275551	0.050830
C75	C	-0.665580	-0.025551	0.300830
C76	C	-0.415580	0.224449	0.550830
C77	C	-1.159033	-0.641869	-0.205740
C78	C	-0.909033	-0.391869	0.044260
C79	C	-0.659033	-0.141869	0.294260
C80	C	-0.409033	0.108131	0.544260
C81	C	-1.118610	-0.358338	-0.246274
C82	C	-0.868610	-0.108338	0.003726
C83	C	-0.618610	0.141662	0.253726
C84	C	-0.368610	0.391662	0.503726
C85	C	-0.312777	-0.000118	-0.233798
C86	C	-0.062777	0.249882	0.016202
C87	C	0.187223	0.499882	0.266202
C88	C	0.437223	0.749882	0.516202
C89	C	-0.418920	-0.000114	-0.244648
C90	C	-0.168920	0.249886	0.005352
C91	C	0.081080	0.499886	0.255352
C92	C	0.331080	0.749886	0.505352
C93	C	-1.131031	-0.000115	-0.052052
C94	C	-0.881031	0.249885	0.197948
C95	C	-0.631031	0.499885	0.447948
C96	C	-0.381031	0.749885	0.697948
C97	C	-1.120187	-0.000115	0.054091
C98	C	-0.870187	0.249885	0.304091
C99	C	-0.620187	0.499885	0.554091
C100	C	-0.370187	0.749885	0.804091
N101	N	-1.153817	0.265415	-0.210975
N102	N	-0.903817	0.515415	0.039025
N103	N	-0.653817	0.765415	0.289025
N104	N	-0.403817	1.015415	0.539025
C105	C	-1.146609	-0.000093	-0.399965
C106	C	-0.896609	0.249907	-0.149965
C107	C	-0.646609	0.499907	0.100035
C108	C	-0.396609	0.749907	0.350035
C109	C	-1.157454	-0.000087	-0.506108
C110	C	-0.907454	0.249913	-0.256108
C111	C	-0.657454	0.499913	-0.006108
C112	C	-0.407454	0.749913	0.243892
C113	C	-1.100361	-0.000099	0.248429
C114	C	-0.850361	0.249901	0.498429
C115	C	-0.600361	0.499901	0.748429
C116	C	-0.350361	0.749901	0.998429
C117	C	-1.177275	-0.000103	0.299560
C118	C	-0.927275	0.249897	0.549560
C119	C	-0.677275	0.499897	0.799560
C120	C	-0.427275	0.749897	1.049560
C121	C	-1.166244	-0.000094	0.407696
C122	C	-0.916244	0.249906	0.657696
C123	C	-0.666244	0.499906	0.907696
C124	C	-0.416244	0.749906	1.157696
C125	C	-1.111391	-0.000108	0.140283
C126	C	-0.861391	0.249892	0.390283
C127	C	-0.611391	0.499892	0.640283
C128	C	-0.361391	0.749892	0.890283
H129	H	-0.626945	-0.000106	-0.113426
H130	H	-0.376945	0.249894	0.136574
H131	H	-0.126945	0.499894	0.386574
H132	H	0.123055	0.749894	0.636574
N133	N	-1.007358	-0.000089	0.295369
N134	N	-0.757358	0.249911	0.545369
N135	N	-0.507358	0.499911	0.795369
N136	N	-0.257358	0.749911	1.045369
N137	N	-0.954924	0.071747	0.285685
N138	N	-0.704924	0.321747	0.535685
N139	N	-0.454924	0.571747	0.785685
N140	N	-0.204924	0.821747	1.035685
H141	H	-0.889239	0.071749	0.318843
H142	H	-0.639239	0.321749	0.568843
H143	H	-0.389239	0.571749	0.818843
H144	H	-0.139239	0.821749	1.068843
H145	H	-0.650693	-0.000085	-0.338600
H146	H	-0.400693	0.249915	-0.088600
H147	H	-0.150693	0.499915	0.161400
H148	H	0.099307	0.749915	0.411400
H149	H	-1.216314	-0.481758	-0.148286
H150	H	-0.966314	-0.231758	0.101714
H151	H	-0.716314	0.018242	0.351714
H152	H	-0.466314	0.268242	0.601714
H153	H	-1.251412	-0.000042	0.262125
H154	H	-1.001412	0.249958	0.512125
H155	H	-0.751412	0.499958	0.762125
H156	H	-0.501412	0.749958	1.012125
H157	H	-1.061335	-0.518454	-0.303725
H158	H	-0.811335	-0.268454	-0.053725
H159	H	-0.561335	-0.018454	0.196275
H160	H	-0.311335	0.231546	0.446275
