data_functionalizedCrystal
_audit_creation_method	'MofGen! by Chris Wilmer'
_symmetry_space_group_name_H-M	'P1'
_symmetry_Int_Tables_number	1
_symmetry_cell_setting	triclinic
loop_
_symmetry_equiv_pos_as_xyz
  x,y,z
_cell_length_a	15.297475
_cell_length_b	16.959454
_cell_length_c	16.959447
_cell_angle_alpha	89.973264
_cell_angle_beta	80.319168
_cell_angle_gamma	80.323279
loop_
_atom_site_label
_atom_site_type_symbol
_atom_site_fract_x
_atom_site_fract_y
_atom_site_fract_z
Zn1	Zn	1.379200	-0.524102	-0.655726
Zn2	Zn	1.379111	-0.656281	-0.523543
Zn3	Zn	1.228345	-0.501226	-0.500726
Zn4	Zn	1.228304	-0.633328	-0.632850
O5	O	1.303740	-0.578734	-0.578211
O6	O	1.505435	-0.560815	-0.657314
O7	O	1.359092	-0.635744	-0.409902
O8	O	1.248410	-0.393657	-0.521312
O9	O	1.505370	-0.657926	-0.560200
O10	O	1.359243	-0.410464	-0.635190
O11	O	1.248324	-0.521826	-0.393139
O12	O	1.102093	-0.499570	-0.499130
O13	O	1.248341	-0.618807	-0.746499
O14	O	1.102063	-0.596625	-0.596201
O15	O	1.359203	-0.538559	-0.763306
O16	O	1.359053	-0.763839	-0.538018
O17	O	1.248255	-0.746975	-0.618326
C18	C	1.069343	-0.543125	-0.542708
C19	C	0.969068	-0.527910	-0.527538
C20	C	0.686445	-0.687481	-0.686634
C21	C	0.780659	-0.701782	-0.700885
C22	C	0.827766	-0.658315	-0.657550
C23	C	0.780649	-0.600545	-0.599961
C24	C	0.686426	-0.586247	-0.585704
C25	C	0.827747	-0.557082	-0.556620
C26	C	0.780630	-0.499312	-0.499031
C27	C	0.686416	-0.485016	-0.484778
C28	C	0.639309	-0.528483	-0.528113
C29	C	0.921970	-0.571379	-0.570876
C30	C	0.921951	-0.470146	-0.469946
C31	C	0.827737	-0.455845	-0.455696
C32	C	1.303665	-0.784089	-0.578186
C33	C	1.303715	-0.871953	-0.578215
C34	C	1.246132	-1.234694	-0.620035
C35	C	1.361600	-1.252208	-0.536506
C36	C	1.361568	-1.169658	-0.536494
C37	C	1.303817	-1.119621	-0.578252
C38	C	1.246096	-1.152136	-0.620022
C39	C	1.419281	-1.137136	-0.494718
C40	C	1.419251	-1.054581	-0.494704
C41	C	1.361503	-1.004543	-0.536467
C42	C	1.303781	-1.037062	-0.578239
C43	C	1.246030	-0.987026	-0.619997
C44	C	1.188312	-1.019544	-0.661775
C45	C	1.188349	-1.102098	-0.661785
C46	C	1.361466	-0.921989	-0.536457
C47	C	1.245995	-0.904467	-0.619985
C48	C	1.539052	-0.614483	-0.613854
C49	C	1.639328	-0.629716	-0.629043
C50	C	1.303778	-0.578674	-0.784385
C51	C	1.303794	-0.578649	-0.872244
C52	C	1.303841	-0.372581	-0.578257
C53	C	1.303883	-0.284731	-0.578277
C54	C	1.246181	-0.620363	-1.234988
C55	C	1.361622	-0.536800	-1.252485
C56	C	1.361598	-0.536813	-1.169935
C57	C	1.303866	-0.578603	-1.119908
C58	C	1.246157	-0.620380	-1.152431
C59	C	1.419313	-0.495044	-1.137407
C60	C	1.419292	-0.495056	-1.054853
C61	C	1.361554	-0.536842	-1.004824
C62	C	1.303842	-0.578619	-1.037351
C63	C	1.246109	-0.620409	-0.987324
C64	C	1.188391	-0.662182	-1.019850
C65	C	1.188418	-0.662165	-1.102402
C66	C	1.361527	-0.536859	-0.922271
C67	C	1.246085	-0.620425	-0.904767
C68	C	1.303755	-0.578744	-0.372847
C69	C	1.303913	-0.578574	-0.285015
H70	H	0.960323	-0.618416	-0.617766
C71	C	1.482818	-0.449083	-1.192432
H72	H	1.517194	-0.424215	-1.161240
H73	H	1.448335	-0.409395	-1.219421
H74	H	1.522120	-0.485291	-1.230577
C75	C	1.182644	-1.270459	-0.665984
H76	H	1.190930	-1.326791	-0.660010
H77	H	1.195799	-1.258887	-0.721093
H78	H	1.122028	-1.247771	-0.645182
H79	H	1.199186	-0.654372	-1.261474
C80	C	0.535672	-0.512750	-0.512437
H81	H	0.514356	-0.472118	-0.471934
H82	H	0.514333	-0.560501	-0.495456
H83	H	0.514390	-0.495907	-0.560252
C84	C	1.182468	-0.849433	-0.665921
H85	H	1.148098	-0.880625	-0.690797
H86	H	1.216938	-0.822421	-0.705601
H87	H	1.143161	-0.811307	-0.629696
H88	H	1.141389	-0.696212	-0.979108
H89	H	1.408631	-0.502782	-1.293222
H90	H	1.466293	-1.177881	-0.460714
H91	H	0.648082	-0.722870	-0.721907
H92	H	0.904479	-0.669962	-0.669156
H93	H	1.141286	-0.978794	-0.695771
H94	H	1.141431	-0.696178	-1.128893
C95	C	1.425126	-1.307246	-0.490581
H96	H	1.416885	-1.361070	-0.496576
H97	H	1.411967	-1.291758	-0.435467
H98	H	1.485729	-1.302876	-0.511384
H99	H	1.466288	-0.461041	-1.028378
H100	H	1.141357	-1.128582	-0.695797
H101	H	1.408455	-0.895516	-0.502438
C102	C	0.832481	-0.765317	-0.764232
H103	H	0.790934	-0.789151	-0.788005
H104	H	0.869215	-0.805294	-0.739496
H105	H	0.869255	-0.740698	-0.804290
C106	C	0.973758	-0.422327	-0.422278
H107	H	1.036619	-0.439109	-0.439023
H108	H	0.958296	-0.431479	-0.366809
H109	H	0.958335	-0.366890	-0.431611
H110	H	0.648056	-0.437984	-0.437877
C111	C	1.425002	-0.490910	-0.886495
H112	H	1.459386	-0.466016	-0.928112
H113	H	1.464284	-0.527118	-0.860227
H114	H	1.390489	-0.451229	-0.849081
H115	H	1.466249	-1.028110	-0.460687
H116	H	0.789361	-0.408809	-0.408806
H117	H	1.199063	-0.654448	-0.864039
