data_functionalizedCrystal
_audit_creation_method	'MofGen! by Chris Wilmer'
_symmetry_space_group_name_H-M	'P1'
_symmetry_Int_Tables_number	1
_symmetry_cell_setting	triclinic
loop_
_symmetry_equiv_pos_as_xyz
  x,y,z
_cell_length_a	16.625548
_cell_length_b	21.295417
_cell_length_c	16.625539
_cell_angle_alpha	90.033373
_cell_angle_beta	90.020568
_cell_angle_gamma	90.031575
loop_
_atom_site_label
_atom_site_type_symbol
_atom_site_fract_x
_atom_site_fract_y
_atom_site_fract_z
Zn1	Zn	1.232635	-0.250590	0.455881
Zn2	Zn	1.732635	0.249410	0.955881
Zn3	Zn	1.232520	-0.355864	0.321036
Zn4	Zn	1.732520	0.144136	0.821036
Zn5	Zn	1.097797	-0.250614	0.321061
Zn6	Zn	1.597797	0.249386	0.821061
Zn7	Zn	1.097749	-0.355827	0.455826
Zn8	Zn	1.597749	0.144173	0.955826
O9	O	1.165175	-0.303224	0.388451
O10	O	1.665175	0.196776	0.888451
O11	O	1.345452	-0.264560	0.438006
O12	O	1.845452	0.235440	0.938006
O13	O	1.214620	-0.341927	0.208207
O14	O	1.714620	0.158073	0.708207
O15	O	1.115753	-0.162522	0.338979
O16	O	1.615753	0.337478	0.838979
O17	O	1.345367	-0.341904	0.338936
O18	O	1.845367	0.158096	0.838936
O19	O	1.214818	-0.162504	0.438030
O20	O	1.714818	0.337496	0.938030
O21	O	1.115640	-0.264601	0.208226
O22	O	1.615640	0.235399	0.708226
O23	O	0.984958	-0.264566	0.338926
O24	O	1.484958	0.235434	0.838926
O25	O	1.115670	-0.341842	0.568666
O26	O	1.615670	0.158158	1.068666
O27	O	0.984923	-0.341866	0.437937
O28	O	1.484923	0.158134	0.937937
O29	O	1.214771	-0.264525	0.568706
O30	O	1.714771	0.235475	1.068706
O31	O	1.214573	-0.443948	0.338883
O32	O	1.714573	0.056052	0.838883
O33	O	1.115558	-0.443922	0.437912
O34	O	1.615558	0.056078	0.937912
C35	C	0.955684	-0.303215	0.388429
C36	C	1.455684	0.196785	0.888429
C37	C	0.866063	-0.303226	0.388438
C38	C	1.366063	0.196774	0.888438
C39	C	0.537888	-0.303230	0.388473
C40	C	1.037888	0.196770	0.888473
C41	C	0.629196	-0.303227	0.388460
C42	C	1.129196	0.196773	0.888460
C43	C	0.701973	-0.303229	0.388455
C44	C	1.201973	0.196771	0.888455
C45	C	0.793287	-0.303225	0.388444
C46	C	1.293287	0.196775	0.888444
C47	C	1.165070	-0.466775	0.388407
C48	C	1.665070	0.033225	0.888407
C49	C	1.165098	-0.536744	0.388414
C50	C	1.665098	-0.036744	0.888414
C51	C	1.216701	-0.569603	0.336903
C52	C	1.716701	-0.069603	0.836903
C53	C	1.216739	-0.635346	0.336921
C54	C	1.716739	-0.135346	0.836921
C55	C	1.165159	-0.668226	0.388442
C56	C	1.665159	-0.168226	0.888442
C57	C	1.113552	-0.635359	0.439964
C58	C	1.613552	-0.135359	0.939964
C59	C	1.113522	-0.569617	0.439950
C60	C	1.613522	-0.069617	0.939950
N61	N	1.094624	-0.771493	0.394581
N62	N	1.594624	-0.271493	0.894581
N63	N	1.094656	-0.833944	0.394590
N64	N	1.594656	-0.333944	0.894590
C65	C	1.165250	-0.866301	0.388488
C66	C	1.665250	-0.366301	0.888488
N67	N	1.235813	-0.833847	0.382362
N68	N	1.735813	-0.333847	0.882362
N69	N	1.235780	-0.771389	0.382350
N70	N	1.735780	-0.271389	0.882350
C71	C	1.165187	-0.739511	0.388463
C72	C	1.665187	-0.239511	0.888463
C73	C	1.216898	-0.970446	0.336994
C74	C	1.716898	-0.470446	0.836994
C75	C	1.216937	-1.036189	0.337017
C76	C	1.716937	-0.536189	0.837017
C77	C	1.113743	-1.036201	0.440056
C78	C	1.613743	-0.536201	0.940056
C79	C	1.113711	-0.970459	0.440037
C80	C	1.613711	-0.470459	0.940037
C81	C	1.165288	-0.937585	0.388501
C82	C	1.665288	-0.437585	0.888501
C83	C	1.375484	-0.303233	0.388474
C84	C	1.875484	0.196767	0.888474
C85	C	1.465105	-0.303237	0.388484
C86	C	1.965105	0.196763	0.888484
C87	C	1.165228	-0.303177	0.598760
C88	C	1.665228	0.196823	1.098760
C89	C	1.165250	-0.303157	0.688381
C90	C	1.665250	0.196843	1.188381
C91	C	1.165303	-0.139033	0.388514
C92	C	1.665303	0.360967	0.888514
C93	C	1.165358	-0.069065	0.388540
C94	C	1.665358	0.430935	0.888540
C95	C	1.165169	-0.303225	0.178960
C96	C	1.665169	0.196775	0.678960
C97	C	1.165303	-0.303068	0.089340
C98	C	1.665303	0.196932	0.589340
C99	C	1.165287	-0.303086	1.016557
C100	C	1.665287	0.196914	1.516557
C101	C	1.165275	-0.303108	0.925249
C102	C	1.665275	0.196892	1.425249
C103	C	1.165269	-0.303122	0.852472
C104	C	1.665269	0.196878	1.352472
C105	C	1.165256	-0.303143	0.761158
C106	C	1.665256	0.196857	1.261158
H107	H	1.258764	-0.662105	0.294974
H108	H	1.758764	-0.162105	0.794974
H109	H	1.258700	-0.542839	0.294941
H110	H	1.758700	-0.042839	0.794941
H111	H	1.258897	-0.943679	0.295032
H112	H	1.758897	-0.443679	0.795032
O113	O	1.063559	-0.667365	0.490051
O114	O	1.563559	-0.167365	0.990051
C115	C	1.052689	-0.741506	0.598947
C116	C	1.552689	-0.241506	1.098947
C117	C	1.109394	-0.705311	0.542257
C118	C	1.609394	-0.205311	1.042257
H119	H	1.089725	-0.772184	0.641182
H120	H	1.589725	-0.272184	1.141182
H121	H	1.010574	-0.772377	0.561941
H122	H	1.510574	-0.272377	1.061941
H123	H	1.015781	-0.706713	0.635727
H124	H	1.515781	-0.206713	1.135727
H125	H	1.146354	-0.740058	0.505465
H126	H	1.646354	-0.240058	1.005465
H127	H	1.151456	-0.674430	0.579310
H128	H	1.651456	-0.174430	1.079310
H129	H	1.071500	-0.542862	0.481898
H130	H	1.571500	-0.042862	0.981898
H131	H	1.071750	-1.062972	0.482010
H132	H	1.571750	-0.562972	0.982010
O133	O	1.267094	-1.068014	0.286901
O134	O	1.767094	-0.568014	0.786901
C135	C	1.369467	-1.061062	0.184724
C136	C	1.869467	-0.561062	0.684724
C137	C	1.312692	-1.024942	0.241427
C138	C	1.812692	-0.524942	0.741427
H139	H	1.406359	-1.026253	0.147956
H140	H	1.906359	-0.526253	0.647956
H141	H	1.332523	-1.091877	0.142487
H142	H	1.832523	-0.591877	0.642487
H143	H	1.411591	-1.091803	0.221799
H144	H	1.911591	-0.591803	0.721799
H145	H	1.270556	-0.994166	0.204417
H146	H	1.770556	-0.494166	0.704417
H147	H	1.349686	-0.994166	0.283667
H148	H	1.849686	-0.494166	0.783667
O149	O	1.063499	-0.938633	0.490094
O150	O	1.563499	-0.438633	0.990094
C151	C	0.961181	-0.945584	0.592324
C152	C	1.461181	-0.445584	1.092324
C153	C	1.017993	-0.981705	0.535659
C154	C	1.517993	-0.481705	1.035659
H155	H	0.924386	-0.980392	0.629191
H156	H	1.424386	-0.480392	1.129191
H157	H	0.918973	-0.914876	0.555296
H158	H	1.418973	-0.414876	1.055296
H159	H	0.998172	-0.914736	0.634478
H160	H	1.498172	-0.414736	1.134478
H161	H	0.981066	-1.012587	0.493494
H162	H	1.481066	-0.512587	0.993494
H163	H	1.060202	-1.012373	0.572737
H164	H	1.560202	-0.512373	1.072737
