data_functionalizedCrystal
_audit_creation_method	'MofGen! by Chris Wilmer'
_symmetry_space_group_name_H-M	'P1'
_symmetry_Int_Tables_number	1
_symmetry_cell_setting	triclinic
loop_
_symmetry_equiv_pos_as_xyz
  x,y,z
_cell_length_a	16.109301
_cell_length_b	10.967829
_cell_length_c	15.186229
_cell_angle_alpha	77.868373
_cell_angle_beta	89.999006
_cell_angle_gamma	84.100378
loop_
_atom_site_label
_atom_site_type_symbol
_atom_site_fract_x
_atom_site_fract_y
_atom_site_fract_z
O1	O	1.104075	0.160394	-0.097518
O2	O	0.862131	0.180354	-0.100559
O3	O	0.988683	-0.011278	-0.071469
O4	O	0.977524	0.352026	-0.126607
O5	O	0.988674	-0.011281	0.074989
O6	O	0.862123	0.180352	0.045899
O7	O	1.104067	0.160391	0.048940
Zn8	Zn	0.983093	0.170371	0.070673
Zn9	Zn	0.983105	0.170375	-0.122291
O10	O	0.977515	0.352024	0.019851
C11	C	0.831147	0.179544	-0.027209
C12	C	0.738838	0.177120	-0.026845
C13	C	0.987866	-0.057769	0.008814
C14	C	0.985435	-0.196293	0.029831
C15	C	0.430462	0.282906	-0.042885
C16	C	0.517196	0.285196	-0.043238
C17	C	0.535730	0.057830	-0.008742
C18	C	0.448998	0.055542	-0.008396
C19	C	0.396366	0.168084	-0.025464
C20	C	0.569832	0.172661	-0.026162
C21	C	0.663873	0.175143	-0.026545
C22	C	0.302319	0.165603	-0.025083
C23	C	0.984355	-0.258043	-0.036669
C24	C	0.981843	-0.401215	-0.014948
C25	C	1.135051	0.161201	-0.024412
C26	C	1.227360	0.163625	-0.024781
C27	C	0.978332	0.398514	-0.060434
C28	C	0.980763	0.537038	-0.081457
N29	N	0.983092	0.170368	0.202366
N30	N	0.983113	0.170368	-0.253983
C31	C	1.039148	0.085542	0.440965
C32	C	1.039151	0.085539	0.533156
C33	C	0.927050	0.255198	0.507410
C34	C	0.927044	0.255194	0.415223
C35	C	0.983098	0.170367	0.382003
C36	C	0.983106	0.170368	0.566380
C37	C	0.983109	0.170366	0.666337
C38	C	0.983095	0.170368	0.282040
H39	H	0.387612	0.374545	-0.056783
H40	H	0.985288	-0.204916	-0.109683
H41	H	0.980901	-0.454336	0.058071
H42	H	1.084791	0.016464	0.581162
H43	H	0.881414	0.324264	0.534468
H44	H	0.881397	0.324270	0.367212
H45	H	0.981689	-0.409840	-0.154477
H46	H	0.578593	-0.033797	0.005155
C47	C	0.984169	-0.268050	0.128468
H48	H	0.982651	-0.354865	0.130127
H49	H	0.936143	-0.237247	0.156616
H50	H	1.032946	-0.256321	0.159512
C51	C	0.411489	-0.070769	0.010771
H52	H	0.455255	-0.137467	0.020899
H53	H	0.378040	-0.076380	-0.039451
H54	H	0.378039	-0.076388	0.062703
C55	C	1.100802	-0.007761	0.404421
H56	H	1.092780	0.004393	0.341071
H57	H	1.091305	-0.091048	0.432170
H58	H	1.156366	0.005830	0.417465
C59	C	0.554699	0.411500	-0.062396
H60	H	0.510929	0.478193	-0.072504
H61	H	0.588148	0.417132	-0.114323
H62	H	0.588147	0.417108	-0.012167
