data_functionalizedCrystal
_audit_creation_method	'MofGen! by Chris Wilmer'
_symmetry_space_group_name_H-M	'P1'
_symmetry_Int_Tables_number	1
_symmetry_cell_setting	triclinic
loop_
_symmetry_equiv_pos_as_xyz
  x,y,z
_cell_length_a	23.096457
_cell_length_b	23.096457
_cell_length_c	23.096457
_cell_angle_alpha	60.007374
_cell_angle_beta	90.011518
_cell_angle_gamma	60.000612
loop_
_atom_site_label
_atom_site_type_symbol
_atom_site_fract_x
_atom_site_fract_y
_atom_site_fract_z
Zr1	Zr	0.557762	0.633748	-0.075993
O2	O	0.465295	0.754536	-0.168437
O3	O	0.586107	0.512961	-0.047655
O4	O	0.586081	0.633750	-0.168444
O5	O	0.465343	0.633745	0.047634
O6	O	0.681361	0.633752	-0.168447
O7	O	0.465321	0.633746	-0.047648
O8	O	0.681407	0.417682	0.047622
O9	O	0.465297	0.849815	-0.168436
O10	O	0.669304	0.562644	-0.035570
O11	O	0.598214	0.562641	0.035541
O12	O	0.598184	0.704855	-0.106673
O13	O	0.527094	0.704853	-0.035562
Zr14	Zr	0.709760	0.633748	0.075966
Zr15	Zr	0.709724	0.633751	-0.075998
Zr16	Zr	0.557799	0.633746	0.075971
Zr17	Zr	0.557766	0.785708	-0.075990
Zr18	Zr	0.709756	0.481789	0.075963
O19	O	0.681416	0.754536	0.047628
O20	O	0.681364	0.754540	-0.168445
O21	O	0.465346	0.754532	0.047636
O22	O	0.802227	0.512961	0.168410
O23	O	0.802176	0.512965	-0.047662
O24	O	0.586158	0.512957	0.168418
O25	O	0.802179	0.633752	-0.047661
O26	O	0.681441	0.633746	0.168417
O27	O	0.586161	0.633745	0.168420
O28	O	0.802202	0.633750	0.047621
O29	O	0.586086	0.849817	-0.168440
O30	O	0.681436	0.417680	0.168413
O31	O	0.802225	0.417682	0.168409
O32	O	0.802196	0.417684	0.047618
O33	O	0.465326	0.849813	-0.047645
O34	O	0.586115	0.849815	-0.047649
O35	O	0.669338	0.562641	0.106646
O36	O	0.740428	0.562644	0.035535
O37	O	0.669308	0.704855	-0.035568
O38	O	0.598218	0.704853	0.035543
C39	C	0.633756	0.443670	-0.000016
C40	C	0.633755	0.379160	-0.000017
C41	C	0.581270	-0.028871	-0.052503
C42	C	0.581264	0.031747	-0.052503
C43	C	0.633766	0.009570	-0.000014
C44	C	0.686268	-0.073236	0.052489
C45	C	0.686269	-0.133852	0.052491
N46	N	0.696017	0.065672	0.015877
N47	N	0.696014	0.123259	0.015870
C48	C	0.633767	0.192200	-0.000016
N49	N	0.571520	0.201387	-0.015910
N50	N	0.571523	0.143797	-0.015907
C51	C	0.633771	0.075292	-0.000010
C52	C	0.581259	0.340724	-0.052513
C53	C	0.581253	0.401342	-0.052507
C54	C	0.686262	0.296356	0.052482
C55	C	0.686263	0.235741	0.052479
C56	C	0.633762	0.257930	-0.000022
C57	C	0.443681	0.633745	-0.000007
C58	C	0.379169	0.633744	-0.000004
C59	C	0.385987	0.559513	0.037104
C60	C	0.325372	0.559512	0.037107
C61	C	0.257939	0.633746	-0.000012
C62	C	0.251123	0.707987	-0.037122
C63	C	0.311738	0.707986	-0.037118
N64	N	0.135130	0.689003	-0.060422
N65	N	0.077551	0.688999	-0.060425
C66	C	0.075306	0.633753	-0.000024
N67	N	0.132822	0.578500	0.060377
N68	N	0.190408	0.578502	0.060378
C69	C	0.192207	0.633755	-0.000020
C70	C	0.016401	0.559516	0.037091
C71	C	-0.044218	0.559518	0.037096
C72	C	-0.118467	0.707995	-0.037140
C73	C	-0.057849	0.707991	-0.037138
C74	C	0.009582	0.633749	-0.000025
C75	C	0.823841	0.633752	-0.000020
C76	C	0.888353	0.633753	-0.000023
C77	C	0.633716	0.633752	-0.190097
C78	C	0.633701	0.633753	-0.254610
C79	C	0.633766	0.823827	-0.000011
C80	C	0.633767	0.888337	-0.000010
C81	C	0.596580	0.707984	-0.322028
C82	C	0.596598	0.707985	-0.382645
C83	C	0.633727	0.633751	-0.375838
C84	C	0.670856	0.559510	-0.308407
C85	C	0.670842	0.559511	-0.247793
N86	N	0.628603	0.578494	-0.443394
N87	N	0.628612	0.578498	-0.500978
C88	C	0.633771	0.633744	-0.558464
N89	N	0.638906	0.688997	-0.556197
N90	N	0.638894	0.688995	-0.498609
C91	C	0.633746	0.633742	-0.441560
C92	C	0.596668	0.707981	-0.691612
C93	C	0.596691	0.707979	-0.752228
C94	C	0.670944	0.559502	-0.677989
C95	C	0.670926	0.559506	-0.617375
C96	C	0.633784	0.633748	-0.624191
C97	C	0.633806	0.633745	0.190070
C98	C	0.633822	0.633744	0.254583
C99	C	0.823837	0.443674	-0.000023
C100	C	0.888347	0.379164	-0.000027
C101	C	0.633802	0.443667	0.190067
C102	C	0.633815	0.379155	0.254579
C103	C	0.823882	0.443670	0.190060
C104	C	0.888407	0.379160	0.254569
C105	C	0.443640	0.823827	-0.190087
C106	C	0.379115	0.888337	-0.254596
C107	C	0.443686	0.823823	-0.000004
C108	C	0.379176	0.888333	-0.000000
C109	C	0.633721	0.823830	-0.190094
C110	C	0.633707	0.888342	-0.254606
C111	C	0.881515	0.348869	-0.037151
C112	C	0.942123	0.288264	-0.037168
C113	C	1.009562	0.257950	-0.000057
C114	C	1.016392	0.288251	0.037068
C115	C	0.955785	0.348859	0.037081
C116	C	0.670947	0.348860	0.321997
C117	C	0.670958	0.288253	0.382618
C118	C	0.633839	0.257938	0.375820
C119	C	0.596703	0.288239	0.308395
C120	C	0.596689	0.348849	0.247775
C121	C	0.955823	0.348866	0.247745
C122	C	1.016457	0.288260	0.308352
C123	C	1.009674	0.257944	0.375784
C124	C	0.942250	0.288244	0.382607
C125	C	0.881618	0.348853	0.322000
C126	C	0.311699	0.918638	-0.247772
C127	C	0.251065	0.979263	-0.308379
C128	C	0.257848	1.009582	-0.375811
C129	C	0.325272	0.979279	-0.382634
C130	C	0.385904	0.918659	-0.322027
C131	C	0.386007	0.918634	0.037118
C132	C	0.325399	0.979256	0.037118
C133	C	0.257960	1.009572	0.000005
C134	C	0.251130	0.979269	-0.037118
C135	C	0.311738	0.918652	-0.037122
C136	C	0.670833	0.918637	-0.247785
C137	C	0.670833	0.979245	-0.308394
C138	C	0.633704	1.009560	-0.375824
C139	C	0.596578	0.979258	-0.382644
C140	C	0.596581	0.918648	-0.322035
H141	H	0.538518	-0.010797	-0.095251
H142	H	0.826609	0.373550	-0.067380
C143	C	0.523518	0.122831	-0.110252
C144	C	0.515569	0.157794	-0.188913
C145	C	0.457825	0.248876	-0.246663
C146	C	0.408031	0.304994	-0.225751
C147	C	0.415979	0.270032	-0.147086
C148	C	0.473723	0.178950	-0.089336
H149	H	0.552431	0.116251	-0.204397
H150	H	0.451942	0.274757	-0.304896
H151	H	0.365286	0.372418	-0.268500
H152	H	0.379117	0.311574	-0.131602
H153	H	0.479606	0.153069	-0.031103
H154	H	0.306181	0.768435	-0.067334
C155	C	0.555729	0.789647	-0.329526
C156	C	0.514897	0.871302	-0.403692
C157	C	0.474045	0.952966	-0.411188
C158	C	0.474025	0.952975	-0.344519
C159	C	0.514858	0.871317	-0.270348
C160	C	0.555710	0.789653	-0.262851
H161	H	0.514910	0.871299	-0.453050
H162	H	0.443818	1.013415	-0.466095
H163	H	0.443784	1.013427	-0.350068
H164	H	0.514845	0.871320	-0.220990
H165	H	0.585938	0.729204	-0.207944
H166	H	0.729015	-0.091290	0.095227
H167	H	0.729020	-0.201268	0.095239
H168	H	0.208615	1.058930	0.000014
H169	H	1.071309	0.263560	0.067283
H170	H	0.701150	0.499059	-0.562478
C171	C	0.555846	0.382164	0.173616
C172	C	0.515024	0.348809	0.166147
C173	C	0.474178	0.382121	0.091989
C174	C	0.474155	0.448788	0.025300
C175	C	0.514979	0.482147	0.032767
C176	C	0.555825	0.448835	0.106925
H177	H	0.515039	0.299455	0.215516
H178	H	0.443957	0.357426	0.086462
H179	H	0.443919	0.473447	-0.029596
H180	H	0.514964	0.531501	-0.016602
H181	H	0.586046	0.473530	0.112452
C182	C	0.176944	1.012612	-0.077931
C183	C	0.110285	1.079277	-0.077910
C184	C	0.036097	1.112615	-0.118716
C185	C	0.028569	1.079288	-0.159543
C186	C	0.095231	1.012618	-0.159566
C187	C	0.169419	0.979280	-0.118760
H188	H	0.115856	1.103952	-0.047686
H189	H	-0.013250	1.161969	-0.118699
H190	H	-0.026349	1.103966	-0.189750
H191	H	0.089661	0.987943	-0.189790
H192	H	0.218766	0.929926	-0.118777
H193	H	0.826727	0.373510	0.327567
C194	C	0.963306	0.382171	0.077929
C195	C	0.896650	0.448835	0.077956
C196	C	0.904177	0.482143	0.118806
C197	C	0.978361	0.448788	0.159630
C198	C	1.045023	0.382120	0.159604
C199	C	1.037495	0.348812	0.118754
H200	H	0.841730	0.473530	0.047734
H201	H	0.854830	0.531495	0.118825
H202	H	0.983934	0.473444	0.189869
H203	H	1.099943	0.357425	0.189826
H204	H	1.086843	0.299460	0.118736
C205	C	0.555733	1.012617	-0.456821
C206	C	0.595518	1.004296	-0.508705
C207	C	0.554670	1.037662	-0.582884
C208	C	0.474036	1.079350	-0.605180
C209	C	0.434246	1.087673	-0.553296
C210	C	0.475095	1.054307	-0.479116
H211	H	0.655212	0.973434	-0.492201
H212	H	0.584125	1.031500	-0.621292
H213	H	0.443797	1.104049	-0.660092
H214	H	0.374552	1.118534	-0.569799
H215	H	0.445639	1.060468	-0.440708
H216	H	0.306162	0.893956	-0.192871
C217	C	0.711685	0.885293	-0.173617
C218	C	0.752527	0.918620	-0.166129
C219	C	0.793387	0.885275	-0.091963
C220	C	0.793405	0.818602	-0.025285
C221	C	0.752561	0.785271	-0.032771
C222	C	0.711701	0.818616	-0.106936
H223	H	0.752516	0.967978	-0.215490
H224	H	0.823623	0.909949	-0.086422
H225	H	0.823652	0.793918	0.029617
H226	H	0.752572	0.735913	0.016590
H227	H	0.681465	0.793942	-0.112477
H228	H	0.633856	0.208585	0.425186
C229	C	0.555880	0.254881	0.300926
C230	C	0.575260	0.213193	0.261985
C231	C	0.534443	0.179827	0.254520
C232	C	0.474246	0.188149	0.285997
C233	C	0.454864	0.229839	0.324941
C234	C	0.495681	0.263205	0.332406
H235	H	0.619824	0.207030	0.238681
H236	H	0.548792	0.148965	0.225690
H237	H	0.444031	0.163449	0.280471
H238	H	0.410300	0.236001	0.348245
H239	H	0.481332	0.294066	0.361236
H240	H	1.071351	0.263596	0.302784
C241	C	-0.065347	0.789648	-0.077967
C242	C	-0.104316	0.850891	-0.158594
C243	C	-0.111818	0.932553	-0.199423
C244	C	-0.080351	0.952972	-0.159626
C245	C	-0.041380	0.891728	-0.078995
C246	C	-0.033878	0.810066	-0.038166
H247	H	-0.127612	0.835776	-0.188058
H248	H	-0.140667	0.977889	-0.259112
H249	H	-0.085904	1.013423	-0.189851
H250	H	-0.018084	0.906843	-0.049531
H251	H	-0.005029	0.764730	0.021523
H252	H	0.538508	0.358793	-0.095261
C253	C	0.555759	0.789640	-0.456819
C254	C	0.575117	0.850901	-0.479105
C255	C	0.534276	0.932554	-0.553278
C256	C	0.474076	0.952946	-0.605166
C257	C	0.454715	0.891684	-0.582881
C258	C	0.495556	0.810031	-0.508708
H259	H	0.619682	0.835807	-0.440694
H260	H	0.548608	0.977905	-0.569774
H261	H	0.443843	1.013391	-0.660073
H262	H	0.410150	0.906778	-0.621292
H263	H	0.481224	0.764680	-0.492212
C264	C	0.711694	0.477852	-0.300917
C265	C	0.711704	0.477846	-0.367588
C266	C	0.752546	0.396185	-0.360095
C267	C	0.793377	0.314528	-0.285930
C268	C	0.793368	0.314530	-0.219253
C269	C	0.752526	0.396192	-0.226747
H270	H	0.681477	0.538296	-0.422494
H271	H	0.752552	0.396184	-0.409454
H272	H	0.823610	0.254077	-0.280383
H273	H	0.823595	0.254080	-0.164348
H274	H	0.752520	0.396193	-0.177388
C275	C	0.934795	0.254878	0.456785
C276	C	1.001495	0.188198	0.523444
C277	C	0.994042	0.154823	0.597624
C278	C	0.919890	0.188127	0.605144
C279	C	0.853185	0.254811	0.538483
C280	C	0.860638	0.288187	0.464304
H281	H	1.056392	0.163541	0.517879
H282	H	1.043422	0.105459	0.646970
H283	H	0.914373	0.163421	0.660057
H284	H	0.798288	0.279469	0.544049
H285	H	0.811258	0.337551	0.414957
H286	H	0.306166	0.893983	-0.067346
C287	C	0.523500	0.492419	-0.110254
C288	C	0.515546	0.527385	-0.188917
C289	C	0.457792	0.618464	-0.246665
C290	C	0.407992	0.674575	-0.225750
C291	C	0.415944	0.639610	-0.147084
C292	C	0.473698	0.548532	-0.089336
H293	H	0.552413	0.485847	-0.204402
H294	H	0.451906	0.644347	-0.304899
H295	H	0.365239	0.741997	-0.268499
H296	H	0.379077	0.681148	-0.131598
H297	H	0.479584	0.522648	-0.031102
C298	C	0.711670	1.012573	-0.300881
C299	C	0.771891	1.004230	-0.332324
C300	C	0.812726	1.037556	-0.324808
C301	C	0.793340	1.079226	-0.285850
C302	C	0.733116	1.087571	-0.254405
C303	C	0.692281	1.054245	-0.261921
H304	H	0.786244	0.973381	-0.361165
H305	H	0.857308	1.031378	-0.348086
H306	H	0.823569	1.103896	-0.280287
H307	H	0.718763	1.118420	-0.225564
H308	H	0.647699	1.060423	-0.238643
C309	C	0.934600	0.254935	-0.078001
C310	C	0.966070	0.163261	-0.038211
C311	C	0.958546	0.129932	-0.079042
C312	C	0.919552	0.188278	-0.159664
C313	C	0.888079	0.279958	-0.199459
C314	C	0.895604	0.313286	-0.158628
H315	H	0.994938	0.120065	0.021475
H316	H	0.981844	0.062065	-0.049583
H317	H	0.913981	0.163606	-0.189890
H318	H	0.859211	0.323154	-0.259145
H319	H	0.872306	0.381154	-0.188087
H320	H	1.059050	0.208592	0.425128
H321	H	0.440913	0.893955	0.067345
H322	H	0.633707	1.058913	-0.425170
H323	H	0.566346	0.893988	-0.327598
C324	C	0.176906	1.012581	-0.300862
C325	C	0.154641	1.054223	-0.261881
C326	C	0.080485	1.087537	-0.254361
C327	C	0.028593	1.079209	-0.285823
C328	C	0.050856	1.037565	-0.324807
C329	C	0.125013	1.004251	-0.332326
H330	H	0.193056	1.060390	-0.238588
H331	H	0.064004	1.118365	-0.225503
H332	H	-0.026302	1.103870	-0.280257
H333	H	0.012442	1.031399	-0.348099
H334	H	0.141493	0.973424	-0.361185
H335	H	-0.038660	0.499068	0.067319
C336	C	0.332725	1.012630	-0.456813
C337	C	0.371657	0.954301	-0.479115
C338	C	0.379107	0.987650	-0.553296
C339	C	0.347625	1.079327	-0.605174
C340	C	0.308690	1.137662	-0.582873
C341	C	0.301240	1.104313	-0.508693
H342	H	0.394964	0.886431	-0.440710
H343	H	0.407929	0.944467	-0.569804
H344	H	0.353139	1.104014	-0.660088
H345	H	0.285383	1.205532	-0.621278
H346	H	0.272418	1.147496	-0.492184
H347	H	0.330974	1.003918	0.067350
H348	H	0.701201	0.263588	0.437512
C349	C	0.555825	0.789643	-0.699104
C350	C	0.515003	0.871299	-0.773268
C351	C	0.474162	0.952961	-0.780762
C352	C	0.474142	0.952966	-0.714090
C353	C	0.514965	0.871307	-0.639920
C354	C	0.555807	0.789645	-0.632427
H355	H	0.515016	0.871298	-0.822627
H356	H	0.443941	1.013411	-0.835667
H357	H	0.443909	1.013417	-0.719637
H358	H	0.514952	0.871308	-0.590562
H359	H	0.586027	0.729195	-0.577521
H360	H	0.729007	0.278297	0.095222
H361	H	1.058907	0.208598	-0.000072
H362	H	0.208472	1.058943	-0.425155
H363	H	0.729015	0.168326	0.095223
H364	H	0.440889	0.499060	0.067321
H365	H	0.440796	0.893988	-0.327592
H366	H	0.330924	0.499063	0.067326
H367	H	0.701174	0.373536	0.327545
H368	H	0.961360	0.373540	0.192844
H369	H	-0.173371	0.768437	-0.067364
H370	H	0.196215	0.768428	-0.067344
C371	C	0.090578	0.477856	0.077921
C372	C	0.112864	0.416609	0.058541
C373	C	0.187040	0.334948	0.099372
C374	C	0.238931	0.314535	0.159582
C375	C	0.216647	0.375784	0.178965
C376	C	0.142471	0.457444	0.138135
H377	H	0.074450	0.431718	0.013967
H378	H	0.203536	0.289608	0.085023
H379	H	0.293841	0.254085	0.189808
H380	H	0.255061	0.360674	0.223540
H381	H	0.125975	0.502784	0.152484
H382	H	0.566466	0.768429	-0.807125
H383	H	0.701071	0.499062	-0.192896
H384	H	0.701176	0.499059	-0.672446
