data_functionalizedCrystal
_audit_creation_method	'MofGen! by Chris Wilmer'
_symmetry_space_group_name_H-M	'P1'
_symmetry_Int_Tables_number	1
_symmetry_cell_setting	triclinic
loop_
_symmetry_equiv_pos_as_xyz
  x,y,z
_cell_length_a	16.625548
_cell_length_b	12.645330
_cell_length_c	16.625539
_cell_angle_alpha	90.024521
_cell_angle_beta	90.017055
_cell_angle_gamma	90.013714
loop_
_atom_site_label
_atom_site_type_symbol
_atom_site_fract_x
_atom_site_fract_y
_atom_site_fract_z
Zn1	Zn	1.232708	-0.422027	0.455920
Zn2	Zn	1.732708	0.077973	0.955920
Zn3	Zn	1.232642	-0.599307	0.321092
Zn4	Zn	1.732642	-0.099307	0.821092
Zn5	Zn	1.097878	-0.422061	0.321101
Zn6	Zn	1.597878	0.077939	0.821101
Zn7	Zn	1.097863	-0.599252	0.455882
Zn8	Zn	1.597863	-0.099252	0.955882
O9	O	1.165273	-0.510662	0.388499
O10	O	1.665273	-0.010662	0.888499
O11	O	1.345531	-0.445552	0.438047
O12	O	1.845531	0.054448	0.938047
O13	O	1.214744	-0.575833	0.208261
O14	O	1.714744	-0.075833	0.708261
O15	O	1.115797	-0.273709	0.339004
O16	O	1.615797	0.226291	0.839004
O17	O	1.345483	-0.575799	0.338990
O18	O	1.845483	-0.075799	0.838990
O19	O	1.214856	-0.273684	0.438056
O20	O	1.714856	0.226316	0.938056
O21	O	1.115733	-0.445611	0.208267
O22	O	1.615733	0.054389	0.708267
O23	O	0.985043	-0.445557	0.338967
O24	O	1.485043	0.054443	0.838967
O25	O	1.115772	-0.575705	0.568719
O26	O	1.615772	-0.075705	1.068719
O27	O	0.985032	-0.575739	0.437990
O28	O	1.485032	-0.075739	0.937990
O29	O	1.214841	-0.445498	0.568747
O30	O	1.714841	0.054502	1.068747
O31	O	1.214730	-0.747647	0.338952
O32	O	1.714730	-0.247647	0.838952
O33	O	1.115708	-0.747606	0.437982
O34	O	1.615708	-0.247606	0.937982
C35	C	0.955782	-0.510647	0.388476
C36	C	1.455782	-0.010647	0.888476
C37	C	0.866161	-0.510666	0.388486
C38	C	1.366161	-0.010666	0.888486
C39	C	0.537985	-0.510673	0.388520
C40	C	1.037985	-0.010673	0.888520
C41	C	0.629293	-0.510668	0.388508
C42	C	1.129293	-0.010668	0.888508
C43	C	0.702070	-0.510670	0.388502
C44	C	1.202070	-0.010670	0.888502
C45	C	0.793384	-0.510664	0.388491
C46	C	1.293384	-0.010664	0.888491
C47	C	1.165232	-0.786091	0.388480
C48	C	1.665232	-0.286091	0.888480
C49	C	1.165289	-0.903921	0.388498
C50	C	1.665289	-0.403921	0.888498
C51	C	1.227483	-1.071467	0.326072
C52	C	1.727483	-0.571467	0.826072
C53	C	1.227686	-0.948906	0.326225
C54	C	1.727686	-0.448906	0.826225
C55	C	1.188327	-0.948308	0.473491
C56	C	1.688327	-0.448308	0.973491
C57	C	1.188820	-1.070906	0.473160
C58	C	1.688820	-0.570906	0.973160
C59	C	1.080032	-1.071250	0.366769
C60	C	1.580032	-0.571250	0.866769
C61	C	1.080440	-0.948645	0.364863
C62	C	1.580440	-0.448645	0.864863
C63	C	1.375581	-0.510678	0.388522
C64	C	1.875581	-0.010678	0.888522
C65	C	1.465203	-0.510685	0.388532
C66	C	1.965203	-0.010685	0.888532
C67	C	1.165312	-0.510592	0.598808
C68	C	1.665312	-0.010592	1.098808
C69	C	1.165329	-0.510562	0.688429
C70	C	1.665329	-0.010562	1.188429
C71	C	1.165335	-0.234156	0.388535
C72	C	1.665335	0.265844	0.888535
C73	C	1.165362	-0.116326	0.388551
C74	C	1.665362	0.383674	0.888551
C75	C	1.165280	-0.510655	0.179008
C76	C	1.665280	-0.010655	0.679008
C77	C	1.165419	-0.510386	0.089387
C78	C	1.665419	-0.010386	0.589387
C79	C	1.165342	-0.510539	0.761211
C80	C	1.665342	-0.010539	1.261211
C81	C	1.165361	-0.510499	0.852520
C82	C	1.665361	-0.010499	1.352520
C83	C	1.165380	-0.510462	0.925296
C84	C	1.665380	-0.010462	1.425296
C85	C	1.165400	-0.510423	1.016611
C86	C	1.665400	-0.010423	1.516611
H87	H	1.213272	-0.918900	0.263205
H88	H	1.713272	-0.418900	0.763205
H89	H	1.251192	-1.099418	0.491610
H90	H	1.751192	-0.599418	0.991610
H91	H	1.213250	-1.101016	0.262867
H92	H	1.713250	-0.601016	0.762867
H93	H	1.290887	-0.919498	0.340632
H94	H	1.790887	-0.419498	0.840632
H95	H	1.290345	-1.102196	0.340318
H96	H	1.790345	-0.602196	0.840318
H97	H	1.249994	-0.917519	0.492249
H98	H	1.749994	-0.417519	0.992249
H99	H	1.144457	-0.919166	0.521290
H100	H	1.644457	-0.419166	1.021290
C101	C	1.130357	-1.110993	0.538201
C102	C	1.630357	-0.610993	1.038201
N103	N	1.086330	-1.141183	0.587194
N104	N	1.586330	-0.641183	1.087194
H105	H	1.063069	-0.919645	0.302316
H106	H	1.563069	-0.419645	0.802316
H107	H	1.059080	-1.102256	0.305872
H108	H	1.559080	-0.602256	0.805872
H109	H	1.031658	-0.918034	0.407033
H110	H	1.531658	-0.418034	0.907033
H111	H	1.033746	-1.100261	0.412275
H112	H	1.533746	-0.600261	0.912275
