data_functionalizedCrystal
_audit_creation_method	'MofGen! by Chris Wilmer'
_symmetry_space_group_name_H-M	'P1'
_symmetry_Int_Tables_number	1
_symmetry_cell_setting	triclinic
loop_
_symmetry_equiv_pos_as_xyz
  x,y,z
_cell_length_a	15.944493
_cell_length_b	19.188924
_cell_length_c	17.666332
_cell_angle_alpha	90.008552
_cell_angle_beta	90.008786
_cell_angle_gamma	83.308504
loop_
_atom_site_label
_atom_site_type_symbol
_atom_site_fract_x
_atom_site_fract_y
_atom_site_fract_z
O1	O	1.114221	0.089857	0.062942
O2	O	1.614221	0.589857	0.562942
O3	O	0.869623	0.101001	0.062946
O4	O	1.369623	0.601001	0.562946
O5	O	0.998984	-0.006210	0.062935
O6	O	1.498984	0.493790	0.562935
O7	O	0.984861	0.197068	0.062953
O8	O	1.484861	0.697068	0.562953
O9	O	0.998961	-0.006216	-0.062962
O10	O	1.498961	0.493784	0.437038
O11	O	0.869600	0.100995	-0.062951
O12	O	1.369600	0.600995	0.437049
O13	O	1.114199	0.089851	-0.062955
O14	O	1.614199	0.589851	0.437045
Cu15	Cu	0.991898	0.095423	-0.074448
Cu16	Cu	1.491898	0.595423	0.425552
Cu17	Cu	0.991924	0.095429	0.074439
Cu18	Cu	1.491924	0.595429	0.574439
O19	O	0.984838	0.197062	-0.062944
O20	O	1.484838	0.697062	0.437056
C21	C	0.838319	0.100543	-0.000002
C22	C	1.338319	0.600543	0.499998
C23	C	0.745075	0.099177	-0.000001
C24	C	1.245075	0.599177	0.499999
C25	C	0.509077	0.162284	0.000005
C26	C	1.009077	0.662284	0.500005
C27	C	0.458636	0.128250	-0.062075
C28	C	0.958636	0.628250	0.437925
C29	C	0.574364	0.096647	-0.000002
C30	C	1.074364	0.596647	0.499998
C31	C	0.458663	0.128240	0.062050
C32	C	0.958663	0.628240	0.562050
C33	C	0.409463	0.094207	-0.000001
C34	C	0.909463	0.594207	0.499999
C35	C	0.525151	0.062631	-0.062134
C36	C	1.025151	0.562631	0.437866
C37	C	0.525181	0.062630	0.062046
C38	C	1.025181	0.562630	0.562046
C39	C	0.474773	0.028548	-0.000049
C40	C	0.974773	0.528548	0.499951
C41	C	0.669358	0.098054	-0.000004
C42	C	1.169358	0.598054	0.499996
C43	C	0.314472	0.092795	-0.000005
C44	C	0.814472	0.592795	0.499995
C45	C	0.998516	-0.032225	-0.000014
C46	C	1.498516	0.467775	0.499986
C47	C	0.997146	-0.109733	-0.000016
C48	C	1.497146	0.390267	0.499984
C49	C	0.996519	-0.146131	0.068610
C50	C	1.496519	0.353869	0.568610
C51	C	0.995220	-0.218956	0.068616
C52	C	1.495220	0.281044	0.568616
C53	C	0.994565	-0.255384	-0.000009
C54	C	1.494565	0.244616	0.499991
C55	C	0.995187	-0.218977	-0.068644
C56	C	1.495187	0.281023	0.431356
C57	C	0.996478	-0.146152	-0.068648
C58	C	1.496478	0.353848	0.431352
N59	N	1.040330	-0.374939	-0.051085
N60	N	1.540330	0.125061	0.448915
N61	N	1.039105	-0.444120	-0.051077
N62	N	1.539105	0.055880	0.448923
C63	C	0.990674	-0.474803	-0.000001
C64	C	1.490674	0.025197	0.499999
N65	N	0.943523	-0.433691	0.051077
N66	N	1.443523	0.066309	0.551077
N67	N	0.944752	-0.364504	0.051071
N68	N	1.444752	0.135496	0.551071
C69	C	0.993164	-0.334351	-0.000012
C70	C	1.493164	0.165649	0.499988
C71	C	0.988637	-0.590166	0.068636
C72	C	1.488637	-0.090166	0.568636
C73	C	0.987332	-0.662992	0.068639
C74	C	1.487332	-0.162992	0.568639
C75	C	0.987308	-0.663013	-0.068623
C76	C	1.487308	-0.163013	0.431377
C77	C	0.988604	-0.590187	-0.068624
C78	C	1.488604	-0.090187	0.431376
C79	C	0.989272	-0.553768	0.000008
C80	C	1.489272	-0.053768	0.500008
C81	C	1.145503	0.090309	-0.000005
C82	C	1.645503	0.590309	0.499995
C83	C	1.238747	0.091675	-0.000002
C84	C	1.738747	0.591675	0.499998
C85	C	0.985306	0.223077	0.000007
C86	C	1.485306	0.723077	0.500007
C87	C	0.986676	0.300585	0.000014
C88	C	1.486676	0.800585	0.500014
N89	N	0.991885	0.095417	-0.179168
N90	N	1.491885	0.595417	0.320832
C91	C	1.049184	0.047968	-0.218782
C92	C	1.549184	0.547968	0.281218
C93	C	1.049189	0.047964	-0.298030
C94	C	1.549189	0.547964	0.201970
C95	C	0.991903	0.095423	-0.337660
C96	C	1.491903	0.595423	0.162340
C97	C	0.934593	0.142876	-0.298036
C98	C	1.434593	0.642876	0.201964
C99	C	0.934584	0.142873	-0.218790
C100	C	1.434584	0.642873	0.281210
N101	N	0.980981	0.157204	-0.462073
N102	N	1.480981	0.657204	0.037927
N103	N	0.980995	0.157204	-0.537353
N104	N	1.480995	0.657204	-0.037353
C105	C	0.991925	0.095432	-0.576424
C106	C	1.491925	0.595432	-0.076424
N107	N	1.002857	0.033658	-0.537370
N108	N	1.502857	0.533658	-0.037370
N109	N	1.002848	0.033659	-0.462083
N110	N	1.502848	0.533659	0.037917
C111	C	0.991906	0.095431	-0.423589
C112	C	1.491906	0.595431	0.076411
C113	C	1.049233	0.047975	-0.701968
C114	C	1.549233	0.547975	-0.201968
C115	C	1.049232	0.047971	-0.781217
C116	C	1.549232	0.547971	-0.281217
C117	C	0.934639	0.142889	-0.781221
C118	C	1.434639	0.642889	-0.281221
C119	C	0.934636	0.142887	-0.701974
C120	C	1.434636	0.642887	-0.201974
C121	C	0.991937	0.095431	-0.662352
C122	C	1.491937	0.595431	-0.162352
N123	N	0.991944	0.095429	0.179159
N124	N	1.491944	0.595429	0.679159
H125	H	0.429585	0.155967	-0.114553
H126	H	0.929585	0.655967	0.385447
H127	H	0.986817	-0.692625	0.124525
H128	H	1.486817	-0.192625	0.624525
O129	O	0.878911	0.188882	-0.336613
O130	O	1.378911	0.688882	0.163387
C131	C	0.827229	0.151471	-0.382460
C132	C	1.327229	0.651471	0.117540
H133	H	0.860892	0.096849	-0.394335
H134	H	1.360892	0.596849	0.105665
H135	H	0.813839	0.180611	-0.438183
H136	H	1.313839	0.680611	0.061817
H137	H	0.765165	0.146702	-0.351937
H138	H	1.265165	0.646702	0.148063
H139	H	0.989176	-0.560512	0.124520
H140	H	1.489176	-0.060512	0.624520
H141	H	1.095840	0.009324	-0.186525
H142	H	1.595840	0.509324	0.313475
H143	H	0.997061	-0.116483	0.124496
H144	H	1.497061	0.383517	0.624496
O145	O	0.559920	0.029492	0.124574
O146	O	1.059920	0.529492	0.624574
C147	C	0.617842	-0.028022	0.102320
C148	C	1.117842	0.471978	0.602320
H149	H	0.601508	-0.045293	0.042899
H150	H	1.101508	0.454707	0.542899
H151	H	0.614389	-0.073320	0.143517
H152	H	1.114389	0.426680	0.643517
H153	H	0.684465	-0.011962	0.102551
H154	H	1.184465	0.488038	0.602551
O155	O	0.879040	0.189002	-0.180222
O156	O	1.379040	0.689002	0.319778
C157	C	0.923860	0.232105	-0.134383
C158	C	1.423860	0.732105	0.365617
H159	H	0.989689	0.204319	-0.122504
H160	H	1.489689	0.704319	0.377496
H161	H	0.888758	0.243139	-0.078661
H162	H	1.388758	0.743139	0.421339
H163	H	0.929375	0.283709	-0.164915
H164	H	1.429375	0.783709	0.335085
O165	O	0.424125	0.161417	0.124642
O166	O	0.924125	0.661417	0.624642
C167	C	0.441219	0.231871	0.124403
C168	C	0.941219	0.731871	0.624403
H169	H	0.499266	0.236946	0.088057
H170	H	0.999266	0.736946	0.588057
H171	H	0.453544	0.249047	0.184772
H172	H	0.953544	0.749047	0.684772
H173	H	0.384674	0.266589	0.100188
H174	H	0.884674	0.766589	0.600188
O175	O	0.986636	-0.698278	-0.135354
O176	O	1.486636	-0.198278	0.364646
C177	C	0.987494	-0.650534	-0.195929
C178	C	1.487494	-0.150534	0.304071
H179	H	0.961833	-0.595723	-0.175811
H180	H	1.461833	-0.095723	0.324189
H181	H	0.946339	-0.667143	-0.243925
H182	H	1.446339	-0.167143	0.256075
H183	H	1.055001	-0.650129	-0.217032
H184	H	1.555001	-0.150129	0.282968
H185	H	0.524488	0.218823	-0.000048
H186	H	1.024488	0.718823	0.499952
H187	H	1.095888	0.009331	-0.669706
H188	H	1.595888	0.509331	-0.169706
O189	O	0.878909	0.189017	-0.819591
O190	O	1.378909	0.689017	-0.319591
C191	C	0.828350	0.230914	-0.767627
C192	C	1.328350	0.730914	-0.267627
H193	H	0.827504	0.202287	-0.711143
H194	H	1.327504	0.702287	-0.211143
H195	H	0.761233	0.241543	-0.790535
H196	H	1.261233	0.741543	-0.290535
H197	H	0.855427	0.282791	-0.759183
H198	H	1.355427	0.782791	-0.259183
O199	O	1.104978	0.001850	-0.819584
O200	O	1.604978	0.501850	-0.319584
C201	C	1.155535	-0.040043	-0.767615
C202	C	1.655535	0.459957	-0.267615
H203	H	1.156366	-0.011417	-0.711120
H204	H	1.656366	0.488583	-0.211120
H205	H	1.222656	-0.050663	-0.790500
H206	H	1.722656	0.449337	-0.290500
H207	H	1.128467	-0.091925	-0.759203
H208	H	1.628467	0.408075	-0.259203
O209	O	0.989076	-0.554782	-0.135270
O210	O	1.489076	-0.054782	0.364730
C211	C	0.917102	-0.504725	-0.139373
C212	C	1.417102	-0.004725	0.360627
H213	H	0.865882	-0.521129	-0.100427
H214	H	1.365882	-0.021129	0.399573
H215	H	0.892695	-0.501252	-0.200071
H216	H	1.392695	-0.001252	0.299929
H217	H	0.934529	-0.451320	-0.120939
H218	H	1.434529	0.048680	0.379061
H219	H	1.095851	0.009323	-0.330290
H220	H	1.595851	0.509323	0.169710
O221	O	0.994719	-0.254401	0.135241
O222	O	1.494719	0.245599	0.635241
C223	C	1.066714	-0.304433	0.139366
C224	C	1.566714	0.195567	0.639366
H225	H	1.090757	-0.318004	0.079783
H226	H	1.590757	0.181996	0.579783
H227	H	1.049452	-0.353852	0.168426
H228	H	1.549452	0.146148	0.668426
H229	H	1.118149	-0.281901	0.173224
H230	H	1.618149	0.218099	0.673224
O231	O	0.559780	0.029633	-0.124790
O232	O	1.059780	0.529633	0.375210
C233	C	0.647939	0.031351	-0.124040
C234	C	1.147939	0.531351	0.375960
H235	H	0.663754	0.076854	-0.087248
H236	H	1.163754	0.576854	0.412752
H237	H	0.671169	0.038666	-0.184223
H238	H	1.171169	0.538666	0.315777
H239	H	0.680182	-0.020077	-0.100043
H240	H	1.180182	0.479923	0.399957
H241	H	0.887981	0.181528	-0.669717
H242	H	1.387981	0.681528	-0.169717
O243	O	0.994436	-0.254423	-0.135259
O244	O	1.494436	0.245577	0.364741
C245	C	0.920947	-0.288617	-0.139367
C246	C	1.420947	0.211383	0.360633
H247	H	0.896520	-0.296879	-0.079780
H248	H	1.396520	0.203121	0.420220
H249	H	0.936391	-0.341612	-0.168413
H250	H	1.436391	0.158388	0.331587
H251	H	0.870506	-0.255011	-0.173231
H252	H	1.370506	0.244989	0.326769
O253	O	0.456609	-0.038962	-0.000228
O254	O	0.956609	0.461038	0.499772
C255	C	0.490807	-0.073310	-0.065753
C256	C	0.990807	0.426690	0.434247
H257	H	0.499871	-0.032768	-0.111285
H258	H	0.999871	0.467232	0.388715
H259	H	0.445830	-0.110838	-0.087423
H260	H	0.945830	0.389162	0.412577
H261	H	0.554371	-0.104097	-0.051535
H262	H	1.054371	0.395903	0.448465
O263	O	0.997125	-0.110904	-0.135383
O264	O	1.497125	0.389096	0.364617
C265	C	0.996240	-0.158665	-0.195955
C266	C	1.496240	0.341335	0.304045
H267	H	1.021910	-0.213470	-0.175836
H268	H	1.521910	0.286530	0.324164
H269	H	1.037374	-0.142070	-0.243957
H270	H	1.537374	0.357930	0.256043
H271	H	0.928724	-0.159076	-0.217051
H272	H	1.428724	0.340924	0.282949
