data_functionalizedCrystal
_audit_creation_method	'MofGen! by Chris Wilmer'
_symmetry_space_group_name_H-M	'P1'
_symmetry_Int_Tables_number	1
_symmetry_cell_setting	triclinic
loop_
_symmetry_equiv_pos_as_xyz
  x,y,z
_cell_length_a	12.759401
_cell_length_b	21.295417
_cell_length_c	12.759393
_cell_angle_alpha	89.961905
_cell_angle_beta	89.979062
_cell_angle_gamma	90.032032
loop_
_atom_site_label
_atom_site_type_symbol
_atom_site_fract_x
_atom_site_fract_y
_atom_site_fract_z
Zn1	Zn	1.606151	-0.250553	-0.593965
Zn2	Zn	1.605994	-0.355835	-0.418261
Zn3	Zn	1.430450	-0.250587	-0.418300
Zn4	Zn	1.430393	-0.355791	-0.593899
O5	O	1.518247	-0.303192	-0.506106
O6	O	1.753151	-0.264523	-0.570669
O7	O	1.582665	-0.341906	-0.271245
O8	O	1.453846	-0.162493	-0.441646
O9	O	1.753035	-0.341874	-0.441580
O10	O	1.582933	-0.162468	-0.570706
O11	O	1.453694	-0.264581	-0.271274
O12	O	1.283421	-0.264538	-0.441582
O13	O	1.453750	-0.341799	-0.740929
O14	O	1.283380	-0.341831	-0.570594
O15	O	1.582879	-0.264481	-0.740977
O16	O	1.582610	-0.443919	-0.441516
O17	O	1.453597	-0.443886	-0.570556
C18	C	1.245279	-0.303184	-0.506085
C19	C	1.128503	-0.303196	-0.506101
C20	C	1.073647	-0.343504	-0.573172
C21	C	0.963923	-0.343506	-0.573193
C22	C	0.963921	-0.262891	-0.439063
C23	C	1.073643	-0.262886	-0.439048
C24	C	1.518109	-0.466743	-0.506048
C25	C	1.518146	-0.536711	-0.506058
C26	C	1.585383	-0.569574	-0.438936
C27	C	1.585432	-0.635316	-0.438960
C28	C	1.518226	-0.668194	-0.506094
C29	C	1.450985	-0.635323	-0.573230
C30	C	1.450945	-0.569582	-0.573212
N31	N	1.426319	-0.771460	-0.514097
N32	N	1.426360	-0.833912	-0.514108
C33	C	1.518344	-0.866268	-0.506155
N34	N	1.610287	-0.833814	-0.498169
N35	N	1.610245	-0.771357	-0.498153
C36	C	1.518262	-0.739479	-0.506122
C37	C	1.585640	-0.970417	-0.439054
C38	C	1.585691	-1.036160	-0.439085
C39	C	1.451233	-1.036166	-0.573350
C40	C	1.451192	-0.970423	-0.573325
C41	C	1.518393	-0.937553	-0.506171
C42	C	1.792280	-0.303200	-0.506128
C43	C	1.909057	-0.303203	-0.506137
C44	C	1.518325	-0.303131	-0.780140
C45	C	1.518359	-0.303105	-0.896916
C46	C	1.518414	-0.139001	-0.506188
C47	C	1.518485	-0.069033	-0.506222
C48	C	1.585601	-0.262839	-0.951805
C49	C	1.585619	-0.262812	-1.061529
C50	C	1.451149	-0.343322	-1.061466
C51	C	1.451127	-0.343346	-0.951744
C52	C	1.518229	-0.303206	-0.233139
C53	C	1.518399	-0.303055	-0.116363
H54	H	1.118308	-0.230058	-0.384431
C55	C	0.974940	-0.183204	-0.306484
C56	C	0.903616	-0.218587	-0.365354
H57	H	0.937710	-0.155851	-0.260982
H58	H	1.017692	-0.210600	-0.266208
H59	H	1.017778	-0.159157	-0.352341
H60	H	0.860782	-0.242638	-0.319498
H61	H	0.860845	-0.191189	-0.405633
C62	C	1.391335	-0.736104	-0.632860
C63	C	1.377107	-0.671460	-0.647023
H64	H	1.345721	-0.758411	-0.678417
H65	H	1.461915	-0.746829	-0.648303
H66	H	1.376000	-0.746913	-0.562255
H67	H	1.392450	-0.660650	-0.717627
H68	H	1.306511	-0.660730	-0.631587
C69	C	1.309822	-0.896560	-0.587764
C70	C	1.377274	-0.934294	-0.647097
H71	H	1.264194	-0.874252	-0.633315
H72	H	1.269676	-0.922252	-0.541973
H73	H	1.349854	-0.867576	-0.547780
H74	H	1.337242	-0.963280	-0.687076
H75	H	1.417424	-0.908599	-0.692907
H76	H	1.640105	-0.542812	-0.384258
C77	C	1.718543	-0.183242	-1.050563
C78	C	1.659539	-0.218554	-1.121863
H79	H	1.764183	-0.155920	-1.087813
H80	H	1.672788	-0.159171	-1.007774
H81	H	1.758688	-0.210689	-1.007760
H82	H	1.619388	-0.191107	-1.164662
H83	H	1.705300	-0.242627	-1.164671
C84	C	1.718311	-0.628714	-0.306220
C85	C	1.659336	-0.671449	-0.365166
H86	H	1.763929	-0.651021	-0.260659
H87	H	1.758468	-0.603031	-0.352017
H88	H	1.672527	-0.603114	-0.265994
H89	H	1.705120	-0.697046	-0.405399
H90	H	1.619176	-0.697143	-0.319363
H91	H	1.118311	-0.376325	-0.627773
C92	C	1.318046	-0.576193	-0.705928
C93	C	1.377026	-0.533456	-0.646991
H94	H	1.272407	-0.553887	-0.751470
H95	H	1.363817	-0.601785	-0.746164
H96	H	1.277901	-0.601883	-0.660116
H97	H	1.417177	-0.507768	-0.692803
H98	H	1.331250	-0.507852	-0.606752
C99	C	0.974953	-0.423195	-0.705760
C100	C	0.903625	-0.387817	-0.646914
H101	H	0.937726	-0.450554	-0.751270
H102	H	1.017790	-0.395797	-0.746026
H103	H	1.017707	-0.447236	-0.659888
H104	H	0.860877	-0.363772	-0.692786
H105	H	0.860770	-0.415218	-0.606645
H106	H	1.640363	-0.943652	-0.384377
C107	C	1.727174	-1.109938	-0.424760
C108	C	1.659710	-1.072251	-0.365358
H109	H	1.772904	-1.132206	-0.379258
H110	H	1.687164	-1.138951	-0.464690
H111	H	1.767219	-1.084214	-0.470606
H112	H	1.619659	-1.097975	-0.319516
H113	H	1.699724	-1.043235	-0.325410
H114	H	1.396517	-1.062934	-0.628017
H115	H	1.396363	-0.376135	-0.907052
C116	C	1.600255	-0.178192	-0.828460
C117	C	1.659489	-0.218601	-0.891537
H118	H	1.645872	-0.150882	-0.791252
H119	H	1.554521	-0.154107	-0.871271
H120	H	1.560214	-0.202184	-0.780066
H121	H	1.699525	-0.194609	-0.939936
H122	H	1.705242	-0.242688	-0.848722
H123	H	1.396414	-0.376086	-1.106120
