data_functionalizedCrystal
_audit_creation_method	'MofGen! by Chris Wilmer'
_symmetry_space_group_name_H-M	'P1'
_symmetry_Int_Tables_number	1
_symmetry_cell_setting	triclinic
loop_
_symmetry_equiv_pos_as_xyz
  x,y,z
_cell_length_a	16.959454
_cell_length_b	12.827893
_cell_length_c	12.827885
_cell_angle_alpha	89.980728
_cell_angle_beta	89.970356
_cell_angle_gamma	90.020046
loop_
_atom_site_label
_atom_site_type_symbol
_atom_site_fract_x
_atom_site_fract_y
_atom_site_fract_z
Zn1	Zn	-0.314644	1.597636	-0.590850
Zn2	Zn	0.185356	2.097636	-0.090850
Zn3	Zn	-0.446843	1.597515	-0.416110
Zn4	Zn	0.053157	2.097515	0.083890
Zn5	Zn	-0.314682	1.422877	-0.416123
Zn6	Zn	0.185318	1.922877	0.083877
Zn7	Zn	-0.446784	1.422848	-0.590810
Zn8	Zn	0.053216	1.922848	-0.090810
O9	O	-0.380738	1.510219	-0.503473
O10	O	0.119262	2.010219	-0.003473
O11	O	-0.332189	1.743856	-0.567681
O12	O	0.167811	2.243856	-0.067681
O13	O	-0.429352	1.574311	-0.269876
O14	O	0.070648	2.074311	0.230124
O15	O	-0.204066	1.446122	-0.439323
O16	O	0.295934	1.946122	0.060677
O17	O	-0.429315	1.743767	-0.439301
O18	O	0.070685	2.243767	0.060699
O19	O	-0.204038	1.574516	-0.567694
O20	O	0.295962	2.074516	-0.067694
O21	O	-0.332254	1.446005	-0.269885
O22	O	0.167746	1.946005	0.230115
O23	O	-0.332197	1.276637	-0.439285
O24	O	0.167803	1.776637	0.060715
O25	O	-0.429215	1.446072	-0.737052
O26	O	0.070785	1.946072	-0.237052
O27	O	-0.429252	1.276616	-0.567627
O28	O	0.070748	1.776616	-0.067627
O29	O	-0.332132	1.574488	-0.737081
O30	O	0.167868	2.074488	-0.237081
O31	O	-0.557446	1.574283	-0.439263
O32	O	-0.057446	2.074283	0.060737
O33	O	-0.557403	1.445956	-0.567614
O34	O	-0.057403	1.945956	-0.067614
C35	C	-0.380723	1.238709	-0.503454
C36	C	0.119277	1.738709	-0.003454
C37	C	-0.380736	1.122556	-0.503470
C38	C	0.119264	1.622556	-0.003470
C39	C	-0.428836	1.070788	-0.566880
C40	C	0.071164	1.570788	-0.066880
C41	C	-0.428850	0.950738	-0.566898
C42	C	0.071150	1.450738	-0.066898
C43	C	-0.586105	1.510131	-0.503456
C44	C	-0.086105	2.010131	-0.003456
C45	C	-0.673961	1.510190	-0.503483
C46	C	-0.173961	2.010190	-0.003483
C47	C	-1.045444	1.443496	-0.570299
C48	C	-0.545444	1.943496	-0.070299
C49	C	-1.045429	1.577233	-0.436755
C50	C	-0.545429	2.077233	0.063245
C51	C	-0.962883	1.577197	-0.436745
C52	C	-0.462883	2.077197	0.063255
C53	C	-0.921614	1.510308	-0.503512
C54	C	-0.421614	2.010308	-0.003512
C55	C	-0.962891	1.443455	-0.570289
C56	C	-0.462891	1.943455	-0.070289
C57	C	-0.921601	1.644041	-0.369962
C58	C	-0.421601	2.144041	0.130038
C59	C	-0.839050	1.644006	-0.369949
C60	C	-0.339050	2.144006	0.130051
C61	C	-0.797779	1.577121	-0.436722
C62	C	-0.297779	2.077121	0.063278
C63	C	-0.839061	1.510267	-0.503502
C64	C	-0.339061	2.010267	-0.003502
C65	C	-0.797791	1.443378	-0.570270
C66	C	-0.297791	1.943378	-0.070270
C67	C	-0.839071	1.376528	-0.637056
C68	C	-0.339071	1.876528	-0.137056
C69	C	-0.921620	1.376571	-0.637062
C70	C	-0.421620	1.876571	-0.137062
C71	C	-0.715231	1.577079	-0.436716
C72	C	-0.215231	2.077079	0.063284
C73	C	-0.715238	1.443337	-0.570260
C74	C	-0.215238	1.943337	-0.070260
C75	C	-0.174570	1.510335	-0.503514
C76	C	0.325430	2.010335	-0.003514
C77	C	-0.086714	1.510385	-0.503532
C78	C	0.413286	2.010385	-0.003532
C79	C	-0.380754	1.782789	-0.503494
C80	C	0.119246	2.282789	-0.003494
C81	C	-0.380761	1.898942	-0.503503
C82	C	0.119239	2.398942	-0.003503
C83	C	-0.380662	1.510290	-0.776044
C84	C	0.119338	2.010290	-0.276044
C85	C	-0.380630	1.510320	-0.892197
C86	C	0.119370	2.010320	-0.392197
C87	C	-0.332581	1.573871	-0.943996
C88	C	0.167419	2.073871	-0.443996
C89	C	-0.332546	1.573904	-1.064046
C90	C	0.167454	2.073904	-0.564046
C91	C	-0.380757	1.510208	-0.231964
C92	C	0.119243	2.010208	0.268036
C93	C	-0.380567	1.510380	-0.115811
C94	C	0.119433	2.010380	0.384189
H95	H	-0.681641	1.388871	-0.624634
H96	H	-0.181641	1.888871	-0.124634
H97	H	-0.805461	1.322061	-0.691414
H98	H	-0.305461	1.822061	-0.191414
F99	F	-0.434363	1.439228	-0.950395
F100	F	0.065637	1.939228	-0.450395
F101	F	-0.482653	1.129021	-0.637819
F102	F	0.017347	1.629021	-0.137819
H103	H	-0.421708	1.455973	-1.071272
H104	H	0.078292	1.955973	-0.571272
F105	F	-0.278780	1.645028	-1.122267
F106	F	0.221220	2.145028	-0.622267
F107	F	-0.671301	1.648210	-0.365632
F108	F	-0.171301	2.148210	0.134368
F109	F	-0.482683	0.892552	-0.637853
F110	F	0.017317	1.392552	-0.137853
F111	F	-0.965558	1.305430	-0.708134
F112	F	-0.465558	1.805430	-0.208134
H113	H	-0.339581	0.943455	-0.449209
H114	H	0.160419	1.443455	0.050791
H115	H	-1.079036	1.631685	-0.382389
H116	H	-0.579036	2.131685	0.117611
F117	F	-1.089377	1.372357	-0.641379
F118	F	-0.589377	1.872357	-0.141379
H119	H	-0.291467	1.628252	-0.899466
H120	H	0.208533	2.128252	-0.399466
H121	H	-0.339562	1.077999	-0.449200
H122	H	0.160438	1.577999	0.050800
F123	F	-0.965526	1.715227	-0.298913
F124	F	-0.465526	2.215227	0.201087
F125	F	-0.795124	1.715159	-0.298876
F126	F	-0.295124	2.215159	0.201124
