data_functionalizedCrystal
_audit_creation_method	'MofGen! by Chris Wilmer'
_symmetry_space_group_name_H-M	'P1'
_symmetry_Int_Tables_number	1
_symmetry_cell_setting	triclinic
loop_
_symmetry_equiv_pos_as_xyz
  x,y,z
_cell_length_a	17.038272
_cell_length_b	14.044220
_cell_length_c	12.503572
_cell_angle_alpha	86.156832
_cell_angle_beta	86.232200
_cell_angle_gamma	87.849783
loop_
_atom_site_label
_atom_site_type_symbol
_atom_site_fract_x
_atom_site_fract_y
_atom_site_fract_z
O1	O	1.055991	-0.201858	-0.089189
O2	O	0.828132	-0.198570	-0.089221
O3	O	0.938641	-0.061954	-0.089195
O4	O	0.945483	-0.338474	-0.089215
O5	O	0.930332	-0.072247	0.089445
O6	O	0.819823	-0.208862	0.089419
O7	O	1.047682	-0.212151	0.089451
Cu8	Cu	0.932993	-0.211446	0.105746
Cu9	Cu	0.942821	-0.199274	-0.105516
O10	O	0.937173	-0.348766	0.089425
C11	C	0.794640	-0.200726	0.000095
C12	C	0.707224	-0.191806	0.000084
C13	C	0.931492	-0.031545	0.000125
C14	C	0.922561	0.074401	0.000125
N15	N	0.926087	-0.220008	0.254337
C16	C	0.662839	-0.273694	0.000078
C17	C	0.580701	-0.265309	0.000094
C18	C	0.542950	-0.175035	0.000107
C19	C	0.587341	-0.093141	0.000115
C20	C	0.669477	-0.101527	0.000107
C21	C	0.295118	-0.145406	0.000138
C22	C	0.212976	-0.137026	0.000142
C23	C	0.206341	-0.309195	0.000123
C24	C	0.288479	-0.317574	0.000109
C25	C	0.332863	-0.235680	0.000123
C26	C	0.458992	-0.166461	0.000119
C27	C	0.416819	-0.244255	0.000118
C28	C	1.081174	-0.209994	0.000132
C29	C	1.168591	-0.218914	0.000137
C30	C	0.944322	-0.379176	0.000102
C31	C	0.953254	-0.485122	0.000095
C32	C	0.906233	0.268380	0.000108
C33	C	0.969578	0.320905	0.000113
C34	C	0.960493	0.428842	0.000103
C35	C	0.915317	0.160434	0.000117
N36	N	0.949733	-0.190706	-0.254107
C37	C	0.915929	-0.232609	0.473450
C38	C	0.959889	-0.178107	0.526787
C39	C	0.954236	-0.185119	0.648709
C40	C	0.921580	-0.225599	0.351517
H41	H	0.544566	-0.331991	0.000088
N42	N	0.160991	-0.392833	0.000130
N43	N	0.110924	-0.411696	0.075437
H44	H	0.078894	-0.470769	0.075447
H45	H	0.845184	0.304473	0.000096
N46	N	0.863395	-0.297741	0.531041
N47	N	0.858822	-0.303415	0.631437
H48	H	0.821722	-0.349415	0.672124
N49	N	1.012434	-0.112958	0.469231
N50	N	0.986168	-0.048243	0.406455
H51	H	1.023281	-0.002234	0.365809
N52	N	0.701384	-0.365916	0.000055
N53	N	0.661741	-0.439022	0.000053
H54	H	0.688961	-0.504157	0.000039
H55	H	0.319211	-0.391084	0.000086
N56	N	1.046165	0.275617	0.000151
N57	N	1.063070	0.216953	0.075468
H58	H	1.117157	0.184963	0.075501
N59	N	0.174425	-0.044800	0.000153
N60	N	0.214061	0.028312	0.000165
H61	H	0.186836	0.093444	0.000171
H62	H	0.331245	-0.078722	0.000150
N63	N	0.548795	-0.000919	0.000119
N64	N	0.588437	0.072188	0.000122
H65	H	0.561217	0.137324	0.000121
H66	H	0.705615	-0.034845	0.000111
H67	H	0.428245	-0.092961	0.000160
N68	N	0.455376	-0.336467	0.000127
N69	N	0.496972	-0.364690	0.075426
H70	H	0.524210	-0.429816	0.075431
