data_functionalizedCrystal
_audit_creation_method	'MofGen! by Chris Wilmer'
_symmetry_space_group_name_H-M	'P1'
_symmetry_Int_Tables_number	1
_symmetry_cell_setting	triclinic
loop_
_symmetry_equiv_pos_as_xyz
  x,y,z
_cell_length_a	15.995350
_cell_length_b	15.995362
_cell_length_c	15.072220
_cell_angle_alpha	89.994286
_cell_angle_beta	90.009616
_cell_angle_gamma	83.494877
loop_
_atom_site_label
_atom_site_type_symbol
_atom_site_fract_x
_atom_site_fract_y
_atom_site_fract_z
O1	O	-1.110977	-0.107935	0.073697
O2	O	-0.610977	0.392065	0.573697
O3	O	-0.867202	-0.121263	0.073714
O4	O	-0.367202	0.378737	0.573714
O5	O	-0.995748	0.007288	0.073711
O6	O	-0.495748	0.507288	0.573711
O7	O	-0.982431	-0.236486	0.073699
O8	O	-0.482431	0.263514	0.573699
O9	O	-0.995764	0.007310	-0.073854
O10	O	-0.495764	0.507310	0.426146
O11	O	-0.867218	-0.121240	-0.073852
O12	O	-0.367218	0.378760	0.426148
O13	O	-1.110993	-0.107913	-0.073869
O14	O	-0.610993	0.392087	0.426131
Zn15	Zn	-0.989108	-0.114573	-0.097289
Zn16	Zn	-0.489108	0.385427	0.402711
Zn17	Zn	-0.989087	-0.114603	0.097134
Zn18	Zn	-0.489087	0.385397	0.597134
O19	O	-0.982447	-0.236463	-0.073866
O20	O	-0.482447	0.263537	0.426134
C21	C	-0.995203	0.038494	-0.000068
C22	C	-0.495203	0.538494	0.499932
C23	C	-0.993548	0.131444	-0.000058
C24	C	-0.493548	0.631444	0.499942
C25	C	-0.836015	-0.120700	-0.000067
C26	C	-0.336015	0.379300	0.499933
C27	C	-0.743065	-0.119049	-0.000060
C28	C	-0.243065	0.380951	0.499940
C29	C	-0.987601	0.469189	-0.000040
C30	C	-0.487601	0.969189	0.499960
C31	C	-0.896051	0.421755	0.000294
C32	C	-0.396051	0.921755	0.500294
C33	C	-0.897707	0.325066	-0.000044
C34	C	-0.397707	0.825066	0.499956
C35	C	-0.990550	0.301630	-0.000048
C36	C	-0.490550	0.801630	0.499952
C37	C	-1.035715	0.342720	-0.084315
C38	C	-0.535715	0.842720	0.415685
C39	C	-1.033410	0.439355	-0.084379
C40	C	-0.533410	0.939355	0.415621
C41	C	-1.035283	0.439687	0.083430
C42	C	-0.535283	0.939687	0.583430
C43	C	-1.035265	0.342743	0.084538
C44	C	-0.535265	0.842743	0.584538
C45	C	-0.992222	0.206933	-0.000056
C46	C	-0.492222	0.706933	0.499944
C47	C	-0.985931	0.563887	-0.000039
C48	C	-0.485931	1.063887	0.499961
C49	C	-1.142180	-0.108475	-0.000086
C50	C	-0.642180	0.391525	0.499914
C51	C	-1.235130	-0.110127	-0.000088
C52	C	-0.735130	0.389873	0.499912
C53	C	-0.405317	-0.113116	-0.000078
C54	C	0.094683	0.386884	0.499922
C55	C	-0.452747	-0.021565	-0.000403
C56	C	0.047253	0.478435	0.499597
C57	C	-0.549437	-0.023217	-0.000064
C58	C	-0.049437	0.476783	0.499936
C59	C	-0.572878	-0.116059	-0.000069
C60	C	-0.072878	0.383941	0.499931
C61	C	-0.531783	-0.161228	0.084192
C62	C	-0.031783	0.338772	0.584192
C63	C	-0.435147	-0.158928	0.084256
C64	C	0.064853	0.341072	0.584256
C65	C	-0.434827	-0.160794	-0.083553
C66	C	0.065173	0.339206	0.416447
C67	C	-0.531773	-0.160772	-0.084660
C68	C	-0.031773	0.339228	0.415340
C69	C	-0.667575	-0.117727	-0.000062
C70	C	-0.167575	0.382273	0.499938
C71	C	-0.310619	-0.111451	-0.000080
C72	C	0.189381	0.388549	0.499920
C73	C	-0.982980	0.732329	-0.000070
C74	C	-0.482980	1.232329	0.499930
C75	C	-0.984603	0.639375	-0.000031
C76	C	-0.484603	1.139375	0.499969
N77	N	-0.989072	-0.114617	0.229823
N78	N	-0.489072	0.385383	0.729823
N79	N	-0.989129	-0.114552	-0.229978
N80	N	-0.489129	0.385448	0.270022
C81	C	-0.989110	-0.114573	0.589025
C82	C	-0.489110	0.385427	1.089025
C83	C	-0.920401	-0.183433	0.551419
C84	C	-0.420401	0.316567	1.051419
C85	C	-0.920146	-0.183268	0.448593
C86	C	-0.420146	0.316732	0.948593
C87	C	-0.989091	-0.114596	0.410820
C88	C	-0.489091	0.385404	0.910820
C89	C	-0.970235	-0.027160	0.448133
C90	C	-0.470235	0.472840	0.948133
C91	C	-0.969753	-0.027551	0.550991
C92	C	-0.469753	0.472449	1.050991
C93	C	-1.076878	-0.132369	0.551102
C94	C	-0.576878	0.367631	1.051102
C95	C	-1.076282	-0.134367	0.448239
C96	C	-0.576282	0.365633	0.948239
C97	C	-0.989082	-0.114603	0.310107
C98	C	-0.489082	0.385397	0.810107
C99	C	-0.989117	-0.114560	0.689738
C100	C	-0.489117	0.385440	1.189738
H101	H	-0.862206	0.296635	0.060362
H102	H	-0.362206	0.796635	0.560362
O103	O	-1.033525	0.042382	0.583944
O104	O	-0.533525	0.542382	1.083944
H105	H	-1.064500	0.076384	0.526409
H106	H	-0.564500	0.576384	1.026409
H107	H	-0.859451	0.440278	0.060726
H108	H	-0.359451	0.940278	0.560726
H109	H	-0.577287	0.012509	0.060446
H110	H	-0.077287	0.512509	0.560446
O111	O	-1.122440	0.482075	-0.089476
O112	O	-0.622440	0.982075	0.410524
H113	H	-1.121463	0.551349	-0.089562
H114	H	-0.621463	1.051349	0.410438
H115	H	-1.102970	0.327380	0.089622
H116	H	-0.602970	0.827380	0.589622
O117	O	-1.034757	0.042361	0.415719
O118	O	-0.534757	0.542361	0.915719
H119	H	-1.081058	0.015267	0.372564
H120	H	-0.581058	0.515267	0.872564
H121	H	-0.859626	0.441359	-0.059793
H122	H	-0.359626	0.941359	0.440207
H123	H	-0.416831	-0.126008	0.147248
H124	H	0.083169	0.373992	0.647248
O125	O	-0.886420	-0.005934	0.414034
O126	O	-0.386420	0.494066	0.914034
H127	H	-0.858065	-0.057518	0.370524
H128	H	-0.358065	0.442482	0.870524
H129	H	-0.547142	-0.228475	-0.089754
H130	H	-0.047142	0.271525	0.410246
H131	H	-0.861980	0.297210	-0.060551
H132	H	-0.361980	0.797210	0.439449
H133	H	-0.433145	0.014853	0.059694
H134	H	0.066855	0.514853	0.559694
O135	O	-0.989794	0.463620	-0.167806
O136	O	-0.489794	0.963620	0.332194
H137	H	-0.970539	0.406358	-0.207723
H138	H	-0.470539	0.906358	0.292277
O139	O	-0.392750	-0.250201	-0.084324
O140	O	0.107250	0.249799	0.415676
H141	H	-0.410031	-0.282966	-0.023224
H142	H	0.089969	0.217034	0.476776
O143	O	-0.833863	-0.168183	0.416006
O144	O	-0.333863	0.331817	0.916006
H145	H	-0.833376	-0.168022	0.342366
H146	H	-0.333376	0.331978	0.842366
O147	O	-0.428214	0.026927	-0.080441
O148	O	0.071786	0.526927	0.419559
H149	H	-0.485019	0.046569	-0.120939
H150	H	0.014981	0.546569	0.379061
O151	O	-0.884982	-0.006824	0.582803
O152	O	-0.384982	0.493176	1.082803
H153	H	-0.835068	-0.054678	0.557368
H154	H	-0.335068	0.445322	1.057368
H155	H	-1.102782	0.471448	0.083996
H156	H	-0.602782	0.971448	0.583996
H157	H	-0.414298	-0.130854	-0.147421
H158	H	0.085702	0.369146	0.352579
O159	O	-0.934988	-0.269347	0.415175
O160	O	-0.434988	0.230653	0.915175
H161	H	-0.884265	-0.316733	0.439886
H162	H	-0.384265	0.183267	0.939886
O163	O	-0.392423	-0.247957	0.089335
O164	O	0.107577	0.252043	0.589335
H165	H	-0.440812	-0.292461	0.091741
H166	H	0.059188	0.207539	0.591741
O167	O	-0.550498	-0.251578	0.088354
O168	O	-0.050498	0.248422	0.588354
H169	H	-0.589384	-0.265277	0.030273
H170	H	-0.089384	0.234723	0.530273
H171	H	-0.577871	0.012287	-0.060466
H172	H	-0.077871	0.512287	0.439534
O173	O	-0.991594	0.306571	0.167121
O174	O	-0.491594	0.806571	0.667121
H175	H	-0.938266	0.259503	0.148013
H176	H	-0.438266	0.759503	0.648013
O177	O	-0.935003	-0.269805	0.584166
O178	O	-0.435003	0.230195	1.084166
H179	H	-0.991380	-0.264580	0.627605
H180	H	-0.491380	0.235420	1.127605
O181	O	-0.569340	-0.119696	0.167269
O182	O	-0.069340	0.380304	0.667269
H183	H	-0.617263	-0.066892	0.148759
H184	H	-0.117263	0.433108	0.648759
H185	H	-1.103924	0.328595	-0.087452
H186	H	-0.603924	0.828595	0.412548
H187	H	-1.095056	-0.194769	0.577055
H188	H	-0.595056	0.305231	1.077055
H189	H	-0.559095	-0.127799	-0.146997
H190	H	-0.059095	0.372201	0.353003
H191	H	-0.855632	-0.172203	0.577275
H192	H	-0.355632	0.327797	1.077275
H193	H	-1.005342	0.460217	0.147301
H194	H	-0.505342	0.960217	0.647301
H195	H	-1.004359	0.314348	-0.147024
H196	H	-0.504359	0.814348	0.352976
H197	H	-1.090588	-0.198695	0.423867
H198	H	-0.590588	0.301305	0.923867
H199	H	-1.129788	-0.087488	0.422524
H200	H	-0.629788	0.412512	0.922524
H201	H	-1.128007	-0.082158	0.575424
H202	H	-0.628007	0.417842	1.075424
