data_functionalizedCrystal
_audit_creation_method	'MofGen! by Chris Wilmer'
_symmetry_space_group_name_H-M	'P1'
_symmetry_Int_Tables_number	1
_symmetry_cell_setting	triclinic
loop_
_symmetry_equiv_pos_as_xyz
  x,y,z
_cell_length_a	11.026607
_cell_length_b	10.654541
_cell_length_c	9.482900
_cell_angle_alpha	99.425331
_cell_angle_beta	78.636152
_cell_angle_gamma	96.534973
loop_
_atom_site_label
_atom_site_type_symbol
_atom_site_fract_x
_atom_site_fract_y
_atom_site_fract_z
O1	O	1.633379	0.511462	-0.120903
O2	O	1.279568	0.451466	-0.120904
O3	O	1.464608	0.300491	-0.120894
O4	O	1.448338	0.662436	-0.120912
O5	O	1.427024	0.331315	0.120896
O6	O	1.241984	0.482290	0.120887
O7	O	1.595794	0.542285	0.120888
Cu8	Cu	1.415457	0.515102	0.142965
Cu9	Cu	1.459905	0.478649	-0.142981
O10	O	1.410754	0.693260	0.120879
C11	C	1.215472	0.455810	-0.000009
C12	C	1.080481	0.422815	-0.000009
C13	C	1.444622	0.268846	0.000000
C14	C	1.441049	0.128627	-0.000002
C15	C	1.007442	0.513918	-0.000014
C16	C	0.867921	0.479818	-0.000014
C17	C	1.662314	0.148689	0.000017
C18	C	1.771262	0.092846	0.000029
C19	C	1.767898	-0.038903	0.000025
C20	C	1.655575	-0.114814	0.000003
C21	C	1.546627	-0.058971	-0.000009
C22	C	1.550002	0.072783	-0.000000
C23	C	1.325366	-0.079034	-0.000039
C24	C	1.328726	0.052716	-0.000024
C25	C	1.213043	-0.154945	-0.000060
C26	C	1.104091	-0.099101	-0.000062
C27	C	1.107459	0.032657	-0.000056
C28	C	1.219778	0.108559	-0.000036
C29	C	1.659891	0.537941	-0.000010
C30	C	1.794884	0.570934	-0.000020
C31	C	1.430741	0.724905	-0.000019
C32	C	1.434315	0.865123	-0.000026
N33	N	1.384204	0.540742	0.344083
N34	N	1.491168	0.453001	-0.344099
C35	C	1.450678	0.486203	0.416286
C36	C	1.424684	0.507548	0.583702
H37	H	0.827172	0.376566	-0.000047
H38	H	0.835635	0.674184	-0.000015
H39	H	1.039726	0.319570	-0.000041
O40	O	1.293423	0.615461	0.418026
C41	C	1.320314	0.739779	0.380960
H42	H	1.384271	0.736093	0.270398
H43	H	1.368049	0.803105	0.466582
C44	C	1.120257	0.799539	0.509954
C45	C	1.198802	0.795011	0.374154
H46	H	1.045304	0.833613	0.505762
H47	H	1.102141	0.715786	0.534931
H48	H	1.160051	0.852310	0.581291
H49	H	1.159014	0.742229	0.302824
H50	H	1.216909	0.878757	0.349165
O51	O	1.333745	0.581945	0.657961
C52	C	1.244354	0.508913	0.745998
H53	H	1.288202	0.424137	0.768641
H54	H	1.163424	0.472824	0.687447
C55	C	1.142942	0.696527	0.862860
C56	C	1.196801	0.592410	0.890681
H57	H	1.113604	0.748031	0.952104
H58	H	1.203164	0.745730	0.803544
H59	H	1.075508	0.666437	0.814064
H60	H	1.264242	0.622500	0.939459
H61	H	1.136589	0.543213	0.950008
H62	H	1.665061	0.255969	0.000040
O63	O	1.541421	0.411586	0.341991
C64	C	1.489078	0.308179	0.253948
H65	H	1.397937	0.334093	0.231347
H66	H	1.470805	0.220711	0.312472
C67	C	1.691642	0.246546	0.137007
C68	C	1.579706	0.278378	0.109238
H69	H	1.747547	0.228158	0.047745
H70	H	1.726908	0.316210	0.196327
H71	H	1.676398	0.173659	0.185781
H72	H	1.594949	0.351272	0.060482
H73	H	1.544445	0.208725	0.049907
O74	O	1.581748	0.378096	0.581795
C75	C	1.529118	0.274696	0.494012
H76	H	1.438141	0.300870	0.471232
H77	H	1.510474	0.187411	0.552853
C78	C	1.731445	0.212151	0.377387
C79	C	1.619711	0.244302	0.349399
H80	H	1.787328	0.193397	0.288185
H81	H	1.766904	0.281810	0.436531
H82	H	1.715892	0.139418	0.426424
H83	H	1.635264	0.317043	0.300379
H84	H	1.584257	0.174654	0.290242
H85	H	1.048201	0.617159	-0.000011
H86	H	1.862712	0.154668	0.000059
H87	H	1.856615	-0.084371	0.000023
H88	H	1.210313	-0.262222	-0.000073
H89	H	1.652848	-0.222092	-0.000018
H90	H	1.012647	-0.160918	-0.000089
H91	H	1.018740	0.078114	-0.000072
H92	H	1.222530	0.215838	-0.000022
