data_functionalizedCrystal
_audit_creation_method	'MofGen! by Chris Wilmer'
_symmetry_space_group_name_H-M	'P1'
_symmetry_Int_Tables_number	1
_symmetry_cell_setting	triclinic
loop_
_symmetry_equiv_pos_as_xyz
  x,y,z
_cell_length_a	14.908520
_cell_length_b	18.215407
_cell_length_c	18.215399
_cell_angle_alpha	89.982223
_cell_angle_beta	86.730636
_cell_angle_gamma	86.683764
loop_
_atom_site_label
_atom_site_type_symbol
_atom_site_fract_x
_atom_site_fract_y
_atom_site_fract_z
Zn1	Zn	-0.359273	-1.108172	0.432983
Zn2	Zn	-0.510141	-1.100984	0.317016
Zn3	Zn	-0.359290	-0.985104	0.309935
Zn4	Zn	-0.510078	-0.977977	0.440043
O5	O	-0.434695	-1.043059	0.374994
O6	O	-0.379305	-1.210202	0.417608
O7	O	-0.490164	-1.085587	0.213094
O8	O	-0.233043	-1.007420	0.320340
O9	O	-0.490147	-1.204921	0.332408
O10	O	-0.233031	-1.097838	0.410742
O11	O	-0.379334	-1.000450	0.207892
O12	O	-0.379273	-0.881175	0.327186
O13	O	-0.490040	-0.995273	0.542089
O14	O	-0.490057	-0.875939	0.422775
O15	O	-0.379244	-1.090927	0.536902
O16	O	-0.636377	-1.078676	0.339254
O17	O	-0.636331	-0.988303	0.429641
C18	C	-0.434660	-0.851855	0.374979
C19	C	-0.434667	-0.770055	0.374990
C20	C	-0.377063	-0.584605	0.419432
C21	C	-0.377068	-0.507746	0.419434
C22	C	-0.492314	-0.502266	0.330562
C23	C	-0.492304	-0.579124	0.330556
C24	C	-0.434680	-0.620291	0.374996
C25	C	-0.434695	-0.466575	0.375003
C26	C	-0.434700	-0.383241	0.375005
C27	C	-0.434673	-0.703631	0.374993
C28	C	-0.669088	-1.031956	0.385998
C29	C	-0.769362	-1.027273	0.390730
C30	C	-0.957775	-1.112676	0.305578
C31	C	-1.051991	-1.108279	0.310022
C32	C	-1.052013	-1.014086	0.404065
C33	C	-0.957797	-1.018483	0.399621
C34	C	-0.910681	-1.067779	0.350375
C35	C	-0.816463	-1.072172	0.345928
C36	C	-0.816486	-0.977983	0.439974
C37	C	-0.910703	-0.973586	0.444418
C38	C	-0.199388	-1.054226	0.363964
C39	C	-0.099114	-1.058984	0.359263
C40	C	-0.434633	-1.043107	0.566944
C41	C	-0.434607	-1.043127	0.648742
C42	C	-0.434722	-0.235011	0.375009
C43	C	-0.434708	-0.316810	0.375009
C44	C	-0.434692	-1.043057	0.183788
C45	C	-0.434465	-1.043191	0.101979
C46	C	-0.376861	-1.092954	0.834234
C47	C	-0.376835	-1.092964	0.911092
C48	C	-0.492213	-0.993360	0.916482
C49	C	-0.492234	-0.993347	0.839625
C50	C	-0.434559	-1.043148	0.798504
C51	C	-0.434512	-1.043171	0.952217
C52	C	-0.434484	-1.043181	1.035550
C53	C	-0.434586	-1.043137	0.715166
H54	H	-0.330148	-0.478694	0.455618
O55	O	-0.548331	-0.945063	0.804833
C56	C	-0.606629	-0.984193	0.763125
H57	H	-0.574822	-1.041471	0.750134
H58	H	-0.673480	-0.989111	0.795875
C59	C	-0.662038	-0.872567	0.706832
C60	C	-0.622968	-0.942916	0.690870
H61	H	-0.672120	-0.847104	0.662263
H62	H	-0.622764	-0.846204	0.734933
H63	H	-0.717742	-0.876675	0.734125
H64	H	-0.567260	-0.938806	0.663586
H65	H	-0.662233	-0.969277	0.662763
O66	O	-0.548264	-0.462162	0.287468
C67	C	-0.535906	-0.386673	0.296988
H68	H	-0.506447	-0.377589	0.352439
H69	H	-0.487801	-0.367117	0.251142
C70	C	-0.663363	-0.354057	0.226310
C71	C	-0.627188	-0.342899	0.294417
H72	H	-0.719668	-0.327054	0.224720
H73	H	-0.671687	-0.404915	0.219893
H74	H	-0.623266	-0.337761	0.188112
H75	H	-0.667279	-0.359204	0.332613
H76	H	-0.618872	-0.292042	0.300840
O77	O	-0.321129	-0.624514	0.462698
C78	C	-0.340973	-0.604836	0.536954
H79	H	-0.375662	-0.547394	0.540066
H80	H	-0.387387	-0.645908	0.563859
C81	C	-0.210487	-0.676004	0.573698
C82	C	-0.253086	-0.605450	0.577520
H83	H	-0.156275	-0.676386	0.598723
H84	H	-0.197119	-0.689265	0.523671
H85	H	-0.249174	-0.710223	0.596118
H86	H	-0.214403	-0.571234	0.555093
H87	H	-0.266445	-0.592184	0.627545
H88	H	-0.539224	-0.608180	0.294367
H89	H	-0.539171	-0.952815	0.949972
O90	O	-0.770790	-1.120015	0.297996
C91	C	-0.793869	-1.102892	0.225721
H92	H	-0.862306	-1.071409	0.227396
H93	H	-0.740900	-1.067544	0.198397
C94	C	-0.714130	-1.213133	0.179359
C95	C	-0.798189	-1.174470	0.181416
H96	H	-0.716791	-1.257285	0.152028
H97	H	-0.698578	-1.224668	0.228052
H98	H	-0.669998	-1.183669	0.156591
H99	H	-0.842317	-1.203931	0.204192
H100	H	-0.813749	-1.162941	0.132726
H101	H	-0.919412	-1.152810	0.265475
H102	H	-1.090332	-1.144840	0.273545
H103	H	-1.090391	-0.973956	0.444163
H104	H	-0.949077	-0.933453	0.484515
H105	H	-0.778132	-0.941423	0.476449
H106	H	-0.329897	-1.133503	0.800755
H107	H	-0.329850	-1.133520	0.940180
