data_functionalizedCrystal
_audit_creation_method	'MofGen! by Chris Wilmer'
_symmetry_space_group_name_H-M	'P1'
_symmetry_Int_Tables_number	1
_symmetry_cell_setting	triclinic
loop_
_symmetry_equiv_pos_as_xyz
  x,y,z
_cell_length_a	10.654550
_cell_length_b	13.339070
_cell_length_c	9.130313
_cell_angle_alpha	89.997998
_cell_angle_beta	89.999724
_cell_angle_gamma	100.057112
loop_
_atom_site_label
_atom_site_type_symbol
_atom_site_fract_x
_atom_site_fract_y
_atom_site_fract_z
O1	O	1.715933	0.142435	-0.121681
O2	O	2.215933	0.642435	0.378319
O3	O	1.355037	0.156005	-0.121708
O4	O	1.855037	0.656005	0.378292
O5	O	1.494066	0.001665	-0.121693
O6	O	1.994066	0.501665	0.378307
O7	O	1.576904	0.296774	-0.121696
O8	O	2.076904	0.796774	0.378304
O9	O	1.494051	0.001661	0.121906
O10	O	1.994051	0.501661	0.621906
O11	O	1.355022	0.156000	0.121891
O12	O	1.855022	0.656000	0.621891
O13	O	1.715918	0.142430	0.121917
O14	O	2.215918	0.642430	0.621917
Cu15	Cu	1.535469	0.149215	0.144147
Cu16	Cu	2.035469	0.649215	0.644147
Cu17	Cu	1.535486	0.149220	-0.143937
Cu18	Cu	2.035486	0.649220	0.356063
O19	O	1.576889	0.296769	0.121903
O20	O	2.076889	0.796769	0.621903
C21	C	1.307895	0.155006	0.000088
C22	C	1.807895	0.655006	0.500088
C23	C	1.167445	0.152025	0.000078
C24	C	1.667445	0.652025	0.500078
C25	C	1.118643	0.242897	0.000082
C26	C	1.618643	0.742897	0.500082
C27	C	0.986674	0.240090	0.000107
C28	C	1.486674	0.740090	0.500107
C29	C	0.952320	0.055530	0.000120
C30	C	1.452320	0.555530	0.500120
C31	C	1.084286	0.058338	0.000105
C32	C	1.584286	0.558338	0.500105
C33	C	1.480065	-0.036124	0.000103
C34	C	1.980065	0.463876	0.500103
C35	C	1.438355	-0.148719	0.000094
C36	C	1.938355	0.351281	0.500094
C37	C	1.762670	-0.511236	0.000119
C38	C	2.262670	-0.011236	0.500119
C39	C	1.801862	-0.405448	0.000135
C40	C	2.301862	0.094552	0.500135
C41	C	1.710989	-0.341261	0.000124
C42	C	2.210989	0.158739	0.500124
C43	C	1.580916	-0.382871	0.000098
C44	C	2.080916	0.117129	0.500098
C45	C	1.541720	-0.488669	0.000093
C46	C	2.041720	0.011331	0.500093
C47	C	1.490039	-0.318694	0.000099
C48	C	1.990039	0.181306	0.500099
C49	C	1.359966	-0.360304	0.000073
C50	C	1.859966	0.139696	0.500073
C51	C	1.320776	-0.466092	0.000066
C52	C	1.820776	0.033908	0.500066
C53	C	1.411650	-0.530280	0.000077
C54	C	1.911650	-0.030280	0.500077
C55	C	1.529235	-0.212896	0.000104
C56	C	2.029235	0.287104	0.500104
C57	C	1.308285	-0.190329	0.000078
C58	C	1.808285	0.309671	0.500078
C59	C	1.269093	-0.296117	0.000062
C60	C	1.769093	0.203883	0.500062
C61	C	1.763060	0.143429	0.000118
C62	C	2.263060	0.643429	0.500118
C63	C	1.903510	0.146410	0.000119
C64	C	2.403510	0.646410	0.500119
C65	C	1.590890	0.334559	0.000103
C66	C	2.090890	0.834559	0.500103
C67	C	1.632600	0.447153	0.000103
C68	C	2.132600	0.947153	0.500103
N69	N	1.535465	0.149210	0.346770
N70	N	2.035465	0.649210	0.846770
N71	N	1.535497	0.149216	-0.346560
N72	N	2.035497	0.649216	0.153440
C73	C	1.597066	0.080898	0.423428
C74	C	2.097066	0.580898	0.923428
C75	C	1.597078	0.080898	0.576765
C76	C	2.097078	0.580898	1.076765
C77	C	1.473888	0.217532	0.576771
C78	C	1.973888	0.717532	1.076771
C79	C	1.473869	0.217526	0.423437
C80	C	1.973869	0.717526	0.923437
H81	H	0.946947	0.314088	0.000113
H82	H	1.446947	0.814088	0.500113
F83	F	0.863807	-0.044172	0.000142
F84	F	1.363807	0.455828	0.500142
H85	H	1.214863	-0.499968	0.000056
H86	H	1.714863	0.000032	0.500056
F87	F	1.136227	-0.038386	0.000111
F88	F	1.636227	0.461614	0.500111
F89	F	1.408296	0.290233	0.341846
F90	F	1.908296	0.790233	0.841846
H91	H	1.907767	-0.371577	0.000159
H92	H	2.407767	0.128423	0.500159
F93	F	1.207142	0.342607	0.000059
F94	F	1.707142	0.842607	0.500059
H95	H	1.647220	0.025270	0.361008
H96	H	2.147220	0.525270	0.861008
F97	F	1.408340	0.290238	0.658377
F98	F	1.908340	0.790238	1.158377
H99	H	1.379745	-0.616422	0.000058
H100	H	1.879745	-0.116422	0.500058
F101	F	1.667663	-0.168623	0.000133
F102	F	2.167663	0.331377	0.500133
F103	F	1.859368	-0.579553	0.000153
F104	F	2.359368	-0.079553	0.500153
F105	F	1.752704	-0.228672	0.000138
F106	F	2.252704	0.271328	0.500138
H107	H	1.163185	-0.330011	0.000041
H108	H	1.663185	0.169989	0.500041
H109	H	1.234288	-0.138067	0.000077
H110	H	1.734288	0.361933	0.500077
F111	F	1.662639	0.008189	0.658345
F112	F	2.162639	0.508189	1.158345
