data_functionalizedCrystal
_audit_creation_method	'MofGen! by Chris Wilmer'
_symmetry_space_group_name_H-M	'P1'
_symmetry_Int_Tables_number	1
_symmetry_cell_setting	triclinic
loop_
_symmetry_equiv_pos_as_xyz
  x,y,z
_cell_length_a	19.288859
_cell_length_b	10.654549
_cell_length_c	18.366186
_cell_angle_alpha	89.994903
_cell_angle_beta	89.990083
_cell_angle_gamma	83.810322
loop_
_atom_site_label
_atom_site_type_symbol
_atom_site_fract_x
_atom_site_fract_y
_atom_site_fract_z
O1	O	0.922382	0.156619	-0.060562
O2	O	0.720260	0.177760	-0.060560
O3	O	0.825967	-0.015649	-0.060559
O4	O	0.816676	0.350028	-0.060564
O5	O	0.825948	-0.015658	0.060541
O6	O	0.720242	0.177751	0.060539
O7	O	0.922364	0.156610	0.060537
Zn8	Zn	0.821300	0.167179	0.079765
Zn9	Zn	0.821324	0.167191	-0.079788
O10	O	0.816658	0.350019	0.060535
C11	C	0.694370	0.177076	-0.000010
C12	C	0.617253	0.175038	-0.000010
C13	C	0.053866	0.274735	-0.000012
C14	C	0.126325	0.276661	-0.000016
C15	C	0.170287	0.163177	-0.000013
C16	C	0.141786	0.047759	-0.000025
C17	C	0.069328	0.045836	-0.000028
C18	C	0.290996	0.078538	0.042417
C19	C	0.363453	0.080466	0.042425
C20	C	0.393772	0.169103	-0.000006
C21	C	0.351625	0.255833	-0.042435
C22	C	0.279167	0.253910	-0.042439
C23	C	0.248857	0.165249	-0.000010
C24	C	0.500834	0.286602	-0.000003
C25	C	0.573295	0.288523	-0.000012
C26	C	0.588754	0.059618	-0.000013
C27	C	0.516295	0.057700	-0.000012
C28	C	0.472339	0.171196	-0.000004
C29	C	0.825275	-0.062437	-0.000010
C30	C	0.823231	-0.201836	-0.000012
C31	C	0.945797	-0.494449	-0.000010
C32	C	1.009959	-0.444288	-0.000009
C33	C	1.011882	-0.313311	-0.000010
C34	C	0.949634	-0.232491	-0.000009
C35	C	0.885472	-0.282652	-0.000010
C36	C	0.883557	-0.413633	-0.000011
C37	C	0.759069	-0.251997	-0.000013
C38	C	0.757145	-0.382974	-0.000017
C39	C	0.696822	-0.171177	-0.000013
C40	C	0.632658	-0.221337	-0.000019
C41	C	0.630738	-0.352323	-0.000019
C42	C	0.692983	-0.433135	-0.000018
C43	C	0.948254	0.157294	-0.000014
C44	C	1.025372	0.159332	-0.000020
C45	C	0.817350	0.396807	-0.000015
C46	C	0.819393	0.536206	-0.000018
N47	N	0.821289	0.167169	0.188656
N48	N	0.821341	0.167190	-0.188680
C49	C	0.868111	0.081570	0.226757
C50	C	0.868116	0.081564	0.302985
C51	C	0.821304	0.167180	0.341109
C52	C	0.774473	0.252786	0.302999
C53	C	0.774465	0.252781	0.226772
C54	C	0.812756	0.281601	0.461868
C55	C	0.812769	0.281608	0.538093
C56	C	0.821324	0.167196	0.576217
C57	C	0.829881	0.052771	0.538106
C58	C	0.829874	0.052766	0.461880
C59	C	0.821307	0.167194	0.423764
C60	C	0.868154	0.081583	0.696973
C61	C	0.868154	0.081575	0.773202
C62	C	0.774514	0.252808	0.773214
C63	C	0.774511	0.252804	0.696986
C64	C	0.821335	0.167193	0.658870
H65	H	0.018081	0.367152	-0.000009
F66	F	0.698869	-0.031779	-0.000011
F67	F	0.566418	-0.135318	-0.000013
F68	F	0.838992	-0.069005	0.578674
H69	H	0.906279	0.011869	0.665937
H70	H	0.578489	-0.393154	-0.000012
H71	H	0.944238	-0.601099	-0.000018
H72	H	0.906280	0.011863	0.804225
H73	H	0.691426	-0.539785	-0.000022
F74	F	0.917942	-0.009548	0.186193
H75	H	0.805806	0.374779	0.569116
H76	H	0.906246	0.011856	0.334013
H77	H	0.736396	0.322513	0.804254
H78	H	0.736386	0.322513	0.665962
F79	F	0.188574	-0.073018	-0.000024
H80	H	1.060640	-0.510106	-0.000007
F81	F	0.258739	-0.015857	0.087547
H82	H	0.624548	-0.032783	-0.000016
F83	F	0.156657	0.399493	-0.000007
F84	F	0.234314	0.346207	-0.087597
F85	F	1.080170	-0.259925	-0.000000
F86	F	0.408301	-0.011831	0.087588
H87	H	0.805778	0.374776	0.430833
F88	F	0.838975	-0.069009	0.421323
F89	F	0.724650	0.343900	0.343573
H90	H	0.736336	0.322487	0.195750
H91	H	0.376309	0.328013	-0.076985
F92	F	0.603619	0.411358	-0.000011
H93	H	0.465043	0.379017	0.000002
F94	F	0.039002	-0.076997	-0.000038
F95	F	0.485968	-0.065129	-0.000022
F96	F	0.951683	-0.093094	-0.000000
