data_functionalizedCrystal
_audit_creation_method	'MofGen! by Chris Wilmer'
_symmetry_space_group_name_H-M	'P1'
_symmetry_Int_Tables_number	1
_symmetry_cell_setting	triclinic
loop_
_symmetry_equiv_pos_as_xyz
  x,y,z
_cell_length_a	19.288864
_cell_length_b	16.098538
_cell_length_c	19.288857
_cell_angle_alpha	87.288895
_cell_angle_beta	83.134677
_cell_angle_gamma	92.743008
loop_
_atom_site_label
_atom_site_type_symbol
_atom_site_fract_x
_atom_site_fract_y
_atom_site_fract_z
O1	O	0.924478	0.069528	0.083522
O2	O	1.424478	0.569528	0.583522
O3	O	0.722215	0.069472	0.095213
O4	O	1.222215	0.569472	0.595213
O5	O	0.829193	0.069491	-0.011763
O6	O	1.329193	0.569491	0.488237
O7	O	0.817500	0.069508	0.190498
O8	O	1.317500	0.569508	0.690498
O9	O	0.822944	-0.069023	-0.005538
O10	O	1.322944	0.430977	0.494462
O11	O	0.715965	-0.069043	0.101438
O12	O	1.215965	0.430957	0.601438
O13	O	0.918229	-0.068986	0.089746
O14	O	1.418229	0.431014	0.589746
Zn15	Zn	0.816105	-0.091006	0.096580
Zn16	Zn	1.316105	0.408994	0.596580
Zn17	Zn	0.824338	0.091492	0.088379
Zn18	Zn	1.324338	0.591492	0.588379
O19	O	0.811250	-0.069006	0.196722
O20	O	1.311250	0.430994	0.696722
C21	C	0.693213	0.000207	0.097950
C22	C	1.193213	0.500207	0.597950
C23	C	0.616109	0.000185	0.096822
C24	C	1.116109	0.500185	0.596822
N25	N	0.810491	-0.215557	0.102177
N26	N	1.310491	0.284443	0.602177
C27	C	0.571412	0.000204	0.159589
C28	C	1.071412	0.500204	0.659589
C29	C	0.498965	0.000213	0.158528
C30	C	0.998965	0.500213	0.658528
C31	C	0.471219	0.000220	0.094695
C32	C	0.971219	0.500220	0.594695
C33	C	0.515926	0.000197	0.031920
C34	C	1.015926	0.500197	0.531920
C35	C	0.588371	0.000180	0.032983
C36	C	1.088371	0.500180	0.532983
C37	C	0.365149	0.048772	0.042334
C38	C	0.865149	0.548772	0.542334
C39	C	0.292706	0.048794	0.041273
C40	C	0.792706	0.548794	0.541273
C41	C	0.247776	0.000270	0.091413
C42	C	0.747776	0.500270	0.591413
C43	C	0.275298	-0.048265	0.142626
C44	C	0.775298	0.451735	0.642626
C45	C	0.347742	-0.048283	0.143689
C46	C	0.847742	0.451717	0.643689
C47	C	0.392666	0.000239	0.093535
C48	C	0.892666	0.500239	0.593535
C49	C	0.124523	0.000297	0.153034
C50	C	0.624523	0.500297	0.653034
C51	C	0.052076	0.000301	0.151971
C52	C	0.552076	0.500301	0.651971
C53	C	0.069039	0.000294	0.025361
C54	C	0.569039	0.500294	0.525361
C55	C	0.141485	0.000282	0.026426
C56	C	0.641485	0.500282	0.526426
C57	C	0.169223	0.000287	0.090265
C58	C	0.669223	0.500287	0.590265
C59	C	0.855913	-0.259133	0.056788
C60	C	1.355913	0.240867	0.556788
C61	C	0.851993	-0.346323	0.060710
C62	C	1.351993	0.153677	0.560710
C63	C	0.802652	-0.389934	0.110024
C64	C	1.302652	0.110066	0.610024
C65	C	0.757225	-0.346352	0.155415
C66	C	1.257225	0.153648	0.655415
C67	C	0.761143	-0.259164	0.151490
C68	C	1.261143	0.240836	0.651490
C69	C	0.788449	-0.653187	0.124243
C70	C	1.288449	-0.153187	0.624243
C71	C	0.784536	-0.740381	0.128166
C72	C	1.284536	-0.240381	0.628166
C73	C	0.879303	-0.740347	0.033459
C74	C	1.379303	-0.240347	0.533459
C75	C	0.883219	-0.653157	0.029541
C76	C	1.383219	-0.153157	0.529541
C77	C	0.837790	-0.609582	0.074929
C78	C	1.337790	-0.109582	0.574929
C79	C	0.798645	-0.479056	0.114035
C80	C	1.298645	0.020944	0.614035
C81	C	0.841794	-0.520461	0.070914
C82	C	1.341794	-0.020461	0.570914
C83	C	0.947230	0.000280	0.087010
C84	C	1.447230	0.500280	0.587010
C85	C	1.024335	0.000307	0.088138
C86	C	1.524335	0.500307	0.588138
C87	C	0.825693	0.000233	-0.034527
C88	C	1.325693	0.500233	0.465473
C89	C	0.824566	0.000231	-0.111631
C90	C	1.324566	0.500231	0.388369
N91	N	0.829958	0.216042	0.082777
N92	N	1.329958	0.716042	0.582777
C93	C	0.827447	0.075735	-0.151234
C94	C	1.327447	0.575735	0.348766
C95	C	0.826378	0.075741	-0.223681
C96	C	1.326378	0.575741	0.276319
C97	C	0.822443	0.000238	-0.256522
C98	C	1.322443	0.500238	0.243478
C99	C	0.819558	-0.075276	-0.216909
C100	C	1.319558	0.424724	0.283091
C101	C	0.820620	-0.075279	-0.144463
C102	C	1.320620	0.424721	0.355537
C103	C	0.858836	-0.057590	-0.374155
C104	C	1.358836	0.442410	0.125845
C105	C	0.857779	-0.057583	-0.446600
C106	C	1.357779	0.442417	0.053400
C107	C	0.819166	0.000247	-0.479968
C108	C	1.319166	0.500247	0.020032
C109	C	0.781620	0.058084	-0.440885
C110	C	1.281620	0.558084	0.059115
C111	C	0.782681	0.058080	-0.368439
C112	C	1.282681	0.558080	0.131561
C113	C	0.821291	0.000234	-0.335077
C114	C	1.321291	0.500234	0.164923
C115	C	0.820887	0.075762	-0.598127
C116	C	1.320887	0.575762	-0.098127
C117	C	0.819814	0.075765	-0.670574
C118	C	1.319814	0.575765	-0.170574
C119	C	0.813001	-0.075253	-0.663801
C120	C	1.313001	0.424747	-0.163801
C121	C	0.814067	-0.075254	-0.591355
C122	C	1.314067	0.424746	-0.091355
C123	C	0.818013	0.000256	-0.558522
C124	C	1.318013	0.500256	-0.058522
C125	C	0.814750	0.000254	0.219487
C126	C	1.314750	0.500254	0.719487
C127	C	0.815878	0.000262	0.296590
C128	C	1.315878	0.500262	0.796590
H129	H	0.593991	0.000210	0.211571
H130	H	1.093991	0.500210	0.711571
H131	H	0.916289	-0.775833	-0.003495
H132	H	1.416289	-0.275833	0.496505
H133	H	0.752108	0.105171	-0.336619
H134	H	1.252108	0.605171	0.163381
H135	H	0.717047	-0.381865	0.195566
H136	H	1.217047	0.118135	0.695566
H137	H	0.744355	-0.775886	0.168327
H138	H	1.244355	-0.275886	0.668327
H139	H	0.816352	-0.136750	-0.243653
H140	H	1.316352	0.363250	0.256347
H141	H	0.724154	-0.223684	0.188449
H142	H	1.224154	0.276316	0.688449
H143	H	0.370148	-0.087805	0.185386
H144	H	0.870148	0.412195	0.685386
H145	H	0.046452	0.000352	-0.026616
H146	H	0.546452	0.500352	0.473384
H147	H	0.888979	-0.381803	0.023750
H148	H	1.388979	0.118197	0.523750
H149	H	0.758472	-0.514572	0.154189
H150	H	1.258472	-0.014572	0.654189
H151	H	0.751459	-0.617715	0.161201
H152	H	1.251459	-0.117715	0.661201
H153	H	0.881965	-0.484950	0.030760
H154	H	1.381965	0.015050	0.530760
H155	H	0.238717	-0.087779	0.183454
H156	H	0.738717	0.412221	0.683454
H157	H	0.896095	-0.223631	0.016634
H158	H	1.396095	0.276369	0.516634
H159	H	0.401726	0.088291	0.001502
H160	H	0.901726	0.588291	0.501502
H161	H	0.830658	0.137221	-0.124507
H162	H	1.330658	0.637221	0.375493
H163	H	0.828720	0.137227	-0.255932
H164	H	1.328720	0.637227	0.244068
H165	H	0.750177	0.105175	-0.468051
H166	H	1.250177	0.605175	0.031949
H167	H	0.493332	0.000215	-0.020054
H168	H	0.993332	0.500215	0.479946
H169	H	0.822156	0.137252	-0.702818
H170	H	1.322156	0.637252	-0.202818
H171	H	0.809792	-0.136729	-0.690539
H172	H	1.309792	0.363271	-0.190539
H173	H	0.824096	0.137247	-0.571393
H174	H	1.324096	0.637247	-0.071393
H175	H	0.923396	-0.617650	-0.010615
H176	H	1.423396	-0.117650	0.489385
H177	H	0.811727	-0.136738	-0.559110
H178	H	1.311727	0.363262	-0.059110
H179	H	0.818271	-0.136766	-0.112217
H180	H	1.318271	0.363234	0.387783
H181	H	0.624764	0.000165	-0.018131
H182	H	1.124764	0.500165	0.481869
H183	H	0.462565	0.000225	0.209642
H184	H	0.962565	0.500225	0.709642
H185	H	0.890278	-0.104689	-0.346992
H186	H	1.390278	0.395311	0.153008
H187	H	0.147108	0.000290	0.205016
H188	H	0.647108	0.500290	0.705016
H189	H	0.177879	0.000272	-0.024686
H190	H	0.677879	0.500272	0.475314
H191	H	0.015683	0.000311	0.203086
H192	H	0.515683	0.500311	0.703086
H193	H	0.270304	0.088318	-0.000424
H194	H	0.770304	0.588318	0.499576
H195	H	0.888354	-0.104675	-0.478417
H196	H	1.388354	0.395325	0.021583
