data_functionalizedCrystal
_audit_creation_method	'MofGen! by Chris Wilmer'
_symmetry_space_group_name_H-M	'P1'
_symmetry_Int_Tables_number	1
_symmetry_cell_setting	triclinic
loop_
_symmetry_equiv_pos_as_xyz
  x,y,z
_cell_length_a	33.428889
_cell_length_b	33.428139
_cell_length_c	33.424847
_cell_angle_alpha	60.004234
_cell_angle_beta	60.008465
_cell_angle_gamma	59.994972
loop_
_atom_site_label
_atom_site_type_symbol
_atom_site_fract_x
_atom_site_fract_y
_atom_site_fract_z
O1	O	0.055565	-0.584504	0.488714
O2	O	0.020982	-0.455083	0.393778
O3	O	0.102943	-0.536959	0.393689
O4	O	-0.026396	-0.502628	0.488803
O5	O	0.130140	-0.509767	0.420792
O6	O	0.048179	-0.427891	0.420881
O7	O	0.082762	-0.557312	0.515817
Cu8	Cu	0.067954	-0.490119	0.470823
Cu9	Cu	0.035790	-0.522276	0.438771
O10	O	0.000801	-0.475436	0.515906
N11	N	0.090577	-0.467504	0.493370
N12	N	0.013171	-0.544895	0.416225
C13	C	0.143377	-0.280390	0.546067
C14	C	0.143515	-0.414755	0.680369
C15	C	0.143392	-0.414735	0.546069
C16	C	0.277766	-0.414702	0.545966
C17	C	0.158177	-0.324719	0.560828
C18	C	0.158255	-0.399967	0.636038
C19	C	0.233434	-0.399936	0.560773
C20	C	0.158186	-0.399955	0.560829
C21	C	0.124540	-0.223964	0.527278
C22	C	0.124565	-0.433545	0.527281
C23	C	0.177014	-0.381145	0.579617
C24	C	0.359814	-0.400540	0.502735
C25	C	0.411105	-0.417624	0.485606
C26	C	0.411136	-0.500620	0.517255
C27	C	0.359845	-0.483534	0.534385
C28	C	0.136887	-0.198305	0.476855
C29	C	0.119761	-0.147011	0.459777
C30	C	0.077945	-0.147038	0.543547
C31	C	0.095072	-0.198332	0.560625
C32	C	0.074134	-0.421169	0.539710
C33	C	0.057023	-0.438269	0.522625
C34	C	0.140770	-0.480120	0.480694
C35	C	0.157883	-0.463020	0.497773
C36	C	0.074339	-0.421208	0.762475
C37	C	0.057288	-0.438323	0.813768
C38	C	0.141075	-0.480183	0.813699
C39	C	0.158125	-0.463069	0.762404
C40	C	0.124756	-0.433580	0.736794
C41	C	0.334186	-0.433494	0.527123
C42	C	-0.173769	-0.597444	0.363037
C43	C	-0.039302	-0.597595	0.228856
C44	C	-0.039496	-0.597587	0.363300
C45	C	-0.039512	-0.731889	0.363237
C46	C	-0.129442	-0.612265	0.348329
C47	C	-0.054138	-0.612351	0.273187
C48	C	-0.054257	-0.687554	0.348440
C49	C	-0.054247	-0.612346	0.348477
C50	C	-0.230191	-0.578579	0.381758
C51	C	-0.020722	-0.578803	0.382168
C52	C	-0.073020	-0.631130	0.329609
C53	C	-0.053713	-0.813916	0.406386
C54	C	-0.036654	-0.865210	0.423504
C55	C	0.046338	-0.865293	0.391984
C56	C	0.029278	-0.813999	0.374865
C57	C	-0.255900	-0.590938	0.432169
C58	C	-0.307191	-0.573786	0.449185
C59	C	-0.307060	-0.531922	0.365377
C60	C	-0.255769	-0.549074	0.348360
C61	C	-0.033081	-0.528377	0.369764
C62	C	-0.016014	-0.511306	0.386922
C63	C	0.025770	-0.595083	0.428877
C64	C	0.008703	-0.612156	0.411725
C65	C	-0.032755	-0.528393	0.146761
C66	C	-0.015585	-0.511324	0.095468
C67	C	0.026262	-0.595106	0.095516
C68	C	0.009094	-0.612174	0.146811
C69	C	-0.020417	-0.578816	0.172432
C70	C	-0.020748	-0.788312	0.382068
N71	N	0.436037	-0.467415	0.493101
O72	O	0.592642	-0.471896	0.376066
O73	O	0.592838	-0.567146	0.505347
O74	O	0.592754	-0.566928	0.423360
O75	O	0.592727	-0.472113	0.458053
O76	O	0.511269	-0.539835	0.450606
O77	O	0.511353	-0.540052	0.532594
O78	O	0.511157	-0.444802	0.403312
Cu79	Cu	0.503815	-0.489954	0.470441
Cu80	Cu	0.600180	-0.521995	0.438219
O81	O	0.511242	-0.445020	0.485300
N82	N	0.667959	-0.544533	0.415554
N83	N	0.090544	-0.122107	0.493359
O84	O	-0.026406	0.034587	0.488773
O85	O	0.102877	0.034627	0.393499
O86	O	0.020848	0.034591	0.393771
O87	O	0.055623	0.034623	0.488500
O88	O	0.048051	-0.046899	0.420925
O89	O	0.130080	-0.046864	0.420653
O90	O	0.000796	-0.046903	0.515927
Cu91	Cu	0.067922	-0.054324	0.470769
Cu92	Cu	0.035752	0.042048	0.438656
O93	O	0.082825	-0.046867	0.515655
N94	N	0.013123	0.109830	0.416068
N95	N	0.090892	-0.467554	0.838649
O96	O	0.086330	-0.584488	0.995334
O97	O	-0.008902	-0.455160	0.995379
O98	O	-0.008679	-0.537172	0.995355
O99	O	0.086107	-0.502475	0.995358
O100	O	0.018452	-0.509990	0.913868
O101	O	0.018230	-0.427978	0.913891
O102	O	0.113461	-0.557306	0.913847
Cu103	Cu	0.068323	-0.490160	0.906429
Cu104	Cu	0.036237	-0.522306	1.002797
O105	O	0.113239	-0.475293	0.913870
N106	N	0.013667	-0.544916	1.070577
C107	C	0.031339	-0.425179	0.394250
C108	C	0.132837	-0.526572	0.394139
C109	C	0.072405	-0.587216	0.515344
C110	C	-0.029093	-0.485823	0.515455
C111	C	0.552119	-0.566716	0.535258
C112	C	0.552016	-0.566447	0.433726
C113	C	0.551873	-0.445232	0.373402
C114	C	0.551980	-0.445502	0.474933
C115	C	0.132731	-0.006013	0.393923
C116	C	0.031182	-0.006158	0.394293
C117	C	-0.029092	-0.006163	0.515469
C118	C	0.072491	-0.006119	0.515133
C119	C	-0.008451	-0.425276	0.954641
C120	C	-0.008170	-0.526833	0.954596
C121	C	0.113010	-0.587190	0.954585
C122	C	0.112735	-0.485627	0.954611
H123	H	0.047163	-0.397193	0.741627
O124	O	0.148620	-0.631533	0.954588
C125	C	0.171416	-0.712236	0.954527
C126	C	0.131040	-0.662045	0.954536
H127	H	0.157220	-0.736915	0.954474
H128	H	0.182112	-0.729872	0.988632
H129	H	0.204822	-0.707063	0.920428
H130	H	0.097607	-0.667175	0.988611
H131	H	0.120385	-0.644426	0.920407
O132	O	0.552166	-0.602440	0.579532
C133	C	0.552304	-0.685079	0.629701
C134	C	0.552238	-0.644662	0.579545
H135	H	0.552373	-0.719229	0.629725
H136	H	0.518212	-0.671663	0.659662
H137	H	0.586415	-0.694277	0.636838
H138	H	0.518150	-0.635445	0.572361
H139	H	0.586352	-0.658099	0.549611
H140	H	0.169783	-0.005775	0.363939
H141	H	0.079939	-0.006110	0.544893
O142	O	-0.073349	-0.006259	0.551194
C143	C	-0.117055	-0.048467	0.632933
C144	C	-0.066904	-0.048426	0.592515
H145	H	-0.111860	-0.082551	0.666354
H146	H	-0.141788	-0.048511	0.618789
H147	H	-0.134646	-0.014345	0.643588
H148	H	-0.049270	-0.082543	0.581842
H149	H	-0.042206	-0.048357	0.606680
H150	H	-0.038348	-0.388133	0.954654
H151	H	-0.037935	-0.534246	0.954563
H152	H	0.552029	-0.596233	0.426301
H153	H	0.023949	-0.388000	0.364433
O154	O	0.552056	-0.409980	0.483733
C155	C	0.594209	-0.356462	0.460116
C156	C	0.594188	-0.396695	0.450104
H157	H	0.628263	-0.345702	0.432927
H158	H	0.594292	-0.370819	0.499022
H159	H	0.560062	-0.323054	0.455791
H160	H	0.628328	-0.430117	0.454402
H161	H	0.594079	-0.382299	0.411202
H162	H	0.551811	-0.415327	0.336274
O163	O	0.022232	-0.006203	0.358852
C164	C	-0.036007	-0.006235	0.336490
C165	C	-0.025936	-0.006185	0.376671
H166	H	-0.074953	-0.006210	0.350879
H167	H	-0.008908	-0.040350	0.325792
H168	H	-0.031623	0.027857	0.303036
H169	H	-0.030326	-0.040254	0.410152
H170	H	-0.053033	0.027953	0.387328
H171	H	0.079796	-0.624394	0.545162
H172	H	0.142514	-0.478200	0.954606
H173	H	0.199181	-0.473148	0.741498
O174	O	0.008295	-0.426231	0.838635
C175	C	-0.073008	-0.382919	0.833283
C176	C	-0.017537	-0.396564	0.805061
H177	H	-0.093909	-0.358940	0.806151
H178	H	-0.083113	-0.362013	0.857285
H179	H	-0.083066	-0.417739	0.857311
H180	H	-0.007438	-0.361769	0.781006
H181	H	-0.007461	-0.417489	0.781090
H182	H	0.168250	-0.504186	0.834549
H183	H	-0.057039	-0.501216	0.345698
O184	O	-0.073389	-0.477189	0.551135
C185	C	-0.123628	-0.509448	0.633753
C186	C	-0.073446	-0.519295	0.593386
H187	H	-0.123688	-0.543480	0.667927
H188	H	-0.153560	-0.500179	0.620302
H189	H	-0.130778	-0.477375	0.642925
H190	H	-0.066250	-0.551373	0.584197
H191	H	-0.043542	-0.528535	0.606858
H192	H	0.015959	-0.428182	0.532734
O193	O	0.041703	-0.392521	0.568347
C194	C	-0.043171	-0.352834	0.608154
C195	C	-0.006496	-0.385272	0.575708
H196	H	-0.082147	-0.346971	0.614124
H197	H	-0.037315	-0.315913	0.589366
H198	H	-0.037197	-0.371634	0.645023
H199	H	-0.012447	-0.366515	0.538834
H200	H	-0.012361	-0.422191	0.594534
H201	H	0.167905	-0.504126	0.456671
H202	H	0.338981	-0.510371	0.554246
O203	O	0.206888	-0.475097	0.485667
C204	C	0.288149	-0.518370	0.442229
C205	C	0.232665	-0.504743	0.455917
H206	H	0.309006	-0.542332	0.418166
H207	H	0.298320	-0.539288	0.476996
H208	H	0.298195	-0.483542	0.421365
H209	H	0.222580	-0.539546	0.476769
H210	H	0.222524	-0.483806	0.421133
H211	H	0.431972	-0.390789	0.465748
O212	O	0.435986	-0.549246	0.524366
C213	C	0.430607	-0.629761	0.557536
C214	C	0.402401	-0.574706	0.549527
H215	H	0.403466	-0.650360	0.577870
H216	H	0.454635	-0.644229	0.580091
H217	H	0.454608	-0.635447	0.520539
H218	H	0.378374	-0.568978	0.586501
H219	H	0.378404	-0.560264	0.526950
H220	H	0.338923	-0.359792	0.496821
O221	O	0.021107	-0.661174	0.171670
C222	C	0.064444	-0.742472	0.166302
C223	C	0.050868	-0.686994	0.138090
H224	H	0.088516	-0.763364	0.139165
H225	H	0.029633	-0.752553	0.190248
H226	H	0.085260	-0.752570	0.190387
H227	H	0.030064	-0.676857	0.113979
H228	H	0.085697	-0.676944	0.114175
O229	O	0.165488	-0.223126	0.444394
C230	C	0.205174	-0.217685	0.359501
C231	C	0.172769	-0.189512	0.396208
H232	H	0.211079	-0.190520	0.320534
H233	H	0.186390	-0.241696	0.365391
H234	H	0.242074	-0.241703	0.365409
H235	H	0.135864	-0.165468	0.390322
H236	H	0.191591	-0.165533	0.390308
H237	H	0.053957	-0.126168	0.570702
O238	O	0.083051	-0.223181	0.609623
C239	C	0.039740	-0.217792	0.690909
C240	C	0.053328	-0.189589	0.635431
H241	H	0.015699	-0.190646	0.711792
H242	H	0.074547	-0.241785	0.701008
H243	H	0.018886	-0.241829	0.700999
H244	H	0.074170	-0.165526	0.625302
H245	H	0.018503	-0.165627	0.625362
O246	O	-0.061353	-0.495967	0.171624
C247	C	-0.067939	-0.429590	0.187316
C248	C	-0.035499	-0.466293	0.159138
H249	H	-0.047053	-0.405582	0.177224
H250	H	-0.078084	-0.450421	0.228392
H251	H	-0.102716	-0.405572	0.177166
H252	H	-0.000701	-0.490320	0.169246
H253	H	-0.025394	-0.445431	0.118069
H254	H	0.129813	-0.126117	0.418717
O255	O	-0.027666	-0.462336	0.070558
C256	C	-0.092643	-0.385471	0.054784
C257	C	-0.079032	-0.440945	0.083015
H258	H	-0.134173	-0.368159	0.064853
H259	H	-0.075342	-0.378968	0.013716
H260	H	-0.078486	-0.368213	0.064908
H261	H	-0.093186	-0.458240	0.072932
H262	H	-0.096326	-0.447414	0.124076
H263	H	0.050281	-0.622271	0.074658
H264	H	-0.026079	-0.470245	0.376824
H265	H	0.018765	-0.653217	0.421828
O266	O	0.054337	-0.627552	0.457597
C267	C	0.094011	-0.712452	0.497371
C268	C	0.061648	-0.675738	0.464852
H269	H	0.099941	-0.751418	0.503239
H270	H	0.075181	-0.706561	0.534283
H271	H	0.130903	-0.706552	0.478636
H272	H	0.024751	-0.681616	0.483544
H273	H	0.080517	-0.681638	0.427943
H274	H	0.087072	-0.886205	0.386121
O275	O	0.061365	-0.789206	0.351272
C276	C	0.145488	-0.794709	0.321796
C277	C	0.109199	-0.822848	0.348531
H278	H	0.184171	-0.821897	0.319562
H279	H	0.135209	-0.770705	0.342777
H280	H	0.143949	-0.770688	0.283221
H281	H	0.110719	-0.846896	0.387106
H282	H	0.119490	-0.846821	0.327513
H283	H	-0.063498	-0.886058	0.443304
O284	O	-0.102320	-0.789038	0.413388
C285	C	-0.182834	-0.794373	0.446450
C286	C	-0.127800	-0.822605	0.438550
H287	H	-0.203452	-0.821500	0.466804
H288	H	-0.188503	-0.770383	0.409442
H289	H	-0.197293	-0.770330	0.468984
H290	H	-0.113304	-0.846675	0.416034
H291	H	-0.122163	-0.846565	0.475576
H292	H	-0.235077	-0.614964	0.459366
O293	O	-0.332093	-0.585859	0.498172
C294	C	-0.326810	-0.629181	0.579504
C295	C	-0.298551	-0.615552	0.524040
H296	H	-0.299704	-0.653181	0.600435
H297	H	-0.350816	-0.650060	0.589573
H298	H	-0.350838	-0.594356	0.589565
H299	H	-0.274497	-0.650352	0.513939
H300	H	-0.274576	-0.594654	0.514001
H301	H	-0.327887	-0.507903	0.338181
H302	H	0.169984	-0.533889	0.364272
O303	O	-0.230873	-0.537040	0.299375
C304	C	-0.236159	-0.493676	0.218044
C305	C	-0.264416	-0.507279	0.273509
H306	H	-0.263266	-0.469604	0.197115
H307	H	-0.212160	-0.528478	0.207937
H308	H	-0.212125	-0.472847	0.208018
H309	H	-0.288477	-0.528096	0.283574
H310	H	-0.288383	-0.472460	0.283585
