data_functionalizedCrystal
_audit_creation_method	'MofGen! by Chris Wilmer'
_symmetry_space_group_name_H-M	'P1'
_symmetry_Int_Tables_number	1
_symmetry_cell_setting	triclinic
loop_
_symmetry_equiv_pos_as_xyz
  x,y,z
_cell_length_a	13.635800
_cell_length_b	19.590824
_cell_length_c	19.551823
_cell_angle_alpha	83.784855
_cell_angle_beta	78.336624
_cell_angle_gamma	102.203229
loop_
_atom_site_label
_atom_site_type_symbol
_atom_site_fract_x
_atom_site_fract_y
_atom_site_fract_z
V1	V	2.001647	0.218187	-0.097409
O2	O	2.000258	0.213697	0.003927
O3	O	1.973031	0.217018	-0.192420
O4	O	1.974361	0.313198	-0.096241
O5	O	1.998919	0.116851	-0.092918
V6	V	2.244433	0.206027	-0.085249
O7	O	2.130029	0.244860	-0.124082
O8	O	2.341149	0.179353	-0.058575
O9	O	2.161445	0.207196	0.009763
O10	O	2.304520	0.210517	-0.186584
O11	O	2.305859	0.307363	-0.089739
O12	O	2.160115	0.111016	-0.086416
V13	V	2.501647	0.218187	-0.097409
O14	O	2.500258	0.213697	0.003927
O15	O	2.473031	0.217018	-0.192420
O16	O	2.474361	0.313198	-0.096241
O17	O	2.498919	0.116851	-0.092918
V18	V	2.744433	0.206027	-0.085249
O19	O	2.630029	0.244860	-0.124082
O20	O	2.841149	0.179353	-0.058575
O21	O	2.661445	0.207196	0.009763
O22	O	2.804520	0.210517	-0.186584
O23	O	2.805859	0.307363	-0.089739
O24	O	2.660115	0.111016	-0.086416
C25	C	1.894557	0.213659	-0.215571
C26	C	1.911783	0.213337	-0.293246
C27	C	2.010645	0.216680	-0.333303
C28	C	2.026833	0.216384	-0.406288
C29	C	1.944150	0.212731	-0.439211
C30	C	1.845275	0.209392	-0.399146
C31	C	1.829091	0.209695	-0.326163
C32	C	1.888974	0.168423	-0.545550
C33	C	1.905160	0.168116	-0.618531
C34	C	1.994061	0.211800	-0.664314
C35	C	2.066789	0.255782	-0.637107
C36	C	2.050606	0.256085	-0.564124
C37	C	1.961687	0.212403	-0.518348
C38	C	2.110482	0.214823	-0.783510
C39	C	2.126668	0.214531	-0.856497
C40	C	1.945104	0.207532	-0.849352
C41	C	1.928924	0.207831	-0.776368
C42	C	2.011615	0.211473	-0.743451
C43	C	1.896253	0.336346	-0.092885
C44	C	1.914556	0.414020	-0.092559
C45	C	1.939937	0.460698	-0.156428
C46	C	1.957147	0.533683	-0.156130
C47	C	1.948954	0.559986	-0.091956
C48	C	1.923575	0.513298	-0.028078
C49	C	1.906376	0.440315	-0.028379
C50	C	1.904997	0.665510	-0.040182
C51	C	1.922190	0.738492	-0.039883
C52	C	2.002004	0.785089	-0.091025
C53	C	2.064614	0.758697	-0.142478
C54	C	2.047415	0.685714	-0.142779
C55	C	1.967602	0.639122	-0.091623
C56	C	2.046048	0.910906	-0.154576
C57	C	2.063263	0.983892	-0.154274
C58	C	2.029681	0.963505	-0.026221
C59	C	2.012476	0.890521	-0.026524
C60	C	2.020657	0.864226	-0.090703
C61	C	2.071590	0.210553	0.032910
C62	C	2.043983	0.210880	0.110585
C63	C	2.073377	1.087864	-0.089776
C64	C	2.055071	1.010190	-0.090101
C65	C	2.394557	0.213659	-0.215571
C66	C	2.411783	0.213337	-0.293246
C67	C	2.396253	0.336346	-0.092885
C68	C	2.414556	0.414020	-0.092559
C69	C	2.571590	0.210553	0.032910
C70	C	2.543983	0.210880	0.110585
C71	C	2.569894	0.087864	-0.089775
C72	C	2.541210	0.010189	-0.090097
C73	C	2.510657	0.216689	-0.333298
C74	C	2.526860	0.216397	-0.406284
C75	C	2.444186	0.212748	-0.439216
C76	C	2.345305	0.209398	-0.399160
C77	C	2.329104	0.209695	-0.326176
C78	C	2.513935	0.454070	-0.095901
C79	C	2.531145	0.527053	-0.095586
C80	C	2.448976	0.559984	-0.091933
C81	C	2.349588	0.519929	-0.088588
C82	C	2.332378	0.446947	-0.088898
C83	C	2.617602	0.207530	0.150636
C84	C	2.591671	0.207825	0.223621
C85	C	2.492122	0.211476	0.256554
C86	C	2.418497	0.214824	0.216498
C87	C	2.444426	0.214523	0.143514
C88	C	2.441149	-0.022724	-0.093742
C89	C	2.414180	-0.095709	-0.094037
C90	C	2.487276	-0.135778	-0.090691
C91	C	2.587345	-0.102860	-0.087044
C92	C	2.614310	-0.029877	-0.086744
H93	H	2.077983	0.219650	-0.306508
C94	C	2.724383	0.006325	-0.082744
H95	H	2.729984	0.055529	-0.083041
H96	H	2.772491	-0.000592	-0.122316
H97	H	2.738576	-0.013626	-0.040395
H98	H	1.777954	0.206420	-0.425956
C99	C	2.604331	0.417858	-0.099916
H100	H	2.665975	0.452170	-0.101854
H101	H	2.612148	0.396061	-0.141139
H102	H	2.590647	0.383013	-0.059218
H103	H	2.612078	0.559657	-0.098313
H104	H	2.463003	0.619411	-0.091681
H105	H	2.282691	0.546753	-0.085614
H106	H	2.465309	-0.195204	-0.090945
H107	H	1.991804	0.852514	0.025486
H108	H	2.651634	0.205100	0.256225
H109	H	2.251453	0.414343	-0.086177
C110	C	2.727106	0.203508	0.114425
H111	H	2.767223	0.201547	0.148740
H112	H	2.758277	0.244199	0.079581
H113	H	2.723373	0.162280	0.092627
C114	C	2.220338	0.205997	-0.282121
H115	H	2.222519	0.206699	-0.233937
H116	H	2.174488	0.163552	-0.286107
H117	H	2.196910	0.245471	-0.299138
H118	H	2.337442	0.217795	0.243322
H119	H	1.946605	0.439294	-0.208688
C120	C	2.201435	0.218837	-0.747296
H121	H	2.177636	0.218529	-0.698091
H122	H	2.252604	0.261183	-0.767243
H123	H	2.230167	0.179263	-0.754205
C124	C	2.463615	0.211813	0.336833
H125	H	2.521727	0.209302	0.355964
H126	H	2.408330	0.172219	0.358557
H127	H	2.443221	0.254139	0.345505
C128	C	1.720339	0.206012	-0.282095
H129	H	1.722544	0.206718	-0.233915
H130	H	1.674473	0.163569	-0.286069
H131	H	1.696912	0.245489	-0.299107
H132	H	2.139087	0.291450	-0.674394
C133	C	2.135586	0.220055	-0.450359
H134	H	2.182513	0.222263	-0.420301
H135	H	2.156897	0.261038	-0.485502
H136	H	2.134440	0.179117	-0.472451
H137	H	2.384473	0.217257	0.110909
H138	H	2.381617	0.009891	-0.096466
H139	H	2.646852	-0.135496	-0.084318
H140	H	2.277997	0.206427	-0.425984
C141	C	2.304110	-0.131904	-0.098059
H142	H	2.264451	-0.097582	-0.100022
H143	H	2.273014	-0.166745	-0.057366
H144	H	2.306962	-0.153704	-0.139286
H145	H	2.207177	0.217258	-0.889112
C146	C	1.854150	0.203507	-0.885557
H147	H	1.877944	0.203799	-0.934760
H148	H	1.825406	0.243072	-0.878651
H149	H	1.802988	0.161153	-0.865605
C150	C	1.820171	0.204143	-0.732301
H151	H	1.773242	0.201919	-0.762359
H152	H	1.821297	0.245071	-0.710201
H153	H	1.798869	0.163151	-0.697163
C154	C	2.130592	0.304463	-0.534195
H155	H	2.108221	0.298381	-0.484172
H156	H	2.137717	0.352362	-0.553497
H157	H	2.195185	0.292482	-0.546442
H158	H	1.845943	0.132298	-0.640676
C159	C	1.985062	0.585040	-0.226387
H160	H	1.994138	0.632272	-0.217014
H161	H	1.931066	0.574983	-0.250501
H162	H	2.047222	0.579555	-0.254985
H163	H	1.816573	0.132853	-0.508278
H164	H	2.129603	0.796636	-0.184125
C165	C	2.116282	0.656680	-0.199365
H166	H	2.094601	0.606542	-0.192220
H167	H	2.185945	0.670349	-0.195781
H168	H	2.110773	0.675231	-0.245008
C169	C	2.055054	0.881975	-0.225167
H170	H	2.041162	0.831822	-0.216198
H171	H	2.122844	0.900404	-0.253663
H172	H	2.006692	0.895842	-0.249183
C173	C	2.091179	1.035238	-0.224535
H174	H	2.093576	1.009121	-0.262797
H175	H	2.156661	1.066417	-0.229325
H176	H	2.040504	1.061847	-0.224833
C177	C	2.020667	0.992430	0.044369
H178	H	2.034540	1.042581	0.035402
H179	H	2.069021	0.978564	0.068389
H180	H	1.952869	0.973998	0.072863
H181	H	1.885709	0.402309	0.023633
H182	H	1.871205	0.759974	0.002011
C183	C	1.817195	0.614259	0.016077
H184	H	1.782361	0.640429	0.046755
H185	H	1.845102	0.582925	0.042705
H186	H	1.769941	0.587813	-0.006527
H187	H	2.577986	0.219656	-0.306494
C188	C	1.914558	0.542228	0.042510
H189	H	1.928425	0.592380	0.033543
H190	H	1.962914	0.528366	0.066530
H191	H	1.846760	0.523794	0.071004
C192	C	2.635628	0.220072	-0.450332
H193	H	2.682536	0.222275	-0.420259
H194	H	2.656955	0.261059	-0.485470
H195	H	2.634497	0.179138	-0.472429
H196	H	2.457392	0.212506	-0.498645
