data_functionalizedCrystal
_audit_creation_method	'MofGen! by Chris Wilmer'
_symmetry_space_group_name_H-M	'P1'
_symmetry_Int_Tables_number	1
_symmetry_cell_setting	triclinic
loop_
_symmetry_equiv_pos_as_xyz
  x,y,z
_cell_length_a	10.489741
_cell_length_b	17.699083
_cell_length_c	16.176319
_cell_angle_alpha	89.992434
_cell_angle_beta	89.994867
_cell_angle_gamma	83.911094
loop_
_atom_site_label
_atom_site_type_symbol
_atom_site_fract_x
_atom_site_fract_y
_atom_site_fract_z
O1	O	1.692076	0.106782	-0.068697
O2	O	2.192076	0.606782	0.431303
O3	O	1.320694	0.116805	-0.068710
O4	O	1.820694	0.616805	0.431290
O5	O	1.516877	0.001673	-0.068696
O6	O	2.016877	0.501673	0.431304
O7	O	1.495892	0.221914	-0.068711
O8	O	1.995892	0.721914	0.431289
O9	O	1.516848	0.001666	0.068797
O10	O	2.016848	0.501666	0.568797
O11	O	1.320665	0.116798	0.068783
O12	O	1.820665	0.616798	0.568783
O13	O	1.692047	0.106775	0.068796
O14	O	2.192047	0.606775	0.568796
Cu15	Cu	1.506353	0.111786	0.081344
Cu16	Cu	2.006353	0.611786	0.581344
Cu17	Cu	1.506387	0.111794	-0.081258
Cu18	Cu	2.006387	0.611794	0.418742
O19	O	1.495864	0.221907	0.068782
O20	O	1.995864	0.721907	0.568782
C21	C	1.516111	-0.026533	0.000051
C22	C	2.016111	0.473467	0.500051
C23	C	1.513855	-0.110565	0.000051
C24	C	2.013855	0.389435	0.500051
C25	C	1.273162	0.116044	0.000035
C26	C	1.773162	0.616044	0.500035
C27	C	1.131574	0.113779	0.000030
C28	C	1.631574	0.613779	0.500030
C29	C	1.629011	-0.158433	0.000056
C30	C	2.129011	0.341567	0.500056
C31	C	1.626883	-0.237390	0.000049
C32	C	2.126883	0.262610	0.500049
C33	C	1.509599	-0.268478	0.000042
C34	C	2.009599	0.231522	0.500042
C35	C	1.394435	-0.220605	0.000034
C36	C	1.894435	0.279395	0.500034
C37	C	1.396563	-0.141649	0.000036
C38	C	1.896563	0.358351	0.500036
C39	C	1.385848	-0.539024	0.000027
C40	C	1.885848	-0.039024	0.500027
C41	C	1.383729	-0.617986	0.000028
C42	C	1.883729	-0.117986	0.500028
C43	C	1.616168	-0.634765	0.000040
C44	C	2.116168	-0.134765	0.500040
C45	C	1.618297	-0.555810	0.000042
C46	C	2.118297	-0.055810	0.500042
C47	C	1.503133	-0.507943	0.000030
C48	C	2.003133	-0.007943	0.500030
C49	C	1.505441	-0.422328	0.000036
C50	C	2.005441	0.077672	0.500036
C51	C	1.507290	-0.354091	0.000041
C52	C	2.007290	0.145909	0.500041
C53	C	1.064795	0.040524	0.000043
C54	C	1.564795	0.540524	0.500043
C55	C	0.972040	0.075133	-0.067749
C56	C	1.472040	0.575133	0.432251
C57	C	0.972045	0.075143	0.067808
C58	C	1.472045	0.575143	0.567808
C59	C	1.040684	0.148418	-0.067818
C60	C	1.540684	0.648418	0.432182
C61	C	1.040699	0.148418	0.067800
C62	C	1.540699	0.648418	0.567800
C63	C	0.947970	0.183080	-0.000008
C64	C	1.447970	0.683080	0.499992
C65	C	1.739579	0.107535	0.000049
C66	C	2.239579	0.607535	0.500049
C67	C	1.881166	0.109800	0.000048
C68	C	2.381166	0.609800	0.500048
C69	C	1.496630	0.250112	0.000033
C70	C	1.996630	0.750112	0.500033
C71	C	1.498886	0.334145	0.000028
C72	C	1.998886	0.834145	0.500028
N73	N	1.506339	0.111779	0.195709
N74	N	2.006339	0.611779	0.695709
C75	C	1.593234	0.060820	0.238979
C76	C	2.093234	0.560820	0.738979
C77	C	1.593240	0.060820	0.325526
C78	C	2.093240	0.560820	0.825526
C79	C	1.506355	0.111782	0.368801
C80	C	2.006355	0.611782	0.868801
C81	C	1.419450	0.162744	0.325525
C82	C	1.919450	0.662744	0.825525
C83	C	1.419440	0.162740	0.238979
C84	C	1.919440	0.662740	0.738979
C85	C	1.419489	0.162759	0.674553
C86	C	1.919489	0.662759	1.174553
C87	C	1.419509	0.162761	0.761105
C88	C	1.919509	0.662761	1.261105
C89	C	1.593290	0.060839	0.761100
C90	C	2.093290	0.560839	1.261100
C91	C	1.593279	0.060835	0.674555
C92	C	2.093279	0.560835	1.174555
C93	C	1.506371	0.111793	0.631286
C94	C	2.006371	0.611793	1.131286
C95	C	1.506364	0.111792	0.537441
C96	C	2.006364	0.611792	1.037441
C97	C	1.506366	0.111788	0.462644
C98	C	2.006366	0.611788	0.962644
N99	N	1.506400	0.111797	0.804377
N100	N	2.006400	0.611797	1.304377
H101	H	1.724517	-0.133128	0.000066
H102	H	2.224517	0.366872	0.500066
F103	F	1.327000	0.216994	0.628510
F104	F	1.827000	0.716994	1.128510
F105	F	0.881900	0.261875	-0.000060
F106	F	1.381900	0.761875	0.499940
H107	H	0.941613	0.044140	-0.125059
H108	H	1.441613	0.544140	0.374941
H109	H	1.348700	0.204236	0.360764
H110	H	1.848700	0.704236	0.860764
H111	H	1.070948	0.179393	-0.125196
H112	H	1.570948	0.679393	0.374804
F113	F	1.080514	0.188896	0.142712
F114	F	1.580514	0.688896	0.642712
F115	F	1.743126	-0.522728	0.000048
F116	F	2.243126	-0.022728	0.500048
F117	F	1.258893	-0.651069	0.000020
F118	F	1.758893	-0.151069	0.500020
F119	F	0.932294	0.034610	0.142722
F120	F	1.432294	0.534610	0.642722
H121	H	1.348752	0.204262	0.796338
H122	H	1.848752	0.704262	1.296338
F123	F	1.326949	0.216976	0.192929
F124	F	1.826949	0.716976	0.692929
F125	F	1.685717	0.006581	0.192931
F126	F	2.185717	0.506581	0.692931
F127	F	1.685722	0.006582	0.371578
F128	F	2.185722	0.506582	0.871578
F129	F	1.685783	0.006601	0.807156
F130	F	2.185783	0.506601	1.307156
F131	F	1.685758	0.006597	0.628502
F132	F	2.185758	0.506597	1.128502
H133	H	1.292075	-0.500060	0.000018
H134	H	1.792075	-0.000060	0.500018
H135	H	1.298940	-0.245923	0.000024
H136	H	1.798940	0.254077	0.500024
F137	F	1.131156	-0.038200	-0.000038
F138	F	1.631156	0.461800	0.499962
F139	F	1.749448	-0.288332	0.000056
F140	F	2.249448	0.211668	0.500056
F141	F	1.273999	-0.090704	0.000028
F142	F	1.773999	0.409296	0.500028
F143	F	1.738737	-0.685715	0.000050
F144	F	2.238737	-0.185715	0.500050
