data_functionalizedCrystal
_audit_creation_method	'MofGen! by Chris Wilmer'
_symmetry_space_group_name_H-M	'P1'
_symmetry_Int_Tables_number	1
_symmetry_cell_setting	triclinic
loop_
_symmetry_equiv_pos_as_xyz
  x,y,z
_cell_length_a	16.992695
_cell_length_b	10.654550
_cell_length_c	15.455320
_cell_angle_alpha	92.697097
_cell_angle_beta	92.859530
_cell_angle_gamma	92.423437
loop_
_atom_site_label
_atom_site_type_symbol
_atom_site_fract_x
_atom_site_fract_y
_atom_site_fract_z
O1	O	0.106772	-1.682508	-0.072204
O2	O	0.117270	-1.317936	-0.072190
O3	O	-0.002129	-1.498760	-0.072190
O4	O	0.226171	-1.501684	-0.072204
O5	O	0.004697	-1.488464	0.072072
O6	O	0.124096	-1.307640	0.072072
O7	O	0.113597	-1.672212	0.072058
Cu8	Cu	0.119470	-1.488986	0.085237
Cu9	Cu	0.111398	-1.501162	-0.085369
O10	O	0.232997	-1.491388	0.072058
C11	C	0.119913	-1.265923	-0.000057
C12	C	0.117607	-1.126280	-0.000052
C13	C	-0.027949	-1.489852	-0.000059
C14	C	-0.115054	-1.478633	-0.000059
N15	N	0.125147	-1.480432	0.205233
C16	C	-0.164706	-1.586884	-0.000062
C17	C	-0.246551	-1.576335	-0.000070
C18	C	-0.278741	-1.457534	-0.000068
C19	C	-0.229083	-1.349275	-0.000068
C20	C	-0.147241	-1.359825	-0.000066
C21	C	-0.522577	-1.413807	-0.000079
C22	C	-0.604426	-1.403265	-0.000078
C23	C	-0.621888	-1.630327	-0.000081
C24	C	-0.540043	-1.640866	-0.000074
C25	C	-0.490392	-1.532607	-0.000078
N26	N	-0.362399	-1.446748	-0.000073
N27	N	-0.406737	-1.543394	-0.000079
C28	C	0.258817	-1.500296	-0.000075
C29	C	0.345922	-1.511516	-0.000081
C30	C	0.110955	-1.724225	-0.000077
C31	C	0.113261	-1.863868	-0.000088
C32	C	0.187906	-1.052871	-0.000069
C33	C	0.185734	-0.921664	-0.000084
C34	C	0.042956	-0.937287	-0.000068
C35	C	0.045129	-1.068492	-0.000047
C36	C	0.270338	-1.043850	-0.000081
C37	C	0.268166	-0.912642	-0.000096
N38	N	0.105714	-1.509726	-0.205365
C39	C	0.156426	-1.432885	0.749240
C40	C	0.152148	-1.439384	0.658432
C41	C	0.097161	-1.522730	0.613022
C42	C	0.046444	-1.599574	0.658423
C43	C	0.050719	-1.593068	0.749229
C44	C	0.078705	-1.550770	0.341441
C45	C	0.074436	-1.557272	0.250628
C46	C	0.180139	-1.397080	0.250643
C47	C	0.184412	-1.390587	0.341451
C48	C	0.133692	-1.467426	0.386845
N49	N	0.092788	-1.529377	0.520201
N50	N	0.138062	-1.460771	0.479663
H51	H	-0.138504	-1.683624	-0.000058
O52	O	-0.469039	-1.297037	-0.000071
H53	H	-0.434118	-1.300589	-0.058873
H54	H	0.296368	-0.877903	-0.060476
H55	H	0.293639	-1.086219	-0.062367
O56	O	0.316778	-1.080652	0.079933
H57	H	0.377809	-1.039188	0.079919
O58	O	-0.093681	-1.243070	-0.000053
H59	H	-0.129812	-1.158686	-0.000042
H60	H	-0.255299	-1.252545	-0.000072
H61	H	0.201205	-1.365022	0.786207
H62	H	0.193441	-1.376813	0.621472
O63	O	0.243762	-1.300764	0.390431
H64	H	0.278319	-1.248442	0.343608
O65	O	0.234826	-1.314200	0.201670
H66	H	0.296904	-1.335084	0.219103
H67	H	0.037408	-1.613337	0.378393
H68	H	-0.012115	-1.128257	-0.000021
H69	H	0.029656	-1.625148	0.213659
O70	O	-0.035215	-0.874961	-0.000067
H71	H	-0.024918	-0.771393	-0.000087
H72	H	0.001669	-1.667432	0.621445
H73	H	0.009423	-1.655638	0.786190
H74	H	0.296025	-0.864679	0.062184
H75	H	-0.286975	-1.664485	-0.000070
O76	O	-0.505323	-1.769003	-0.000097
H77	H	-0.553601	-1.842508	-0.000114
H78	H	-0.662322	-1.718464	-0.000080
H79	H	-0.630631	-1.306517	-0.000062
