data_functionalizedCrystal
_audit_creation_method	'MofGen! by Chris Wilmer'
_symmetry_space_group_name_H-M	'P1'
_symmetry_Int_Tables_number	1
_symmetry_cell_setting	triclinic
loop_
_symmetry_equiv_pos_as_xyz
  x,y,z
_cell_length_a	14.971482
_cell_length_b	14.586319
_cell_length_c	14.971486
_cell_angle_alpha	90.004001
_cell_angle_beta	83.613368
_cell_angle_gamma	90.002951
loop_
_atom_site_label
_atom_site_type_symbol
_atom_site_fract_x
_atom_site_fract_y
_atom_site_fract_z
O1	O	1.186946	0.076229	0.116546
O2	O	0.926545	0.076233	0.130508
O3	O	1.063725	0.076225	-0.006673
O4	O	1.049766	0.076238	0.253727
O5	O	1.063715	-0.076256	-0.006675
O6	O	0.926535	-0.076247	0.130506
O7	O	1.186936	-0.076252	0.116544
Cu8	Cu	1.056735	-0.090172	0.123525
Cu9	Cu	1.056746	0.090154	0.123527
O10	O	1.049756	-0.076243	0.253725
C11	C	0.893215	-0.000006	0.129883
C12	C	0.793918	-0.000005	0.128014
C13	C	0.747268	-0.083123	0.127132
C14	C	0.653970	-0.083124	0.125361
C15	C	0.607322	-0.000006	0.124479
C16	C	0.653979	0.083119	0.125358
C17	C	0.747276	0.083119	0.127122
C18	C	0.459517	0.083113	0.121682
C19	C	0.366213	0.083113	0.119919
C20	C	0.366210	-0.083130	0.119922
C21	C	0.459508	-0.083130	0.121686
C22	C	0.506158	-0.000005	0.122567
N23	N	1.056733	-0.217004	0.123522
C24	C	1.117497	-0.452014	0.062799
C25	C	1.117499	-0.547996	0.062797
C26	C	0.995985	-0.547997	0.184249
C27	C	0.995979	-0.452018	0.184246
C28	C	1.056740	-0.404029	0.123522
C29	C	1.056748	-0.595990	0.123523
C30	C	1.056751	-0.700057	0.123521
C31	C	1.056736	-0.299955	0.123522
C32	C	1.220266	-0.000010	0.117168
C33	C	1.319563	-0.000006	0.119038
C34	C	1.063096	-0.000016	-0.039999
C35	C	1.061225	-0.000015	-0.139296
N36	N	1.056755	0.216986	0.123522
C37	C	1.141814	-0.000017	-0.196522
C38	C	1.140051	-0.000008	-0.289822
C39	C	1.057698	-0.000003	-0.325893
C40	C	0.977102	0.000002	-0.268659
C41	C	0.978866	-0.000001	-0.175362
C42	C	0.973431	0.000005	-0.463122
C43	C	0.971667	0.000006	-0.556426
C44	C	1.134616	-0.000001	-0.577582
C45	C	1.136380	-0.000004	-0.484284
C46	C	1.055784	-0.000001	-0.427057
C47	C	1.050385	-0.000001	0.287051
C48	C	1.052256	0.000004	0.386348
H49	H	0.497496	0.150802	0.122400
O50	O	0.603715	-0.172804	0.124329
H51	H	0.569177	-0.176758	0.062570
O52	O	1.221545	-0.000009	-0.639305
H53	H	1.279106	-0.000028	-0.598548
H54	H	0.615992	0.150795	0.124632
H55	H	0.785257	0.150802	0.127841
O56	O	0.315896	0.172759	0.118958
H57	H	0.325898	0.212632	0.180206
H58	H	1.166971	-0.412944	0.013353
O59	O	0.891942	-0.000002	-0.113639
H60	H	0.907003	0.000004	-0.042703
H61	H	0.904607	-0.000004	-0.585792
H62	H	1.166972	-0.587063	0.013350
O63	O	0.886505	0.000000	-0.401393
H64	H	0.828943	-0.000009	-0.442147
H65	H	0.910049	0.000012	-0.298036
H66	H	0.946516	-0.587079	0.233690
O67	O	1.230642	-0.000012	-0.157623
H68	H	1.269375	-0.062154	-0.180616
H69	H	1.203439	-0.000015	-0.454919
O70	O	0.930445	-0.400246	0.249738
H71	H	0.941916	-0.418643	0.319489
O72	O	0.797579	-0.172773	0.128096
H73	H	0.749463	-0.230569	0.127181
O74	O	0.509823	-0.172776	0.122667
H75	H	0.461712	-0.230578	0.121760
H76	H	0.328223	-0.150814	0.119205
H77	H	1.205675	-0.000011	-0.336413
