data_functionalizedCrystal
_audit_creation_method	'MofGen! by Chris Wilmer'
_symmetry_space_group_name_H-M	'P1'
_symmetry_Int_Tables_number	1
_symmetry_cell_setting	triclinic
loop_
_symmetry_equiv_pos_as_xyz
  x,y,z
_cell_length_a	12.827892
_cell_length_b	12.759401
_cell_length_c	12.759393
_cell_angle_alpha	89.979062
_cell_angle_beta	89.970218
_cell_angle_gamma	90.016917
loop_
_atom_site_label
_atom_site_type_symbol
_atom_site_fract_x
_atom_site_fract_y
_atom_site_fract_z
Zn1	Zn	-0.415940	1.606261	-0.594025
Zn2	Zn	-0.590717	1.606150	-0.418348
Zn3	Zn	-0.415996	1.430560	-0.418361
Zn4	Zn	-0.590644	1.430550	-0.593985
O5	O	-0.503324	1.518380	-0.506180
O6	O	-0.439132	1.753268	-0.570733
O7	O	-0.567594	1.582816	-0.271328
O8	O	-0.269752	1.453918	-0.441685
O9	O	-0.567540	1.753186	-0.441663
O10	O	-0.269711	1.583005	-0.570745
O11	O	-0.439227	1.453810	-0.271338
O12	O	-0.439156	1.283538	-0.441646
O13	O	-0.567416	1.453900	-0.741011
O14	O	-0.567469	1.283530	-0.570676
O15	O	-0.439061	1.582995	-0.741041
O16	O	-0.736944	1.582806	-0.441624
O17	O	-0.736890	1.453793	-0.570664
C18	C	-0.503312	1.245413	-0.506159
C19	C	-0.503331	1.128636	-0.506175
C20	C	-0.570246	1.073798	-0.573255
C21	C	-0.570250	0.964074	-0.573276
C22	C	-0.436422	0.964036	-0.439127
C23	C	-0.436413	1.073758	-0.439112
C24	C	-0.607747	0.814177	-0.697137
C25	C	-0.674678	0.759335	-0.764208
C26	C	-0.776661	0.794932	-0.780157
C27	C	-0.811735	0.885369	-0.729020
C28	C	-0.744809	0.940205	-0.661941
C29	C	-0.642811	0.904610	-0.646012
C30	C	-0.398927	1.223657	-0.315250
C31	C	-0.332006	1.278495	-0.248165
C32	C	-0.230021	1.242901	-0.232205
C33	C	-0.194951	1.152461	-0.283324
C34	C	-0.261872	1.097622	-0.350409
C35	C	-0.363856	1.133224	-0.366370
C36	C	-0.774834	1.518315	-0.506161
C37	C	-0.890987	1.518383	-0.506188
C38	C	-0.942764	1.582298	-0.442406
C39	C	-1.062814	1.582370	-0.442433
C40	C	-0.230754	1.518475	-0.506221
C41	C	-0.114601	1.518515	-0.506239
C42	C	-0.503224	1.518459	-0.780213
C43	C	-0.503181	1.518492	-0.896990
C44	C	-0.503338	1.792414	-0.506201
C45	C	-0.503344	1.909190	-0.506210
C46	C	-0.436336	1.585717	-0.951869
C47	C	-0.436291	1.585735	-1.061593
C48	C	-0.569945	1.451301	-1.061549
C49	C	-0.569984	1.451278	-0.951827
C50	C	-0.312997	1.623348	-1.211570
C51	C	-0.246161	1.690589	-1.266452
C52	C	-0.230136	1.793102	-1.230861
C53	C	-0.280963	1.828395	-1.140388
C54	C	-0.347806	1.761160	-1.085511
C55	C	-0.363811	1.658632	-1.121101
C56	C	-0.693280	1.413676	-0.801849
C57	C	-0.760130	1.346445	-0.746969
C58	C	-0.776165	1.243930	-0.782559
C59	C	-0.725357	1.208641	-0.873035
C60	C	-0.658507	1.275872	-0.927914
C61	C	-0.642470	1.378385	-0.892317
C62	C	-0.503349	1.518363	-0.233212
C63	C	-0.503097	1.518533	-0.116436
H64	H	-0.360569	1.352136	-0.206540
H65	H	-0.267917	1.911875	-1.111422
H66	H	-0.935536	1.463720	-0.560818
C67	C	-0.602612	1.237047	-1.027438
N68	N	-0.560510	1.207804	-1.102397
C69	C	-0.783382	1.039683	-0.605696
N70	N	-0.812437	1.114616	-0.563338
C71	C	-0.362842	1.659645	-0.891552
N72	N	-0.307480	1.715326	-0.846124
H73	H	-0.175716	1.847850	-1.275554
H74	H	-0.233307	1.023986	-0.392040
C75	C	-0.495555	0.775019	-0.679608
N76	N	-0.411051	0.745520	-0.666404
C77	C	-0.923930	0.924511	-0.746558
N78	N	-1.008438	0.953996	-0.759771
H79	H	-0.389192	1.789896	-1.011853
H80	H	-0.204778	1.661844	-1.340116
H81	H	-0.624336	1.396580	-1.106211
H82	H	-0.326030	1.539872	-1.240552
C83	C	-0.742994	1.095868	-0.912186
N84	N	-0.756282	1.010926	-0.941673
H85	H	-1.070082	1.463788	-0.560844
H86	H	-0.830609	1.189195	-0.737871
C87	C	-0.636091	0.659862	-0.820464
N88	N	-0.607031	0.584939	-0.862835
C89	C	-0.816025	1.385270	-0.647446
N90	N	-0.858123	1.414512	-0.572484
H91	H	-0.175538	1.287555	-0.177569
H92	H	-0.680222	1.497149	-0.772857
C93	C	-0.643850	1.134160	-0.647034
N94	N	-0.699287	1.179622	-0.702609
C95	C	-0.082761	1.113304	-0.265770
N96	N	0.001743	1.083813	-0.252544
H97	H	-0.831157	0.750272	-0.834769
H98	H	-0.381941	0.919341	-0.384525
H99	H	-0.898218	1.636970	-0.387783
C100	C	-0.511117	1.262821	-0.332804
N101	N	-0.595620	1.292319	-0.346020
H102	H	-1.107341	1.637087	-0.387824
