data_functionalizedCrystal
_audit_creation_method	'MofGen! by Chris Wilmer'
_symmetry_space_group_name_H-M	'P1'
_symmetry_Int_Tables_number	1
_symmetry_cell_setting	triclinic
loop_
_symmetry_equiv_pos_as_xyz
  x,y,z
_cell_length_a	6.817900
_cell_length_b	14.858572
_cell_length_c	10.992723
_cell_angle_alpha	93.416997
_cell_angle_beta	71.229715
_cell_angle_gamma	75.475997
loop_
_atom_site_label
_atom_site_type_symbol
_atom_site_fract_x
_atom_site_fract_y
_atom_site_fract_z
V1	V	4.065415	-0.289952	-0.178571
O2	O	4.024437	-0.284441	0.007749
O3	O	4.043362	-0.287961	-0.353276
O4	O	4.021693	-0.416414	-0.176189
O5	O	4.046255	-0.155099	-0.170564
V6	V	4.545022	-0.273823	-0.156242
O7	O	4.335262	-0.325331	-0.227552
O8	O	4.725373	-0.238444	-0.107261
O9	O	4.343869	-0.275815	0.018463
O10	O	4.703397	-0.279335	-0.342562
O11	O	4.681579	-0.408677	-0.164249
O12	O	4.365537	-0.147362	-0.158624
C13	C	3.894621	-0.283385	-0.395854
C14	C	3.957908	-0.282600	-0.538681
C15	C	4.269142	-0.286734	-0.749633
C16	C	4.203667	-0.287910	-0.601157
C17	C	3.920464	-0.368735	-0.608133
C18	C	3.987748	-0.368026	-0.756804
C19	C	3.886334	-0.190239	-0.718034
C20	C	3.824023	-0.189986	-0.569312
C21	C	3.866979	-0.447238	-0.169961
C22	C	3.912690	-0.550621	-0.169169
C23	C	4.155953	-0.280388	0.061034
C24	C	4.071905	-0.281179	0.203859
C25	C	4.079993	-0.929189	-0.166277
C26	C	4.033436	-0.823860	-0.167082
C27	C	3.996343	-0.739909	-0.167725
C28	C	3.949783	-0.634572	-0.168527
C29	C	4.183594	-0.116533	-0.164857
C30	C	4.117121	-0.013149	-0.165641
H31	H	3.936935	-0.124205	-0.743307
F32	F	4.342285	-0.374778	-0.577021
H33	H	3.852612	-0.126208	-0.522540
F34	F	4.449216	-0.372485	-0.820637
F35	F	4.157537	-0.457538	-0.824793
H36	H	4.337129	-0.224801	-0.774627
H37	H	3.843383	-0.367787	-0.787835
H38	H	3.642965	-0.180703	-0.525207
H39	H	3.738395	-0.185315	-0.747215
H40	H	4.238945	-0.226344	-0.553835
F41	F	3.689409	-0.367937	-0.555280
F42	F	4.046116	-0.458315	-0.581999
