data_functionalizedCrystal
_audit_creation_method	'MofGen! by Chris Wilmer'
_symmetry_space_group_name_H-M	'P1'
_symmetry_Int_Tables_number	1
_symmetry_cell_setting	triclinic
loop_
_symmetry_equiv_pos_as_xyz
  x,y,z
_cell_length_a	10.654541
_cell_length_b	15.944551
_cell_length_c	9.130307
_cell_angle_alpha	89.995755
_cell_angle_beta	89.999822
_cell_angle_gamma	83.991333
loop_
_atom_site_label
_atom_site_type_symbol
_atom_site_fract_x
_atom_site_fract_y
_atom_site_fract_z
O1	O	1.666312	0.117965	-0.121758
O2	O	2.166312	0.617965	0.378242
O3	O	1.300688	0.129208	-0.121771
O4	O	1.800688	0.629208	0.378229
O5	O	1.493485	0.001369	-0.121751
O6	O	1.993485	0.501369	0.378249
O7	O	1.473516	0.245804	-0.121778
O8	O	1.973516	0.745804	0.378222
O9	O	1.493478	0.001368	0.121848
O10	O	1.993478	0.501368	0.621848
O11	O	1.300682	0.129206	0.121828
O12	O	1.800682	0.629206	0.621828
O13	O	1.666306	0.117964	0.121841
O14	O	2.166306	0.617964	0.621841
Cu15	Cu	1.483493	0.123585	0.144077
Cu16	Cu	1.983493	0.623585	0.644077
Cu17	Cu	1.483501	0.123587	-0.144007
Cu18	Cu	1.983501	0.623587	0.355993
O19	O	1.473509	0.245802	0.121821
O20	O	1.973509	0.745802	0.621821
C21	C	1.253897	0.128382	0.000027
C22	C	1.753897	0.628382	0.500027
C23	C	1.114486	0.125914	0.000022
C24	C	1.614486	0.625914	0.500022
C25	C	1.084537	0.278779	-0.000013
C26	C	1.584537	0.778779	0.499987
C27	C	1.004069	0.354048	-0.000036
C28	C	1.504069	0.854048	0.499964
C29	C	0.873081	0.351724	-0.000038
C30	C	1.373081	0.851724	0.499962
C31	C	0.822560	0.274122	-0.000011
C32	C	1.322560	0.774122	0.499989
C33	C	0.903028	0.198852	0.000012
C34	C	1.403028	0.698852	0.500012
C35	C	1.034017	0.201185	0.000009
C36	C	1.534017	0.701185	0.500009
C37	C	0.932976	0.045989	0.000058
C38	C	1.432976	0.545989	0.500058
C39	C	1.063965	0.048311	0.000049
C40	C	1.563965	0.548311	0.500049
C41	C	0.882455	-0.031613	0.000085
C42	C	1.382455	0.468387	0.500085
C43	C	0.962924	-0.106885	0.000098
C44	C	1.462924	0.393115	0.500098
C45	C	1.093919	-0.104557	0.000097
C46	C	1.593919	0.395443	0.500097
C47	C	1.144433	-0.026958	0.000072
C48	C	1.644433	0.473042	0.500072
C49	C	1.492652	-0.029930	0.000049
C50	C	1.992652	0.470070	0.500049
C51	C	1.490167	-0.123190	0.000049
C52	C	1.990167	0.376810	0.500049
C53	C	1.364722	-0.338772	0.000025
C54	C	1.864722	0.161228	0.500025
C55	C	1.422972	-0.399453	0.120136
C56	C	1.922972	0.100547	0.620136
C57	C	1.485671	-0.293942	0.000038
C58	C	1.985671	0.206058	0.500038
C59	C	1.423006	-0.399435	-0.120034
C60	C	1.923006	0.100565	0.379966
C61	C	1.481319	-0.458880	0.000021
C62	C	1.981319	0.041120	0.500021
C63	C	1.543954	-0.353395	0.120248
C64	C	2.043954	0.146605	0.620248
C65	C	1.543971	-0.353371	-0.120029
C66	C	2.043971	0.146629	0.379971
C67	C	1.602309	-0.414034	0.000111
C68	C	2.102309	0.085966	0.500111
C69	C	1.488175	-0.198925	0.000049
C70	C	1.988175	0.301075	0.500049
C71	C	1.478825	-0.553896	0.000020
C72	C	1.978825	-0.053896	0.500020
C73	C	1.713097	0.118790	0.000040
C74	C	2.213097	0.618790	0.500040
C75	C	1.852508	0.121258	0.000035
C76	C	2.352508	0.621258	0.500035
C77	C	1.474342	0.277102	0.000018
C78	C	1.974342	0.777102	0.500018
C79	C	1.476827	0.370362	0.000008
C80	C	1.976827	0.870362	0.500008
N81	N	1.483497	0.123584	0.346700
N82	N	1.983497	0.623584	0.846700
N83	N	1.483507	0.123582	-0.346630
N84	N	1.983507	0.623582	0.153370
C85	C	1.654288	0.010416	0.346708
C86	C	2.154288	0.510416	0.846708
C87	C	1.739692	-0.046165	0.423378
C88	C	2.239692	0.453835	0.923378
C89	C	1.739704	-0.046166	0.576712
C90	C	2.239704	0.453834	1.076712
C91	C	1.654301	0.010420	0.653378
C92	C	2.154301	0.510420	1.153378
C93	C	1.568898	0.067001	0.576707
C94	C	2.068898	0.567001	1.076707
C95	C	1.568897	0.066997	0.423370
C96	C	2.068897	0.566997	0.923370
C97	C	1.398103	0.180163	0.576699
C98	C	1.898103	0.680163	1.076699
C99	C	1.398094	0.180169	0.423366
C100	C	1.898094	0.680169	0.923366
C101	C	1.312700	0.236748	0.653366
C102	C	1.812700	0.736748	1.153366
C103	C	1.227301	0.293335	0.576695
C104	C	1.727301	0.793335	1.076695
C105	C	1.227292	0.293334	0.423352
C106	C	1.727292	0.793334	0.923352
C107	C	1.312691	0.236750	0.346695
C108	C	1.812691	0.736750	0.846695
H109	H	0.775797	-0.033501	0.000092
H110	H	1.275797	0.466499	0.500092
H111	H	0.715901	0.272236	0.000006
H112	H	1.215901	0.772236	0.500006
H113	H	1.702790	-0.446611	0.000183
H114	H	2.202790	0.053389	0.500183
Br115	Br	1.262307	0.281939	-0.000047
Br116	Br	1.762307	0.781939	0.499953
Br117	Br	1.111370	0.370120	0.319313
Br118	Br	1.611370	0.870120	0.819313
H119	H	1.045218	0.417231	-0.000054
H120	H	1.545218	0.917231	0.499946
Br121	Br	1.855600	-0.122962	0.680769
Br122	Br	2.355600	0.377038	1.180769
Br123	Br	1.197395	-0.284226	0.000204
Br124	Br	1.697395	0.215774	0.500204
Br125	Br	1.337711	-0.433417	-0.289266
Br126	Br	1.837711	0.066583	0.210734
H127	H	0.921778	-0.170062	0.000118
H128	H	1.421778	0.329938	0.500118
Br129	Br	1.312695	0.236749	0.138598
Br130	Br	1.812695	0.736749	0.638598
H131	H	1.595086	-0.332944	-0.221575
H132	H	2.095086	0.167056	0.278425
H133	H	0.807563	0.413015	-0.000046
H134	H	1.307563	0.913015	0.499954
H135	H	1.371812	-0.419858	0.221677
H136	H	1.871812	0.080142	0.721677
Br137	Br	1.203116	-0.206715	0.000147
Br138	Br	1.703116	0.293285	0.500147
Br139	Br	1.654300	0.010425	0.138611
Br140	Br	2.154300	0.510425	0.638611
H141	H	1.809224	-0.092238	0.360943
H142	H	2.309224	0.407762	0.860943
H143	H	1.251088	-0.025055	0.000055
H144	H	1.751088	0.474945	0.500055
Br145	Br	1.629150	-0.319592	0.289680
Br146	Br	2.129150	0.180408	0.789680
Br147	Br	1.654297	0.010406	0.861475
Br148	Br	2.154297	0.510406	1.361475
Br149	Br	1.312703	0.236744	0.861463
Br150	Br	1.812703	0.736744	1.361463
H151	H	1.157766	0.339399	0.639126
H152	H	1.657766	0.839399	1.139126
