data_functionalizedCrystal
_audit_creation_method	'MofGen! by Chris Wilmer'
_symmetry_space_group_name_H-M	'P1'
_symmetry_Int_Tables_number	1
_symmetry_cell_setting	triclinic
loop_
_symmetry_equiv_pos_as_xyz
  x,y,z
_cell_length_a	19.188905
_cell_length_b	19.188930
_cell_length_c	9.130313
_cell_angle_alpha	89.993647
_cell_angle_beta	89.992651
_cell_angle_gamma	83.139668
loop_
_atom_site_label
_atom_site_type_symbol
_atom_site_fract_x
_atom_site_fract_y
_atom_site_fract_z
O1	O	0.926152	0.087081	-0.122057
O2	O	0.722838	0.098834	-0.122009
O3	O	0.830362	-0.008699	-0.122006
O4	O	0.818628	0.194614	-0.122060
O5	O	0.830361	-0.008696	0.121593
O6	O	0.722837	0.098837	0.121590
O7	O	0.926151	0.087084	0.121542
Cu8	Cu	0.824494	0.092961	0.143808
Cu9	Cu	0.824495	0.092957	-0.144276
O10	O	0.818627	0.194617	0.121539
C11	C	0.696826	0.098458	-0.000203
C12	C	0.619321	0.097324	-0.000184
C13	C	0.582930	0.096778	-0.132973
C14	C	0.510106	0.095705	-0.132991
C15	C	0.473678	0.095164	-0.000212
C16	C	0.510078	0.095714	0.132595
C17	C	0.582899	0.096794	0.132609
N18	N	0.364657	0.053736	0.098614
N19	N	0.295480	0.052709	0.098591
C20	C	0.254272	0.091911	-0.000246
N21	N	0.284854	0.132171	-0.099083
N22	N	0.354038	0.133195	-0.099065
C23	C	0.394716	0.093993	-0.000212
C24	C	0.138917	0.090203	-0.133064
C25	C	0.066091	0.089134	-0.133077
C26	C	0.066065	0.089136	0.132513
C27	C	0.138888	0.090212	0.132522
C28	C	0.175310	0.090742	-0.000271
C29	C	0.829982	-0.034708	-0.000202
C30	C	0.828841	-0.112213	-0.000189
C31	C	0.891933	-0.157142	-0.000197
C32	C	0.890861	-0.229966	-0.000220
C33	C	0.826694	-0.257857	-0.000206
C34	C	0.763594	-0.212917	-0.000207
C35	C	0.764668	-0.140095	-0.000198
N36	N	0.777646	-0.365856	0.082707
N37	N	0.776630	-0.435035	0.082702
C38	C	0.823456	-0.477265	-0.000235
N39	N	0.871346	-0.447705	-0.083148
N40	N	0.872363	-0.378520	-0.083137
C41	C	0.825523	-0.336819	-0.000216
C42	C	0.885390	-0.601159	-0.000270
C43	C	0.884315	-0.673984	-0.000302
C44	C	0.757047	-0.656933	-0.000274
C45	C	0.758123	-0.584110	-0.000257
C46	C	0.822296	-0.556228	-0.000248
C47	C	0.952163	0.087460	-0.000267
C48	C	1.029668	0.088594	-0.000296
C49	C	0.819007	0.220626	-0.000268
C50	C	0.820148	0.298131	-0.000291
N51	N	0.824498	0.092963	0.346431
N52	N	0.824497	0.092950	-0.346898
C53	C	0.872121	0.045363	0.423084
C54	C	0.872119	0.045355	0.576421
C55	C	0.776868	0.140551	0.576438
C56	C	0.776867	0.140556	0.423104
C57	C	0.919752	-0.002230	0.346412
C58	C	0.967380	-0.049833	0.423065
C59	C	0.967378	-0.049841	0.576402
C60	C	0.919748	-0.002247	0.653085
H61	H	0.612580	0.097209	-0.241104
H62	H	0.704801	-0.679641	-0.000270
H63	H	1.006155	-0.088587	0.360622
Cl64	Cl	0.966063	-0.566103	-0.000251
H65	H	0.036462	0.088693	-0.241214
Cl66	Cl	0.972607	-0.122094	-0.000227
Cl67	Cl	0.464348	0.095017	-0.299939
Cl68	Cl	0.678803	-0.527624	-0.000240
H69	H	0.480413	0.095275	0.240705
Cl70	Cl	0.919759	-0.002220	0.153646
Cl71	Cl	0.716997	0.200382	0.672839
H72	H	0.738087	0.179315	0.360692
H73	H	0.919746	-0.002262	0.777943
H74	H	1.006154	-0.088605	0.638812
Cl75	Cl	0.628650	0.097480	0.299559
Cl76	Cl	0.970182	-0.286459	-0.000231
H77	H	0.711349	-0.235631	-0.000198
H78	H	0.935694	-0.710565	-0.000317
Cl79	Cl	0.685346	-0.083609	-0.000187
H80	H	0.168572	0.090641	-0.241192
Cl81	Cl	0.020276	0.088463	0.299438
H82	H	0.168519	0.090652	0.240653
