data_functionalizedCrystal
_audit_creation_method	'MofGen! by Chris Wilmer'
_symmetry_space_group_name_H-M	'P1'
_symmetry_Int_Tables_number	1
_symmetry_cell_setting	triclinic
loop_
_symmetry_equiv_pos_as_xyz
  x,y,z
_cell_length_a	14.908795
_cell_length_b	18.101397
_cell_length_c	14.908854
_cell_angle_alpha	86.667946
_cell_angle_beta	90.167392
_cell_angle_gamma	93.310645
loop_
_atom_site_label
_atom_site_type_symbol
_atom_site_fract_x
_atom_site_fract_y
_atom_site_fract_z
Zn1	Zn	1.345333	-0.203336	-0.587831
Zn2	Zn	1.845333	0.296664	-0.087831
Zn3	Zn	1.353909	-0.333906	-0.437457
Zn4	Zn	1.853909	0.166094	0.062543
Zn5	Zn	1.203642	-0.217601	-0.428797
Zn6	Zn	1.703642	0.282399	0.071203
Zn7	Zn	1.194940	-0.334668	-0.579082
Zn8	Zn	1.694940	0.165332	-0.079082
O9	O	1.274456	-0.272378	-0.508292
O10	O	1.774456	0.227622	-0.008292
O11	O	1.472299	-0.214367	-0.575169
O12	O	1.972299	0.285633	-0.075169
O13	O	1.341207	-0.324130	-0.310481
O14	O	1.841207	0.175870	0.189519
O15	O	1.222490	-0.112072	-0.449930
O16	O	1.722490	0.387928	0.050070
O17	O	1.478600	-0.310297	-0.464690
O18	O	1.978600	0.189703	0.035310
O19	O	1.326590	-0.101591	-0.566772
O20	O	1.826590	0.398409	-0.066772
O21	O	1.230806	-0.238681	-0.304119
O22	O	1.730806	0.261319	0.195881
O23	O	1.076659	-0.239419	-0.441447
O24	O	1.576659	0.260581	0.058553
O25	O	1.207659	-0.311595	-0.706069
O26	O	1.707659	0.188405	-0.206069
O27	O	1.070266	-0.325427	-0.551861
O28	O	1.570266	0.174573	-0.051861
O29	O	1.318153	-0.215106	-0.712497
O30	O	1.818153	0.284894	-0.212497
O31	O	1.332769	-0.437645	-0.456207
O32	O	1.832769	0.062355	0.043793
O33	O	1.215975	-0.438204	-0.560258
O34	O	1.715975	0.061796	-0.060258
C35	C	1.040837	-0.284054	-0.494765
C36	C	1.540837	0.215946	0.005235
C37	C	0.940893	-0.289066	-0.489000
C38	C	1.440893	0.210934	0.011000
C39	C	0.803313	-0.346001	-0.423264
C40	C	1.303313	0.153999	0.076736
C41	C	0.897219	-0.341295	-0.428681
C42	C	1.397219	0.158705	0.071319
C43	C	0.890653	-0.241539	-0.543904
C44	C	1.390653	0.258461	-0.043904
C45	C	0.796746	-0.246245	-0.538487
C46	C	1.296746	0.253755	-0.038487
C47	C	0.753079	-0.298479	-0.478166
C48	C	1.253079	0.201521	0.021834
C49	C	0.659171	-0.303188	-0.472755
C50	C	1.159171	0.196812	0.027245
C51	C	0.652606	-0.203430	-0.587972
C52	C	1.152606	0.296570	-0.087972
C53	C	0.746512	-0.198723	-0.593389
C54	C	1.246512	0.301277	-0.093389
C55	C	1.274382	-0.464794	-0.508244
C56	C	1.774382	0.035206	-0.008244
C57	C	1.274430	-0.547105	-0.508258
C58	C	1.774430	-0.047105	-0.008258
C59	C	1.274540	-0.846187	-0.508347
C60	C	1.774540	-0.346187	-0.008347
C61	C	1.347841	-0.814497	-0.442683
C62	C	1.847841	-0.314497	0.057317
C63	C	1.348071	-0.728858	-0.442877
C64	C	1.848071	-0.228858	0.057123
C65	C	1.274486	-0.697809	-0.508302
C66	C	1.774486	-0.197809	-0.008302
C67	C	1.294705	-0.723295	-0.604563
C68	C	1.794705	-0.223295	-0.104563
C69	C	1.295263	-0.808931	-0.604215
C70	C	1.795263	-0.308931	-0.104215
C71	C	1.180788	-0.820542	-0.478558
C72	C	1.680788	-0.320542	0.021442
C73	C	1.181380	-0.734964	-0.476470
C74	C	1.681380	-0.234964	0.023530
C75	C	1.274453	-0.613952	-0.508282
C76	C	1.774453	-0.113952	-0.008282
C77	C	1.274575	-0.930043	-0.508373
C78	C	1.774575	-0.430043	-0.008373
C79	C	1.508987	-0.260656	-0.521872
C80	C	2.008987	0.239344	-0.021872
C81	C	1.608930	-0.255661	-0.527659
C82	C	2.108930	0.244339	-0.027659
C83	C	1.260979	-0.261844	-0.742821
C84	C	1.760979	0.238156	-0.242821
C85	C	1.255235	-0.257355	-0.842764
C86	C	1.755235	0.242645	-0.342764
C87	C	1.274554	-0.079208	-0.508361
C88	C	1.774554	0.420792	-0.008361
C89	C	1.274596	0.003110	-0.508391
C90	C	1.774596	0.503110	-0.008391
C91	C	1.359425	-0.337895	-1.037194
C92	C	1.859425	0.162105	-0.537194
C93	C	1.354031	-0.333679	-1.131099
C94	C	1.854031	0.166321	-0.631099
C95	C	1.239060	-0.244704	-1.124481
C96	C	1.739060	0.255296	-0.624481
C97	C	1.244454	-0.248920	-1.030576
C98	C	1.744454	0.251080	-0.530576
C99	C	1.304637	-0.295517	-0.986936
C100	C	1.804637	0.204483	-0.486936
C101	C	1.310025	-0.299737	-0.893029
C102	C	1.810025	0.200263	-0.393029
C103	C	1.195060	-0.210759	-0.886412
C104	C	1.695060	0.289241	-0.386412
C105	C	1.189666	-0.206543	-0.980317
C106	C	1.689666	0.293457	-0.480317
C107	C	1.287933	-0.282815	-0.274678
C108	C	1.787933	0.217185	0.225322
C109	C	1.293850	-0.287086	-0.174746
C110	C	1.793850	0.212914	0.325254
H111	H	1.336054	-0.711841	-0.371673
H112	H	1.836054	-0.211841	0.128327
H113	H	0.938116	-0.379992	-0.383973
H114	H	1.438116	0.120008	0.116027
H115	H	1.166035	-0.718791	-0.405602
H116	H	1.666035	-0.218791	0.094398
H117	H	1.140669	-0.168603	-1.015862
H118	H	1.640669	0.331397	-0.515862
H119	H	1.408432	-0.375832	-1.001663
H120	H	1.908432	0.124168	-0.501663
H121	H	0.782079	-0.156195	-0.642498
H122	H	1.282079	0.343805	-0.142498
H123	H	0.623619	-0.345722	-0.423641
H124	H	1.123619	0.154278	0.076359
H125	H	1.417628	-0.704070	-0.463022
H126	H	1.917628	-0.204070	0.036978
H127	H	0.926223	-0.199009	-0.593009
H128	H	1.426223	0.300991	-0.093009
H129	H	0.767758	-0.388537	-0.374156
H130	H	1.267758	0.111463	0.125844
H131	H	0.611695	-0.164734	-0.632679
H132	H	1.111695	0.335266	-0.132679
H133	H	1.363629	-0.824450	-0.628809
H134	H	1.863629	-0.324450	-0.128809
H135	H	1.417024	-0.831747	-0.462620
H136	H	1.917024	-0.331747	0.037380
H137	H	1.150447	-0.176253	-0.845481
H138	H	1.650447	0.323747	-0.345481
H139	H	1.336031	-0.839084	-0.371279
H140	H	1.836031	-0.339084	0.128721
H141	H	1.243914	-0.829672	-0.655123
H142	H	1.743914	-0.329672	-0.155123
H143	H	1.398646	-0.368186	-1.172017
H144	H	1.898646	0.131814	-0.672017
H145	H	1.190068	-0.206763	-1.160029
H146	H	1.690068	0.293237	-0.660029
H147	H	1.242712	-0.703002	-0.655040
H148	H	1.742712	-0.203002	-0.155040
H149	H	1.362273	-0.697412	-0.629460
H150	H	1.862273	-0.197412	-0.129460
H151	H	1.161337	-0.846407	-0.409295
H152	H	1.661337	-0.346407	0.090705
H153	H	1.124270	-0.714199	-0.520353
H154	H	1.624270	-0.214199	-0.020353
H155	H	1.359034	-0.337675	-0.857499
H156	H	1.859034	0.162325	-0.357499
H157	H	1.126241	-0.841123	-0.526317
H158	H	1.626241	-0.341123	-0.026317
