data_functionalizedCrystal
_audit_creation_method	'MofGen! by Chris Wilmer'
_symmetry_space_group_name_H-M	'P1'
_symmetry_Int_Tables_number	1
_symmetry_cell_setting	triclinic
loop_
_symmetry_equiv_pos_as_xyz
  x,y,z
_cell_length_a	6.817900
_cell_length_b	11.102188
_cell_length_c	10.992410
_cell_angle_alpha	91.892541
_cell_angle_beta	108.764651
_cell_angle_gamma	108.603875
loop_
_atom_site_label
_atom_site_type_symbol
_atom_site_fract_x
_atom_site_fract_y
_atom_site_fract_z
V1	V	-4.113410	-0.175839	-0.400593
O2	O	-4.072416	0.008450	-0.392967
O3	O	-4.090164	-0.348659	-0.397854
O4	O	-4.091015	-0.173134	-0.575306
O5	O	-4.071560	-0.168290	-0.214287
V6	V	-4.590408	-0.153796	-0.378309
O7	O	-4.388979	-0.224192	-0.449474
O8	O	-4.765036	-0.105443	-0.329428
O9	O	-4.390447	0.019024	-0.381049
O10	O	-4.748799	-0.338084	-0.385935
O11	O	-4.749655	-0.161345	-0.564616
O12	O	-4.389597	-0.156501	-0.203597
C13	C	-3.940443	-0.390789	-0.391534
C14	C	-4.002898	-0.532071	-0.390459
C15	C	-3.971516	-0.580297	-0.272295
C16	C	-4.030222	-0.713048	-0.271290
C17	C	-4.151685	-0.749338	-0.506622
C18	C	-4.092993	-0.616589	-0.507626
C19	C	-3.941526	-0.166888	-0.617890
C20	C	-4.004666	-0.165820	-0.760719
C21	C	-3.871835	-0.156089	-0.955842
C22	C	-3.806277	-0.157727	-0.807359
C23	C	-4.202084	-0.291130	-0.837823
C24	C	-4.266403	-0.290022	-0.986389
C25	C	-4.145326	-0.047376	-0.948357
C26	C	-4.074620	-0.046782	-0.799344
C27	C	-4.203511	0.061147	-0.387365
C28	C	-4.120296	0.202429	-0.388449
C29	C	-4.202427	-0.162751	-0.161006
C30	C	-4.118525	-0.163812	-0.018176
H31	H	-3.898156	-0.511485	-0.176890
H32	H	-4.324289	-0.051930	-0.989198
C33	C	-4.352010	-0.612754	-0.714571
C34	C	-4.127493	-0.563577	-0.637525
H35	H	-4.373306	-0.580031	-0.794764
H36	H	-4.435150	-0.587676	-0.670488
H37	H	-4.399826	-0.703910	-0.730731
H38	H	-4.079681	-0.472421	-0.621357
H39	H	-4.044324	-0.588647	-0.681617
H40	H	-4.216740	-0.045310	-0.766833
C41	C	-3.904233	-0.663834	-0.038779
C42	C	-3.995710	-0.766057	-0.141400
H43	H	-3.882917	-0.696561	0.041412
H44	H	-4.001594	-0.616950	-0.048161
H45	H	-3.766128	-0.608676	-0.039981
H46	H	-4.133824	-0.821209	-0.140204
H47	H	-3.898346	-0.812962	-0.132015
C48	C	-3.825124	0.080458	-0.594150
C49	C	-3.881835	0.078364	-0.728668
H50	H	-3.706110	0.157720	-0.550514
H51	H	-3.781811	0.008805	-0.570411
H52	H	-3.948989	0.076292	-0.570297
H53	H	-3.757975	0.082521	-0.752522
H54	H	-3.925140	0.150037	-0.752417
H55	H	-4.225043	-0.818168	-0.602015
C56	C	-3.887500	-0.263492	-1.153771
C57	C	-3.837632	-0.269032	-1.020624
H58	H	-3.866405	-0.333226	-1.193765
H59	H	-3.792982	-0.184647	-1.165874
H60	H	-4.036951	-0.268869	-1.191974
H61	H	-3.688175	-0.263646	-0.982418
H62	H	-3.932151	-0.347898	-1.008511
H63	H	-3.658252	-0.067623	-0.754018
H64	H	-3.755064	-0.065366	-0.974671
H65	H	-3.748693	-0.242549	-0.782544
H66	H	-4.250421	-0.378186	-1.032660
H67	H	-4.448353	-0.300919	-1.029021
C68	C	-4.151507	-0.479618	-0.915805
C69	C	-4.139768	-0.410452	-0.803270
H70	H	-4.113043	-0.553284	-0.894472
H71	H	-4.051771	-0.426648	-0.952089
H72	H	-4.297687	-0.505849	-0.977165
H73	H	-3.993583	-0.384213	-0.741913
H74	H	-4.239508	-0.463433	-0.766966
C75	C	-4.461938	-0.420051	-0.747948
C76	C	-4.405024	-0.305253	-0.798938
H77	H	-4.587229	-0.428769	-0.723947
H78	H	-4.341414	-0.418640	-0.673609
H79	H	-4.495804	-0.490600	-0.811719
H80	H	-4.371142	-0.234703	-0.735164
H81	H	-4.525574	-0.306653	-0.873287
C82	C	-3.895827	0.057288	-1.055898
C83	C	-4.006999	0.081089	-0.975827
H84	H	-3.810408	0.136593	-1.072849
H85	H	-4.000384	0.006422	-1.135517
H86	H	-3.801266	0.012722	-1.013618
H87	H	-4.101573	0.125646	-1.018111
H88	H	-3.902430	0.131975	-0.896194
