data_functionalizedCrystal
_audit_creation_method	'MofGen! by Chris Wilmer'
_symmetry_space_group_name_H-M	'P1'
_symmetry_Int_Tables_number	1
_symmetry_cell_setting	triclinic
loop_
_symmetry_equiv_pos_as_xyz
  x,y,z
_cell_length_a	13.635800
_cell_length_b	19.453103
_cell_length_c	9.582880
_cell_angle_alpha	86.194649
_cell_angle_beta	111.207034
_cell_angle_gamma	78.290822
loop_
_atom_site_label
_atom_site_type_symbol
_atom_site_fract_x
_atom_site_fract_y
_atom_site_fract_z
V1	V	2.053995	-0.096884	0.467295
O2	O	2.051414	0.004961	0.457684
O3	O	2.025210	-0.192399	0.464787
O4	O	2.049455	-0.095260	0.670784
O5	O	2.027002	-0.092850	0.250261
V6	V	2.293856	-0.084718	0.441252
O7	O	2.188794	-0.123572	0.524421
O8	O	2.384156	-0.058031	0.384125
O9	O	2.211038	0.010796	0.443760
O10	O	2.355135	-0.186564	0.450863
O11	O	2.379548	-0.088753	0.658286
O12	O	2.186793	-0.086343	0.237763
V13	V	2.553995	-0.096884	0.467295
O14	O	2.551414	0.004961	0.457684
O15	O	2.525210	-0.192399	0.464787
O16	O	2.549455	-0.095260	0.670784
O17	O	2.527002	-0.092850	0.250261
V18	V	2.793856	-0.084718	0.441252
O19	O	2.688794	-0.123572	0.524421
O20	O	2.884156	-0.058031	0.384125
O21	O	2.711038	0.010796	0.443760
O22	O	2.855135	-0.186564	0.450863
O23	O	2.879548	-0.088753	0.658286
O24	O	2.686793	-0.086343	0.237763
C25	C	1.945959	-0.215687	0.457593
C26	C	1.963198	-0.293771	0.456899
C27	C	2.062906	-0.334022	0.464057
C28	C	2.079108	-0.407391	0.463420
C29	C	1.995588	-0.440503	0.455595
C30	C	1.895867	-0.400244	0.448445
C31	C	1.879672	-0.326877	0.449097
N32	N	1.932294	-0.546826	0.363372
N33	N	1.947685	-0.616521	0.362750
C34	C	2.044378	-0.661552	0.453634
N35	N	2.125112	-0.634254	0.545145
N36	N	2.109721	-0.564552	0.545761
C37	C	2.013139	-0.520056	0.454888
C38	C	2.161662	-0.781358	0.460103
C39	C	2.177862	-0.854729	0.459476
C40	C	1.994615	-0.847579	0.444486
C41	C	1.978421	-0.774211	0.445129
C42	C	2.061946	-0.741104	0.452930
C43	C	1.976885	-0.091777	0.720361
C44	C	2.013783	-0.091081	0.886719
C45	C	2.121960	0.034081	0.450950
C46	C	2.094341	0.112164	0.451653
C47	C	2.091034	-0.089828	0.188178
C48	C	2.043754	-0.090521	0.021819
C49	C	2.445959	-0.215687	0.457593
C50	C	2.463198	-0.293771	0.456899
C51	C	2.476885	-0.091777	0.720361
C52	C	2.513783	-0.091081	0.886719
C53	C	2.621960	0.034081	0.450950
C54	C	2.594341	0.112164	0.451653
C55	C	2.591034	-0.089828	0.188178
C56	C	2.543754	-0.090521	0.021819
C57	C	2.562921	-0.334016	0.464076
C58	C	2.579138	-0.407386	0.463447
C59	C	2.495629	-0.440508	0.455631
C60	C	2.395899	-0.400258	0.448458
C61	C	2.379685	-0.326890	0.449097
C62	C	2.667112	0.152409	0.444480
C63	C	2.641167	0.225778	0.445117
C64	C	2.542454	0.258900	0.452937
C65	C	2.469676	0.218650	0.460106
C66	C	2.495618	0.145283	0.459458
H67	H	2.130924	-0.307072	0.470420
H68	H	2.660348	-0.440148	0.469284
O69	O	2.653007	-0.298306	0.472513
H70	H	2.624992	-0.240525	0.471742
H71	H	2.160306	-0.440169	0.469248
H72	H	1.827866	-0.427209	0.442078
O73	O	1.772124	-0.283456	0.441376
H74	H	1.706716	-0.288384	0.335129
H75	H	2.508845	-0.500250	0.455111
H76	H	2.327911	-0.427237	0.442094
H77	H	2.298477	-0.294127	0.443245
O78	O	1.870872	-0.730789	0.437392
H79	H	1.815511	-0.766137	0.431834
O80	O	2.773580	0.116700	0.436023
H81	H	2.757637	0.090880	0.332840
O82	O	2.719693	0.269171	0.437433
H83	H	2.733967	0.264223	0.331213
H84	H	2.229673	-0.754401	0.466453
H85	H	2.259061	-0.887501	0.465314
H86	H	1.926613	-0.874539	0.438124
H87	H	2.521343	0.318641	0.453462
H88	H	2.389302	0.245629	0.466471
O89	O	2.417134	0.101875	0.467228
H90	H	2.344146	0.137237	0.472795
