data_functionalizedCrystal
_audit_creation_method	'MofGen! by Chris Wilmer'
_symmetry_space_group_name_H-M	'P1'
_symmetry_Int_Tables_number	1
_symmetry_cell_setting	triclinic
loop_
_symmetry_equiv_pos_as_xyz
  x,y,z
_cell_length_a	18.101395
_cell_length_b	18.101398
_cell_length_c	18.101389
_cell_angle_alpha	90.008593
_cell_angle_beta	89.983159
_cell_angle_gamma	89.974090
loop_
_atom_site_label
_atom_site_type_symbol
_atom_site_fract_x
_atom_site_fract_y
_atom_site_fract_z
Zn1	Zn	-0.295010	-1.132121	-0.418536
Zn2	Zn	0.204990	-0.632121	0.081464
Zn3	Zn	-0.418836	-1.132017	-0.294698
Zn4	Zn	0.081164	-0.632017	0.205302
Zn5	Zn	-0.295001	-1.008280	-0.294731
Zn6	Zn	0.204999	-0.508280	0.205269
Zn7	Zn	-0.418803	-1.008231	-0.418520
Zn8	Zn	0.081197	-0.508231	0.081480
O9	O	-0.356912	-1.070162	-0.356621
O10	O	0.143088	-0.570162	0.143379
O11	O	-0.311453	-1.235740	-0.402101
O12	O	0.188547	-0.735740	0.097899
O13	O	-0.402419	-1.115580	-0.191069
O14	O	0.097581	-0.615580	0.308931
O15	O	-0.191370	-1.024772	-0.311175
O16	O	0.308630	-0.524772	0.188825
O17	O	-0.402427	-1.235663	-0.311118
O18	O	0.097573	-0.735663	0.188882
O19	O	-0.191376	-1.115757	-0.402133
O20	O	0.308624	-0.615757	0.097867
O21	O	-0.311438	-1.024671	-0.191094
O22	O	0.188562	-0.524671	0.308906
O23	O	-0.311407	-0.904640	-0.311159
O24	O	0.188593	-0.404640	0.188841
O25	O	-0.402371	-1.024688	-0.522155
O26	O	0.097629	-0.524688	-0.022155
O27	O	-0.402363	-0.904604	-0.402107
O28	O	0.097637	-0.404604	0.097893
O29	O	-0.311421	-1.115710	-0.522167
O30	O	0.188579	-0.615710	-0.022167
O31	O	-0.522464	-1.115532	-0.311103
O32	O	-0.022464	-0.615532	0.188897
O33	O	-0.522440	-1.024587	-0.402075
O34	O	-0.022440	-0.524587	0.097925
C35	C	-0.356881	-0.877751	-0.356636
C36	C	0.143119	-0.377751	0.143364
C37	C	-0.356885	-0.795437	-0.356659
C38	C	0.143115	-0.295437	0.143341
C39	C	-0.356925	-0.496346	-0.356634
C40	C	0.143075	0.003654	0.143366
C41	C	-0.414429	-0.527674	-0.413573
C42	C	0.085571	-0.027674	0.086427
C43	C	-0.414250	-0.613292	-0.413805
C44	C	0.085750	-0.113292	0.086195
C45	C	-0.356906	-0.644729	-0.356647
C46	C	0.143094	-0.144729	0.143353
C47	C	-0.278907	-0.613675	-0.377973
C48	C	0.221093	-0.113675	0.122027
C49	C	-0.279251	-0.528029	-0.378379
C50	C	0.220749	-0.028029	0.121621
C51	C	-0.376732	-0.527894	-0.278231
C52	C	0.123268	-0.027894	0.221769
C53	C	-0.378445	-0.613544	-0.278649
C54	C	0.121555	-0.113544	0.221351
C55	C	-0.356890	-0.728588	-0.356652
C56	C	0.143110	-0.228588	0.143348
C57	C	-0.356935	-0.412487	-0.356630
C58	C	0.143065	0.087513	0.143370
C59	C	-0.549323	-1.070063	-0.356600
C60	C	-0.049323	-0.570063	0.143400
C61	C	-0.631637	-1.070088	-0.356615
C62	C	-0.131637	-0.570088	0.143385
C63	C	-0.930728	-1.070251	-0.356655
C64	C	-0.430728	-0.570251	0.143345
C65	C	-0.899419	-1.013163	-0.414034
C66	C	-0.399419	-0.513163	0.085966
C67	C	-0.813801	-1.012892	-0.413855
C68	C	-0.313801	-0.512892	0.086145
C69	C	-0.782346	-1.070170	-0.356636
C70	C	-0.282346	-0.570170	0.143364
C71	C	-0.813481	-1.049041	-0.278590
C72	C	-0.313481	-0.549041	0.221410
C73	C	-0.899126	-1.048673	-0.278933
C74	C	-0.399126	-0.548673	0.221067
C75	C	-0.899083	-1.148592	-0.376634
C76	C	-0.399083	-0.648592	0.123366
C77	C	-0.813432	-1.148132	-0.378346
C78	C	-0.313432	-0.648132	0.121654
C79	C	-0.698486	-1.070126	-0.356620
C80	C	-0.198486	-0.570126	0.143380
C81	C	-1.014587	-1.070293	-0.356665
C82	C	-0.514587	-0.570293	0.143335
C83	C	-0.163751	-1.070282	-0.356659
C84	C	0.336249	-0.570282	0.143341
C85	C	-0.081436	-1.070333	-0.356676
C86	C	0.418564	-0.570333	0.143324
C87	C	-0.356894	-1.070205	-0.549783
C88	C	0.143106	-0.570205	-0.049783
C89	C	-0.356886	-1.070223	-0.632097
C90	C	0.143114	-0.570223	-0.132097
C91	C	-0.356941	-0.263324	-0.356613
C92	C	0.143059	0.236676	0.143387
C93	C	-0.356945	-0.345638	-0.356622
C94	C	0.143055	0.154362	0.143378
C95	C	-0.356747	-1.070266	-0.931189
C96	C	0.143253	-0.570266	-0.431189
C97	C	-0.413788	-1.012801	-0.899856
C98	C	0.086212	-0.512801	-0.399856
C99	C	-0.414053	-1.012956	-0.814238
C100	C	0.085947	-0.512956	-0.314238
C101	C	-0.356816	-1.070244	-0.782806
C102	C	0.143184	-0.570244	-0.282806
C103	C	-0.378007	-1.148269	-0.813891
C104	C	0.121993	-0.648269	-0.313891
C105	C	-0.378381	-1.147949	-0.899536
C106	C	0.121619	-0.647949	-0.399536
C107	C	-0.278388	-1.050385	-0.899616
C108	C	0.221612	-0.550385	-0.399616
C109	C	-0.278840	-1.048649	-0.813966
C110	C	0.221160	-0.548649	-0.313966
C111	C	-0.356854	-1.070236	-0.698946
C112	C	0.143146	-0.570236	-0.198946
C113	C	-0.356711	-1.070279	-1.015048
C114	C	0.143289	-0.570279	-0.515048
C115	C	-0.356878	-1.070162	-0.164211
C116	C	0.143122	-0.570162	0.335789
C117	C	-0.356677	-1.070287	-0.081897
C118	C	0.143323	-0.570287	0.418103
H119	H	-0.432635	-0.506280	-0.258851
H120	H	0.067365	-0.006280	0.241149
H121	H	-0.793106	-1.089313	-0.234673
H122	H	-0.293106	-0.589313	0.265327
Br123	Br	-0.313701	-0.649205	-0.204137
Br124	Br	0.186299	-0.149205	0.295863
H125	H	-0.334846	-0.507635	-0.235807
H126	H	0.165154	-0.007635	0.264193
H127	H	-0.435840	-0.633848	-0.262564
H128	H	0.064160	-0.133848	0.237436
H129	H	-0.262449	-0.508068	-0.435695
H130	H	0.237551	-0.008068	0.064305
Br131	Br	-0.510851	-1.034877	-0.780089
Br132	Br	-0.010851	-0.534877	-0.280089
H133	H	-0.400662	-0.954768	-0.920458
H134	H	0.099338	-0.454768	-0.420458
Br135	Br	-0.779515	-1.174692	-0.474080
Br136	Br	-0.279515	-0.674692	0.025920
Br137	Br	-0.205557	-0.647615	-0.311010
Br138	Br	0.294443	-0.147615	0.188990
H139	H	-0.471516	-1.025796	-0.921380
H140	H	0.028484	-0.525796	-0.421380
Br141	Br	-0.246210	-0.957201	-0.935616
Br142	Br	0.253790	-0.457201	-0.435616
Br143	Br	-0.777830	-0.954601	-0.249869
Br144	Br	-0.277830	-0.454601	0.250131
H145	H	-0.920997	-0.955448	-0.400967
H146	H	-0.420997	-0.455448	0.099033
Br147	Br	-0.510664	-0.648289	-0.391561
Br148	Br	-0.010664	-0.148289	0.108439
H149	H	-0.262860	-0.991229	-0.793649
H150	H	0.237140	-0.491229	-0.293649
H151	H	-0.401146	-0.633794	-0.471896
H152	H	0.098854	-0.133794	0.028104
Br153	Br	-0.312095	-1.221685	-0.934087
Br154	Br	0.187905	-0.721685	-0.434087
Br155	Br	-0.310938	-1.221553	-0.779964
Br156	Br	0.189062	-0.721553	-0.279964
Br157	Br	-0.204242	-1.113327	-0.778317
Br158	Br	0.295758	-0.613327	-0.278317
H159	H	-0.435663	-1.164804	-0.919516
H160	H	0.064337	-0.664804	-0.419516
Br161	Br	-0.250394	-0.649447	-0.472463
Br162	Br	0.249606	-0.149447	0.027537
H163	H	-0.920642	-1.167856	-0.432575
H164	H	-0.420642	-0.667856	0.067425
H165	H	-0.792748	-1.026111	-0.471725
H166	H	-0.292748	-0.526111	0.028275
H167	H	-0.793370	-0.954823	-0.400621
H168	H	-0.293370	-0.454823	0.099379
H169	H	-0.919978	-1.026251	-0.472092
H170	H	-0.419978	-0.526251	0.027908
H171	H	-0.792016	-1.192915	-0.339599
H172	H	-0.292016	-0.692915	0.160401
H173	H	-0.919161	-0.991406	-0.262007
H174	H	-0.419161	-0.491406	0.237993
Br175	Br	-0.472465	-1.176852	-0.778149
Br176	Br	0.027535	-0.676852	-0.278149
H177	H	-0.472458	-0.507058	-0.400357
H178	H	0.027542	-0.007058	0.099643
H179	H	-0.401491	-0.506163	-0.471328
H180	H	0.098509	-0.006163	0.028672
Br181	Br	-0.205423	-0.493487	-0.312274
Br182	Br	0.294577	0.006513	0.187726
Br183	Br	-0.207553	-1.120146	-0.933386
Br184	Br	0.292447	-0.620146	-0.433386
Br185	Br	-0.933654	-1.114960	-0.205245
Br186	Br	-0.433654	-0.614960	0.294755
H187	H	-0.919329	-1.191125	-0.334843
H188	H	-0.419329	-0.691125	0.165157
H189	H	-0.400791	-0.955097	-0.793221
H190	H	0.099209	-0.455097	-0.293221
