data_functionalizedCrystal
_audit_creation_method	'MofGen! by Chris Wilmer'
_symmetry_space_group_name_H-M	'P1'
_symmetry_Int_Tables_number	1
_symmetry_cell_setting	triclinic
loop_
_symmetry_equiv_pos_as_xyz
  x,y,z
_cell_length_a	10.685980
_cell_length_b	12.594516
_cell_length_c	10.686551
_cell_angle_alpha	94.405296
_cell_angle_beta	98.408259
_cell_angle_gamma	94.378643
loop_
_atom_site_label
_atom_site_type_symbol
_atom_site_fract_x
_atom_site_fract_y
_atom_site_fract_z
Zn1	Zn	1.995804	-0.238567	0.866709
Zn2	Zn	1.979394	-0.431387	0.654450
Zn3	Zn	1.767233	-0.268191	0.638174
Zn4	Zn	1.783518	-0.431284	0.850360
O5	O	1.881487	-0.342357	0.752423
O6	O	2.171260	-0.251790	0.852206
O7	O	1.937568	-0.422180	0.474659
O8	O	1.797606	-0.115310	0.668521
O9	O	2.159204	-0.393455	0.696260
O10	O	1.965536	-0.093545	0.836424
O11	O	1.781694	-0.302280	0.462701
O12	O	1.591760	-0.302180	0.652668
O13	O	1.825361	-0.393278	1.030161
O14	O	1.603725	-0.422004	0.808560
O15	O	1.981327	-0.251690	1.042172
O16	O	1.953358	-0.580325	0.680407
O17	O	1.809449	-0.580249	0.824342
C18	C	1.551685	-0.365296	0.727074
C19	C	1.410596	-0.375133	0.716260
C20	C	1.881427	-0.618904	0.752397
C21	C	1.881520	-0.737200	0.752437
C22	C	1.959898	-0.806443	0.674249
C23	C	1.999813	-0.866900	0.792487
C24	C	1.841770	-0.887526	0.634285
C25	C	1.921499	-0.796091	0.870740
C26	C	1.763396	-0.816720	0.712455
C27	C	1.803273	-0.877142	0.830770
C28	C	2.212578	-0.319330	0.777872
C29	C	2.353669	-0.309517	0.788717
C30	C	1.906991	-0.319168	1.083512
C31	C	1.917859	-0.309286	1.224603
C32	C	1.881585	-0.064726	0.752480
C33	C	1.881626	0.053583	0.752505
C34	C	1.856156	-0.365374	0.422628
C35	C	1.845534	-0.374939	0.281557
H36	H	1.351389	-0.438839	0.645942
H37	H	1.808106	-0.927346	0.534336
C38	C	2.012749	-0.223131	1.304552
N39	N	2.084217	-0.158238	1.364771
H40	H	2.026196	-0.775386	0.608193
C41	C	2.134826	-0.897146	0.838216
N42	N	2.236520	-0.919925	0.872651
C43	C	1.967143	-0.742463	1.005816
N44	N	2.001528	-0.702068	1.107551
C45	C	1.628419	-0.786438	0.666671
N46	N	1.526755	-0.763625	0.632171
C47	C	1.713796	-0.918813	0.920244
N48	N	1.646406	-0.950199	0.987639
C49	C	1.433643	-0.223452	0.883704
N50	N	1.493888	-0.158627	0.955251
C51	C	1.750644	-0.461086	1.201613
N52	N	1.679170	-0.525972	1.141391
