data_functionalizedCrystal
_audit_creation_method	'MofGen! by Chris Wilmer'
_symmetry_space_group_name_H-M	'P1'
_symmetry_Int_Tables_number	1
_symmetry_cell_setting	triclinic
loop_
_symmetry_equiv_pos_as_xyz
  x,y,z
_cell_length_a	18.101398
_cell_length_b	18.101397
_cell_length_c	18.101390
_cell_angle_alpha	89.964458
_cell_angle_beta	89.975319
_cell_angle_gamma	90.015732
loop_
_atom_site_label
_atom_site_type_symbol
_atom_site_fract_x
_atom_site_fract_y
_atom_site_fract_z
Zn1	Zn	1.132178	-0.294895	-0.418825
Zn2	Zn	1.132096	-0.418752	-0.294978
Zn3	Zn	1.008337	-0.294918	-0.294986
Zn4	Zn	1.008311	-0.418689	-0.418767
O5	O	1.070231	-0.356813	-0.356889
O6	O	1.235800	-0.311341	-0.402418
O7	O	1.115656	-0.402361	-0.191346
O8	O	1.024809	-0.191282	-0.311442
O9	O	1.235740	-0.402338	-0.311428
O10	O	1.115795	-0.191265	-0.402426
O11	O	1.024730	-0.311381	-0.191352
O12	O	0.904700	-0.311320	-0.311385
O13	O	1.024766	-0.402231	-0.522407
O14	O	0.904682	-0.402254	-0.402326
O15	O	1.115771	-0.311280	-0.522450
O16	O	1.115631	-0.522376	-0.311371
O17	O	1.024686	-0.522330	-0.402318
C18	C	0.877820	-0.356783	-0.356850
C19	C	0.795506	-0.356788	-0.356851
C20	C	1.070167	-0.549224	-0.356853
C21	C	1.070208	-0.631538	-0.356863
C22	C	1.070302	-0.930629	-0.356930
C23	C	1.127363	-0.899302	-0.299555
C24	C	1.127560	-0.813684	-0.299704
C25	C	1.070256	-0.782246	-0.356896
C26	C	1.091412	-0.813249	-0.434959
C27	C	1.091854	-0.898894	-0.434646
C28	C	0.991933	-0.899133	-0.336918
C29	C	0.992321	-0.813484	-0.335175
C30	C	1.070228	-0.698387	-0.356881
C31	C	1.070332	-1.014488	-0.356950
C32	C	0.496415	-0.356835	-0.356914
C33	C	0.527727	-0.299336	-0.299975
C34	C	0.613345	-0.299490	-0.299732
C35	C	0.644798	-0.356811	-0.356883
C36	C	0.613694	-0.434824	-0.335555
C37	C	0.528049	-0.434505	-0.335159
C38	C	0.528026	-0.336998	-0.435314
C39	C	0.613677	-0.335261	-0.434886
C40	C	0.728657	-0.356802	-0.356867
C41	C	0.412556	-0.356848	-0.356928
C42	C	1.263392	-0.356844	-0.356928
C43	C	1.345707	-0.356857	-0.356945
C44	C	1.070275	-0.356746	-0.550051
C45	C	1.070293	-0.356717	-0.632365
C46	C	1.070314	-0.163652	-0.356941
C47	C	1.070350	-0.081337	-0.356964
C48	C	1.070333	-0.356671	-0.931456
C49	C	1.127780	-0.299648	-0.900158
C50	C	1.127600	-0.299437	-0.814540
C51	C	1.070314	-0.356694	-0.783074
C52	C	0.992293	-0.335484	-0.814141
C53	C	0.992637	-0.335057	-0.899787
C54	C	1.090221	-0.435050	-0.899867
C55	C	1.091933	-0.434650	-0.814217
C56	C	1.070299	-0.356708	-0.699214
C57	C	1.070344	-0.356655	-1.015316
C58	C	1.070229	-0.356827	-0.164479
C59	C	1.070354	-0.356648	-0.082165
H60	H	1.114324	-0.792726	-0.241822
H61	H	1.048383	-0.477538	-0.920111
C62	C	1.038159	-0.926889	-0.494372
H63	H	1.016177	-0.885917	-0.518723
H64	H	1.000732	-0.956095	-0.471960
H65	H	1.064454	-0.955914	-0.529295
C66	C	1.205978	-0.785927	-0.317599
H67	H	1.206368	-0.733444	-0.317745
H68	H	1.220473	-0.803629	-0.364821
H69	H	1.239472	-0.803575	-0.281261
C70	C	0.969851	-0.257665	-0.926802
H71	H	0.969851	-0.256724	-0.979278
H72	H	1.003897	-0.222076	-0.908702
H73	H	0.921731	-0.246455	-0.909099
H74	H	0.972687	-0.920797	-0.280981
C75	C	0.498625	-0.316848	-0.221951
H76	H	0.467476	-0.359050	-0.223924
H77	H	0.471369	-0.275836	-0.203841
H78	H	0.539082	-0.326481	-0.189953
H79	H	0.976368	-0.793229	-0.277727
C80	C	0.931795	-0.784587	-0.387491
H81	H	0.953360	-0.752957	-0.423428
H82	H	0.896064	-0.757886	-0.359854
H83	H	0.908629	-0.825097	-0.411481
H84	H	0.634010	-0.277852	-0.450968
H85	H	1.114287	-0.919949	-0.241500
C86	C	0.500671	-0.393569	-0.492628
H87	H	0.470133	-0.429105	-0.468934
H88	H	0.541859	-0.417655	-0.514466
H89	H	0.473127	-0.368844	-0.529834
C90	C	1.205359	-0.928297	-0.317240
H91	H	1.203300	-0.959409	-0.359438
H92	H	1.223577	-0.955570	-0.276267
H93	H	1.237316	-0.887794	-0.326940
H94	H	0.506444	-0.281101	-0.454705
H95	H	1.185454	-0.312720	-0.793536
C96	C	1.036993	-0.785733	-0.494266
H97	H	1.000802	-0.755017	-0.471893
H98	H	1.013483	-0.826851	-0.516840
H99	H	1.063123	-0.758341	-0.530649
C100	C	1.165760	-0.461114	-0.929054
H101	H	1.176707	-0.508510	-0.909329
H102	H	1.202890	-0.427051	-0.914404
H103	H	1.164280	-0.463868	-0.981440
C104	C	0.934523	-0.926393	-0.393441
H105	H	0.958155	-0.956835	-0.429056
H106	H	0.912682	-0.885142	-0.417432
H107	H	0.897328	-0.954006	-0.368728
C108	C	0.932897	-0.389855	-0.786601
H109	H	0.955207	-0.426057	-0.755834
H110	H	0.910304	-0.413354	-0.827706
H111	H	0.896542	-0.363693	-0.759257
H112	H	1.148055	-0.791744	-0.452196
C113	C	0.641759	-0.221338	-0.317776
H114	H	0.600959	-0.189208	-0.325318
H115	H	0.671041	-0.222938	-0.361307
H116	H	0.670796	-0.203645	-0.277818
H117	H	1.149349	-0.450643	-0.793911
H118	H	0.507146	-0.241309	-0.313197
C119	C	1.039511	-0.495132	-0.785301
H120	H	1.053868	-0.541600	-0.804996
H121	H	0.990378	-0.484254	-0.800163
H122	H	1.041949	-0.496861	-0.732904
C123	C	0.640985	-0.317198	-0.221253
H124	H	0.599870	-0.324334	-0.189398
H125	H	0.670117	-0.277294	-0.203580
H126	H	0.670011	-0.360900	-0.222362
C127	C	0.501014	-0.457221	-0.257732
H128	H	0.542374	-0.466553	-0.226815
H129	H	0.471781	-0.500652	-0.261409
H130	H	0.472219	-0.418458	-0.237198
H131	H	1.149138	-0.918816	-0.451597
H132	H	0.507335	-0.478797	-0.374821
C133	C	1.206190	-0.317358	-0.928005
H134	H	1.204598	-0.359683	-0.958972
H135	H	1.237572	-0.326841	-0.887036
H136	H	1.224771	-0.276474	-0.955206
H137	H	0.635090	-0.374088	-0.479583
C138	C	0.641219	-0.494254	-0.389816
H139	H	0.672001	-0.471964	-0.426045
H140	H	0.600109	-0.516878	-0.413293
H141	H	0.668544	-0.530581	-0.363584
C142	C	0.642616	-0.457943	-0.258961
H143	H	0.673637	-0.420162	-0.239879
H144	H	0.669969	-0.502509	-0.263294
H145	H	0.602077	-0.465402	-0.226450
H146	H	1.114781	-0.241908	-0.921697
H147	H	1.114435	-0.241372	-0.794069
H148	H	0.948379	-0.374782	-0.920488
C149	C	0.969108	-0.258940	-0.785196
H150	H	1.006865	-0.239806	-0.754187
H151	H	0.924537	-0.263357	-0.757825
H152	H	0.961635	-0.226426	-0.825726
