data_functionalizedCrystal
_audit_creation_method	'MofGen! by Chris Wilmer'
_symmetry_space_group_name_H-M	'P1'
_symmetry_Int_Tables_number	1
_symmetry_cell_setting	triclinic
loop_
_symmetry_equiv_pos_as_xyz
  x,y,z
_cell_length_a	14.908308
_cell_length_b	14.908571
_cell_length_c	14.908520
_cell_angle_alpha	89.794039
_cell_angle_beta	96.360765
_cell_angle_gamma	89.824947
loop_
_atom_site_label
_atom_site_type_symbol
_atom_site_fract_x
_atom_site_fract_y
_atom_site_fract_z
Zn1	Zn	-0.613065	-1.316651	-0.470613
Zn2	Zn	-0.113065	-0.816651	0.029387
Zn3	Zn	-0.470429	-1.316549	-0.613252
Zn4	Zn	0.029571	-0.816549	-0.113252
Zn5	Zn	-0.453125	-1.176020	-0.453291
Zn6	Zn	0.046875	-0.676020	0.046709
Zn7	Zn	-0.612023	-1.157642	-0.612180
Zn8	Zn	-0.112023	-0.657642	-0.112180
O9	O	-0.537161	-1.241715	-0.537334
O10	O	-0.037161	-0.741715	-0.037334
O11	O	-0.601822	-1.441995	-0.497231
O12	O	-0.101822	-0.941995	0.002769
O13	O	-0.341941	-1.305556	-0.585232
O14	O	0.158059	-0.805556	-0.085232
O15	O	-0.467536	-1.202409	-0.329399
O16	O	0.032464	-0.702409	0.170601
O17	O	-0.497029	-1.441920	-0.602028
O18	O	0.002971	-0.941920	-0.102028
O19	O	-0.585043	-1.305730	-0.342124
O20	O	-0.085043	-0.805730	0.157876
O21	O	-0.329228	-1.202310	-0.467710
O22	O	0.170772	-0.702310	0.032290
O23	O	-0.466525	-1.048225	-0.466671
O24	O	0.033475	-0.548225	0.033329
O25	O	-0.738354	-1.171086	-0.600202
O26	O	-0.238354	-0.671086	-0.100202
O27	O	-0.583267	-1.034722	-0.583406
O28	O	-0.083267	-0.534722	-0.083406
O29	O	-0.739120	-1.287909	-0.496192
O30	O	-0.239120	-0.787909	0.003808
O31	O	-0.496018	-1.287736	-0.739300
O32	O	0.003982	-0.787736	-0.239300
O33	O	-0.600046	-1.170987	-0.738513
O34	O	-0.100046	-0.670987	-0.238513
C35	C	-0.522906	-1.008970	-0.523043
C36	C	-0.022906	-0.508970	-0.023043
C37	C	-0.516830	-0.909397	-0.516953
C38	C	-0.016830	-0.409397	-0.016953
C39	C	-0.549818	-1.227379	-0.771629
C40	C	-0.049818	-0.727379	-0.271629
C41	C	-0.555268	-1.221326	-0.871868
C42	C	-0.055268	-0.721326	-0.371868
C43	C	-0.772372	-1.227459	-0.550010
C44	C	-0.272372	-0.727459	-0.050010
C45	C	-0.872606	-1.221383	-0.555411
C46	C	-0.372606	-0.721383	-0.055411
C47	C	-1.061752	-1.331614	-0.457236
C48	C	-0.561752	-0.831614	0.042764
C49	C	-1.155930	-1.325908	-0.462308
C50	C	-0.655930	-0.825908	0.037692
C51	C	-1.155141	-1.204264	-0.570623
C52	C	-0.655141	-0.704264	-0.070623
C53	C	-1.060963	-1.209969	-0.565551
C54	C	-0.560963	-0.709969	-0.065551
C55	C	-1.014272	-1.273647	-0.508856
C56	C	-0.514272	-0.773647	-0.008856
C57	C	-0.920093	-1.279356	-0.503789
C58	C	-0.420093	-0.779356	-0.003789
C59	C	-0.919305	-1.157708	-0.612099
C60	C	-0.419305	-0.657708	-0.112099
C61	C	-1.013483	-1.152002	-0.617171
C62	C	-0.513483	-0.652002	-0.117171
C63	C	-0.302864	-1.255972	-0.524646
C64	C	0.197136	-0.755972	-0.024646
C65	C	-0.202628	-1.262236	-0.519001
C66	C	0.297372	-0.762236	-0.019001
C67	C	-0.551472	-1.475370	-0.551681
C68	C	-0.051472	-0.975370	-0.051681
C69	C	-0.557571	-1.574939	-0.557795
C70	C	-0.057571	-1.074939	-0.057795
C71	C	-0.626831	-0.708277	-0.627234
C72	C	-0.126831	-0.208277	-0.127234
C73	C	-0.621125	-0.614720	-0.621514
C74	C	-0.121125	-0.114720	-0.121514
C75	C	-0.499719	-0.628723	-0.499789
C76	C	0.000281	-0.128723	0.000211
C77	C	-0.505424	-0.722281	-0.505509
C78	C	-0.005424	-0.222281	-0.005509
C79	C	-0.568981	-0.762054	-0.569235
C80	C	-0.068981	-0.262054	-0.069235
C81	C	-0.574682	-0.855613	-0.574958
C82	C	-0.074682	-0.355613	-0.074958
C83	C	-0.453280	-0.869615	-0.453230
C84	C	0.046720	-0.369615	0.046770
C85	C	-0.447575	-0.776058	-0.447510
C86	C	0.052425	-0.276058	0.052490
C87	C	-0.457284	-1.331634	-1.060998
C88	C	0.042716	-0.831634	-0.560998
C89	C	-0.462402	-1.325950	-1.155181
C90	C	0.037598	-0.825950	-0.655181
C91	C	-0.570626	-1.204279	-1.154420
C92	C	-0.070626	-0.704279	-0.654420
C93	C	-0.565508	-1.209963	-1.060237
C94	C	-0.065508	-0.709963	-0.560237
C95	C	-0.508834	-1.273642	-1.013529
C96	C	-0.008834	-0.773642	-0.513529
C97	C	-0.503712	-1.279321	-0.919343
C98	C	-0.003712	-0.779321	-0.419343
C99	C	-0.611940	-1.157655	-0.918584
C100	C	-0.111940	-0.657655	-0.418584
C101	C	-0.617058	-1.151970	-1.012768
C102	C	-0.117058	-0.651970	-0.512768
C103	C	-0.524476	-1.256131	-0.302127
C104	C	-0.024476	-0.756131	0.197873
C105	C	-0.519070	-1.262274	-0.201896
C106	C	-0.019070	-0.762274	0.298104
H107	H	-0.882079	-1.331207	-0.457627
H108	H	-0.382079	-0.831207	0.042373
Cl109	Cl	-0.432463	-1.359370	-0.860625
Cl110	Cl	0.067537	-0.859370	-0.360625
Cl111	Cl	-0.688303	-1.071924	-1.071495
Cl112	Cl	-0.188303	-0.571924	-0.571495
H113	H	-1.194585	-1.373109	-0.420271
H114	H	-0.694585	-0.873109	0.079729
H115	H	-1.193173	-1.152420	-0.616780
H116	H	-0.693173	-0.652420	-0.116780
Cl117	Cl	-0.706720	-0.758282	-0.707352
Cl118	Cl	-0.206720	-0.258282	-0.207352
Cl119	Cl	-1.003053	-1.411672	-0.385975
Cl120	Cl	-0.503053	-0.911672	0.114025
Cl121	Cl	-0.367682	-0.726048	-0.367399
Cl122	Cl	0.132318	-0.226048	0.132601
Cl123	Cl	-0.654579	-0.905613	-0.655071
Cl124	Cl	-0.154579	-0.405613	-0.155071
Cl125	Cl	-0.676737	-1.084734	-0.858902
Cl126	Cl	-0.176737	-0.584734	-0.358902
H127	H	-1.051511	-1.100156	-0.663328
H128	H	-0.551511	-0.600156	-0.163328
H129	H	-0.880636	-1.110509	-0.654134
H130	H	-0.380636	-0.610509	-0.154134
Cl131	Cl	-0.380544	-0.937226	-0.380319
Cl132	Cl	0.119456	-0.437226	0.119681
H133	H	-0.420427	-1.373175	-1.193828
H134	H	0.079573	-0.873175	-0.693828
Cl135	Cl	-0.693855	-0.547117	-0.694429
Cl136	Cl	-0.193855	-0.047117	-0.194429
Cl137	Cl	-0.419838	-0.578707	-0.419672
Cl138	Cl	0.080162	-0.078707	0.080328
H139	H	-0.616773	-1.152440	-1.192467
H140	H	-0.116773	-0.652440	-0.692467
H141	H	-0.411132	-1.383478	-1.022967
H142	H	0.088868	-0.883478	-0.522967
