data_functionalizedCrystal
_audit_creation_method	'MofGen! by Chris Wilmer'
_symmetry_space_group_name_H-M	'P1'
_symmetry_Int_Tables_number	1
_symmetry_cell_setting	triclinic
loop_
_symmetry_equiv_pos_as_xyz
  x,y,z
_cell_length_a	19.077105
_cell_length_b	18.101395
_cell_length_c	19.077271
_cell_angle_alpha	87.673669
_cell_angle_beta	89.892926
_cell_angle_gamma	87.727498
loop_
_atom_site_label
_atom_site_type_symbol
_atom_site_fract_x
_atom_site_fract_y
_atom_site_fract_z
Zn1	Zn	1.058238	-0.321027	-0.440430
Zn2	Zn	1.062863	-0.450036	-0.322922
Zn3	Zn	0.945455	-0.321441	-0.318220
Zn4	Zn	0.940687	-0.440055	-0.435676
O5	O	1.001811	-0.383140	-0.379312
O6	O	1.157183	-0.342145	-0.428799
O7	O	1.051220	-0.437328	-0.223965
O8	O	0.960476	-0.217755	-0.334454
O9	O	1.160581	-0.436927	-0.342466
O10	O	1.043338	-0.217451	-0.424240
O11	O	0.964961	-0.342850	-0.220511
O12	O	0.846491	-0.333171	-0.329845
O13	O	0.952349	-0.419915	-0.534640
O14	O	0.842988	-0.420316	-0.416139
O15	O	1.038714	-0.332466	-0.538132
O16	O	1.046596	-0.552344	-0.337857
O17	O	0.956834	-0.545010	-0.420697
C18	C	0.819243	-0.375706	-0.371966
C19	C	0.741140	-0.372543	-0.368840
C20	C	1.001718	-0.575547	-0.379288
C21	C	1.001741	-0.657862	-0.379303
C22	C	0.702643	-0.416503	-0.412230
C23	C	0.629256	-0.413521	-0.409296
C24	C	0.594367	-0.366582	-0.362969
C25	C	0.632868	-0.322617	-0.319577
C26	C	0.706254	-0.325596	-0.322515
C27	C	0.375081	-0.352797	-0.349376
C28	C	0.301690	-0.349823	-0.346440
C29	C	0.298084	-0.440727	-0.436160
C30	C	0.371471	-0.443704	-0.439091
C31	C	0.409966	-0.399736	-0.395702
N32	N	0.519354	-0.363535	-0.359967
N33	N	0.484977	-0.402780	-0.398707
C34	C	1.001894	-0.956957	-0.379347
C35	C	0.945538	-0.921048	-0.431608
C36	C	0.945288	-0.835427	-0.431427
C37	C	1.001818	-0.808573	-0.379326
C38	C	0.984747	-0.842164	-0.304464
C39	C	0.984384	-0.927781	-0.304776
C40	C	1.075466	-0.927488	-0.401301
C41	C	1.074963	-0.841748	-0.402908
C42	C	1.001777	-0.724712	-0.379309
C43	C	1.001934	-1.040818	-0.379359
C44	C	1.185091	-0.390603	-0.386687
C45	C	1.263194	-0.393784	-0.389829
C46	C	0.994484	-0.375031	-0.562596
C47	C	0.991361	-0.371575	-0.640700
C48	C	1.001923	-0.189981	-0.379353
C49	C	1.001971	-0.107668	-0.379370
C50	C	0.968967	-0.346850	-1.080154
C51	C	0.971904	-0.350094	-1.006767
C52	C	1.018280	-0.400910	-0.971870
C53	C	1.061725	-0.448480	-1.010365
C54	C	1.058791	-0.445231	-1.083752
C55	C	1.031873	-0.415897	-0.752582
C56	C	1.034803	-0.419143	-0.679190
C57	C	0.944982	-0.320756	-0.675597
C58	C	0.942049	-0.317515	-0.748984
C59	C	0.985498	-0.365082	-0.787473
N60	N	1.021281	-0.404229	-0.896857
N61	N	0.982499	-0.361759	-0.862486
C62	C	1.009150	-0.391165	-0.196743
C63	C	1.012408	-0.394418	-0.118644
H64	H	0.597916	-0.449319	-0.444628
H65	H	1.067250	-0.454631	-0.783911
C66	C	0.959233	-0.804375	-0.506287
C67	C	0.904408	-0.751736	-0.543373
C68	C	0.918344	-0.720679	-0.618234
C69	C	0.987105	-0.742260	-0.656010
C70	C	1.041935	-0.794902	-0.618924
C71	C	1.027999	-0.825959	-0.544062
H72	H	0.853502	-0.735757	-0.515409
H73	H	0.877755	-0.681710	-0.645687
H74	H	0.997422	-0.719270	-0.711427
H75	H	1.092841	-0.810881	-0.646888
H76	H	1.068588	-0.864928	-0.516609
C77	C	0.891036	-0.261613	-0.787364
C78	C	0.833828	-0.289217	-0.835586
C79	C	0.782812	-0.233315	-0.873964
C80	C	0.789004	-0.149809	-0.864120
C81	C	0.846214	-0.122200	-0.815895
C82	C	0.897231	-0.178102	-0.777518
H83	H	0.829242	-0.351037	-0.842875
H84	H	0.740460	-0.253754	-0.909663
H85	H	0.751238	-0.108427	-0.892529
H86	H	0.850800	-0.060380	-0.808606
H87	H	0.939582	-0.157664	-0.741819
H88	H	1.024633	-0.825179	-0.264334
H89	H	0.931642	-0.819313	-0.285948
H90	H	0.399873	-0.481929	-0.476814
H91	H	1.099488	-0.489852	-0.981947
H92	H	1.091610	-0.947446	-0.455117
H93	H	1.087891	-0.819604	-0.458017
H94	H	0.930692	-0.946322	-0.286525
H95	H	1.118933	-0.823679	-0.367855
H96	H	1.117416	-0.951121	-0.363274
H97	H	0.931202	-0.305472	-1.108561
H98	H	0.891274	-0.940954	-0.417002
C99	C	0.897196	-0.268431	-0.633258
C100	C	0.900419	-0.271997	-0.552536
C101	C	0.852632	-0.219667	-0.510198
C102	C	0.801621	-0.163771	-0.548583
C103	C	0.798396	-0.160202	-0.629309
C104	C	0.846183	-0.212532	-0.671647
H105	H	0.938182	-0.313377	-0.524118
H106	H	0.855020	-0.222309	-0.450439
H107	H	0.766246	-0.125033	-0.517242
H108	H	0.760633	-0.118822	-0.657728
H109	H	0.843795	-0.209890	-0.731407
H110	H	1.094167	-0.483965	-1.115089
C111	C	0.255738	-0.489082	-0.483892
C112	C	0.175017	-0.485808	-0.480668
C113	C	0.132672	-0.534164	-0.528404
C114	C	0.171048	-0.585793	-0.579365
C115	C	0.251774	-0.589069	-0.582591
C116	C	0.294119	-0.540714	-0.534854
H117	H	0.146604	-0.447588	-0.442942
H118	H	0.072913	-0.531738	-0.526016
H119	H	0.139702	-0.621588	-0.614703
H120	H	0.280187	-0.627290	-0.620317
H121	H	0.353878	-0.543139	-0.537243
C122	C	0.741019	-0.468137	-0.463192
C123	C	0.731121	-0.552165	-0.456915
C124	C	0.769494	-0.603799	-0.507880
C125	C	0.817765	-0.571405	-0.565121
C126	C	0.827664	-0.487373	-0.571400
C127	C	0.789291	-0.435739	-0.520435
H128	H	0.695387	-0.576149	-0.414539
H129	H	0.762166	-0.666005	-0.503231
H130	H	0.846171	-0.609627	-0.602848
H131	H	0.863399	-0.463389	-0.613776
H132	H	0.796620	-0.373533	-0.525084
C133	C	0.263310	-0.298170	-0.295492
C134	C	0.305650	-0.249795	-0.247776
C135	C	0.267268	-0.198141	-0.196835
C136	C	0.186547	-0.194861	-0.193611
C137	C	0.144202	-0.243238	-0.241329
C138	C	0.182584	-0.294893	-0.292269
H139	H	0.365409	-0.252221	-0.250161
H140	H	0.298615	-0.162329	-0.161511
H141	H	0.158135	-0.156623	-0.155902
H142	H	0.084443	-0.240812	-0.238944
H143	H	0.151237	-0.330705	-0.327593
H144	H	0.406415	-0.317001	-0.314040
H145	H	0.604455	-0.284395	-0.281860
H146	H	0.737596	-0.289794	-0.287186
H147	H	0.955742	-0.939679	-0.487197
H148	H	0.890694	-0.813317	-0.416650
H149	H	1.023812	-0.951876	-0.264349
H150	H	0.936529	-0.311361	-0.975431
H151	H	1.072583	-0.460511	-0.650780
