data_functionalizedCrystal
_audit_creation_method	'MofGen! by Chris Wilmer'
_symmetry_space_group_name_H-M	'P1'
_symmetry_Int_Tables_number	1
_symmetry_cell_setting	triclinic
loop_
_symmetry_equiv_pos_as_xyz
  x,y,z
_cell_length_a	27.440280
_cell_length_b	27.440280
_cell_length_c	17.052862
_cell_angle_alpha	70.263562
_cell_angle_beta	90.004253
_cell_angle_gamma	60.004534
loop_
_atom_site_label
_atom_site_type_symbol
_atom_site_fract_x
_atom_site_fract_y
_atom_site_fract_z
Zr1	Zr	0.478112	0.516248	-0.091153
O2	O	0.410712	0.597105	-0.202188
O3	O	0.498765	0.420964	-0.057116
O4	O	0.512372	0.495435	-0.202171
O5	O	0.386382	0.544083	0.057291
O6	O	0.592573	0.495428	-0.202157
O7	O	0.397105	0.522634	-0.057133
O8	O	0.568234	0.362213	0.057320
O9	O	0.410722	0.677298	-0.202186
O10	O	0.567438	0.465494	-0.042588
O11	O	0.499582	0.481506	0.042794
O12	O	0.515602	0.569186	-0.127989
O13	O	0.447746	0.585198	-0.042607
Zr14	Zr	0.588923	0.550445	0.091362
Zr15	Zr	0.606024	0.516237	-0.091130
Zr16	Zr	0.461011	0.550456	0.091339
Zr17	Zr	0.478129	0.644146	-0.091151
Zr18	Zr	0.588906	0.422547	0.091360
O19	O	0.568270	0.645730	0.057325
O20	O	0.592586	0.597090	-0.202155
O21	O	0.386395	0.645745	0.057292
O22	O	0.656323	0.469588	0.202396
O23	O	0.680640	0.420949	-0.057084
O24	O	0.474449	0.469603	0.202364
O25	O	0.680653	0.522611	-0.057082
O26	O	0.554663	0.571259	0.202380
O27	O	0.474462	0.571265	0.202366
O28	O	0.669930	0.544059	0.057341
O29	O	0.512395	0.677290	-0.202168
O30	O	0.554640	0.389404	0.202377
O31	O	0.656313	0.389395	0.202395
O32	O	0.669907	0.362205	0.057338
O33	O	0.397128	0.704489	-0.057130
O34	O	0.498801	0.704480	-0.057111
O35	O	0.551433	0.497508	0.128198
O36	O	0.619289	0.481496	0.042816
O37	O	0.567453	0.585188	-0.042586
O38	O	0.499597	0.601200	0.042796
C39	C	0.533497	0.373366	0.000102
C40	C	0.533490	0.319070	0.000101
C41	C	0.568953	-0.026028	-0.044457
C42	C	0.568959	-0.077052	-0.044455
O43	O	0.599098	-0.110561	-0.082332
N44	N	0.533538	-0.094210	0.000112
C45	C	0.498115	-0.060346	0.044687
O46	O	0.467988	-0.079626	0.082595
C47	C	0.498113	-0.009326	0.044689
C48	C	0.533531	0.007833	0.000112
C49	C	0.604369	-0.008869	-0.089029
C50	C	0.604363	0.042152	-0.089033
C51	C	0.568941	0.076013	-0.044464
C52	C	0.533525	0.058854	0.000109
C53	C	0.462693	0.024535	0.089268
C54	C	0.462694	0.075558	0.089267
C55	C	0.498113	0.092717	0.044690
C56	C	0.498097	0.143736	0.044674
N57	N	0.533517	0.160894	0.000107
C58	C	0.568939	0.127033	-0.044462
C59	C	0.498122	-0.167492	0.044680
C60	C	0.498120	-0.218508	0.044674
C61	C	0.568965	-0.235212	-0.044467
C62	C	0.568963	-0.184192	-0.044465
C63	C	0.533542	-0.150334	0.000113
C64	C	0.568923	0.234181	-0.044466
C65	C	0.568912	0.285208	-0.044468
C66	C	0.498070	0.301905	0.044675
C67	C	0.498078	0.250884	0.044674
C68	C	0.533510	0.217021	0.000102
O69	O	0.467975	0.177273	0.082536
O70	O	0.599067	0.146316	-0.082354
C71	C	0.373519	0.533360	0.000076
C72	C	0.319217	0.533365	0.000066
C73	C	0.009571	0.479214	0.044707
C74	C	-0.041448	0.479211	0.044714
O75	O	-0.044827	0.433184	0.082653
N76	N	-0.094022	0.533337	0.000134
C77	C	-0.095577	0.587469	-0.044448
O78	O	-0.144981	0.633507	-0.082366
C79	C	-0.044559	0.587472	-0.044451
C80	C	0.008015	0.533342	0.000125
C81	C	0.062143	0.425088	0.089279
C82	C	0.113159	0.425090	0.089270
C83	C	0.111603	0.479218	0.044688
C84	C	0.059031	0.533344	0.000116
C85	C	-0.046115	0.641605	-0.089028
C86	C	0.004909	0.641603	-0.089026
C87	C	0.057483	0.587473	-0.044450
C88	C	0.108490	0.587474	-0.044475
N89	N	0.161064	0.533349	0.000105
C90	C	0.162621	0.479221	0.044686
C91	C	-0.202717	0.587460	-0.044440
C92	C	-0.253734	0.587457	-0.044443
C93	C	-0.199601	0.479199	0.044721
C94	C	-0.148583	0.479201	0.044719
C95	C	-0.150142	0.533334	0.000140
C96	C	0.269755	0.479230	0.044664
C97	C	0.320773	0.479237	0.044648
C98	C	0.266636	0.587495	-0.044512
C99	C	0.215622	0.587488	-0.044501
C100	C	0.217186	0.533351	0.000094
O101	O	0.111913	0.633479	-0.082391
O102	O	0.212026	0.433193	0.082606
C103	C	0.693516	0.533333	0.000133
C104	C	0.747818	0.533329	0.000143
C105	C	0.554909	0.490558	-0.228165
C106	C	0.562169	0.476035	-0.305638
C107	C	0.533538	0.693328	0.000107
C108	C	0.533545	0.747624	0.000108
C109	C	0.474395	0.651609	-0.702340
C110	C	0.467570	0.665256	-0.629552
C111	C	0.491219	0.617952	-0.548571
C112	C	0.521694	0.556999	-0.540383
C113	C	0.528516	0.543352	-0.613178
C114	C	0.545341	0.509694	-0.459408
C115	C	0.575816	0.448742	-0.451221
C116	C	0.582636	0.435097	-0.524010
C117	C	0.558987	0.482400	-0.604991
C118	C	0.538519	0.523342	-0.386614
C119	C	0.592640	0.415084	-0.297451
C120	C	0.599465	0.401438	-0.370239
C121	C	0.512126	0.576136	0.228374
C122	C	0.504866	0.590658	0.305847
C123	C	0.693496	0.373352	0.000130
C124	C	0.747791	0.319052	0.000139
C125	C	0.512105	0.416155	0.228371
C126	C	0.504838	0.376381	0.305843
C127	C	0.672104	0.416141	0.228400
C128	C	0.719139	0.376363	0.305881
C129	C	0.394931	0.650552	-0.228191
C130	C	0.347896	0.690330	-0.305673
C131	C	0.373539	0.693341	0.000078
C132	C	0.319244	0.747642	0.000070
C133	C	0.554930	0.650539	-0.228163
C134	C	0.562197	0.690313	-0.305634
C135	C	0.746223	0.285197	-0.044444
C136	C	0.797236	0.234180	-0.044453
C137	C	0.849815	0.217016	0.000127
C138	C	0.851381	0.250875	0.044712
C139	C	0.800370	0.301894	0.044715
C140	C	0.528491	0.366057	0.386812
C141	C	0.521659	0.328694	0.459612
C142	C	0.491179	0.301651	0.451441
C143	C	0.467524	0.311979	0.370464
C144	C	0.474352	0.349345	0.297665
C145	C	0.776652	0.349325	0.297699
C146	C	0.820852	0.311954	0.370494
C147	C	0.807537	0.301620	0.451471
C148	C	0.750018	0.328663	0.459652
C149	C	0.705819	0.366036	0.386857
C150	C	0.290383	0.717375	-0.297490
C151	C	0.246183	0.754761	-0.370285
C152	C	0.259498	0.765098	-0.451262
C153	C	0.317017	0.738052	-0.459443
C154	C	0.361216	0.700670	-0.386649
C155	C	0.320813	0.781500	0.044645
C156	C	0.269802	0.832528	0.044634
C157	C	0.217223	0.849694	0.000051
C158	C	0.215656	0.815832	-0.044530
C159	C	0.266667	0.764808	-0.044523
C160	C	0.592680	0.717344	-0.297436
C161	C	0.599520	0.754710	-0.370222
C162	C	0.575871	0.765048	-0.451206
C163	C	0.545386	0.738012	-0.459402
C164	C	0.538551	0.700643	-0.386617
H165	H	0.597776	0.206614	-0.080760
H166	H	0.564543	0.471293	-0.664265
N167	N	0.615511	0.369357	-0.515183
H168	H	0.629463	0.341460	-0.452839
H169	H	0.649566	0.361348	-0.543442
N170	N	0.607120	0.303710	-0.092544
H171	H	0.601743	0.341172	-0.085788
H172	H	0.596561	0.313149	-0.154881
N173	N	0.855213	0.261296	0.529979
H174	H	0.838056	0.258846	0.582524
H175	H	0.879757	0.279078	0.529937
N176	N	0.547179	0.317552	0.546947
H177	H	0.530164	0.357757	0.553757
H178	H	0.590242	0.297637	0.553710
H179	H	0.199352	0.776777	-0.363608
N180	N	0.423250	0.671493	-0.395472
H181	H	0.431051	0.704385	-0.427628
H182	H	0.430987	0.644300	-0.427611
H183	H	0.624278	0.351810	-0.363584
H184	H	0.469272	-0.232468	0.080962
H185	H	0.787504	0.357732	0.231770
H186	H	0.223503	0.795538	-0.510529
H187	H	0.469231	0.236919	0.080961
H188	H	0.633217	-0.036437	-0.125322
H189	H	0.867684	0.289938	0.363818
H190	H	0.739185	0.320243	0.525593
H191	H	0.658990	0.388046	0.393532
H192	H	0.172840	0.829817	-0.080828
N193	N	0.795539	0.197667	-0.092544
H194	H	0.754488	0.216282	-0.120775
H195	H	0.811507	0.154123	-0.051619
N196	N	0.689518	0.303701	-0.092528
H197	H	0.690583	0.313184	-0.154886
H198	H	0.657466	0.341143	-0.085697
H199	H	0.513726	0.678638	-0.393304
H200	H	0.265379	0.631564	-0.080813
N201	N	0.561361	0.395227	0.395634
H202	H	0.595448	0.381056	0.367432
H203	H	0.575263	0.383006	0.457994
H204	H	0.327852	0.746474	-0.525383
H205	H	0.597809	-0.262792	-0.080756
H206	H	0.363581	0.435156	0.080949
N207	N	0.904833	0.161983	0.000130
H208	H	0.931773	0.174976	-0.025235
H209	H	0.895808	0.143165	-0.034864
N210	N	0.618153	0.364056	-0.210116
H211	H	0.586483	0.367307	-0.177929
H212	H	0.646584	0.367331	-0.177995
N213	N	0.483818	0.261349	0.529963
H214	H	0.503431	0.258913	0.582494
H215	H	0.501586	0.219041	0.529929
N216	N	0.264968	0.728285	-0.092589
H217	H	0.305258	0.693354	-0.085824
H218	H	0.248250	0.755564	-0.154928
H219	H	0.279530	0.708961	-0.231561
H220	H	0.633206	0.056117	-0.125328
H221	H	0.801653	0.329454	0.081025
N222	N	0.607164	-0.165686	-0.092543
H223	H	0.629600	-0.194882	-0.120778
H224	H	0.634737	-0.166893	-0.051612
H225	H	0.363619	0.767530	0.080955
H226	H	0.894198	0.236892	0.081007
H227	H	0.271088	0.860091	0.080941
H228	H	0.442707	0.289956	0.363823
N229	N	0.448804	0.360514	0.210336
H230	H	0.428449	0.337722	0.216214
H231	H	0.480476	0.345620	0.178150
H232	H	0.175691	0.891242	0.000053
H233	H	0.611939	0.708934	-0.231502
H234	H	0.624341	0.776720	-0.363532
N235	N	0.519882	0.749165	-0.546751
H236	H	0.528838	0.776943	-0.591609
H237	H	0.476823	0.769040	-0.553507
N238	N	0.459913	-0.130973	0.092760
H239	H	0.437477	-0.149588	0.120989
H240	H	0.432339	-0.087430	0.051830
N241	N	0.424499	0.006030	0.137361
H242	H	0.402068	0.035225	0.165600
H243	H	0.448993	-0.036783	0.182178
H244	H	0.469228	0.329486	0.080959
N245	N	0.424492	0.112074	0.137353
H246	H	0.402058	0.093458	0.165589
H247	H	0.396916	0.155616	0.096423
N248	N	0.271445	0.420842	0.092761
H249	H	0.312494	0.386558	0.120991
H250	H	0.255471	0.410444	0.051836
H251	H	0.155963	0.381011	0.125564
N252	N	0.583252	0.805347	-0.529706
H253	H	0.606154	0.820900	-0.512216
H254	H	0.544211	0.841091	-0.564725
N255	N	0.434709	0.730992	-0.638379
H256	H	0.394019	0.752285	-0.670544
H257	H	0.454163	0.752224	-0.670509
N258	N	0.063829	0.366703	0.137369
H259	H	0.104879	0.332420	0.165600
H260	H	0.047859	0.356305	0.096441
H261	H	-0.198341	0.435124	0.081019
N262	N	-0.091880	0.420819	0.092794
H263	H	-0.098642	0.386531	0.121031
H264	H	-0.073547	0.426493	0.137610
N265	N	-0.310435	0.645837	-0.092532
H266	H	-0.303673	0.680124	-0.120773
H267	H	-0.336796	0.656233	-0.051602
N268	N	-0.204399	0.645845	-0.092537
H269	H	-0.229128	0.677547	-0.069163
H270	H	-0.221079	0.661413	-0.154883
N271	N	-0.102814	0.699989	-0.137097
H272	H	-0.101754	0.715624	-0.199457
H273	H	-0.109738	0.731638	-0.113638
N274	N	0.003226	0.699990	-0.137107
H275	H	-0.037822	0.734277	-0.165342
H276	H	0.027226	0.694316	-0.181926
H277	H	0.513705	0.572970	-0.393289
N278	N	0.158913	0.645864	-0.092582
H279	H	0.159969	0.661493	-0.154944
H280	H	0.151979	0.677522	-0.069137
N281	N	0.483864	0.632667	-0.470061
H282	H	0.460972	0.678457	-0.487535
H283	H	0.522915	0.614665	-0.435061
H284	H	0.455139	0.690118	-0.768277
