data_functionalizedCrystal
_audit_creation_method	'MofGen! by Chris Wilmer'
_symmetry_space_group_name_H-M	'P1'
_symmetry_Int_Tables_number	1
_symmetry_cell_setting	triclinic
loop_
_symmetry_equiv_pos_as_xyz
  x,y,z
_cell_length_a	17.699083
_cell_length_b	17.699083
_cell_length_c	8.140239
_cell_angle_alpha	89.995596
_cell_angle_beta	90.003310
_cell_angle_gamma	83.283015
loop_
_atom_site_label
_atom_site_type_symbol
_atom_site_fract_x
_atom_site_fract_y
_atom_site_fract_z
O1	O	1.004074	0.095710	-0.136386
O2	O	1.337407	0.429043	0.196947
O3	O	1.670741	0.762377	0.530280
O4	O	0.783696	0.108163	-0.136441
O5	O	1.117029	0.441496	0.196893
O6	O	1.450362	0.774829	0.530226
O7	O	0.900111	-0.008253	-0.136397
O8	O	1.233444	0.325080	0.196936
O9	O	1.566778	0.658414	0.530269
O10	O	0.887659	0.212125	-0.136430
O11	O	1.220992	0.545459	0.196904
O12	O	1.554325	0.878792	0.530237
O13	O	0.900105	-0.008254	0.136830
O14	O	1.233438	0.325079	0.470163
O15	O	1.566771	0.658412	0.803496
O16	O	0.783689	0.108161	0.136786
O17	O	1.117023	0.441495	0.470120
O18	O	1.450356	0.774828	0.803453
O19	O	1.004068	0.095709	0.136841
O20	O	1.337401	0.429042	0.470174
O21	O	1.670734	0.762375	0.803507
Zn22	Zn	0.893877	0.101935	0.180194
Zn23	Zn	1.227211	0.435268	0.513528
Zn24	Zn	1.560544	0.768601	0.846861
Zn25	Zn	0.893886	0.101936	-0.179794
Zn26	Zn	1.227219	0.435270	0.153539
Zn27	Zn	1.560552	0.768603	0.486872
O28	O	0.887652	0.212124	0.136798
O29	O	1.220986	0.545458	0.470131
O30	O	1.554319	0.878791	0.803464
C31	C	0.755495	0.107716	0.000166
C32	C	1.088829	0.441049	0.333499
C33	C	1.422162	0.774382	0.666833
C34	C	0.671477	0.106377	0.000146
C35	C	1.004811	0.439710	0.333479
C36	C	1.338144	0.773044	0.666813
C37	C	0.622856	0.174710	0.000136
C38	C	0.956190	0.508044	0.333470
C39	C	1.289523	0.841377	0.666803
C40	C	0.543913	0.173448	0.000158
C41	C	0.877246	0.506782	0.333491
C42	C	1.210580	0.840115	0.666825
C43	C	0.513592	0.103852	0.000177
C44	C	0.846926	0.437185	0.333510
C45	C	1.180259	0.770518	0.666844
C46	C	0.562219	0.035513	0.000191
C47	C	0.895553	0.368846	0.333525
C48	C	1.228886	0.702180	0.666858
C49	C	0.641161	0.036776	0.000182
C50	C	0.974495	0.370110	0.333515
C51	C	1.307828	0.703443	0.666848
C52	C	0.243856	0.030418	0.000233
C53	C	0.577190	0.363751	0.333566
C54	C	0.910523	0.697085	0.666899
C55	C	0.164908	0.029160	0.000237
C56	C	0.498242	0.362493	0.333571
C57	C	0.831575	0.695827	0.666904
C58	C	0.146608	0.167090	0.000209
C59	C	0.479942	0.500423	0.333542
C60	C	0.813275	0.833757	0.666876
C61	C	0.225550	0.168353	0.000199
C62	C	0.558883	0.501686	0.333533
C63	C	0.892217	0.835020	0.666866
C64	C	0.274170	0.100015	0.000222
C65	C	0.607504	0.433348	0.333556
C66	C	0.940837	0.766681	0.666889
C67	C	0.359769	0.101384	0.000202
C68	C	0.693103	0.434718	0.333535
C69	C	1.026436	0.768051	0.666869
C70	C	0.427995	0.102481	0.000185
C71	C	0.761328	0.435815	0.333519
C72	C	1.094661	0.769148	0.666852
C73	C	0.899662	-0.036451	0.000216
C74	C	1.232995	0.296883	0.333549
C75	C	1.566328	0.630216	0.666883
C76	C	0.898323	-0.120469	0.000216
C77	C	1.231656	0.212865	0.333550
C78	C	1.564990	0.546198	0.666883
C79	C	0.966656	-0.169090	0.000236
C80	C	1.299990	0.164244	0.333569
C81	C	1.633323	0.497577	0.666902
C82	C	0.965394	-0.248033	0.000221
C83	C	1.298727	0.085300	0.333554
C84	C	1.632061	0.418634	0.666887
C85	C	0.895798	-0.278354	0.000199
C86	C	1.229131	0.054980	0.333532
C87	C	1.562464	0.388313	0.666865
C88	C	0.827459	-0.229727	0.000174
C89	C	1.160792	0.103607	0.333508
C90	C	1.494126	0.436940	0.666841
C91	C	0.828722	-0.150785	0.000178
C92	C	1.162055	0.182549	0.333511
C93	C	1.495389	0.515882	0.666844
C94	C	0.822364	-0.548090	0.000160
C95	C	1.155697	-0.214756	0.333493
C96	C	1.489030	0.118577	0.666827
C97	C	0.821106	-0.627038	0.000162
C98	C	1.154439	-0.293704	0.333495
C99	C	1.487773	0.039629	0.666828
C100	C	0.959036	-0.645338	0.000203
C101	C	1.292369	-0.312004	0.333536
C102	C	1.625703	0.021329	0.666870
C103	C	0.960299	-0.566396	0.000206
C104	C	1.293632	-0.233063	0.333540
C105	C	1.626966	0.100271	0.666873
C106	C	0.891961	-0.517776	0.000173
C107	C	1.225294	-0.184442	0.333507
C108	C	1.558627	0.148891	0.666840
C109	C	0.893330	-0.432177	0.000186
C110	C	1.226664	-0.098843	0.333520
C111	C	1.559997	0.234490	0.666853
C112	C	0.894427	-0.363951	0.000197
C113	C	1.227761	-0.030618	0.333531
C114	C	1.561094	0.302715	0.666864
C115	C	1.032268	0.096156	0.000230
C116	C	1.365601	0.429489	0.333564
C117	C	1.698934	0.762822	0.666897
C118	C	1.116286	0.097494	0.000240
C119	C	1.449619	0.430828	0.333573
C120	C	1.782953	0.764161	0.666906
N121	N	0.893877	0.101933	0.425877
N122	N	1.227210	0.435266	0.759210
N123	N	1.560544	0.768600	1.092544
C124	C	0.888102	0.240322	0.000180
C125	C	1.221435	0.573655	0.333514
C126	C	1.554768	0.906989	0.666847
C127	C	0.889440	0.324340	0.000169
C128	C	1.222773	0.657673	0.333502
C129	C	1.556107	0.991007	0.666836
N130	N	0.893892	0.101932	-0.425477
N131	N	1.227225	0.435265	-0.092143
N132	N	1.560559	0.768599	0.241190
H133	H	0.107012	0.222734	0.000199
H134	H	0.440345	0.556067	0.333532
H135	H	0.773678	0.889401	0.666866
N136	N	0.755013	-0.098350	0.000185
N137	N	1.088347	0.234983	0.333518
N138	N	1.421680	0.568316	0.666852
H139	H	0.752462	-0.065196	0.101474
H140	H	1.085796	0.268138	0.434808
H141	H	1.419129	0.601471	0.768141
H142	H	0.752500	-0.065232	-0.101163
H143	H	1.085833	0.268102	0.232170
H144	H	1.419166	0.601435	0.565503
H145	H	0.504328	0.229092	0.000148
H146	H	0.837662	0.562426	0.333482
H147	H	1.170995	0.895759	0.666815
N148	N	0.655557	0.249776	0.000096
N149	N	0.988890	0.583109	0.333430
N150	N	1.322223	0.916443	0.666763
H151	H	0.612774	0.292873	0.000095
H152	H	0.946107	0.626206	0.333428
H153	H	1.279440	0.959539	0.666762
H154	H	0.687918	0.253307	0.101377
H155	H	1.021252	0.586640	0.434711
H156	H	1.354585	0.919974	0.768044
N157	N	1.032747	-0.697778	0.000238
N158	N	1.366080	-0.364445	0.333572
N159	N	1.699414	-0.031112	0.666905
H160	H	1.021391	-0.752389	0.000229
H161	H	1.354724	-0.419056	0.333562
H162	H	1.688057	-0.085723	0.666895
H163	H	1.063091	-0.687971	-0.101035
H164	H	1.396424	-0.354638	0.232299
H165	H	1.729758	-0.021304	0.565632
H166	H	0.283434	-0.025228	0.000253
H167	H	0.616767	0.308106	0.333586
H168	H	0.950101	0.641439	0.666919
H169	H	0.764429	-0.651721	0.000147
H170	H	1.097762	-0.318388	0.333480
H171	H	1.431096	0.014946	0.666814
H172	H	1.023330	-0.144409	0.000264
H173	H	1.356663	0.188924	0.333597
H174	H	1.689997	0.522258	0.666930
N175	N	0.529512	-0.039549	0.000231
N176	N	0.862846	0.293784	0.333564
N177	N	1.196179	0.627118	0.666898
H178	H	0.497163	-0.043149	-0.101050
H179	H	0.830496	0.290184	0.232284
H180	H	1.163829	0.623518	0.565617
H181	H	0.572333	-0.082606	0.000305
H182	H	0.905666	0.250728	0.333639
H183	H	1.238999	0.584061	0.666972
H184	H	0.766718	-0.508512	0.000134
H185	H	1.100052	-0.175179	0.333467
H186	H	1.433385	0.158155	0.666800
H187	H	0.770792	-0.254420	0.000146
H188	H	1.104126	0.078913	0.333479
H189	H	1.437459	0.412247	0.666813
H190	H	0.680748	-0.018868	0.000188
H191	H	1.014082	0.314465	0.333522
H192	H	1.347415	0.647799	0.666855
N193	N	1.039096	-0.300475	0.000251
N194	N	1.372430	0.032858	0.333584
N195	N	1.705763	0.366192	0.666918
H196	H	1.083376	-0.269288	0.000280
H197	H	1.416710	0.064045	0.333614
H198	H	1.750043	0.397379	0.666947
H199	H	1.041567	-0.333630	0.101541
H200	H	1.374901	-0.000297	0.434874
H201	H	1.708234	0.333037	0.768207
N202	N	0.258253	0.243417	0.000156
N203	N	0.591587	0.576750	0.333490
N204	N	0.924920	0.910084	0.666823
H205	H	0.215472	0.286516	0.000153
H206	H	0.548806	0.619849	0.333486
H207	H	0.882139	0.953182	0.666820
H208	H	0.290615	0.246947	0.101437
H209	H	0.623949	0.580280	0.434770
H210	H	0.957282	0.913614	0.768104
H211	H	0.140225	-0.027517	0.000255
H212	H	0.473558	0.305816	0.333589
H213	H	0.806892	0.639150	0.666922
H214	H	1.016971	-0.541714	0.000232
H215	H	1.350305	-0.208380	0.333566
H216	H	1.683638	0.124953	0.666899
