data_functionalizedCrystal
_audit_creation_method	'MofGen! by Chris Wilmer'
_symmetry_space_group_name_H-M	'P1'
_symmetry_Int_Tables_number	1
_symmetry_cell_setting	triclinic
loop_
_symmetry_equiv_pos_as_xyz
  x,y,z
_cell_length_a	16.120444
_cell_length_b	16.120566
_cell_length_c	16.120297
_cell_angle_alpha	89.874982
_cell_angle_beta	95.615117
_cell_angle_gamma	89.830856
loop_
_atom_site_label
_atom_site_type_symbol
_atom_site_fract_x
_atom_site_fract_y
_atom_site_fract_z
Zn1	Zn	-0.422256	-1.224976	-0.554884
Zn2	Zn	-0.554941	-1.224869	-0.422191
Zn3	Zn	-0.408173	-1.093716	-0.408120
Zn4	Zn	-0.554175	-1.078867	-0.554115
O5	O	-0.484886	-1.155607	-0.484827
O6	O	-0.446072	-1.340998	-0.543493
O7	O	-0.529899	-1.213641	-0.303692
O8	O	-0.293410	-1.117387	-0.422021
O9	O	-0.543555	-1.340919	-0.446003
O10	O	-0.303757	-1.213824	-0.529849
O11	O	-0.422069	-1.117284	-0.293354
O12	O	-0.421326	-0.975711	-0.421276
O13	O	-0.542249	-1.092079	-0.670850
O14	O	-0.528593	-0.964801	-0.528538
O15	O	-0.445329	-1.199425	-0.671415
O16	O	-0.671470	-1.199243	-0.445258
O17	O	-0.670907	-1.091975	-0.542182
C18	C	-0.473348	-0.940169	-0.473297
C19	C	-0.468433	-0.848002	-0.468385
C20	C	-0.459441	-0.679251	-0.459423
C21	C	-0.510404	-0.632799	-0.510242
C22	C	-0.505400	-0.538901	-0.505255
C23	C	-0.464443	-0.773159	-0.464409
C24	C	-0.701432	-1.144008	-0.495183
C25	C	-0.794077	-1.139120	-0.499645
C26	C	-1.005235	-1.181158	-0.461871
C27	C	-0.963695	-1.130210	-0.507801
C28	C	-0.869311	-1.135169	-0.503262
C29	C	-1.099628	-1.176200	-0.466409
C30	C	-0.267497	-1.167274	-0.474451
C31	C	-0.174859	-1.172245	-0.470029
C32	C	-0.495274	-1.144108	-0.702219
C33	C	-0.499701	-1.139207	-0.794859
C34	C	-0.496472	-0.371887	-0.496390
C35	C	-0.501414	-0.464054	-0.501283
C36	C	-0.507763	-1.130231	-0.964470
C37	C	-0.461769	-1.181161	-1.006034
C38	C	-0.466255	-1.176166	-1.100411
C39	C	-0.503278	-1.135224	-0.870084
C40	C	-0.474481	-1.167113	-0.268281
C41	C	-0.469828	-1.172187	-0.175639
H42	H	-0.412057	-0.648502	-0.412174
H43	H	-0.419023	-1.228513	-0.970739
N44	N	-1.010475	-1.067498	-0.564405
H45	H	-1.072246	-1.072798	-0.559665
H46	H	-0.991582	-1.009756	-0.547498
H47	H	-0.969916	-1.228495	-0.419141
N48	N	-0.564369	-1.067496	-1.011211
H49	H	-0.559582	-1.072775	-1.072982
H50	H	-0.623883	-1.077985	-0.999599
N51	N	-0.573189	-0.673520	-0.572826
H52	H	-0.562408	-0.656055	-0.631005
H53	H	-0.567886	-0.735789	-0.567489
