data_functionalizedCrystal
_audit_creation_method	'MofGen! by Chris Wilmer'
_symmetry_space_group_name_H-M	'P1'
_symmetry_Int_Tables_number	1
_symmetry_cell_setting	triclinic
loop_
_symmetry_equiv_pos_as_xyz
  x,y,z
_cell_length_a	17.699083
_cell_length_b	16.109301
_cell_length_c	14.586319
_cell_angle_alpha	90.000787
_cell_angle_beta	89.995320
_cell_angle_gamma	96.627752
loop_
_atom_site_label
_atom_site_type_symbol
_atom_site_fract_x
_atom_site_fract_y
_atom_site_fract_z
O1	O	0.097285	-1.102963	-0.076184
O2	O	0.430618	-0.769630	0.257149
O3	O	0.763951	-0.436297	0.590482
O4	O	0.109391	-0.860880	-0.076199
O5	O	0.442725	-0.527547	0.257134
O6	O	0.776058	-0.194214	0.590468
O7	O	-0.006841	-0.988761	-0.076183
O8	O	0.326492	-0.655428	0.257150
O9	O	0.659825	-0.322095	0.590484
O10	O	0.213517	-0.975082	-0.076200
O11	O	0.546851	-0.641749	0.257133
O12	O	0.880184	-0.308416	0.590467
O13	O	-0.006843	-0.988752	0.076298
O14	O	0.326490	-0.655419	0.409631
O15	O	0.659824	-0.322086	0.742964
O16	O	0.109390	-0.860872	0.076282
O17	O	0.442723	-0.527538	0.409615
O18	O	0.776056	-0.194205	0.742948
O19	O	0.097283	-1.102954	0.076297
O20	O	0.430616	-0.769621	0.409630
O21	O	0.763950	-0.436288	0.742963
Cu22	Cu	0.103336	-0.981912	0.090212
Cu23	Cu	0.436669	-0.648579	0.423545
Cu24	Cu	0.770003	-0.315245	0.756879
Cu25	Cu	0.103338	-0.981923	-0.090114
Cu26	Cu	0.436672	-0.648589	0.243219
Cu27	Cu	0.770005	-0.315256	0.576552
O28	O	0.213516	-0.975074	0.076281
O29	O	0.546849	-0.641740	0.409614
O30	O	0.880182	-0.308407	0.742947
C31	C	0.108900	-0.829902	0.000040
C32	C	0.442234	-0.496569	0.333373
C33	C	0.775567	-0.163235	0.666706
C34	C	0.107430	-0.737609	0.000034
C35	C	0.440763	-0.404276	0.333368
C36	C	0.774097	-0.070943	0.666701
C37	C	-0.035040	-0.988267	0.000057
C38	C	0.298293	-0.654933	0.333391
C39	C	0.631627	-0.321600	0.666724
C40	C	-0.119060	-0.986796	0.000058
C41	C	0.214273	-0.653463	0.333391
C42	C	0.547607	-0.320130	0.666724
C43	C	0.097774	-1.133933	0.000056
C44	C	0.431107	-0.800600	0.333389
C45	C	0.764441	-0.467266	0.666723
C46	C	0.099244	-1.226226	0.000055
C47	C	0.432578	-0.892892	0.333389
C48	C	0.765911	-0.559559	0.666722
C49	C	-0.167574	-1.061860	0.000064
C50	C	0.165759	-0.728526	0.333397
C51	C	0.499093	-0.395193	0.666730
C52	C	-0.246519	-1.060473	0.000055
C53	C	0.086814	-0.727140	0.333389
C54	C	0.420147	-0.393806	0.666722
C55	C	-0.276949	-0.984022	0.000048
C56	C	0.056384	-0.650689	0.333381
C57	C	0.389717	-0.317356	0.666715
C58	C	-0.228429	-0.908953	0.000039
C59	C	0.104904	-0.575620	0.333373
C60	C	0.438238	-0.242286	0.666706
C61	C	-0.149485	-0.910341	0.000041
C62	C	0.183848	-0.577007	0.333374
C63	C	0.517181	-0.243674	0.666708
C64	C	-0.546800	-0.903356	0.000031
C65	C	-0.213467	-0.570023	0.333365
C66	C	0.119866	-0.236689	0.666698
C67	C	-0.625750	-0.901974	0.000033
C68	C	-0.292417	-0.568641	0.333366
C69	C	0.040917	-0.235308	0.666699
C70	C	-0.643834	-1.053488	0.000046
C71	C	-0.310501	-0.720155	0.333379
C72	C	0.022833	-0.386822	0.666713
C73	C	-0.564890	-1.054876	0.000048
C74	C	-0.231557	-0.721543	0.333381
C75	C	0.101776	-0.388209	0.666714
C76	C	-0.516377	-0.979807	0.000034
C77	C	-0.183044	-0.646474	0.333367
C78	C	0.150289	-0.313141	0.666701
C79	C	-0.430776	-0.981312	0.000041
C80	C	-0.097443	-0.647978	0.333375
C81	C	0.235891	-0.314645	0.666708
C82	C	-0.362549	-0.982517	0.000047
C83	C	-0.029216	-0.649184	0.333381
C84	C	0.304118	-0.315850	0.666714
C85	C	0.241714	-0.975568	0.000038
C86	C	0.575048	-0.642235	0.333372
C87	C	0.908381	-0.308901	0.666705
C88	C	0.325734	-0.977039	0.000032
C89	C	0.659068	-0.643705	0.333365
C90	C	0.992401	-0.310372	0.666699
N91	N	0.103334	-0.981911	0.217044
N92	N	0.436668	-0.648578	0.550377
N93	N	0.770001	-0.315244	0.883710
C94	C	0.172981	-0.515224	0.000040
C95	C	0.506315	-0.181891	0.333373
C96	C	0.839648	0.151443	0.666706
C97	C	0.171594	-0.428506	0.000046
C98	C	0.504927	-0.095173	0.333379
C99	C	0.838261	0.238161	0.666712
C100	C	0.033688	-0.448618	0.000053
C101	C	0.367021	-0.115284	0.333386
C102	C	0.700354	0.218049	0.666719
C103	C	0.035076	-0.535334	0.000053
C104	C	0.368409	-0.202001	0.333386
C105	C	0.701743	0.131333	0.666720
C106	C	0.104725	-0.568635	0.000042
C107	C	0.438058	-0.235301	0.333375
C108	C	0.771392	0.098032	0.666709
C109	C	0.101949	-0.395200	0.000047
C110	C	0.435283	-0.061867	0.333381
C111	C	0.768616	0.271466	0.666714
C112	C	0.100445	-0.301177	0.000054
C113	C	0.433778	0.032157	0.333387
C114	C	0.767111	0.365490	0.666721
C115	C	0.106230	-0.662664	0.000037
C116	C	0.439564	-0.329331	0.333371
C117	C	0.772897	0.004003	0.666704
N118	N	0.103334	-0.981931	-0.216946
N119	N	0.436667	-0.648597	0.116387
N120	N	0.770001	-0.315264	0.449721
C121	C	0.051884	-1.038555	0.452057
C122	C	0.385217	-0.705222	0.785390
C123	C	0.718550	-0.371888	1.118724
C124	C	0.051882	-1.038558	0.548038
C125	C	0.385215	-0.705224	0.881372
C126	C	0.718548	-0.371891	1.214705
C127	C	0.154787	-0.925280	0.548034
C128	C	0.488121	-0.591947	0.881367
C129	C	0.821454	-0.258614	1.214700
C130	C	0.154785	-0.925274	0.452054
C131	C	0.488118	-0.591941	0.785388
C132	C	0.821451	-0.258608	1.118721
C133	C	0.103334	-0.981917	0.404068
C134	C	0.436667	-0.648583	0.737402
C135	C	0.770001	-0.315250	1.070735
C136	C	0.103334	-0.981925	0.596029
C137	C	0.436668	-0.648591	0.929363
C138	C	0.770001	-0.315258	1.262696
C139	C	0.103333	-0.981927	0.700096
C140	C	0.436666	-0.648594	1.033430
C141	C	0.770000	-0.315260	1.366763
C142	C	0.103334	-0.981914	0.299995
C143	C	0.436668	-0.648580	0.633328
C144	C	0.770001	-0.315247	0.966661
H145	H	-0.142805	-1.124115	0.000075
H146	H	0.190529	-0.790781	0.333409
H147	H	0.523862	-0.457448	0.666742
H148	H	-0.286017	-1.121597	0.000062
H149	H	0.047317	-0.788264	0.333395
H150	H	0.380650	-0.454931	0.666729
H151	H	0.227175	-0.385022	0.000046
H152	H	0.560509	-0.051688	0.333379
H153	H	0.893842	0.281645	0.666712
H154	H	-0.023018	-0.421494	0.000067
H155	H	0.310315	-0.088160	0.333400
H156	H	0.643648	0.245173	0.666734
H157	H	-0.540119	-1.117130	0.000058
H158	H	-0.206786	-0.783797	0.333392
H159	H	0.126548	-0.450463	0.666725
N160	N	0.248103	-0.551134	0.000039
N161	N	0.581437	-0.217801	0.333372
N162	N	0.914770	0.115532	0.666705
H163	H	0.251751	-0.586665	0.056563
H164	H	0.585084	-0.253332	0.389896
H165	H	0.918417	0.080002	0.723229
H166	H	0.251714	-0.586622	-0.056524
H167	H	0.585048	-0.253289	0.276809
H168	H	0.918381	0.080044	0.610142
H169	H	-0.507310	-0.842230	0.000021
H170	H	-0.173976	-0.508897	0.333354
H171	H	0.159357	-0.175564	0.666687
H172	H	-0.020510	-0.578824	0.000058
H173	H	0.312823	-0.245490	0.333391
H174	H	0.646156	0.087843	0.666724
H175	H	0.009988	-1.084675	0.412989
H176	H	0.343321	-0.751342	0.746323
H177	H	0.676655	-0.418009	1.079656
H178	H	0.009985	-1.084677	0.587108
H179	H	0.343319	-0.751343	0.920442
H180	H	0.676652	-0.418010	1.253775
H181	H	0.196679	-0.879165	0.587113
H182	H	0.530012	-0.545831	0.920447
H183	H	0.863345	-0.212498	1.253780
H184	H	-0.683343	-1.114613	0.000052
H185	H	-0.350010	-0.781280	0.333386
H186	H	-0.016677	-0.447946	0.666719
N187	N	0.210274	-0.864176	0.400287
N188	N	0.543607	-0.530843	0.733620
N189	N	0.876941	-0.197510	1.066953
H190	H	0.242871	-0.828297	0.445248
H191	H	0.576204	-0.494964	0.778581
H192	H	0.909538	-0.161631	1.111914
H193	H	0.243742	-0.895930	0.360452
H194	H	0.577075	-0.562596	0.693785
H195	H	0.910408	-0.229263	1.027119
H196	H	-0.650523	-0.839715	0.000028
H197	H	-0.317189	-0.506382	0.333362
H198	H	0.016144	-0.173049	0.666695
H199	H	-0.109986	-0.849216	0.000036
H200	H	0.223348	-0.515883	0.333369
H201	H	0.556681	-0.182549	0.666703
N202	N	-0.261245	-0.826493	0.000025
N203	N	0.072088	-0.493160	0.333358
N204	N	0.405421	-0.159827	0.666692
H205	H	-0.318618	-0.837003	0.000028
H206	H	0.014716	-0.503670	0.333362
H207	H	0.348049	-0.170336	0.666695
H208	H	-0.243499	-0.793650	0.056549
H209	H	0.089834	-0.460317	0.389882
H210	H	0.423168	-0.126983	0.723216
