data_functionalizedCrystal
_audit_creation_method	'MofGen! by Chris Wilmer'
_symmetry_space_group_name_H-M	'P1'
_symmetry_Int_Tables_number	1
_symmetry_cell_setting	triclinic
loop_
_symmetry_equiv_pos_as_xyz
  x,y,z
_cell_length_a	19.121063
_cell_length_b	18.050590
_cell_length_c	18.050583
_cell_angle_alpha	89.997484
_cell_angle_beta	92.401387
_cell_angle_gamma	87.544963
loop_
_atom_site_label
_atom_site_type_symbol
_atom_site_fract_x
_atom_site_fract_y
_atom_site_fract_z
Zn1	Zn	-0.279806	-1.122681	-0.432152
Zn2	Zn	-0.029806	-0.872681	-0.182152
Zn3	Zn	0.220194	-0.622681	0.067848
Zn4	Zn	0.470194	-0.372681	0.317848
Zn5	Zn	-0.397277	-1.117292	-0.313255
Zn6	Zn	-0.147277	-0.867292	-0.063255
Zn7	Zn	0.102723	-0.617292	0.186745
Zn8	Zn	0.352723	-0.367292	0.436745
Zn9	Zn	-0.279818	-0.998498	-0.308017
Zn10	Zn	-0.029818	-0.748498	-0.058017
Zn11	Zn	0.220182	-0.498498	0.191983
Zn12	Zn	0.470182	-0.248498	0.441983
Zn13	Zn	-0.397192	-0.993154	-0.437440
Zn14	Zn	-0.147192	-0.743154	-0.187440
Zn15	Zn	0.102808	-0.493154	0.062560
Zn16	Zn	0.352808	-0.243154	0.312560
O17	O	-0.338523	-1.057906	-0.372716
O18	O	-0.088523	-0.807906	-0.122716
O19	O	0.161477	-0.557906	0.127284
O20	O	0.411477	-0.307906	0.377284
O21	O	-0.295419	-1.225889	-0.416359
O22	O	-0.045419	-0.975889	-0.166359
O23	O	0.204581	-0.725889	0.083641
O24	O	0.454581	-0.475889	0.333641
O25	O	-0.381736	-1.101514	-0.208637
O26	O	-0.131736	-0.851514	0.041363
O27	O	0.118264	-0.601514	0.291363
O28	O	0.368264	-0.351514	0.541363
O29	O	-0.181534	-1.019462	-0.320079
O30	O	0.068466	-0.769462	-0.070079
O31	O	0.318466	-0.519462	0.179921
O32	O	0.568466	-0.269462	0.429921
O33	O	-0.381724	-1.221930	-0.329006
O34	O	-0.131724	-0.971930	-0.079006
O35	O	0.118276	-0.721930	0.170994
O36	O	0.368276	-0.471930	0.420994
O37	O	-0.181525	-1.110700	-0.411280
O38	O	0.068475	-0.860700	-0.161280
O39	O	0.318475	-0.610700	0.088720
O40	O	0.568475	-0.360700	0.338720
O41	O	-0.295440	-1.014236	-0.204789
O42	O	-0.045440	-0.764236	0.045211
O43	O	0.204560	-0.514236	0.295211
O44	O	0.454560	-0.264236	0.545211
O45	O	-0.295358	-0.893866	-0.325206
O46	O	-0.045358	-0.643866	-0.075206
O47	O	0.204642	-0.393866	0.174794
O48	O	0.454642	-0.143866	0.424794
O49	O	-0.381581	-1.010356	-0.540661
O50	O	-0.131581	-0.760356	-0.290661
O51	O	0.118419	-0.510356	-0.040661
O52	O	0.368419	-0.260356	0.209339
O53	O	-0.381592	-0.889940	-0.420292
O54	O	-0.131592	-0.639940	-0.170292
O55	O	0.118408	-0.389940	0.079708
O56	O	0.368408	-0.139940	0.329708
O57	O	-0.295338	-1.105519	-0.536776
O58	O	-0.045338	-0.855519	-0.286776
O59	O	0.204662	-0.605519	-0.036776
O60	O	0.454662	-0.355519	0.213224
O61	O	-0.495548	-1.096333	-0.334133
O62	O	-0.245548	-0.846333	-0.084133
O63	O	0.004452	-0.596333	0.165867
O64	O	0.254452	-0.346333	0.415867
O65	O	-0.495487	-1.005130	-0.425371
O66	O	-0.245487	-0.755130	-0.175371
O67	O	0.004513	-0.505130	0.074629
O68	O	0.254513	-0.255130	0.324629
C69	C	-0.338468	-0.864957	-0.372755
C70	C	-0.088468	-0.614957	-0.122755
C71	C	0.161532	-0.364957	0.127245
C72	C	0.411532	-0.114957	0.377245
C73	C	-0.338461	-0.782411	-0.372790
C74	C	-0.088461	-0.532411	-0.122790
C75	C	0.161539	-0.282411	0.127210
C76	C	0.411539	-0.032411	0.377210
C77	C	-0.385482	-0.580841	-0.424396
C78	C	-0.135482	-0.330841	-0.174396
C79	C	0.114518	-0.080841	0.075604
C80	C	0.364518	0.169159	0.325604
C81	C	-0.321437	-0.534337	-0.439788
C82	C	-0.071437	-0.284337	-0.189788
C83	C	0.178563	-0.034337	0.060212
C84	C	0.428563	0.215663	0.310212
C85	C	-0.338495	-0.631279	-0.372763
C86	C	-0.088495	-0.381279	-0.122763
C87	C	0.161505	-0.131279	0.127237
C88	C	0.411505	0.118721	0.377237
C89	C	-0.402571	-0.530700	-0.357379
C90	C	-0.152571	-0.280700	-0.107379
C91	C	0.097429	-0.030700	0.142621
C92	C	0.347429	0.219300	0.392621
C93	C	-0.338533	-0.485292	-0.372738
C94	C	-0.088533	-0.235292	-0.122738
C95	C	0.161467	0.014708	0.127262
C96	C	0.411467	0.264708	0.377262
C97	C	-0.274415	-0.585864	-0.388189
C98	C	-0.024415	-0.335864	-0.138189
C99	C	0.225585	-0.085864	0.111811
C100	C	0.475585	0.164136	0.361811
C101	C	-0.355593	-0.582229	-0.305750
C102	C	-0.105593	-0.332229	-0.055750
C103	C	0.144407	-0.082229	0.194250
C104	C	0.394407	0.167771	0.444250
C105	C	-0.291503	-0.535749	-0.321114
C106	C	-0.041503	-0.285749	-0.071114
C107	C	0.208497	-0.035749	0.178886
C108	C	0.458497	0.214251	0.428886
C109	C	-0.338474	-0.715378	-0.372779
C110	C	-0.088474	-0.465378	-0.122779
C111	C	0.161526	-0.215378	0.127221
C112	C	0.411526	0.034622	0.377221
C113	C	-0.338546	-0.401195	-0.372722
C114	C	-0.088546	-0.151195	-0.122722
C115	C	0.161454	0.098805	0.127278
C116	C	0.411454	0.348805	0.377278
C117	C	-0.521001	-1.049587	-0.380911
C118	C	-0.271001	-0.799587	-0.130911
C119	C	-0.021001	-0.549587	0.119089
C120	C	0.228999	-0.299587	0.369089
C121	C	-0.599066	-1.046096	-0.384441
C122	C	-0.349066	-0.796096	-0.134441
C123	C	-0.099066	-0.546096	0.115559
C124	C	0.150934	-0.296096	0.365559
C125	C	-0.635750	-1.091977	-0.338636
C126	C	-0.385750	-0.841977	-0.088636
C127	C	-0.135750	-0.591977	0.161364
C128	C	0.114250	-0.341977	0.411364
C129	C	-0.709100	-1.088698	-0.341961
C130	C	-0.459100	-0.838698	-0.091961
C131	C	-0.209100	-0.588698	0.158039
C132	C	0.040900	-0.338698	0.408039
C133	C	-0.745765	-1.039533	-0.391088
C134	C	-0.495765	-0.789533	-0.141088
C135	C	-0.245765	-0.539533	0.108912
C136	C	0.004235	-0.289533	0.358912
C137	C	-0.709076	-0.993650	-0.436897
C138	C	-0.459076	-0.743650	-0.186897
C139	C	-0.209076	-0.493650	0.063103
C140	C	0.040924	-0.243650	0.313103
C141	C	-0.635727	-0.996933	-0.433576
C142	C	-0.385727	-0.746933	-0.183576
C143	C	-0.135727	-0.496933	0.066424
C144	C	0.114273	-0.246933	0.316424
C145	C	-0.967231	-1.027246	-0.403495
C146	C	-0.717231	-0.777246	-0.153495
C147	C	-0.467231	-0.527246	0.096505
C148	C	-0.217231	-0.277246	0.346505
C149	C	-1.040585	-1.023965	-0.406811
C150	C	-0.790585	-0.773965	-0.156811
C151	C	-0.540585	-0.523965	0.093189
C152	C	-0.290585	-0.273965	0.343189
C153	C	-1.040603	-1.119014	-0.311876
C154	C	-0.790603	-0.869014	-0.061876
C155	C	-0.540603	-0.619014	0.188124
C156	C	-0.290603	-0.369014	0.438124
C157	C	-0.967253	-1.122290	-0.308555
C158	C	-0.717253	-0.872290	-0.058555
C159	C	-0.467253	-0.622290	0.191445
C160	C	-0.217253	-0.372290	0.441445
C161	C	-0.930571	-1.076409	-0.354368
C162	C	-0.680571	-0.826409	-0.104368
C163	C	-0.430571	-0.576409	0.145632
C164	C	-0.180571	-0.326409	0.395632
C165	C	-0.820741	-1.036179	-0.394486
C166	C	-0.570741	-0.786179	-0.144486
C167	C	-0.320741	-0.536179	0.105514
C168	C	-0.070741	-0.286179	0.355514
C169	C	-0.855596	-1.079768	-0.350973
C170	C	-0.605596	-0.829768	-0.100973
C171	C	-0.355596	-0.579768	0.149027
C172	C	-0.105596	-0.329768	0.399027
C173	C	-0.155333	-1.066278	-0.364505
C174	C	0.094667	-0.816278	-0.114505
C175	C	0.344667	-0.566278	0.135495
C176	C	0.594667	-0.316278	0.385495
C177	C	-0.077268	-1.069846	-0.361007
C178	C	0.172732	-0.819846	-0.111007
C179	C	0.422732	-0.569846	0.138993
C180	C	0.672732	-0.319846	0.388993
C181	C	-0.338449	-1.057942	-0.566418
C182	C	-0.088449	-0.807942	-0.316418
C183	C	0.161551	-0.557942	-0.066418
C184	C	0.411551	-0.307942	0.183582
C185	C	-0.338417	-1.057958	-0.648963
C186	C	-0.088417	-0.807958	-0.398963
C187	C	0.161583	-0.557958	-0.148963
C188	C	0.411583	-0.307958	0.101037
C189	C	-0.338570	-0.251610	-0.372689
C190	C	-0.088570	-0.001610	-0.122689
C191	C	0.161430	0.248390	0.127311
C192	C	0.411430	0.498390	0.377311
C193	C	-0.338565	-0.334156	-0.372709
C194	C	-0.088565	-0.084156	-0.122709
C195	C	0.161435	0.165844	0.127291
C196	C	0.411435	0.415844	0.377291
C197	C	-0.291495	-1.109758	-0.846300
C198	C	-0.041495	-0.859758	-0.596300
C199	C	0.208505	-0.609758	-0.346300
C200	C	0.458505	-0.359758	-0.096300
C201	C	-0.274291	-1.042800	-0.894941
C202	C	-0.024291	-0.792800	-0.644941
C203	C	0.225709	-0.542800	-0.394941
C204	C	0.475709	-0.292800	-0.144941
C205	C	-0.338405	-1.057988	-0.800093
C206	C	-0.088405	-0.807988	-0.550093
C207	C	0.161595	-0.557988	-0.300093
C208	C	0.411595	-0.307988	-0.050093
C209	C	-0.355564	-1.124975	-0.898531
C210	C	-0.105564	-0.874975	-0.648531
C211	C	0.144436	-0.624975	-0.398531
C212	C	0.394436	-0.374975	-0.148531
C213	C	-0.338392	-1.058023	-0.946077
C214	C	-0.088392	-0.808023	-0.696077
C215	C	0.161608	-0.558023	-0.446077
C216	C	0.411608	-0.308023	-0.196077
C217	C	-0.321167	-0.990996	-0.847645
C218	C	-0.071167	-0.740996	-0.597645
C219	C	0.178833	-0.490996	-0.347645
C220	C	0.428833	-0.240996	-0.097645
C221	C	-0.402471	-1.073215	-0.851232
C222	C	-0.152471	-0.823215	-0.601232
C223	C	0.097529	-0.573215	-0.351232
C224	C	0.347529	-0.323215	-0.101232
C225	C	-0.385291	-1.006210	-0.899852
C226	C	-0.135291	-0.756210	-0.649852
C227	C	0.114709	-0.506210	-0.399852
C228	C	0.364709	-0.256210	-0.149852
C229	C	-0.338410	-1.057969	-0.715994
C230	C	-0.088410	-0.807969	-0.465994
C231	C	0.161590	-0.557969	-0.215994
C232	C	0.411590	-0.307969	0.034006
C233	C	-0.338386	-1.058035	-1.030173
C234	C	-0.088386	-0.808035	-0.780173
C235	C	0.161614	-0.558035	-0.530173
C236	C	0.411614	-0.308035	-0.280173
C237	C	-0.338547	-1.057915	-0.179765
C238	C	-0.088547	-0.807915	0.070235
C239	C	0.161453	-0.557915	0.320235
C240	C	0.411453	-0.307915	0.570235
C241	C	-0.338382	-1.058053	-0.097212
C242	C	-0.088382	-0.808053	0.152788
C243	C	0.161618	-0.558053	0.402788
C244	C	0.411618	-0.308053	0.652788
H245	H	-0.605902	-1.132009	-0.298629
H246	H	-0.355902	-0.882009	-0.048629
H247	H	-0.105902	-0.632009	0.201371
H248	H	0.144098	-0.382009	0.451371
F249	F	-0.203587	-0.617289	-0.405268
F250	F	0.046413	-0.367289	-0.155268
F251	F	0.296413	-0.117289	0.094732
F252	F	0.546413	0.132711	0.344732
H253	H	-0.220106	-1.029932	-0.914236
H254	H	0.029894	-0.779932	-0.664236
H255	H	0.279894	-0.529932	-0.414236
H256	H	0.529894	-0.279932	-0.164236
F257	F	-0.302548	-0.506808	-0.513846
F258	F	-0.052548	-0.256808	-0.263846
F259	F	0.197452	-0.006808	-0.013846
F260	F	0.447452	0.243192	0.236154
H261	H	-0.370062	-0.603306	-0.249107
H262	H	-0.120062	-0.353306	0.000893
H263	H	0.129938	-0.103306	0.250893
H264	H	0.379938	0.146694	0.500893
F265	F	-1.079649	-1.167843	-0.263126
F266	F	-0.829649	-0.917843	-0.013126
F267	F	-0.579649	-0.667843	0.236874
F268	F	-0.329649	-0.417843	0.486874
F269	F	-0.816574	-1.132094	-0.298694
F270	F	-0.566574	-0.882094	-0.048694
F271	F	-0.316574	-0.632094	0.201306
F272	F	-0.066574	-0.382094	0.451306
H273	H	-0.251800	-1.153471	-0.822851
H274	H	-0.001800	-0.903471	-0.572851
H275	H	0.248200	-0.653471	-0.322851
H276	H	0.498200	-0.403471	-0.072851
H277	H	-0.425150	-0.600715	-0.468101
H278	H	-0.175150	-0.350715	-0.218101
H279	H	0.074850	-0.100715	0.031899
H280	H	0.324850	0.149285	0.281899
H281	H	-0.456743	-0.506562	-0.344379
H282	H	-0.206743	-0.256562	-0.094379
H283	H	0.043257	-0.006562	0.155621
H284	H	0.293257	0.243438	0.405621
H285	H	-0.251738	-0.516019	-0.277438
H286	H	-0.001738	-0.266019	-0.027438
H287	H	0.248262	-0.016019	0.222562
H288	H	0.498262	0.233981	0.472562
H289	H	-0.850601	-0.996147	-0.434483
H290	H	-0.600601	-0.746147	-0.184483
H291	H	-0.350601	-0.496147	0.065517
H292	H	-0.100601	-0.246147	0.315517
H293	H	-0.738965	-1.126059	-0.304662
H294	H	-0.488965	-0.876059	-0.054662
H295	H	-0.238965	-0.626059	0.195338
H296	H	0.011035	-0.376059	0.445338
H297	H	-0.937402	-1.162323	-0.268553
H298	H	-0.687402	-0.912323	-0.018553
H299	H	-0.437402	-0.662323	0.231447
H300	H	-0.187402	-0.412323	0.481447
F301	F	-1.079605	-0.971627	-0.459093
F302	F	-0.829605	-0.721627	-0.209093
F303	F	-0.579605	-0.471627	0.040907
F304	F	-0.329605	-0.221627	0.290907
H305	H	-0.937369	-0.989887	-0.440796
H306	H	-0.687369	-0.739887	-0.190796
H307	H	-0.437369	-0.489887	0.059204
H308	H	-0.187369	-0.239887	0.309204
H309	H	-0.738934	-0.953622	-0.476901
H310	H	-0.488934	-0.703622	-0.226901
H311	H	-0.238934	-0.453622	0.023099
H312	H	0.011066	-0.203622	0.273099
F313	F	-0.596686	-0.948102	-0.482330
F314	F	-0.346686	-0.698102	-0.232330
F315	F	-0.096686	-0.448102	0.017670
F316	F	0.153314	-0.198102	0.267670
F317	F	-0.302115	-0.916949	-0.818582
F318	F	-0.052115	-0.666949	-0.568582
F319	F	0.197885	-0.416949	-0.318582
F320	F	0.447885	-0.166949	-0.068582
H321	H	-0.370082	-1.181610	-0.920859
H322	H	-0.120082	-0.931610	-0.670859
H323	H	0.129918	-0.681610	-0.420859
H324	H	0.379918	-0.431610	-0.170859
F325	F	-0.437129	-0.948943	-0.930331
F326	F	-0.187129	-0.698943	-0.680331
F327	F	0.062871	-0.448943	-0.430331
F328	F	0.312871	-0.198943	-0.180331
F329	F	-0.473274	-1.090063	-0.825989
F330	F	-0.223274	-0.840063	-0.575989
F331	F	0.026726	-0.590063	-0.325989
F332	F	0.276726	-0.340063	-0.075989
