data_functionalizedCrystal
_audit_creation_method	'MofGen! by Chris Wilmer'
_symmetry_space_group_name_H-M	'P1'
_symmetry_Int_Tables_number	1
_symmetry_cell_setting	triclinic
loop_
_symmetry_equiv_pos_as_xyz
  x,y,z
_cell_length_a	19.121102
_cell_length_b	19.121725
_cell_length_c	19.076919
_cell_angle_alpha	94.805082
_cell_angle_beta	89.940198
_cell_angle_gamma	85.251956
loop_
_atom_site_label
_atom_site_type_symbol
_atom_site_fract_x
_atom_site_fract_y
_atom_site_fract_z
Zn1	Zn	1.069969	-0.343698	-0.458327
Zn2	Zn	1.319969	-0.093698	-0.208327
Zn3	Zn	1.569969	0.156302	0.041673
Zn4	Zn	1.819969	0.406302	0.291673
Zn5	Zn	1.079223	-0.457030	-0.345873
Zn6	Zn	1.329223	-0.207030	-0.095873
Zn7	Zn	1.579223	0.042970	0.154127
Zn8	Zn	1.829223	0.292970	0.404127
Zn9	Zn	0.957038	-0.333965	-0.335408
Zn10	Zn	1.207038	-0.083965	-0.085408
Zn11	Zn	1.457038	0.166035	0.164592
Zn12	Zn	1.707038	0.416035	0.414592
Zn13	Zn	0.957283	-0.456288	-0.458291
Zn14	Zn	1.207283	-0.206288	-0.208291
Zn15	Zn	1.457283	0.043712	0.041709
Zn16	Zn	1.707283	0.293712	0.291709
O17	O	1.015878	-0.397745	-0.399475
O18	O	1.265878	-0.147745	-0.149475
O19	O	1.515878	0.102255	0.100525
O20	O	1.765878	0.352255	0.350525
O21	O	1.169492	-0.363115	-0.447805
O22	O	1.419492	-0.113115	-0.197805
O23	O	1.669492	0.136885	0.052195
O24	O	1.919492	0.386885	0.302195
O25	O	1.066785	-0.436942	-0.245996
O26	O	1.316785	-0.186942	0.004004
O27	O	1.566785	0.063058	0.254004
O28	O	1.816785	0.313058	0.504004
O29	O	0.968043	-0.236634	-0.347350
O30	O	1.218043	0.013366	-0.097350
O31	O	1.468043	0.263366	0.152650
O32	O	1.718043	0.513366	0.402650
O33	O	1.176290	-0.446379	-0.365186
O34	O	1.426290	-0.196379	-0.115186
O35	O	1.676290	0.053621	0.134814
O36	O	1.926290	0.303621	0.384814
O37	O	1.051014	-0.243785	-0.437658
O38	O	1.301014	0.006215	-0.187658
O39	O	1.551014	0.256215	0.062342
O40	O	1.801014	0.506215	0.312342
O41	O	0.977016	-0.346527	-0.238308
O42	O	1.227016	-0.096527	0.011692
O43	O	1.477016	0.153473	0.261692
O44	O	1.727016	0.403473	0.511692
O45	O	0.858776	-0.345808	-0.347314
O46	O	1.108776	-0.095808	-0.097314
O47	O	1.358776	0.154192	0.152686
O48	O	1.608776	0.404192	0.402686
O49	O	0.968461	-0.445116	-0.556784
O50	O	1.218461	-0.195116	-0.306784
O51	O	1.468461	0.054884	-0.056784
O52	O	1.718461	0.304884	0.193216
O53	O	0.858956	-0.435678	-0.437595
O54	O	1.108956	-0.185678	-0.187595
O55	O	1.358956	0.064322	0.062405
O56	O	1.608956	0.314322	0.312405
O57	O	1.051251	-0.362397	-0.556811
O58	O	1.301251	-0.112397	-0.306811
O59	O	1.551251	0.137603	-0.056811
O60	O	1.801251	0.387603	0.193189
O61	O	1.067023	-0.555553	-0.365150
O62	O	1.317023	-0.305553	-0.115150
O63	O	1.567023	-0.055553	0.134850
O64	O	1.817023	0.194447	0.384850
O65	O	0.977434	-0.555009	-0.447742
O66	O	1.227434	-0.305009	-0.197742
O67	O	1.477434	-0.055009	0.052258
O68	O	1.727434	0.194991	0.302258
C69	C	0.833379	-0.389607	-0.391315
C70	C	1.083379	-0.139607	-0.141315
C71	C	1.333379	0.110393	0.108685
C72	C	1.583379	0.360393	0.358685
C73	C	0.755305	-0.386143	-0.387842
C74	C	1.005305	-0.136143	-0.137842
C75	C	1.255305	0.113857	0.112158
C76	C	1.505305	0.363857	0.362158
C77	C	0.718743	-0.431372	-0.433147
C78	C	0.968743	-0.181372	-0.183147
C79	C	1.218743	0.068628	0.066853
C80	C	1.468743	0.318628	0.316853
C81	C	0.645384	-0.428108	-0.429886
C82	C	0.895384	-0.178108	-0.179886
C83	C	1.145384	0.071892	0.070114
C84	C	1.395384	0.321892	0.320114
C85	C	0.608588	-0.379618	-0.381317
C86	C	0.858588	-0.129618	-0.131317
C87	C	1.108588	0.120382	0.118683
C88	C	1.358588	0.370382	0.368683
C89	C	0.645155	-0.334385	-0.336010
C90	C	0.895155	-0.084385	-0.086010
C91	C	1.145155	0.165615	0.163990
C92	C	1.395155	0.415615	0.413990
C93	C	0.718512	-0.337646	-0.339274
C94	C	0.968512	-0.087646	-0.089274
C95	C	1.218512	0.162354	0.160726
C96	C	1.468512	0.412354	0.410726
C97	C	0.387089	-0.367425	-0.369115
C98	C	0.637089	-0.117425	-0.119115
C99	C	0.887089	0.132575	0.130885
C100	C	1.137089	0.382575	0.380885
C101	C	0.313726	-0.364169	-0.365853
C102	C	0.563726	-0.114169	-0.115853
C103	C	0.813726	0.135831	0.134147
C104	C	1.063726	0.385831	0.384147
C105	C	0.313960	-0.457891	-0.459731
C106	C	0.563960	-0.207891	-0.209731
C107	C	0.813960	0.042109	0.040269
C108	C	1.063960	0.292109	0.290269
C109	C	0.387320	-0.461151	-0.462988
C110	C	0.637320	-0.211151	-0.212988
C111	C	0.887320	0.038849	0.037012
C112	C	1.137320	0.288849	0.287012
C113	C	0.423880	-0.415915	-0.417683
C114	C	0.673880	-0.165915	-0.167683
C115	C	0.923880	0.084085	0.082317
C116	C	1.173880	0.334085	0.332317
C117	C	0.533603	-0.376283	-0.377982
C118	C	0.783603	-0.126283	-0.127982
C119	C	1.033603	0.123717	0.122018
C120	C	1.283603	0.373717	0.372018
C121	C	0.498863	-0.419248	-0.421023
C122	C	0.748863	-0.169248	-0.171023
C123	C	0.998863	0.080752	0.078977
C124	C	1.248863	0.330752	0.328977
C125	C	1.023277	-0.580854	-0.407594
C126	C	1.273277	-0.330854	-0.157594
C127	C	1.523277	-0.080854	0.092406
C128	C	1.773277	0.169146	0.342406
C129	C	1.026506	-0.659193	-0.411094
C130	C	1.276506	-0.409193	-0.161094
C131	C	1.526506	-0.159193	0.088906
C132	C	1.776506	0.090807	0.338906
C133	C	0.984867	-0.692336	-0.365692
C134	C	1.234867	-0.442336	-0.115692
C135	C	1.484867	-0.192336	0.134308
C136	C	1.734867	0.057664	0.384308
C137	C	0.987907	-0.765944	-0.368984
C138	C	1.237907	-0.515944	-0.118984
C139	C	1.487907	-0.265944	0.131016
C140	C	1.737907	-0.015944	0.381016
C141	C	1.032584	-0.806407	-0.417681
C142	C	1.282584	-0.556407	-0.167681
C143	C	1.532584	-0.306407	0.082319
C144	C	1.782584	-0.056407	0.332319
C145	C	1.074228	-0.773258	-0.463085
C146	C	1.324228	-0.523258	-0.213085
C147	C	1.574228	-0.273258	0.036915
C148	C	1.824228	-0.023258	0.286915
C149	C	1.071191	-0.699652	-0.459789
C150	C	1.321191	-0.449652	-0.209789
C151	C	1.571191	-0.199652	0.040211
C152	C	1.821191	0.050348	0.290211
C153	C	1.043918	-1.028834	-0.429982
C154	C	1.293918	-0.778834	-0.179982
C155	C	1.543918	-0.528834	0.070018
C156	C	1.793918	-0.278834	0.320018
C157	C	1.046951	-1.102445	-0.433276
C158	C	1.296951	-0.852445	-0.183276
C159	C	1.546951	-0.602445	0.066724
C160	C	1.796951	-0.352445	0.316724
C161	C	0.960630	-1.095126	-0.339174
C162	C	1.210630	-0.845126	-0.089174
C163	C	1.460630	-0.595126	0.160826
C164	C	1.710630	-0.345126	0.410826
C165	C	0.957594	-1.021519	-0.335885
C166	C	1.207594	-0.771519	-0.085885
C167	C	1.457594	-0.521519	0.164115
C168	C	1.707594	-0.271519	0.414115
C169	C	0.999241	-0.988376	-0.381286
C170	C	1.249241	-0.738376	-0.131286
C171	C	1.499241	-0.488376	0.118714
C172	C	1.749241	-0.238376	0.368714
C173	C	1.035692	-0.881646	-0.421048
C174	C	1.285692	-0.631646	-0.171048
C175	C	1.535692	-0.381646	0.078952
C176	C	1.785692	-0.131646	0.328952
C177	C	0.996136	-0.913139	-0.377915
C178	C	1.246136	-0.663139	-0.127915
C179	C	1.496136	-0.413139	0.122085
C180	C	1.746136	-0.163139	0.372085
C181	C	1.199090	-0.405916	-0.407667
C182	C	1.449090	-0.155916	-0.157667
C183	C	1.699090	0.094084	0.092333
C184	C	1.949090	0.344084	0.342333
C185	C	1.277164	-0.409398	-0.411158
C186	C	1.527164	-0.159398	-0.161158
C187	C	1.777164	0.090602	0.088842
C188	C	2.027164	0.340602	0.338842
C189	C	1.008851	-0.404760	-0.583049
C190	C	1.258851	-0.154760	-0.333049
C191	C	1.508851	0.095240	-0.083049
C192	C	1.758851	0.345240	0.166951
C193	C	1.005857	-0.407749	-0.661277
C194	C	1.255857	-0.157749	-0.411277
C195	C	1.505857	0.092251	-0.161277
C196	C	1.755857	0.342251	0.088723
C197	C	1.008469	-0.213923	-0.391341
C198	C	1.258469	0.036077	-0.141341
C199	C	1.508469	0.286077	0.108659
C200	C	1.758469	0.536077	0.358659
C201	C	1.005311	-0.135589	-0.387874
C202	C	1.255311	0.114411	-0.137874
C203	C	1.505311	0.364411	0.112126
C204	C	1.755311	0.614411	0.362126
C205	C	1.047552	-0.366087	-0.698044
C206	C	1.297552	-0.116087	-0.448044
C207	C	1.547552	0.133913	-0.198044
C208	C	1.797552	0.383913	0.051956
C209	C	1.044730	-0.368893	-0.771548
C210	C	1.294730	-0.118893	-0.521548
C211	C	1.544730	0.131107	-0.271548
C212	C	1.794730	0.381107	-0.021548
C213	C	1.000215	-0.413364	-0.808283
C214	C	1.250215	-0.163364	-0.558283
C215	C	1.500215	0.086636	-0.308283
C216	C	1.750215	0.336636	-0.058283
C217	C	0.958515	-0.455027	-0.771511
C218	C	1.208515	-0.205027	-0.521511
C219	C	1.458515	0.044973	-0.271511
C220	C	1.708515	0.294973	-0.021511
C221	C	0.961334	-0.452217	-0.698008
C222	C	1.211334	-0.202217	-0.448008
C223	C	1.461334	0.047783	-0.198008
C224	C	1.711334	0.297783	0.051992
C225	C	0.987158	-0.426381	-1.028109
C226	C	1.237158	-0.176381	-0.778109
C227	C	1.487158	0.073619	-0.528109
C228	C	1.737158	0.323619	-0.278109
C229	C	0.984344	-0.429189	-1.101617
C230	C	1.234344	-0.179189	-0.851617
C231	C	1.484344	0.070811	-0.601617
C232	C	1.734344	0.320811	-0.351617
C233	C	1.070558	-0.343054	-1.101649
C234	C	1.320558	-0.093054	-0.851649
C235	C	1.570558	0.156946	-0.601649
C236	C	1.820558	0.406946	-0.351649
C237	C	1.073376	-0.340251	-1.028145
C238	C	1.323376	-0.090251	-0.778145
C239	C	1.573376	0.159749	-0.528145
C240	C	1.823376	0.409749	-0.278145
C241	C	1.031673	-0.381912	-0.991379
C242	C	1.281673	-0.131912	-0.741379
C243	C	1.531673	0.118088	-0.491379
C244	C	1.781673	0.368088	-0.241379
N245	N	0.997331	-0.416234	-0.883415
N246	N	1.247331	-0.166234	-0.633415
N247	N	1.497331	0.083766	-0.383415
N248	N	1.747331	0.333766	-0.133415
N249	N	1.034554	-0.379037	-0.916248
N250	N	1.284554	-0.129037	-0.666248
N251	N	1.534554	0.120963	-0.416248
N252	N	1.784554	0.370963	-0.166248
C253	C	1.022916	-0.390709	-0.216615
C254	C	1.272916	-0.140709	0.033385
C255	C	1.522916	0.109291	0.283385
C256	C	1.772916	0.359291	0.533385
C257	C	1.026039	-0.387528	-0.138384
C258	C	1.276039	-0.137528	0.111616
C259	C	1.526039	0.112472	0.361616
C260	C	1.776039	0.362472	0.611616
H261	H	0.528825	-0.458725	-0.460571
H262	H	0.778825	-0.208725	-0.210571
H263	H	1.028825	0.041275	0.039429
H264	H	1.278825	0.291275	0.289429
H265	H	1.077827	-1.001855	-0.466951
H266	H	1.327827	-0.751855	-0.216951
H267	H	1.577827	-0.501855	0.033049
H268	H	1.827827	-0.251855	0.283049
F269	F	0.425989	-0.319279	-0.320900
F270	F	0.675989	-0.069279	-0.070900
F271	F	0.925989	0.180721	0.179100
F272	F	1.175989	0.430721	0.429100
H273	H	0.927374	-0.486135	-0.668073
H274	H	1.177374	-0.236135	-0.418073
H275	H	1.427374	0.013865	-0.168073
H276	H	1.677374	0.263865	0.081927
F277	F	0.916310	-1.130404	-0.290858
F278	F	1.166310	-0.880404	-0.040858
F279	F	1.416310	-0.630404	0.209142
F280	F	1.666310	-0.380404	0.459142
H281	H	1.110608	-0.806209	-0.502732
H282	H	1.360608	-0.556209	-0.252732
H283	H	1.610608	-0.306209	-0.002732
H284	H	1.860608	-0.056209	0.247268
F285	F	0.943588	-0.801215	-0.320661
F286	F	1.193588	-0.551215	-0.070661
F287	F	1.443588	-0.301215	0.179339
F288	F	1.693588	-0.051215	0.429339
H289	H	1.078684	-0.334969	-0.801480
H290	H	1.328684	-0.084969	-0.551480
H291	H	1.578684	0.165031	-0.301480
H292	H	1.828684	0.415031	-0.051480
H293	H	1.105099	-0.672667	-0.496759
H294	H	1.355099	-0.422667	-0.246759
H295	H	1.605099	-0.172667	0.003241
H296	H	1.855099	0.077333	0.253241
F297	F	1.094935	-0.318758	-0.658955
F298	F	1.344935	-0.068758	-0.408955
F299	F	1.594935	0.181242	-0.158955
F300	F	1.844935	0.431242	0.091045
F301	F	1.120755	-0.292920	-0.989054
F302	F	1.370755	-0.042920	-0.739054
F303	F	1.620755	0.207080	-0.489054
F304	F	1.870755	0.457080	-0.239054
F305	F	1.114936	-0.298718	-1.140783
F306	F	1.364936	-0.048718	-0.890783
F307	F	1.614936	0.201282	-0.640783
F308	F	1.864936	0.451282	-0.390783
H309	H	0.959763	-0.880192	-0.338263
H310	H	1.209763	-0.630192	-0.088263
H311	H	1.459763	-0.380192	0.161737
H312	H	1.709763	-0.130192	0.411737
H313	H	0.284185	-0.494719	-0.496616
H314	H	0.534185	-0.244719	-0.246616
H315	H	0.784185	0.005281	0.003384
H316	H	1.034185	0.255281	0.253384
F317	F	0.426476	-0.512762	-0.514681
F318	F	0.676476	-0.262762	-0.264681
F319	F	0.926476	-0.012762	-0.014681
F320	F	1.176476	0.237238	0.235319
H321	H	0.948092	-0.465405	-1.131525
H322	H	1.198092	-0.215405	-0.881525
H323	H	1.448092	0.034595	-0.631525
H324	H	1.698092	0.284595	-0.381525
H325	H	0.953211	-0.460315	-0.998184
H326	H	1.203211	-0.210315	-0.748184
H327	H	1.453211	0.039685	-0.498184
H328	H	1.703211	0.289685	-0.248184
F329	F	0.605991	-0.282774	-0.284323
F330	F	0.855991	-0.032774	-0.034323
F331	F	1.105991	0.217226	0.215677
F332	F	1.355991	0.467226	0.465677
F333	F	0.274567	-0.312562	-0.314152
F334	F	0.524567	-0.062562	-0.064152
F335	F	0.774567	0.187438	0.185848
F336	F	1.024567	0.437438	0.435848
H337	H	0.921214	-0.988575	-0.296232
H338	H	1.171214	-0.738575	-0.046232
H339	H	1.421214	-0.488575	0.203768
H340	H	1.671214	-0.238575	0.453768
H341	H	0.922267	-0.491233	-0.801426
H342	H	1.172267	-0.241233	-0.551426
H343	H	1.422267	0.008767	-0.301426
H344	H	1.672267	0.258767	-0.051426
F345	F	0.757424	-0.289506	-0.291056
F346	F	1.007424	-0.039506	-0.041056
F347	F	1.257424	0.210494	0.208944
F348	F	1.507424	0.460494	0.458944
H349	H	0.748697	-0.470860	-0.472695
H350	H	0.998697	-0.220860	-0.222695
H351	H	1.248697	0.029140	0.027305
H352	H	1.498697	0.279140	0.277305
H353	H	1.083322	-1.135388	-0.472944
H354	H	1.333322	-0.885388	-0.222944
H355	H	1.583322	-0.635388	0.027056
H356	H	1.833322	-0.385388	0.277056
F357	F	1.083237	-0.924715	-0.472876
F358	F	1.333237	-0.674715	-0.222876
F359	F	1.583237	-0.424715	0.027124
F360	F	1.833237	-0.174715	0.277124
F361	F	0.937312	-0.649279	-0.313864
F362	F	1.187312	-0.399279	-0.063864
F363	F	1.437312	-0.149279	0.186136
F364	F	1.687312	0.100721	0.436136
F365	F	0.606475	-0.476247	-0.478107
F366	F	0.856475	-0.226247	-0.228107
F367	F	1.106475	0.023753	0.021893
F368	F	1.356475	0.273753	0.271893
H369	H	0.503636	-0.336804	-0.338435
H370	H	0.753636	-0.086804	-0.088435
H371	H	1.003636	0.163196	0.161565
H372	H	1.253636	0.413196	0.411565
