data_functionalizedCrystal
_audit_creation_method	'MofGen! by Chris Wilmer'
_symmetry_space_group_name_H-M	'P1'
_symmetry_Int_Tables_number	1
_symmetry_cell_setting	triclinic
loop_
_symmetry_equiv_pos_as_xyz
  x,y,z
_cell_length_a	21.606444
_cell_length_b	21.606444
_cell_length_c	21.606444
_cell_angle_alpha	60.001013
_cell_angle_beta	89.996202
_cell_angle_gamma	59.999875
loop_
_atom_site_label
_atom_site_type_symbol
_atom_site_fract_x
_atom_site_fract_y
_atom_site_fract_z
Zr1	Zr	0.596219	0.677471	-0.081219
O2	O	0.497402	0.806582	-0.180035
O3	O	0.626513	0.548355	-0.050930
O4	O	0.626520	0.677469	-0.180044
O5	O	0.497388	0.677470	0.050929
O6	O	0.728370	0.677474	-0.180048
O7	O	0.497395	0.677467	-0.050921
O8	O	0.728357	0.446511	0.050913
O9	O	0.497401	0.908433	-0.180032
O10	O	0.715441	0.601467	-0.038011
O11	O	0.639427	0.601466	0.038001
O12	O	0.639435	0.753482	-0.114014
O13	O	0.563421	0.753481	-0.038001
Zr14	Zr	0.758647	0.677482	0.081214
Zr15	Zr	0.758658	0.677478	-0.081225
Zr16	Zr	0.596209	0.677475	0.081220
Zr17	Zr	0.596218	0.839911	-0.081214
Zr18	Zr	0.758649	0.515042	0.081209
O19	O	0.728353	0.806599	0.050925
O20	O	0.728369	0.806592	-0.180043
O21	O	0.497387	0.806589	0.050933
O22	O	0.857465	0.548371	0.180030
O23	O	0.857480	0.548365	-0.050939
O24	O	0.626498	0.548361	0.180038
O25	O	0.857478	0.677483	-0.050934
O26	O	0.728346	0.677484	0.180039
O27	O	0.626497	0.677480	0.180042
O28	O	0.857472	0.677486	0.050916
O29	O	0.626518	0.908439	-0.180036
O30	O	0.728349	0.446515	0.180031
O31	O	0.857466	0.446520	0.180027
O32	O	0.857474	0.446517	0.050909
O33	O	0.497392	0.908437	-0.050914
O34	O	0.626509	0.908442	-0.050918
O35	O	0.715431	0.601471	0.114008
O36	O	0.791446	0.601473	0.037996
O37	O	0.715440	0.753487	-0.038006
O38	O	0.639425	0.753486	0.038006
C39	C	0.677435	0.474289	-0.000009
C40	C	0.677436	0.405329	-0.000011
C41	C	0.474247	0.677468	0.000005
C42	C	0.405288	0.677465	0.000007
C43	C	0.717113	0.372932	-0.039690
C44	C	0.717116	0.308132	-0.039685
C45	C	0.677437	0.275734	-0.000005
C46	C	0.637758	0.308134	0.039679
C47	C	0.637761	0.372928	0.039678
C48	C	0.637750	0.046825	0.039685
C49	C	0.637749	-0.017973	0.039681
C50	C	0.717105	-0.017972	-0.039678
C51	C	0.717107	0.046822	-0.039679
C52	C	0.677432	0.079213	0.000008
C53	C	0.677431	0.149475	0.000003
C54	C	0.677433	0.205477	-0.000004
C55	C	0.412563	0.598115	0.039677
C56	C	0.347766	0.598118	0.039678
C57	C	0.275694	0.677471	0.000004
C58	C	0.268421	0.756826	-0.039667
C59	C	0.333217	0.756823	-0.039663
C60	C	0.007102	0.756842	-0.039684
C61	C	-0.057696	0.756839	-0.039687
C62	C	0.021651	0.598136	0.039657
C63	C	0.086448	0.598133	0.039661
C64	C	0.079169	0.677488	-0.000007
C65	C	0.149430	0.677485	-0.000006
C66	C	0.205434	0.677475	-0.000002
C67	C	0.880619	0.677485	-0.000010
C68	C	0.949579	0.677488	-0.000012
C69	C	0.677447	0.677471	-0.203190
C70	C	0.677451	0.677469	-0.272150
C71	C	0.677431	0.880665	0.000004
C72	C	0.677430	0.949625	0.000006
C73	C	0.621305	0.677483	-0.695452
C74	C	0.621312	0.677477	-0.630653
C75	C	0.677426	0.677478	-0.598261
C76	C	0.733542	0.677476	-0.630667
C77	C	0.733538	0.677476	-0.695462
C78	C	0.733560	0.677474	-0.369355
C79	C	0.733559	0.677476	-0.304557
C80	C	0.621335	0.677475	-0.304546
C81	C	0.621330	0.677475	-0.369341
C82	C	0.677448	0.677468	-0.401740
C83	C	0.677441	0.677474	-0.472001
C84	C	0.677431	0.677478	-0.528003
C85	C	0.677420	0.677482	0.203185
C86	C	0.677415	0.677484	0.272145
C87	C	0.880621	0.474297	-0.000017
C88	C	0.949581	0.405340	-0.000021
C89	C	0.677422	0.474294	0.203178
C90	C	0.677418	0.405336	0.272136
C91	C	0.880608	0.474303	0.203171
C92	C	0.949564	0.405348	0.272126
C93	C	0.474259	0.880650	-0.203176
C94	C	0.405303	0.949605	-0.272131
C95	C	0.474245	0.880656	0.000011
C96	C	0.405285	0.949613	0.000016
C97	C	0.677444	0.880659	-0.203183
C98	C	0.677448	0.949617	-0.272141
C99	C	0.942292	0.372954	-0.039705
C100	C	1.007082	0.308171	-0.039725
C101	C	1.079159	0.275770	-0.000056
C102	C	1.086447	0.308162	0.039630
C103	C	1.021658	0.372949	0.039644
C104	C	0.717090	0.372956	0.344201
C105	C	0.717083	0.308171	0.409000
C106	C	0.677409	0.275764	0.401733
C107	C	0.637733	0.308151	0.329660
C108	C	0.637735	0.372939	0.264863
C109	C	1.021631	0.372966	0.264830
C110	C	1.086429	0.308185	0.329615
C111	C	1.079157	0.275781	0.401694
C112	C	1.007081	0.308169	0.408989
C113	C	0.942286	0.372954	0.344205
C114	C	0.333235	0.981995	-0.264835
C115	C	0.268438	1.046797	-0.329620
C116	C	0.275710	1.079204	-0.401699
C117	C	0.347785	1.046812	-0.408994
C118	C	0.412581	0.982015	-0.344210
C119	C	0.412574	0.982006	0.039693
C120	C	0.347785	1.046807	0.039695
C121	C	0.275707	1.079211	0.000024
C122	C	0.268420	1.046815	-0.039659
C123	C	0.333208	0.982019	-0.039664
C124	C	0.717130	0.982004	-0.264849
C125	C	0.717149	1.046789	-0.329636
C126	C	0.677480	1.079190	-0.401714
C127	C	0.637797	1.046797	-0.409004
C128	C	0.637784	0.982009	-0.344218
H129	H	0.749421	0.399309	-0.072006
H130	H	0.575608	0.677488	-0.721825
H131	H	0.677497	1.131945	-0.454461
H132	H	0.749398	0.399334	0.350133
O133	O	0.190709	1.081709	-0.321734
H134	H	0.159287	1.153179	-0.349328
O135	O	0.999251	0.273201	0.486737
H136	H	0.967797	0.327575	0.493352
O137	O	0.794101	0.677449	-0.269607
H138	H	0.784672	0.677452	-0.219109
O139	O	0.164180	0.512542	0.082450
H140	H	0.208015	0.525872	0.075782
H141	H	0.605455	0.281746	0.071991
O142	O	0.759928	0.947053	-0.187112
H143	H	0.787530	0.980456	-0.192938
O144	O	0.594973	0.947093	-0.352098
H145	H	0.635019	0.875621	-0.324492
O146	O	0.759893	0.273232	0.486730
H147	H	0.787493	0.306640	0.480891
O148	O	0.355621	0.512528	0.082462
H149	H	0.328006	0.508720	0.126325
H150	H	0.471260	0.955644	-0.350159
H151	H	0.209734	0.821437	-0.071966
H152	H	0.027572	0.533522	0.071957
O153	O	0.490307	0.947078	0.082480
H154	H	0.521727	0.875607	0.126343
O155	O	0.794050	0.677489	-0.730422
H156	H	0.833065	0.677500	-0.697019
O157	O	1.029531	0.407861	0.082462
H158	H	0.972375	0.458357	0.075813
O159	O	0.759904	-0.052916	-0.082478
H160	H	0.736967	0.001475	-0.143458
H161	H	0.749462	1.073156	-0.323686
O162	O	0.355622	1.081770	-0.486740
H163	H	0.387080	1.027384	-0.493340
H164	H	0.327263	0.955647	-0.071972
O165	O	0.864555	0.407860	0.352077
H166	H	0.870392	0.374429	0.413084
O167	O	0.677423	0.205870	0.471625
H168	H	0.711688	0.188794	0.522954
O169	O	0.355655	1.081726	0.082510
H170	H	0.387136	1.111225	0.059597
H171	H	0.779234	0.677471	-0.604287
O172	O	0.594967	0.273170	0.321826
H173	H	0.601651	0.222666	0.378995
O174	O	0.205834	1.149096	0.000039
H175	H	0.154485	1.166195	-0.034216
H176	H	0.605436	-0.044349	0.071996
O177	O	0.594962	0.407880	0.082469
H178	H	0.567363	0.374475	0.110055
H179	H	0.327300	0.955613	-0.206151
O180	O	0.864558	0.407897	-0.082502
H181	H	0.833145	0.479371	-0.126344
O182	O	0.595010	1.081734	-0.486740
H183	H	0.551156	1.153206	-0.518153
O184	O	0.999214	0.273233	-0.082523
H185	H	0.938208	0.306640	-0.110090
H186	H	0.222943	1.131965	-0.454444
H187	H	0.209726	1.073208	-0.071958
O188	O	0.594951	0.081767	0.082478
H189	H	0.567352	0.048360	0.110060
H190	H	0.749424	0.281754	-0.071994
H191	H	0.749414	0.073201	-0.071993
H192	H	0.575642	0.677476	-0.278159
H193	H	0.471244	0.533497	0.071987
H194	H	0.779252	0.677471	-0.395730
O195	O	-0.135436	0.842430	-0.082474
H196	H	-0.129613	0.897611	-0.110050
H197	H	0.001166	0.821457	-0.071997
H198	H	0.327289	0.821438	-0.071957
H199	H	0.575624	0.677475	-0.604270
H200	H	1.145110	0.281821	0.323662
O201	O	0.560787	0.677505	-0.404286
H202	H	0.563534	0.618177	-0.362193
O203	O	1.149038	0.205890	-0.000071
H204	H	1.148988	0.146854	0.024757
H205	H	0.605432	0.399295	0.206186
H206	H	1.027567	0.399340	0.206145
O207	O	1.164189	0.273205	0.082422
H208	H	1.208009	0.222706	0.075748
H209	H	1.131924	0.223029	0.454439
