data_functionalizedCrystal
_audit_creation_method	'MofGen! by Chris Wilmer'
_symmetry_space_group_name_H-M	'P1'
_symmetry_Int_Tables_number	1
_symmetry_cell_setting	triclinic
loop_
_symmetry_equiv_pos_as_xyz
  x,y,z
_cell_length_a	33.592126
_cell_length_b	33.591377
_cell_length_c	33.588093
_cell_angle_alpha	60.004089
_cell_angle_beta	60.008299
_cell_angle_gamma	59.994549
loop_
_atom_site_label
_atom_site_type_symbol
_atom_site_fract_x
_atom_site_fract_y
_atom_site_fract_z
O1	O	0.055297	-0.581666	0.486338
O2	O	0.020882	-0.452873	0.391864
O3	O	0.102445	-0.534352	0.391775
O4	O	-0.026266	-0.500187	0.486427
O5	O	0.129510	-0.507292	0.418747
O6	O	0.047947	-0.425814	0.418835
O7	O	0.082362	-0.554606	0.513309
Cu8	Cu	0.067626	-0.487739	0.468535
Cu9	Cu	0.035618	-0.519740	0.436638
O10	O	0.000799	-0.473128	0.513398
N11	N	0.090139	-0.465235	0.490972
N12	N	0.013110	-0.542249	0.414202
C13	C	0.124394	-0.431229	0.734914
C14	C	0.334265	-0.431145	0.524799
C15	C	0.124204	-0.431200	0.524965
C16	C	0.124184	-0.221175	0.524955
C17	C	0.158017	-0.322536	0.558710
C18	C	0.158027	-0.397406	0.558711
C19	C	0.176763	-0.378688	0.577408
C20	C	0.258412	-0.364594	0.534386
C21	C	0.309454	-0.381596	0.517340
C22	C	0.309485	-0.464188	0.548836
C23	C	0.258444	-0.447186	0.565883
C24	C	0.170304	-0.297002	0.508532
C25	C	0.153260	-0.245956	0.491537
C26	C	0.111648	-0.245983	0.574901
C27	C	0.128691	-0.297029	0.591896
C28	C	0.107841	-0.385091	0.571080
C29	C	0.090813	-0.402108	0.554078
C30	C	0.174153	-0.443755	0.512351
C31	C	0.191183	-0.426739	0.529347
C32	C	0.107923	-0.385106	0.659111
C33	C	0.090955	-0.402138	0.710156
C34	C	0.174335	-0.443795	0.710087
C35	C	0.191302	-0.426764	0.659041
C36	C	0.158095	-0.397418	0.633555
C37	C	0.232909	-0.397388	0.558656
C38	C	0.105069	-0.449619	0.791057
C39	C	0.390406	-0.449193	0.505789
C40	C	0.104813	-0.449599	0.506607
C41	C	0.105125	-0.165028	0.506915
C42	C	-0.020560	-0.576246	0.169890
C43	C	-0.020889	-0.786183	0.379970
C44	C	-0.020859	-0.576235	0.380063
C45	C	-0.230772	-0.576015	0.379658
C46	C	-0.129417	-0.609898	0.346025
C47	C	-0.054587	-0.609979	0.346172
C48	C	-0.073269	-0.628671	0.327396
C49	C	-0.087401	-0.710299	0.370335
C50	C	-0.070424	-0.761345	0.387369
C51	C	0.012165	-0.761428	0.356003
C52	C	-0.004813	-0.710383	0.338967
C53	C	-0.155001	-0.622196	0.396191
C54	C	-0.206043	-0.605128	0.413125
C55	C	-0.205914	-0.563467	0.329724
C56	C	-0.154872	-0.580535	0.312790
C57	C	-0.066886	-0.559797	0.333828
C58	C	-0.049903	-0.542809	0.350903
C59	C	-0.008321	-0.626180	0.392654
C60	C	-0.025304	-0.643170	0.375585
C61	C	-0.066758	-0.559805	0.245702
C62	C	-0.049671	-0.542819	0.194658
C63	C	-0.008026	-0.626194	0.194706
C64	C	-0.025111	-0.643179	0.245752
C65	C	-0.054479	-0.609983	0.271248
C66	C	-0.054597	-0.684821	0.346135
C67	C	-0.002109	-0.556901	0.113746
C68	C	-0.002869	-0.842328	0.398966
C69	C	-0.002496	-0.556887	0.398501
C70	C	-0.286914	-0.556929	0.397631
N71	N	0.436349	-0.465146	0.490703
O72	O	0.592194	-0.469605	0.374236
O73	O	0.592389	-0.564393	0.502890
O74	O	0.592305	-0.564176	0.421300
O75	O	0.592277	-0.469822	0.455826
O76	O	0.511216	-0.537214	0.448415
O77	O	0.511300	-0.537431	0.530004
O78	O	0.511104	-0.442643	0.401350
Cu79	Cu	0.503798	-0.487575	0.468153
Cu80	Cu	0.599695	-0.519461	0.436087
O81	O	0.511188	-0.442860	0.482940
N82	N	0.667145	-0.541890	0.413532
N83	N	0.090108	-0.119085	0.490958
O84	O	-0.026275	0.036848	0.486394
O85	O	0.102381	0.036888	0.391584
O86	O	0.020751	0.036852	0.391854
O87	O	0.055356	0.036884	0.486124
O88	O	0.047821	-0.044242	0.418876
O89	O	0.129452	-0.044207	0.418606
O90	O	0.000796	-0.044246	0.513417
Cu91	Cu	0.067596	-0.051631	0.468479
Cu92	Cu	0.035582	0.044273	0.436522
O93	O	0.082426	-0.044211	0.513146
N94	N	0.013063	0.111726	0.414043
N95	N	0.090453	-0.465282	0.837001
O96	O	0.085913	-0.581648	0.992925
O97	O	-0.008857	-0.452947	0.992970
O98	O	-0.008635	-0.534562	0.992946
O99	O	0.085691	-0.500033	0.992949
O100	O	0.018365	-0.507512	0.911855
O101	O	0.018143	-0.425898	0.911878
O102	O	0.112912	-0.554598	0.911834
Cu103	Cu	0.067993	-0.487778	0.904452
Cu104	Cu	0.036063	-0.519767	1.000352
O105	O	0.112691	-0.472984	0.911857
N106	N	0.013602	-0.542269	1.067803
C107	C	0.031188	-0.423114	0.392334
C108	C	0.132194	-0.524016	0.392223
C109	C	0.072056	-0.584366	0.512840
C110	C	-0.028950	-0.483464	0.512950
C111	C	0.551868	-0.563965	0.532655
C112	C	0.551766	-0.563697	0.431617
C113	C	0.551623	-0.443070	0.371586
C114	C	0.551728	-0.443339	0.472623
C115	C	0.132090	-0.003555	0.392006
C116	C	0.031035	-0.003698	0.392374
C117	C	-0.028947	-0.003703	0.512961
C118	C	0.072143	-0.003661	0.512626
C119	C	-0.008408	-0.423209	0.952430
C120	C	-0.008128	-0.524272	0.952385
C121	C	0.112464	-0.584336	0.952374
C122	C	0.112190	-0.483267	0.952401
H123	H	0.050098	-0.392105	0.730957
H124	H	0.141823	-0.475877	0.952395
H125	H	0.023834	-0.386116	0.362662
O126	O	0.176119	-0.003337	0.356468
C127	C	0.213068	-0.045240	0.372925
H128	H	0.199802	-0.059404	0.414484
H129	H	0.222303	-0.074604	0.358970
C130	C	0.275165	-0.014819	0.302569
C131	C	0.258873	-0.032212	0.353612
H132	H	0.303421	-0.006784	0.290654
H133	H	0.250272	0.013411	0.291480
H134	H	0.282858	-0.039292	0.290946
H135	H	0.251175	-0.007737	0.365234
H136	H	0.283765	-0.060438	0.364702
O137	O	-0.043450	-0.533148	0.952408
C138	C	-0.054661	-0.572630	0.994391
H139	H	-0.022441	-0.595983	1.008410
H140	H	-0.088167	-0.558178	1.023800
C141	C	-0.104744	-0.575053	0.964367
C142	C	-0.065169	-0.603737	0.981583
H143	H	-0.111228	-0.594241	0.956468
H144	H	-0.097193	-0.548452	0.936083
H145	H	-0.132661	-0.563012	0.988877
H146	H	-0.037252	-0.615773	0.957071
H147	H	-0.072716	-0.630341	1.009863
H148	H	0.142219	-0.621297	0.952354
O149	O	0.022187	-0.003625	0.357000
C150	C	0.027579	0.038370	0.315874
H151	H	0.022306	0.067734	0.327529
H152	H	0.065638	0.028882	0.288233
C153	C	-0.004341	0.021327	0.278232
C154	C	-0.010822	0.057394	0.292547
H155	H	-0.028027	0.033061	0.263840
H156	H	-0.007972	-0.006967	0.305938
H157	H	0.027376	0.013423	0.255200
H158	H	-0.042536	0.065292	0.315582
H159	H	-0.007197	0.085690	0.264844
H160	H	-0.134040	-0.570516	0.271939
O161	O	0.075597	-0.356622	0.634430
C162	C	0.027675	-0.349394	0.667932
H163	H	0.027802	-0.380175	0.704308
H164	H	0.013050	-0.313034	0.673369
C165	C	-0.005246	-0.311231	0.603367
C166	C	-0.005090	-0.349038	0.648044
H167	H	-0.025458	-0.311009	0.591099
H168	H	0.027040	-0.316098	0.580796
H169	H	-0.017432	-0.280934	0.607904
H170	H	0.007101	-0.379334	0.643505
H171	H	-0.037375	-0.344176	0.670614
O172	O	0.080819	-0.628539	0.548197
C173	C	0.092280	-0.665260	0.531458
H174	H	0.076560	-0.648627	0.501171
H175	H	0.133569	-0.682399	0.516784
C176	C	0.089571	-0.725117	0.611105
C177	C	0.070259	-0.704689	0.573910
H178	H	0.075989	-0.749440	0.637292
H179	H	0.081851	-0.700378	0.622383
H180	H	0.123977	-0.739396	0.598871
H181	H	0.035854	-0.690406	0.586142
H182	H	0.077973	-0.729427	0.562635
H183	H	0.201378	-0.467681	0.730833
H184	H	0.551779	-0.593338	0.424228
H185	H	0.169160	-0.531297	0.362501
H186	H	0.015877	-0.653227	0.173952
O187	O	0.551530	-0.407505	0.327543
C188	C	0.551515	-0.365530	0.327555
H189	H	0.536203	-0.366123	0.366671
H190	H	0.590404	-0.364921	0.310092
C191	C	0.538454	-0.318969	0.250275
C192	C	0.519644	-0.319696	0.298318
H193	H	0.518797	-0.290696	0.232239
H194	H	0.538466	-0.347248	0.250266
H195	H	0.570861	-0.318464	0.235729
H196	H	0.487240	-0.320207	0.312865
H197	H	0.519626	-0.291415	0.298329
O198	O	-0.043965	-0.379155	0.952509
C199	C	-0.085032	-0.385586	0.994517
H200	H	-0.084475	-0.424494	1.008511
H201	H	-0.084161	-0.378594	1.023929
C202	C	-0.132507	-0.301709	0.964585
C203	C	-0.131824	-0.349496	0.981770
H204	H	-0.161370	-0.279445	0.956723
H205	H	-0.104839	-0.297376	0.936284
H206	H	-0.131778	-0.295889	0.989097
H207	H	-0.132546	-0.355316	0.957255
H208	H	-0.159494	-0.353829	1.010066
O209	O	0.240058	-0.438755	0.634293
C210	C	0.265726	-0.468316	0.667735
H211	H	0.241408	-0.461812	0.704130
H212	H	0.276742	-0.508298	0.673155
C213	C	0.341602	-0.463370	0.603081
C214	C	0.311735	-0.455379	0.647781
H215	H	0.369984	-0.455391	0.590772
H216	H	0.324310	-0.443456	0.580550
H217	H	0.350777	-0.496688	0.607604
H218	H	0.302556	-0.422059	0.643257
H219	H	0.329027	-0.475287	0.670311
O220	O	0.551695	-0.408023	0.481520
C221	C	0.551770	-0.425792	0.529429
H222	H	0.536460	-0.457114	0.552505
H223	H	0.590687	-0.439364	0.528670
C224	C	0.538769	-0.346088	0.523275
C225	C	0.519960	-0.384556	0.551618
H226	H	0.519149	-0.320651	0.536962
H227	H	0.538720	-0.334116	0.490997
H228	H	0.571199	-0.357404	0.522644
H229	H	0.487533	-0.373240	0.552243
H230	H	0.520003	-0.396524	0.583897
O231	O	-0.073061	-0.003686	0.548408
C232	C	-0.103422	-0.003711	0.530886
H233	H	-0.090239	0.011635	0.489353
H234	H	-0.102100	-0.042619	0.543293
C235	C	-0.172369	0.009243	0.602100
C236	C	-0.156180	0.028095	0.551089
H237	H	-0.204913	0.028860	0.614564
H238	H	-0.151914	0.009258	0.613906
H239	H	-0.171263	-0.023180	0.612433
H240	H	-0.157280	0.060515	0.540757
H241	H	-0.176636	0.028086	0.539281
O242	O	-0.073070	-0.474695	0.548364
C243	C	-0.103382	-0.426792	0.530743
H244	H	-0.079910	-0.403631	0.499423
H245	H	-0.128014	-0.427538	0.517216
C246	C	-0.163754	-0.433187	0.610547
C247	C	-0.134926	-0.404741	0.572081
H248	H	-0.183214	-0.419585	0.636045
H249	H	-0.143334	-0.465462	0.622418
H250	H	-0.184276	-0.433807	0.599268
H251	H	-0.114400	-0.404126	0.583358
H252	H	-0.155344	-0.372465	0.560212
O253	O	0.551954	-0.599421	0.576755
C254	C	0.551958	-0.581860	0.607096
H255	H	0.567269	-0.550537	0.583648
H256	H	0.513065	-0.568350	0.631750
C257	C	0.565012	-0.661707	0.667410
C258	C	0.583821	-0.623239	0.638610
H259	H	0.584665	-0.687232	0.686851
H260	H	0.565007	-0.673539	0.646970
H261	H	0.532602	-0.650443	0.687950
H262	H	0.616228	-0.634502	0.618066
H263	H	0.583832	-0.611410	0.659048
O264	O	0.081071	-0.003682	0.547918
C265	C	0.128995	-0.003655	0.530130
H266	H	0.152044	-0.018998	0.498825
H267	H	0.128266	0.035253	0.516532
C268	C	0.122887	-0.016615	0.609808
C269	C	0.151196	-0.035463	0.571360
H270	H	0.136581	-0.036234	0.635240
H271	H	0.090599	-0.016631	0.621791
H272	H	0.122281	0.015808	0.598469
H273	H	0.151796	-0.067883	0.582698
H274	H	0.183485	-0.035453	0.559379
H275	H	0.080840	-0.361208	0.594989
H276	H	0.049948	-0.392069	0.564138
H277	H	0.232048	-0.436761	0.519270
O278	O	0.206429	-0.472228	0.483817
C279	C	0.254374	-0.479459	0.476563
H280	H	0.254283	-0.448685	0.482265
H281	H	0.269028	-0.515824	0.503713
C282	C	0.287186	-0.517602	0.417255
C283	C	0.287075	-0.479802	0.424255
H284	H	0.307358	-0.517816	0.384990
H285	H	0.254885	-0.512733	0.422144
H286	H	0.299397	-0.547903	0.439884
H287	H	0.274858	-0.449502	0.401630
H288	H	0.319375	-0.484666	0.419361
O289	O	0.233691	-0.479051	0.589379
C290	C	0.246150	-0.502958	0.558145
H291	H	0.260148	-0.479710	0.518629
H292	H	0.275795	-0.539792	0.566354
C293	C	0.183610	-0.539275	0.614853
C294	C	0.200799	-0.510719	0.566319
H295	H	0.155636	-0.544064	0.619896
H296	H	0.175217	-0.523170	0.635897
H297	H	0.208319	-0.569967	0.621688
H298	H	0.176092	-0.480026	0.559486
H299	H	0.209186	-0.526819	0.545274
O300	O	0.334317	-0.512546	0.555764
C301	C	0.363820	-0.519472	0.510195
H302	H	0.348404	-0.487156	0.480780
H303	H	0.402505	-0.522475	0.501330
C304	C	0.383548	-0.606324	0.548253
C305	C	0.364611	-0.566635	0.512127
H306	H	0.384038	-0.635418	0.549445
H307	H	0.363673	-0.601659	0.578955
H308	H	0.415784	-0.608820	0.540862
H309	H	0.332373	-0.564136	0.519521
H310	H	0.384481	-0.571302	0.481426
H311	H	0.330218	-0.354891	0.497577
H312	H	0.194180	-0.317769	0.481510
O313	O	0.233663	-0.316202	0.527281
C314	C	0.246084	-0.289860	0.476884
H315	H	0.283137	-0.312156	0.456767
H316	H	0.217336	-0.282250	0.462997
C317	C	0.202925	-0.213863	0.492476
C318	C	0.248437	-0.241246	0.467768
H319	H	0.204374	-0.183874	0.486852
H320	H	0.194555	-0.231610	0.526429
H321	H	0.178974	-0.207527	0.480901
H322	H	0.272386	-0.247587	0.479347
H323	H	0.256811	-0.223499	0.433816
O324	O	0.165109	-0.221126	0.442796
C325	C	0.122197	-0.191598	0.430499
H326	H	0.091554	-0.206997	0.459292
H327	H	0.111446	-0.152914	0.428814
C328	C	0.168877	-0.171885	0.345087
C329	C	0.131241	-0.190801	0.380448
H330	H	0.174455	-0.171391	0.314213
H331	H	0.197787	-0.191777	0.353372
H332	H	0.159913	-0.139650	0.343689
H333	H	0.140207	-0.223037	0.381851
H334	H	0.102331	-0.170914	0.372163
O335	O	0.083153	-0.221278	0.607201
C336	C	0.075983	-0.254762	0.655136
H337	H	0.081691	-0.291150	0.655047
H338	H	0.103174	-0.260181	0.669727
C339	C	0.016696	-0.190169	0.688019
C340	C	0.023703	-0.234861	0.687909
H341	H	-0.015552	-0.177893	0.708236
H342	H	0.021528	-0.167610	0.655724
H343	H	0.039359	-0.194691	0.700177
H344	H	0.001044	-0.230337	0.675746
H345	H	0.018866	-0.257419	0.720203
H346	H	-0.059677	-0.501957	0.173865
O347	O	-0.095208	-0.527541	0.270453
C348	C	-0.069425	-0.498061	0.258022
H349	H	-0.028590	-0.517807	0.244042
H350	H	-0.080246	-0.462197	0.228369
C351	C	-0.131961	-0.463380	0.320552
C352	C	-0.081806	-0.487634	0.303386
H353	H	-0.139600	-0.456946	0.348534
H354	H	-0.149333	-0.483239	0.328926
H355	H	-0.140972	-0.433495	0.295837
H356	H	-0.072798	-0.517521	0.328098
H357	H	-0.064434	-0.467779	0.295017
O358	O	-0.013155	-0.691941	0.270490
C359	C	0.016434	-0.717595	0.237039
H360	H	0.009980	-0.693251	0.200622
H361	H	0.056404	-0.728642	0.231680
C362	C	0.011410	-0.793480	0.301658
C363	C	0.003479	-0.763581	0.256931
H364	H	0.003421	-0.821847	0.313928
H365	H	-0.008524	-0.776197	0.324195
H366	H	0.044718	-0.802680	0.297186
H367	H	-0.029829	-0.754376	0.261404
H368	H	0.023407	-0.780864	0.234394
H369	H	0.118680	-0.317820	0.632757
H370	H	-0.059919	-0.501948	0.340854
O371	O	0.020176	-0.658470	0.421165
C372	C	0.063005	-0.688010	0.395436
H373	H	0.056204	-0.688502	0.365684
H374	H	0.093718	-0.672697	0.378167
C375	C	0.085839	-0.739694	0.467387
C376	C	0.077485	-0.740302	0.430849
H377	H	0.094773	-0.771950	0.489231
H378	H	0.056985	-0.719792	0.484722
H379	H	0.111432	-0.726930	0.452991
H380	H	0.051889	-0.753060	0.445245
H381	H	0.106335	-0.760208	0.413518
O382	O	0.027047	-0.685609	0.315382
C383	C	0.025111	-0.656084	0.267914
H384	H	0.010585	-0.671449	0.256311
H385	H	-0.000076	-0.617385	0.267509
C386	C	0.094485	-0.636481	0.246538
C387	C	0.076647	-0.655355	0.232284
H388	H	0.126274	-0.636030	0.224559
H389	H	0.095788	-0.656372	0.278518
H390	H	0.073491	-0.604234	0.246200
H391	H	0.097638	-0.687604	0.232629
H392	H	0.075349	-0.635470	0.200303
O393	O	0.060543	-0.786187	0.348983
C394	C	0.085857	-0.752752	0.323981
H395	H	0.063631	-0.716355	0.303028
H396	H	0.091729	-0.747332	0.351323
C397	C	0.162899	-0.817424	0.313772
C398	C	0.135602	-0.772721	0.288034
H399	H	0.193585	-0.829742	0.291600
H400	H	0.145845	-0.839950	0.330619
H401	H	0.167787	-0.812901	0.336557
H402	H	0.130710	-0.777245	0.265255
H403	H	0.152657	-0.750196	0.271183
H404	H	-0.015291	-0.684031	0.385637
O405	O	-0.102367	-0.786021	0.410943
C406	C	-0.149951	-0.752513	0.413637
H407	H	-0.151902	-0.716120	0.410238
H408	H	-0.159487	-0.747116	0.382726
C409	C	-0.184014	-0.817058	0.467105
C410	C	-0.186412	-0.772361	0.462933
H411	H	-0.206506	-0.829302	0.497511
H412	H	-0.151956	-0.839634	0.465288
H413	H	-0.191960	-0.812556	0.441343
H414	H	-0.178460	-0.776866	0.488691
H415	H	-0.218470	-0.749787	0.464755
O416	O	-0.130326	-0.650766	0.428519
C417	C	-0.142836	-0.693553	0.458006
H418	H	-0.179880	-0.686669	0.458442
H419	H	-0.114105	-0.724277	0.442685
C420	C	-0.099772	-0.716544	0.509789
C421	C	-0.145272	-0.708087	0.510327
H422	H	-0.101273	-0.725511	0.542062
H423	H	-0.091342	-0.687719	0.489922
H424	H	-0.075834	-0.742146	0.497019
H425	H	-0.169207	-0.682482	0.523091
H426	H	-0.153706	-0.736909	0.530197
O427	O	-0.230975	-0.617009	0.461843
C428	C	-0.281484	-0.595661	0.469663
H429	H	-0.288396	-0.562897	0.436143
H430	H	-0.295976	-0.623560	0.476428
C431	C	-0.299253	-0.619153	0.555514
C432	C	-0.307744	-0.578910	0.514347
H433	H	-0.315453	-0.608822	0.583079
H434	H	-0.265225	-0.633538	0.550247
H435	H	-0.311330	-0.642399	0.561146
H436	H	-0.295662	-0.555668	0.508713
H437	H	-0.341771	-0.564520	0.519615
O438	O	-0.230592	-0.535005	0.297397
C439	C	-0.218103	-0.560792	0.267889
H440	H	-0.181064	-0.590536	0.267443
H441	H	-0.246846	-0.578079	0.283198
C442	C	-0.261161	-0.488900	0.216127
C443	C	-0.215666	-0.525429	0.215576
H444	H	-0.259659	-0.467086	0.183858
H445	H	-0.269576	-0.471527	0.236008
H446	H	-0.285108	-0.503311	0.228887
H447	H	-0.191721	-0.511018	0.202822
H448	H	-0.207247	-0.542799	0.195692
H449	H	-0.090726	-0.532768	0.309877
H450	H	-0.127938	-0.689491	0.376175
