data_functionalizedCrystal
_audit_creation_method	'MofGen! by Chris Wilmer'
_symmetry_space_group_name_H-M	'P1'
_symmetry_Int_Tables_number	1
_symmetry_cell_setting	triclinic
loop_
_symmetry_equiv_pos_as_xyz
  x,y,z
_cell_length_a	17.666332
_cell_length_b	15.995350
_cell_length_c	15.995350
_cell_angle_alpha	96.507625
_cell_angle_beta	90.004241
_cell_angle_gamma	89.994295
loop_
_atom_site_label
_atom_site_type_symbol
_atom_site_fract_x
_atom_site_fract_y
_atom_site_fract_z
O1	O	0.062880	-1.110991	0.107928
O2	O	0.562880	-0.610991	0.607928
O3	O	0.062896	-0.867216	0.121256
O4	O	0.562896	-0.367216	0.621256
O5	O	0.062887	-0.995767	-0.007296
O6	O	0.562887	-0.495767	0.492704
O7	O	0.062889	-0.982440	0.236479
O8	O	0.562889	-0.482440	0.736479
O9	O	-0.063010	-0.995745	-0.007303
O10	O	0.436990	-0.495745	0.492697
O11	O	-0.063001	-0.867193	0.121249
O12	O	0.436999	-0.367193	0.621249
O13	O	-0.063016	-1.110969	0.107921
O14	O	0.436984	-0.610969	0.607921
Cu15	Cu	-0.074504	-0.989079	0.114584
Cu16	Cu	0.425496	-0.489079	0.614584
Cu17	Cu	0.074383	-0.989106	0.114592
Cu18	Cu	0.574383	-0.489106	0.614592
O19	O	-0.063008	-0.982417	0.236473
O20	O	0.436992	-0.482417	0.736473
C21	C	-0.000051	-0.836010	0.120701
C22	C	0.499949	-0.336010	0.620701
C23	C	-0.000045	-0.743060	0.119049
C24	C	0.499955	-0.243060	0.619049
N25	N	-0.179224	-0.989066	0.114578
N26	N	0.320776	-0.489066	0.614578
C27	C	-0.000060	-0.995205	-0.038494
C28	C	0.499940	-0.495205	0.461506
C29	C	-0.000056	-0.993553	-0.131444
C30	C	0.499944	-0.493553	0.368556
C31	C	-0.218837	-1.046007	0.057683
C32	C	0.281163	-0.546007	0.557683
C33	C	-0.298085	-1.046012	0.057679
C34	C	0.201915	-0.546012	0.557679
C35	C	-0.337716	-0.989084	0.114584
C36	C	0.162284	-0.489084	0.614584
C37	C	-0.298093	-0.932132	0.171483
C38	C	0.201907	-0.432132	0.671483
C39	C	-0.218847	-0.932124	0.171480
C40	C	0.281153	-0.432124	0.671480
N41	N	-0.462133	-0.978426	0.188673
N42	N	0.037867	-0.478426	0.688673
N43	N	-0.537414	-0.978439	0.188673
N44	N	-0.037414	-0.478439	0.688673
C45	C	-0.576480	-0.989106	0.114596
C46	C	-0.076480	-0.489106	0.614596
N47	N	-0.537421	-0.999776	0.040516
N48	N	-0.037421	-0.499776	0.540516
N49	N	-0.462134	-0.999766	0.040517
N50	N	0.037866	-0.499766	0.540517
C51	C	-0.423645	-0.989087	0.114594
C52	C	0.076355	-0.489087	0.614594
C53	C	-0.702023	-1.046056	0.057692
C54	C	-0.202023	-0.546056	0.557692
C55	C	-0.781272	-1.046055	0.057687
C56	C	-0.281272	-0.546055	0.557687
C57	C	-0.781278	-0.932179	0.171499
C58	C	-0.281278	-0.432179	0.671499
C59	C	-0.702030	-0.932176	0.171497
C60	C	-0.202030	-0.432176	0.671497
C61	C	-0.662408	-0.989119	0.114594
C62	C	-0.162408	-0.489119	0.614594
N63	N	0.179103	-0.989125	0.114592
N64	N	0.679103	-0.489125	0.614592
C65	C	-0.000068	-1.142175	0.108476
C66	C	0.499932	-0.642175	0.608476
C67	C	-0.000069	-1.235125	0.110127
C68	C	0.499931	-0.735125	0.610127
C69	C	-0.000061	-0.405312	0.113117
C70	C	0.499939	0.094688	0.613117
C71	C	-0.000342	-0.452746	0.021565
C72	C	0.499658	0.047254	0.521565
C73	C	-0.000053	-0.549436	0.023217
C74	C	0.499947	-0.049436	0.523217
C75	C	-0.000053	-0.572873	0.116060
C76	C	0.499947	-0.072873	0.616060
C77	C	0.071837	-0.531798	0.161220
C78	C	0.571837	-0.031798	0.661220
C79	C	0.071892	-0.435163	0.158920
C80	C	0.571892	0.064837	0.658920
C81	C	-0.071276	-0.434798	0.160804
C82	C	0.428724	0.065202	0.660804
C83	C	-0.072221	-0.531743	0.160782
C84	C	0.427779	-0.031743	0.660782
C85	C	-0.000047	-0.667570	0.117727
C86	C	0.499953	-0.167570	0.617727
C87	C	-0.000062	-0.310614	0.111452
C88	C	0.499938	0.189386	0.611452
C89	C	-0.000058	-0.987621	-0.469192
C90	C	0.499942	-0.487621	0.030808
C91	C	0.000230	-0.896069	-0.421758
C92	C	0.500230	-0.396069	0.078242
C93	C	-0.000054	-0.897721	-0.325068
C94	C	0.499946	-0.397721	0.174932
C95	C	-0.000056	-0.990564	-0.301631
C96	C	0.499944	-0.490564	0.198369
C97	C	-0.071951	-1.035707	-0.342713
C98	C	0.428049	-0.535707	0.157287
C99	C	-0.072011	-1.033408	-0.439349
C100	C	0.427989	-0.533408	0.060651
C101	C	0.071157	-1.035324	-0.439699
C102	C	0.571157	-0.535324	0.060301
C103	C	0.072107	-1.035303	-0.342753
C104	C	0.572107	-0.535303	0.157247
C105	C	-0.000058	-0.992231	-0.206934
C106	C	0.499942	-0.492231	0.293066
C107	C	-0.000061	-0.985956	-0.563890
C108	C	0.499939	-0.485956	-0.063890
C109	C	-0.000059	-0.982980	0.267671
C110	C	0.499941	-0.482980	0.767671
C111	C	-0.000059	-0.984631	0.360621
C112	C	0.499941	-0.484631	0.860621
H113	H	-0.330344	-1.092382	0.011347
H114	H	0.169656	-0.592382	0.511347
H115	H	-0.669775	-0.885812	0.217829
H116	H	-0.169775	-0.385812	0.717829
C117	C	-0.824862	-0.869558	0.234093
C118	C	-0.324862	-0.369558	0.734093
H119	H	-0.877733	-0.877721	0.225950
H120	H	-0.377733	-0.377721	0.725950
H121	H	-0.811885	-0.813679	0.224968
H122	H	-0.311885	-0.313679	0.724968
H123	H	-0.811868	-0.878653	0.289983
H124	H	-0.311868	-0.378653	0.789983
H125	H	-0.125451	-1.004334	-0.314334
H126	H	0.374549	-0.504334	0.185666
H127	H	-0.669760	-1.092420	0.011357
H128	H	-0.169760	-0.592420	0.511357
C129	C	-0.341680	-0.869496	0.234063
C130	C	0.158320	-0.369496	0.734063
H131	H	-0.306734	-0.835572	0.267940
H132	H	0.193266	-0.335572	0.767940
H133	H	-0.372592	-0.899598	0.268946
H134	H	0.127408	-0.399598	0.768946
H135	H	-0.372595	-0.834654	0.203901
H136	H	0.127405	-0.334654	0.703901
H137	H	-0.186592	-0.885754	0.217812
H138	H	0.313408	-0.385754	0.717812
C139	C	0.144484	-0.410438	0.114433
C140	C	0.644484	0.089562	0.614433
H141	H	0.173661	-0.459432	0.097929
H142	H	0.673661	0.040568	0.597929
H143	H	0.173227	-0.372469	0.151842
H144	H	0.673227	0.127531	0.651842
H145	H	0.131346	-0.384175	0.066066
H146	H	0.631346	0.115825	0.566066
H147	H	-0.186578	-1.092372	0.011348
H148	H	0.313422	-0.592372	0.511348
C149	C	-0.824847	-1.108695	-0.004899
C150	C	-0.324847	-0.608695	0.495101
H151	H	-0.789896	-1.142609	-0.038779
H152	H	-0.289896	-0.642609	0.461221
H153	H	-0.855770	-1.078588	-0.039776
H154	H	-0.355770	-0.578588	0.460224
H155	H	-0.855751	-1.143547	0.025254
H156	H	-0.355751	-0.643547	0.525254
C157	C	-0.069793	-0.849448	-0.287424
C158	C	0.430207	-0.349448	0.212576
H159	H	-0.098066	-0.828756	-0.331235
H160	H	0.401934	-0.328756	0.168765
H161	H	-0.053765	-0.803629	-0.248452
H162	H	0.446235	-0.303629	0.251548
H163	H	-0.100588	-0.886188	-0.259373
H164	H	0.399412	-0.386188	0.240627
H165	H	0.071638	-1.102825	-0.471460
H166	H	0.571638	-0.602825	0.028540
C167	C	-0.144601	-0.988904	-0.464084
C168	C	0.355399	-0.488904	0.035916
H169	H	-0.145280	-0.987111	-0.523244
H170	H	0.354720	-0.487111	-0.023244
H171	H	-0.145716	-0.933193	-0.436284
H172	H	0.354284	-0.433193	0.063716
H173	H	-0.187596	-1.018962	-0.447993
H174	H	0.312404	-0.518962	0.052007
C175	C	-0.069669	-0.587833	-0.024737
C176	C	0.430331	-0.087833	0.475263
H177	H	-0.098380	-0.544343	-0.045410
H178	H	0.401620	-0.044343	0.454590
H179	H	-0.100082	-0.616118	0.012164
H180	H	0.399918	-0.116118	0.512164
H181	H	-0.053492	-0.626717	-0.070565
H182	H	0.446508	-0.126717	0.429435
H183	H	-0.051898	-0.434215	-0.015033
H184	H	0.448102	0.065785	0.484967
H185	H	0.075155	-0.402915	0.226136
H186	H	0.575155	0.097085	0.726136
C187	C	0.068914	-0.426288	-0.027647
C188	C	0.568914	0.073712	0.472353
H189	H	0.098001	-0.386463	0.007359
H190	H	0.598001	0.113537	0.507359
H191	H	0.052381	-0.401743	-0.075845
H192	H	0.552381	0.098257	0.424155
H193	H	0.099096	-0.474341	-0.044802
H194	H	0.599096	0.025659	0.455198
C195	C	0.069689	-0.587087	-0.025043
C196	C	0.569689	-0.087087	0.474957
H197	H	0.097959	-0.543279	-0.045729
H198	H	0.597959	-0.043279	0.454271
H199	H	0.053661	-0.626057	-0.070866
H200	H	0.553661	-0.126057	0.429134
H201	H	0.100485	-0.615142	0.011701
H202	H	0.600485	-0.115142	0.511701
H203	H	-0.076563	-0.547108	0.228485
H204	H	0.423437	-0.047108	0.728485
C205	C	0.143960	-0.990781	-0.305869
C206	C	0.643960	-0.490781	0.194131
H207	H	0.130048	-0.945121	-0.265572
H208	H	0.630048	-0.445121	0.234428
H209	H	0.172191	-0.970220	-0.349767
H210	H	0.672191	-0.470220	0.150233
H211	H	0.173966	-1.029538	-0.279491
H212	H	0.673966	-0.529538	0.220509
C213	C	0.075458	-0.550884	0.253361
C214	C	0.575458	-0.050884	0.753361
H215	H	0.033058	-0.584155	0.265134
H216	H	0.533058	-0.084155	0.765134
H217	H	0.074789	-0.499597	0.289667
H218	H	0.574789	0.000403	0.789667
H219	H	0.120758	-0.580693	0.262122
H220	H	0.620758	-0.080693	0.762122
H221	H	0.051483	-0.862234	-0.296643
H222	H	0.551483	-0.362234	0.203357
H223	H	0.125340	-0.560182	0.129859
H224	H	0.625340	-0.060182	0.629859
C225	C	-0.144890	-0.407046	0.120370
C226	C	0.355110	0.092954	0.620370
H227	H	-0.132878	-0.377215	0.074020
H228	H	0.367122	0.122785	0.574020
H229	H	-0.172958	-0.371569	0.160771
H230	H	0.327042	0.128431	0.660771
H231	H	-0.174241	-0.455237	0.101352
H232	H	0.325759	0.044763	0.601352
C233	C	-0.076440	-1.124202	-0.482921
C234	C	0.423560	-0.624202	0.017079
H235	H	-0.076505	-1.123413	-0.542221
H236	H	0.423495	-0.623413	-0.042221
H237	H	-0.121613	-1.149987	-0.466324
H238	H	0.378387	-0.649987	0.033676
H239	H	-0.033928	-1.155217	-0.467106
H240	H	0.466072	-0.655217	0.032894
C241	C	-0.144070	-0.568624	0.116247
C242	C	0.355930	-0.068624	0.616247
H243	H	-0.130154	-0.608924	0.070591
H244	H	0.369846	-0.108924	0.570591
H245	H	-0.172305	-0.524726	0.095679
H246	H	0.327695	-0.024726	0.595679
H247	H	-0.174073	-0.594999	0.155000
H248	H	0.325927	-0.094999	0.655000
H249	H	0.125649	-1.005401	-0.460236
H250	H	0.625649	-0.505401	0.039764
C251	C	-0.071934	-0.391897	0.251991
C252	C	0.428066	0.108103	0.751991
H253	H	-0.029046	-0.356183	0.260991
H254	H	0.470954	0.143817	0.760991
H255	H	-0.070353	-0.433566	0.289811
H256	H	0.429647	0.066434	0.789811
H257	H	-0.116803	-0.359457	0.261419
H258	H	0.383197	0.140543	0.761419
C259	C	0.069871	-0.846639	-0.446796
C260	C	0.569871	-0.346639	0.053204
H261	H	0.099395	-0.881388	-0.486406
H262	H	0.599395	-0.381388	0.013594
H263	H	0.099478	-0.829806	-0.398219
H264	H	0.599478	-0.329806	0.101781
H265	H	0.053700	-0.798230	-0.471232
H266	H	0.553700	-0.298230	0.028768
H267	H	-0.051035	-0.859630	-0.441355
H268	H	0.448965	-0.359630	0.058645
C269	C	-0.075574	-1.127848	-0.323628
C270	C	0.424426	-0.627848	0.176372
H271	H	-0.033173	-1.139631	-0.290353
H272	H	0.466827	-0.639631	0.209647
H273	H	-0.074910	-1.164154	-0.374915
H274	H	0.425090	-0.664154	0.125085
H275	H	-0.120874	-1.136598	-0.293823
H276	H	0.379126	-0.636598	0.206177
H277	H	0.076446	-1.103008	-0.327391
H278	H	0.576446	-0.603008	0.172609
