data_functionalizedCrystal
_audit_creation_method	'MofGen! by Chris Wilmer'
_symmetry_space_group_name_H-M	'P1'
_symmetry_Int_Tables_number	1
_symmetry_cell_setting	triclinic
loop_
_symmetry_equiv_pos_as_xyz
  x,y,z
_cell_length_a	12.759401
_cell_length_b	13.897448
_cell_length_c	12.759393
_cell_angle_alpha	89.966654
_cell_angle_beta	89.981504
_cell_angle_gamma	90.017853
loop_
_atom_site_label
_atom_site_type_symbol
_atom_site_fract_x
_atom_site_fract_y
_atom_site_fract_z
Zn1	Zn	1.606234	-0.383954	-0.593968
Zn2	Zn	1.606119	-0.545283	-0.418283
Zn3	Zn	1.430536	-0.384004	-0.418308
Zn4	Zn	1.430515	-0.545209	-0.593924
O5	O	1.518351	-0.464613	-0.506121
O6	O	1.753239	-0.405365	-0.570671
O7	O	1.582788	-0.523942	-0.271265
O8	O	1.453899	-0.249016	-0.441638
O9	O	1.753155	-0.523893	-0.441596
O10	O	1.582983	-0.248979	-0.570695
O11	O	1.453788	-0.405451	-0.271283
O12	O	1.283512	-0.405379	-0.441596
O13	O	1.453864	-0.523766	-0.740951
O14	O	1.283497	-0.523815	-0.570621
O15	O	1.582964	-0.405293	-0.740984
O16	O	1.582768	-0.680255	-0.441554
O17	O	1.453753	-0.680201	-0.570597
C18	C	1.245383	-0.464595	-0.506107
C19	C	1.128607	-0.464611	-0.506125
C20	C	1.073764	-0.526379	-0.573198
C21	C	0.964040	-0.526391	-0.573209
C22	C	0.964011	-0.402864	-0.439067
C23	C	1.073733	-0.402847	-0.439062
C24	C	1.128638	-0.588142	-0.640261
C25	C	1.073796	-0.649917	-0.707338
C26	C	0.964072	-0.649929	-0.707349
C27	C	0.909190	-0.588167	-0.640284
C28	C	1.518274	-0.715227	-0.506090
C29	C	1.518337	-0.822441	-0.506113
C30	C	1.518448	-1.018736	-0.506178
C31	C	1.518383	-0.909503	-0.506145
C32	C	1.792384	-0.464631	-0.506136
C33	C	1.909161	-0.464639	-0.506142
C34	C	1.518424	-0.464515	-0.780154
C35	C	1.518456	-0.464474	-0.896931
C36	C	1.518456	-0.213020	-0.506174
C37	C	1.518501	-0.105806	-0.506197
C38	C	1.585687	-0.402779	-0.951812
C39	C	1.585712	-0.402744	-1.061536
C40	C	1.451271	-0.526107	-1.061489
C41	C	1.451242	-0.526137	-0.951767
C42	C	1.652901	-0.341116	-0.896976
C43	C	1.720139	-0.279417	-0.951856
C44	C	1.720164	-0.279382	-1.061580
C45	C	1.652951	-0.341046	-1.116424
C46	C	1.518338	-0.464640	-0.233154
C47	C	1.518510	-0.464410	-0.116377
H48	H	0.919317	-0.352581	-0.384465
H49	H	1.774854	-0.229206	-0.907196
O50	O	1.785517	-0.219579	-1.115011
C51	C	1.853381	-0.274483	-1.178454
H52	H	1.816299	-0.347575	-1.194867
H53	H	1.867492	-0.235170	-1.255623
H54	H	1.931227	-0.285099	-1.136175
H55	H	1.118386	-0.352543	-0.384454
H56	H	1.118488	-0.700195	-0.761947
O57	O	1.386044	-0.586145	-1.114645
C58	C	1.408975	-0.682291	-1.087822
H59	H	1.449338	-0.684313	-1.008156
H60	H	1.333133	-0.725541	-1.084053
H61	H	1.462997	-0.714767	-1.149565
O62	O	0.910750	-0.709791	-0.772619
C63	C	0.847300	-0.654961	-0.840574
H64	H	0.880382	-0.578994	-0.847212
H65	H	0.846083	-0.689941	-0.921359
H66	H	0.764131	-0.651614	-0.808105
H67	H	1.396480	-0.576359	-0.907082
O68	O	1.653095	-0.341145	-0.790391
C69	C	1.753773	-0.365965	-0.753772
H70	H	1.814288	-0.349480	-0.817037
H71	H	1.772482	-0.322477	-0.680392
H72	H	1.755959	-0.446005	-0.734277
O73	O	1.652974	-0.341190	-1.223010
C74	C	1.679949	-0.433622	-1.259643
H75	H	1.661963	-0.489199	-1.196393
H76	H	1.632568	-0.450744	-1.333037
H77	H	1.767126	-0.435667	-1.279120
H78	H	0.819845	-0.588173	-0.640308
O79	O	1.235223	-0.588223	-0.640417
C80	C	1.271899	-0.655998	-0.713968
H81	H	1.208694	-0.669584	-0.775333
H82	H	1.345329	-0.626930	-0.753885
H83	H	1.291333	-0.726282	-0.672165
