data_functionalizedCrystal
_audit_creation_method	'MofGen! by Chris Wilmer'
_symmetry_space_group_name_H-M	'P1'
_symmetry_Int_Tables_number	1
_symmetry_cell_setting	triclinic
loop_
_symmetry_equiv_pos_as_xyz
  x,y,z
_cell_length_a	10.654562
_cell_length_b	19.188924
_cell_length_c	9.130313
_cell_angle_alpha	89.996698
_cell_angle_beta	89.996930
_cell_angle_gamma	83.816034
loop_
_atom_site_label
_atom_site_type_symbol
_atom_site_fract_x
_atom_site_fract_y
_atom_site_fract_z
O1	O	1.665745	0.098101	-0.121903
O2	O	1.300070	0.107435	-0.121886
O3	O	1.493464	0.001181	-0.121878
O4	O	1.472350	0.204355	-0.121911
O5	O	1.493462	0.001184	0.121721
O6	O	1.300068	0.107438	0.121713
O7	O	1.665742	0.098104	0.121696
Cu8	Cu	1.482905	0.102771	0.143947
Cu9	Cu	1.482908	0.102768	-0.144137
O10	O	1.472348	0.204357	0.121688
C11	C	1.253286	0.106749	-0.000084
C12	C	1.113887	0.104693	-0.000076
C13	C	1.048375	0.103736	0.132698
C14	C	0.917394	0.101809	0.132674
C15	C	0.917447	0.101801	-0.132911
C16	C	1.048427	0.103722	-0.132885
C17	C	1.048343	0.103744	0.286032
C18	C	0.917362	0.101817	0.286007
C19	C	1.492781	-0.024833	-0.000077
C20	C	1.490733	-0.102351	-0.000073
C21	C	1.489778	-0.138758	-0.132859
C22	C	1.487836	-0.211593	-0.132870
C23	C	1.486873	-0.248021	-0.000087
C24	C	1.487821	-0.211605	0.132716
C25	C	1.489751	-0.138770	0.132724
N26	N	1.555305	-0.367234	0.098736
N27	N	1.553474	-0.436424	0.098720
C28	C	1.481057	-0.467468	-0.000101
N29	N	1.410554	-0.426709	-0.098928
N30	N	1.412391	-0.357513	-0.098917
C31	C	1.484780	-0.326998	-0.000080
C32	C	1.477994	-0.582851	-0.132908
C33	C	1.476044	-0.655688	-0.132914
C34	C	1.476042	-0.655699	0.132676
C35	C	1.477979	-0.582863	0.132678
C36	C	1.478961	-0.546444	-0.000118
C37	C	1.712527	0.098790	-0.000109
C38	C	1.851925	0.100846	-0.000126
C39	C	1.473031	0.230372	-0.000116
C40	C	1.475080	0.307890	-0.000130
N41	N	1.482912	0.102773	0.346570
N42	N	1.482910	0.102760	-0.346759
C43	C	1.568568	0.055740	0.423225
C44	C	1.568565	0.055732	0.576562
C45	C	1.397245	0.149795	0.576574
C46	C	1.397243	0.149800	0.423240
C47	C	1.667483	0.001435	0.423219
C48	C	1.667480	0.001427	0.576556
H49	H	1.101764	0.104491	-0.241003
H50	H	1.758305	0.018442	0.375653
H51	H	1.647178	-0.052229	0.381609
H52	H	1.638042	-0.049286	0.624113
N53	N	1.475099	-0.694944	-0.276164
H54	H	1.397643	-0.676989	-0.334282
H55	H	1.553352	-0.687509	-0.334009
H56	H	1.763737	0.013392	0.618166
H57	H	1.327495	0.188083	0.639016
H58	H	0.864133	0.101011	-0.241039
N59	N	1.475015	-0.694981	0.275893
H60	H	1.475919	-0.660862	0.360017
H61	H	1.396383	-0.719918	0.281681
H62	H	1.095625	0.055494	0.344923
N63	N	1.086103	0.171190	0.349031
H64	H	1.008010	0.202365	0.379456
H65	H	1.142104	0.160338	0.437155
H66	H	1.327484	0.188091	0.360829
H67	H	0.870052	0.150069	0.344864
H68	H	1.478767	-0.553221	0.240807
H69	H	0.888853	0.050900	0.333595
H70	H	1.490574	-0.109110	-0.240992
N71	N	1.486797	-0.250872	-0.276094
H72	H	1.487708	-0.216748	-0.360216
H73	H	1.563827	-0.286374	-0.281875
H74	H	1.487034	-0.241269	0.240829
H75	H	1.490523	-0.109128	0.240857
H76	H	1.478787	-0.553197	-0.241039
