data_functionalizedCrystal
_audit_creation_method	'MofGen! by Chris Wilmer'
_symmetry_space_group_name_H-M	'P1'
_symmetry_Int_Tables_number	1
_symmetry_cell_setting	triclinic
loop_
_symmetry_equiv_pos_as_xyz
  x,y,z
_cell_length_a	27.732064
_cell_length_b	10.654562
_cell_length_c	9.130313
_cell_angle_alpha	89.996930
_cell_angle_beta	90.002876
_cell_angle_gamma	83.569764
loop_
_atom_site_label
_atom_site_type_symbol
_atom_site_fract_x
_atom_site_fract_y
_atom_site_fract_z
O1	O	0.067912	1.664980	-0.121881
O2	O	0.074374	1.299233	-0.121861
O3	O	0.000818	1.493455	-0.121877
O4	O	0.141468	1.470758	-0.121865
O5	O	0.000820	1.493453	0.121722
O6	O	0.074376	1.299231	0.121738
O7	O	0.067914	1.664978	0.121718
Cu8	Cu	0.071145	1.482104	0.143970
Cu9	Cu	0.071143	1.482107	-0.144113
O10	O	0.141470	1.470756	0.121734
C11	C	0.073899	1.252454	-0.000059
C12	C	0.072476	1.113071	-0.000053
C13	C	0.071813	1.047567	0.132722
C14	C	0.070480	0.916601	0.132697
C15	C	0.070474	0.916654	-0.132888
C16	C	0.071804	1.047619	-0.132862
C17	C	0.071818	1.047535	0.286055
C18	C	0.070485	0.916568	0.286031
C19	C	-0.017191	1.492974	-0.000082
C20	C	-0.070854	1.491530	-0.000096
C21	C	-0.448705	1.366923	-0.000095
C22	C	-0.247012	1.372238	-0.000097
O23	O	-0.216363	1.275547	-0.000151
N24	N	-0.227165	1.487408	-0.000104
C25	C	-0.257745	1.601258	-0.000119
O26	O	-0.236236	1.699339	-0.000140
C27	C	-0.459438	1.595941	-0.000127
C28	C	-0.479282	1.480763	-0.000106
C29	C	-0.468550	1.251754	-0.000076
C30	C	-0.518970	1.250427	-0.000067
C31	C	-0.549546	1.364267	-0.000078
C32	C	-0.529702	1.479436	-0.000098
C33	C	-0.490017	1.709789	-0.000153
C34	C	-0.540443	1.708449	-0.000159
C35	C	-0.560287	1.593272	-0.000138
C36	C	-0.610699	1.591948	-0.000100
N37	N	-0.630545	1.476778	-0.000094
C38	C	-0.599969	1.362938	-0.000083
C39	C	-0.151853	1.604041	-0.000112
C40	C	-0.101431	1.605371	-0.000107
C41	C	-0.090701	1.376351	-0.000088
C42	C	-0.141125	1.375022	-0.000082
C43	C	-0.171700	1.488871	-0.000105
C44	C	-0.705856	1.360158	-0.000064
C45	C	-0.756281	1.358841	-0.000049
C46	C	-0.767007	1.587860	-0.000076
C47	C	-0.716586	1.589178	-0.000083
C48	C	-0.686011	1.475317	-0.000081
O49	O	-0.641376	1.688588	-0.000063
O50	O	-0.621487	1.264871	-0.000095
C51	C	-0.398285	1.368250	-0.000104
C52	C	-0.378441	1.483419	-0.000123
C53	C	-0.409017	1.597259	-0.000134
C54	C	-0.328018	1.484748	-0.000118
C55	C	-0.297442	1.370908	-0.000107
C56	C	-0.317288	1.255738	-0.000101
C57	C	-0.367709	1.254410	-0.000093
C58	C	-0.389170	1.712429	-0.000140
C59	C	-0.338749	1.713747	-0.000147
C60	C	-0.308173	1.599907	-0.000136
C61	C	0.159479	1.471237	-0.000064
C62	C	0.213143	1.472681	-0.000060
C63	C	0.068389	1.711757	-0.000087
C64	C	0.069812	1.851140	-0.000103
N65	N	0.071147	1.482111	0.346593
N66	N	0.071138	1.482110	-0.346736
C67	C	0.038587	1.568134	0.423238
C68	C	0.038581	1.568131	0.576575
C69	C	0.103699	1.396078	0.576608
C70	C	0.103702	1.396076	0.423274
C71	C	0.000994	1.667472	0.423220
C72	C	0.000988	1.667468	0.576556
H73	H	0.035236	0.888456	0.333607
H74	H	0.009271	1.763632	0.618169
H75	H	0.069927	0.863346	-0.241016
N76	N	-0.059470	1.260052	-0.000073
N77	N	-0.061502	1.183218	0.102604
H78	H	-0.039444	1.101085	0.102607
H79	H	0.072336	1.100950	-0.240979
H80	H	-0.034119	1.638426	0.624102
H81	H	0.130204	1.326029	0.639059
N82	N	-0.045606	1.642481	0.371015
N83	N	-0.078440	1.624866	0.459979
H84	H	-0.111348	1.607199	0.423111
N85	N	0.029923	1.107333	0.359937
N86	N	0.022471	1.081629	0.491005
H87	H	-0.007116	1.123862	0.543185
N88	N	0.116041	1.082774	0.345736
N89	N	0.148046	0.999646	0.390411
H90	H	0.179280	1.024533	0.432555
N91	N	-0.696303	1.706812	-0.000079
N92	N	-0.669356	1.733103	0.102589
H93	H	-0.655033	1.816182	0.102581
N94	N	0.112383	0.856650	0.359818
N95	N	0.119876	0.882197	0.490905
H96	H	0.149465	0.839847	0.542989
N97	N	0.015768	1.781246	0.363582
N98	N	-0.007837	1.885233	0.392313
H99	H	0.002603	1.965585	0.350202
H100	H	-0.772435	1.265045	-0.000025
N101	N	-0.469749	1.827432	-0.000168
N102	N	-0.442810	1.853752	0.102506
H103	H	-0.428496	1.936844	0.102496
N104	N	-0.286058	1.139438	-0.000082
N105	N	-0.288089	1.062611	0.102602
H106	H	-0.266032	0.980478	0.102609
N107	N	-0.674637	1.243843	-0.000075
N108	N	-0.692370	1.141030	-0.000062
H109	H	-0.670322	1.058881	-0.000065
N110	N	-0.571667	1.824758	-0.000191
N111	N	-0.553939	1.927576	-0.000212
H112	H	-0.575990	2.009721	-0.000232
N113	N	0.136959	1.308220	0.344960
N114	N	0.136960	1.308232	0.208056
H115	H	0.160450	1.246182	0.152744
H116	H	-0.535122	1.156637	-0.000062
H117	H	-0.443659	1.159046	-0.000071
N118	N	-0.081172	1.723033	-0.000095
N119	N	-0.108483	1.824661	-0.000104
H120	H	-0.094178	1.907766	-0.000100
H121	H	-0.157278	1.281235	-0.000059
N122	N	-0.183075	1.720355	-0.000140
N123	N	-0.165343	1.823167	-0.000147
H124	H	-0.187391	1.905316	-0.000163
N125	N	-0.798252	1.704128	-0.000078
N126	N	-0.843270	1.702911	-0.000077
H127	H	-0.865339	1.785027	-0.000087
N128	N	-0.387967	1.136747	-0.000065
N129	N	-0.360653	1.035121	-0.000053
H130	H	-0.374957	0.952014	-0.000035
N131	N	-0.318483	1.831408	-0.000196
N132	N	-0.291552	1.857695	-0.102899
H133	H	-0.277240	1.940791	-0.102946
H134	H	-0.414061	1.805134	-0.000151
