data_functionalizedCrystal
_audit_creation_method	'MofGen! by Chris Wilmer'
_symmetry_space_group_name_H-M	'P1'
_symmetry_Int_Tables_number	1
_symmetry_cell_setting	triclinic
loop_
_symmetry_equiv_pos_as_xyz
  x,y,z
_cell_length_a	10.686285
_cell_length_b	10.685727
_cell_length_c	19.805399
_cell_angle_alpha	94.383215
_cell_angle_beta	85.610534
_cell_angle_gamma	99.060155
loop_
_atom_site_label
_atom_site_type_symbol
_atom_site_fract_x
_atom_site_fract_y
_atom_site_fract_z
Zn1	Zn	-0.654427	-1.979477	-0.437095
Zn2	Zn	-0.866682	-1.995674	-0.315863
Zn3	Zn	-0.638157	-1.767213	-0.315877
Zn4	Zn	-0.850316	-1.783493	-0.420975
O5	O	-0.752395	-1.881464	-0.372453
O6	O	-0.696241	-2.159257	-0.427753
O7	O	-0.836407	-1.965333	-0.221146
O8	O	-0.462696	-1.781778	-0.338708
O9	O	-0.852184	-2.171157	-0.338685
O10	O	-0.474650	-1.937728	-0.427766
O11	O	-0.668511	-1.797484	-0.221156
O12	O	-0.652642	-1.591740	-0.323078
O13	O	-0.824291	-1.809525	-0.517833
O14	O	-0.808514	-1.603701	-0.400294
O15	O	-0.680372	-1.953514	-0.529676
O16	O	-1.042130	-1.981119	-0.323055
O17	O	-1.030106	-1.825231	-0.400280
C18	C	-0.727038	-1.551663	-0.359939
C19	C	-0.716220	-1.410575	-0.354600
C20	C	-1.082175	-1.906733	-0.359933
C21	C	-1.223265	-1.917660	-0.354604
C22	C	-0.421331	-1.856131	-0.385037
C23	C	-0.280250	-1.845335	-0.390400
C24	C	-0.752321	-1.881529	-0.549001
C25	C	-0.752289	-1.881557	-0.624236
C26	C	-0.777839	-1.212552	-0.385013
C27	C	-0.788646	-1.353639	-0.390358
C28	C	-0.677347	-1.956533	-0.665748
C29	C	-0.677311	-1.956543	-0.736438
C30	C	-0.752225	-1.881583	-0.765615
C31	C	-0.827171	-1.806598	-0.724098
C32	C	-0.827199	-1.806582	-0.653409
C33	C	-0.827058	-1.806661	-1.009178
C34	C	-0.827027	-1.806685	-1.079873
C35	C	-0.677170	-1.956622	-1.092208
C36	C	-0.677198	-1.956606	-1.021519
C37	C	-0.752138	-1.881616	-0.980007
C38	C	-0.752174	-1.881604	-0.903357
C39	C	-0.752197	-1.881601	-0.842264
C40	C	-0.752383	-1.881465	-0.196597
C41	C	-0.752077	-1.881656	-0.121386
H42	H	-0.858920	-1.412829	-0.425060
H43	H	-0.645930	-1.351377	-0.319901
F44	F	-1.202939	-1.753474	-0.435787
F45	F	-1.300581	-2.009513	-0.309208
F46	F	-0.597593	-2.036391	-0.780615
F47	F	-0.597618	-2.036325	-0.634702
H48	H	-0.616199	-2.017651	-0.997767
F49	F	-0.597407	-2.036429	-1.136393
H50	H	-0.888033	-1.745638	-1.103626
H51	H	-0.888098	-1.745619	-0.975388
F52	F	-0.906895	-1.726814	-0.755152
F53	F	-0.906959	-1.726778	-0.609228
