data_functionalizedCrystal
_audit_creation_method	'MofGen! by Chris Wilmer'
_symmetry_space_group_name_H-M	'P1'
_symmetry_Int_Tables_number	1
_symmetry_cell_setting	triclinic
loop_
_symmetry_equiv_pos_as_xyz
  x,y,z
_cell_length_a	12.837943
_cell_length_b	17.038272
_cell_length_c	11.892095
_cell_angle_alpha	94.170821
_cell_angle_beta	85.689438
_cell_angle_gamma	92.970248
loop_
_atom_site_label
_atom_site_type_symbol
_atom_site_fract_x
_atom_site_fract_y
_atom_site_fract_z
O1	O	1.399724	0.200065	-0.093986
O2	O	1.097028	0.189958	-0.093992
O3	O	1.246576	0.081062	-0.093980
O4	O	1.250175	0.308961	-0.093998
O5	O	1.234106	0.090126	0.094026
O6	O	1.084557	0.199022	0.094014
O7	O	1.387254	0.209129	0.094021
Zn8	Zn	1.233926	0.205514	0.123868
Zn9	Zn	1.250356	0.193572	-0.123839
O10	O	1.237705	0.318025	0.094009
C11	C	1.051871	0.191076	0.000010
C12	C	0.935896	0.180893	0.000008
C13	C	1.237069	0.056221	0.000023
C14	C	1.227305	-0.031301	0.000022
C15	C	0.705733	0.303310	0.000015
C16	C	0.596764	0.293746	0.000013
C17	C	0.608986	0.152201	0.000012
C18	C	0.717955	0.161765	0.000014
C19	C	0.766325	0.237322	0.000013
C20	C	0.875296	0.246885	0.000006
C21	C	0.887516	0.105342	0.000013
C22	C	0.778547	0.095777	0.000012
C23	C	1.316945	-0.074719	0.000026
C24	C	1.307766	-0.156956	0.000015
C25	C	1.208945	-0.195773	0.000009
C26	C	1.119299	-0.152349	0.000002
C27	C	1.128480	-0.070114	0.000005
C28	C	1.176511	-0.443954	-0.000008
C29	C	1.167337	-0.526195	-0.000007
C30	C	1.355805	-0.530796	0.000003
C31	C	1.364977	-0.448559	0.000013
C32	C	1.275331	-0.405143	0.000001
C33	C	1.199560	-0.279832	0.000001
C34	C	1.284718	-0.321086	0.000000
C35	C	1.432411	0.208011	0.000016
C36	C	1.548386	0.218194	0.000011
C37	C	1.247213	0.342865	0.000003
C38	C	1.256977	0.430387	-0.000004
N39	N	1.222720	0.213665	0.292921
N40	N	1.261569	0.185416	-0.292892
C41	C	1.339540	0.128657	0.529578
C42	C	1.331715	0.134361	0.647919
C43	C	1.199241	0.230770	0.647947
C44	C	1.207066	0.225067	0.529605
C45	C	1.277219	0.174010	0.470425
C46	C	1.285048	0.168311	0.352082
C47	C	1.152569	0.264716	0.352111
C48	C	1.144745	0.270419	0.470453
H49	H	0.914677	0.308407	0.000008
O50	O	1.069093	0.325495	0.534283
H51	H	1.011888	0.291174	0.588221
H52	H	1.119099	-0.311445	-0.000001
O53	O	1.123564	0.285818	0.711793
H54	H	1.081528	0.316391	0.650782
O55	O	0.952871	0.034164	0.000023
H56	H	0.939973	-0.005298	-0.076608
H57	H	0.745116	0.364831	0.000012
O58	O	1.031796	-0.023281	0.000003
H59	H	1.026393	0.017991	0.076628
H60	H	1.365179	-0.289479	-0.000020
H61	H	1.086860	-0.557796	0.000006
O62	O	1.085337	0.313632	0.288314
H63	H	1.102556	0.301087	0.196081
O64	O	0.556804	0.070714	0.000021
H65	H	0.575565	0.042312	0.076656
O66	O	0.531408	0.364919	0.000022
H67	H	0.486542	0.360256	-0.076600
O68	O	1.415174	0.073578	0.465728
H69	H	1.472381	0.107897	0.411789
H70	H	1.342172	0.126740	0.303898
H71	H	1.038837	-0.183960	-0.000010
O72	O	0.726376	0.014286	0.000013
H73	H	0.640423	0.018720	0.000008
O74	O	1.398948	0.085453	0.711717
H75	H	1.381755	0.022009	0.689004
O76	O	1.423534	-0.032858	0.000019
H77	H	1.461884	-0.046061	0.076640
O78	O	1.404446	-0.203787	0.000037
H79	H	1.474702	-0.162979	0.000062
O80	O	1.079818	-0.397137	0.000007
H81	H	1.037942	-0.415515	-0.076613
O82	O	1.471563	-0.406693	-0.000008
H83	H	1.532357	-0.450701	-0.000025
O84	O	1.452493	-0.577621	0.000009
H85	H	1.429513	-0.641326	-0.000001
