data_functionalizedCrystal
_audit_creation_method	'MofGen! by Chris Wilmer'
_symmetry_space_group_name_H-M	'P1'
_symmetry_Int_Tables_number	1
_symmetry_cell_setting	triclinic
loop_
_symmetry_equiv_pos_as_xyz
  x,y,z
_cell_length_a	13.897449
_cell_length_b	18.215405
_cell_length_c	18.215399
_cell_angle_alpha	90.032960
_cell_angle_beta	89.984477
_cell_angle_gamma	89.973835
loop_
_atom_site_label
_atom_site_type_symbol
_atom_site_fract_x
_atom_site_fract_y
_atom_site_fract_z
Zn1	Zn	1.474605	0.292949	-0.416077
Zn2	Zn	1.724605	0.542949	-0.166077
Zn3	Zn	1.974605	0.792949	0.083923
Zn4	Zn	2.224605	1.042949	0.333923
Zn5	Zn	1.474493	0.416026	-0.293005
Zn6	Zn	1.724493	0.666026	-0.043005
Zn7	Zn	1.974493	0.916026	0.206995
Zn8	Zn	2.224493	1.166026	0.456995
Zn9	Zn	1.313309	0.292980	-0.293027
Zn10	Zn	1.563309	0.542980	-0.043027
Zn11	Zn	1.813309	0.792980	0.206973
Zn12	Zn	2.063309	1.042980	0.456973
Zn13	Zn	1.313255	0.415981	-0.416033
Zn14	Zn	1.563255	0.665981	-0.166033
Zn15	Zn	1.813255	0.915981	0.083967
Zn16	Zn	2.063255	1.165981	0.333967
O17	O	1.393916	0.354484	-0.354536
O18	O	1.643916	0.604484	-0.104536
O19	O	1.893916	0.854484	0.145464
O20	O	2.143916	1.104484	0.395464
O21	O	1.609572	0.309281	-0.399761
O22	O	1.859572	0.559281	-0.149761
O23	O	2.109572	0.809281	0.100239
O24	O	2.359572	1.059281	0.350239
O25	O	1.453087	0.399735	-0.190024
O26	O	1.703087	0.649735	0.059976
O27	O	1.953087	0.899735	0.309976
O28	O	2.203087	1.149735	0.559976
O29	O	1.334774	0.189992	-0.309378
O30	O	1.584774	0.439992	-0.059378
O31	O	1.834774	0.689992	0.190622
O32	O	2.084774	0.939992	0.440622
O33	O	1.609490	0.399705	-0.309340
O34	O	1.859490	0.649705	-0.059340
O35	O	2.109490	0.899705	0.190660
O36	O	2.359490	1.149705	0.440660
O37	O	1.453277	0.189969	-0.399782
O38	O	1.703277	0.439969	-0.149782
O39	O	1.953277	0.689969	0.100218
O40	O	2.203277	0.939969	0.350218
O41	O	1.334666	0.309334	-0.190040
O42	O	1.584666	0.559334	0.059960
O43	O	1.834666	0.809334	0.309960
O44	O	2.084666	1.059334	0.559960
O45	O	1.178320	0.309291	-0.309335
O46	O	1.428320	0.559291	-0.059335
O47	O	1.678320	0.809291	0.190665
O48	O	1.928320	1.059291	0.440665
O49	O	1.334683	0.399629	-0.519023
O50	O	1.584683	0.649629	-0.269023
O51	O	1.834683	0.899629	-0.019023
O52	O	2.084683	1.149629	0.230977
O53	O	1.178281	0.399659	-0.399707
O54	O	1.428281	0.649659	-0.149707
O55	O	1.678281	0.899659	0.100293
O56	O	1.928281	1.149659	0.350293
O57	O	1.453226	0.309238	-0.519055
O58	O	1.703226	0.559238	-0.269055
O59	O	1.953226	0.809238	-0.019055
O60	O	2.203226	1.059238	0.230945
O61	O	1.453036	0.519004	-0.309297
O62	O	1.703036	0.769004	-0.059297
O63	O	1.953036	1.019004	0.190703
O64	O	2.203036	1.269004	0.440703
O65	O	1.334575	0.518971	-0.399685
O66	O	1.584575	0.768971	-0.149685
O67	O	1.834575	1.018971	0.100315
O68	O	2.084575	1.268971	0.350315
C69	C	1.393814	0.545690	-0.354500
C70	C	1.643814	0.795690	-0.104500
C71	C	1.893814	1.045690	0.145500
C72	C	2.143814	1.295690	0.395500
C73	C	1.393858	0.627489	-0.354510
C74	C	1.643858	0.877489	-0.104510
C75	C	1.893858	1.127489	0.145490
C76	C	2.143858	1.377489	0.395490
C77	C	1.143301	0.354474	-0.354519
C78	C	1.393301	0.604474	-0.104519
C79	C	1.643301	0.854474	0.145481
C80	C	1.893301	1.104474	0.395481
C81	C	1.036087	0.354488	-0.354529
C82	C	1.286087	0.604488	-0.104529
C83	C	1.536087	0.854488	0.145471
C84	C	1.786087	1.104488	0.395471
C85	C	1.393961	0.354425	-0.546489
C86	C	1.643961	0.604425	-0.296489
C87	C	1.893961	0.854425	-0.046489
C88	C	2.143961	1.104425	0.203511
C89	C	1.393980	0.354400	-0.628288
C90	C	1.643980	0.604400	-0.378288
C91	C	1.893980	0.854400	-0.128288
C92	C	2.143980	1.104400	0.121712
C93	C	0.839792	0.354490	-0.354548
C94	C	1.089792	0.604490	-0.104548
C95	C	1.339792	0.854490	0.145452
C96	C	1.589792	1.104490	0.395452
C97	C	0.949025	0.354487	-0.354536
C98	C	1.199025	0.604487	-0.104536
C99	C	1.449025	0.854487	0.145464
C100	C	1.699025	1.104487	0.395464
C101	C	1.645508	0.354495	-0.354553
C102	C	1.895508	0.604495	-0.104553
C103	C	2.145508	0.854495	0.145447
C104	C	2.395508	1.104495	0.395447
C105	C	1.752722	0.354499	-0.354560
C106	C	2.002722	0.604499	-0.104560
C107	C	2.252722	0.854499	0.145440
C108	C	2.502722	1.104499	0.395440
C109	C	1.394044	0.162531	-0.354587
C110	C	1.644044	0.412531	-0.104587
C111	C	1.894044	0.662531	0.145413
C112	C	2.144044	0.912531	0.395413
C113	C	1.394099	0.080732	-0.354609
C114	C	1.644099	0.330732	-0.104609
C115	C	1.894099	0.580732	0.145391
C116	C	2.144099	0.830732	0.395391
C117	C	1.455686	0.815676	-0.307531
C118	C	1.705686	1.065676	-0.057531
C119	C	1.955686	1.315676	0.192469
C120	C	2.205686	1.565676	0.442469
C121	C	1.455729	0.892534	-0.307549
C122	C	1.705729	1.142534	-0.057549
C123	C	1.955729	1.392534	0.192451
C124	C	2.205729	1.642534	0.442451
C125	C	1.332269	0.892540	-0.401593
C126	C	1.582269	1.142540	-0.151593
C127	C	1.832269	1.392540	0.098407
C128	C	2.082269	1.642540	0.348407
C129	C	1.332231	0.815683	-0.401578
C130	C	1.582231	1.065683	-0.151578
C131	C	1.832231	1.315683	0.098422
C132	C	2.082231	1.565683	0.348422
C133	C	1.393938	0.777253	-0.354543
C134	C	1.643938	1.027253	-0.104543
C135	C	1.893938	1.277253	0.145457
C136	C	2.143938	1.527253	0.395457
C137	C	1.394019	0.930969	-0.354576
C138	C	1.644019	1.180969	-0.104576
C139	C	1.894019	1.430969	0.145424
C140	C	2.144019	1.680969	0.395424
C141	C	1.394065	1.014302	-0.354595
C142	C	1.644065	1.264302	-0.104595
C143	C	1.894065	1.514302	0.145405
C144	C	2.144065	1.764302	0.395405
C145	C	1.393893	0.693914	-0.354524
C146	C	1.643893	0.943914	-0.104524
C147	C	1.893893	1.193914	0.145476
C148	C	2.143893	1.443914	0.395476
C149	C	1.332370	0.307297	-0.816491
C150	C	1.582370	0.557297	-0.566491
C151	C	1.832370	0.807297	-0.316491
C152	C	2.082370	1.057297	-0.066491
C153	C	1.332387	0.307282	-0.893350
C154	C	1.582387	0.557282	-0.643350
C155	C	1.832387	0.807282	-0.393350
C156	C	2.082387	1.057282	-0.143350
C157	C	1.455706	0.401416	-0.893322
C158	C	1.705706	0.651416	-0.643322
C159	C	1.955706	0.901416	-0.393322
C160	C	2.205706	1.151416	-0.143322
C161	C	1.455684	0.401434	-0.816465
C162	C	1.705684	0.651434	-0.566465
C163	C	1.955684	0.901434	-0.316465
C164	C	2.205684	1.151434	-0.066465
C165	C	1.394017	0.354370	-0.778051
C166	C	1.644017	0.604370	-0.528051
C167	C	1.894017	0.854370	-0.278051
C168	C	2.144017	1.104370	-0.028051
C169	C	1.394056	0.354337	-0.931767
C170	C	1.644056	0.604337	-0.681767
C171	C	1.894056	0.854337	-0.431767
C172	C	2.144056	1.104337	-0.181767
C173	C	1.394075	0.354322	-1.015101
C174	C	1.644075	0.604322	-0.765101
C175	C	1.894075	0.854322	-0.515101
C176	C	2.144075	1.104322	-0.265101
C177	C	1.393997	0.354387	-0.694712
C178	C	1.643997	0.604387	-0.444712
C179	C	1.893997	0.854387	-0.194712
C180	C	2.143997	1.104387	0.055288
C181	C	1.393926	0.354490	-0.163329
C182	C	1.643926	0.604490	0.086671
C183	C	1.893926	0.854490	0.336671
C184	C	2.143926	1.104490	0.586671
C185	C	1.394093	0.354307	-0.081531
C186	C	1.644093	0.604307	0.168469
C187	C	1.894093	0.854307	0.418469
C188	C	2.144093	1.104307	0.668469
H189	H	1.505933	0.784387	-0.269234
H190	H	1.755933	1.034387	-0.019234
H191	H	2.005933	1.284387	0.230766
H192	H	2.255933	1.534387	0.480766
N193	N	1.518799	0.931770	-0.259515
N194	N	1.768799	1.181770	-0.009515
N195	N	2.018799	1.431770	0.240485
N196	N	2.268799	1.681770	0.490485
N197	N	1.512452	0.923240	-0.191602
N198	N	1.762452	1.173240	0.058398
N199	N	2.012452	1.423240	0.308398
N200	N	2.262452	1.673240	0.558398
H201	H	1.556999	0.950949	-0.157675
H202	H	1.806999	1.200949	0.092325
H203	H	2.056999	1.450949	0.342325
H204	H	2.306999	1.700949	0.592325
N205	N	1.269248	0.931809	-0.449632
N206	N	1.519248	1.181809	-0.199632
N207	N	1.769248	1.431809	0.050368
N208	N	2.019248	1.681809	0.300368
N209	N	1.269289	1.000431	-0.449640
N210	N	1.519289	1.250431	-0.199640
N211	N	1.769289	1.500431	0.050360
N212	N	2.019289	1.750431	0.300360
H213	H	1.224778	1.028164	-0.483568
H214	H	1.474778	1.278164	-0.233568
H215	H	1.724778	1.528164	0.016432
H216	H	1.974778	1.778164	0.266432
N217	N	1.269168	0.776431	-0.449615
N218	N	1.519168	1.026431	-0.199615
N219	N	1.769168	1.276431	0.050385
N220	N	2.019168	1.526431	0.300385
N221	N	1.275518	0.784960	-0.517528
N222	N	1.525518	1.034960	-0.267528
N223	N	1.775518	1.284960	-0.017528
N224	N	2.025518	1.534960	0.232472
H225	H	1.230985	0.757239	-0.551456
H226	H	1.480985	1.007239	-0.301456
H227	H	1.730985	1.257239	-0.051456
H228	H	1.980985	1.507239	0.198544
H229	H	1.505913	0.439733	-0.924608
H230	H	1.755913	0.689733	-0.674608
H231	H	2.005913	0.939733	-0.424608
H232	H	2.255913	1.189733	-0.174608
H233	H	1.282158	0.268974	-0.785217
H234	H	1.532158	0.518974	-0.535217
H235	H	1.782158	0.768974	-0.285217
H236	H	2.032158	1.018974	-0.035217
N237	N	1.269405	0.259197	-0.932603
N238	N	1.519405	0.509197	-0.682603
N239	N	1.769405	0.759197	-0.432603
N240	N	2.019405	1.009197	-0.182603
N241	N	1.214350	0.217185	-0.898293
N242	N	1.464350	0.467185	-0.648293
N243	N	1.714350	0.717185	-0.398293
N244	N	1.964350	0.967185	-0.148293
H245	H	1.169864	0.183223	-0.926015
H246	H	1.419864	0.433223	-0.676015
H247	H	1.669864	0.683223	-0.426015
H248	H	1.919864	0.933223	-0.176015
H249	H	1.505886	0.439770	-0.785166
H250	H	1.755886	0.689770	-0.535166
H251	H	2.005886	0.939770	-0.285166
H252	H	2.255886	1.189770	-0.035166
