data_functionalizedCrystal
_audit_creation_method	'MofGen! by Chris Wilmer'
_symmetry_space_group_name_H-M	'P1'
_symmetry_Int_Tables_number	1
_symmetry_cell_setting	triclinic
loop_
_symmetry_equiv_pos_as_xyz
  x,y,z
_cell_length_a	12.811457
_cell_length_b	12.837942
_cell_length_c	14.586319
_cell_angle_alpha	89.999397
_cell_angle_beta	84.573922
_cell_angle_gamma	89.411937
loop_
_atom_site_label
_atom_site_type_symbol
_atom_site_fract_x
_atom_site_fract_y
_atom_site_fract_z
O1	O	1.406627	0.139677	-0.040714
O2	O	1.739960	0.473011	0.292620
O3	O	2.073293	0.806344	0.625953
O4	O	1.102566	0.154866	-0.015431
O5	O	1.435899	0.488199	0.317903
O6	O	1.769233	0.821533	0.651236
O7	O	1.247854	-0.003660	-0.027517
O8	O	1.581187	0.329673	0.305816
O9	O	1.914521	0.663007	0.639149
O10	O	1.261339	0.298204	-0.028627
O11	O	1.594672	0.631537	0.304706
O12	O	1.928005	0.964870	0.638040
O13	O	1.247835	-0.003651	-0.179996
O14	O	1.581169	0.329683	0.153337
O15	O	1.914502	0.663016	0.486670
O16	O	1.102547	0.154875	-0.167910
O17	O	1.435881	0.488209	0.165423
O18	O	1.769214	0.821542	0.498757
O19	O	1.406608	0.139687	-0.193193
O20	O	1.739941	0.473020	0.140141
O21	O	2.073275	0.806353	0.473474
Cu22	Cu	1.254576	0.147282	-0.194474
Cu23	Cu	1.587909	0.480615	0.138859
Cu24	Cu	1.921243	0.813949	0.472193
Cu25	Cu	1.254598	0.147271	-0.014150
Cu26	Cu	1.587931	0.480604	0.319184
Cu27	Cu	1.921265	0.813938	0.652517
O28	O	1.261320	0.298213	-0.181106
O29	O	1.594653	0.631546	0.152227
O30	O	1.927986	0.964880	0.485560
C31	C	1.063368	0.154020	-0.088412
C32	C	1.396701	0.487353	0.244921
C33	C	1.730035	0.820686	0.578255
C34	C	0.946597	0.151471	-0.078702
C35	C	1.279930	0.484804	0.254631
C36	C	1.613264	0.818138	0.587964
C37	C	0.727150	0.146672	-0.226709
C38	C	1.060484	0.480006	0.106625
C39	C	1.393817	0.813339	0.439958
C40	C	0.617433	0.144277	-0.217590
C41	C	0.950767	0.477611	0.115743
C42	C	1.284100	0.810944	0.449076
C43	C	0.617445	0.144278	-0.051348
C44	C	0.950778	0.477612	0.281985
C45	C	1.284112	0.810945	0.615318
C46	C	0.727162	0.146673	-0.060467
C47	C	1.060495	0.480007	0.272867
C48	C	1.393828	0.813340	0.606200
C49	C	0.782010	0.147872	-0.148150
C50	C	1.115344	0.481205	0.185184
C51	C	1.448677	0.814539	0.518517
C52	C	0.891729	0.150274	-0.157267
C53	C	1.225062	0.483608	0.176066
C54	C	1.558396	0.816941	0.509400
C55	C	0.891739	0.150268	0.008974
C56	C	1.225072	0.483601	0.342307
C57	C	1.558405	0.816935	0.675641
C58	C	0.782022	0.147873	0.018092
C59	C	1.115355	0.481206	0.351426
C60	C	1.448689	0.814540	0.684759
C61	C	1.243289	-0.042296	-0.103378
C62	C	1.576623	0.291038	0.229956
C63	C	1.909956	0.624371	0.563289
C64	C	1.229704	-0.157431	-0.102246
C65	C	1.563037	0.175902	0.231087
C66	C	1.896370	0.509235	0.564420
C67	C	1.393031	-0.397685	-0.115808
C68	C	1.726364	-0.064352	0.217525
C69	C	2.059698	0.268981	0.550859
C70	C	1.380271	-0.505866	-0.114745
C71	C	1.713604	-0.172533	0.218588
C72	C	2.046937	0.160800	0.551921
C73	C	1.191424	-0.481976	-0.099052
C74	C	1.524757	-0.148643	0.234281
C75	C	1.858090	0.184691	0.567614
C76	C	1.204184	-0.373795	-0.100115
C77	C	1.537517	-0.040462	0.233219
C78	C	1.870851	0.292871	0.566552
C79	C	1.304991	-0.331654	-0.108494
C80	C	1.638324	0.001679	0.224839
C81	C	1.971657	0.335013	0.558172
C82	C	1.317750	-0.223471	-0.109563
C83	C	1.651083	0.109862	0.223770
C84	C	1.984417	0.443196	0.557103
C85	C	1.128904	-0.199583	-0.093864
C86	C	1.462237	0.133750	0.239470
C87	C	1.795571	0.467084	0.572803
C88	C	1.116144	-0.307764	-0.092801
C89	C	1.449477	0.025569	0.240532
C90	C	1.782811	0.358903	0.573866
C91	C	1.445806	0.140533	-0.120210
C92	C	1.779139	0.473866	0.213124
C93	C	2.112473	0.807200	0.546457
C94	C	1.562577	0.143082	-0.129913
C95	C	1.895910	0.476415	0.203420
C96	C	2.229244	0.809748	0.536754
C97	C	1.265884	0.336849	-0.105244
C98	C	1.599218	0.670182	0.228089
C99	C	1.932551	1.003515	0.561423
C100	C	1.279470	0.451984	-0.106369
C101	C	1.612804	0.785318	0.226964
C102	C	1.946137	1.118651	0.560297
N103	N	1.254568	0.147289	-0.321305
N104	N	1.587901	0.480622	0.012028
N105	N	1.921235	0.813956	0.345362
C106	C	1.324560	0.210484	-0.562129
C107	C	1.657894	0.543817	-0.228796
C108	C	1.991227	0.877151	0.104538
C109	C	1.324571	0.210477	-0.658111
C110	C	1.657904	0.543810	-0.324778
C111	C	1.991237	0.877143	0.008556
C112	C	1.184618	0.084054	-0.646488
C113	C	1.517951	0.417387	-0.313155
C114	C	1.851284	0.750720	0.020178
C115	C	1.184613	0.084056	-0.550508
C116	C	1.517947	0.417389	-0.217175
C117	C	1.851280	0.750723	0.116158
C118	C	1.254583	0.147277	-0.508331
C119	C	1.587917	0.480610	-0.174998
C120	C	1.921250	0.813944	0.158336
C121	C	1.254598	0.147268	-0.700293
C122	C	1.587931	0.480601	-0.366960
C123	C	1.921265	0.813934	-0.033626
C124	C	1.254609	0.147259	-0.804361
C125	C	1.587942	0.480593	-0.471028
C126	C	1.921275	0.813926	-0.137694
C127	C	1.254574	0.147284	-0.404257
C128	C	1.587908	0.480617	-0.070923
C129	C	1.921241	0.813951	0.262410
N130	N	1.254614	0.147256	0.112681
N131	N	1.587947	0.480589	0.446014
N132	N	1.921280	0.813922	0.779348
H133	H	0.936385	0.151256	-0.228663
H134	H	1.269718	0.484590	0.104670
H135	H	1.603052	0.817923	0.438004
H136	H	1.451962	-0.559626	-0.120698
H137	H	1.785296	-0.226293	0.212635
H138	H	2.118629	0.107041	0.545969
Br139	Br	1.529835	-0.340488	-0.127208
Br140	Br	1.863168	-0.007155	0.206125
Br141	Br	2.196502	0.326179	0.539459
Br142	Br	1.089638	-0.001732	-0.477490
Br143	Br	1.422971	0.331602	-0.144157
Br144	Br	1.756304	0.664935	0.189176
H145	H	0.936417	0.151251	0.072943
H146	H	1.269751	0.484584	0.406276
H147	H	1.603084	0.817918	0.739609
H148	H	0.771809	0.147662	-0.298104
H149	H	1.105142	0.480995	0.035230
H150	H	1.438475	0.814329	0.368563
H151	H	0.572770	0.143306	-0.281561
H152	H	0.906104	0.476639	0.051772
H153	H	1.239437	0.809973	0.385105
H154	H	1.109351	-0.516307	-0.092220
H155	H	1.442685	-0.182974	0.241113
H156	H	1.776018	0.150360	0.574447
Br157	Br	1.419525	0.296276	-0.504891
Br158	Br	1.752859	0.629610	-0.171558
Br159	Br	2.086192	0.962943	0.161776
Br160	Br	1.419548	0.296257	-0.731120
Br161	Br	1.752881	0.629590	-0.397786
Br162	Br	2.086215	0.962923	-0.064453
Br163	Br	0.979341	-0.364965	-0.081418
Br164	Br	1.312675	-0.031632	0.251915
Br165	Br	1.646008	0.301701	0.585249
Br166	Br	1.089657	-0.001736	-0.703735
Br167	Br	1.422990	0.331597	-0.370401
Br168	Br	1.756324	0.664931	-0.037068
H169	H	1.057215	-0.145808	-0.087916
H170	H	1.390549	0.187525	0.245418
H171	H	1.723882	0.520859	0.578751
H172	H	0.572769	0.143285	0.020039
H173	H	0.906102	0.476618	0.353372
H174	H	1.239435	0.809952	0.686706
H175	H	0.737349	0.146892	0.089481
H176	H	1.070682	0.480225	0.422815
H177	H	1.404016	0.813559	0.756148
H178	H	1.399832	-0.189162	-0.116390
H179	H	1.733165	0.144171	0.216944
H180	H	2.066499	0.477505	0.550277
