data_functionalizedCrystal
_audit_creation_method	'MofGen! by Chris Wilmer'
_symmetry_space_group_name_H-M	'P1'
_symmetry_Int_Tables_number	1
_symmetry_cell_setting	triclinic
loop_
_symmetry_equiv_pos_as_xyz
  x,y,z
_cell_length_a	18.101398
_cell_length_b	15.297327
_cell_length_c	15.296720
_cell_angle_alpha	72.680778
_cell_angle_beta	99.656837
_cell_angle_gamma	80.296826
loop_
_atom_site_label
_atom_site_type_symbol
_atom_site_fract_x
_atom_site_fract_y
_atom_site_fract_z
Zn1	Zn	0.982736	0.461346	-0.589967
Zn2	Zn	0.982652	0.589968	-0.461361
Zn3	Zn	0.884819	0.434462	-0.434471
Zn4	Zn	0.832960	0.616792	-0.616785
O5	O	0.920792	0.525642	-0.525646
O6	O	1.086350	0.478434	-0.572937
O7	O	0.991342	0.546863	-0.327673
O8	O	0.919546	0.307894	-0.432621
O9	O	1.086288	0.572931	-0.478451
O10	O	0.991485	0.327646	-0.546863
O11	O	0.919465	0.432613	-0.307917
O12	O	0.774315	0.458623	-0.458625
O13	O	0.831160	0.618649	-0.743348
O14	O	0.736214	0.592580	-0.592570
O15	O	0.941200	0.504444	-0.723645
O16	O	0.941056	0.723660	-0.504455
O17	O	0.831079	0.743368	-0.618644
C18	C	0.880448	0.767260	-0.567398
C19	C	0.863251	0.870630	-0.585291
C20	C	0.728396	0.525596	-0.525591
C21	C	0.646080	0.525602	-0.525593
C22	C	0.880405	0.567537	-0.768179
C23	C	0.863194	0.585390	-0.871532
C24	C	0.346967	0.525674	-0.525681
C25	C	0.402240	0.441094	-0.441695
C26	C	0.487877	0.441234	-0.441423
C27	C	0.495361	0.525638	-0.525637
C28	C	0.452388	0.618970	-0.515803
C29	C	0.366892	0.618483	-0.515237
C30	C	0.366316	0.517803	-0.619817
C31	C	0.452419	0.515528	-0.618903
C32	C	0.579225	0.525623	-0.525615
C33	C	0.263101	0.525694	-0.525702
C34	C	1.113939	0.525689	-0.525702
C35	C	1.196247	0.525709	-0.525726
C36	C	0.961310	0.283084	-0.483751
C37	C	0.978577	0.179721	-0.465898
C38	C	1.043952	1.120875	-0.398080
C39	C	1.060110	1.023752	-0.381264
C40	C	1.010897	0.985467	-0.432269
C41	C	0.945523	1.044314	-0.500093
C42	C	0.929360	1.141445	-0.516906
C43	C	0.896305	1.006037	-0.551095
C44	C	0.830931	1.064884	-0.618920
C45	C	0.814772	1.162006	-0.635729
C46	C	0.863985	1.200291	-0.584724
C47	C	0.912467	0.908906	-0.534283
C48	C	0.797876	0.929476	-0.653109
C49	C	0.781718	1.026599	-0.669925
C50	C	1.043853	0.397880	-1.121835
C51	C	1.060027	0.381108	-1.024730
C52	C	1.010820	0.432177	-0.986426
C53	C	0.945436	0.500021	-1.045236
C54	C	0.929263	0.516800	-1.142352
C55	C	0.896231	0.551097	-1.006942
C56	C	0.830847	0.618942	-1.065753
C57	C	0.814677	0.635717	-1.162859
C58	C	0.863884	0.584648	-1.201163
C59	C	0.912404	0.534318	-0.909827
C60	C	0.797814	0.653238	-0.930343
C61	C	0.781640	0.670010	-1.027449
C62	C	0.961075	0.483843	-0.284045
C63	C	0.978473	0.465728	-0.180647
H64	H	0.518221	0.371493	-0.445644
C65	C	1.028607	0.413720	-0.879611
H66	H	1.074589	0.365994	-0.850071
H67	H	1.035040	0.469936	-0.868003
H68	H	0.987163	0.393819	-0.854856
C69	C	0.709724	0.744641	-1.092142
H70	H	0.682728	0.772651	-1.055428
H71	H	0.724973	0.791709	-1.137033
H72	H	0.677094	0.715594	-1.123868
H73	H	0.850834	1.279376	-0.598414
H74	H	0.757747	0.694824	-0.899157
C75	C	1.131942	0.306483	-0.960046
H76	H	1.158928	0.278466	-0.996763
H77	H	1.164571	0.335522	-0.928317
H78	H	1.116690	0.259408	-0.915157
C79	C	0.385802	0.446116	-0.347525
H80	H	0.419442	0.394761	-0.297155
H81	H	0.393916	0.503625	-0.340428
H82	H	0.333904	0.443043	-0.346891
H83	H	1.084011	1.152056	-0.356553
C84	C	0.742860	1.226734	-0.710329
H85	H	0.715868	1.190026	-0.738304
H86	H	0.710233	1.258516	-0.681287
H87	H	0.758120	1.271584	-0.757432
C88	C	0.387095	0.346534	-0.447070
H89	H	0.346926	0.357786	-0.500579
H90	H	0.432652	0.309177	-0.452204
H91	H	0.372341	0.314307	-0.391739
H92	H	0.965695	0.861001	-0.479060
C93	C	0.709809	1.091331	-0.744526
H94	H	0.682814	1.054627	-0.772503
H95	H	0.677183	1.123116	-0.715484
H96	H	0.725072	1.136179	-0.791627
H97	H	0.965640	0.479077	-0.861952
C98	C	0.846094	0.603097	-1.307980
H99	H	0.884765	0.562965	-1.322365
H100	H	0.797335	0.590800	-1.327156
H101	H	0.845221	0.666909	-1.340318
H102	H	0.355362	0.627151	-0.446923
H103	H	0.761441	0.690968	-1.210742
H104	H	0.517751	0.445077	-0.371325
C105	C	1.028674	0.878636	-0.413780
H106	H	1.074660	0.849074	-0.366089
H107	H	0.987230	0.853920	-0.393852
H108	H	1.035118	0.867005	-0.469997
C109	C	0.315158	0.705202	-0.595580
H110	H	0.346437	0.740584	-0.628408
H111	H	0.282891	0.685205	-0.637762
H112	H	0.284238	0.743311	-0.570149
H113	H	0.482093	0.628139	-0.448330
H114	H	0.455138	0.682942	-0.575803
H115	H	0.352377	0.451822	-0.632023
H116	H	0.481406	0.446930	-0.626626
C117	C	0.743741	0.887374	-0.709222
H118	H	0.762734	0.821103	-0.689503
H119	H	0.693610	0.900977	-0.698318
H120	H	0.741496	0.914053	-0.774464
C121	C	0.457703	0.594528	-0.706119
H122	H	0.486290	0.634894	-0.686707
H123	H	0.482749	0.567713	-0.745074
H124	H	0.407318	0.629737	-0.740374
H125	H	0.328415	0.579615	-0.682186
H126	H	1.083913	0.356313	-1.153034
H127	H	1.113336	0.975843	-0.326041
