data_functionalizedCrystal
_audit_creation_method	'MofGen! by Chris Wilmer'
_symmetry_space_group_name_H-M	'P1'
_symmetry_Int_Tables_number	1
_symmetry_cell_setting	triclinic
loop_
_symmetry_equiv_pos_as_xyz
  x,y,z
_cell_length_a	19.188930
_cell_length_b	18.266242
_cell_length_c	19.188930
_cell_angle_alpha	90.011475
_cell_angle_beta	83.144779
_cell_angle_gamma	90.022918
loop_
_atom_site_label
_atom_site_type_symbol
_atom_site_fract_x
_atom_site_fract_y
_atom_site_fract_z
O1	O	0.926149	0.061124	0.087169
O2	O	1.426149	0.561124	0.587169
O3	O	0.722838	0.061075	0.098903
O4	O	1.222838	0.561075	0.598903
O5	O	0.830361	0.061087	-0.008620
O6	O	1.330361	0.561087	0.491380
O7	O	0.818627	0.061113	0.194691
O8	O	1.318627	0.561113	0.694691
O9	O	0.830343	-0.060675	-0.008625
O10	O	1.330343	0.439325	0.491375
O11	O	0.722820	-0.060687	0.098897
O12	O	1.222820	0.439313	0.598897
O13	O	0.926131	-0.060638	0.087163
O14	O	1.426131	0.439362	0.587163
Zn15	Zn	0.824473	-0.079994	0.093029
Zn16	Zn	1.324473	0.420006	0.593029
Zn17	Zn	0.824497	0.080432	0.093037
Zn18	Zn	1.324497	0.580432	0.593037
O19	O	0.818608	-0.060649	0.194686
O20	O	1.318608	0.439351	0.694686
C21	C	0.696818	0.000188	0.098520
C22	C	1.196818	0.500188	0.598520
C23	C	0.619313	0.000169	0.097380
C24	C	1.119313	0.500169	0.597380
N25	N	0.824461	-0.189481	0.093024
N26	N	1.324461	0.310519	0.593024
C27	C	0.574389	0.000188	0.160470
C28	C	1.074389	0.500188	0.660470
C29	C	0.501566	0.000196	0.159399
C30	C	1.001566	0.500196	0.659399
C31	C	0.473669	0.000199	0.095233
C32	C	0.973669	0.500199	0.595233
C33	C	0.518603	0.000175	0.032133
C34	C	1.018603	0.500175	0.532133
C35	C	0.591425	0.000160	0.033207
C36	C	1.091425	0.500160	0.533207
N37	N	0.365695	0.041663	0.046188
N38	N	0.865695	0.541663	0.546188
N39	N	0.296516	0.041679	0.045172
N40	N	0.796516	0.541679	0.545172
C41	C	0.254260	0.000243	0.091994
C42	C	0.754260	0.500243	0.591994
N43	N	0.283795	-0.041200	0.139881
N44	N	0.783795	0.458800	0.639881
N45	N	0.352980	-0.041213	0.140899
N46	N	0.852980	0.458787	0.640899
C47	C	0.394707	0.000215	0.094062
C48	C	0.894707	0.500215	0.594062
C49	C	0.130372	0.000270	0.153928
C50	C	0.630372	0.500270	0.653928
C51	C	0.057547	0.000274	0.152853
C52	C	0.557547	0.500274	0.652853
C53	C	0.074586	0.000261	0.025586
C54	C	0.574586	0.500261	0.525586
C55	C	0.147409	0.000250	0.026662
C56	C	0.647409	0.500250	0.526662
C57	C	0.175298	0.000258	0.090835
C58	C	0.675298	0.500258	0.590835
C59	C	0.872088	-0.227785	0.045436
C60	C	1.372088	0.272215	0.545436
C61	C	0.872092	-0.304430	0.045433
C62	C	1.372092	0.195570	0.545433
C63	C	0.824477	-0.342768	0.093030
C64	C	1.324477	0.157232	0.593030
C65	C	0.776841	-0.304455	0.140621
C66	C	1.276841	0.195545	0.640621
C67	C	0.776834	-0.227812	0.140618
C68	C	1.276834	0.272188	0.640618
N69	N	0.815401	-0.463094	0.154837
N70	N	1.315401	0.036906	0.654837
N71	N	0.815413	-0.535902	0.154838
N72	N	1.315413	-0.035902	0.654838
C73	C	0.824496	-0.573691	0.093040
C74	C	1.324496	-0.073691	0.593040
N75	N	0.833582	-0.535920	0.031239
N76	N	1.333582	-0.035920	0.531239
N77	N	0.833574	-0.463106	0.031240
N78	N	1.333574	0.036894	0.531240
C79	C	0.824480	-0.425875	0.093038
C80	C	1.324480	0.074125	0.593038
C81	C	0.872131	-0.695101	0.045444
C82	C	1.372131	-0.195101	0.545444
C83	C	0.872130	-0.771748	0.045440
C84	C	1.372130	-0.271748	0.545440
C85	C	0.776882	-0.771772	0.140634
C86	C	1.276882	-0.271772	0.640634
C87	C	0.776879	-0.695127	0.140632
C88	C	1.276879	-0.195127	0.640632
C89	C	0.824507	-0.656796	0.093038
C90	C	1.324507	-0.156796	0.593038
C91	C	0.952151	0.000252	0.087546
C92	C	1.452151	0.500252	0.587546
C93	C	1.029656	0.000276	0.088687
C94	C	1.529656	0.500276	0.588687
C95	C	0.829972	0.000204	-0.034634
C96	C	1.329972	0.500204	0.465366
C97	C	0.828831	0.000197	-0.112138
C98	C	1.328831	0.500197	0.387862
N99	N	0.824513	0.189919	0.093037
N100	N	1.324513	0.689919	0.593037
C101	C	0.891922	0.000209	-0.157062
C102	C	1.391922	0.500209	0.342938
C103	C	0.890850	0.000220	-0.229886
C104	C	1.390850	0.500220	0.270114
C105	C	0.826684	0.000206	-0.257782
C106	C	1.326684	0.500206	0.242218
C107	C	0.763585	0.000198	-0.212849
C108	C	1.263585	0.500198	0.287151
C109	C	0.764658	0.000194	-0.140026
C110	C	1.264658	0.500194	0.359974
N111	N	0.777631	-0.041244	-0.365789
N112	N	1.277631	0.458756	0.134211
N113	N	0.776615	-0.041242	-0.434968
N114	N	1.276615	0.458758	0.065032
C115	C	0.823446	0.000220	-0.477191
C116	C	1.323446	0.500220	0.022809
N117	N	0.871341	0.041669	-0.447624
N118	N	1.371341	0.541669	0.052376
N119	N	0.872359	0.041664	-0.378439
N120	N	1.372359	0.541664	0.121561
C121	C	0.825513	0.000210	-0.336745
C122	C	1.325513	0.500210	0.163255
C123	C	0.885379	0.000245	-0.601079
C124	C	1.385379	0.500245	-0.101079
C125	C	0.884305	0.000261	-0.673904
C126	C	1.384305	0.500261	-0.173904
C127	C	0.757038	0.000231	-0.656865
C128	C	1.257038	0.500231	-0.156865
C129	C	0.758114	0.000222	-0.584042
C130	C	1.258114	0.500222	-0.084042
C131	C	0.822287	0.000226	-0.556154
C132	C	1.322287	0.500226	-0.056154
C133	C	0.818997	0.000236	0.220700
C134	C	1.318997	0.500236	0.720700
C135	C	0.820138	0.000247	0.298204
C136	C	1.320138	0.500247	0.798204
H137	H	0.597091	0.000196	0.212725
H138	H	1.097091	0.500196	0.712725
H139	H	0.713281	0.000184	-0.103448
H140	H	1.213281	0.500184	0.396552
O141	O	0.923477	-0.653741	-0.005897
O142	O	1.423477	-0.153741	0.494103
H143	H	0.977883	-0.668414	0.002848
H144	H	1.477883	-0.168414	0.502848
O145	O	0.009090	0.000287	0.220906
O146	O	0.509090	0.500287	0.720906
H147	H	-0.024475	0.049916	0.223460
H148	H	0.475525	0.549916	0.723460
H149	H	0.738049	-0.196624	0.179371
H150	H	1.238049	0.303376	0.679371
O151	O	0.453098	0.000214	0.227449
O152	O	0.953098	0.500214	0.727449
H153	H	0.419537	0.049846	0.229997
H154	H	0.919537	0.549846	0.729997
H155	H	0.628003	0.000145	-0.018171
H156	H	1.128003	0.500145	0.481829
O157	O	0.044512	0.000259	-0.043626
O158	O	0.544512	0.500259	0.456374
H159	H	0.011773	0.049895	-0.047164
H160	H	0.511773	0.549895	0.452836
O161	O	0.958903	0.000226	-0.278350
O162	O	1.458903	0.500226	0.221650
H163	H	0.961436	-0.049401	-0.311944
H164	H	1.461436	0.450599	0.188056
O165	O	0.690062	0.000201	-0.535586
O166	O	1.190062	0.500201	-0.035586
H167	H	0.701588	0.000207	-0.480262
H168	H	1.201588	0.500207	0.019738
H169	H	0.183988	0.000238	-0.024713
H170	H	0.683988	0.500238	0.475287
O171	O	0.961136	0.000218	-0.126986
O172	O	1.461136	0.500218	0.373014
H173	H	0.951286	0.000208	-0.068800
H174	H	1.451286	0.500208	0.431200
O175	O	0.954592	0.000263	-0.570997
O176	O	1.454592	0.500263	-0.070997
H177	H	0.958125	-0.049370	-0.538245
H178	H	1.458125	0.450630	-0.038245
H179	H	0.910911	-0.802935	0.006685
H180	H	1.410911	-0.302935	0.506685
H181	H	0.704792	0.000222	-0.679578
H182	H	1.204792	0.500222	-0.179578
O183	O	0.694375	0.000173	-0.242930
O184	O	1.194375	0.500173	0.257070
H185	H	0.704227	0.000168	-0.301116
H186	H	1.204227	0.500168	0.198884
O187	O	0.725519	-0.653806	0.191967
O188	O	1.225519	-0.153806	0.691967
H189	H	0.692412	-0.693338	0.225069
H190	H	1.192412	-0.193338	0.725069
O191	O	0.488521	0.000179	-0.037077
O192	O	0.988521	0.500179	0.462923
H193	H	0.430335	0.000200	-0.027225
H194	H	0.930335	0.500200	0.472775
H195	H	0.153080	0.000267	0.206181
H196	H	0.653080	0.500267	0.706181
H197	H	0.910868	-0.196579	0.006681
H198	H	1.410868	0.303421	0.506681
H199	H	0.910877	-0.335623	0.006680
H200	H	1.410877	0.164377	0.506680
O201	O	0.725489	-0.345796	0.191968
O202	O	1.225489	0.154204	0.691968
H203	H	0.691652	-0.380750	0.162670
H204	H	1.191652	0.119250	0.662670
O205	O	0.725524	-0.813109	0.191975
O206	O	1.225524	-0.313109	0.691975
H207	H	0.733533	-0.872841	0.183986
H208	H	1.233533	-0.372841	0.683986
O209	O	0.952356	0.000267	-0.722364
O210	O	1.452356	0.500267	-0.222364
H211	H	0.997156	0.000260	-0.690734
H212	H	1.497156	0.500260	-0.190734
