data_functionalizedCrystal
_audit_creation_method	'MofGen! by Chris Wilmer'
_symmetry_space_group_name_H-M	'P1'
_symmetry_Int_Tables_number	1
_symmetry_cell_setting	triclinic
loop_
_symmetry_equiv_pos_as_xyz
  x,y,z
_cell_length_a	10.686285
_cell_length_b	19.805407
_cell_length_c	19.805399
_cell_angle_alpha	90.019197
_cell_angle_beta	85.610534
_cell_angle_gamma	94.372303
loop_
_atom_site_label
_atom_site_type_symbol
_atom_site_fract_x
_atom_site_fract_y
_atom_site_fract_z
Zn1	Zn	-0.502507	-1.055505	-0.362098
Zn2	Zn	-0.713518	-1.064142	-0.240253
Zn3	Zn	-0.502527	-0.942321	-0.248923
Zn4	Zn	-0.713437	-0.951002	-0.353404
O5	O	-0.607997	-1.003242	-0.301169
O6	O	-0.530523	-1.151369	-0.345945
O7	O	-0.685573	-1.047963	-0.146685
O8	O	-0.325949	-0.950088	-0.271202
O9	O	-0.685553	-1.157714	-0.256427
O10	O	-0.325934	-1.033244	-0.354352
O11	O	-0.530558	-0.958462	-0.153054
O12	O	-0.530479	-0.848755	-0.262772
O13	O	-0.685414	-0.964883	-0.449276
O14	O	-0.685434	-0.855133	-0.339534
O15	O	-0.530444	-1.041661	-0.455663
O16	O	-0.890083	-1.056381	-0.247996
O17	O	-0.890024	-0.973257	-0.331128
C18	C	-0.607951	-0.827385	-0.301151
C19	C	-0.607962	-0.752153	-0.301157
C20	C	-0.527379	-0.713511	-0.347829
C21	C	-0.527383	-0.642823	-0.347830
C22	C	-0.607977	-0.610778	-0.301162
C23	C	-0.688563	-0.649425	-0.254485
C24	C	-0.688552	-0.720111	-0.254482
C25	C	-0.688609	-0.364353	-0.254497
C26	C	-0.688617	-0.293662	-0.254505
C27	C	-0.527440	-0.287065	-0.347845
C28	C	-0.527429	-0.357752	-0.347842
C29	C	-0.608010	-0.396392	-0.301163
C30	C	-0.608003	-0.473040	-0.301162
C31	C	-0.607991	-0.534131	-0.301165
C32	C	-0.935838	-1.016717	-0.287693
C33	C	-1.076089	-1.022543	-0.281950
C34	C	-0.278877	-0.989734	-0.314714
C35	C	-0.138625	-0.983978	-0.320485
C36	C	-0.607918	-1.003277	-0.477716
C37	C	-0.607884	-1.003292	-0.552949
C38	C	-0.608035	-0.179787	-0.301183
C39	C	-0.608027	-0.255018	-0.301174
C40	C	-0.527187	-1.043271	-0.591620
C41	C	-0.527151	-1.043277	-0.662310
C42	C	-0.607818	-1.003306	-0.694327
C43	C	-0.688518	-0.963322	-0.655651
C44	C	-0.688548	-0.963313	-0.584963
C45	C	-0.688401	-0.963355	-0.940729
C46	C	-0.688368	-0.963369	-1.011423
C47	C	-0.527004	-1.043319	-1.018077
C48	C	-0.527033	-1.043310	-0.947389
C49	C	-0.607728	-1.003324	-0.908719
C50	C	-0.607765	-1.003317	-0.832069
C51	C	-0.607788	-1.003316	-0.770976
C52	C	-0.607985	-1.003243	-0.125314
C53	C	-0.607664	-1.003345	-0.050096
H54	H	-0.461767	-0.611364	-0.385836
F55	F	-0.774366	-0.920779	-0.689728
F56	F	-0.441675	-0.245935	-0.397523
H57	H	-0.754249	-0.267573	-0.216500
F58	F	-0.774229	-0.920824	-1.045496
F59	F	-0.774284	-0.920798	-0.899583
F60	F	-0.774348	-0.405467	-0.204807
H61	H	-0.754178	-0.623328	-0.216484
H62	H	-1.084870	-0.946503	-0.357872
F63	F	-1.146356	-1.071521	-0.233073
F64	F	-0.774319	-0.761237	-0.204808
H65	H	-0.461502	-1.075822	-0.565557
F66	F	-0.441305	-1.085853	-0.703463
F67	F	-0.441180	-1.085855	-0.913317
H68	H	-0.461293	-1.075875	-1.049571
H69	H	-0.461754	-0.739597	-0.385834
F70	F	-0.441656	-0.391853	-0.397515
H71	H	-0.754247	-0.930751	-0.553477
