data_functionalizedCrystal
_audit_creation_method	'MofGen! by Chris Wilmer'
_symmetry_space_group_name_H-M	'P1'
_symmetry_Int_Tables_number	1
_symmetry_cell_setting	triclinic
loop_
_symmetry_equiv_pos_as_xyz
  x,y,z
_cell_length_a	19.077105
_cell_length_b	12.759400
_cell_length_c	19.077174
_cell_angle_alpha	92.275311
_cell_angle_beta	85.483752
_cell_angle_gamma	87.711168
loop_
_atom_site_label
_atom_site_type_symbol
_atom_site_fract_x
_atom_site_fract_y
_atom_site_fract_z
Zn1	Zn	1.093766	-0.510482	-0.441863
Zn2	Zn	1.593766	-0.010482	0.058137
Zn3	Zn	1.088970	-0.678821	-0.323981
Zn4	Zn	1.588970	-0.178821	0.176019
Zn5	Zn	0.971149	-0.495796	-0.319260
Zn6	Zn	1.471149	0.004204	0.180740
Zn7	Zn	0.975864	-0.678752	-0.437099
Zn8	Zn	1.475864	-0.178752	0.062901
O9	O	1.032437	-0.590963	-0.380551
O10	O	1.532437	-0.090963	0.119449
O11	O	1.191780	-0.538988	-0.430195
O12	O	1.691780	-0.038988	0.069805
O13	O	1.069361	-0.648424	-0.224705
O14	O	1.569361	-0.148424	0.275295
O15	O	0.987448	-0.350726	-0.335541
O16	O	1.487448	0.149274	0.164459
O17	O	1.188257	-0.662665	-0.343588
O18	O	1.688257	-0.162665	0.156412
O19	O	1.077534	-0.361516	-0.425617
O20	O	1.577534	0.138484	0.074383
O21	O	0.982798	-0.513957	-0.221236
O22	O	1.482798	-0.013957	0.278764
O23	O	0.873124	-0.513890	-0.330922
O24	O	1.373124	-0.013890	0.169078
O25	O	0.995484	-0.662548	-0.536381
O26	O	1.495484	-0.162548	-0.036381
O27	O	0.876588	-0.648307	-0.417498
O28	O	1.376588	-0.148307	0.082502
O29	O	1.082106	-0.538921	-0.539881
O30	O	1.582106	-0.038921	-0.039881
O31	O	1.073933	-0.825829	-0.338969
O32	O	1.573933	-0.325829	0.161031
O33	O	0.990835	-0.825779	-0.422076
O34	O	1.490835	-0.325779	0.077924
C35	C	0.849277	-0.579498	-0.373181
C36	C	1.349277	-0.079498	0.126819
C37	C	0.770921	-0.574620	-0.370045
C38	C	1.270921	-0.074620	0.129955
C39	C	0.735928	-0.642409	-0.413576
C40	C	1.235928	-0.142409	0.086424
C41	C	0.662304	-0.637812	-0.410633
C42	C	1.162304	-0.137812	0.089367
C43	C	0.623674	-0.565430	-0.364154
C44	C	1.123674	-0.065430	0.135846
C45	C	0.658672	-0.497634	-0.320621
C46	C	1.158672	0.002366	0.179379
C47	C	0.732294	-0.502227	-0.323569
C48	C	1.232294	-0.002227	0.176431
C49	C	0.403291	-0.544174	-0.350517
C50	C	0.903291	-0.044174	0.149483
C51	C	0.329663	-0.539588	-0.347571
C52	C	0.829663	-0.039588	0.152429
C53	C	0.333300	-0.679766	-0.437584
C54	C	0.833300	-0.179766	0.062416
C55	C	0.406924	-0.684356	-0.440525
C56	C	0.906924	-0.184356	0.059475
C57	C	0.441915	-0.616557	-0.396994
C58	C	0.941915	-0.116557	0.103006
N59	N	0.548418	-0.560732	-0.361143
N60	N	1.048418	-0.060732	0.138857
N61	N	0.517170	-0.621251	-0.400009
N62	N	1.017170	-0.121251	0.099991
C63	C	1.032395	-0.863926	-0.380534
C64	C	1.532395	-0.363926	0.119466
C65	C	1.032442	-0.980707	-0.380554
C66	C	1.532442	-0.480707	0.119446
C67	C	1.075764	-1.035567	-0.337331
C68	C	1.575764	-0.535567	0.162669
C69	C	1.075808	-1.145295	-0.337355
C70	C	1.575808	-0.645295	0.162645
C71	C	0.989203	-1.145294	-0.423824
C72	C	1.489203	-0.645294	0.076176
C73	C	0.989163	-1.035568	-0.423804
C74	C	1.489163	-0.535568	0.076196
C75	C	1.119043	-0.980706	-0.294081
C76	C	1.619043	-0.480706	0.205919
C77	C	1.162367	-1.035566	-0.250855
C78	C	1.662367	-0.535566	0.249145
C79	C	1.162411	-1.145294	-0.250878
C80	C	1.662411	-0.645294	0.249122
C81	C	1.119131	-1.200162	-0.294128
C82	C	1.619131	-0.700162	0.205872
C83	C	1.216313	-0.602473	-0.387950
C84	C	1.716313	-0.102473	0.112050
C85	C	1.294670	-0.607377	-0.391103
C86	C	1.794670	-0.107377	0.108897
C87	C	1.039856	-0.602365	-0.564425
C88	C	1.539856	-0.102365	-0.064425
C89	C	1.043018	-0.607224	-0.642781
C90	C	1.543018	-0.107224	-0.142781
C91	C	1.032500	-0.316935	-0.380583
C92	C	1.532500	0.183065	0.119417
C93	C	1.032526	-0.200161	-0.380597
C94	C	1.532526	0.299839	0.119403
C95	C	0.999436	-0.539498	-0.677787
C96	C	1.499436	-0.039498	-0.177787
C97	C	1.002404	-0.544073	-0.751410
C98	C	1.502404	-0.044073	-0.251410
C99	C	1.048957	-0.616368	-0.790028
C100	C	1.548957	-0.116368	-0.290028
C101	C	1.092540	-0.684101	-0.755017
C102	C	1.592540	-0.184101	-0.255017
C103	C	1.089569	-0.679532	-0.681395
C104	C	1.589569	-0.179532	-0.181395
C105	C	1.062675	-0.637548	-1.010410
C106	C	1.562675	-0.137548	-0.510410
C107	C	1.065645	-0.642110	-1.084038
C108	C	1.565645	-0.142110	-0.584038
C109	C	0.975507	-0.502082	-1.080426
C110	C	1.475507	-0.002082	-0.580426
C111	C	0.972542	-0.497515	-1.006802
C112	C	1.472542	0.002485	-0.506802
C113	C	1.016123	-0.565251	-0.971798
C114	C	1.516123	-0.065251	-0.471798
N115	N	1.051993	-0.621043	-0.865283
N116	N	1.551993	-0.121043	-0.365283
N117	N	1.013082	-0.560581	-0.896543
N118	N	1.513082	-0.060581	-0.396543
C119	C	1.025088	-0.579531	-0.197394
C120	C	1.525088	-0.079531	0.302606
C121	C	1.022063	-0.574385	-0.119043
C122	C	1.522063	-0.074385	0.380957
H123	H	0.431771	-0.488974	-0.315066
H124	H	0.931771	0.011026	0.184934
O125	O	0.942433	-0.976385	-0.470414
O126	O	1.442433	-0.476385	0.029586
H127	H	0.912336	-1.032964	-0.500483
H128	H	1.412336	-0.532964	-0.000483
H129	H	0.767375	-0.701354	-0.451422
H130	H	1.267375	-0.201354	0.048578
O131	O	0.617011	-0.419587	-0.270471
O132	O	1.117011	0.080413	0.229529
H133	H	0.559937	-0.427797	-0.275722
H134	H	1.059937	0.072203	0.224278
O135	O	0.295562	-0.752880	-0.484542
O136	O	0.795562	-0.252880	0.015458
H137	H	0.237878	-0.737522	-0.474691
H138	H	0.737878	-0.237522	0.025309
H139	H	0.934632	-0.438647	-0.975364
H140	H	1.434632	0.061353	-0.475364
O141	O	0.770042	-0.429125	-0.276609
O142	O	1.270042	0.070875	0.223391
H143	H	0.730813	-0.378031	-0.243787
H144	H	1.230813	0.121969	0.256213
O145	O	0.942523	-1.204474	-0.470464
O146	O	1.442523	-0.704474	0.029536
H147	H	0.912395	-1.147892	-0.500521
H148	H	1.412395	-0.647892	-0.000521
H149	H	1.197693	-1.189958	-0.215687
H150	H	1.697693	-0.689958	0.284313
O151	O	0.624554	-0.711118	-0.457449
O152	O	1.124554	-0.211118	0.042551
H153	H	0.663782	-0.762300	-0.490207
H154	H	1.163782	-0.262300	0.009793
H155	H	1.197609	-0.990887	-0.215647
H156	H	1.697609	-0.490887	0.284353
H157	H	1.125063	-0.734674	-0.652895
H158	H	1.625063	-0.234674	-0.152895
H159	H	1.119176	-1.289511	-0.294149
H160	H	1.619176	-0.789511	0.205851
O161	O	1.109694	-0.710577	-0.972659
O162	O	1.609694	-0.210577	-0.472659
H163	H	1.142574	-0.761599	-1.011884
H164	H	1.642574	-0.261599	-0.511884
O165	O	0.448590	-0.762416	-0.490661
O166	O	0.948590	-0.262416	0.009339
H167	H	0.411888	-0.808775	-0.520444
H168	H	0.911888	-0.308775	-0.020444
O169	O	0.949228	-0.461518	-0.636136
O170	O	1.449228	0.038482	-0.136136
H171	H	0.919418	-0.415198	-0.672849
H172	H	1.419418	0.084802	-0.172849
O173	O	1.142755	-0.762079	-0.796664
O174	O	1.642755	-0.262079	-0.296664
H175	H	1.137506	-0.753872	-0.853740
H176	H	1.637506	-0.253872	-0.353740
H177	H	1.103557	-0.700984	-1.115478
H178	H	1.603557	-0.200984	-0.615478
H179	H	0.966913	-0.488927	-0.779908
H180	H	1.466913	0.011073	-0.279908
H181	H	0.298212	-0.480635	-0.309727
H182	H	0.798212	0.019365	0.190273
H183	H	1.119010	-0.891360	-0.294055
H184	H	1.619010	-0.391360	0.205945
O185	O	0.928511	-0.429015	-1.118178
O186	O	1.428511	0.070985	-0.618178
H187	H	0.938396	-0.444334	-1.175861
H188	H	1.438396	0.055666	-0.675861
