data_functionalizedCrystal
_audit_creation_method	'MofGen! by Chris Wilmer'
_symmetry_space_group_name_H-M	'P1'
_symmetry_Int_Tables_number	1
_symmetry_cell_setting	triclinic
loop_
_symmetry_equiv_pos_as_xyz
  x,y,z
_cell_length_a	13.185408
_cell_length_b	13.262975
_cell_length_c	9.730223
_cell_angle_alpha	105.911776
_cell_angle_beta	90.002630
_cell_angle_gamma	68.869053
loop_
_atom_site_label
_atom_site_type_symbol
_atom_site_fract_x
_atom_site_fract_y
_atom_site_fract_z
O1	O	1.445706	-0.273064	-0.216232
O2	O	1.128697	-0.166819	-0.176552
O3	O	1.295168	-0.374971	-0.254321
O4	O	1.279235	-0.064912	-0.138463
O5	O	1.295166	-0.374967	-0.025739
O6	O	1.128695	-0.166815	0.052030
O7	O	1.445704	-0.273059	0.012350
Zn8	Zn	1.287199	-0.219936	0.068482
Zn9	Zn	1.287202	-0.219942	-0.232684
O10	O	1.279233	-0.064907	0.090119
C11	C	1.088117	-0.156046	-0.058239
C12	C	0.967204	-0.123965	-0.046260
C13	C	0.897860	-0.009739	-0.003580
C14	C	0.784256	0.020407	0.007696
C15	C	0.739985	-0.063671	-0.023716
C16	C	0.809330	-0.177899	-0.066406
C17	C	0.922945	-0.208048	-0.077673
C18	C	0.765071	-0.261980	-0.097808
C19	C	0.834416	-0.376208	-0.140498
C20	C	0.948020	-0.406351	-0.151764
C21	C	0.992290	-0.322274	-0.120352
C22	C	0.651456	-0.231831	-0.086541
C23	C	0.676542	-0.430140	-0.160634
C24	C	0.790146	-0.460285	-0.171911
C25	C	1.294271	-0.413817	-0.154549
C26	C	1.291587	-0.529568	-0.197810
C27	C	1.290341	-0.583929	-0.342747
C28	C	1.287833	-0.692687	-0.383426
C29	C	1.286578	-0.747099	-0.279174
C30	C	1.287832	-0.692741	-0.134236
C31	C	1.290332	-0.583968	-0.093551
C32	C	1.286569	-0.747138	-0.029979
C33	C	1.287823	-0.692780	0.114960
C34	C	1.290324	-0.584018	0.155637
C35	C	1.291578	-0.529607	0.051386
C36	C	1.284069	-0.855911	-0.070663
C37	C	1.284060	-0.855950	0.178532
C38	C	1.286569	-0.747191	0.219212
C39	C	1.486284	-0.283832	-0.105966
C40	C	1.607197	-0.315914	-0.117955
C41	C	1.280131	-0.026062	-0.009656
C42	C	1.282814	0.089689	0.033596
N43	N	1.287206	-0.219935	0.274019
N44	N	1.287204	-0.219954	-0.438225
C45	C	1.360938	-0.312086	0.311516
C46	C	1.360935	-0.312098	0.455394
C47	C	1.213464	-0.127798	0.524270
C48	C	1.213463	-0.127790	0.380392
C49	C	1.434681	-0.404231	0.205142
C50	C	1.508420	-0.496389	0.242637
C51	C	1.508417	-0.496401	0.386515
C52	C	1.434675	-0.404255	0.492899
H53	H	0.933916	0.058705	0.022001
O54	O	1.587928	-0.595791	0.127902
H55	H	1.575543	-0.580305	0.021554
O56	O	1.434677	-0.404230	0.049956
H57	H	1.516108	-0.410396	0.009718
H58	H	1.293626	-0.441049	0.084499
O59	O	1.283884	-0.864408	-0.323026
H60	H	1.357368	-0.923361	-0.291256
H61	H	1.568450	-0.571444	0.417039
H62	H	1.287589	-0.702917	0.337223
H63	H	1.153422	-0.052753	0.349865
O64	O	1.291681	-0.525385	0.311959
H65	H	1.290403	-0.581494	0.377618
H66	H	1.283034	-0.900249	0.263424
H67	H	1.434672	-0.404277	0.610050
O68	O	1.133943	-0.028407	0.639004
H69	H	1.146341	-0.043888	0.745353
H70	H	0.595006	-0.138825	-0.051781
H71	H	0.647483	-0.039119	-0.014530
O72	O	0.709462	0.143600	0.053735
H73	H	0.759329	0.197000	0.073674
H74	H	1.084795	-0.346812	-0.129527
H75	H	0.846622	-0.553292	-0.206669
O76	O	1.022819	-0.529552	-0.197787
H77	H	0.972954	-0.582953	-0.217746
O78	O	0.628811	-0.520837	-0.194524
H79	H	0.538162	-0.480684	-0.179533
H80	H	1.286815	-0.736939	-0.501435
O81	O	1.282710	-0.914522	-0.226982
H82	H	1.355705	-0.994363	-0.262802
H83	H	1.291356	-0.539615	-0.427612
