data_functionalizedCrystal
_audit_creation_method	'MofGen! by Chris Wilmer'
_symmetry_space_group_name_H-M	'P1'
_symmetry_Int_Tables_number	1
_symmetry_cell_setting	triclinic
loop_
_symmetry_equiv_pos_as_xyz
  x,y,z
_cell_length_a	14.628931
_cell_length_b	17.917603
_cell_length_c	14.628931
_cell_angle_alpha	90.000192
_cell_angle_beta	60.000028
_cell_angle_gamma	57.011374
loop_
_atom_site_label
_atom_site_type_symbol
_atom_site_fract_x
_atom_site_fract_y
_atom_site_fract_z
Zr1	Zr	0.916422	0.754905	-0.077881
O2	O	1.121077	0.629780	-0.230817
O3	O	0.721440	0.793262	-0.030997
O4	O	0.912146	0.793262	-0.221703
O5	O	0.930372	0.629780	0.110321
O6	O	0.897769	0.922219	-0.214514
O7	O	0.930371	0.629780	-0.040111
O8	O	0.556632	0.922220	0.126623
O9	O	1.271509	0.629780	-0.230817
O10	O	0.787328	0.905860	-0.005638
O11	O	0.798057	0.809621	0.101263
O12	O	1.022588	0.809621	-0.123268
O13	O	1.033317	0.713381	-0.016368
Zr14	Zr	0.893494	0.960576	0.173506
Zr15	Zr	0.893494	0.960577	-0.066415
Zr16	Zr	0.916423	0.754904	0.162041
Zr17	Zr	1.156344	0.754904	-0.077881
Zr18	Zr	0.653572	0.960577	0.173506
O19	O	1.088476	0.922219	0.126622
O20	O	1.088475	0.922219	-0.214515
O21	O	1.121078	0.629780	0.110320
O22	O	0.688840	1.085701	0.326442
O23	O	0.688839	1.085701	-0.014695
O24	O	0.721441	0.793262	0.310140
O25	O	0.879545	1.085701	-0.014696
O26	O	0.897771	0.922219	0.317328
O27	O	0.912147	0.793262	0.310139
O28	O	0.879545	1.085701	0.135736
O29	O	1.253284	0.793262	-0.221704
O30	O	0.556633	0.922219	0.317329
O31	O	0.538407	1.085701	0.326442
O32	O	0.538407	1.085701	0.135737
O33	O	1.271510	0.629780	-0.040112
O34	O	1.253284	0.793261	-0.030998
O35	O	0.787328	0.905860	0.218893
O36	O	0.776599	1.002100	0.111993
O37	O	1.011860	0.905860	-0.005638
O38	O	1.022589	0.809621	0.101263
C39	C	0.604852	0.857741	0.047813
C40	C	0.502999	0.857741	0.047813
C41	C	0.933638	0.600476	0.033471
C42	C	0.943372	0.513163	0.028604
C43	C	0.961152	0.353319	0.019715
C44	C	0.848770	0.362155	0.075907
C45	C	0.858663	0.273212	0.070961
C46	C	0.951262	0.442268	0.024660
C47	C	0.543876	0.790225	-0.034710
C48	C	0.438607	0.790224	-0.034711
C49	C	1.205064	0.857740	0.047812
C50	C	1.306917	0.857740	0.047812
C51	C	0.904957	0.857741	-0.252292
C52	C	0.904957	0.857741	-0.354145
C53	C	0.876278	1.115005	0.062154
C54	C	0.866544	1.202318	0.067021
C55	C	1.021662	0.810000	-0.457907
C56	C	1.021664	0.809999	-0.563179
C57	C	0.904959	0.857740	0.347917
C58	C	0.904959	0.857740	0.449770
C59	C	0.576172	1.115005	0.062154
C60	C	0.464585	1.202318	0.067022
C61	C	0.604853	0.857741	0.347918
C62	C	0.503000	0.857741	0.449771
C63	C	0.576173	1.115005	0.362259
C64	C	0.464586	1.202318	0.468979
C65	C	1.233743	0.600476	-0.266634
C66	C	1.345330	0.513163	-0.373354
C67	C	1.233744	0.600476	0.033471
C68	C	1.345331	0.513163	0.028603
C69	C	1.205063	0.857740	-0.252293
C70	C	1.306916	0.857740	-0.354146
C71	C	0.417783	1.193086	0.007896
C72	C	0.312949	1.275118	0.012446
C73	C	0.254913	1.366382	0.076130
C74	C	0.301725	1.375613	0.135258
C75	C	0.406563	1.293581	0.130700
C76	C	0.406583	1.293566	0.463296
C77	C	0.301747	1.375614	0.563562
C78	C	0.254912	1.366412	0.669511
C79	C	0.312926	1.275154	0.675192
C80	C	0.417766	1.193108	0.574927
C81	C	1.403346	0.421915	-0.367671
C82	C	1.508210	0.339867	-0.467937
C83	C	1.555051	0.349070	-0.573886
C84	C	1.497031	0.440327	-0.579567
C85	C	1.392175	0.522373	-0.479301
C86	C	1.392144	0.522395	0.087719
C87	C	1.497004	0.440363	0.083142
C88	C	1.555043	0.349099	0.019455
C89	C	1.508227	0.339868	-0.039668
C90	C	1.403375	0.421900	-0.035097
C91	C	0.452269	0.905482	0.553533
C92	C	0.346999	0.905483	0.658805
H93	H	0.745127	0.436517	0.127728
O94	O	1.564741	0.251156	-0.462607
C95	C	1.667319	0.180704	-0.573814
H96	H	1.705637	0.212657	-0.635478
H97	H	1.624410	0.155036	-0.599635
C98	C	1.738510	0.056008	-0.501377
C99	C	1.785581	0.095252	-0.577113
H100	H	1.811458	0.003295	-0.503412
H101	H	1.669398	0.103473	-0.426454
H102	H	1.702752	0.034626	-0.522904
H103	H	1.821322	0.116644	-0.555577
H104	H	1.854702	0.047789	-0.652033
O105	O	1.335922	0.610937	-0.485035
C106	C	1.399780	0.601453	-0.600052
H107	H	1.447390	0.528233	-0.655153
H108	H	1.482141	0.608183	-0.627872
C109	C	1.235490	0.770839	-0.545998
C110	C	1.293956	0.680912	-0.613674
H111	H	1.170216	0.819854	-0.554401
H112	H	1.192470	0.777230	-0.468508
H113	H	1.304136	0.776433	-0.569189
H114	H	1.225313	0.675314	-0.590472
H115	H	1.336962	0.674521	-0.691160
H116	H	0.473429	0.732419	-0.105360
O117	O	0.245124	1.464292	0.197271
C118	C	0.105395	1.514740	0.282291
H119	H	0.085163	1.461493	0.301095
H120	H	0.045253	1.563397	0.251438
C121	C	0.086181	1.641446	0.368345
C122	C	0.061334	1.576047	0.391447
H123	H	0.058999	1.679267	0.435677
H124	H	0.180318	1.607461	0.311064
H125	H	0.036061	1.681984	0.342632
H126	H	0.111467	1.535502	0.417145
H127	H	-0.032796	1.610027	0.448736
O128	O	0.368324	0.926678	0.132247
C129	C	0.341689	0.922177	0.238121
H130	H	0.438697	0.886140	0.231199
H131	H	0.304235	0.878843	0.263131
C132	C	0.113001	1.068737	0.337839
C133	C	0.232146	1.024483	0.329340
H134	H	0.045426	1.131844	0.394109
H135	H	0.130943	1.071768	0.266510
H136	H	0.081807	1.032616	0.358676
H137	H	0.263347	1.060597	0.308489
H138	H	0.214207	1.021461	0.400668
H139	H	0.272086	0.915542	0.118470
O140	O	1.084759	0.264592	-0.042260
C141	C	1.097226	0.214184	-0.127227
H142	H	1.024834	0.267462	-0.146057
H143	H	1.070979	0.165612	-0.096302
C144	C	1.333006	0.087327	-0.213251
C145	C	1.244100	0.152764	-0.236386
H146	H	1.423605	0.049436	-0.280584
H147	H	1.324606	0.121285	-0.156005
H148	H	1.311117	0.046859	-0.187478
H149	H	1.265979	0.193238	-0.262145
H150	H	1.252506	0.118811	-0.293639
H151	H	0.464980	1.118813	0.579570
H152	H	1.121580	0.769120	-0.652188
O153	O	0.294893	0.954162	0.765066
C154	C	0.201370	0.943339	0.846518
H155	H	0.224735	0.875481	0.805340
H156	H	0.094034	1.008228	0.880053
C157	C	0.183944	1.018872	0.996395
C158	C	0.212649	0.935522	0.945821
H159	H	0.190895	1.014054	1.057653
H160	H	0.246948	1.026167	0.941521
H161	H	0.094499	1.072938	1.024331
H162	H	0.302098	0.881460	0.917874
H163	H	0.149660	0.928218	1.000694
H164	H	1.121575	0.769132	-0.468806
O165	O	0.785845	0.906363	-0.444001
C166	C	0.786114	0.841818	-0.388795
H167	H	0.895277	0.775687	-0.429129
H168	H	0.730719	0.819368	-0.397934
C169	C	0.579703	0.972194	-0.212125
C170	C	0.713779	0.890974	-0.261657
H171	H	0.535078	1.002516	-0.133699
H172	H	0.579518	1.015679	-0.249318
H173	H	0.533558	0.953474	-0.219751
H174	H	0.759926	0.909697	-0.254042
H175	H	0.713970	0.847493	-0.224459
H176	H	0.656805	0.732426	-0.105363
H177	H	0.486776	0.946350	0.564431
H178	H	0.468504	0.816865	0.438872
O179	O	0.267356	1.266310	-0.044953
C180	C	0.162357	1.358275	-0.027264
H181	H	0.172005	1.412664	-0.002674
H182	H	0.059926	1.379182	0.044069
C183	C	0.161143	1.290220	-0.167721
C184	C	0.173001	1.357020	-0.137529
H185	H	0.167703	1.289447	-0.235735
H186	H	0.231879	1.228261	-0.179636
H187	H	0.075784	1.307651	-0.108268
H188	H	0.258365	1.339582	-0.196975
H189	H	0.102278	1.418977	-0.125626
O190	O	1.564492	0.251284	-0.101613
C191	C	1.500672	0.260710	-0.152790
H192	H	1.453081	0.333906	-0.160342
H193	H	1.418301	0.253993	-0.098229
C194	C	1.664967	0.091303	-0.262919
C195	C	1.606525	0.181200	-0.272203
H196	H	1.730259	0.042256	-0.336576
H197	H	1.707962	0.084951	-0.228437
H198	H	1.596313	0.085719	-0.217446
H199	H	1.675176	0.186787	-0.317662
H200	H	1.563544	0.187551	-0.306695
H201	H	0.350512	0.816872	0.556851
O202	O	1.335964	0.610971	0.149604
C203	C	1.399764	0.601509	0.200813
H204	H	1.504929	0.528302	0.150760
H205	H	1.336263	0.608226	0.292147
C206	C	1.284010	0.770906	0.262465
C207	C	1.413180	0.680994	0.200983
H208	H	1.292281	0.819938	0.262575
H209	H	1.241022	0.777282	0.227968
H210	H	1.231106	0.776490	0.338570
H211	H	1.466076	0.675407	0.124876
H212	H	1.456177	0.674620	0.235467
O213	O	1.357771	0.413095	-0.092482
C214	C	1.252749	0.505059	-0.074773
H215	H	1.262384	0.559455	-0.050178
H216	H	1.150331	0.525951	-0.003436
C217	C	1.251528	0.437006	-0.215225
C218	C	1.263369	0.503814	-0.185027
H219	H	1.258074	0.436238	-0.283232
H220	H	1.322280	0.375047	-0.227154
H221	H	1.166180	0.454423	-0.155768
H222	H	1.348723	0.486390	-0.244476
H223	H	1.192632	0.565771	-0.173111
H224	H	0.805043	0.898616	-0.343246
O225	O	0.451809	1.302728	0.188258
C226	C	0.378114	1.400873	0.245418
H227	H	0.276251	1.444609	0.259432
H228	H	0.438182	1.425046	0.191851
C229	C	0.479180	1.362629	0.344077
C230	C	0.354065	1.416346	0.361297
H231	H	0.464351	1.372174	0.415554
H232	H	0.528834	1.296507	0.305564
H233	H	0.529225	1.382779	0.299434
H234	H	0.304031	1.396188	0.405927
H235	H	0.304402	1.482466	0.399820
H236	H	0.465035	1.118782	-0.043976
H237	H	0.169547	1.433169	0.079833
H238	H	0.444700	1.301077	0.377037
H239	H	0.254522	1.449912	0.558916
H240	H	0.169543	1.433226	0.751144
H241	H	0.274777	1.267676	0.761469
H242	H	1.365215	0.414404	-0.281412
H243	H	1.640432	0.282255	-0.655519
H244	H	1.535182	0.447808	-0.665842
H245	H	1.535103	0.447898	0.131293
H246	H	1.640419	0.282312	0.015743
