data_functionalizedCrystal
_audit_creation_method	'MofGen! by Chris Wilmer'
_symmetry_space_group_name_H-M	'P1'
_symmetry_Int_Tables_number	1
_symmetry_cell_setting	triclinic
loop_
_symmetry_equiv_pos_as_xyz
  x,y,z
_cell_length_a	21.295417
_cell_length_b	11.169417
_cell_length_c	11.169409
_cell_angle_alpha	90.021649
_cell_angle_beta	89.958601
_cell_angle_gamma	89.971271
loop_
_atom_site_label
_atom_site_type_symbol
_atom_site_fract_x
_atom_site_fract_y
_atom_site_fract_z
Zn1	Zn	-0.250588	-1.834794	-0.678525
Zn2	Zn	-0.355876	-1.834613	-0.477811
Zn3	Zn	-0.250622	-1.634080	-0.477853
Zn4	Zn	-0.355820	-1.634017	-0.678449
O5	O	-0.303227	-1.734376	-0.578160
O6	O	-0.264564	-2.002720	-0.651914
O7	O	-0.341951	-1.807962	-0.309866
O8	O	-0.162528	-1.660807	-0.504523
O9	O	-0.341919	-2.002587	-0.504450
O10	O	-0.162503	-1.808271	-0.651956
O11	O	-0.264621	-1.660632	-0.309898
O12	O	-0.264567	-1.466122	-0.504449
O13	O	-0.341823	-1.660700	-0.846409
O14	O	-0.341856	-1.466076	-0.651826
O15	O	-0.264510	-1.808210	-0.846465
O16	O	-0.443958	-1.807901	-0.504376
O17	O	-0.443917	-1.660524	-0.651784
C18	C	-0.303209	-1.422551	-0.578134
C19	C	-0.303217	-1.289151	-0.578152
C20	C	-0.466778	-1.734219	-0.578093
C21	C	-0.536746	-1.734261	-0.578105
C22	C	-0.569613	-1.811069	-0.501428
C23	C	-0.635356	-1.811125	-0.501455
C24	C	-0.668229	-1.734352	-0.578146
C25	C	-0.635354	-1.657539	-0.654838
C26	C	-0.569612	-1.657494	-0.654817
N27	N	-0.771492	-1.629362	-0.587287
N28	N	-0.833943	-1.629409	-0.587300
C29	C	-0.866303	-1.734487	-0.578215
N30	N	-0.833853	-1.839518	-0.569094
N31	N	-0.771396	-1.839470	-0.569075
C32	C	-0.739514	-1.734394	-0.578178
C33	C	-0.970456	-1.811362	-0.501563
C34	C	-1.036200	-1.811420	-0.501599
C35	C	-1.036196	-1.657824	-0.654976
C36	C	-0.970454	-1.657776	-0.654946
C37	C	-0.937588	-1.734543	-0.578234
C38	C	-0.139036	-1.734567	-0.578253
C39	C	-0.069068	-1.734648	-0.578292
C40	C	-0.303157	-1.734468	-0.891202
C41	C	-0.303127	-1.734507	-1.024602
C42	C	-0.303238	-1.047418	-0.578178
C43	C	-0.303227	-1.180818	-0.578165
C44	C	-0.303251	-1.734353	-0.266335
C45	C	-0.303103	-1.734547	-0.132936
H46	H	-0.662122	-1.873675	-0.439016
H47	H	-0.542856	-1.873580	-0.438967
H48	H	-0.662123	-1.595033	-0.717283
C49	C	-1.110054	-1.641121	-0.816422
C50	C	-1.072322	-1.573436	-0.739282
H51	H	-1.132361	-1.589022	-0.868468
H52	H	-1.084360	-1.693359	-0.862361
H53	H	-1.139038	-1.686871	-0.770748
H54	H	-1.043335	-1.527693	-0.784955
H55	H	-1.098018	-1.521177	-0.693337
C56	C	-1.110278	-1.828374	-0.340320
C57	C	-1.072366	-1.895919	-0.417430
H58	H	-1.132618	-1.880563	-0.288399
H59	H	-1.084702	-1.776155	-0.294247
H60	H	-1.139232	-1.782610	-0.386024
H61	H	-1.043409	-1.941676	-0.371726
H62	H	-1.097944	-1.948159	-0.463508
H63	H	-0.542851	-1.594947	-0.717258
H64	H	-0.943691	-1.595227	-0.717379
H65	H	-0.943695	-1.873874	-0.439103
