data_functionalizedCrystal
_audit_creation_method	'MofGen! by Chris Wilmer'
_symmetry_space_group_name_H-M	'P1'
_symmetry_Int_Tables_number	1
_symmetry_cell_setting	triclinic
loop_
_symmetry_equiv_pos_as_xyz
  x,y,z
_cell_length_a	9.065218
_cell_length_b	27.732048
_cell_length_c	8.140239
_cell_angle_alpha	89.991555
_cell_angle_beta	89.997198
_cell_angle_gamma	83.829270
loop_
_atom_site_label
_atom_site_type_symbol
_atom_site_fract_x
_atom_site_fract_y
_atom_site_fract_z
O1	O	1.955891	0.070866	-0.136639
O2	O	1.526237	0.076679	-0.136643
O3	O	1.754408	0.003467	-0.136609
O4	O	1.727720	0.144079	-0.136672
O5	O	1.754396	0.003466	0.136618
O6	O	1.526224	0.076678	0.136584
O7	O	1.955879	0.070866	0.136588
Zn8	Zn	1.741050	0.073772	0.179967
Zn9	Zn	1.741066	0.073773	-0.180021
O10	O	1.727708	0.144078	0.136555
C11	C	1.471280	0.076120	-0.000029
C12	C	1.307543	0.074450	-0.000029
C13	C	1.753842	-0.014544	0.000009
C14	C	1.752155	-0.068210	0.000022
C15	C	1.876369	-0.406178	-0.000061
C16	C	1.870110	-0.607880	-0.000084
O17	O	1.983695	-0.638360	-0.000155
N18	N	1.734814	-0.627927	-0.000083
C19	C	1.601073	-0.597545	-0.000088
O20	O	1.485852	-0.619225	-0.000105
C21	C	1.607334	-0.395844	-0.000077
C22	C	1.742639	-0.375800	-0.000061
C23	C	2.011663	-0.386133	-0.000046
C24	C	2.013226	-0.335710	-0.000032
C25	C	1.879496	-0.305332	-0.000031
C26	C	1.744202	-0.325377	-0.000046
C27	C	1.473594	-0.365463	-0.000094
C28	C	1.475171	-0.315035	-0.000095
C29	C	1.610476	-0.294991	-0.000079
C30	C	1.612034	-0.244577	-0.000031
N31	N	1.747331	-0.224529	-0.000031
C32	C	1.881061	-0.254907	-0.000032
C33	C	1.597796	-0.703442	-0.000091
C34	C	1.596230	-0.753867	-0.000091
C35	C	1.865268	-0.764198	-0.000089
C36	C	1.866832	-0.713772	-0.000078
C37	C	1.733092	-0.683395	-0.000091
C38	C	1.884334	-0.149016	0.000001
C39	C	1.885886	-0.098588	0.000022
C40	C	1.616849	-0.088262	0.000012
C41	C	1.615296	-0.138685	-0.000001
C42	C	1.749051	-0.169061	-0.000012
O43	O	1.498510	-0.214067	0.000021
O44	O	1.996266	-0.233218	-0.000051
C45	C	1.874806	-0.456600	-0.000076
C46	C	1.739512	-0.476645	-0.000090
C47	C	1.605781	-0.446267	-0.000090
C48	C	1.737946	-0.527070	-0.000090
C49	C	1.871677	-0.557448	-0.000090
C50	C	2.006973	-0.537401	-0.000090
C51	C	2.008537	-0.486978	-0.000076
C52	C	1.470485	-0.466314	-0.000090
C53	C	1.468933	-0.516737	-0.000102
C54	C	1.602663	-0.547115	-0.000103
C55	C	2.010836	0.071425	-0.000029
C56	C	2.174573	0.073095	-0.000039
C57	C	1.728274	0.162089	-0.000067
C58	C	1.729961	0.215755	-0.000091
N59	N	1.741049	0.073771	0.425650
N60	N	1.741078	0.073770	-0.425704
H61	H	1.996072	-0.082271	0.000040
H62	H	1.486052	-0.770182	-0.000076
N63	N	1.461160	-0.672423	-0.000104
N64	N	1.340381	-0.690334	-0.000100
H65	H	1.243879	-0.668429	-0.000103
N66	N	1.333887	-0.435282	-0.000097
N67	N	1.304732	-0.405983	-0.115256
H68	H	1.208251	-0.384066	-0.115255
H69	H	1.363415	-0.381774	-0.000117
N70	N	1.480239	-0.057233	-0.000025
N71	N	1.359438	-0.075132	-0.000058
H72	H	1.262954	-0.053217	-0.000101
N73	N	2.151440	-0.315241	-0.000002
N74	N	2.241330	-0.324342	0.115168
H75	H	2.338952	-0.309889	0.115186
N76	N	2.020972	-0.180032	-0.000016
N77	N	2.141751	-0.162121	-0.000002
H78	H	2.238254	-0.184026	-0.000005
N79	N	2.148280	-0.417157	0.000000
N80	N	2.177422	-0.446447	0.115190
H81	H	2.273918	-0.468355	0.115239
H82	H	1.977009	-0.697456	-0.000066
H83	H	1.366261	-0.290304	-0.000108
H84	H	2.118716	-0.470663	-0.000063
N85	N	1.330711	-0.537209	-0.000083
N86	N	1.240808	-0.528123	0.115085
H87	H	1.143191	-0.542580	0.115090
H88	H	1.974157	-0.788940	-0.000089
H89	H	1.505120	-0.155005	0.000032
H90	H	2.115862	-0.562143	-0.000083
