data_functionalizedCrystal
_audit_creation_method	'MofGen! by Chris Wilmer'
_symmetry_space_group_name_H-M	'P1'
_symmetry_Int_Tables_number	1
_symmetry_cell_setting	triclinic
loop_
_symmetry_equiv_pos_as_xyz
  x,y,z
_cell_length_a	13.262522
_cell_length_b	17.038272
_cell_length_c	11.804365
_cell_angle_alpha	102.699962
_cell_angle_beta	62.659257
_cell_angle_gamma	87.642882
loop_
_atom_site_label
_atom_site_type_symbol
_atom_site_fract_x
_atom_site_fract_y
_atom_site_fract_z
O1	O	1.520336	0.011437	-0.591398
O2	O	1.194687	0.039637	-0.485937
O3	O	1.355574	-0.088183	-0.538031
O4	O	1.359449	0.139258	-0.539304
O5	O	1.313215	-0.054565	-0.326259
O6	O	1.152328	0.073256	-0.274166
O7	O	1.477978	0.045056	-0.379627
Cu8	Cu	1.311285	0.062225	-0.307560
Cu9	Cu	1.361379	0.022468	-0.558004
O10	O	1.317090	0.172876	-0.327533
C11	C	1.131634	0.057958	-0.366491
C12	C	1.006865	0.062452	-0.326084
C13	C	0.925165	0.082891	-0.191658
C14	C	0.807937	0.087107	-0.153684
C15	C	0.772397	0.070891	-0.250132
C16	C	0.854097	0.050457	-0.384561
C17	C	0.971337	0.046234	-0.422539
C18	C	0.818569	0.034234	-0.481014
C19	C	0.900270	0.013800	-0.615443
C20	C	1.017498	0.009579	-0.653414
C21	C	1.053038	0.025795	-0.556966
C22	C	0.701329	0.038457	-0.443036
C23	C	0.747502	0.001801	-0.673917
C24	C	0.864730	-0.002416	-0.711891
C25	C	1.330874	-0.100333	-0.431005
C26	C	1.320370	-0.186619	-0.427604
C27	C	1.416807	-0.241381	-0.458833
C28	C	1.406933	-0.322458	-0.455647
C29	C	1.300620	-0.348769	-0.421222
C30	C	1.204177	-0.294001	-0.389993
C31	C	1.214053	-0.212928	-0.393189
C32	C	1.265729	-0.592848	-0.409939
C33	C	1.255859	-0.673928	-0.406741
C34	C	1.458617	-0.702379	-0.472398
C35	C	1.468483	-0.621302	-0.475583
C36	C	1.372041	-0.566542	-0.444361
C37	C	1.290524	-0.431641	-0.417960
C38	C	1.382140	-0.483673	-0.447632
C39	C	1.541030	0.026735	-0.499076
C40	C	1.665801	0.022240	-0.539491
C41	C	1.341791	0.185025	-0.434562
C42	C	1.352296	0.271311	-0.437971
N43	N	1.276060	0.090188	-0.131414
N44	N	1.396612	-0.005502	-0.734153
C45	C	1.481199	-0.072665	0.176113
C46	C	1.507846	-0.093822	0.042824
C47	C	1.449901	-0.047821	-0.000743
C48	C	1.365307	0.019340	0.088994
C49	C	1.338664	0.040503	0.222295
C50	C	1.307366	0.065346	0.045439
C51	C	1.222771	0.132508	0.135176
C52	C	1.196132	0.153667	0.268463
C53	C	1.254077	0.107666	0.312029
C54	C	1.334008	0.044184	-0.087861
C55	C	1.191473	0.157351	-0.041679
C56	C	1.164827	0.178508	0.091610
H57	H	0.634818	0.055101	-0.333582
N58	N	0.961490	0.099438	-0.093168
N59	N	1.066167	0.095659	-0.127098
H60	H	1.091823	0.107344	-0.057534
N61	N	1.525411	-0.214514	-0.494024
N62	N	1.571399	-0.186619	-0.592404
H63	H	1.648105	-0.167647	-0.617265
H64	H	1.117615	-0.315431	-0.361972
N65	N	1.505456	-0.378387	-0.487564
N66	N	1.600371	-0.354884	-0.518297
H67	H	1.669959	-0.394384	-0.540844
N68	N	1.577089	-0.594441	-0.510749
N69	N	1.663187	-0.643345	-0.538633
H70	H	1.739892	-0.624376	-0.563468
N71	N	0.711235	-0.014774	-0.772467
N72	N	0.744872	-0.082841	-0.855640
H73	H	0.719255	-0.094550	-0.925237
N74	N	0.948193	-0.023310	-0.849203
N75	N	0.955650	-0.090436	-0.923895
H76	H	1.014597	-0.105195	-1.020872
N77	N	1.226846	0.129286	0.448189
N78	N	1.239270	0.197965	0.499820
H79	H	1.220029	0.213233	0.595988
H80	H	1.468705	-0.462251	-0.475690
H81	H	1.528376	-0.110109	0.211593
H82	H	1.127260	0.208359	0.341526
N83	N	1.557112	-0.758325	-0.504282
N84	N	1.548286	-0.830709	-0.501423
H85	H	1.617852	-0.870223	-0.523945
H86	H	0.741425	0.103734	-0.044232
H87	H	1.187199	-0.548271	-0.384515
H88	H	1.084018	-0.007070	-0.762875
N89	N	1.078418	0.247106	0.183298
N90	N	1.054642	0.265985	0.302305
H91	H	0.993615	0.314432	0.367063
N92	N	1.181917	-0.458501	-0.382784
N93	N	1.132982	-0.454084	-0.450411
H94	H	1.056275	-0.473053	-0.425567
H95	H	1.402886	-0.010499	-0.160914
N96	N	1.594268	-0.162424	-0.048774
N97	N	1.568968	-0.220872	-0.110129
H98	H	1.630021	-0.269324	-0.174802
N99	N	1.132297	0.204342	-0.086189
N100	N	1.156097	0.185441	-0.205204
H101	H	1.114312	0.218627	-0.236651
H102	H	1.135524	-0.168340	-0.367759
N103	N	0.652648	0.075199	-0.211324
N104	N	0.579714	0.093445	-0.091298
H105	H	0.495135	0.096491	-0.063882
N106	N	1.172829	0.021381	-0.595930
N107	N	1.240399	-0.044063	-0.666110
H108	H	1.325018	-0.047215	-0.693693
H109	H	1.169278	-0.695342	-0.378686
H110	H	1.471600	-0.065051	-0.109274
