data_functionalizedCrystal
_audit_creation_method	'MofGen! by Chris Wilmer'
_symmetry_space_group_name_H-M	'P1'
_symmetry_Int_Tables_number	1
_symmetry_cell_setting	triclinic
loop_
_symmetry_equiv_pos_as_xyz
  x,y,z
_cell_length_a	19.188930
_cell_length_b	14.519709
_cell_length_c	12.996460
_cell_angle_alpha	89.999966
_cell_angle_beta	89.988736
_cell_angle_gamma	96.587536
loop_
_atom_site_label
_atom_site_type_symbol
_atom_site_fract_x
_atom_site_fract_y
_atom_site_fract_z
O1	O	0.091525	-1.223300	-0.085445
O2	O	0.102303	-0.954756	-0.085478
O3	O	-0.004714	-1.096778	-0.085440
O4	O	0.198542	-1.081279	-0.085482
O5	O	-0.004720	-1.096763	0.085693
O6	O	0.102297	-0.954742	0.085656
O7	O	0.091519	-1.223285	0.085689
Cu8	Cu	0.096907	-1.089012	0.101298
Cu9	Cu	0.096914	-1.089030	-0.101087
O10	O	0.198536	-1.081264	0.085651
C11	C	0.101797	-0.920392	0.000085
C12	C	0.100292	-0.818020	0.000073
C13	C	-0.030730	-1.096269	0.000129
C14	C	-0.108240	-1.094762	0.000138
N15	N	0.096902	-1.089007	0.243645
C16	C	-0.152867	-1.178095	0.000153
C17	C	-0.225696	-1.176680	0.000137
C18	C	-0.253895	-1.091926	0.000125
C19	C	-0.209257	-1.008582	0.000105
C20	C	-0.136430	-1.009999	0.000111
N21	N	-0.362132	-1.027137	0.058358
N22	N	-0.431316	-1.025796	0.058354
C23	C	-0.473318	-1.087649	0.000104
N24	N	-0.443526	-1.150908	-0.058129
N25	N	-0.374336	-1.152252	-0.058120
C26	C	-0.332863	-1.090379	0.000118
C27	C	-0.596916	-1.169454	0.000100
C28	C	-0.669745	-1.168035	0.000077
C29	C	-0.653305	-0.999934	0.000055
C30	C	-0.580477	-1.001355	0.000068
C31	C	-0.552287	-1.086118	0.000095
C32	C	0.224551	-1.081773	0.000079
C33	C	0.302061	-1.083280	0.000064
C34	C	0.092024	-1.257649	0.000124
C35	C	0.093529	-1.360021	0.000128
C36	C	0.094751	-0.443159	0.000121
C37	C	0.096290	-0.547457	0.000108
C38	C	0.097521	-0.630586	0.000097
C39	C	0.099060	-0.734891	0.000085
N40	N	0.096914	-1.089042	-0.243434
C41	C	0.096915	-1.089028	0.663460
C42	C	0.096914	-1.089020	0.546655
C43	C	0.096909	-1.089018	0.453556
C44	C	0.096906	-1.089008	0.336744
H45	H	-0.262039	-1.244542	0.000145
H46	H	-0.676263	-0.930926	0.000041
H47	H	-0.706081	-1.235898	0.000083
H48	H	-0.100094	-0.942137	0.000099
O49	O	-0.537050	-0.920465	0.000201
C50	C	-0.445328	-0.824479	0.088884
C51	C	-0.494458	-0.916134	0.088855
H52	H	-0.410890	-0.820939	0.160564
H53	H	-0.410761	-0.820936	0.017316
H54	H	-0.478003	-0.763672	0.088823
H55	H	-0.461838	-0.976993	0.088953
H56	H	-0.529027	-0.919596	0.160417
H57	H	-0.129920	-1.247116	0.000172
O58	O	-0.236729	-0.926310	-0.000042
C59	C	-0.309367	-0.827140	-0.088752
C60	C	-0.278317	-0.920357	-0.088695
H61	H	-0.342986	-0.822288	-0.160432
H62	H	-0.343108	-0.822251	-0.017183
H63	H	-0.264946	-0.767835	-0.088711
H64	H	-0.322693	-0.979715	-0.088772
H65	H	-0.244558	-0.925165	-0.160258
H66	H	-0.573962	-1.238472	0.000117
