data_functionalizedCrystal
_audit_creation_method	'MofGen! by Chris Wilmer'
_symmetry_space_group_name_H-M	'P1'
_symmetry_Int_Tables_number	1
_symmetry_cell_setting	triclinic
loop_
_symmetry_equiv_pos_as_xyz
  x,y,z
_cell_length_a	19.077105
_cell_length_b	12.827892
_cell_length_c	19.076919
_cell_angle_alpha	87.724465
_cell_angle_beta	89.923776
_cell_angle_gamma	87.711903
loop_
_atom_site_label
_atom_site_type_symbol
_atom_site_fract_x
_atom_site_fract_y
_atom_site_fract_z
Zn1	Zn	1.058323	-0.505562	0.440440
Zn2	Zn	1.062981	-0.673587	0.322941
Zn3	Zn	0.945540	-0.491563	0.318233
Zn4	Zn	0.940802	-0.672957	0.435693
O5	O	1.001912	-0.585917	0.379327
O6	O	1.157274	-0.533973	0.428810
O7	O	1.051334	-0.643846	0.223985
O8	O	0.960534	-0.347187	0.334460
O9	O	1.160695	-0.657421	0.342484
O10	O	1.043396	-0.357472	0.424245
O11	O	0.965050	-0.510114	0.220526
O12	O	0.846579	-0.509503	0.329857
O13	O	0.952460	-0.656347	0.534655
O14	O	0.843098	-0.642772	0.416155
O15	O	1.038802	-0.533362	0.538142
O16	O	1.046740	-0.819737	0.337881
O17	O	0.956976	-0.819274	0.420720
C18	C	0.819342	-0.574551	0.371981
C19	C	0.741237	-0.569714	0.368855
C20	C	0.702753	-0.636925	0.412246
C21	C	0.629365	-0.632367	0.409312
C22	C	0.594463	-0.560602	0.362983
C23	C	0.632953	-0.493385	0.319590
C24	C	0.706339	-0.497938	0.322528
C25	C	0.375174	-0.539528	0.349389
C26	C	0.301782	-0.534981	0.346453
C27	C	0.298199	-0.673963	0.436177
C28	C	0.371587	-0.678514	0.439108
C29	C	0.410071	-0.611293	0.395717
N30	N	0.519449	-0.555944	0.359982
N31	N	0.485083	-0.615947	0.398723
C32	C	1.001868	-0.857424	0.379313
C33	C	1.001913	-0.973581	0.379333
C34	C	1.046380	-1.025566	0.338391
C35	C	1.046427	-1.145620	0.338411
C36	C	1.185194	-0.597329	0.386702
C37	C	1.263298	-0.602192	0.389845
C38	C	0.994583	-0.596346	0.562607
C39	C	0.991460	-0.600790	0.640711
C40	C	1.001974	-0.313353	0.379357
C41	C	1.002000	-0.197202	0.379370
C42	C	1.009252	-0.575456	0.196761
C43	C	1.012511	-0.570727	0.118663
C44	C	1.034945	-0.538849	0.679221
C45	C	1.032002	-0.543020	0.752607
C46	C	0.985578	-0.609138	0.787481
C47	C	0.942089	-0.671081	0.748966
C48	C	0.945028	-0.666904	0.675581
C49	C	0.971962	-0.628492	1.006763
C50	C	0.969027	-0.632667	1.080153
C51	C	1.058939	-0.504604	1.083789
C52	C	1.061878	-0.500438	1.010402
C53	C	1.018386	-0.562376	0.971894
N54	N	0.982570	-0.613406	0.862494
N55	N	1.021391	-0.558103	0.896882
H56	H	0.399999	-0.736955	0.476832
C57	C	0.417496	-0.465588	0.301654
N58	N	0.449376	-0.409894	0.265696
C59	C	0.897193	-0.735045	0.633221
N60	N	0.861161	-0.786370	0.601316
C61	C	0.594559	-0.414440	0.268629
N62	N	0.565640	-0.354980	0.230242
C63	C	0.587036	-0.706324	0.457033
N64	N	0.555154	-0.762038	0.492974
H65	H	1.084495	-1.190325	0.303357
C66	C	0.748672	-0.424003	0.274792
N67	N	0.780556	-0.368311	0.238837
H68	H	0.273368	-0.476530	0.308731
H69	H	1.084418	-0.981195	0.303327
H70	H	0.936558	-0.678943	0.975419
H71	H	0.731165	-0.695367	0.449970
C72	C	1.106768	-0.436463	1.126154
N73	N	1.142791	-0.385130	1.158064
C74	C	0.891015	-0.743801	0.787331
N75	N	0.852544	-0.798575	0.816227
C76	C	0.950566	-1.136817	0.426727
N77	N	0.911826	-1.091327	0.462398
C78	C	1.079839	-0.474882	0.794964
N79	N	1.115873	-0.423557	0.826868
C80	C	1.086014	-0.466112	0.640865
N81	N	1.124479	-0.411321	0.611978
C82	C	1.112941	-0.427692	0.972045
N83	N	1.151401	-0.372897	0.943155
C84	C	0.917952	-0.705402	1.118514
N85	N	0.879485	-0.760183	1.147407
H86	H	0.963881	-1.017954	0.414402
H87	H	0.266859	-0.728689	0.471504
