data_functionalizedCrystal
_audit_creation_method	'MofGen! by Chris Wilmer'
_symmetry_space_group_name_H-M	'P1'
_symmetry_Int_Tables_number	1
_symmetry_cell_setting	triclinic
loop_
_symmetry_equiv_pos_as_xyz
  x,y,z
_cell_length_a	19.288864
_cell_length_b	10.654550
_cell_length_c	17.766277
_cell_angle_alpha	89.994852
_cell_angle_beta	89.976791
_cell_angle_gamma	83.810575
loop_
_atom_site_label
_atom_site_type_symbol
_atom_site_fract_x
_atom_site_fract_y
_atom_site_fract_z
O1	O	0.922379	0.156657	-0.062834
O2	O	0.720257	0.177789	-0.062782
O3	O	0.825965	-0.015616	-0.062807
O4	O	0.816670	0.350062	-0.062810
O5	O	0.825946	-0.015625	0.062382
O6	O	0.720238	0.177780	0.062406
O7	O	0.922360	0.156647	0.062355
Cu8	Cu	0.821297	0.167212	0.073811
Cu9	Cu	0.821319	0.167224	-0.074239
O10	O	0.816652	0.350052	0.062379
C11	C	0.694366	0.177105	-0.000181
C12	C	0.617249	0.175063	-0.000162
C13	C	0.573296	0.288545	-0.000175
C14	C	0.500836	0.286627	-0.000183
C15	C	0.472333	0.171222	-0.000193
C16	C	0.516296	0.057725	-0.000176
C17	C	0.588754	0.059646	-0.000160
C18	C	0.363484	0.080503	-0.044077
C19	C	0.291027	0.078587	-0.044098
C20	C	0.248849	0.165292	-0.000239
C21	C	0.279135	0.253934	0.043630
C22	C	0.351593	0.255855	0.043646
C23	C	0.393766	0.169126	-0.000210
C24	C	0.126326	0.276702	-0.000260
C25	C	0.053865	0.274779	-0.000263
C26	C	0.069327	0.045875	-0.000264
C27	C	0.141786	0.047800	-0.000253
C28	C	0.170281	0.163217	-0.000254
C29	C	0.825273	-0.062404	-0.000213
C30	C	0.823231	-0.201803	-0.000215
C31	C	0.885471	-0.282621	-0.000229
C32	C	0.883548	-0.413601	-0.000234
C33	C	0.757141	-0.382932	-0.000208
C34	C	0.759065	-0.251955	-0.000208
C35	C	0.958451	-0.300329	-0.000240
C36	C	0.956528	-0.431309	-0.000245
C37	C	0.948250	0.157332	-0.000248
C38	C	1.025367	0.159373	-0.000273
C39	C	0.817344	0.396840	-0.000216
C40	C	0.819385	0.536240	-0.000219
N41	N	0.821287	0.167203	0.177941
N42	N	0.821335	0.167223	-0.178369
C43	C	0.868110	0.081606	0.217318
C44	C	0.868114	0.081600	0.296119
C45	C	0.821301	0.167213	0.335542
C46	C	0.774469	0.252818	0.296156
C47	C	0.774462	0.252813	0.217356
C48	C	0.812752	0.281634	0.460380
C49	C	0.812764	0.281641	0.539179
C50	C	0.821320	0.167229	0.578588
C51	C	0.829879	0.052804	0.539189
C52	C	0.829871	0.052799	0.460389
C53	C	0.821304	0.167228	0.420988
C54	C	0.868150	0.081617	0.703410
C55	C	0.868149	0.081610	0.782214
C56	C	0.774508	0.252839	0.782249
C57	C	0.774506	0.252835	0.703447
C58	C	0.821330	0.167226	0.664033
H59	H	0.046120	-0.048091	-0.000320
H60	H	0.177574	-0.044609	-0.000247
O61	O	0.728961	0.335827	0.665157
C62	C	0.634263	0.363006	0.576197
C63	C	0.685794	0.268877	0.619527
H64	H	0.599359	0.308914	0.539283
H65	H	0.600753	0.424186	0.617870
H66	H	0.664566	0.425618	0.539319
H67	H	0.655546	0.206182	0.656406
H68	H	0.719303	0.207785	0.577813
O69	O	0.838066	-0.058325	0.577489
C70	C	0.788491	-0.194133	0.666515
C71	C	0.779118	-0.068257	0.623174
H72	H	0.740846	-0.202192	0.703474
H73	H	0.794566	-0.275953	0.624849
H74	H	0.837034	-0.197403	0.703349
H75	H	0.730574	-0.064863	0.586338
H76	H	0.773084	0.013506	0.664881
O77	O	0.913653	-0.001670	0.665234
C78	C	1.006556	-0.171456	0.673514
C79	C	0.955052	-0.077222	0.716839
H80	H	1.040051	-0.232547	0.715217
H81	H	0.976303	-0.234140	0.636661
H82	H	1.041480	-0.117375	0.636580
H83	H	0.920116	-0.131201	0.753813
H84	H	0.985349	-0.014540	0.753644
H85	H	0.981682	-0.265204	0.053808
H86	H	0.984018	-0.473662	0.052138
H87	H	0.906235	0.011895	0.185229
H88	H	0.987004	-0.271578	-0.052635
O89	O	0.913664	-0.001607	0.334264
C90	C	1.006510	-0.171495	0.325918
C91	C	0.954977	-0.077309	0.282630
H92	H	1.039916	-0.232742	0.284191
H93	H	1.041515	-0.117500	0.362769
H94	H	0.976210	-0.234031	0.362851
H95	H	0.985221	-0.014750	0.245656
H96	H	0.919972	-0.131383	0.245827
H97	H	0.596492	0.382526	-0.000177
H98	H	0.836838	-0.040369	0.428313
O99	O	0.261725	-0.007636	-0.086727
C100	C	0.281166	-0.181322	-0.173761
C101	C	0.314440	-0.083758	-0.125505
H102	H	0.323769	-0.242875	-0.205138
H103	H	0.251355	-0.243155	-0.135846
H104	H	0.243728	-0.130095	-0.216065
H105	H	0.351908	-0.134881	-0.083196
H106	H	0.344207	-0.021930	-0.163467
O107	O	0.729049	0.336147	0.179137
C108	C	0.689367	0.554695	0.155069
C109	C	0.740847	0.460455	0.198386
H110	H	0.698878	0.655219	0.170628
H111	H	0.697405	0.540101	0.091968
H112	H	0.633667	0.538521	0.170582
H113	H	0.796567	0.476572	0.182936
H114	H	0.732748	0.475072	0.261476
H115	H	0.704899	-0.423782	-0.000203
O116	O	0.728967	0.335812	0.334532
C117	C	0.634226	0.362980	0.423519
C118	C	0.685732	0.268855	0.380120
H119	H	0.599247	0.308882	0.460376
H120	H	0.664478	0.425566	0.460439
H121	H	0.600788	0.424187	0.381823
H122	H	0.719183	0.207564	0.421762
H123	H	0.655438	0.206356	0.343189
H124	H	0.736390	0.322542	0.814346
O125	O	0.458230	0.396983	-0.000235
C126	C	0.450536	0.624225	-0.000211
C127	C	0.498864	0.499342	-0.000166
H128	H	0.483369	0.707014	-0.000140
H129	H	0.416273	0.629120	-0.052625
H130	H	0.416178	0.628984	0.052157
H131	H	0.533265	0.494499	-0.052499
H132	H	0.533080	0.494499	0.052282
O133	O	0.982905	-0.486136	-0.064763
C134	C	1.034345	-0.454970	-0.186041
C135	C	1.004508	-0.392717	-0.113009
H136	H	1.051806	-0.379466	-0.225075
H137	H	1.080852	-0.526452	-0.172018
H138	H	0.992414	-0.505082	-0.215121
H139	H	1.046389	-0.342536	-0.083894
H140	H	0.957985	-0.321302	-0.127081
O141	O	0.804413	0.392898	0.577332
C142	C	0.787470	0.619873	0.569004
C143	C	0.796904	0.493964	0.525706
H144	H	0.781411	0.701619	0.527283
H145	H	0.738938	0.623240	0.605905
H146	H	0.835133	0.627970	0.605887
H147	H	0.749280	0.485784	0.488782
H148	H	0.845464	0.490651	0.488852
H149	H	0.906276	0.011899	0.814274
H150	H	0.397820	0.009895	-0.079796
O151	O	0.631355	-0.050711	-0.000187
C152	C	0.639044	-0.277952	-0.000142
C153	C	0.590717	-0.153066	-0.000128
H154	H	0.606208	-0.360739	-0.000079
H155	H	0.673366	-0.282856	-0.052541
H156	H	0.673342	-0.282707	0.052241
H157	H	0.556376	-0.148227	-0.052476
H158	H	0.556443	-0.148214	0.052305
H159	H	0.376250	0.328027	0.079369
O160	O	0.238250	0.338436	0.086142
C161	C	0.201451	0.557735	0.111378
C162	C	0.247741	0.462109	0.063180
H163	H	0.209119	0.657745	0.092842
H164	H	0.144417	0.541400	0.103880
H165	H	0.216584	0.544844	0.173139
H166	H	0.232670	0.474943	0.001401
H167	H	0.304763	0.478469	0.070742
O168	O	0.153897	0.388922	-0.000220
C169	C	0.130916	0.615757	-0.000262
C170	C	0.099603	0.488759	-0.000291
H171	H	0.087034	0.696508	-0.000336
H172	H	0.164402	0.622459	0.052146
H173	H	0.164502	0.622316	-0.052636
H174	H	0.065985	0.482114	0.052048
H175	H	0.066157	0.482111	-0.052734
O176	O	0.804541	0.392705	0.422016
C177	C	0.854164	0.528534	0.333039
C178	C	0.863544	0.402704	0.376427
H179	H	0.901866	0.536672	0.296182
H180	H	0.805673	0.531840	0.296121
H181	H	0.848023	0.610296	0.374742
H182	H	0.869715	0.320872	0.334778
H183	H	0.912023	0.399509	0.413356
H184	H	0.018079	0.367194	-0.000269
H185	H	0.493084	-0.036239	-0.000195
H186	H	0.708383	-0.186156	-0.000208
