data_functionalizedCrystal
_audit_creation_method	'MofGen! by Chris Wilmer'
_symmetry_space_group_name_H-M	'P1'
_symmetry_Int_Tables_number	1
_symmetry_cell_setting	triclinic
loop_
_symmetry_equiv_pos_as_xyz
  x,y,z
_cell_length_a	10.686285
_cell_length_b	10.686220
_cell_length_c	10.685880
_cell_angle_alpha	89.641569
_cell_angle_beta	89.638885
_cell_angle_gamma	90.345431
loop_
_atom_site_label
_atom_site_type_symbol
_atom_site_fract_x
_atom_site_fract_y
_atom_site_fract_z
Zn1	Zn	-0.389334	1.999728	-0.530460
Zn2	Zn	0.110666	2.499728	-0.030460
Zn3	Zn	-0.583279	1.997195	-0.304810
Zn4	Zn	-0.083279	2.497195	0.195190
Zn5	Zn	-0.391875	1.774036	-0.336574
Zn6	Zn	0.108125	2.274036	0.163426
Zn7	Zn	-0.614981	1.805850	-0.527983
Zn8	Zn	-0.114981	2.305850	-0.027983
O9	O	-0.494867	1.894202	-0.424957
O10	O	0.005133	2.394202	0.075043
O11	O	-0.400730	2.173923	-0.488270
O12	O	0.099270	2.673923	0.011730
O13	O	-0.545686	1.953219	-0.134483
O14	O	-0.045686	2.453219	0.365517
O15	O	-0.217001	1.791721	-0.376623
O16	O	0.282999	2.291721	0.123377
O17	O	-0.543221	2.172063	-0.322486
O18	O	-0.043221	2.672063	0.177514
O19	O	-0.215133	1.957535	-0.519070
O20	O	0.284867	2.457535	-0.019070
O21	O	-0.405062	1.789265	-0.157820
O22	O	0.094938	2.289265	0.342180
O23	O	-0.435802	1.603725	-0.374222
O24	O	0.064198	2.103725	0.125778
O25	O	-0.597252	1.845942	-0.702853
O26	O	-0.097252	2.345942	-0.202853
O27	O	-0.599717	1.627098	-0.514849
O28	O	-0.099717	2.127098	-0.014849
O29	O	-0.431470	1.988383	-0.704672
O30	O	0.068530	2.488383	-0.204672
O31	O	-0.762022	1.984067	-0.320085
O32	O	-0.262022	2.484067	0.179915
O33	O	-0.785313	1.843486	-0.484049
O34	O	-0.285313	2.343486	0.015951
C35	C	-0.521476	1.570158	-0.447714
C36	C	-0.021476	2.070158	0.052286
C37	C	-0.532892	1.431534	-0.457477
C38	C	-0.032892	1.931534	0.042523
C39	C	-0.818922	1.916990	-0.398376
C40	C	-0.318922	2.416990	0.101624
C41	C	-0.957548	1.926856	-0.387038
C42	C	-0.457548	2.426856	0.112962
C43	C	-0.169546	1.871362	-0.451666
C44	C	0.330454	2.371362	0.048334
C45	C	-0.030914	1.861628	-0.463048
C46	C	0.469086	2.361628	0.036952
C47	C	-0.517614	1.920993	-0.750284
C48	C	-0.017614	2.420993	-0.250284
C49	C	-0.527307	1.932410	-0.888919
C50	C	-0.027307	2.432410	-0.388919
C51	C	-0.468155	2.219512	-0.402111
C52	C	0.031845	2.719512	0.097889
C53	C	-0.456772	2.358140	-0.392376
C54	C	0.043228	2.858140	0.107624
C55	C	-0.472114	1.867581	-0.100897
C56	C	0.027886	2.367581	0.399103
C57	C	-0.462049	1.856381	0.037725
C58	C	0.037951	2.356381	0.537725
H59	H	-0.606806	1.388314	-0.520679
H60	H	-0.106806	1.888314	-0.020679
H61	H	-0.590598	2.006246	-0.932182
H62	H	-0.090598	2.506246	-0.432182
H63	H	-0.382871	1.401355	-0.329169
H64	H	0.117129	1.901355	0.170831
H65	H	-0.987674	1.798237	-0.536799
H66	H	-0.487674	2.298237	-0.036799
H67	H	-1.000795	1.990242	-0.313276
H68	H	-0.500795	2.490242	0.186724
O69	O	-0.378208	1.758580	-0.904992
O70	O	0.121792	2.258580	-0.404992
H71	H	-0.383485	1.764659	-0.801441
H72	H	0.116515	2.264659	-0.301441
