data_functionalizedCrystal
_audit_creation_method	'MofGen! by Chris Wilmer'
_symmetry_space_group_name_H-M	'P1'
_symmetry_Int_Tables_number	1
_symmetry_cell_setting	triclinic
loop_
_symmetry_equiv_pos_as_xyz
  x,y,z
_cell_length_a	10.489716
_cell_length_b	10.489716
_cell_length_c	12.503572
_cell_angle_alpha	93.562900
_cell_angle_beta	86.446389
_cell_angle_gamma	84.529136
loop_
_atom_site_label
_atom_site_type_symbol
_atom_site_fract_x
_atom_site_fract_y
_atom_site_fract_z
O1	O	1.701343	0.172510	-0.089302
O2	O	1.330142	0.189435	-0.089305
O3	O	1.524206	-0.004628	-0.089307
O4	O	1.507280	0.366573	-0.089300
O5	O	1.509611	0.009991	0.089335
O6	O	1.315548	0.204054	0.089337
O7	O	1.686749	0.187129	0.089340
Cu8	Cu	1.499816	0.196926	0.105650
Cu9	Cu	1.517075	0.179638	-0.105615
O10	O	1.492685	0.381192	0.089343
C11	C	1.275313	0.195473	0.000016
C12	C	1.133683	0.191668	0.000014
C13	C	1.035998	0.310674	0.000014
C14	C	0.951462	0.254997	0.088097
C15	C	0.965857	0.240555	-0.088030
C16	C	1.051006	0.136047	0.088170
C17	C	1.065413	0.121616	-0.088036
C18	C	0.980924	0.065854	0.000069
C19	C	1.515637	-0.044851	0.000011
C20	C	1.511833	-0.186483	0.000001
C21	C	1.630838	-0.284166	0.000012
C22	C	1.575148	-0.368729	-0.088066
C23	C	1.560732	-0.354280	0.088061
C24	C	1.456199	-0.269186	-0.088150
C25	C	1.441794	-0.254725	0.088057
C26	C	1.386018	-0.339241	-0.000042
C27	C	1.741578	0.181091	0.000017
C28	C	1.883209	0.184895	0.000012
C29	C	1.501254	0.421415	0.000022
C30	C	1.505059	0.563046	0.000025
N31	N	1.487685	0.209086	0.254243
N32	N	1.529216	0.167468	-0.254207
C33	C	1.469841	0.226983	0.473358
C34	C	1.547056	0.149575	0.526684
C35	C	1.537127	0.159533	0.648608
C36	C	1.479768	0.217026	0.351424
H37	H	1.088236	0.091939	0.162712
H38	H	1.282430	-0.363666	-0.000091
Cl39	Cl	1.141992	0.034718	-0.203016
H40	H	1.631469	-0.418322	-0.162530
H41	H	1.396285	0.300730	0.519266
H42	H	0.901891	0.311329	0.162566
H43	H	0.956499	-0.037735	0.000118
Cl44	Cl	0.908108	0.308744	-0.202986
Cl45	Cl	1.628936	-0.411993	0.203025
Cl46	Cl	1.790664	-0.246086	-0.000120
H47	H	1.412080	-0.231978	-0.162695
H48	H	1.060651	0.414198	0.000098
Cl49	Cl	1.661122	0.036201	0.455803
H50	H	1.385517	-0.205109	0.162523
