data_functionalizedCrystal
_audit_creation_method	'MofGen! by Chris Wilmer'
_symmetry_space_group_name_H-M	'P1'
_symmetry_Int_Tables_number	1
_symmetry_cell_setting	triclinic
loop_
_symmetry_equiv_pos_as_xyz
  x,y,z
_cell_length_a	8.597340
_cell_length_b	14.044190
_cell_length_c	7.681481
_cell_angle_alpha	83.728840
_cell_angle_beta	103.474906
_cell_angle_gamma	89.225172
loop_
_atom_site_label
_atom_site_type_symbol
_atom_site_fract_x
_atom_site_fract_y
_atom_site_fract_z
O1	O	2.118487	0.131086	0.174962
O2	O	1.656574	0.146189	0.104875
O3	O	1.880595	0.000651	0.138901
O4	O	1.894467	0.276624	0.140936
O5	O	1.908163	-0.017303	0.435946
O6	O	1.684142	0.128235	0.401920
O7	O	2.146055	0.113132	0.472007
Zn8	Zn	1.919475	0.117833	0.484126
Zn9	Zn	1.883154	0.141488	0.092756
O10	O	1.922034	0.258670	0.437981
C11	C	1.610886	0.136590	0.244374
C12	C	1.433677	0.134726	0.217488
C13	C	1.888308	-0.043641	0.286507
C14	C	1.870199	-0.148867	0.283775
C15	C	1.965524	-0.399152	0.298170
C16	C	1.837111	-0.341520	0.278698
C17	C	1.855526	-0.234318	0.281523
C18	C	1.947112	-0.506364	0.295344
C19	C	2.191743	0.122731	0.332504
C20	C	2.368951	0.124596	0.359378
C21	C	1.914321	0.302962	0.290371
C22	C	1.932428	0.408189	0.293091
N23	N	1.944275	0.101689	0.751227
N24	N	1.858366	0.157625	-0.174343
H25	H	1.353511	0.141974	0.075423
H26	H	2.031991	0.044597	0.839755
H27	H	1.713343	-0.372690	0.259908
O28	O	1.464741	0.115827	0.528770
C29	C	1.568301	0.034203	0.553945
H30	H	1.582167	0.015610	0.417414
H31	H	1.516107	-0.028753	0.624910
C32	C	1.716167	0.078038	0.837707
C33	C	1.733208	0.055207	0.670017
H34	H	1.817888	0.090991	0.909312
H35	H	1.646393	0.133028	0.820751
H36	H	1.672666	0.025570	0.896821
H37	H	1.776689	0.107679	0.610897
H38	H	1.802993	0.000226	0.686967
O39	O	2.113064	-0.361823	0.320664
C40	C	2.098831	-0.261544	0.318493
H41	H	1.982894	-0.241857	0.356333
H42	H	2.097182	-0.225373	0.177753
C43	C	2.384518	-0.251640	0.408646
C44	C	2.242128	-0.227461	0.455137
H45	H	2.472913	-0.230614	0.492927
H46	H	2.394108	-0.319199	0.410102
H47	H	2.383121	-0.221495	0.291361
H48	H	2.243518	-0.257615	0.572410
H49	H	2.232541	-0.159905	0.453703
O50	O	1.753941	0.225789	0.719906
C51	C	1.837787	0.290713	0.625988
H52	H	1.954496	0.254571	0.616243
H53	H	1.865369	0.356440	0.701099
C54	C	1.591122	0.366061	0.447070
C55	C	1.734459	0.321667	0.435087
H56	H	1.527383	0.385159	0.329315
H57	H	1.534631	0.322323	0.510347
H58	H	1.614128	0.420828	0.509670
H59	H	1.711453	0.266896	0.372508
H60	H	1.790943	0.365397	0.371794
