data_functionalizedCrystal
_audit_creation_method	'MofGen! by Chris Wilmer'
_symmetry_space_group_name_H-M	'P1'
_symmetry_Int_Tables_number	1
_symmetry_cell_setting	triclinic
loop_
_symmetry_equiv_pos_as_xyz
  x,y,z
_cell_length_a	12.996460
_cell_length_b	10.723024
_cell_length_c	10.723024
_cell_angle_alpha	84.467869
_cell_angle_beta	89.995038
_cell_angle_gamma	89.994735
loop_
_atom_site_label
_atom_site_type_symbol
_atom_site_fract_x
_atom_site_fract_y
_atom_site_fract_z
O1	O	0.085557	-1.657190	-0.175030
O2	O	0.585557	-1.157190	0.324970
O3	O	0.085561	-1.294038	-0.191783
O4	O	0.585561	-0.794038	0.308217
O5	O	0.085555	-1.483991	-0.001830
O6	O	0.585555	-0.983991	0.498170
O7	O	0.085563	-1.467237	-0.364982
O8	O	0.585563	-0.967237	0.135018
O9	O	-0.085579	-1.483971	-0.001819
O10	O	0.414421	-0.983971	0.498181
O11	O	-0.085573	-1.294018	-0.191772
O12	O	0.414427	-0.794018	0.308228
O13	O	-0.085576	-1.657170	-0.175019
O14	O	0.414424	-1.157170	0.324981
Cu15	Cu	-0.101201	-1.475592	-0.183395
Cu16	Cu	0.398799	-0.975592	0.316605
Cu17	Cu	0.101185	-1.475616	-0.183407
Cu18	Cu	0.601185	-0.975616	0.316593
O19	O	-0.085571	-1.467217	-0.364972
O20	O	0.414429	-0.967217	0.135028
C21	C	-0.000006	-1.247528	-0.190558
C22	C	0.499994	-0.747528	0.309442
C23	C	-0.000005	-1.108974	-0.186911
C24	C	0.499995	-0.608974	0.313089
N25	N	-0.243548	-1.475585	-0.183385
N26	N	0.256452	-0.975585	0.316615
C27	C	-0.000011	-1.482762	0.044675
C28	C	0.499989	-0.982762	0.544675
C29	C	-0.000007	-1.479114	0.183229
C30	C	0.499993	-0.979114	0.683229
C31	C	-0.663362	-1.475614	-0.183408
C32	C	-0.163362	-0.975614	0.316592
C33	C	-0.546557	-1.475602	-0.183406
C34	C	-0.046557	-0.975602	0.316594
C35	C	-0.453459	-1.475600	-0.183398
C36	C	0.046541	-0.975600	0.316602
C37	C	-0.336646	-1.475587	-0.183393
C38	C	0.163354	-0.975587	0.316607
N39	N	0.243532	-1.475633	-0.183407
N40	N	0.743532	-0.975633	0.316593
C41	C	-0.000008	-1.703680	-0.176243
C42	C	0.499992	-1.203680	0.323757
C43	C	-0.000002	-1.842234	-0.179891
C44	C	0.499998	-1.342234	0.320109
C45	C	-0.000002	-1.033991	-0.293198
C46	C	0.499998	-0.533991	0.206802
C47	C	-0.000000	-0.890788	-0.289431
C48	C	0.500000	-0.390788	0.210569
C49	C	-0.000003	-1.468447	-0.411477
C50	C	0.499997	-0.968447	0.088523
C51	C	0.000000	-1.472094	-0.550031
C52	C	0.500000	-0.972094	-0.050031
C53	C	-0.000006	-1.585401	0.258212
C54	C	0.499994	-1.085401	0.758212
C55	C	-0.000003	-1.581634	0.401415
C56	C	0.499997	-1.081634	0.901415
H57	H	-0.000006	-1.075814	-0.386984
H58	H	0.499994	-0.575814	0.113016
O59	O	0.000129	-1.697216	0.208181
O60	O	0.500129	-1.197216	0.708181
C61	C	0.088818	-1.832743	0.077189
C62	C	0.588818	-1.332743	0.577189
C63	C	0.088780	-1.706056	0.133738
C64	C	0.588780	-1.206056	0.633738
H65	H	0.160495	-1.839943	0.017011
H66	H	0.660495	-1.339943	0.517011
H67	H	0.017247	-1.839956	0.016843
H68	H	0.517247	-1.339956	0.516843
H69	H	0.088768	-1.912165	0.155935
H70	H	0.588768	-1.412165	0.655935
H71	H	0.088866	-1.626561	0.055074
H72	H	0.588866	-1.126561	0.555074
H73	H	0.160344	-1.698952	0.194117
H74	H	0.660344	-1.198952	0.694117
H75	H	0.000001	-1.385328	0.225051
H76	H	0.500001	-0.885328	0.725051
O77	O	0.000183	-1.363565	0.373067
O78	O	0.500183	-0.863565	0.873067
C79	C	0.088809	-1.235865	0.209742
C80	C	0.588809	-0.735865	0.709742
C81	C	0.088742	-1.358805	0.296793
C82	C	0.588742	-0.858805	0.796793
H83	H	0.160391	-1.231988	0.148034
H84	H	0.660391	-0.731988	0.648034
H85	H	0.088880	-1.152757	0.268518
H86	H	0.588880	-0.652757	0.768518
H87	H	0.017155	-1.231874	0.148168
H88	H	0.517155	-0.731874	0.648168
H89	H	0.160383	-1.362918	0.358383
H90	H	0.660383	-0.862918	0.858383
H91	H	0.088618	-1.441855	0.237943
H92	H	0.588618	-0.941855	0.737943
O93	O	0.000186	-0.813982	-0.398023
O94	O	0.500186	-0.313982	0.101977
C95	C	0.088819	-0.750216	-0.591073
C96	C	0.588819	-0.250216	-0.091073
C97	C	0.088748	-0.837252	-0.468124
C98	C	0.588748	-0.337252	0.031876
H99	H	0.160403	-0.769017	-0.647796
H100	H	0.660403	-0.269017	-0.147796
H101	H	0.088887	-0.648393	-0.568768
H102	H	0.588887	-0.148393	-0.068768
H103	H	0.017168	-0.768865	-0.647719
H104	H	0.517168	-0.268865	-0.147719
H105	H	0.160387	-0.818716	-0.411418
H106	H	0.660387	-0.318716	0.088582
H107	H	0.088626	-0.939046	-0.490517
H108	H	0.588626	-0.439046	0.009483
H109	H	0.000002	-0.906659	-0.088896
H110	H	0.500002	-0.406659	0.411104
H111	H	0.000020	-1.067152	-0.093125
H112	H	0.500020	-0.567152	0.406875
H113	H	-0.000007	-1.672624	0.465848
H114	H	0.499993	-1.172624	0.965848
