data_functionalizedCrystal
_audit_creation_method	'MofGen! by Chris Wilmer'
_symmetry_space_group_name_H-M	'P1'
_symmetry_Int_Tables_number	1
_symmetry_cell_setting	triclinic
loop_
_symmetry_equiv_pos_as_xyz
  x,y,z
_cell_length_a	16.974885
_cell_length_b	15.500227
_cell_length_c	16.992695
_cell_angle_alpha	93.021643
_cell_angle_beta	92.976847
_cell_angle_gamma	89.194589
loop_
_atom_site_label
_atom_site_type_symbol
_atom_site_fract_x
_atom_site_fract_y
_atom_site_fract_z
O1	O	1.055357	-0.001877	-0.099996
O2	O	0.826724	0.014117	-0.111920
O3	O	0.940124	0.006177	0.008186
O4	O	0.941958	0.006063	-0.220103
O5	O	0.933241	-0.137230	0.000927
O6	O	0.819841	-0.129289	-0.119180
O7	O	1.048474	-0.145284	-0.107256
Cu8	Cu	0.933529	-0.150381	-0.113881
Cu9	Cu	0.941669	0.019214	-0.105295
O10	O	0.935074	-0.137344	-0.227362
C11	C	0.793893	-0.055530	-0.114963
C12	C	0.706319	-0.049404	-0.113203
N13	N	0.927809	-0.269665	-0.119919
C14	C	0.213780	-0.006469	-0.102842
C15	C	0.296064	-0.012237	-0.104497
C16	C	0.333446	-0.093292	-0.109287
C17	C	0.288539	-0.168585	-0.112415
C18	C	0.206257	-0.162816	-0.110755
C19	C	0.579130	-0.118928	-0.114671
C20	C	0.661419	-0.124691	-0.116333
C21	C	0.668938	0.031658	-0.108413
C22	C	0.586653	0.037420	-0.106758
C23	C	0.541754	-0.037873	-0.109882
N24	N	0.417553	-0.099190	-0.110981
N25	N	0.457649	-0.031974	-0.108183
C26	C	0.975880	-0.318308	-0.069044
C27	C	0.971562	-0.408578	-0.073618
C28	C	0.919177	-0.450205	-0.129071
C29	C	0.871101	-0.401556	-0.179947
C30	C	0.875416	-0.311287	-0.175369
C31	C	0.903634	-0.722584	-0.145550
C32	C	0.899324	-0.812859	-0.150126
C33	C	0.999784	-0.819876	-0.043795
C34	C	1.004097	-0.729605	-0.039225
C35	C	0.956019	-0.680963	-0.090099
C36	C	0.914764	-0.542476	-0.133749
C37	C	0.960429	-0.588694	-0.085416
C38	C	1.081306	-0.075635	-0.104213
C39	C	1.168880	-0.081756	-0.105973
C40	C	0.934324	-0.065361	0.033775
C41	C	0.927288	-0.064869	0.120836
N42	N	0.947395	0.138498	-0.099251
C43	C	0.940874	-0.065804	-0.252951
C44	C	0.947910	-0.066291	-0.340012
C45	C	0.995175	-0.069619	0.170911
C46	C	0.988560	-0.069148	0.252715
C47	C	0.914057	-0.063933	0.284440
C48	C	0.846165	-0.059180	0.234359
C49	C	0.852781	-0.059645	0.152558
C50	C	0.886635	-0.062002	0.528106
C51	C	0.880023	-0.061541	0.609913
C52	C	1.022419	-0.071507	0.628263
C53	C	1.029029	-0.071977	0.546459
C54	C	0.961137	-0.067219	0.496385
N55	N	0.907293	-0.063454	0.368056
N56	N	0.967902	-0.067692	0.412771
H57	H	0.183350	0.059536	-0.098947
H58	H	0.785503	-0.054928	0.260197
Cl59	Cl	1.088841	-0.076184	0.131036
Cl60	Cl	0.767434	-0.053669	0.089605
H61	H	1.010704	-0.448183	-0.032191
Cl62	Cl	0.149811	-0.257467	-0.114683
H63	H	0.831352	-0.058129	0.487344
H64	H	1.003077	-0.554798	-0.040264
H65	H	0.864488	-0.682987	-0.186975
H66	H	0.872113	-0.576376	-0.178901
Cl67	Cl	1.122695	-0.078505	0.506583
H68	H	1.077693	-0.075379	0.669042
H69	H	1.018540	-0.284422	-0.023892
Cl70	Cl	0.833464	-0.865184	-0.219846
H71	H	0.819350	-0.057308	0.635740
H72	H	0.828444	-0.435453	-0.225096
Cl73	Cl	0.352508	0.082415	-0.100557
Cl74	Cl	0.814979	-0.250137	-0.239327
H75	H	1.038927	-0.859488	-0.002374
Cl76	Cl	1.069954	-0.677274	0.030487
Cl77	Cl	1.073908	-0.075122	0.315663
H78	H	0.556223	0.103424	-0.102857
Cl79	Cl	0.725387	0.126306	-0.104479
H80	H	0.691851	-0.190699	-0.120239
Cl81	Cl	0.522695	-0.213582	-0.118620
H82	H	0.318982	-0.234582	-0.116310
