data_functionalizedCrystal
_audit_creation_method	'MofGen! by Chris Wilmer'
_symmetry_space_group_name_H-M	'P1'
_symmetry_Int_Tables_number	1
_symmetry_cell_setting	triclinic
loop_
_symmetry_equiv_pos_as_xyz
  x,y,z
_cell_length_a	12.759401
_cell_length_b	19.805405
_cell_length_c	12.759393
_cell_angle_alpha	89.965008
_cell_angle_beta	89.980163
_cell_angle_gamma	90.028251
loop_
_atom_site_label
_atom_site_type_symbol
_atom_site_fract_x
_atom_site_fract_y
_atom_site_fract_z
Zn1	Zn	1.606167	-0.269395	-0.593995
Zn2	Zn	2.106167	0.230605	-0.093995
Zn3	Zn	1.606025	-0.382600	-0.418305
Zn4	Zn	2.106025	0.117400	0.081695
Zn5	Zn	1.430469	-0.269434	-0.418331
Zn6	Zn	1.930469	0.230566	0.081669
Zn7	Zn	1.430421	-0.382551	-0.593942
Zn8	Zn	1.930421	0.117449	-0.093942
O9	O	1.518271	-0.325995	-0.506143
O10	O	2.018271	0.174005	-0.006143
O11	O	1.753169	-0.284417	-0.570701
O12	O	2.253169	0.215583	-0.070701
O13	O	1.582698	-0.367625	-0.271287
O14	O	2.082698	0.132375	0.228713
O15	O	1.453856	-0.174712	-0.441666
O16	O	1.953856	0.325288	0.058334
O17	O	1.753065	-0.367588	-0.441623
O18	O	2.253065	0.132412	0.058377
O19	O	1.582940	-0.174684	-0.570726
O20	O	2.082940	0.325316	-0.070726
O21	O	1.453718	-0.284482	-0.271306
O22	O	1.953718	0.215518	0.228694
O23	O	1.283442	-0.284434	-0.441614
O24	O	1.783442	0.215566	0.058386
O25	O	1.453773	-0.367504	-0.740971
O26	O	1.953773	0.132496	-0.240971
O27	O	1.283406	-0.367541	-0.570636
O28	O	1.783406	0.132459	-0.070636
O29	O	1.582893	-0.284369	-0.741010
O30	O	2.082893	0.215631	-0.241010
O31	O	1.582651	-0.477310	-0.441571
O32	O	2.082651	0.022690	0.058429
O33	O	1.453635	-0.477274	-0.570611
O34	O	1.953635	0.022726	-0.070611
C35	C	1.245303	-0.325987	-0.506123
C36	C	1.745303	0.174013	-0.006123
C37	C	1.128527	-0.326000	-0.506139
C38	C	1.628527	0.174000	-0.006139
C39	C	1.518151	-0.501851	-0.506105
C40	C	2.018151	-0.001851	-0.006105
C41	C	1.518196	-0.577083	-0.506124
C42	C	2.018196	-0.077083	-0.006124
C43	C	1.073674	-0.369339	-0.573214
C44	C	1.573674	0.130661	-0.073214
C45	C	0.963950	-0.369342	-0.573235
C46	C	1.463950	0.130658	-0.073235
C47	C	0.963941	-0.282663	-0.439096
C48	C	1.463941	0.217337	0.060904
C49	C	1.073663	-0.282658	-0.439081
C50	C	1.573663	0.217342	0.060919
C51	C	1.585370	-0.612354	-0.573379
C52	C	2.085370	-0.112354	-0.073379
C53	C	1.585408	-0.683043	-0.573398
C54	C	2.085408	-0.183043	-0.073398
C55	C	1.518276	-0.718459	-0.506157
C56	C	2.018276	-0.218459	-0.006157
C57	C	1.451094	-0.683182	-0.438900
C58	C	1.951094	-0.183182	0.061100
C59	C	1.451052	-0.612495	-0.438887
C60	C	1.951052	-0.112495	0.061113
C61	C	1.451263	-0.968256	-0.438954
C62	C	1.951263	-0.468256	0.061046
C63	C	1.451313	-1.038948	-0.438970
C64	C	1.951313	-0.538948	0.061030
C65	C	1.585619	-1.038803	-0.573465
C66	C	2.085619	-0.538803	-0.073465
C67	C	1.585577	-0.968116	-0.573452
C68	C	2.085577	-0.468116	-0.073452
C69	C	1.518392	-0.932846	-0.506199
C70	C	2.018392	-0.432846	-0.006199
C71	C	1.518350	-0.856198	-0.506180
C72	C	2.018350	-0.356198	-0.006180
C73	C	1.518322	-0.795106	-0.506170
C74	C	2.018322	-0.295106	-0.006170
C75	C	1.792304	-0.326004	-0.506165
C76	C	2.292304	0.173996	-0.006165
C77	C	1.909080	-0.326008	-0.506174
C78	C	2.409080	0.173992	-0.006174
C79	C	1.518344	-0.325927	-0.780177
C80	C	2.018344	0.174073	-0.280177
C81	C	1.518375	-0.325897	-0.896954
C82	C	2.018375	0.174103	-0.396954
C83	C	1.518419	-0.149452	-0.506205
C84	C	2.018419	0.350548	-0.006205
C85	C	1.518483	-0.074220	-0.506231
C86	C	2.018483	0.425780	-0.006231
C87	C	1.451240	-0.282597	-0.951825
C88	C	1.951240	0.217403	-0.451825
C89	C	1.451264	-0.282576	-1.061549
C90	C	1.951264	0.217424	-0.561549
C91	C	1.585569	-0.369158	-1.061521
C92	C	2.085569	0.130842	-0.561521
C93	C	1.585538	-0.369182	-0.951799
C94	C	2.085538	0.130818	-0.451799
C95	C	1.518258	-0.326014	-0.233176
C96	C	2.018258	0.173986	0.266824
C97	C	1.518430	-0.325853	-0.116400
C98	C	2.018430	0.174147	0.383600
H99	H	0.919293	-0.404632	-0.627856
H100	H	1.419293	0.095368	-0.127856
N101	N	1.378787	-0.235922	-0.892672
N102	N	1.878787	0.264078	-0.392672
H103	H	1.388954	-0.242505	-0.814836
H104	H	1.888954	0.257495	-0.314836
H105	H	1.395183	-0.187578	-0.911873
H106	H	1.895183	0.312422	-0.411873
N107	N	0.904767	-0.235936	-0.366744
N108	N	1.404767	0.264064	0.133256
H109	H	0.826934	-0.242522	-0.376920
H110	H	1.326934	0.257478	0.123080
H111	H	0.923920	-0.246429	-0.291688
H112	H	1.423920	0.253571	0.208312
N113	N	1.378896	-1.077150	-0.366452
N114	N	1.878896	-0.577150	0.133548
H115	H	1.421637	-1.106475	-0.317806
H116	H	1.921637	-0.606475	0.182194
H117	H	1.336339	-1.044040	-0.323917
H118	H	1.836339	-0.544040	0.176083
N119	N	1.657844	-0.721106	-0.645927
N120	N	2.157844	-0.221106	-0.145927
H121	H	1.615117	-0.750431	-0.694570
H122	H	2.115117	-0.250431	-0.194570
H123	H	1.700368	-0.687919	-0.688465
H124	H	2.200368	-0.187919	-0.188465
H125	H	1.640246	-0.939283	-0.628202
H126	H	2.140246	-0.439283	-0.128202
H127	H	1.396430	-0.712024	-0.384156
H128	H	1.896430	-0.212024	0.115844
H129	H	1.118326	-0.247361	-0.384460
H130	H	1.618326	0.252639	0.115540
H131	H	1.640041	-0.583523	-0.628129
H132	H	2.140041	-0.083523	-0.128129
N133	N	1.658084	-1.076844	-0.646008
N134	N	2.158084	-0.576844	-0.146008
H135	H	1.647926	-1.126998	-0.635820
H136	H	2.147926	-0.626998	-0.135820
H137	H	1.641689	-1.064460	-0.721026
H138	H	2.141689	-0.564460	-0.221026
N139	N	1.657960	-0.415886	-0.892615
N140	N	2.157960	0.084114	-0.392615
H141	H	1.706655	-0.388390	-0.847105
H142	H	2.206655	0.111610	-0.347105
H143	H	1.615148	-0.447251	-0.847136
H144	H	2.115148	0.052749	-0.347136
H145	H	1.396560	-0.939544	-0.384192
H146	H	1.896560	-0.439544	0.115808
N147	N	1.378848	-0.235874	-1.120727
N148	N	1.878848	0.264126	-0.620727
H149	H	1.395205	-0.187518	-1.101659
H150	H	1.895205	0.312482	-0.601659
H151	H	1.389085	-0.242485	-1.198540
H152	H	1.889085	0.257515	-0.698540
N153	N	1.132850	-0.416083	-0.645538
N154	N	1.632850	0.083917	-0.145538
H155	H	1.081447	-0.443538	-0.688033
H156	H	1.581447	0.056462	-0.188033
H157	H	1.178417	-0.388567	-0.694228
H158	H	1.678417	0.111433	-0.194228
N159	N	1.378604	-0.574445	-0.366350
N160	N	1.878604	-0.074445	0.133650
H161	H	1.303536	-0.586782	-0.382602
H162	H	1.803536	-0.086782	0.117398
H163	H	1.395057	-0.586785	-0.291327
H164	H	1.895057	-0.086785	0.208673
N165	N	1.658002	-0.415844	-1.120676
N166	N	2.158002	0.084156	-0.620676
H167	H	1.647836	-0.409260	-1.198511
H168	H	2.147836	0.090740	-0.698511
H169	H	1.733042	-0.405321	-1.101508
H170	H	2.233042	0.094679	-0.601508
