data_functionalizedCrystal
_audit_creation_method	'MofGen! by Chris Wilmer'
_symmetry_space_group_name_H-M	'P1'
_symmetry_Int_Tables_number	1
_symmetry_cell_setting	triclinic
loop_
_symmetry_equiv_pos_as_xyz
  x,y,z
_cell_length_a	6.817900
_cell_length_b	12.840933
_cell_length_c	19.453103
_cell_angle_alpha	81.227373
_cell_angle_beta	101.709178
_cell_angle_gamma	88.345099
loop_
_atom_site_label
_atom_site_type_symbol
_atom_site_fract_x
_atom_site_fract_y
_atom_site_fract_z
V1	V	-3.889246	0.325707	-0.098838
O2	O	-3.888583	0.319008	0.003047
O3	O	-3.832849	0.323959	-0.194342
O4	O	-3.784909	0.467540	-0.098065
O5	O	-3.936855	0.174433	-0.093897
V6	V	-4.381158	0.307555	-0.086563
O7	O	-4.132102	0.365524	-0.125764
O8	O	-4.588499	0.267737	-0.059637
O9	O	-4.214348	0.309303	0.008941
O10	O	-4.499217	0.314254	-0.188449
O11	O	-4.450946	0.458829	-0.091505
O12	O	-4.262288	0.165722	-0.087337
C13	C	-3.677714	0.318945	-0.217601
C14	C	-3.712517	0.318461	-0.295681
C15	C	-3.616575	0.502095	-0.094786
C16	C	-3.612422	0.620227	-0.094785
C17	C	-4.093964	0.131161	-0.090614
C18	C	-4.076968	0.013029	-0.090613
C19	C	-3.908584	0.323450	-0.335962
C20	C	-3.941286	0.323006	-0.409328
C21	C	-3.777908	0.317552	-0.442408
C22	C	-3.581813	0.312569	-0.402119
C23	C	-3.549118	0.313023	-0.328755
N24	N	-3.694491	0.253272	-0.548346
N25	N	-3.725563	0.252839	-0.618038
C26	C	-3.876407	0.316185	-0.663448
N27	N	-3.995036	0.379969	-0.636533
N28	N	-3.963967	0.380398	-0.566834
C29	C	-3.813341	0.317060	-0.521958
C30	C	-4.107945	0.320694	-0.783282
C31	C	-4.140640	0.320257	-0.856650
C32	C	-3.781162	0.309809	-0.849438
C33	C	-3.748473	0.310257	-0.776072
C34	C	-3.911872	0.315695	-0.742998
V35	V	-3.872194	0.811871	-0.098843
O36	O	-3.909184	0.963052	-0.093900
O37	O	-3.778004	0.664684	-0.098070
O38	O	-3.814258	0.853751	-0.194346
O39	O	-3.872679	0.772675	0.003041
V40	V	-4.362160	0.849255	-0.086572
O41	O	-4.116987	0.796479	-0.125771
O42	O	-4.566769	0.887333	-0.059648
O43	O	-4.233536	0.985195	-0.087343
O44	O	-4.442359	0.703990	-0.091516
O45	O	-4.478864	0.894366	-0.188458
O46	O	-4.197282	0.796127	0.008932
C47	C	-4.032826	0.314314	0.032195
C48	C	-3.977259	0.314805	0.110275
C49	C	-3.658674	0.861402	-0.217599
C50	C	-3.692142	0.898783	-0.295678
C51	C	-4.016801	0.771508	0.032192
C52	C	-3.962609	0.733090	0.110273
C53	C	-3.887593	0.921810	-0.335954
C54	C	-3.919066	0.956949	-0.409316
C55	C	-3.755087	0.969053	-0.442403
C56	C	-3.559619	0.946027	-0.402122
C57	C	-3.528148	0.910896	-0.328760
C58	C	-3.762772	0.702643	0.143345
C59	C	-3.711821	0.666558	0.216712
C60	C	-3.860713	0.660913	0.257003
C61	C	-4.060566	0.691366	0.223926
C62	C	-4.111512	0.727458	0.150562
H63	H	-4.041640	0.327885	-0.309039
F64	F	-4.324213	0.759851	0.115371
F65	F	-3.340428	0.307712	-0.285884
F66	F	-3.607279	0.304015	-0.884640
H67	H	-4.021138	0.911955	-0.309025
H68	H	-3.780741	0.997660	-0.502140
H69	H	-4.078238	0.975690	-0.442104
H70	H	-4.100952	0.327068	-0.442131
F71	F	-3.385117	0.958911	-0.437347
F72	F	-4.349332	0.325574	-0.899521
F73	F	-3.539789	0.304939	-0.733200
H74	H	-3.368989	0.892145	-0.295974
F75	F	-3.604276	0.708645	0.100477
H76	H	-3.448792	0.308131	-0.429058
H77	H	-4.240995	0.325120	-0.756351
H78	H	-3.549083	0.641764	0.243632
H79	H	-3.819203	0.631520	0.316740
H80	H	-4.181780	0.686765	0.256743
