data_functionalizedCrystal
_audit_creation_method	'MofGen! by Chris Wilmer'
_symmetry_space_group_name_H-M	'P1'
_symmetry_Int_Tables_number	1
_symmetry_cell_setting	triclinic
loop_
_symmetry_equiv_pos_as_xyz
  x,y,z
_cell_length_a	19.077236
_cell_length_b	25.639239
_cell_length_c	19.076919
_cell_angle_alpha	92.268407
_cell_angle_beta	89.887323
_cell_angle_gamma	92.331355
loop_
_atom_site_label
_atom_site_type_symbol
_atom_site_fract_x
_atom_site_fract_y
_atom_site_fract_z
Zn1	Zn	1.058228	-0.189794	-0.440528
Zn2	Zn	1.062841	-0.273584	-0.323015
Zn3	Zn	0.945444	-0.189520	-0.318308
Zn4	Zn	0.940658	-0.280560	-0.435752
O5	O	1.001793	-0.233365	-0.379401
O6	O	1.157175	-0.198105	-0.428908
O7	O	1.051201	-0.259399	-0.224060
O8	O	0.960478	-0.116390	-0.334549
O9	O	1.160564	-0.259665	-0.342571
O10	O	1.043340	-0.116592	-0.424343
O11	O	0.964950	-0.197638	-0.220602
O12	O	0.846475	-0.204401	-0.329919
O13	O	0.952320	-0.271553	-0.534716
O14	O	0.842958	-0.271288	-0.416205
O15	O	1.038699	-0.204869	-0.538225
O16	O	1.046560	-0.347676	-0.337941
O17	O	0.956793	-0.352801	-0.420769
C18	C	0.819219	-0.238572	-0.372033
C19	C	0.741113	-0.240813	-0.368898
C20	C	0.702652	-0.209870	-0.412444
C21	C	0.629263	-0.211973	-0.409492
C22	C	0.594336	-0.245022	-0.362997
C23	C	0.632802	-0.275966	-0.319446
C24	C	0.706190	-0.273860	-0.322395
C25	C	0.375039	-0.254748	-0.349347
C26	C	0.301646	-0.256853	-0.346403
C27	C	0.298112	-0.192859	-0.436449
C28	C	0.371501	-0.190758	-0.439396
C29	C	0.409961	-0.221700	-0.395843
N30	N	0.519320	-0.247173	-0.359980
N31	N	0.484975	-0.219546	-0.398857
C32	C	1.001676	-0.369210	-0.379364
C33	C	1.001689	-0.427324	-0.379374
C34	C	1.048649	-0.785002	-0.336353
C35	C	1.048676	-0.839606	-0.336364
O36	O	1.088481	-0.865563	-0.299746
N37	N	1.001914	-0.869602	-0.379452
C38	C	0.955128	-0.844991	-0.422538
O39	O	0.915357	-0.875518	-0.459189
C40	C	0.955105	-0.790388	-0.422531
C41	C	1.001865	-0.760395	-0.379434
C42	C	1.095405	-0.755010	-0.293261
C43	C	1.095377	-0.700410	-0.293250
C44	C	1.048593	-0.675802	-0.336331
C45	C	1.001837	-0.705795	-0.379423
C46	C	0.908323	-0.765778	-0.465620
C47	C	0.908304	-0.711171	-0.465609
C48	C	0.955064	-0.681178	-0.422513
C49	C	0.955025	-0.626588	-0.422493
N50	N	1.001786	-0.596592	-0.379404
C51	C	1.048570	-0.621199	-0.336324
C52	C	0.955181	-0.959660	-0.422551
C53	C	0.955200	-1.014262	-0.422555
C54	C	1.048748	-1.008874	-0.336382
C55	C	1.048725	-0.954271	-0.336374
C56	C	1.001942	-0.929665	-0.379463
C57	C	1.048507	-0.506536	-0.336303
C58	C	1.048473	-0.451931	-0.336293
C59	C	0.954928	-0.457324	-0.422469
C60	C	0.954959	-0.511924	-0.422476
C61	C	1.001754	-0.536528	-0.379391
O62	O	0.915241	-0.600595	-0.459094
O63	O	1.088341	-0.590666	-0.299685
C64	C	1.185079	-0.228137	-0.386797
C65	C	1.263185	-0.225910	-0.389949
C66	C	0.994461	-0.239020	-0.562679
C67	C	0.991337	-0.241429	-0.640782
C68	C	1.001929	-0.096989	-0.379454
C69	C	1.001987	-0.038874	-0.379477
C70	C	1.034840	-0.207844	-0.679302
C71	C	1.031896	-0.210107	-0.752688
C72	C	0.985452	-0.245957	-0.787551
C73	C	0.941944	-0.279544	-0.749026
C74	C	0.944885	-0.277279	-0.675642
C75	C	0.971830	-0.256453	-1.006830
C76	C	0.968894	-0.258717	-1.080219
C77	C	1.058845	-0.189279	-1.083876
C78	C	1.061784	-0.187018	-1.010491
C79	C	1.018274	-0.220603	-0.971971
N80	N	0.982443	-0.248272	-0.862563
N81	N	1.021280	-0.218286	-0.896961
C82	C	1.009136	-0.227693	-0.196836
C83	C	1.012397	-0.225132	-0.118740
H84	H	0.597951	-0.186777	-0.444954
H85	H	0.870208	-0.691140	-0.500699
O86	O	0.405536	-0.158699	-0.484543
C87	C	0.517028	-0.127075	-0.528965
C88	C	0.478572	-0.163410	-0.477812
H89	H	0.576084	-0.130863	-0.523530
H90	H	0.500388	-0.138485	-0.585040
H91	H	0.503076	-0.084943	-0.516159
H92	H	0.492505	-0.205553	-0.490554
H93	H	0.495215	-0.151956	-0.421753
H94	H	1.086551	-0.427512	-0.301196
O95	O	0.923712	-0.293559	-1.113976
C96	C	0.834831	-0.362214	-1.102610
C97	C	0.885949	-0.322774	-1.064292
H98	H	0.804296	-0.385852	-1.062458
H99	H	0.796694	-0.340342	-1.135474
H100	H	0.865702	-0.389672	-1.138276
H101	H	0.855136	-0.295306	-1.028590
H102	H	0.924086	-0.344680	-1.031472
O103	O	0.909822	-0.935735	-0.464481
C104	C	0.896454	-0.877252	-0.558927
C105	C	0.947897	-0.904318	-0.511500
H106	H	0.927217	-0.851836	-0.596943
H107	H	0.863049	-0.908051	-0.589772
H108	H	0.861002	-0.851801	-0.525136
H109	H	0.983394	-0.929767	-0.545238
H110	H	0.981253	-0.873492	-0.480650
O111	O	0.260778	-0.162859	-0.478852
C112	C	0.233614	-0.141926	-0.597538
C113	C	0.275921	-0.175946	-0.549598
H114	H	0.245852	-0.152487	-0.654746
H115	H	0.175151	-0.149111	-0.587506
H116	H	0.248554	-0.098963	-0.585844
H117	H	0.261040	-0.218920	-0.561264
H118	H	0.334373	-0.168717	-0.559639
H119	H	0.916886	-0.536345	-0.457571
O120	O	0.896729	-0.314317	-0.782854
C121	C	0.776277	-0.343820	-0.800431
C122	C	0.827403	-0.304399	-0.762089
H123	H	0.720216	-0.335823	-0.783646
H124	H	0.781586	-0.339673	-0.859504
H125	H	0.789189	-0.385178	-0.786490
H126	H	0.814523	-0.263024	-0.775972
H127	H	0.822084	-0.308592	-0.703026
O128	O	1.079880	-0.172945	-0.645469
C129	C	1.115002	-0.082342	-0.624472
C130	C	1.063940	-0.121810	-0.662813
H131	H	1.102143	-0.040991	-0.638492
H132	H	1.109634	-0.086444	-0.565396
H133	H	1.171073	-0.090379	-0.641181
H134	H	1.007848	-0.113798	-0.646162
H135	H	1.069370	-0.117699	-0.721882
O136	O	1.093987	-0.530348	-0.294382
C137	C	1.186791	-0.519226	-0.208933
C138	C	1.135317	-0.492192	-0.256365
H139	H	1.220230	-0.488390	-0.178194
H140	H	1.156079	-0.544594	-0.170821
H141	H	1.222204	-0.544714	-0.242713
H142	H	1.099891	-0.466678	-0.222641
H143	H	1.166073	-0.466856	-0.294481
H144	H	0.936411	-0.283808	-0.975477
H145	H	0.917117	-1.038678	-0.457641
O146	O	0.267828	-0.288970	-0.301173
C147	C	0.279072	-0.352246	-0.212202
C148	C	0.317461	-0.315887	-0.263373
H149	H	0.319183	-0.374026	-0.181637
H150	H	0.246208	-0.328076	-0.174096
H151	H	0.243397	-0.381580	-0.243030
H152	H	0.353171	-0.286547	-0.232603
H153	H	0.350281	-0.340091	-0.301479
H154	H	1.067322	-0.182759	-0.784048
O155	O	0.862877	-0.794826	-0.507552
C156	C	0.770072	-0.794384	-0.593004
C157	C	0.821515	-0.761425	-0.545557
H158	H	0.736607	-0.767393	-0.623732
H159	H	0.800810	-0.820112	-0.631125
H160	H	0.734680	-0.820052	-0.559236
H161	H	0.856919	-0.735727	-0.579269
H162	H	0.790734	-0.735731	-0.507433
H163	H	0.406345	-0.279944	-0.313883
O164	O	1.101001	-0.156601	-1.121322
C165	C	1.107202	-0.088317	-1.204614
C166	C	1.059379	-0.125290	-1.162236
H167	H	1.073570	-0.063001	-1.237715
H168	H	1.140886	-0.062267	-1.167121
H169	H	1.142561	-0.112342	-1.240416
H170	H	1.023977	-0.101307	-1.126431
H171	H	1.025742	-0.151342	-1.199769
H172	H	0.604359	-0.302872	-0.281585
H173	H	0.916834	-0.437280	-0.457543
O174	O	0.902710	-0.309981	-0.638251
C175	C	0.869398	-0.399201	-0.614405
C176	C	0.917215	-0.362224	-0.656784
H177	H	0.881098	-0.441447	-0.629384
H178	H	0.879486	-0.391467	-0.555960
H179	H	0.812169	-0.392058	-0.626532
H180	H	0.974461	-0.369345	-0.644717
H181	H	0.907067	-0.369967	-0.715216
H182	H	0.737504	-0.299057	-0.286934
O183	O	1.106916	-0.152144	-0.976736
C184	C	1.195853	-0.083531	-0.988111
C185	C	1.144760	-0.122990	-1.026427
H186	H	1.226474	-0.059957	-1.028269
H187	H	1.165029	-0.056016	-0.952482
H188	H	1.233919	-0.105437	-0.955210
H189	H	1.106683	-0.101127	-1.059365
H190	H	1.175630	-0.150504	-1.062014
O191	O	1.140874	-0.671357	-0.251374
C192	C	1.233644	-0.671796	-0.165884
C193	C	1.182161	-0.704756	-0.213285
H194	H	1.267028	-0.698785	-0.135065
H195	H	1.269108	-0.646157	-0.199623
H196	H	1.202870	-0.646037	-0.127834
H197	H	1.212878	-0.730544	-0.251342
H198	H	1.146697	-0.730360	-0.179502
H199	H	0.731084	-0.182959	-0.450308
H200	H	1.133506	-0.775039	-0.258180
O201	O	1.094318	-1.032704	-0.294577
C202	C	1.215269	-1.044839	-0.265464
C203	C	1.163729	-1.017819	-0.312838
H204	H	1.271399	-1.032824	-0.280221
H205	H	1.205310	-1.032715	-0.208285
H206	H	1.207248	-1.089018	-0.272845
H207	H	1.171721	-0.973636	-0.305519
H208	H	1.173701	-1.029986	-0.369999
H209	H	1.086801	-0.929854	-0.301282
