data_functionalizedCrystal
_audit_creation_method	'MofGen! by Chris Wilmer'
_symmetry_space_group_name_H-M	'P1'
_symmetry_Int_Tables_number	1
_symmetry_cell_setting	triclinic
loop_
_symmetry_equiv_pos_as_xyz
  x,y,z
_cell_length_a	15.297475
_cell_length_b	15.297327
_cell_length_c	15.296720
_cell_angle_alpha	107.319222
_cell_angle_beta	88.382886
_cell_angle_gamma	88.374454
loop_
_atom_site_label
_atom_site_type_symbol
_atom_site_fract_x
_atom_site_fract_y
_atom_site_fract_z
Zn1	Zn	1.116342	0.695081	0.823122
Zn2	Zn	1.116246	0.823682	0.694497
Zn3	Zn	1.005113	0.644908	0.644396
Zn4	Zn	0.946204	0.814903	0.814406
O5	O	1.045976	0.744644	0.744105
O6	O	1.234042	0.736812	0.830675
O7	O	1.126118	0.782644	0.562870
O8	O	1.044561	0.526600	0.650785
O9	O	1.233972	0.831295	0.736174
O10	O	1.126281	0.563461	0.782095
O11	O	1.044469	0.651299	0.526062
O12	O	0.879585	0.642787	0.642333
O13	O	0.944159	0.816332	0.940543
O14	O	0.836305	0.767682	0.767239
O15	O	1.069159	0.728299	0.946946
O16	O	1.068996	0.947482	0.727722
O17	O	0.944066	0.941032	0.815819
C18	C	0.827423	0.698838	0.698404
C19	C	0.733917	0.679267	0.678877
C20	C	1.000147	0.976666	0.776286
C21	C	0.980613	1.075946	0.790099
C22	C	0.380296	0.884531	0.883671
C23	C	0.468149	0.902925	0.902016
C24	C	0.534595	0.847012	0.846233
C25	C	0.513180	0.772701	0.772102
C26	C	0.425318	0.754309	0.753750
C27	C	0.579617	0.716791	0.716312
C28	C	0.558202	0.642480	0.642181
C29	C	0.470348	0.624091	0.623833
C30	C	0.403902	0.680004	0.679616
C31	C	0.667479	0.735183	0.734664
C32	C	0.712501	0.604961	0.604743
C33	C	0.624648	0.586567	0.586398
C34	C	1.000098	0.776933	0.977057
C35	C	0.980548	0.790693	1.076327
C36	C	1.265382	0.790629	0.789986
C37	C	1.358880	0.810225	0.809537
C38	C	1.092003	0.511723	0.711823
C39	C	1.111617	0.412466	0.698067
C40	C	1.185880	1.369169	0.645759
C41	C	1.204235	1.275889	0.632777
C42	C	1.148331	1.225899	0.672106
C43	C	1.074069	1.269198	0.724420
C44	C	1.055710	1.362485	0.737398
C45	C	1.018160	1.219215	0.763745
C46	C	0.943898	1.262513	0.816059
C47	C	0.925542	1.355791	0.829035
C48	C	0.981446	1.405781	0.789706
C49	C	1.036520	1.125928	0.750767
C50	C	0.906349	1.119243	0.842406
C51	C	0.887995	1.212523	0.855389
C52	C	1.091736	0.712426	0.512061
C53	C	1.111499	0.698449	0.412791
C54	C	1.185768	0.646151	1.369491
C55	C	1.204141	0.633225	1.276224
C56	C	1.148244	0.672591	1.226245
C57	C	1.073971	0.724884	1.269543
C58	C	1.055600	0.737817	1.362821
C59	C	1.018076	0.764257	1.219575
C60	C	0.943803	0.816551	1.262873
C61	C	0.925434	0.829480	1.356142
C62	C	0.981331	0.790115	1.406121
C63	C	1.036448	0.751324	1.126296
C64	C	0.906280	0.842991	1.119626
C65	C	0.887906	0.855916	1.212894
H66	H	0.606128	0.861993	0.861175
H67	H	0.827432	0.898494	1.248160
O68	O	0.449418	0.551888	0.551903
C69	C	0.399947	0.490694	0.584217
H70	H	0.367257	0.528899	0.653500
H71	H	0.444900	0.432961	0.591992
C72	C	0.369494	0.403305	0.430326
C73	C	0.329337	0.450230	0.515417
H74	H	0.325940	0.378341	0.387886
H75	H	0.402826	0.444530	0.408554
H76	H	0.406953	0.355200	0.436818
H77	H	0.291887	0.498340	0.508926
H78	H	0.295997	0.409012	0.537186
O79	O	1.276275	1.233757	0.581839
C80	C	1.250402	1.161824	0.506623
H81	H	1.179706	1.175342	0.491119
H82	H	1.255964	1.094333	0.523784
C83	C	1.396956	1.139553	0.441261
C84	C	1.310128	1.156160	0.422215
H85	H	1.433799	1.136056	0.389195
H86	H	1.414388	1.188014	0.491938
H87	H	1.401578	1.083312	0.455564
H88	H	1.305505	1.212405	0.407924
H89	H	1.292696	1.107709	0.371534
H90	H	0.766603	0.559433	0.559318
H91	H	1.096921	0.708746	1.091052
H92	H	1.231385	1.409877	0.613736
H93	H	0.864962	0.872070	1.391395
H94	H	0.485578	0.963431	0.962373
O95	O	1.165934	0.660032	1.135617
C96	C	1.096002	0.615868	1.084395
H97	H	1.033947	0.628385	1.130124
H98	H	1.112136	0.539109	1.057168
C99	C	1.157863	0.639030	0.947287
C100	C	1.081644	0.654411	1.003450
H101	H	1.149007	0.662801	0.897354
H102	H	1.204979	0.668781	0.981795
H103	H	1.171299	0.575064	0.924607
H104	H	1.068215	0.718376	1.026138
H105	H	1.034524	0.624671	0.968944
O106	O	0.851905	0.881332	1.071231
C107	C	0.782404	0.930249	1.129443
H108	H	0.803151	0.949781	1.203566
H109	H	0.723026	0.885533	1.121471
C110	C	0.733191	0.993711	1.012633
C111	C	0.758675	1.017708	1.103672
H112	H	0.718549	1.047659	0.996735
H113	H	0.780012	0.960753	0.973413
H114	H	0.683711	0.956447	1.006001
H115	H	0.808159	1.054962	1.110300
H116	H	0.711861	1.050675	1.142893
H117	H	0.865066	1.391038	0.871621
O118	O	0.315646	0.938724	0.937782
C119	C	0.233512	0.906571	0.905670
H120	H	0.240864	0.831053	0.864463
H121	H	0.207517	0.947639	0.860144
C122	C	0.159946	1.010735	1.038363
C123	C	0.168974	0.917981	0.987759
H124	H	0.120134	1.017777	1.088999
H125	H	0.215280	1.032400	1.059997
H126	H	0.138287	1.044948	1.000416
H127	H	0.190643	0.883772	1.025704
H128	H	0.113641	0.896310	0.966134
H129	H	0.966508	1.481738	0.800276
O130	O	0.603797	0.514494	0.514298
C131	C	0.554303	0.546601	0.452968
H132	H	0.568006	0.621689	0.462620
H133	H	0.481670	0.539614	0.467109
C134	C	0.563011	0.397456	0.341982
C135	C	0.579848	0.489678	0.353831
H136	H	0.578765	0.362342	0.280829
H137	H	0.596353	0.375823	0.383302
H138	H	0.502483	0.391646	0.353772
H139	H	0.640376	0.495488	0.342053
H140	H	0.546516	0.511311	0.312506
H141	H	0.827530	1.247790	0.897983
H142	H	0.860826	1.078541	0.874430
H143	H	0.332363	0.665029	0.664685
H144	H	1.231275	0.614111	1.410194
O145	O	1.108618	1.083947	0.699838
C146	C	1.103325	1.090594	0.610151
H147	H	1.058021	1.151315	0.610940
H148	H	1.076355	1.024911	0.563697
C149	C	1.250815	1.029981	0.572899
C150	C	1.195178	1.104564	0.573869
H151	H	1.307474	1.038594	0.550516
H152	H	1.254381	1.025498	0.633321
H153	H	1.228329	0.975252	0.534188
H154	H	1.217658	1.159289	0.612588
H155	H	1.191618	1.109056	0.513452
H156	H	1.264616	0.590650	1.240978
H157	H	0.966375	0.800636	1.482068
O158	O	1.166127	1.135312	0.659664
C159	C	1.176975	1.120479	0.745438
H160	H	1.141863	1.178340	0.801336
H161	H	1.249657	1.118755	0.759667
C162	C	1.181197	0.957376	0.675747
C163	C	1.138066	1.028438	0.744402
H164	H	1.157200	0.900600	0.675108
H165	H	1.173892	0.967368	0.617959
H166	H	1.241763	0.955952	0.687613
H167	H	1.077504	1.029869	0.732529
H168	H	1.145360	1.018444	0.802188
H169	H	0.684906	0.795687	0.795023
