data_functionalizedCrystal
_audit_creation_method	'MofGen! by Chris Wilmer'
_symmetry_space_group_name_H-M	'P1'
_symmetry_Int_Tables_number	1
_symmetry_cell_setting	triclinic
loop_
_symmetry_equiv_pos_as_xyz
  x,y,z
_cell_length_a	11.026607
_cell_length_b	7.088929
_cell_length_c	8.597304
_cell_angle_alpha	76.027438
_cell_angle_beta	96.851186
_cell_angle_gamma	97.577146
loop_
_atom_site_label
_atom_site_type_symbol
_atom_site_fract_x
_atom_site_fract_y
_atom_site_fract_z
O1	O	1.597000	-0.271152	0.681004
O2	O	1.243772	-0.258623	0.604919
O3	O	1.430283	-0.227078	0.413453
O4	O	1.410489	-0.302696	0.872469
O5	O	1.455208	0.095125	0.387792
O6	O	1.268698	0.063580	0.579257
O7	O	1.621925	0.051051	0.655342
Cu8	Cu	1.447587	0.086735	0.614957
Cu9	Cu	1.418110	-0.294307	0.645304
O10	O	1.435415	0.019507	0.846808
C11	C	1.211039	-0.095210	0.578052
C12	C	1.076368	-0.088319	0.536209
C13	C	1.442008	-0.056150	0.340945
C14	C	1.439798	-0.026867	0.163122
N15	N	1.468329	0.354740	0.593613
C16	C	1.002442	-0.107354	0.651745
C17	C	0.863252	-0.100232	0.608501
C18	C	1.654658	-0.112366	0.682210
C19	C	1.789328	-0.119270	0.724054
N20	N	1.397378	-0.562310	0.666638
C21	C	1.423689	-0.151426	0.919316
C22	C	1.425898	-0.180721	1.097140
H23	H	1.042198	-0.128912	0.782673
F24	F	1.412550	-0.382191	0.201115
H25	H	1.449996	0.127277	0.083562
H26	H	1.541874	0.448862	0.517950
H27	H	1.323847	0.343577	0.742310
F28	F	1.024413	-0.060113	0.365069
H29	H	0.829077	-0.140827	0.854991
F30	F	0.811303	-0.072025	0.437353
