data_functionalizedCrystal
_audit_creation_method	'MofGen! by Chris Wilmer'
_symmetry_space_group_name_H-M	'P1'
_symmetry_Int_Tables_number	1
_symmetry_cell_setting	triclinic
loop_
_symmetry_equiv_pos_as_xyz
  x,y,z
_cell_length_a	13.897449
_cell_length_b	29.839131
_cell_length_c	13.897441
_cell_angle_alpha	89.958174
_cell_angle_beta	89.978743
_cell_angle_gamma	90.036054
loop_
_atom_site_label
_atom_site_type_symbol
_atom_site_fract_x
_atom_site_fract_y
_atom_site_fract_z
Zn1	Zn	1.474565	-0.178833	-0.545368
Zn2	Zn	1.974565	0.321167	-0.045368
Zn3	Zn	1.474415	-0.253967	-0.384035
Zn4	Zn	1.974415	0.246033	0.115965
Zn5	Zn	1.313260	-0.178853	-0.384079
Zn6	Zn	1.813260	0.321147	0.115921
Zn7	Zn	1.313186	-0.253938	-0.545280
Zn8	Zn	1.813186	0.246062	-0.045280
O9	O	1.393857	-0.216398	-0.464690
O10	O	1.893857	0.283602	0.035310
O11	O	1.609527	-0.188804	-0.523985
O12	O	2.109527	0.311196	-0.023985
O13	O	1.453006	-0.244023	-0.249059
O14	O	1.953006	0.255977	0.250941
O15	O	1.334751	-0.115983	-0.405529
O16	O	1.834751	0.384017	0.094471
O17	O	1.609417	-0.244004	-0.405454
O18	O	2.109417	0.255996	0.094546
O19	O	1.453261	-0.115969	-0.524028
O20	O	1.953261	0.384031	-0.024028
O21	O	1.334606	-0.188837	-0.249091
O22	O	1.834606	0.311163	0.250909
O23	O	1.178269	-0.188809	-0.405444
O24	O	1.678269	0.311191	0.094556
O25	O	1.334625	-0.243955	-0.680273
O26	O	1.834625	0.256045	-0.180273
O27	O	1.178214	-0.243974	-0.523878
O28	O	1.678214	0.256026	-0.023878
O29	O	1.453189	-0.188776	-0.680338
O30	O	1.953189	0.311224	-0.180338
O31	O	1.452935	-0.316830	-0.405369
O32	O	1.952935	0.183170	0.094631
O33	O	1.334480	-0.316809	-0.523835
O34	O	1.834480	0.183191	-0.023835
C35	C	1.143242	-0.216391	-0.464657
C36	C	1.643242	0.283609	0.035343
C37	C	1.036028	-0.216399	-0.464665
C38	C	1.536028	0.283601	0.035335
C39	C	0.948959	-0.216400	-0.464681
C40	C	1.448959	0.283600	0.035319
C41	C	0.839726	-0.216404	-0.464711
C42	C	1.339726	0.283596	0.035289
C43	C	1.393709	-0.333120	-0.464609
C44	C	1.893709	0.166880	0.035391
C45	C	1.393735	-0.383055	-0.464607
C46	C	1.893735	0.116945	0.035393
C47	C	1.455551	-0.692656	-0.526480
C48	C	1.955551	-0.192656	-0.026480
C49	C	1.455656	-0.880329	-0.526538
C50	C	1.955656	-0.380329	-0.026538
O51	O	1.508070	-0.904558	-0.579085
O52	O	2.008070	-0.404558	-0.079085
N53	N	1.394020	-0.903840	-0.464797
N54	N	1.894020	-0.403840	0.035203
C55	C	1.332350	-0.880430	-0.403042
C56	C	1.832350	-0.380430	0.096958
O57	O	1.279920	-0.904734	-0.350536
O58	O	1.779920	-0.404734	0.149464
C59	C	1.332241	-0.692758	-0.402990
C60	C	1.832241	-0.192758	0.097010
C61	C	1.393887	-0.669249	-0.464728
C62	C	1.893887	-0.169249	0.035272
C63	C	1.517192	-0.669147	-0.588214
C64	C	2.017192	-0.169147	-0.088214
C65	C	1.517169	-0.622232	-0.588195
C66	C	2.017169	-0.122232	-0.088195
C67	C	1.455505	-0.598825	-0.526443
C68	C	1.955505	-0.098825	-0.026443
C69	C	1.393864	-0.622334	-0.464709
C70	C	1.893864	-0.122334	0.035291
C71	C	1.270566	-0.669348	-0.341240
C72	C	1.770566	-0.169348	0.158760
C73	C	1.270543	-0.622427	-0.341234
C74	C	1.770543	-0.122427	0.158766
C75	C	1.332189	-0.598919	-0.402972
C76	C	1.832189	-0.098919	0.097028
C77	C	1.332177	-0.552011	-0.402937
C78	C	1.832177	-0.052011	0.097063
N79	N	1.393813	-0.528500	-0.464678
N80	N	1.893813	-0.028500	0.035322
C81	C	1.455477	-0.551907	-0.526431
C82	C	1.955477	-0.051907	-0.026431
C83	C	1.332413	-0.978960	-0.403073
C84	C	1.832413	-0.478960	0.096927
C85	C	1.332441	-1.025878	-0.403084
C86	C	1.832441	-0.525878	0.096916
C87	C	1.455746	-1.025774	-0.526582
C88	C	1.955746	-0.525774	-0.026582
C89	C	1.455722	-0.978855	-0.526565
C90	C	1.955722	-0.478855	-0.026565
C91	C	1.394048	-0.955449	-0.464814
C92	C	1.894048	-0.455449	0.035186
C93	C	1.455424	-0.453381	-0.526386
C94	C	1.955424	0.046619	-0.026386
C95	C	1.455399	-0.406462	-0.526359
C96	C	1.955399	0.093538	-0.026359
C97	C	1.332090	-0.406570	-0.402865
C98	C	1.832090	0.093430	0.097135
C99	C	1.332119	-0.453485	-0.402888
C100	C	1.832119	0.046515	0.097112
C101	C	1.393789	-0.476890	-0.464657
C102	C	1.893789	0.023110	0.035343
O103	O	1.279783	-0.527754	-0.350426
O104	O	1.779783	-0.027754	0.149574
O105	O	1.507883	-0.527595	-0.578944
O106	O	2.007883	-0.027595	-0.078944
C107	C	1.455574	-0.739571	-0.526499
C108	C	1.955574	-0.239571	-0.026499
C109	C	1.393934	-0.763080	-0.464765
C110	C	1.893934	-0.263080	0.035235
C111	C	1.332270	-0.739673	-0.403013
C112	C	1.832270	-0.239673	0.096987
C113	C	1.393962	-0.809998	-0.464777
C114	C	1.893962	-0.309998	0.035223
C115	C	1.455626	-0.833405	-0.526530
C116	C	1.955626	-0.333405	-0.026530
C117	C	1.517261	-0.809894	-0.588271
C118	C	2.017261	-0.309894	-0.088271
C119	C	1.517238	-0.762978	-0.588252
C120	C	2.017238	-0.262978	-0.088252
C121	C	1.270634	-0.763184	-0.341272
C122	C	1.770634	-0.263184	0.158728
C123	C	1.270663	-0.810100	-0.341295
C124	C	1.770663	-0.310100	0.158705
C125	C	1.332327	-0.833506	-0.403048
C126	C	1.832327	-0.333506	0.096952
C127	C	1.645449	-0.216405	-0.464725
C128	C	2.145449	0.283595	0.035275
C129	C	1.752663	-0.216408	-0.464739
C130	C	2.252663	0.283592	0.035261
C131	C	1.393916	-0.216360	-0.716284
C132	C	1.893916	0.283640	-0.216284
C133	C	1.393941	-0.216344	-0.823498
C134	C	1.893941	0.283656	-0.323498
C135	C	1.394031	-0.099220	-0.464793
C136	C	1.894031	0.400780	0.035207
C137	C	1.394105	-0.049285	-0.464837
C138	C	1.894105	0.450715	0.035163
C139	C	1.393961	-0.216331	-0.910567
C140	C	1.893961	0.283669	-0.410567
C141	C	1.393988	-0.216311	-1.019800
C142	C	1.893988	0.283689	-0.519800
C143	C	1.393853	-0.216403	-0.214076
C144	C	1.893853	0.283597	0.285924
C145	C	1.394015	-0.216293	-0.106863
C146	C	1.894015	0.283707	0.393137
H147	H	1.505602	-0.387323	-0.576634
H148	H	2.005602	0.112677	-0.076634
F149	F	1.521374	-1.050693	-0.592304
F150	F	2.021374	-0.550693	-0.092304
F151	F	1.582776	-0.597218	-0.653912
F152	F	2.082776	-0.097218	-0.153912
F153	F	1.582850	-0.737964	-0.653964
F154	F	2.082850	-0.237964	-0.153964
H155	H	1.567406	-0.688200	-0.638506
H156	H	2.067406	-0.188200	-0.138506
H157	H	1.282189	-0.959906	-0.352785
H158	H	1.782189	-0.459906	0.147215
F159	F	1.521333	-0.953840	-0.592275
F160	F	2.021333	-0.453840	-0.092275
F161	F	1.521062	-0.478284	-0.592126
F162	F	2.021062	0.021716	-0.092126
H163	H	1.220367	-0.688481	-0.290966
H164	H	1.720367	-0.188481	0.209034
H165	H	1.282252	-1.045015	-0.352801
H166	H	1.782252	-0.545015	0.147199
H167	H	1.220317	-0.603372	-0.290950
H168	H	1.720317	-0.103372	0.209050
F169	F	1.266520	-0.478506	-0.337169
F170	F	1.766520	0.021494	0.162831
F171	F	1.266468	-0.381650	-0.337146
F172	F	1.766468	0.118350	0.162854
H173	H	1.567474	-0.828960	-0.638549
H174	H	2.067474	-0.328960	-0.138549
H175	H	1.220465	-0.829236	-0.291011
H176	H	1.720465	-0.329236	0.208989
H177	H	1.220419	-0.744130	-0.290986
H178	H	1.720419	-0.244130	0.209014
