data_functionalizedCrystal
_audit_creation_method	'MofGen! by Chris Wilmer'
_symmetry_space_group_name_H-M	'P1'
_symmetry_Int_Tables_number	1
_symmetry_cell_setting	triclinic
loop_
_symmetry_equiv_pos_as_xyz
  x,y,z
_cell_length_a	13.032831
_cell_length_b	16.625546
_cell_length_c	13.033388
_cell_angle_alpha	82.835440
_cell_angle_beta	89.094871
_cell_angle_gamma	82.826778
loop_
_atom_site_label
_atom_site_type_symbol
_atom_site_fract_x
_atom_site_fract_y
_atom_site_fract_z
Zn1	Zn	1.498212	-0.544714	0.780744
Zn2	Zn	1.998212	-0.044714	1.280744
Zn3	Zn	1.519991	-0.664802	0.608758
Zn4	Zn	2.019991	-0.164802	1.108758
Zn5	Zn	1.348128	-0.510984	0.586996
Zn6	Zn	1.848128	-0.010984	1.086996
Zn7	Zn	1.326198	-0.660480	0.758877
Zn8	Zn	1.826198	-0.160480	1.258877
O9	O	1.423132	-0.595245	0.683844
O10	O	1.923132	-0.095245	1.183844
O11	O	1.645015	-0.576569	0.776188
O12	O	2.145015	-0.076569	1.276188
O13	O	1.515485	-0.632090	0.461962
O14	O	2.015485	-0.132090	0.961962
O15	O	1.368100	-0.402636	0.612741
O16	O	1.868100	0.097364	1.112741
O17	O	1.661016	-0.664797	0.649831
O18	O	2.161016	-0.164797	1.149831
O19	O	1.478366	-0.427418	0.755086
O20	O	1.978366	0.072582	1.255086
O21	O	1.389218	-0.519081	0.445974
O22	O	1.889218	-0.019081	0.945974
O23	O	1.201304	-0.514889	0.591538
O24	O	1.701304	-0.014889	1.091538
O25	O	1.330724	-0.657431	0.905687
O26	O	1.830724	-0.157431	1.405687
O27	O	1.185193	-0.624724	0.717818
O28	O	1.685193	-0.124724	1.217818
O29	O	1.457102	-0.572378	0.921752
O30	O	1.957102	-0.072378	1.421752
O31	O	1.494221	-0.777051	0.628628
O32	O	1.994221	-0.277051	1.128628
O33	O	1.351842	-0.773875	0.738920
O34	O	1.851842	-0.273875	1.238920
C35	C	1.155933	-0.565678	0.649945
C36	C	1.655933	-0.065678	1.149945
C37	C	1.041621	-0.553051	0.635467
C38	C	1.541621	-0.053051	1.135467
C39	C	0.982725	-0.601835	0.691400
C40	C	1.482725	-0.101835	1.191400
C41	C	0.864578	-0.588786	0.676438
C42	C	1.364578	-0.088786	1.176438
C43	C	1.423040	-0.804721	0.683788
C44	C	1.923040	-0.304721	1.183788
C45	C	1.423091	-0.894350	0.683811
C46	C	1.923091	-0.394350	1.183811
C47	C	1.423257	-1.222554	0.683941
C48	C	1.923257	-0.722554	1.183941
C49	C	1.423207	-1.131238	0.683907
C50	C	1.923207	-0.631238	1.183907
C51	C	1.423173	-1.058455	0.683875
C52	C	1.923173	-0.558455	1.183875
C53	C	1.423125	-0.967133	0.683843
C54	C	1.923125	-0.467133	1.183843
C55	C	1.691374	-0.624928	0.717876
C56	C	2.191374	-0.124928	1.217876
C57	C	1.805683	-0.637577	0.732378
C58	C	2.305683	-0.137577	1.232378
C59	C	1.389037	-0.618185	0.952077
C60	C	1.889037	-0.118185	1.452077
C61	C	1.374508	-0.627960	1.066382
C62	C	1.874508	-0.127960	1.566382
C63	C	1.423250	-0.384956	0.683925
C64	C	1.923250	0.115044	1.183925
C65	C	1.423300	-0.295343	0.683960
C66	C	1.923300	0.204657	1.183960
C67	C	1.415558	-0.600346	1.243434
C68	C	1.915558	-0.100346	1.743434
C69	C	1.430569	-0.590235	1.125293
C70	C	1.930569	-0.090235	1.625293
C71	C	1.457086	-0.572409	1.416653
C72	C	1.957086	-0.072409	1.916653
C73	C	1.471611	-0.562625	1.302347
C74	C	1.971611	-0.062625	1.802347
H75	H	1.019770	-0.653260	0.750366
H76	H	1.519770	-0.153260	1.250366
H77	H	1.315391	-0.667733	1.103401
H78	H	1.815391	-0.167733	1.603401
H79	H	1.356452	-0.640122	1.280460
H80	H	1.856452	-0.140122	1.780460
H81	H	0.827537	-0.537352	0.617475
H82	H	1.327537	-0.037352	1.117475
H83	H	1.530709	-0.522842	1.265320
H84	H	2.030709	-0.022842	1.765320
H85	H	1.489671	-0.550449	1.088271
H86	H	1.989671	-0.050449	1.588271
H87	H	0.842722	-0.689004	0.791352
H88	H	1.342722	-0.189004	1.291352
H89	H	1.004576	-0.501620	0.576508
H90	H	1.504576	-0.001620	1.076508
