data_functionalizedCrystal
_audit_creation_method	'MofGen! by Chris Wilmer'
_symmetry_space_group_name_H-M	'P1'
_symmetry_Int_Tables_number	1
_symmetry_cell_setting	triclinic
loop_
_symmetry_equiv_pos_as_xyz
  x,y,z
_cell_length_a	33.359672
_cell_length_b	33.359725
_cell_length_c	33.359897
_cell_angle_alpha	120.000581
_cell_angle_beta	90.003097
_cell_angle_gamma	60.000258
loop_
_atom_site_label
_atom_site_type_symbol
_atom_site_fract_x
_atom_site_fract_y
_atom_site_fract_z
O1	O	-0.341624	0.353539	0.628550
O2	O	-0.283340	0.271464	0.488178
O3	O	-0.283334	0.353542	0.570257
O4	O	-0.341630	0.271462	0.546471
O5	O	-0.216663	0.286870	0.570257
O6	O	-0.216669	0.204793	0.488178
O7	O	-0.274953	0.286868	0.628550
Zn8	Zn	-0.235226	0.235245	0.558364
Zn9	Zn	-0.323067	0.323087	0.558364
O10	O	-0.274959	0.204791	0.546471
C11	C	-0.146289	0.117464	0.263817
C12	C	-0.170522	0.141358	0.239468
C13	C	-0.073699	0.044877	0.191237
C14	C	-0.098042	0.068882	0.166997
C15	C	-0.146284	0.117461	0.191227
C16	C	-0.098047	0.068884	0.239477
C17	C	-0.146106	0.123168	0.342273
C18	C	-0.168958	0.149736	0.391845
C19	C	-0.216759	0.199400	0.416702
C20	C	-0.241538	0.228211	0.470452
C21	C	-0.241717	0.222502	0.391992
C22	C	-0.218867	0.195934	0.342422
C23	C	-0.171062	0.146270	0.317565
C24	C	-0.219032	0.196099	0.191407
C25	C	-0.242035	0.222821	0.168554
C26	C	-0.217229	0.199882	0.120754
C27	C	-0.242167	0.228855	0.095975
C28	C	-0.169419	0.150218	0.095799
C29	C	-0.146418	0.123496	0.118650
C30	C	-0.171224	0.146438	0.166454
C31	C	0.004751	-0.027681	0.191435
C32	C	0.054326	-0.073530	0.168594
C33	C	0.079192	-0.096528	0.120794
C34	C	0.132942	-0.146243	0.096024
C35	C	0.054490	-0.073681	0.095832
C36	C	0.004917	-0.027832	0.118671
C37	C	-0.019950	-0.004834	0.166473
C38	C	-0.146286	0.513456	0.587215
C39	C	-0.170523	0.489449	0.587555
C40	C	-0.073698	0.440866	0.587215
C41	C	-0.098045	0.416970	0.587554
C42	C	-0.146288	0.440867	0.587215
C43	C	-0.098043	0.489448	0.587555
C44	C	-0.146097	0.586019	0.581325
C45	C	-0.168946	0.631876	0.577607
C46	C	-0.216748	0.654874	0.575742
C47	C	-0.241524	0.704593	0.571709
C48	C	-0.241710	0.632025	0.577599
C49	C	-0.218863	0.586173	0.581319
C50	C	-0.171056	0.563170	0.583180
C51	C	-0.219042	0.435167	0.581325
C52	C	-0.242049	0.408600	0.577607
C53	C	-0.217246	0.358933	0.575742
C54	C	-0.242189	0.330124	0.571708
C55	C	-0.169435	0.335828	0.577599
C56	C	-0.146430	0.362395	0.581319
C57	C	-0.171233	0.412062	0.583180
C58	C	0.004757	0.435163	0.581325
C59	C	0.054333	0.408591	0.577601
C60	C	0.079195	0.358924	0.575735
C61	C	0.132947	0.330113	0.571702
C62	C	0.054490	0.335820	0.577590
C63	C	0.004916	0.362388	0.581312
C64	C	-0.019948	0.412060	0.583180
C65	C	-0.411997	0.044868	0.529512
C66	C	-0.460240	0.068874	0.529173
C67	C	-0.411998	0.117458	0.529512
C68	C	-0.460241	0.141354	0.529172
C69	C	-0.484587	0.117456	0.529512
C70	C	-0.387762	0.068876	0.529173
C71	C	-0.339243	-0.027695	0.535402
C72	C	-0.316236	-0.073551	0.539120
C73	C	-0.341039	-0.096550	0.540985
C74	C	-0.316096	-0.146268	0.545019
C75	C	-0.388849	-0.073701	0.539129
C76	C	-0.411855	-0.027849	0.535409
C77	C	-0.387052	-0.004846	0.533548
C78	C	-0.563040	0.123156	0.535402
C79	C	-0.612613	0.149722	0.539120
C80	C	-0.637477	0.199389	0.540985
C81	C	-0.691229	0.228198	0.545018
C82	C	-0.612772	0.222494	0.539128
C83	C	-0.563200	0.195928	0.535408
C84	C	-0.538336	0.146261	0.533547
C85	C	-0.339246	0.123162	0.535402
C86	C	-0.316242	0.149734	0.539126
C87	C	-0.341047	0.199401	0.540991
C88	C	-0.316106	0.228212	0.545025
C89	C	-0.388855	0.222504	0.539137
C90	C	-0.411862	0.195936	0.535415
C91	C	-0.387055	0.146265	0.533547
O92	O	0.291046	0.271450	0.546470
O93	O	0.150673	0.353534	0.570256
O94	O	0.232747	0.271455	0.488177
O95	O	0.208971	0.353530	0.628549
O96	O	0.232744	0.204785	0.488177
O97	O	0.150669	0.286865	0.570256
O98	O	0.291043	0.204781	0.546470
Zn99	Zn	0.220856	0.235237	0.558363
Zn100	Zn	0.220860	0.323078	0.558363
O101	O	0.208968	0.286860	0.628549
O102	O	0.291035	-0.279101	0.062618
O103	O	0.150664	-0.162520	0.120895
O104	O	0.232742	-0.162514	0.120907
O105	O	0.208957	-0.279106	0.062606
O106	O	0.232747	-0.162517	0.054235
O107	O	0.150669	-0.162523	0.054223
O108	O	0.291041	-0.279103	-0.004054
Zn109	Zn	0.220856	-0.220813	0.014499
Zn110	Zn	0.220849	-0.220810	0.102342
O111	O	0.208962	-0.279109	-0.004066
O112	O	-0.341622	0.837457	0.546471
O113	O	-0.283325	0.720867	0.570257
O114	O	-0.283332	0.720870	0.488178
O115	O	-0.341616	0.837453	0.628550
O116	O	-0.216661	0.720871	0.488178
O117	O	-0.216654	0.720868	0.570257
O118	O	-0.274951	0.837457	0.546471
Zn119	Zn	-0.235217	0.779163	0.558364
Zn120	Zn	-0.323059	0.779162	0.558364
O121	O	-0.274944	0.837454	0.628550
O122	O	-0.274925	0.286856	-0.004126
O123	O	-0.216639	0.204781	0.054176
O124	O	-0.216637	0.286862	0.054178
O125	O	-0.274927	0.204775	-0.004128
O126	O	-0.283309	0.353530	0.120841
O127	O	-0.283311	0.271449	0.120839
O128	O	-0.341597	0.353525	0.062538
Zn129	Zn	-0.323039	0.323072	0.102273
Zn130	Zn	-0.235196	0.235233	0.014441
O131	O	-0.341599	0.271444	0.062536
C132	C	-0.484562	0.513447	0.925502
C133	C	-0.460214	0.489439	0.949737
C134	C	-0.411978	0.440860	0.852914
C135	C	-0.387740	0.416963	0.877260
C136	C	-0.411973	0.440858	0.925502
C137	C	-0.460219	0.489442	0.877260
C138	C	-0.563016	0.586010	0.925313
C139	C	-0.612588	0.631866	0.948162
C140	C	-0.637448	0.654862	0.995963
C141	C	-0.691198	0.704579	1.020738
C142	C	-0.612740	0.632012	1.020923
C143	C	-0.563170	0.586160	0.998076
C144	C	-0.538310	0.563160	0.950271
C145	C	-0.412157	0.435154	0.998253
C146	C	-0.389306	0.408586	1.021259
C147	C	-0.341505	0.358919	0.996456
C148	C	-0.316727	0.330108	1.021397
C149	C	-0.316548	0.335817	0.948647
C150	C	-0.339397	0.362385	0.925642
C151	C	-0.387201	0.412051	0.950446
C152	C	-0.412172	0.435161	0.774462
C153	C	-0.389328	0.408591	0.724887
C154	C	-0.341528	0.358925	0.700024
C155	C	-0.316755	0.330117	0.646274
C156	C	-0.316567	0.335820	0.724728
C157	C	-0.339409	0.362386	0.774301
C158	C	-0.387212	0.412056	0.799166
C159	C	0.249680	0.044876	0.191226
C160	C	0.250019	0.068883	0.166989
C161	C	0.249688	0.117462	0.263812
C162	C	0.250027	0.141358	0.239466
C163	C	0.249684	0.117463	0.191224
C164	C	0.250023	0.068882	0.239468
C165	C	0.243786	-0.027685	0.191417
C166	C	0.240064	-0.073539	0.168569
C167	C	0.238195	-0.096535	0.120768
C168	C	0.234158	-0.146251	0.095993
C169	C	0.240052	-0.073686	0.095806
C170	C	0.243776	-0.027836	0.118652
C171	C	0.245640	-0.004835	0.166457
C172	C	0.243790	0.123165	0.118472
C173	C	0.240072	0.149732	0.095465
C174	C	0.238210	0.199398	0.120267
C175	C	0.234177	0.228207	0.095325
C176	C	0.240071	0.222500	0.168077
C177	C	0.243791	0.195933	0.191082
C178	C	0.245648	0.146268	0.166279
C179	C	0.243801	0.123163	0.342266
C180	C	0.240081	0.149733	0.391841
C181	C	0.238219	0.199398	0.416702
C182	C	0.234190	0.228207	0.470453
C183	C	0.240074	0.222502	0.391998
C184	C	0.243792	0.195936	0.342425
C185	C	0.245656	0.146266	0.317561
C186	C	0.192054	0.440829	0.925495
C187	C	0.191732	0.489400	0.949727
C188	C	0.192053	0.440832	0.852907
C189	C	0.191731	0.489403	0.877249
C190	C	0.192079	0.513403	0.925489
C191	C	0.191706	0.416940	0.877255
C192	C	0.197918	0.362200	0.925311
C193	C	0.201628	0.335479	0.948162
C194	C	0.203502	0.358410	0.995961
C195	C	0.207527	0.329438	1.020738
C196	C	0.201663	0.408067	1.020918
C197	C	0.197951	0.434788	0.998069
C198	C	0.196081	0.411853	0.950266
C199	C	0.197998	0.585946	0.998234
C200	C	0.201733	0.631790	1.021236
C201	C	0.203606	0.654784	0.996430
C202	C	0.207658	0.704489	1.021367
C203	C	0.201740	0.631941	0.948623
C204	C	0.198003	0.586102	0.925623
C205	C	0.196134	0.563104	0.950428
C206	C	0.197916	0.362207	0.774460
C207	C	0.201631	0.335484	0.724886
C208	C	0.203504	0.358418	0.700022
C209	C	0.207528	0.329449	0.646273
C210	C	0.201667	0.408071	0.724722
C211	C	0.197954	0.434793	0.774294
C212	C	0.196079	0.411859	0.799160
C213	C	-0.073728	0.440883	0.191225
C214	C	-0.098077	0.416987	0.166990
C215	C	-0.146311	0.513469	0.263813
C216	C	-0.170550	0.489463	0.239468
C217	C	-0.146318	0.440883	0.191226
C218	C	-0.098070	0.489463	0.239467
C219	C	0.004726	0.435180	0.191412
C220	C	0.054299	0.408613	0.168562
C221	C	0.079158	0.358948	0.120761
C222	C	0.132908	0.330139	0.095984
C223	C	0.054449	0.335845	0.095801
C224	C	0.004879	0.362412	0.118649
C225	C	-0.019980	0.412077	0.166454
C226	C	-0.146136	0.362244	0.118476
C227	C	-0.168988	0.335520	0.095471
C228	C	-0.216788	0.358458	0.120275
C229	C	-0.241567	0.329484	0.095335
C230	C	-0.241745	0.408124	0.168085
C231	C	-0.218895	0.434847	0.191088
C232	C	-0.171091	0.411905	0.166284
C233	C	-0.146115	0.586029	0.342265
C234	C	-0.168959	0.631879	0.391840
C235	C	-0.216759	0.654877	0.416703
C236	C	-0.241530	0.704593	0.470454
C237	C	-0.241720	0.632028	0.392000
C238	C	-0.218879	0.586178	0.342427
C239	C	-0.171077	0.563181	0.317562
O240	O	0.208915	0.353552	0.062563
O241	O	0.232716	0.271466	0.120855
O242	O	0.150631	0.353529	0.120842
O243	O	0.291000	0.271489	0.062577
O244	O	0.150648	0.286846	0.054164
O245	O	0.232733	0.204783	0.054177
O246	O	0.208932	0.286869	-0.004115
Zn247	Zn	0.220836	0.235239	0.014445
Zn248	Zn	0.220812	0.323097	0.102296
O249	O	0.291017	0.204806	-0.004101
C250	C	-0.411969	1.117443	0.925503
C251	C	-0.460210	1.141337	0.949738
C252	C	-0.411972	1.044855	0.852915
C253	C	-0.460213	1.068860	0.877260
C254	C	-0.484557	1.117440	0.925502
C255	C	-0.387735	1.068863	0.877261
C256	C	-0.339217	1.123147	0.925316
C257	C	-0.316210	1.149715	0.948166
C258	C	-0.341011	1.199380	0.995967
C259	C	-0.316068	1.228190	1.020744
C260	C	-0.388820	1.222482	1.020927
C261	C	-0.411825	1.195914	0.998079
C262	C	-0.387024	1.146249	0.950274
C263	C	-0.563006	1.196079	0.998251
C264	C	-0.612579	1.222801	1.021257
C265	C	-0.637443	1.199862	0.996452
C266	C	-0.691193	1.228836	1.021393
C267	C	-0.612739	1.150197	0.948643
C268	C	-0.563169	1.123475	0.925640
C269	C	-0.538305	1.146418	0.950444
C270	C	-0.339225	0.972296	0.774463
C271	C	-0.316223	0.926446	0.724888
C272	C	-0.341028	0.903448	0.700025
C273	C	-0.316090	0.853732	0.646274
C274	C	-0.388835	0.926295	0.724728
C275	C	-0.411839	0.972145	0.774301
C276	C	-0.387032	0.995144	0.799166
H277	H	-0.149224	0.131542	0.056875
H278	H	-0.015513	0.475623	0.230336
C279	C	-0.639763	0.656995	0.920703
N280	N	-0.660232	0.675925	0.900022
H281	H	-0.280962	0.263256	0.188877
C282	C	-0.246319	0.221344	0.315242
N283	N	-0.266996	0.240483	0.294769
H284	H	0.196386	0.343531	0.794706
C285	C	0.195927	0.489409	1.025520
N286	N	0.194404	0.530549	1.046196
H287	H	0.191151	0.377852	0.857712
H288	H	-0.078532	0.377896	0.127352
H289	H	-0.543084	0.214738	0.533891
C290	C	0.238021	-0.098667	0.196028
N291	N	0.236482	-0.117596	0.216710
H292	H	-0.078493	0.048785	0.127359
C293	C	-0.486645	0.041729	0.528435
N294	N	-0.506533	0.021286	0.527880
C295	C	-0.416143	0.277144	0.541189
N296	N	-0.436693	0.318297	0.542732
C297	C	0.195855	0.336972	0.872729
N298	N	0.194303	0.317968	0.833122
H299	H	-0.280643	0.650754	0.412249
H300	H	-0.239219	0.475290	0.230011
H301	H	0.250572	0.048783	0.127349
C302	C	-0.294302	0.277141	0.419343
N303	N	-0.333909	0.318296	0.439942
H304	H	0.196473	0.567226	1.018436
H305	H	-0.450762	0.990742	0.794415
C306	C	-0.246338	0.561047	0.315254
N307	N	-0.267022	0.542118	0.294787
H308	H	0.074741	0.295367	0.576059
H309	H	-0.015194	-0.009231	0.098344
C310	C	-0.263624	1.124302	0.920709
N311	N	-0.224015	1.105161	0.900029
H312	H	0.203125	0.295057	0.704780
C313	C	0.081796	0.281217	0.043209
N314	N	0.102391	0.240076	0.003595
H315	H	-0.280977	0.427419	0.576098
C316	C	-0.486621	1.041718	0.850852
N317	N	-0.506511	1.021275	0.830964
C318	C	-0.639784	0.124304	0.541163
N319	N	-0.660253	0.105162	0.542703
H320	H	-0.409011	1.262926	1.059852
H321	H	-0.348104	0.377869	0.857712
H322	H	-0.450750	1.214723	1.018403
C323	C	0.203653	0.280859	0.920707
N324	N	0.205177	0.239718	0.900029
H325	H	-0.409631	0.427402	1.060186
H326	H	-0.277625	0.295370	0.928452
C327	C	0.081489	-0.098672	0.196049
N328	N	0.101948	-0.117613	0.216727
H329	H	0.203189	0.426736	1.059842
H330	H	-0.015237	0.343598	0.098328
C331	C	-0.535670	0.560715	0.872727
N332	N	-0.515075	0.541660	0.833118
C333	C	0.238026	0.277139	0.419349
N334	N	0.236486	0.318290	0.439950
H335	H	-0.210162	0.509545	0.588102
H336	H	0.074741	-0.092409	0.056908
C337	C	-0.263632	0.901308	0.697722
N338	N	-0.224017	0.882371	0.677259
C339	C	-0.311935	0.997593	0.801814
N340	N	-0.291381	1.016650	0.822413
H341	H	-0.633023	0.262938	0.540645
C342	C	-0.246335	0.489814	0.583391
N343	N	-0.266894	0.530975	0.584948
H344	H	-0.107212	0.343561	0.098276
C345	C	-0.093829	0.068867	0.091202
N346	N	-0.054218	0.027722	0.070527
C347	C	0.081474	0.434026	0.196020
N348	N	0.101945	0.453168	0.216700
H349	H	-0.277309	-0.092151	0.540630
H350	H	0.203250	0.650384	1.060161
C351	C	0.245834	0.221350	0.315249
N352	N	0.247373	0.240492	0.294781
C353	C	-0.142152	0.281187	0.575544
N354	N	-0.121600	0.240031	0.573996
C355	C	-0.640097	1.124966	0.921358
N356	N	-0.660700	1.105960	0.900806
H357	H	-0.451094	0.475607	0.794706
C358	C	0.081506	0.434004	0.575553
N359	N	0.101977	0.453141	0.574005
C360	C	-0.486612	1.194148	1.003286
N361	N	-0.506499	1.233924	1.043617
H362	H	-0.348099	1.048775	0.857717
C363	C	-0.093529	0.560727	0.314917
N364	N	-0.053917	0.541665	0.294320
H365	H	-0.148631	0.650479	0.411949
H366	H	-0.479760	0.509531	0.989375
H367	H	-0.148635	0.130922	0.411958
H368	H	0.245321	0.082718	0.322023
H369	H	0.191231	0.509464	0.857687
C370	C	-0.071639	0.041755	0.265893
N371	N	-0.051747	0.021325	0.285790
C372	C	-0.416133	-0.099004	0.541184
N373	N	-0.436685	-0.118060	0.542732
H374	H	-0.107183	0.082725	0.322034
C375	C	-0.141536	0.280896	0.042879
N376	N	-0.120862	0.239754	0.003266
C377	C	-0.639747	1.277432	1.073845
N378	N	-0.660214	1.318580	1.113455
H379	H	-0.107171	0.567295	0.582844
C380	C	0.203804	0.657238	0.921337
N381	N	0.205358	0.676290	0.900783
C382	C	-0.535989	0.561032	1.025535
N383	N	-0.515515	0.542107	1.046218
C384	C	-0.294329	0.433352	0.195370
N385	N	-0.333935	0.452355	0.215923
C386	C	-0.071640	0.364159	0.588294
N387	N	-0.051754	0.324385	0.588853
C388	C	-0.486648	0.194165	0.528434
N389	N	-0.506536	0.233941	0.527877
C390	C	0.238025	0.124316	0.042877
N391	N	0.236483	0.105176	0.003267
H392	H	-0.280636	0.650758	0.576080
C393	C	0.237993	-0.098987	0.043221
N394	N	0.236442	-0.118041	0.003614
C395	C	0.238022	0.277138	0.195359
N396	N	0.236479	0.318291	0.215909
H397	H	0.196482	0.567506	0.886699
C398	C	-0.071640	0.516598	0.588303
N399	N	-0.051755	0.537050	0.588871
H400	H	-0.015487	0.475610	0.582848
C401	C	-0.141486	0.657004	0.575563
N402	N	-0.120804	0.675933	0.574025
H403	H	-0.319077	0.343572	0.886715
C404	C	-0.416123	0.900994	0.697375
N405	N	-0.436673	0.881934	0.676771
H406	H	-0.319018	1.082704	0.886392
H407	H	-0.409655	0.427409	0.704777
H408	H	0.196456	0.475224	0.794404
H409	H	-0.319044	0.082716	0.533880
H410	H	-0.210161	0.180446	0.259010
C411	C	0.203728	0.433300	0.697368
N412	N	0.205278	0.452303	0.676763
C413	C	-0.334212	0.041734	0.528436
N414	N	-0.293880	0.021291	0.527881
H415	H	0.191188	0.509489	0.989365
H416	H	-0.543055	1.083035	0.886715
C417	C	-0.640091	0.657318	1.073512
N418	N	-0.660689	0.676379	1.113122
C419	C	-0.263651	0.124314	0.541161
N420	N	-0.224038	0.105168	0.542694
H421	H	-0.319084	0.343569	0.794414
C422	C	-0.263982	0.281181	0.697376
N423	N	-0.224374	0.240029	0.676774
H424	H	-0.015495	-0.008960	0.230357
H425	H	-0.542763	1.214762	1.018453
H426	H	-0.319043	-0.008970	0.533883
C427	C	0.250759	0.041739	0.265874
N428	N	0.251315	0.021297	0.285764
H429	H	-0.107502	0.343582	0.582830
C430	C	0.238047	0.124312	0.419011
N431	N	0.236514	0.105166	0.439477
C432	C	0.245815	-0.002701	0.091197
N433	N	0.247349	0.016233	0.070519
H434	H	-0.239235	0.214781	0.230330
H435	H	0.245306	0.082723	0.098272
H436	H	-0.239188	0.567571	0.582832
H437	H	-0.450780	-0.009252	0.533890
H438	H	-0.015197	0.343572	0.582819
H439	H	-0.542796	0.082712	0.533883
H440	H	-0.450790	0.214750	0.533905
H441	H	-0.451080	0.475597	1.018454
H442	H	0.245306	0.214744	0.230008
H443	H	-0.479770	0.509534	0.857714
H444	H	0.250572	0.180451	0.259014
H445	H	-0.210186	0.509555	0.259017
H446	H	0.245307	-0.008962	0.230341
H447	H	-0.078520	0.509552	0.259010
