data_functionalizedCrystal
_audit_creation_method	'MofGen! by Chris Wilmer'
_symmetry_space_group_name_H-M	'P1'
_symmetry_Int_Tables_number	1
_symmetry_cell_setting	triclinic
loop_
_symmetry_equiv_pos_as_xyz
  x,y,z
_cell_length_a	10.654562
_cell_length_b	14.853567
_cell_length_c	9.130313
_cell_angle_alpha	90.002541
_cell_angle_beta	89.996930
_cell_angle_gamma	84.062517
loop_
_atom_site_label
_atom_site_type_symbol
_atom_site_fract_x
_atom_site_fract_y
_atom_site_fract_z
O1	O	1.666509	0.126676	-0.121882
O2	O	1.300907	0.138729	-0.121863
O3	O	1.493474	0.001525	-0.121877
O4	O	1.473942	0.263880	-0.121867
O5	O	1.493471	0.001529	0.121722
O6	O	1.300905	0.138732	0.121736
O7	O	1.666506	0.126680	0.121717
Cu8	Cu	1.483705	0.132707	0.143969
Cu9	Cu	1.483708	0.132702	-0.144115
O10	O	1.473940	0.263883	0.121731
C11	C	1.254117	0.137843	-0.000061
C12	C	1.114703	0.135188	-0.000054
C13	C	1.049183	0.133952	0.132720
C14	C	0.918187	0.131465	0.132696
C15	C	0.918240	0.131454	-0.132889
C16	C	1.049235	0.133935	-0.132863
C17	C	1.114651	0.135206	0.265529
C18	C	1.049132	0.133970	0.398314
C19	C	0.918135	0.131483	0.398290
C20	C	0.852658	0.130231	0.265480
C21	C	1.492588	-0.032066	-0.000082
C22	C	1.489936	-0.132164	-0.000095
C23	C	1.364336	-0.545375	-0.000060
C24	C	1.593110	-0.565423	-0.000072
C25	C	1.595603	-0.471376	-0.000081
C26	C	1.482462	-0.414324	-0.000077
C27	C	1.366826	-0.451318	-0.000064
C28	C	1.711237	-0.434374	-0.000079
C29	C	1.713735	-0.340322	-0.000086
C30	C	1.600592	-0.283267	-0.000093
C31	C	1.484952	-0.320268	-0.000082
C32	C	1.371810	-0.263215	-0.000078
C33	C	1.256169	-0.300213	-0.000077
C34	C	1.253683	-0.394264	-0.000071
C35	C	1.603077	-0.189217	-0.000099
C36	C	1.374300	-0.169159	-0.000082
C37	C	1.713296	0.127566	-0.000088
C38	C	1.852711	0.130220	-0.000105
C39	C	1.474826	0.297475	-0.000067
C40	C	1.477478	0.397573	-0.000064
N41	N	1.483713	0.132709	0.346592
N42	N	1.483711	0.132693	-0.346737
C43	C	1.569003	0.071976	0.423237
C44	C	1.568999	0.071966	0.576574
C45	C	1.398412	0.193428	0.576606
C46	C	1.398410	0.193434	0.423272
C47	C	1.654305	0.011252	0.346556
C48	C	1.739603	-0.049485	0.423202
C49	C	1.739600	-0.049496	0.576539
C50	C	1.654299	0.011230	0.653230
H51	H	0.864918	0.130437	-0.241016
C52	C	1.708472	-0.053947	-0.000098
C53	C	1.730176	-0.148546	-0.000093
H54	H	1.786943	-0.028841	-0.000087
H55	H	1.661898	-0.034426	-0.085046
H56	H	1.661871	-0.034417	0.084851
H57	H	1.776769	-0.168076	-0.085049
H58	H	1.776770	-0.168075	0.084863
C59	C	1.244371	-0.051752	0.125142
C60	C	1.249930	-0.106447	-0.000081
H61	H	1.167594	-0.013034	0.125134
H62	H	1.248143	-0.088858	0.210073
H63	H	1.313598	-0.016261	0.125128
H64	H	1.180708	-0.141944	-0.000061
H65	H	1.246146	-0.069337	-0.085034
C66	C	1.316281	0.061387	0.193281
C67	C	1.258645	0.137929	0.265562
H68	H	1.405175	0.063072	0.193296
H69	H	1.296107	0.008361	0.242330
H70	H	1.286660	0.060829	0.095187
H71	H	1.288259	0.138484	0.363661
H72	H	1.278829	0.190969	0.216517
H73	H	1.328958	0.242887	0.360867
H74	H	1.654318	0.011257	0.221702
C75	C	1.057922	-0.406152	-0.125290
C76	C	1.126582	-0.434939	-0.000064
H77	H	0.979461	-0.431271	-0.125284
H78	H	1.043205	-0.341982	-0.125285
H79	H	1.104530	-0.425694	-0.210228
H80	H	1.079978	-0.415391	0.084875
H81	H	1.141295	-0.499122	-0.000055
C82	C	1.258924	-0.680638	-0.000051
C83	C	1.237227	-0.586038	-0.000052
H84	H	1.180450	-0.705740	-0.000036
H85	H	1.305504	-0.700168	-0.084998
H86	H	1.305515	-0.700161	0.084900
H87	H	1.190643	-0.566514	-0.085009
H88	H	1.190626	-0.566500	0.084904
H89	H	1.685224	-0.611881	-0.000064
C90	C	1.808986	-0.587449	-0.000082
C91	C	1.835596	-0.497086	-0.000075
H92	H	1.885765	-0.626166	-0.000088
H93	H	1.761579	-0.598733	0.084859
H94	H	1.761583	-0.598734	-0.085038
H95	H	1.882990	-0.485799	0.084887
H96	H	1.883022	-0.485797	-0.085025
H97	H	1.807897	-0.310206	-0.000089
H98	H	1.809046	-0.098932	0.360752
C99	C	1.181105	0.244900	0.623860
C100	C	1.304659	0.260177	0.660907
H101	H	1.123229	0.286107	0.675912
H102	H	1.168902	0.253602	0.521585
H103	H	1.167388	0.184634	0.648985
H104	H	1.318378	0.320442	0.635772
H105	H	1.316867	0.251483	0.763205
H106	H	1.809044	-0.098956	0.638942
H107	H	1.102453	0.134983	0.506443
C108	C	0.891748	0.053365	0.624661
C109	C	0.846121	0.130120	0.544246
H110	H	0.847295	0.052531	0.714775
H111	H	0.879756	0.000484	0.570102
H112	H	0.979135	0.055034	0.643662
H113	H	0.758735	0.128448	0.525235
H114	H	0.858102	0.183015	0.598816
C115	C	1.126264	-0.182809	-0.125298
C116	C	1.131804	-0.237496	-0.000075
H117	H	1.049485	-0.144093	-0.125297
H118	H	1.195484	-0.147324	-0.125283
H119	H	1.130046	-0.219927	-0.210238
H120	H	1.128032	-0.200379	0.084866
H121	H	1.062565	-0.272985	-0.000076
C122	C	0.651039	0.204006	0.193123
C123	C	0.708667	0.127481	0.265436
H124	H	0.562148	0.202303	0.193087
H125	H	0.671164	0.257043	0.242184
H126	H	0.680710	0.204562	0.095046
H127	H	0.679003	0.126928	0.363517
H128	H	0.688531	0.074430	0.216378
H129	H	1.654295	0.011210	0.778087
H130	H	1.102581	0.134946	-0.240980
