data_functionalizedCrystal
_audit_creation_method	'MofGen! by Chris Wilmer'
_symmetry_space_group_name_H-M	'P1'
_symmetry_Int_Tables_number	1
_symmetry_cell_setting	triclinic
loop_
_symmetry_equiv_pos_as_xyz
  x,y,z
_cell_length_a	18.050589
_cell_length_b	18.050591
_cell_length_c	12.645323
_cell_angle_alpha	90.031569
_cell_angle_beta	89.969044
_cell_angle_gamma	89.986383
loop_
_atom_site_label
_atom_site_type_symbol
_atom_site_fract_x
_atom_site_fract_y
_atom_site_fract_z
Zn1	Zn	-0.295791	-1.135388	-0.599653
Zn2	Zn	0.204209	-0.635388	-0.099653
Zn3	Zn	-0.419990	-1.135299	-0.422374
Zn4	Zn	0.080010	-0.635299	0.077626
Zn5	Zn	-0.295803	-1.011191	-0.422370
Zn6	Zn	0.204197	-0.511191	0.077630
Zn7	Zn	-0.419928	-1.011172	-0.599562
Zn8	Zn	0.080072	-0.511172	-0.099562
O9	O	-0.357878	-1.073262	-0.510990
O10	O	0.142122	-0.573262	-0.010990
O11	O	-0.312286	-1.239301	-0.576176
O12	O	0.187714	-0.739301	-0.076176
O13	O	-0.403547	-1.118806	-0.274026
O14	O	0.096453	-0.618806	0.225974
O15	O	-0.191877	-1.027711	-0.445923
O16	O	0.308123	-0.527711	0.054077
O17	O	-0.403535	-1.239235	-0.445930
O18	O	0.096465	-0.739235	0.054070
O19	O	-0.191868	-1.118958	-0.576172
O20	O	0.308132	-0.618958	-0.076172
O21	O	-0.312307	-1.027624	-0.274023
O22	O	0.187693	-0.527624	0.225977
O23	O	-0.312248	-0.907263	-0.445835
O24	O	0.187752	-0.407263	0.054165
O25	O	-0.403430	-1.027678	-0.747921
O26	O	0.096570	-0.527678	-0.247921
O27	O	-0.403442	-0.907250	-0.576017
O28	O	0.096558	-0.407250	-0.076017
O29	O	-0.312227	-1.118940	-0.747988
O30	O	0.187773	-0.618940	-0.247988
O31	O	-0.523906	-1.118788	-0.445842
O32	O	-0.023906	-0.618788	0.054158
O33	O	-0.523861	-1.027592	-0.576021
O34	O	-0.023861	-0.527592	-0.076021
C35	C	-0.357840	-0.880310	-0.510916
C36	C	0.142160	-0.380310	-0.010916
C37	C	-0.357842	-0.797764	-0.510910
C38	C	0.142158	-0.297764	-0.010910
C39	C	-0.550830	-1.073198	-0.510946
C40	C	-0.050830	-0.573198	-0.010946
C41	C	-0.633376	-1.073239	-0.510962
C42	C	-0.133376	-0.573239	-0.010962
C43	C	-0.882199	-1.122960	-0.440288
C44	C	-0.382199	-0.622960	0.059712
C45	C	-0.832860	-1.055201	-0.414235
C46	C	-0.332860	-0.555201	0.085765
C47	C	-0.930496	-1.073332	-0.511044
C48	C	-0.430496	-0.573332	-0.011044
C49	C	-0.832753	-1.141042	-0.537006
C50	C	-0.332753	-0.641042	-0.037006
C51	C	-0.784511	-1.073290	-0.511001
C52	C	-0.284511	-0.573290	-0.011001
C53	C	-0.882245	-1.005537	-0.484941
C54	C	-0.382245	-0.505537	0.015059
C55	C	-0.882142	-1.091424	-0.607757
C56	C	-0.382142	-0.591424	-0.107757
C57	C	-0.832826	-1.023618	-0.581741
C58	C	-0.332826	-0.523618	-0.081741
C59	C	-1.014594	-1.073358	-0.511066
C60	C	-0.514594	-0.573358	-0.011066
C61	C	-0.700414	-1.073257	-0.510979
C62	C	-0.200414	-0.573257	-0.010979
C63	C	-0.308183	-0.598300	-0.440265
C64	C	0.191817	-0.098300	0.059735
C65	C	-0.375919	-0.548887	-0.414171
C66	C	0.124081	-0.048887	0.085829
C67	C	-0.357857	-0.646634	-0.510946
C68	C	0.142143	-0.146634	-0.010946
C69	C	-0.290137	-0.548965	-0.537026
C70	C	0.209863	-0.048965	-0.037026
C71	C	-0.357865	-0.500649	-0.510980
C72	C	0.142135	-0.000649	-0.010980
C73	C	-0.425628	-0.598308	-0.484802
C74	C	0.074372	-0.098308	0.015198
C75	C	-0.339801	-0.598391	-0.607703
C76	C	0.160199	-0.098391	-0.107703
C77	C	-0.407584	-0.549000	-0.581645
C78	C	0.092416	-0.049000	-0.081645
C79	C	-0.357851	-0.730732	-0.510925
C80	C	0.142149	-0.230732	-0.010925
C81	C	-0.357879	-0.416552	-0.511001
C82	C	0.142121	0.083448	-0.011001
C83	C	-0.164172	-1.073346	-0.511057
C84	C	0.335828	-0.573346	-0.011057
C85	C	-0.081626	-1.073382	-0.511086
C86	C	0.418374	-0.573382	-0.011086
C87	C	-0.357820	-1.073317	-0.787495
C88	C	0.142180	-0.573317	-0.287495
C89	C	-0.357796	-1.073340	-0.905325
C90	C	0.142204	-0.573340	-0.405325
C91	C	-0.357903	-0.266968	-0.511045
C92	C	0.142097	0.233032	-0.011045
C93	C	-0.357881	-0.349513	-0.511019
C94	C	0.142119	0.150487	-0.011019
C95	C	-0.414902	-1.015751	-1.072847
C96	C	0.085098	-0.515751	-0.572847
C97	C	-0.415184	-1.015901	-0.950287
C98	C	0.084816	-0.515901	-0.450287
C99	C	-0.379045	-1.151590	-0.949859
C100	C	0.120955	-0.651590	-0.449859
C101	C	-0.379403	-1.151274	-1.072457
C102	C	0.120597	-0.651274	-0.572457
C103	C	-0.279122	-1.053420	-1.072531
C104	C	0.220878	-0.553420	-0.572531
C105	C	-0.279593	-1.051674	-0.949924
C106	C	0.220407	-0.551674	-0.449924
C107	C	-0.357881	-1.073250	-0.235560
C108	C	0.142119	-0.573250	0.264440
C109	C	-0.357697	-1.073371	-0.117731
C110	C	0.142303	-0.573371	0.382269
H111	H	-0.903877	-1.164895	-0.380425
H112	H	-0.403877	-0.664895	0.119575
H113	H	-0.232872	-0.527252	-0.559034
H114	H	0.267128	-0.027252	-0.059034
C115	C	-0.455833	-1.174828	-0.908402
C116	C	0.044167	-0.674828	-0.408402
N117	N	-0.513673	-1.192327	-0.877179
N118	N	-0.013673	-0.692327	-0.377179
H119	H	-0.903892	-0.948241	-0.462872
H120	H	-0.403892	-0.448241	0.037128
C121	C	-0.324542	-1.211147	-0.910515
C122	C	0.175458	-0.711147	-0.410515
N123	N	-0.283491	-1.256004	-0.880878
N124	N	0.216509	-0.756004	-0.380878
C125	C	-0.464404	-0.519932	-0.662410
C126	C	0.035596	-0.019932	-0.162410
N127	N	-0.507203	-0.498035	-0.723236
N128	N	-0.007203	0.001965	-0.223236
H129	H	-0.266224	-0.619946	-0.380431
H130	H	0.233776	-0.119946	0.119569
H131	H	-0.259755	-0.997353	-1.103425
H132	H	0.240245	-0.497353	-0.603425
H133	H	-0.324500	-0.620152	-0.689489
H134	H	0.175500	-0.120152	-0.189489
H135	H	-0.482918	-0.619892	-0.462667
H136	H	0.017082	-0.119892	0.037333
H137	H	-0.401886	-0.957876	-0.920175
H138	H	0.098114	-0.457876	-0.420175
C139	C	-0.257926	-0.973894	-0.910555
C140	C	0.242074	-0.473894	-0.410555
N141	N	-0.241602	-0.915315	-0.880880
N142	N	0.258398	-0.415315	-0.380880
H143	H	-0.391199	-0.527143	-0.332360
H144	H	0.108801	-0.027143	0.167640
C145	C	-0.218964	-1.104218	-0.908558
C146	C	0.281036	-0.604218	-0.408558
N147	N	-0.173299	-1.143797	-0.877394
N148	N	0.326701	-0.643797	-0.377394
H149	H	-0.401731	-0.957553	-1.102310
H150	H	0.098269	-0.457553	-0.602310
H151	H	-0.236502	-1.095387	-1.101560
H152	H	0.263498	-0.595387	-0.601560
H153	H	-0.472788	-1.028793	-1.103660
H154	H	0.027212	-0.528793	-0.603660
H155	H	-0.811211	-1.039875	-0.332428
H156	H	-0.311211	-0.539875	0.167572
C157	C	-0.493882	-1.033681	-0.910673
C158	C	0.006118	-0.533681	-0.410673
N159	N	-0.553164	-1.047059	-0.880836
N160	N	-0.053164	-0.547059	-0.380836
H161	H	-0.811014	-1.198321	-0.558983
H162	H	-0.311014	-0.698321	-0.058983
C163	C	-0.325573	-1.211250	-1.112576
C164	C	0.174427	-0.711250	-0.612576
N165	N	-0.285034	-1.256427	-1.142789
N166	N	0.214966	-0.756427	-0.642789
C167	C	-0.803714	-0.966830	-0.662546
C168	C	-0.303714	-0.466830	-0.162546
N169	N	-0.781784	-0.924056	-0.723401
N170	N	-0.281784	-0.424056	-0.223401
H171	H	-0.436843	-1.168186	-1.101063
H172	H	0.063157	-0.668186	-0.601063
H173	H	-0.903807	-1.106769	-0.689541
H174	H	-0.403807	-0.606769	-0.189541
