data_functionalizedCrystal
_audit_creation_method	'MofGen! by Chris Wilmer'
_symmetry_space_group_name_H-M	'P1'
_symmetry_Int_Tables_number	1
_symmetry_cell_setting	triclinic
loop_
_symmetry_equiv_pos_as_xyz
  x,y,z
_cell_length_a	16.625548
_cell_length_b	18.050590
_cell_length_c	18.050591
_cell_angle_alpha	90.018837
_cell_angle_beta	90.008826
_cell_angle_gamma	90.019620
loop_
_atom_site_label
_atom_site_type_symbol
_atom_site_fract_x
_atom_site_fract_y
_atom_site_fract_z
Zn1	Zn	1.232609	-0.295718	0.419908
Zn2	Zn	1.732609	0.204282	0.919908
Zn3	Zn	1.232549	-0.419892	0.295716
Zn4	Zn	1.732549	0.080108	0.795716
Zn5	Zn	1.097798	-0.295723	0.295732
Zn6	Zn	1.597798	0.204277	0.795732
Zn7	Zn	1.097750	-0.419873	0.419865
Zn8	Zn	1.597750	0.080127	0.919865
O9	O	1.165177	-0.357802	0.357805
O10	O	1.665177	0.142198	0.857805
O11	O	1.345433	-0.312196	0.403445
O12	O	1.845433	0.187804	0.903445
O13	O	1.214669	-0.403430	0.191794
O14	O	1.714669	0.096570	0.691794
O15	O	1.115726	-0.191797	0.312229
O16	O	1.615726	0.308203	0.812229
O17	O	1.345389	-0.403426	0.312202
O18	O	1.845389	0.096574	0.812202
O19	O	1.214771	-0.191794	0.403460
O20	O	1.714771	0.308206	0.903460
O21	O	1.115668	-0.312203	0.191805
O22	O	1.615668	0.187797	0.691805
O23	O	0.984960	-0.312185	0.312187
O24	O	1.484960	0.187815	0.812187
O25	O	1.115645	-0.403394	0.523795
O26	O	1.615645	0.096606	1.023795
O27	O	0.984924	-0.403399	0.403387
O28	O	1.484924	0.096601	0.903387
O29	O	1.214725	-0.312178	0.523827
O30	O	1.714725	0.187822	1.023827
O31	O	1.214623	-0.523814	0.312160
O32	O	1.714623	-0.023814	0.812160
O33	O	1.115587	-0.523800	0.403371
O34	O	1.615587	-0.023800	0.903371
C35	C	0.955686	-0.357791	0.357784
C36	C	1.455686	0.142209	0.857784
C37	C	0.866065	-0.357804	0.357793
C38	C	1.366065	0.142196	0.857793
C39	C	0.537889	-0.357809	0.357825
C40	C	1.037889	0.142191	0.857825
C41	C	0.629198	-0.357806	0.357814
C42	C	1.129198	0.142194	0.857814
C43	C	0.701974	-0.357807	0.357808
C44	C	1.201974	0.142193	0.857808
C45	C	0.793288	-0.357803	0.357798
C46	C	1.293288	0.142197	0.857798
C47	C	1.165115	-0.550754	0.357776
C48	C	1.665115	-0.050754	0.857776
C49	C	1.165162	-0.633300	0.357788
C50	C	1.665162	-0.133300	0.857788
C51	C	1.219130	-0.832731	0.308256
C52	C	1.719130	-0.332731	0.808256
C53	C	1.238812	-0.882074	0.376036
C54	C	1.738812	-0.382074	0.876036
C55	C	1.165208	-0.784430	0.357817
C56	C	1.665208	-0.284430	0.857817
C57	C	1.145608	-0.882168	0.290068
C58	C	1.645608	-0.382168	0.790068
C59	C	1.165253	-0.930415	0.357840
C60	C	1.665253	-0.430415	0.857840
C61	C	1.184928	-0.832686	0.425633
C62	C	1.684928	-0.332686	0.925633
C63	C	1.091689	-0.832776	0.339619
C64	C	1.591689	-0.332776	0.839619
C65	C	1.111343	-0.882097	0.407446
C66	C	1.611343	-0.382097	0.907446
C67	C	1.165183	-0.700332	0.357803
C68	C	1.665183	-0.200332	0.857803
C69	C	1.165278	-1.014511	0.357862
C70	C	1.665278	-0.514511	0.857862
C71	C	1.375486	-0.357813	0.357826
C72	C	1.875486	0.142187	0.857826
C73	C	1.465107	-0.357818	0.357836
C74	C	1.965107	0.142182	0.857836
C75	C	1.165186	-0.357784	0.551511
C76	C	1.665186	0.142216	1.051511
C77	C	1.165190	-0.357776	0.634057
C78	C	1.665190	0.142224	1.134057
C79	C	1.165261	-0.164096	0.357851
C80	C	1.665261	0.335904	0.857851
C81	C	1.165297	-0.081550	0.357871
C82	C	1.665297	0.418450	0.857871
C83	C	1.219076	-0.308185	0.882899
C84	C	1.719076	0.191815	1.382899
C85	C	1.238772	-0.375936	0.833484
C86	C	1.738772	0.124064	1.333484
C87	C	1.165189	-0.357804	0.931177
C88	C	1.665189	0.142196	1.431177
C89	C	1.145531	-0.290044	0.833510
C90	C	1.645531	0.209956	1.333510
C91	C	1.165192	-0.357787	0.785192
C92	C	1.665192	0.142213	1.285192
C93	C	1.184924	-0.425590	0.882849
C94	C	1.684924	0.074410	1.382849
C95	C	1.091649	-0.339652	0.882879
C96	C	1.591649	0.160348	1.382879
C97	C	1.111317	-0.407449	0.833487
C98	C	1.611317	0.092551	1.333487
C99	C	1.165190	-0.357813	1.015275
C100	C	1.665190	0.142187	1.515275
C101	C	1.165191	-0.357786	0.701095
C102	C	1.665191	0.142214	1.201095
C103	C	1.165169	-0.357829	1.164853
C104	C	1.665169	0.142171	1.664853
C105	C	1.165188	-0.357815	1.082307
C106	C	1.665188	0.142185	1.582307
H107	H	1.301005	-0.903731	0.391443
H108	H	1.801005	-0.403731	0.891443
H109	H	1.201641	-0.482899	0.904432
H110	H	1.701641	0.017101	1.404432
N111	N	1.050973	-0.910629	0.463044
N112	N	1.550973	-0.410629	0.963044
H113	H	1.050984	-0.966579	0.462451
H114	H	1.550984	-0.466579	0.962451
H115	H	0.995616	-0.891846	0.449719
H116	H	1.495616	-0.391846	0.949719
N117	N	1.123506	-0.214150	0.804799
N118	N	1.623506	0.285850	1.304799
H119	H	1.114016	-0.179578	0.847925
H120	H	1.614016	0.320422	1.347925
H121	H	1.072941	-0.217745	0.773989
H122	H	1.572941	0.282255	1.273989
N123	N	1.123619	-0.910945	0.214159
N124	N	1.623619	-0.410945	0.714159
H125	H	1.068468	-0.892237	0.200021
H126	H	1.568468	-0.392237	0.700021
H127	H	1.123333	-0.966891	0.214889
H128	H	1.623333	-0.466891	0.714889
N129	N	1.279551	-0.804010	0.252801
N130	N	1.779551	-0.304010	0.752801
H131	H	1.278744	-0.748062	0.252852
H132	H	1.778744	-0.248062	0.752852
H133	H	1.265267	-0.822833	0.201770
H134	H	1.765267	-0.322833	0.701770
N135	N	1.009331	-0.804063	0.319190
N136	N	1.509331	-0.304063	0.819190
H137	H	0.994555	-0.822031	0.267967
H138	H	1.494555	-0.322031	0.767967
H139	H	1.009860	-0.748117	0.319856
H140	H	1.509860	-0.248117	0.819856
N141	N	1.207006	-0.804027	0.501564
N142	N	1.707006	-0.304027	1.001564
H143	H	1.206875	-0.748076	0.501081
H144	H	1.706875	-0.248076	1.001081
H145	H	1.262362	-0.822449	0.515386
H146	H	1.762362	-0.322449	1.015386
H147	H	1.065748	-0.449451	0.811928
H148	H	1.565748	0.050549	1.311928
N149	N	1.279477	-0.252686	0.911651
N150	N	1.779477	0.247314	1.411651
H151	H	1.335016	-0.266493	0.893685
H152	H	1.835016	0.233507	1.393685
H153	H	1.278612	-0.252781	0.967596
H154	H	1.778612	0.247219	1.467596
N155	N	1.321148	-0.396272	0.804736
N156	N	1.821148	0.103728	1.304736
H157	H	1.361816	-0.358768	0.822704
H158	H	1.861816	0.141232	1.322704
H159	H	1.320326	-0.396597	0.748790
H160	H	1.820326	0.103403	1.248790
N161	N	1.009289	-0.319299	0.911644
N162	N	1.509289	0.180701	1.411644
H163	H	0.994486	-0.268084	0.893729
H164	H	1.494486	0.231916	1.393729
H165	H	1.009832	-0.319980	0.967589
H166	H	1.509832	0.180020	1.467589
