data_functionalizedCrystal
_audit_creation_method	'MofGen! by Chris Wilmer'
_symmetry_space_group_name_H-M	'P1'
_symmetry_Int_Tables_number	1
_symmetry_cell_setting	triclinic
loop_
_symmetry_equiv_pos_as_xyz
  x,y,z
_cell_length_a	11.026607
_cell_length_b	11.792241
_cell_length_c	9.482900
_cell_angle_alpha	99.382638
_cell_angle_beta	78.618164
_cell_angle_gamma	96.389716
loop_
_atom_site_label
_atom_site_type_symbol
_atom_site_fract_x
_atom_site_fract_y
_atom_site_fract_z
O1	O	1.594419	0.489789	0.120909
O2	O	1.240756	0.435597	0.120909
O3	O	1.426172	0.299225	0.120899
O4	O	1.409004	0.626160	0.120919
O5	O	1.463903	0.271462	-0.120896
O6	O	1.278487	0.407833	-0.120885
O7	O	1.632150	0.462025	-0.120886
Cu8	Cu	1.458764	0.432394	-0.142964
Cu9	Cu	1.414143	0.465228	0.142987
O10	O	1.446735	0.598397	-0.120876
C11	C	1.214345	0.411718	0.000012
C12	C	1.079435	0.381915	0.000012
C13	C	1.443959	0.242838	0.000002
C14	C	1.440731	0.116184	0.000003
C15	C	1.006170	0.464206	0.000018
C16	C	0.866733	0.433405	0.000018
C17	C	1.434793	-0.115704	0.000028
C18	C	1.438093	0.013335	0.000014
C19	C	1.658561	0.485905	0.000014
C20	C	1.793469	0.515708	0.000024
C21	C	1.428947	0.654784	0.000025
C22	C	1.432173	0.781439	0.000033
N23	N	1.382760	0.488314	0.344109
N24	N	1.490157	0.409301	-0.344085
C25	C	1.449513	0.439212	0.416304
C26	C	1.423393	0.458410	0.583723
H27	H	1.046675	0.557460	0.000015
O28	O	1.322053	0.532906	0.666018
H29	H	1.362802	0.606517	0.735403
O30	O	0.847089	0.639249	0.000024
H31	H	0.888810	0.668078	0.098580
O32	O	0.813106	0.309867	0.000010
H33	H	0.712002	0.305061	0.000020
H34	H	1.038925	0.288665	0.000043
O35	O	1.550835	0.364699	0.334020
H36	H	1.555446	0.361308	0.215435
H37	H	1.306275	0.544568	0.406243
H38	H	1.566655	0.353053	0.593786
