data_functionalizedCrystal
_audit_creation_method	'MofGen! by Chris Wilmer'
_symmetry_space_group_name_H-M	'P1'
_symmetry_Int_Tables_number	1
_symmetry_cell_setting	triclinic
loop_
_symmetry_equiv_pos_as_xyz
  x,y,z
_cell_length_a	18.215407
_cell_length_b	13.031981
_cell_length_c	18.215399
_cell_angle_alpha	97.211519
_cell_angle_beta	90.016885
_cell_angle_gamma	97.189335
loop_
_atom_site_label
_atom_site_type_symbol
_atom_site_fract_x
_atom_site_fract_y
_atom_site_fract_z
Zn1	Zn	1.087908	-0.416187	0.378824
Zn2	Zn	1.072211	-0.590979	0.240115
Zn3	Zn	0.964839	-0.416213	0.255774
Zn4	Zn	0.949206	-0.590910	0.363152
O5	O	1.018541	-0.503572	0.309466
O6	O	1.188808	-0.439391	0.360429
O7	O	1.057941	-0.567836	0.139205
O8	O	0.994277	-0.269947	0.285208
O9	O	1.177276	-0.567810	0.258521
O10	O	1.084695	-0.269927	0.375613
O11	O	0.979056	-0.439436	0.150709
O12	O	0.859783	-0.439369	0.270012
O13	O	0.967632	-0.567693	0.468218
O14	O	0.848297	-0.567719	0.348902
O15	O	1.069536	-0.439324	0.479732
O16	O	1.042782	-0.737233	0.243324
O17	O	0.952410	-0.737182	0.333719
C18	C	0.827337	-0.503540	0.309456
C19	C	0.745538	-0.503552	0.309467
C20	C	0.563335	-0.436821	0.362593
C21	C	0.486476	-0.436830	0.362594
C22	C	0.474496	-0.570353	0.256350
C23	C	0.551354	-0.570338	0.256345
C24	C	0.595772	-0.503574	0.309471
C25	C	0.442054	-0.503597	0.309477
C26	C	0.358719	-0.503608	0.309478
C27	C	0.679112	-0.503562	0.309469
C28	C	0.994216	-0.775132	0.285138
C29	C	0.983877	-0.891306	0.274755
C30	C	1.023976	-0.943007	0.314900
C31	C	1.013291	-1.063080	0.304169
C32	C	1.210491	-0.503605	0.309476
C33	C	1.292288	-0.503619	0.309481
C34	C	1.018591	-0.503498	0.501426
C35	C	1.018612	-0.503467	0.583227
C36	C	1.042981	-0.230952	0.333905
C37	C	1.053395	-0.114778	0.344320
C38	C	1.018540	-0.503571	0.118260
C39	C	1.018688	-0.503308	0.036485
C40	C	1.071709	-0.436535	0.854290
C41	C	1.071697	-0.436563	0.777428
C42	C	0.965589	-0.570247	0.765427
C43	C	0.965604	-0.570223	0.842287
C44	C	1.018663	-0.503361	0.886717
C45	C	1.018637	-0.503413	0.732996
C46	C	1.018624	-0.503444	0.649659
C47	C	1.018677	-0.503331	0.970058
H48	H	0.599499	-0.382454	0.405849
C49	C	1.123426	-0.259544	0.893824
C50	C	1.130036	-0.363048	0.903125
H51	H	1.159440	-0.214179	0.923969
H52	H	1.075359	-0.244244	0.907791
H53	H	1.131007	-0.250011	0.843405
H54	H	1.122449	-0.372583	0.953544
H55	H	1.178114	-0.378354	0.889163
C56	C	0.927305	-1.058832	0.218058
C57	C	0.926852	-0.951544	0.217631
H58	H	0.892101	-1.096016	0.182788
H59	H	0.914932	-1.076628	0.265911
H60	H	0.975189	-1.076615	0.205752
H61	H	0.878969	-0.933759	0.229943
H62	H	0.939220	-0.933740	0.169768
C63	C	0.663857	-0.629598	0.209164
C64	C	0.587015	-0.643717	0.197950
H65	H	0.685871	-0.674891	0.173110
H66	H	0.675089	-0.644981	0.257208
H67	H	0.682723	-0.559345	0.204765
H68	H	0.568148	-0.713968	0.202355
H69	H	0.575777	-0.628341	0.149893
C70	C	1.094487	-0.295988	0.703614
C71	C	1.129999	-0.363088	0.741790
H72	H	1.130482	-0.250628	0.681612
H73	H	1.066010	-0.256015	0.737180
H74	H	1.062894	-0.335820	0.666149
H75	H	1.161589	-0.323257	0.779259
H76	H	1.158490	-0.403066	0.708221
H77	H	0.922389	-0.624682	0.729244
H78	H	0.460070	-0.382472	0.405850
C79	C	0.860709	-0.702364	0.822710
C80	C	0.907290	-0.643682	0.877936
H81	H	0.824709	-0.747709	0.844721
H82	H	0.889183	-0.742356	0.789152
H83	H	0.836634	-0.656823	0.796813
H84	H	0.931369	-0.689223	0.903830
H85	H	0.878812	-0.603687	0.911507
C86	C	1.151572	-0.909018	0.353885
C87	C	1.080999	-0.882777	0.372029
H88	H	1.186774	-0.871841	0.389161
H89	H	1.163944	-0.891201	0.306038
H90	H	1.151863	-0.981809	0.354166
H91	H	1.080707	-0.809986	0.371744
H92	H	1.068624	-0.900587	0.419890
C93	C	1.180996	-1.080792	0.383299
C94	C	1.110424	-1.054549	0.401448
H95	H	1.216201	-1.043612	0.418570
H96	H	1.193363	-1.062979	0.335449
H97	H	1.181287	-1.153583	0.383582
H98	H	1.110132	-0.981759	0.401159
H99	H	1.098054	-1.072354	0.449310
C100	C	0.375485	-0.710949	0.233382
C101	C	0.425669	-0.643747	0.197962
H102	H	0.345346	-0.756265	0.197334
H103	H	0.345169	-0.671195	0.265012
H104	H	0.401909	-0.750973	0.261810
H105	H	0.399245	-0.603717	0.169538
H106	H	0.455988	-0.683505	0.166318
H107	H	0.971045	-1.107705	0.261856
