data_functionalizedCrystal
_audit_creation_method	'MofGen! by Chris Wilmer'
_symmetry_space_group_name_H-M	'P1'
_symmetry_Int_Tables_number	1
_symmetry_cell_setting	triclinic
loop_
_symmetry_equiv_pos_as_xyz
  x,y,z
_cell_length_a	11.792241
_cell_length_b	15.995350
_cell_length_c	10.268362
_cell_angle_alpha	89.996947
_cell_angle_beta	89.999626
_cell_angle_gamma	83.842895
loop_
_atom_site_label
_atom_site_type_symbol
_atom_site_fract_x
_atom_site_fract_y
_atom_site_fract_z
O1	O	1.505952	0.114763	-0.108167
O2	O	2.005952	0.614763	0.391833
O3	O	1.175512	0.126591	-0.108197
O4	O	1.675512	0.626591	0.391803
O5	O	1.349764	-0.001170	-0.108180
O6	O	1.849764	0.498830	0.391820
O7	O	1.331699	0.242524	-0.108184
O8	O	1.831699	0.742524	0.391816
O9	O	1.349749	-0.001175	0.108421
O10	O	1.849749	0.498825	0.608421
O11	O	1.175497	0.126586	0.108404
O12	O	1.675497	0.626586	0.608404
O13	O	1.505936	0.114758	0.108434
O14	O	2.005936	0.614758	0.608434
Cu15	Cu	1.340715	0.120671	0.128196
Cu16	Cu	1.840715	0.620671	0.628196
Cu17	Cu	1.340733	0.120678	-0.127959
Cu18	Cu	1.840733	0.620678	0.372041
O19	O	1.331684	0.242518	0.108417
O20	O	1.831684	0.742518	0.608417
C21	C	1.133220	0.125845	0.000100
C22	C	1.633220	0.625845	0.500100
C23	C	1.007224	0.123621	0.000088
C24	C	1.507224	0.623621	0.500088
C25	C	0.776546	0.119532	0.000126
C26	C	1.276546	0.619532	0.500126
C27	C	0.904913	0.121804	0.000105
C28	C	1.404913	0.621804	0.500105
C29	C	1.349010	-0.032370	0.000118
C30	C	1.849010	0.467630	0.500118
C31	C	1.346771	-0.125331	0.000111
C32	C	1.846771	0.374669	0.500111
C33	C	1.338730	-0.463115	0.000114
C34	C	1.838730	0.036885	0.500114
C35	C	1.214630	-0.416244	-0.000383
C36	C	1.714630	0.083756	0.499617
C37	C	1.216870	-0.319544	0.000106
C38	C	1.716870	0.180456	0.500106
C39	C	1.342718	-0.295536	0.000112
C40	C	1.842718	0.204464	0.500112
C41	C	1.403920	-0.336339	0.123804
C42	C	1.903920	0.163661	0.623804
C43	C	1.400803	-0.432989	0.123908
C44	C	1.900803	0.067011	0.623908
C45	C	1.403383	-0.433329	-0.122408
C46	C	1.903383	0.066671	0.377592
C47	C	1.403354	-0.336384	-0.124042
C48	C	1.903354	0.163616	0.375958
C49	C	1.344979	-0.200829	0.000115
C50	C	1.844979	0.299171	0.500115
C51	C	1.336473	-0.557823	0.000120
C52	C	1.836473	-0.057823	0.500120
C53	C	1.548229	0.115504	0.000134
C54	C	2.048229	0.615504	0.500134
C55	C	1.674224	0.117727	0.000137
C56	C	2.174224	0.617727	0.500137
C57	C	1.332438	0.273719	0.000116
C58	C	1.832438	0.773719	0.500116
C59	C	1.334677	0.366680	0.000115
C60	C	1.834677	0.866680	0.500115
N61	N	1.340711	0.120666	0.308362
N62	N	1.840711	0.620666	0.808362
N63	N	1.340746	0.120676	-0.308125
N64	N	1.840746	0.620676	0.191875
C65	C	1.340727	0.120676	0.574033
C66	C	1.840727	0.620676	1.074033
C67	C	1.340715	0.120673	0.426195
C68	C	1.840715	0.620673	0.926195
H69	H	1.168761	-0.291338	-0.088562
H70	H	1.668761	0.208662	0.411438
C71	C	1.346472	-0.298268	0.248154
C72	C	1.846472	0.201732	0.748154
N73	N	1.303195	-0.269595	0.341811
N74	N	1.803195	0.230405	0.841811
H75	H	1.494881	-0.464675	-0.123234
H76	H	1.994881	0.035325	0.376766
H77	H	1.358608	-0.309336	-0.215547
H78	H	1.858608	0.190664	0.284453
C79	C	1.147921	-0.442994	0.118799
C80	C	1.647921	0.057006	0.618799
N81	N	1.097684	-0.463135	0.208578
N82	N	1.597684	0.036865	0.708578
H83	H	1.356161	-0.451495	0.216366
H84	H	1.856161	0.048505	0.716366
H85	H	1.495129	-0.320605	-0.131506
H86	H	1.995129	0.179395	0.368494
C87	C	1.147619	-0.441590	-0.120207
C88	C	1.647619	0.058410	0.379793
N89	N	1.097144	-0.460688	-0.210460
N90	N	1.597144	0.039312	0.289540
C91	C	1.151427	-0.282196	0.120089
C92	C	1.651427	0.217804	0.620089
N93	N	1.102134	-0.254067	0.210467
N94	N	1.602134	0.245933	0.710467
C95	C	1.523887	-0.475998	0.131515
C96	C	2.023887	0.024002	0.631515
N97	N	1.616593	-0.508389	0.137254
N98	N	2.116593	-0.008389	0.637254
C99	C	1.528819	-0.316673	0.130046
C100	C	2.028819	0.183327	0.630046
N101	N	1.622890	-0.301853	0.134750
N102	N	2.122890	0.198147	0.634750
H103	H	1.362816	-0.454051	-0.216159
H104	H	1.862816	0.045949	0.283841
