data_functionalizedCrystal
_audit_creation_method	'MofGen! by Chris Wilmer'
_symmetry_space_group_name_H-M	'P1'
_symmetry_Int_Tables_number	1
_symmetry_cell_setting	triclinic
loop_
_symmetry_equiv_pos_as_xyz
  x,y,z
_cell_length_a	13.897449
_cell_length_b	16.120444
_cell_length_c	13.897441
_cell_angle_alpha	92.867240
_cell_angle_beta	89.978743
_cell_angle_gamma	92.927498
loop_
_atom_site_label
_atom_site_type_symbol
_atom_site_fract_x
_atom_site_fract_y
_atom_site_fract_z
Zn1	Zn	1.455153	-0.331871	-0.564897
Zn2	Zn	1.955153	0.168129	-0.064897
Zn3	Zn	1.446848	-0.471301	-0.411769
Zn4	Zn	1.946848	0.028699	0.088231
Zn5	Zn	1.293846	-0.331908	-0.403610
Zn6	Zn	1.793846	0.168092	0.096390
Zn7	Zn	1.285622	-0.471248	-0.573011
Zn8	Zn	1.785622	0.028752	-0.073011
O9	O	1.370367	-0.401582	-0.488322
O10	O	1.870367	0.098418	0.011678
O11	O	1.589033	-0.350374	-0.544603
O12	O	2.089033	0.149626	-0.044603
O13	O	1.426518	-0.452848	-0.275707
O14	O	1.926518	0.047152	0.224293
O15	O	1.322161	-0.215237	-0.418195
O16	O	1.822161	0.284763	0.081805
O17	O	1.582931	-0.452813	-0.432101
O18	O	2.082931	0.047187	0.067899
O19	O	1.440673	-0.215210	-0.536692
O20	O	1.940673	0.284790	-0.036692
O21	O	1.314108	-0.350436	-0.269713
O22	O	1.814108	0.149564	0.230287
O23	O	1.157774	-0.350384	-0.426063
O24	O	1.657774	0.149616	0.073937
O25	O	1.308145	-0.452722	-0.706914
O26	O	1.808145	0.047278	-0.206914
O27	O	1.151732	-0.452757	-0.550521
O28	O	1.651732	0.047243	-0.050521
O29	O	1.432698	-0.350322	-0.700953
O30	O	1.932698	0.149678	-0.200953
O31	O	1.418544	-0.587960	-0.439968
O32	O	1.918544	-0.087960	0.060032
O33	O	1.300092	-0.587921	-0.558432
O34	O	1.800092	-0.087921	-0.058432
C35	C	1.119754	-0.401569	-0.488288
C36	C	1.619754	0.098431	0.011712
C37	C	1.012539	-0.401584	-0.488297
C38	C	1.512539	0.098416	0.011703
C39	C	0.925469	-0.401586	-0.488313
C40	C	1.425469	0.098414	0.011687
C41	C	0.816236	-0.401592	-0.488343
C42	C	1.316236	0.098408	0.011657
C43	C	1.357550	-0.618191	-0.500987
C44	C	1.857550	-0.118191	-0.000987
C45	C	1.352156	-0.710857	-0.506438
C46	C	1.852156	-0.210857	-0.006438
C47	C	1.398590	-0.921799	-0.460255
C48	C	1.898590	-0.421799	0.039745
C49	C	1.342324	-0.880514	-0.516399
C50	C	1.842324	-0.380514	-0.016399
C51	C	1.347796	-0.786108	-0.510855
C52	C	1.847796	-0.286108	-0.010855
C53	C	1.393119	-1.016213	-0.465798
C54	C	1.893119	-0.516213	0.034202
C55	C	1.621959	-0.401595	-0.488357
C56	C	2.121959	0.098405	0.011643
C57	C	1.729173	-0.401601	-0.488372
C58	C	2.229173	0.098399	0.011628
C59	C	1.370431	-0.401512	-0.739911
C60	C	1.870431	0.098488	-0.239911
C61	C	1.370457	-0.401482	-0.847123
C62	C	1.870457	0.098518	-0.347123
C63	C	1.383261	-0.184127	-0.475628
C64	C	1.883261	0.315873	0.024372
C65	C	1.388755	-0.091461	-0.470219
C66	C	1.888755	0.408539	0.029781
C67	C	1.370479	-0.401459	-0.934192
C68	C	1.870479	0.098541	-0.434192
C69	C	1.370508	-0.401421	-1.043422
C70	C	1.870508	0.098579	-0.543422
C71	C	1.370363	-0.401592	-0.237708
C72	C	1.870363	0.098408	0.262292
C73	C	1.370537	-0.401386	-0.130483
C74	C	1.870537	0.098614	0.369517
H75	H	1.290043	-0.916069	-0.568630
H76	H	1.790043	-0.416069	-0.068630
H77	H	1.450866	-0.886247	-0.408027
H78	H	1.950866	-0.386247	0.091973
