data_functionalizedCrystal
_audit_creation_method	'MofGen! by Chris Wilmer'
_symmetry_space_group_name_H-M	'P1'
_symmetry_Int_Tables_number	1
_symmetry_cell_setting	triclinic
loop_
_symmetry_equiv_pos_as_xyz
  x,y,z
_cell_length_a	19.077068
_cell_length_b	19.077142
_cell_length_c	19.076919
_cell_angle_alpha	90.074357
_cell_angle_beta	85.529249
_cell_angle_gamma	89.885450
loop_
_atom_site_label
_atom_site_type_symbol
_atom_site_fract_x
_atom_site_fract_y
_atom_site_fract_z
Zn1	Zn	-0.340467	-1.044046	0.453535
Zn2	Zn	0.159533	-0.544046	0.953535
Zn3	Zn	-0.453617	-1.043960	0.340376
Zn4	Zn	0.046383	-0.543960	0.840376
Zn5	Zn	-0.331038	-0.931658	0.330962
Zn6	Zn	0.168962	-0.431658	0.830962
Zn7	Zn	-0.453191	-0.921799	0.453108
Zn8	Zn	0.046809	-0.421799	0.953108
O9	O	-0.394578	-0.985366	0.394495
O10	O	0.105422	-0.485366	0.894495
O11	O	-0.359601	-1.142194	0.442642
O12	O	0.140399	-0.642194	0.942642
O13	O	-0.433589	-1.033152	0.240651
O14	O	0.066411	-0.533152	0.740651
O15	O	-0.233814	-0.950729	0.343461
O16	O	0.266186	-0.450729	0.843461
O17	O	-0.442732	-1.142130	0.359505
O18	O	0.057268	-0.642130	0.859505
O19	O	-0.240742	-1.033300	0.433514
O20	O	0.259258	-0.533300	0.933514
O21	O	-0.343531	-0.950645	0.233735
O22	O	0.156469	-0.450645	0.733735
O23	O	-0.343117	-0.832191	0.343047
O24	O	0.156883	-0.332191	0.843047
O25	O	-0.442005	-0.933926	0.551640
O26	O	0.057995	-0.433926	1.051640
O27	O	-0.432862	-0.824948	0.432787
O28	O	0.067138	-0.324948	0.932787
O29	O	-0.359188	-1.023740	0.551954
O30	O	0.140812	-0.523740	1.051954
O31	O	-0.552035	-1.023592	0.359091
O32	O	-0.052035	-0.523592	0.859091
O33	O	-0.551722	-0.933842	0.441915
O34	O	-0.051722	-0.433842	0.941915
C35	C	-0.386921	-0.803118	0.386849
C36	C	0.113079	-0.303118	0.886849
C37	C	-0.383663	-0.725150	0.383596
C38	C	0.116337	-0.225150	0.883596
C39	C	-0.428922	-0.684768	0.428722
C40	C	0.071078	-0.184768	0.928722
C41	C	-0.425852	-0.611509	0.425668
C42	C	0.074148	-0.111509	0.925668
C43	C	-0.377525	-0.578633	0.377484
C44	C	0.122475	-0.078633	0.877484
C45	C	-0.332260	-0.619021	0.332356
C46	C	0.167740	-0.119021	0.832356
C47	C	-0.335328	-0.692278	0.335414
C48	C	0.164672	-0.192278	0.835414
C49	C	-0.363329	-0.359939	0.363338
C50	C	0.136671	0.140061	0.863338
C51	C	-0.360266	-0.286676	0.360282
C52	C	0.139734	0.213324	0.860282
C53	C	-0.453858	-0.279169	0.453596
C54	C	0.046142	0.220831	0.953596
C55	C	-0.456924	-0.352428	0.456647
C56	C	0.043076	0.147572	0.956647
C57	C	-0.411657	-0.392810	0.411521
C58	C	0.088343	0.107190	0.911521
N59	N	-0.374386	-0.503751	0.374359
N60	N	0.125614	-0.003751	0.874359
N61	N	-0.414792	-0.467691	0.414650
N62	N	0.085208	0.032309	0.914650
C63	C	-0.577413	-0.977656	0.401494
C64	C	-0.077413	-0.477656	0.901494
C65	C	-0.655634	-0.974421	0.404515
C66	C	-0.155634	-0.474421	0.904515
C67	C	-0.692526	-1.019663	0.362850
C68	C	-0.192526	-0.519663	0.862850
C69	C	-0.766023	-1.016624	0.365696
C70	C	-0.266023	-0.516624	0.865696
C71	C	-0.802628	-0.968340	0.410202
C72	C	-0.302628	-0.468340	0.910202
C73	C	-0.765732	-0.923096	0.451871
C74	C	-0.265732	-0.423096	0.951871
C75	C	-0.692236	-0.926139	0.449029
C76	C	-0.192236	-0.426139	0.949029
C77	C	-1.022422	-0.954229	0.423325
C78	C	-0.522422	-0.454229	0.923325
C79	C	-1.095922	-0.951188	0.426162
C80	C	-0.595922	-0.451188	0.926162
C81	C	-1.096209	-1.044718	0.339988
C82	C	-0.596209	-0.544718	0.839988
C83	C	-1.022711	-1.047753	0.337147
C84	C	-0.522711	-0.547753	0.837147
C85	C	-0.985822	-1.002512	0.378818
C86	C	-0.485822	-0.502512	0.878818
N87	N	-0.877754	-0.965231	0.413109
N88	N	-0.377754	-0.465231	0.913109
N89	N	-0.910697	-1.005625	0.375914
N90	N	-0.410697	-0.505625	0.875914
C91	C	-0.211031	-0.993124	0.387485
C92	C	0.288969	-0.493124	0.887485
C93	C	-0.132814	-0.996430	0.384498
C94	C	0.367186	-0.496430	0.884498
C95	C	-0.401601	-0.977743	0.578045
C96	C	0.098399	-0.477743	1.078045
C97	C	-0.404593	-0.974495	0.656263
C98	C	0.095407	-0.474495	1.156263
C99	C	-0.402262	-0.168326	0.402163
C100	C	0.097738	0.331674	0.902163
C101	C	-0.405526	-0.246294	0.405409
C102	C	0.094474	0.253706	0.905409
C103	C	-0.387534	-0.993001	0.211659
C104	C	0.112466	-0.493001	0.711659
C105	C	-0.384349	-0.996394	0.133440
C106	C	0.115651	-0.496394	0.633440
C107	C	-0.362883	-1.019728	0.693174
C108	C	0.137117	-0.519728	1.193174
C109	C	-0.365691	-1.016667	0.766668
C110	C	0.134309	-0.516667	1.266668
C111	C	-0.410215	-0.968376	0.803249
C112	C	0.089785	-0.468376	1.303249
C113	C	-0.451927	-0.923138	0.766332
C114	C	0.048073	-0.423138	1.266332
C115	C	-0.449114	-0.926196	0.692840
C116	C	0.050886	-0.426196	1.192840
C117	C	-0.423248	-0.954214	1.023031
C118	C	0.076752	-0.454214	1.523031
C119	C	-0.426060	-0.951161	1.096528
C120	C	0.073940	-0.451161	1.596528
C121	C	-0.339822	-1.044689	1.096859
C122	C	0.160178	-0.544689	1.596859
C123	C	-0.337016	-1.047745	1.023365
C124	C	0.162984	-0.547745	1.523365
C125	C	-0.378726	-1.002505	0.986454
C126	C	0.121274	-0.502505	1.486454
N127	N	-0.413089	-0.965248	0.878372
N128	N	0.086911	-0.465248	1.378372
N129	N	-0.375848	-1.005630	0.911333
N130	N	0.124152	-0.505630	1.411333
H131	H	-0.662727	-1.058978	0.326606
H132	H	-0.162727	-0.558978	0.826606
N133	N	-0.472085	-0.570270	0.471772
N134	N	0.027915	-0.070270	0.971772
N135	N	-0.515232	-0.599631	0.514789
N136	N	-0.015232	-0.099631	1.014789
H137	H	-0.547885	-0.570507	0.547355
H138	H	-0.047885	-0.070507	1.047355
H139	H	-0.457222	-0.917386	0.992988
H140	H	0.042778	-0.417386	1.492988
H141	H	-0.662200	-0.889299	0.482957
H142	H	-0.162200	-0.389299	0.982957
N143	N	-0.491712	-0.879993	0.655122
N144	N	0.008288	-0.379993	1.155122
N145	N	-0.463500	-0.838050	0.611289
N146	N	0.036500	-0.338050	1.111289
H147	H	-0.493583	-0.805416	0.584649
H148	H	0.006417	-0.305416	1.084649
N149	N	-0.317392	-1.069055	0.655821
N150	N	0.182608	-0.569055	1.155821
N151	N	-0.252577	-1.066802	0.661359
N152	N	0.247423	-0.566802	1.161359
H153	H	-0.220446	-1.101640	0.634980
H154	H	0.279554	-0.601640	1.134980
N155	N	-1.133882	-1.090929	0.297417
N156	N	-0.633882	-0.590929	0.797417
N157	N	-1.123024	-1.089361	0.231969
N158	N	-0.623024	-0.589361	0.731969
H159	H	-1.149631	-1.122000	0.201901
H160	H	-0.649631	-0.622000	0.701901
H161	H	-0.331728	-1.053502	0.796718
H162	H	0.168272	-0.553502	1.296718
N163	N	-0.317091	-0.401171	0.317236
N164	N	0.182909	0.098829	0.817236
N165	N	-0.273950	-0.371806	0.274215
N166	N	0.226050	0.128194	0.774215
H167	H	-0.241293	-0.400928	0.241651
H168	H	0.258707	0.099072	0.741651
H169	H	-0.488177	-0.883816	0.796123
H170	H	0.011823	-0.383816	1.296123
N171	N	-0.500099	-0.237931	0.499692
N172	N	-0.000099	0.262069	0.999692
N173	N	-0.565187	-0.243578	0.497747
N174	N	-0.065187	0.256422	0.997747
H175	H	-0.597847	-0.214455	0.530306
H176	H	-0.097847	0.285545	1.030306
N177	N	-0.478299	-0.718334	0.477940
N178	N	0.021701	-0.218334	0.977940
N179	N	-0.518705	-0.682267	0.518227
N180	N	-0.018705	-0.182267	1.018227
H181	H	-0.553578	-0.705971	0.552989
H182	H	-0.053578	-0.205971	1.052989
H183	H	-0.796056	-1.053465	0.331768
H184	H	-0.296056	-0.553465	0.831768
H185	H	-0.992909	-1.087070	0.300906
H186	H	-0.492909	-0.587070	0.800906
H187	H	-0.496279	-0.379190	0.495882
H188	H	0.003721	0.120810	0.995882
H189	H	-0.320904	-0.259912	0.321049
H190	H	0.179096	0.240088	0.821049
N191	N	-0.291528	-1.097059	0.985989
N192	N	0.208472	-0.597059	1.485989
N193	N	-0.289019	-1.099778	0.920371
N194	N	0.210981	-0.599778	1.420371
H195	H	-0.256892	-1.134606	0.893972
H196	H	0.243108	-0.634606	1.393972
N197	N	-0.282893	-0.585431	0.283146
N198	N	0.217107	-0.085431	0.783146
N199	N	-0.280160	-0.520023	0.280420
N200	N	0.219840	-0.020023	0.780420
H201	H	-0.245295	-0.496299	0.245664
H202	H	0.254705	0.003701	0.745664
H203	H	-1.125725	-0.911877	0.462417
H204	H	-0.625725	-0.411877	0.962417
N205	N	-0.289084	-0.733520	0.289320
N206	N	0.210916	-0.233520	0.789320
N207	N	-0.245935	-0.704161	0.246304
N208	N	0.254065	-0.204161	0.746304
H209	H	-0.213270	-0.733286	0.213751
H210	H	0.286730	-0.233286	0.713751
N211	N	-0.984757	-0.908013	0.465894
N212	N	-0.484757	-0.408013	0.965894
N213	N	-1.017451	-0.864904	0.505626
N214	N	-0.517451	-0.364904	1.005626
H215	H	-0.990848	-0.832261	0.535692
H216	H	-0.490848	-0.332261	1.035692
H217	H	-0.795541	-0.883785	0.488112
H218	H	-0.295541	-0.383785	0.988112
N219	N	-0.297225	-1.090894	1.134573
N220	N	0.202775	-0.590894	1.634573
N221	N	-0.299741	-1.088161	1.200191
N222	N	0.200259	-0.588161	1.700191
H223	H	-0.269654	-1.120794	1.226828
H224	H	0.230346	-0.620794	1.726828
N225	N	-0.471522	-0.901804	1.133884
N226	N	0.028478	-0.401804	1.633884
N227	N	-0.508743	-0.861400	1.100920
N228	N	-0.008743	-0.361400	1.600920
H229	H	-0.540841	-0.826536	1.127301
H230	H	-0.040841	-0.326536	1.627301
