data_functionalizedCrystal
_audit_creation_method	'MofGen! by Chris Wilmer'
_symmetry_space_group_name_H-M	'P1'
_symmetry_Int_Tables_number	1
_symmetry_cell_setting	triclinic
loop_
_symmetry_equiv_pos_as_xyz
  x,y,z
_cell_length_a	11.026607
_cell_length_b	10.540539
_cell_length_c	9.482900
_cell_angle_alpha	99.430988
_cell_angle_beta	78.636152
_cell_angle_gamma	96.555754
loop_
_atom_site_label
_atom_site_type_symbol
_atom_site_fract_x
_atom_site_fract_y
_atom_site_fract_z
O1	O	1.633556	0.517017	-0.120883
O2	O	1.279725	0.456370	-0.120886
O3	O	1.464712	0.303756	-0.120883
O4	O	1.448568	0.669632	-0.120886
O5	O	1.427139	0.334914	0.120909
O6	O	1.242151	0.487529	0.120905
O7	O	1.595982	0.548176	0.120909
Cu8	Cu	1.415636	0.520697	0.142985
Cu9	Cu	1.460071	0.483849	-0.142962
O10	O	1.410994	0.700790	0.120905
C11	C	1.215630	0.460761	0.000009
C12	C	1.080627	0.427408	0.000008
C13	C	1.007620	0.519500	0.000006
C14	C	0.868087	0.485031	0.000004
C15	C	1.444715	0.271766	0.000011
C16	C	1.441094	0.130024	0.000003
C17	C	1.302374	-0.083877	-0.000541
C18	C	1.305961	0.063616	0.000003
C19	C	1.484669	0.100404	0.138078
C20	C	1.480039	-0.047136	0.138195
C21	C	1.525516	-0.082485	-0.136768
C22	C	1.527044	0.064534	-0.138593
C23	C	1.660077	0.543785	0.000010
C24	C	1.795082	0.577136	0.000002
C25	C	1.430992	0.732779	0.000009
C26	C	1.434615	0.874520	0.000007
N27	N	1.384391	0.546616	0.344104
N28	N	1.491325	0.457922	-0.344082
C29	C	1.450847	0.491485	0.416305
C30	C	1.424860	0.513061	0.583722
H31	H	0.835869	0.681507	0.000011
C32	C	1.308166	0.756753	0.391266
C33	C	1.281605	0.631898	0.427957
H34	H	1.244702	0.809398	0.443025
H35	H	1.385639	0.792108	0.416133
H36	H	1.312147	0.753425	0.289756
H37	H	1.277633	0.635225	0.529465
H38	H	1.204111	0.596534	0.403100
C39	C	1.190248	0.667267	0.000010
C40	C	1.062679	0.660391	0.000008
H41	H	1.224235	0.754249	0.000004
H42	H	1.203410	0.636984	0.084323
H43	H	1.229617	0.615245	-0.084314
H44	H	1.023309	0.712406	0.084337
H45	H	1.049508	0.690691	-0.084315
C46	C	0.898000	0.279640	-0.000004
C47	C	1.025569	0.286517	0.000001
H48	H	0.864016	0.192655	-0.000018
H49	H	0.858631	0.331648	0.084311
H50	H	0.884841	0.309936	-0.084326
H51	H	1.038728	0.256230	0.084329
H52	H	1.064950	0.234490	-0.084322
C53	C	1.225177	-0.029162	-0.214858
C54	C	1.257630	0.088790	-0.133599
H55	H	1.195325	-0.013622	-0.297332
H56	H	1.296034	-0.077008	-0.245928
H57	H	1.162145	-0.076838	-0.156424
H58	H	1.320669	0.136463	-0.192031
H59	H	1.186764	0.136656	-0.102531
H60	H	1.264380	-0.136929	-0.099558
H61	H	1.233910	-0.113041	0.097919
C62	C	1.599574	0.367274	0.422451
C63	C	1.593843	0.372295	0.572069
H64	H	1.662788	0.314318	0.370690
H65	H	1.521960	0.332194	0.397784
H66	H	1.617883	0.451909	0.397408
H67	H	1.575525	0.287661	0.597114
H68	H	1.671475	0.407370	0.596746
H69	H	1.239026	0.106861	0.099145
C70	C	1.691541	0.029872	0.151640
C71	C	1.609911	-0.082072	0.146679
H72	H	1.771712	0.008306	0.156893
H73	H	1.696005	0.068029	0.066507
H74	H	1.662272	0.089192	0.234903
H75	H	1.639175	-0.141389	0.063410
H76	H	1.605451	-0.120249	0.231821
C77	C	1.346295	0.030790	0.360095
C78	C	1.393493	-0.081474	0.277516
H79	H	1.292857	0.009591	0.446101
H80	H	1.412946	0.089972	0.385317
H81	H	1.301054	0.068929	0.304875
H82	H	1.438742	-0.119608	0.332732
H83	H	1.326832	-0.140677	0.252296
H84	H	1.583109	0.145156	0.143213
C85	C	1.571005	-0.115846	-0.397734
C86	C	1.488435	-0.156212	-0.278051
H87	H	1.548105	-0.161370	-0.484948
H88	H	1.568056	-0.025880	-0.395955
H89	H	1.652851	-0.132932	-0.393477
H90	H	1.406590	-0.139117	-0.282303
H91	H	1.491372	-0.246198	-0.279832
C92	C	1.581011	0.155031	-0.361430
C93	C	1.484337	0.087983	-0.276495
H94	H	1.554643	0.169508	-0.446565
H95	H	1.603017	0.235517	-0.307212
H96	H	1.650928	0.105527	-0.388134
H97	H	1.414422	0.137492	-0.249782
H98	H	1.462314	0.007484	-0.330723
H99	H	1.423527	0.146349	0.240829
H100	H	1.626862	0.109261	-0.146930
H101	H	0.827302	0.380657	-0.000032
H102	H	1.623266	-0.108451	-0.137695
H103	H	1.526977	0.428305	0.354178
C104	C	1.207863	0.546196	0.630922
C105	C	1.322070	0.598345	0.667577
H106	H	1.144406	0.598842	0.682700
H107	H	1.211849	0.542897	0.529429
H108	H	1.189871	0.461488	0.655802
H109	H	1.340065	0.683051	0.642687
H110	H	1.318085	0.601659	0.769093
