data_functionalizedCrystal
_audit_creation_method	'MofGen! by Chris Wilmer'
_symmetry_space_group_name_H-M	'P1'
_symmetry_Int_Tables_number	1
_symmetry_cell_setting	triclinic
loop_
_symmetry_equiv_pos_as_xyz
  x,y,z
_cell_length_a	12.645331
_cell_length_b	12.645330
_cell_length_c	12.759393
_cell_angle_alpha	90.029149
_cell_angle_beta	89.985060
_cell_angle_gamma	89.974579
loop_
_atom_site_label
_atom_site_type_symbol
_atom_site_fract_x
_atom_site_fract_y
_atom_site_fract_z
Zn1	Zn	1.620660	0.421999	-0.593899
Zn2	Zn	1.620518	0.599303	-0.418227
Zn3	Zn	1.443377	0.422051	-0.418250
Zn4	Zn	1.443330	0.599218	-0.593879
O5	O	1.531972	0.510643	-0.506064
O6	O	1.768989	0.445532	-0.570595
O7	O	1.596980	0.575847	-0.271209
O8	O	1.466973	0.273697	-0.441568
O9	O	1.768884	0.575796	-0.441529
O10	O	1.597222	0.273658	-0.570617
O11	O	1.466836	0.445621	-0.271225
O12	O	1.295024	0.445539	-0.441548
O13	O	1.466893	0.575652	-0.740903
O14	O	1.294989	0.575703	-0.570583
O15	O	1.597177	0.445450	-0.740918
O16	O	1.596935	0.747639	-0.441510
O17	O	1.466756	0.747577	-0.570561
C18	C	1.256542	0.510619	-0.506066
C19	C	1.138712	0.510634	-0.506092
C20	C	0.971161	0.592969	-0.586845
C21	C	1.093721	0.592703	-0.587182
C22	C	1.094250	0.398976	-0.536339
C23	C	0.971652	0.399479	-0.536908
C24	C	0.971464	0.539057	-0.394837
C25	C	1.094069	0.541499	-0.395437
C26	C	1.531853	0.786072	-0.506053
C27	C	1.531900	0.903902	-0.506084
C28	C	1.450317	1.071471	-0.587523
C29	C	1.449918	0.948912	-0.587259
C30	C	1.501649	0.948506	-0.395365
C31	C	1.501133	1.071105	-0.395861
C32	C	1.644176	1.070991	-0.534472
C33	C	1.643506	0.948384	-0.536891
C34	C	1.808477	0.510667	-0.506062
C35	C	1.926307	0.510678	-0.506061
C36	C	1.532046	0.510536	-0.780097
C37	C	1.532077	0.510490	-0.896874
C38	C	1.532082	1.234137	-0.506101
C39	C	1.532034	1.116307	-0.506127
C40	C	1.599925	0.442687	-0.951745
C41	C	1.599951	0.442649	-1.061469
C42	C	1.464277	0.578225	-1.061441
C43	C	1.464247	0.578258	-0.951719
C44	C	1.667756	0.374920	-0.896900
C45	C	1.735610	0.307112	-0.951772
C46	C	1.735635	0.307074	-1.061496
C47	C	1.667806	0.374843	-1.116349
C48	C	1.531959	0.510673	-0.233096
C49	C	1.532132	0.510420	-0.116320
H50	H	0.940530	0.619090	-0.367345
O51	O	1.808770	0.234023	-0.892619
H52	H	1.797365	0.245447	-0.807103
H53	H	0.943079	0.375409	-0.618217
H54	H	1.667745	0.374946	-0.807557
O55	O	1.728415	0.907841	-0.464052
H56	H	1.692234	0.855120	-0.404489
O57	O	1.808798	0.233929	-1.120687
H58	H	1.862711	0.281361	-1.170682
H59	H	1.366790	0.919678	-0.568480
H60	H	0.940372	0.574430	-0.668778
O61	O	1.667827	0.374805	-1.234695
H62	H	1.726405	0.316274	-1.263639
O63	O	1.132597	0.650334	-0.365242
H64	H	1.063712	0.703402	-0.353202
O65	O	1.391124	0.651320	-1.120596
H66	H	1.402550	0.639912	-1.206111
H67	H	1.705057	1.099985	-0.475188
O68	O	1.133554	0.702380	-0.562084
H69	H	1.065249	0.756089	-0.549599
O70	O	0.932076	0.703016	-0.562033
H71	H	0.880256	0.700239	-0.491863
H72	H	1.408983	0.633452	-0.907041
O73	O	1.132616	0.567803	-0.696338
H74	H	1.063857	0.555895	-0.749088
H75	H	1.420537	0.917896	-0.370916
H76	H	1.124695	0.485911	-0.332018
O77	O	0.932335	0.315499	-0.462388
H78	H	1.000890	0.274703	-0.426110
H79	H	1.123393	0.335997	-0.479338
O80	O	1.474906	0.908946	-0.696021
H81	H	1.487389	0.977185	-0.749281
O82	O	1.134977	0.366481	-0.642857
H83	H	1.186865	0.429672	-0.674427
O84	O	0.933045	0.459668	-0.315098
H85	H	0.845327	0.461123	-0.312272
O86	O	1.474753	1.110929	-0.696537
H87	H	1.545450	1.162852	-0.693888
O88	O	1.340872	1.112380	-0.562968
H89	H	1.344424	1.164506	-0.493043
H90	H	1.558070	1.100768	-0.333148
O91	O	1.392549	1.109125	-0.364063
H92	H	1.340899	1.039946	-0.348481
H93	H	1.559290	0.919354	-0.333061
H94	H	1.671760	1.101828	-0.613836
H95	H	1.666318	0.919226	-0.618374
