data_functionalizedCrystal
_audit_creation_method	'MofGen! by Chris Wilmer'
_symmetry_space_group_name_H-M	'P1'
_symmetry_Int_Tables_number	1
_symmetry_cell_setting	triclinic
loop_
_symmetry_equiv_pos_as_xyz
  x,y,z
_cell_length_a	27.731993
_cell_length_b	27.731996
_cell_length_c	11.295483
_cell_angle_alpha	94.054077
_cell_angle_beta	85.941258
_cell_angle_gamma	82.620891
loop_
_atom_site_label
_atom_site_type_symbol
_atom_site_fract_x
_atom_site_fract_y
_atom_site_fract_z
O1	O	0.644205	0.054123	-0.098717
O2	O	0.503408	0.062894	-0.098792
O3	O	0.578191	-0.011890	-0.098727
O4	O	0.569421	0.128907	-0.098783
O5	O	0.571623	-0.005332	0.099318
O6	O	0.496840	0.069452	0.099253
O7	O	0.637636	0.060681	0.099328
Cu8	Cu	0.566638	0.065665	0.117373
Cu9	Cu	0.574406	0.057909	-0.116838
O10	O	0.562853	0.135465	0.099262
C11	C	0.482117	0.065992	0.000221
C12	C	0.428462	0.065449	0.000194
C13	C	0.048881	0.057945	-0.107701
C14	C	0.250539	0.060011	-0.107734
O15	O	0.279657	0.057219	-0.199548
N16	N	0.272179	0.063845	0.000217
C17	C	0.243401	0.067159	0.108185
O18	O	0.266435	0.070462	0.200004
C19	C	0.041745	0.065089	0.108217
C20	C	0.020107	0.061261	0.000258
C21	C	0.027243	0.054116	-0.215651
C22	C	-0.023169	0.053603	-0.215642
C23	C	-0.051943	0.056918	-0.107683
C24	C	-0.030305	0.060747	0.000268
C25	C	0.012968	0.068400	0.216184
C26	C	-0.037448	0.067881	0.216182
C27	C	-0.059086	0.064052	0.108223
C28	C	-0.109491	0.063548	0.108236
N29	N	-0.131131	0.059715	0.000285
C30	C	-0.102357	0.056400	-0.107675
C31	C	0.349274	0.068246	0.108161
C32	C	0.399688	0.068764	0.108153
C33	C	0.406822	0.061616	-0.107767
C34	C	0.356407	0.061101	-0.107758
C35	C	0.327634	0.064413	0.000209
C36	C	-0.208226	0.055321	-0.107647
C37	C	-0.258643	0.054810	-0.107628
C38	C	-0.265772	0.061956	0.108291
C39	C	-0.215360	0.062470	0.108273
C40	C	-0.186588	0.059151	0.000294
O41	O	-0.138638	0.066334	0.200002
O42	O	-0.125399	0.053086	-0.199480
C43	C	0.099293	0.058459	-0.107711
C44	C	0.120931	0.062288	0.000239
C45	C	0.092157	0.065604	0.108199
C46	C	0.171344	0.062806	0.000232
C47	C	0.200118	0.059491	-0.107728
C48	C	0.178478	0.055658	-0.215679
C49	C	0.128066	0.055144	-0.215670
C50	C	0.113797	0.069437	0.216151
C51	C	0.164209	0.069951	0.216133
C52	C	0.192983	0.066636	0.108173
C53	C	0.574727	-0.026618	0.000300
C54	C	0.574184	-0.080274	0.000312
C55	C	0.574351	-0.416567	-0.107703
C56	C	0.572291	-0.618225	-0.107725
O57	O	0.575049	-0.647336	-0.199537
N58	N	0.568455	-0.639867	0.000229
C59	C	0.565130	-0.611091	0.108195
O60	O	0.561815	-0.634126	0.200015
C61	C	0.567187	-0.409433	0.108216
C62	C	0.571028	-0.387794	0.000255
C63	C	0.578192	-0.394928	-0.215654
C64	C	0.578710	-0.344516	-0.215647
C65	C	0.575387	-0.315744	-0.107689
C66	C	0.571546	-0.337383	0.000262
C67	C	0.563859	-0.380657	0.216181
C68	C	0.564372	-0.330240	0.216176
C69	C	0.568214	-0.308601	0.108216
C70	C	0.568741	-0.258200	0.108227
N71	N	0.572577	-0.236557	0.000273
C72	C	0.575900	-0.265330	-0.107685
C73	C	0.564051	-0.716965	0.108176
C74	C	0.563538	-0.767379	0.108171
C75	C	0.570698	-0.774510	-0.107749
C76	C	0.571215	-0.724095	-0.107742
C77	C	0.567888	-0.695323	0.000223
C78	C	0.576987	-0.159462	-0.107663
C79	C	0.577507	-0.109046	-0.107646
C80	C	0.570344	-0.101920	0.108273
C81	C	0.569827	-0.152332	0.108257
C82	C	0.573148	-0.181102	0.000280
O83	O	0.565980	-0.229058	0.199990
O84	O	0.579204	-0.242285	-0.199491
C85	C	0.573834	-0.466978	-0.107709
C86	C	0.569993	-0.488617	0.000242
C87	C	0.566670	-0.459845	0.108200
C88	C	0.569480	-0.539031	0.000237
C89	C	0.572803	-0.567804	-0.107721
C90	C	0.576639	-0.546162	-0.215674
C91	C	0.577157	-0.495750	-0.215667
C92	C	0.562834	-0.481487	0.216153
C93	C	0.562317	-0.531899	0.216138
C94	C	0.565640	-0.560671	0.108180
C95	C	0.658928	0.057582	0.000312
C96	C	0.712583	0.058125	0.000331
C97	C	0.566318	0.150193	0.000233
C98	C	0.566861	0.203848	0.000213
N99	N	0.561178	0.071120	0.282105
N100	N	0.579870	0.052451	-0.281569
C101	C	0.619174	0.013156	0.531445
C102	C	0.615051	0.017282	0.656105
C103	C	0.548808	0.083495	0.656087
C104	C	0.552931	0.079369	0.531427
C105	C	0.588115	0.044199	0.469111
C106	C	0.592240	0.040076	0.344448
C107	C	0.525995	0.106286	0.344433
C108	C	0.521873	0.110412	0.469093
H109	H	0.110454	0.052026	-0.303581
H110	H	0.500707	0.131565	0.293666
F111	F	-0.192332	0.066551	0.223174
H112	H	0.560731	-0.398267	0.304094
H113	H	-0.289209	0.064657	0.196189
H114	H	0.561655	-0.306815	0.304097
H115	H	0.560128	-0.458065	0.304068
H116	H	0.640341	-0.007997	0.706855
F117	F	0.437454	0.058089	-0.222666
H118	H	0.647825	-0.015477	0.480706
H119	H	0.325851	0.070941	0.196086
H120	H	0.620890	0.011440	0.293711
H121	H	0.201915	0.052961	-0.303584
H122	H	0.580636	-0.091431	-0.195564
H123	H	-0.184805	0.052619	-0.195574
H124	H	0.581836	-0.326903	-0.303560
F125	F	0.083179	0.072969	0.331062
F126	F	0.511361	0.120918	0.722423
H127	H	0.493225	0.139045	0.519845
H128	H	-0.276258	0.051693	-0.195545
H129	H	0.573404	-0.797945	-0.195652
H130	H	-0.040782	0.050482	-0.303553
F131	F	0.560507	-0.686349	0.223096
H132	H	0.050666	0.051415	-0.303570
H133	H	0.580896	-0.418349	-0.303571
F134	F	0.035986	0.072475	0.331090
H135	H	0.417300	0.071890	0.196064
F136	F	-0.068067	0.071403	0.331099
F137	F	0.333383	0.057025	-0.222661
H138	H	0.566704	-0.169951	0.196167
F139	F	0.187231	0.074030	0.331046
F140	F	0.580521	-0.190074	-0.222584
F141	F	0.575303	-0.701070	-0.222647
H142	H	0.567641	-0.078485	0.196170
F143	F	0.559458	-0.790404	0.223077
H144	H	0.580284	-0.478137	-0.303580
F145	F	0.580178	-0.576792	-0.330571
F146	F	0.558231	-0.554922	0.331053
