data_functionalizedCrystal
_audit_creation_method	'MofGen! by Chris Wilmer'
_symmetry_space_group_name_H-M	'P1'
_symmetry_Int_Tables_number	1
_symmetry_cell_setting	triclinic
loop_
_symmetry_equiv_pos_as_xyz
  x,y,z
_cell_length_a	19.188925
_cell_length_b	19.188930
_cell_length_c	13.330367
_cell_angle_alpha	89.990231
_cell_angle_beta	89.991499
_cell_angle_gamma	83.143665
loop_
_atom_site_label
_atom_site_type_symbol
_atom_site_fract_x
_atom_site_fract_y
_atom_site_fract_z
O1	O	0.926150	0.087149	-0.083456
O2	O	1.426150	0.587149	0.416544
O3	O	0.722839	0.098887	-0.083455
O4	O	1.222839	0.598887	0.416545
O5	O	0.830362	-0.008638	-0.083436
O6	O	1.330362	0.491362	0.416564
O7	O	0.818627	0.194674	-0.083475
O8	O	1.318627	0.694674	0.416525
O9	O	0.830346	-0.008640	0.083411
O10	O	1.330346	0.491360	0.583411
O11	O	0.722823	0.098885	0.083392
O12	O	1.222823	0.598885	0.583392
O13	O	0.926135	0.087147	0.083391
O14	O	1.426135	0.587147	0.583391
Cu15	Cu	0.824477	0.093016	0.098626
Cu16	Cu	1.324477	0.593016	0.598626
Cu17	Cu	0.824496	0.093018	-0.098690
Cu18	Cu	1.324496	0.593018	0.401310
O19	O	0.818612	0.194672	0.083372
O20	O	1.318612	0.694672	0.583372
C21	C	0.696820	0.098507	-0.000031
C22	C	1.196820	0.598507	0.499969
C23	C	0.619315	0.097367	-0.000030
C24	C	1.119315	0.597367	0.499970
C25	C	0.829974	-0.034650	-0.000010
C26	C	1.329974	0.465350	0.499990
C27	C	0.828833	-0.112154	-0.000001
C28	C	1.328833	0.387846	0.499999
C29	C	0.057545	0.152831	-0.000043
C30	C	0.557545	0.652831	0.499957
C31	C	0.130368	0.153908	-0.000048
C32	C	0.630368	0.653908	0.499952
C33	C	0.175302	0.090816	-0.000034
C34	C	0.675302	0.590816	0.499966
C35	C	0.147408	0.026642	-0.000041
C36	C	0.647408	0.526642	0.499959
C37	C	0.074586	0.025568	-0.000045
C38	C	0.574586	0.525568	0.499955
N39	N	0.295974	0.045139	0.056770
N40	N	0.795974	0.545139	0.556770
N41	N	0.365152	0.046164	0.056777
N42	N	0.865152	0.546164	0.556777
C43	C	0.394712	0.094050	-0.000023
C44	C	0.894712	0.594050	0.499977
N45	N	0.352480	0.140882	-0.056817
N46	N	0.852480	0.640882	0.443183
N47	N	0.283296	0.139859	-0.056819
N48	N	0.783296	0.639859	0.443181
C49	C	0.254267	0.091974	-0.000030
C50	C	0.754267	0.591974	0.499970
C51	C	0.501561	0.159386	-0.000030
C52	C	1.001561	0.659386	0.499970
C53	C	0.574385	0.160460	-0.000042
C54	C	1.074385	0.660460	0.499958
C55	C	0.591425	0.033193	-0.000024
C56	C	1.091425	0.533193	0.499976
C57	C	0.518601	0.032121	-0.000022
C58	C	1.018601	0.532121	0.499978
C59	C	0.473673	0.095220	-0.000021
C60	C	0.973673	0.595220	0.499979
C61	C	0.891924	-0.157079	0.000003
C62	C	1.391924	0.342921	0.500003
C63	C	0.890852	-0.229903	-0.000013
C64	C	1.390852	0.270097	0.499987
C65	C	0.826686	-0.257799	-0.000013
C66	C	1.326686	0.242201	0.499987
C67	C	0.763587	-0.212864	-0.000023
C68	C	1.263587	0.287136	0.499977
C69	C	0.764660	-0.140041	-0.000017
C70	C	1.264660	0.359959	0.499983
N71	N	0.777633	-0.365803	0.056769
N72	N	1.277633	0.134197	0.556769
N73	N	0.776618	-0.434982	0.056765
N74	N	1.276618	0.065018	0.556765
C75	C	0.823448	-0.477207	-0.000033
C76	C	1.323448	0.022793	0.499967
N77	N	0.871343	-0.447642	-0.056815
N78	N	1.371343	0.052358	0.443185
N79	N	0.872360	-0.378457	-0.056807
N80	N	1.372360	0.121543	0.443193
C81	C	0.825515	-0.336761	-0.000020
C82	C	1.325515	0.163239	0.499980
C83	C	0.885381	-0.601097	-0.000048
C84	C	1.385381	-0.101097	0.499952
C85	C	0.884307	-0.673922	-0.000070
C86	C	1.384307	-0.173922	0.499930
C87	C	0.757040	-0.656880	-0.000070
C88	C	1.257040	-0.156880	0.499930
C89	C	0.758116	-0.584057	-0.000058
C90	C	1.258116	-0.084057	0.499942
C91	C	0.822289	-0.556170	-0.000042
C92	C	1.322289	-0.056170	0.499958
C93	C	0.952154	0.087527	-0.000035
C94	C	1.452154	0.587527	0.499965
C95	C	1.029658	0.088666	-0.000043
C96	C	1.529658	0.588666	0.499957
C97	C	0.819000	0.220684	-0.000057
C98	C	1.319000	0.720684	0.499943
C99	C	0.820140	0.298188	-0.000072
C100	C	1.320140	0.798188	0.499928
N101	N	0.824470	0.093013	0.237407
N102	N	1.324470	0.593013	0.737407
N103	N	0.824509	0.093015	-0.237472
N104	N	1.324509	0.593015	0.262528
C105	C	0.776883	0.140612	0.710022
C106	C	1.276883	0.640612	1.210022
C107	C	0.872128	0.045419	0.710007
C108	C	1.372128	0.545419	1.210007
C109	C	0.872120	0.045417	0.604988
C110	C	1.372120	0.545417	1.104988
C111	C	0.824493	0.093014	0.552482
C112	C	1.324493	0.593014	1.052482
C113	C	0.776875	0.140612	0.604994
C114	C	1.276875	0.640612	1.104994
C115	C	0.919743	-0.002176	0.552469
C116	C	1.419743	0.497824	1.052469
C117	C	0.919737	-0.002179	0.447444
C118	C	1.419737	0.497821	0.947444
C119	C	0.872107	0.045414	0.394935
C120	C	1.372107	0.545414	0.894935
C121	C	0.824485	0.093015	0.447454
C122	C	1.324485	0.593015	0.947454
C123	C	0.776859	0.140611	0.394947
C124	C	1.276859	0.640611	0.894947
C125	C	0.729234	0.188208	0.447464
C126	C	1.229234	0.688208	0.947464
C127	C	0.729244	0.188206	0.552486
C128	C	1.229244	0.688206	1.052486
C129	C	0.872096	0.045417	0.289914
C130	C	1.372096	0.545417	0.789914
C131	C	0.776851	0.140612	0.289919
C132	C	1.276851	0.640612	0.789919
H133	H	0.020968	0.204211	-0.000046
H134	H	0.520968	0.704211	0.499954
H135	H	0.495896	-0.020129	-0.000017
H136	H	0.995896	0.479871	0.499983
H137	H	0.942230	-0.266488	-0.000013
H138	H	1.442230	0.233512	0.499987
Cl139	Cl	0.165434	0.234579	-0.000045
Cl140	Cl	0.665434	0.734579	0.499955
Cl141	Cl	0.966054	-0.566035	-0.000022
Cl142	Cl	1.466054	-0.066035	0.499978
Cl143	Cl	0.717011	0.200443	0.776037
Cl144	Cl	1.217011	0.700443	1.276037
H145	H	0.935686	-0.710500	-0.000072
H146	H	1.435686	-0.210500	0.499928
Cl147	Cl	0.203896	-0.052674	-0.000027
Cl148	Cl	0.703896	0.447326	0.499973
Cl149	Cl	0.685339	-0.083561	-0.000022
Cl150	Cl	1.185339	0.416439	0.499978
H151	H	0.910907	0.006671	0.752761
H152	H	1.410907	0.506671	1.252761
Cl153	Cl	0.972598	-0.122025	-0.000005
Cl154	Cl	1.472598	0.377975	0.499995
H155	H	0.711342	-0.235581	-0.000026
H156	H	1.211342	0.264419	0.499974
H157	H	0.704794	-0.679592	-0.000076
H158	H	1.204794	-0.179592	0.499924
H159	H	0.706740	-0.547478	-0.000056
H160	H	1.206740	-0.047478	0.499944
H161	H	0.738065	0.179368	0.247175
H162	H	1.238065	0.679368	0.747175
H163	H	0.464978	0.210765	-0.000031
H164	H	0.964978	0.710765	0.499969
Cl165	Cl	0.669367	0.248046	0.381445
Cl166	Cl	1.169367	0.748046	0.881445
Cl167	Cl	0.669380	0.248040	0.618508
Cl168	Cl	1.169380	0.748040	1.118508
Cl169	Cl	0.979618	-0.062005	0.618474
Cl170	Cl	1.479618	0.437995	1.118474
Cl171	Cl	0.979604	-0.062016	0.381430
Cl172	Cl	1.479604	0.437984	0.881430
Cl173	Cl	0.039528	-0.055104	-0.000048
Cl174	Cl	0.539528	0.444896	0.499952
Cl175	Cl	0.931967	-0.014411	0.223900
Cl176	Cl	1.431967	0.485589	0.723900
H177	H	0.597088	0.212713	-0.000050
H178	H	1.097088	0.712713	0.499950
H179	H	0.628010	-0.018178	-0.000021
H180	H	1.128010	0.481822	0.499979
