data_functionalizedCrystal
_audit_creation_method	'MofGen! by Chris Wilmer'
_symmetry_space_group_name_H-M	'P1'
_symmetry_Int_Tables_number	1
_symmetry_cell_setting	triclinic
loop_
_symmetry_equiv_pos_as_xyz
  x,y,z
_cell_length_a	18.050590
_cell_length_b	18.050589
_cell_length_c	12.759393
_cell_angle_alpha	89.969379
_cell_angle_beta	89.993989
_cell_angle_gamma	90.017386
loop_
_atom_site_label
_atom_site_type_symbol
_atom_site_fract_x
_atom_site_fract_y
_atom_site_fract_z
Zn1	Zn	1.135342	-0.295830	-0.593638
Zn2	Zn	1.135238	-0.420041	-0.417961
Zn3	Zn	1.011147	-0.295846	-0.418016
Zn4	Zn	1.011109	-0.419960	-0.593641
O5	O	1.073209	-0.357919	-0.505814
O6	O	1.239253	-0.312335	-0.570310
O7	O	1.118749	-0.403606	-0.270947
O8	O	1.027681	-0.191919	-0.441334
O9	O	1.239176	-0.403592	-0.441241
O10	O	1.118926	-0.191908	-0.570363
O11	O	1.027580	-0.312360	-0.270987
O12	O	0.907217	-0.312282	-0.441337
O13	O	1.027617	-0.403453	-0.740662
O14	O	0.907190	-0.403468	-0.570368
O15	O	1.118890	-0.312256	-0.740660
O16	O	1.118713	-0.523955	-0.441244
O17	O	1.027516	-0.523895	-0.570315
C18	C	0.880257	-0.357868	-0.505859
C19	C	0.797711	-0.357865	-0.505903
C20	C	0.598267	-0.407594	-0.575904
C21	C	0.548876	-0.339875	-0.601750
C22	C	0.646581	-0.357906	-0.505852
C23	C	0.548890	-0.425664	-0.480005
C24	C	0.500596	-0.357952	-0.505805
C25	C	0.598277	-0.290151	-0.531749
C26	C	0.598295	-0.375986	-0.409958
C27	C	0.548927	-0.308220	-0.435769
C28	C	0.730679	-0.357881	-0.505882
C29	C	0.416499	-0.357970	-0.505774
C30	C	1.073119	-0.550871	-0.505797
C31	C	1.073149	-0.633417	-0.505824
C32	C	1.023605	-0.832862	-0.575989
C33	C	1.005499	-0.882307	-0.480126
C34	C	1.073222	-0.784547	-0.505838
C35	C	1.091364	-0.882184	-0.601712
C36	C	1.073291	-0.930532	-0.505860
C37	C	1.055080	-0.832905	-0.409924
C38	C	1.140977	-0.832777	-0.531575
C39	C	1.122897	-0.882200	-0.435646
C40	C	1.073180	-0.700449	-0.505827
C41	C	1.073333	-1.014629	-0.505860
C42	C	1.266915	-0.357971	-0.505769
C43	C	1.349460	-0.357992	-0.505750
C44	C	1.073261	-0.357844	-0.779847
C45	C	1.073283	-0.357812	-0.896624
C46	C	1.073319	-0.164213	-0.505854
C47	C	1.073366	-0.081668	-0.505872
C48	C	1.120816	-0.310321	-0.951487
C49	C	1.120833	-0.310295	-1.061211
C50	C	1.025784	-0.405256	-1.061200
C51	C	1.025763	-0.405278	-0.951478
C52	C	1.168336	-0.262855	-0.896633
C53	C	1.215873	-0.215361	-0.951496
C54	C	1.215891	-0.215334	-1.061220
C55	C	1.168371	-0.262802	-1.116081
C56	C	1.073200	-0.357940	-0.232847
C57	C	1.073322	-0.357763	-0.116070
H58	H	0.620019	-0.391283	-0.328907
H59	H	1.254592	-0.176657	-1.105886
O60	O	1.034702	-0.804353	-0.302508
H61	H	1.075687	-0.824573	-0.244307
O62	O	1.178516	-0.910722	-0.356991
H63	H	1.234533	-0.889996	-0.377727
H64	H	1.106682	-0.903830	-0.682782
O65	O	0.974539	-0.456453	-1.120371
H66	H	0.916256	-0.443698	-1.099338
O67	O	1.168386	-0.262775	-1.234428
H68	H	1.209424	-0.221778	-1.263364
O69	O	0.520401	-0.252531	-0.357268
H70	H	0.540288	-0.196385	-0.378951
O71	O	1.168312	-0.262883	-0.778288
H72	H	1.209336	-0.221896	-0.749360
O73	O	0.974494	-0.456496	-0.892294
H74	H	0.987199	-0.514785	-0.913317
O75	O	0.626977	-0.463157	-0.654451
H76	H	0.607184	-0.447986	-0.733973
H77	H	1.254557	-0.176710	-0.906820
H78	H	0.981584	-0.811198	-0.635229
O79	O	0.520000	-0.319710	-0.709104
H80	H	0.539713	-0.361043	-0.767123
H81	H	0.619880	-0.232852	-0.553682
O82	O	1.216875	-0.804103	-0.560460
H83	H	1.212745	-0.769399	-0.632059
O84	O	0.520172	-0.501541	-0.451040
H85	H	0.539948	-0.542661	-0.509318
O86	O	0.929643	-0.911128	-0.451283
H87	H	0.888525	-0.891373	-0.509614
