data_functionalizedCrystal
_audit_creation_method	'MofGen! by Chris Wilmer'
_symmetry_space_group_name_H-M	'P1'
_symmetry_Int_Tables_number	1
_symmetry_cell_setting	triclinic
loop_
_symmetry_equiv_pos_as_xyz
  x,y,z
_cell_length_a	17.077404
_cell_length_b	19.076808
_cell_length_c	17.077396
_cell_angle_alpha	87.670636
_cell_angle_beta	89.981638
_cell_angle_gamma	92.321444
loop_
_atom_site_label
_atom_site_type_symbol
_atom_site_fract_x
_atom_site_fract_y
_atom_site_fract_z
Zn1	Zn	1.187483	-0.280255	-0.431246
Zn2	Zn	1.182110	-0.397965	-0.294699
Zn3	Zn	1.056214	-0.280275	-0.299996
Zn4	Zn	1.050905	-0.397918	-0.425927
O5	O	1.119178	-0.339103	-0.362967
O6	O	1.296617	-0.295880	-0.413142
O7	O	1.165383	-0.382381	-0.185554
O8	O	1.078098	-0.181776	-0.321849
O9	O	1.292670	-0.382361	-0.312822
O10	O	1.174541	-0.181761	-0.418278
O11	O	1.072888	-0.295914	-0.189445
O12	O	0.945664	-0.295869	-0.316691
O13	O	1.069049	-0.382282	-0.536481
O14	O	0.941763	-0.382302	-0.409213
O15	O	1.169393	-0.295835	-0.540389
O16	O	1.160235	-0.496455	-0.307664
O17	O	1.063839	-0.496421	-0.404077
C18	C	0.915231	-0.339083	-0.362950
C19	C	0.827981	-0.339092	-0.362961
C20	C	0.789044	-0.294141	-0.415271
C21	C	0.707063	-0.294145	-0.415274
C22	C	0.664021	-0.339105	-0.362971
C23	C	0.702964	-0.384057	-0.310656
C24	C	0.784944	-0.384049	-0.310649
C25	C	0.532094	-0.384073	-0.310674
C26	C	0.450109	-0.384083	-0.310682
C27	C	0.454213	-0.294170	-0.415300
C28	C	0.536192	-0.294161	-0.415293
C29	C	0.575130	-0.339115	-0.362978
C30	C	1.110899	-0.521977	-0.354736
C31	C	1.107429	-0.600211	-0.351241
C32	C	1.155974	-0.636898	-0.399845
C33	C	1.152711	-0.710407	-0.396563
C34	C	1.100906	-0.747229	-0.344672
C35	C	1.052356	-0.710537	-0.296066
C36	C	1.055616	-0.637029	-0.299353
C37	C	1.085772	-0.967081	-0.329457
C38	C	1.082517	-1.040595	-0.326172
C39	C	1.182871	-1.040459	-0.426670
C40	C	1.186130	-0.966950	-0.429949
C41	C	1.137577	-0.930265	-0.381346
N42	N	1.097570	-0.822367	-0.341313
N43	N	1.140909	-0.855128	-0.384709
C44	C	1.323922	-0.339124	-0.362984
C45	C	1.411171	-0.339132	-0.362992
C46	C	1.119228	-0.339051	-0.567714
C47	C	1.119249	-0.339029	-0.654965
C48	C	1.127511	-0.155515	-0.371247
C49	C	1.131062	-0.077281	-0.374776
C50	C	1.171500	-0.294012	-0.697991
C51	C	1.171511	-0.293989	-0.779972
C52	C	1.119274	-0.338986	-0.818926
C53	C	1.067017	-0.384005	-0.775894
C54	C	1.067003	-0.384024	-0.693914
C55	C	1.067051	-0.383963	-0.946766
C56	C	1.067065	-0.383945	-1.028751
C57	C	1.171558	-0.293927	-1.032824
C58	C	1.171544	-0.293947	-0.950844
C59	C	1.119288	-0.338967	-0.907818
C60	C	1.119176	-0.339104	-0.159019
C61	C	1.119316	-0.338928	-0.071778
H62	H	0.816645	-0.420652	-0.268052
O63	O	0.416305	-0.250597	-0.466152
C64	C	0.367107	-0.290735	-0.514987
H65	H	0.352404	-0.344042	-0.484801
H66	H	0.310759	-0.262080	-0.526858
H67	H	0.398374	-0.298538	-0.572789
H68	H	1.222400	-1.070336	-0.466241
O69	O	1.032078	-1.076336	-0.275850
C70	C	0.954626	-1.058418	-0.293727
H71	H	0.951525	-1.038175	-0.357337
H72	H	0.913711	-1.106797	-0.284773
H73	H	0.936012	-1.015793	-0.253527
H74	H	1.024482	-0.420640	-0.807617
O75	O	1.016229	-0.427829	-0.652234
C76	C	0.970117	-0.467534	-0.704193
H77	H	1.002165	-0.469952	-0.762529
H78	H	0.959234	-0.522998	-0.678005
H79	H	0.911665	-0.441759	-0.714059
O80	O	1.222321	-0.250400	-0.660114
C81	C	1.271183	-0.290485	-0.610876
H82	H	1.273526	-0.345915	-0.633080
H83	H	1.332746	-0.265029	-0.611103
H84	H	1.246790	-0.292922	-0.548633
O85	O	0.830969	-0.250533	-0.466051
C86	C	0.911678	-0.260150	-0.454818
H87	H	0.920415	-0.314439	-0.426568
H88	H	0.943069	-0.255438	-0.513835
H89	H	0.936811	-0.218351	-0.414971
H90	H	1.214060	-0.257334	-0.815001
H91	H	0.675364	-0.257543	-0.457872
H92	H	1.046239	-0.937218	-0.289880
H93	H	0.415066	-0.420693	-0.268092
H94	H	0.571235	-0.257556	-0.457887
O95	O	1.002101	-0.746412	-0.245678
C96	C	1.009620	-0.819160	-0.253209
H97	H	1.069742	-0.829140	-0.278527
H98	H	1.003092	-0.847132	-0.193155
H99	H	0.962109	-0.840033	-0.294034
H100	H	0.563794	-0.420678	-0.268072
H101	H	0.667913	-0.420661	-0.268066
O102	O	1.008428	-0.601498	-0.252061
C103	C	0.961989	-0.649759	-0.205570
H104	H	0.991822	-0.702135	-0.200533
H105	H	0.954584	-0.628558	-0.144665
H106	H	0.902011	-0.657608	-0.233916
H107	H	1.214084	-0.257310	-0.919131
H108	H	1.214105	-0.257269	-1.067860
H109	H	1.024527	-0.420584	-1.060465
H110	H	1.192247	-0.740274	-0.436135
O111	O	1.206317	-0.601241	-0.450324
C112	C	1.248475	-0.649388	-0.492507
H113	H	1.213996	-0.701810	-0.492848
H114	H	1.257751	-0.628111	-0.555315
H115	H	1.307765	-0.657177	-0.463471
O116	O	1.236477	-0.931292	-0.480423
C117	C	1.278643	-0.979436	-0.522603
H118	H	1.244162	-1.031856	-0.522957
H119	H	1.287935	-0.958152	-0.585406
H120	H	1.337926	-0.987231	-0.493554
H121	H	1.024487	-0.420612	-0.911737
