data_functionalizedCrystal
_audit_creation_method	'MofGen! by Chris Wilmer'
_symmetry_space_group_name_H-M	'P1'
_symmetry_Int_Tables_number	1
_symmetry_cell_setting	triclinic
loop_
_symmetry_equiv_pos_as_xyz
  x,y,z
_cell_length_a	19.288864
_cell_length_b	10.489741
_cell_length_c	17.766277
_cell_angle_alpha	89.993969
_cell_angle_beta	89.976791
_cell_angle_gamma	83.837710
loop_
_atom_site_label
_atom_site_type_symbol
_atom_site_fract_x
_atom_site_fract_y
_atom_site_fract_z
O1	O	0.922420	0.159110	-0.062835
O2	O	0.720303	0.180573	-0.062784
O3	O	0.825961	-0.015860	-0.062806
O4	O	0.816763	0.355544	-0.062813
O5	O	0.825942	-0.015870	0.062382
O6	O	0.720285	0.180564	0.062405
O7	O	0.922401	0.159100	0.062353
Cu8	Cu	0.821341	0.169831	0.073810
Cu9	Cu	0.821363	0.169843	-0.074240
O10	O	0.816744	0.355534	0.062375
C11	C	0.694413	0.179878	-0.000183
C12	C	0.617295	0.177805	-0.000163
C13	C	0.825257	-0.063381	-0.000212
C14	C	0.823178	-0.204964	-0.000213
C15	C	0.573372	0.293063	-0.000177
C16	C	0.500912	0.291115	-0.000186
C17	C	0.472378	0.173903	-0.000195
C18	C	0.516311	0.058629	-0.000177
C19	C	0.588770	0.060580	-0.000161
C20	C	0.363505	0.081764	-0.044078
C21	C	0.291047	0.079818	-0.044098
C22	C	0.248892	0.167880	-0.000240
C23	C	0.279202	0.257911	0.043628
C24	C	0.351661	0.259862	0.043644
C25	C	0.393810	0.171774	-0.000212
C26	C	0.126399	0.281035	-0.000262
C27	C	0.053938	0.279082	-0.000266
C28	C	0.069339	0.046593	-0.000265
C29	C	0.141798	0.048549	-0.000254
C30	C	0.170324	0.165773	-0.000256
C31	C	0.755951	-0.271583	-0.000202
C32	C	0.787699	-0.364429	0.061515
C33	C	0.787734	-0.364394	-0.061911
C34	C	0.854954	-0.295944	0.061554
C35	C	0.854979	-0.295900	-0.061927
C36	C	0.886776	-0.388719	-0.000196
C37	C	0.948292	0.159796	-0.000249
C38	C	1.025409	0.161869	-0.000274
C39	C	0.817448	0.403055	-0.000220
C40	C	0.819526	0.544637	-0.000224
N41	N	0.821331	0.169822	0.177940
N42	N	0.821379	0.169842	-0.178371
C43	C	0.868131	0.082883	0.217317
C44	C	0.868135	0.082878	0.296119
C45	C	0.821345	0.169832	0.335540
C46	C	0.774536	0.256777	0.296154
C47	C	0.774528	0.256772	0.217354
C48	C	0.812826	0.286045	0.460378
C49	C	0.812838	0.286051	0.539177
C50	C	0.821364	0.169847	0.578587
C51	C	0.829892	0.053631	0.539188
C52	C	0.829885	0.053626	0.460388
C53	C	0.821348	0.169847	0.420986
C54	C	0.868171	0.082895	0.703410
C55	C	0.868171	0.082888	0.782213
C56	C	0.774575	0.256798	0.782247
C57	C	0.774572	0.256795	0.703445
C58	C	0.821374	0.169845	0.664031
H59	H	0.596592	0.388516	-0.000181
H60	H	0.942099	-0.439394	-0.000176
H61	H	0.736417	0.327569	0.185292
C62	C	0.723659	0.351062	0.824997
C63	C	0.655306	0.330671	0.805880
C64	C	0.608381	0.417470	0.845258
H65	H	0.731530	0.436208	0.812104
H66	H	0.730317	0.338609	0.877575
H67	H	0.648651	0.343135	0.753314
H68	H	0.647413	0.245542	0.818775
H69	H	0.615039	0.405016	0.897836
H70	H	0.616258	0.502610	0.832361
H71	H	0.561998	0.403639	0.832298
C72	C	0.892968	-0.255813	0.131142
C73	C	0.961231	-0.316628	0.131191
C74	C	0.996269	-0.279674	0.195278
H75	H	0.869325	-0.279807	0.174982
H76	H	0.894085	-0.165489	0.130734
H77	H	0.960110	-0.406932	0.131606
H78	H	0.984893	-0.292642	0.087366
H79	H	0.997387	-0.189350	0.194869
H80	H	0.972620	-0.303670	0.239113
H81	H	1.042591	-0.320922	0.195316
C82	C	0.157283	0.408392	-0.000371
C83	C	0.135032	0.478073	-0.064769
C84	C	0.163459	0.595406	-0.064888
H85	H	0.206726	0.393225	-0.000403
H86	H	0.142204	0.455895	0.043262
H87	H	0.150115	0.430580	-0.108390
H88	H	0.085592	0.493274	-0.064751
H89	H	0.148380	0.642909	-0.021255
H90	H	0.212901	0.580227	-0.064918
H91	H	0.148361	0.642704	-0.108578
H92	H	0.906239	0.012081	0.185228
H93	H	0.465143	0.384976	-0.000195
H94	H	0.244881	0.329619	0.079342
H95	H	0.836835	-0.040993	0.571274
H96	H	0.624533	-0.033280	-0.000150
C97	C	0.384441	0.357649	0.091355
C98	C	0.332023	0.434339	0.129778
C99	C	0.362195	0.524419	0.173748
H100	H	0.409310	0.410037	0.059821
H101	H	0.415590	0.314336	0.126666
H102	H	0.300886	0.477649	0.094472
H103	H	0.307151	0.381986	0.161326
H104	H	0.393344	0.481106	0.209058
H105	H	0.387063	0.576798	0.142208
H106	H	0.326635	0.576456	0.199828
H107	H	0.759246	-0.394801	0.113706
H108	H	0.266375	0.006515	-0.079822
C109	C	0.409148	-0.013909	-0.091785
C110	C	0.367096	-0.093133	-0.130229
C111	C	0.409116	-0.181264	-0.174191
H112	H	0.440823	-0.064783	-0.060244
H113	H	0.434497	0.030929	-0.127083
H114	H	0.341760	-0.137968	-0.094935
H115	H	0.335423	-0.042296	-0.161784
H116	H	0.434464	-0.136426	-0.209489
H117	H	0.440789	-0.232128	-0.142644
H118	H	0.380589	-0.235020	-0.200285
H119	H	0.906279	0.012091	0.671318
H120	H	0.700678	-0.220682	-0.000125
H121	H	0.493075	-0.036806	-0.000195
C122	C	0.892768	-0.255383	-0.131610
C123	C	0.857345	-0.289626	-0.196059
C124	C	0.892124	-0.252303	-0.260270
H125	H	0.938982	-0.297073	-0.132171
H126	H	0.894162	-0.165132	-0.130893
H127	H	0.855958	-0.379860	-0.196776
H128	H	0.811132	-0.247940	-0.195522
H129	H	0.893518	-0.162052	-0.259553
H130	H	0.938337	-0.293996	-0.260823
H131	H	0.868091	-0.275521	-0.304005
C132	C	0.919024	-0.011581	0.338747
C133	C	0.960017	-0.087714	0.287364
C134	C	1.006906	-0.174734	0.326602
H135	H	0.893857	-0.064677	0.369507
H136	H	0.948203	0.034136	0.369452
H137	H	0.930841	-0.133428	0.256671
H138	H	0.985199	-0.034653	0.256602
H139	H	1.036085	-0.129017	0.357308
H140	H	0.981733	-0.227821	0.357361
H141	H	1.034729	-0.226393	0.291745
H142	H	0.018175	0.372944	-0.000273
C143	C	0.838990	-0.072598	0.417662
C144	C	0.784997	-0.145711	0.436862
C145	C	0.793351	-0.261994	0.397515
H146	H	0.882531	-0.118450	0.430523
H147	H	0.837729	-0.056026	0.365079
H148	H	0.786265	-0.162286	0.489433
H149	H	0.741450	-0.099899	0.424000
H150	H	0.792090	-0.245422	0.344932
H151	H	0.836893	-0.307834	0.410379
H152	H	0.756715	-0.311610	0.410532
C153	C	0.723846	0.351407	0.660730
C154	C	0.735749	0.476690	0.679868
C155	C	0.689036	0.563883	0.640528
H156	H	0.677395	0.337948	0.673638
H157	H	0.730545	0.339041	0.608146
H158	H	0.729044	0.489051	0.732440
H159	H	0.782190	0.490190	0.666958
H160	H	0.695735	0.551517	0.587944
H161	H	0.642588	0.550412	0.653439
H162	H	0.697110	0.648897	0.653502
H163	H	0.805898	0.380681	0.571249
H164	H	0.759288	-0.394710	-0.114092
C165	C	0.038235	-0.080540	-0.000315
C166	C	-0.034623	-0.057582	-0.000349
C167	C	-0.063303	-0.174669	-0.000404
H168	H	0.053172	-0.128086	0.043331
H169	H	0.053258	-0.127985	-0.043987
H170	H	-0.049640	-0.010157	0.043318
H171	H	-0.049580	-0.010056	-0.043992
H172	H	-0.048279	-0.222115	-0.044076
H173	H	-0.048360	-0.222206	0.043243
H174	H	-0.112739	-0.159108	-0.000434
H175	H	0.805871	0.380678	0.428297
H176	H	0.177562	-0.045307	-0.000246
C177	C	0.723622	0.351038	0.338913
C178	C	0.655269	0.330640	0.319801
C179	C	0.608344	0.417435	0.359183
H180	H	0.731490	0.436185	0.326019
H181	H	0.730284	0.338584	0.391490
H182	H	0.648610	0.343104	0.267235
H183	H	0.647379	0.245510	0.332697
H184	H	0.615006	0.404981	0.411760
H185	H	0.616218	0.502576	0.346286
H186	H	0.561961	0.403599	0.346226
H187	H	0.906279	0.012085	0.814274
