data_functionalizedCrystal
_audit_creation_method	'MofGen! by Chris Wilmer'
_symmetry_space_group_name_H-M	'P1'
_symmetry_Int_Tables_number	1
_symmetry_cell_setting	triclinic
loop_
_symmetry_equiv_pos_as_xyz
  x,y,z
_cell_length_a	19.805407
_cell_length_b	13.897441
_cell_length_c	19.805405
_cell_angle_alpha	89.967806
_cell_angle_beta	90.024042
_cell_angle_gamma	89.978935
loop_
_atom_site_label
_atom_site_type_symbol
_atom_site_fract_x
_atom_site_fract_y
_atom_site_fract_z
Zn1	Zn	1.034756	-0.545379	-0.269490
Zn2	Zn	1.534756	-0.045379	0.230510
Zn3	Zn	1.034664	-0.384076	-0.382689
Zn4	Zn	1.534664	0.115924	0.117311
Zn5	Zn	0.921564	-0.384096	-0.269514
Zn6	Zn	1.421564	0.115904	0.230486
Zn7	Zn	0.921533	-0.545328	-0.382637
Zn8	Zn	1.421533	-0.045328	0.117363
O9	O	0.978129	-0.464720	-0.326083
O10	O	1.478129	0.035280	0.173917
O11	O	1.129460	-0.523995	-0.284518
O12	O	1.629460	-0.023995	0.215482
O13	O	1.019635	-0.249097	-0.367709
O14	O	1.519635	0.250903	0.132291
O15	O	0.936631	-0.405521	-0.174795
O16	O	1.436631	0.094479	0.325205
O17	O	1.129393	-0.405486	-0.367685
O18	O	1.629393	0.094514	0.132315
O19	O	1.019792	-0.524015	-0.174777
O20	O	1.519792	-0.024015	0.325223
O21	O	0.936541	-0.249112	-0.284559
O22	O	1.436541	0.250888	0.215441
O23	O	0.826844	-0.405471	-0.284509
O24	O	1.326844	0.094529	0.215491
O25	O	0.936578	-0.680316	-0.367596
O26	O	1.436578	-0.180316	0.132404
O27	O	0.826821	-0.523927	-0.367620
O28	O	1.326821	-0.023927	0.132380
O29	O	1.019763	-0.680354	-0.284467
O30	O	1.519763	-0.180354	0.215533
O31	O	1.019605	-0.405436	-0.477399
O32	O	1.519605	0.094564	0.022601
O33	O	0.936489	-0.523907	-0.477361
O34	O	1.436489	-0.023907	0.022639
C35	C	0.802273	-0.464696	-0.326062
C36	C	1.302273	0.035304	0.173938
C37	C	0.727041	-0.464709	-0.326069
C38	C	1.227041	0.035291	0.173931
C39	C	0.691733	-0.526510	-0.282840
C40	C	1.191733	-0.026510	0.217160
C41	C	0.621045	-0.526514	-0.282844
C42	C	1.121045	-0.026514	0.217156
C43	C	0.585666	-0.464721	-0.326080
C44	C	1.085666	0.035279	0.173920
C45	C	0.620979	-0.402913	-0.369310
C46	C	1.120979	0.097087	0.130690
C47	C	0.691666	-0.402905	-0.369303
C48	C	1.191666	0.097095	0.130697
C49	C	0.335906	-0.402942	-0.369341
C50	C	0.835906	0.097058	0.130659
C51	C	0.265214	-0.402957	-0.369346
C52	C	0.765214	0.097043	0.130654
C53	C	0.265284	-0.526552	-0.282882
C54	C	0.765284	-0.026552	0.217118
C55	C	0.335971	-0.526544	-0.282874
C56	C	0.835971	-0.026544	0.217126
C57	C	0.371278	-0.464732	-0.326102
C58	C	0.871278	0.035268	0.173898
C59	C	0.447927	-0.464728	-0.326097
C60	C	0.947927	0.035272	0.173903
C61	C	0.509019	-0.464729	-0.326089
C62	C	1.009019	0.035271	0.173911
C63	C	0.978177	-0.716313	-0.326023
C64	C	1.478177	-0.216313	0.173977
C65	C	0.978198	-0.823527	-0.325997
C66	C	1.478198	-0.323527	0.174003
C67	C	0.978216	-1.019822	-0.325952
C68	C	1.478216	-0.519822	0.174048
C69	C	0.978204	-0.910589	-0.325979
C70	C	1.478204	-0.410589	0.174021
C71	C	1.154672	-0.464744	-0.326105
C72	C	1.654672	0.035256	0.173895
C73	C	1.229904	-0.464754	-0.326114
C74	C	1.729904	0.035246	0.173886
C75	C	0.978052	-0.464685	-0.501939
C76	C	1.478052	0.035315	-0.001939
C77	C	0.978081	-0.464702	-0.577171
C78	C	1.478081	0.035298	-0.077171
C79	C	0.978120	-0.214105	-0.326094
C80	C	1.478120	0.285895	0.173906
C81	C	0.978231	-0.106892	-0.325928
C82	C	1.478231	0.393108	0.174072
C83	C	1.021358	-0.526450	-0.612447
C84	C	1.521358	-0.026450	-0.112447
C85	C	1.021382	-0.526468	-0.683136
C86	C	1.521382	-0.026468	-0.183136
C87	C	0.978133	-0.464732	-0.718546
C88	C	1.478133	0.035268	-0.218546
C89	C	0.934852	-0.402982	-0.683265
C90	C	1.434852	0.097018	-0.183265
C91	C	0.934824	-0.402969	-0.612578
C92	C	1.434824	0.097031	-0.112578
C93	C	0.934960	-0.403031	-0.968338
C94	C	1.434960	0.096969	-0.468338
C95	C	0.934992	-0.403046	-1.039030
C96	C	1.434992	0.096954	-0.539030
C97	C	1.021518	-0.526530	-1.038896
C98	C	1.521518	-0.026530	-0.538896
C99	C	1.021491	-0.526517	-0.968209
C100	C	1.521491	-0.026517	-0.468209
C101	C	0.978207	-0.464771	-0.932934
C102	C	1.478207	0.035229	-0.432934
C103	C	0.978180	-0.464753	-0.856285
C104	C	1.478180	0.035247	-0.356285
C105	C	0.978163	-0.464744	-0.795193
C106	C	1.478163	0.035256	-0.295193
C107	C	0.978225	-0.464776	-0.149540
C108	C	1.478225	0.035224	0.350460
C109	C	0.978266	-0.464800	-0.074308
C110	C	1.478266	0.035200	0.425692
H111	H	0.236529	-0.576878	-0.247681
H112	H	0.736529	-0.076878	0.252319
H113	H	1.056760	-0.576810	-1.067626
H114	H	1.556760	-0.076810	-0.567626
H115	H	1.056711	-0.576785	-0.939380
H116	H	1.556711	-0.076785	-0.439380
H117	H	0.364773	-0.576866	-0.247669
H118	H	0.864773	-0.076866	0.252331
H119	H	0.899634	-0.352719	-0.712102
H120	H	1.399634	0.147281	-0.212102
H121	H	0.899583	-0.352689	-0.583856
H122	H	1.399583	0.147311	-0.083856
H123	H	0.720413	-0.352579	-0.404504
H124	H	1.220413	0.147421	0.095496
H125	H	0.236410	-0.352634	-0.404556
H126	H	0.736410	0.147366	0.095444
H127	H	0.899719	-0.352753	-0.939622
H128	H	1.399719	0.147247	-0.439622
H129	H	0.720534	-0.576832	-0.247634
H130	H	1.220534	-0.076832	0.252366
H131	H	0.592300	-0.576841	-0.247644
H132	H	1.092300	-0.076841	0.252356
H133	H	0.899770	-0.352772	-1.067859
H134	H	1.399770	0.147228	-0.567859
H135	H	0.364644	-0.352613	-0.404540
H136	H	0.864644	0.147387	0.095460
H137	H	1.056628	-0.576742	-0.711855
H138	H	1.556628	-0.076742	-0.211855
H139	H	1.056579	-0.576718	-0.583621
H140	H	1.556579	-0.076718	-0.083621
H141	H	0.592168	-0.352595	-0.404511
H142	H	1.092168	0.147405	0.095489
