data_functionalizedCrystal
_audit_creation_method	'MofGen! by Chris Wilmer'
_symmetry_space_group_name_H-M	'P1'
_symmetry_Int_Tables_number	1
_symmetry_cell_setting	triclinic
loop_
_symmetry_equiv_pos_as_xyz
  x,y,z
_cell_length_a	16.992697
_cell_length_b	16.053948
_cell_length_c	16.974813
_cell_angle_alpha	90.769009
_cell_angle_beta	92.975198
_cell_angle_gamma	92.712413
loop_
_atom_site_label
_atom_site_type_symbol
_atom_site_fract_x
_atom_site_fract_y
_atom_site_fract_z
O1	O	-1.036809	0.080385	0.163992
O2	O	-0.536809	0.580385	0.663992
O3	O	-0.808530	0.080289	0.162157
O4	O	-0.308530	0.580289	0.662157
O5	O	-0.929360	0.072607	0.048725
O6	O	-0.429360	0.572607	0.548725
O7	O	-0.915978	0.088068	0.277424
O8	O	-0.415978	0.588068	0.777424
O9	O	-0.935208	-0.065824	0.055022
O10	O	-0.435208	0.434176	0.555022
O11	O	-0.814377	-0.058141	0.168454
O12	O	-0.314377	0.441859	0.668454
O13	O	-1.042656	-0.058046	0.170289
O14	O	-0.542656	0.441954	0.670289
Zn15	Zn	-0.929445	-0.080072	0.170371
Zn16	Zn	-0.429445	0.419928	0.670371
Zn17	Zn	-0.921741	0.102316	0.162075
Zn18	Zn	-0.421741	0.602316	0.662075
O19	O	-0.921826	-0.050363	0.283721
O20	O	-0.421826	0.449637	0.783721
C21	C	-0.782250	0.010918	0.162946
C22	C	-0.282250	0.510918	0.662946
C23	C	-0.695233	0.010453	0.155908
C24	C	-0.195233	0.510453	0.655908
N25	N	-0.934709	-0.204548	0.176033
N26	N	-0.434709	0.295452	0.676033
C27	C	-0.644725	0.015044	0.223814
C28	C	-0.144725	0.515044	0.723814
C29	C	-0.562965	0.014587	0.217197
C30	C	-0.062965	0.514587	0.717197
C31	C	-0.531714	0.009544	0.142672
C32	C	-0.031714	0.509544	0.642672
C33	C	-0.582229	0.004950	0.074761
C34	C	-0.082229	0.504950	0.574761
C35	C	-0.663988	0.005402	0.081379
C36	C	-0.163988	0.505402	0.581379
C37	C	-0.288226	0.007671	0.115242
C38	C	0.211774	0.507671	0.615242
C39	C	-0.206460	0.007222	0.108629
C40	C	0.293540	0.507222	0.608629
C41	C	-0.187202	0.016857	0.251066
C42	C	0.312798	0.516857	0.751066
C43	C	-0.268963	0.017313	0.257678
C44	C	0.231037	0.517313	0.757678
C45	C	-0.319471	0.012715	0.189766
C46	C	0.180529	0.512715	0.689766
N47	N	-0.448143	0.009079	0.135906
N48	N	0.051857	0.509079	0.635906
N49	N	-0.403041	0.013175	0.196533
N50	N	0.096959	0.513175	0.696533
C51	C	-0.889213	-0.251562	0.127186
C52	C	-0.389213	0.248438	0.627186
C53	C	-0.892915	-0.338699	0.131157
C54	C	-0.392915	0.161301	0.631157
C55	C	-0.942116	-0.378820	0.183972
C56	C	-0.442116	0.121180	0.683972
C57	C	-0.987613	-0.331799	0.232823
C58	C	-0.487613	0.168201	0.732823
C59	C	-0.983907	-0.244664	0.228856
C60	C	-0.483907	0.255336	0.728856
C61	C	-0.958274	-0.639052	0.201292
C62	C	-0.458274	-0.139052	0.701292
C63	C	-0.961979	-0.726194	0.205254
C64	C	-0.461979	-0.226194	0.705254
C65	C	-0.867279	-0.733088	0.103588
C66	C	-0.367279	-0.233088	0.603588
C67	C	-0.863581	-0.645951	0.099622
C68	C	-0.363581	-0.145951	0.599622
C69	C	-0.909074	-0.598937	0.148477
C70	C	-0.409074	-0.098937	0.648477
N71	N	-0.945903	-0.467888	0.188030
N72	N	-0.445903	0.032112	0.688030
N73	N	-0.905283	-0.509871	0.144422
N74	N	-0.405283	-0.009871	0.644422
C75	C	-0.068936	0.011331	0.169499
C76	C	0.431064	0.511331	0.669499
C77	C	-0.155952	0.011813	0.176535
C78	C	0.344048	0.511813	0.676535
C79	C	-0.931884	0.001406	0.022475
C80	C	-0.431884	0.501406	0.522475
C81	C	-0.930682	-0.004510	-0.065124
C82	C	-0.430682	0.495490	0.434876
N83	N	-0.916484	0.226791	0.156407
N84	N	-0.416484	0.726791	0.656407
C85	C	-0.926932	0.068168	-0.109706
C86	C	-0.426932	0.568168	0.390294
C87	C	-0.925798	0.062607	-0.192015
C88	C	-0.425798	0.562607	0.307985
C89	C	-0.928419	-0.015634	-0.229740
C90	C	-0.428419	0.484366	0.270260
C91	C	-0.932167	-0.088318	-0.185152
C92	C	-0.432167	0.411682	0.314848
C93	C	-0.933296	-0.082756	-0.102845
C94	C	-0.433296	0.417244	0.397155
C95	C	-0.925380	-0.040361	-0.475534
C96	C	-0.425380	0.459639	0.024466
C97	C	-0.924254	-0.045917	-0.557848
C98	C	-0.424254	0.454083	-0.057848
C99	C	-0.917883	0.105008	-0.564705
C100	C	-0.417883	0.605008	-0.064705
C101	C	-0.919016	0.110564	-0.482396
C102	C	-0.419016	0.610564	0.017604
C103	C	-0.922760	0.037880	-0.437815
C104	C	-0.422760	0.537880	0.062185
N105	N	-0.927262	-0.021320	-0.313873
N106	N	-0.427262	0.478680	0.186127
N107	N	-0.923911	0.043567	-0.353683
N108	N	-0.423911	0.543567	0.146317
C109	C	-0.919302	0.020840	0.309971
C110	C	-0.419302	0.520840	0.809971
C111	C	-0.920504	0.026761	0.397570
C112	C	-0.420504	0.526761	0.897570
H113	H	-0.670162	0.019151	0.284500
H114	H	-0.170162	0.519151	0.784500
H115	H	-0.922747	0.121790	-0.228310
H116	H	-0.422747	0.621790	0.271690
H117	H	-1.020952	-0.206385	0.268634
H118	H	-0.520952	0.293615	0.768634
Br119	Br	-0.831162	-0.402501	0.064868
Br120	Br	-0.331162	0.097499	0.564868
H121	H	-0.916883	0.174276	-0.451686
H122	H	-0.416883	0.674276	0.048314
H123	H	-0.914833	0.164184	-0.601012
H124	H	-0.414833	0.664184	-0.101012
Br125	Br	-0.356762	0.001429	0.023076
Br126	Br	0.143238	0.501429	0.523076
Br127	Br	-0.164050	0.000360	0.007482
Br128	Br	0.335950	0.500360	0.507482
H129	H	-0.521844	0.018326	0.272494
H130	H	-0.021844	0.518326	0.772494
H131	H	-0.823518	-0.613291	0.056613
H132	H	-0.323518	-0.113291	0.556613
Br133	Br	-0.539819	-0.001902	-0.026381
Br134	Br	-0.039819	0.498098	0.473619
H135	H	-0.926385	-0.109634	-0.588560
H136	H	-0.426385	0.390366	-0.088560
H137	H	-0.928445	-0.099545	-0.439247
H138	H	-0.428445	0.400455	0.060753
H139	H	-0.995322	-0.600785	0.241070
H140	H	-0.495322	-0.100785	0.741070
Br141	Br	-0.935712	-0.194504	-0.236348
Br142	Br	-0.435712	0.305496	0.263652
H143	H	-0.924801	0.131881	-0.078997
H144	H	-0.424801	0.631881	0.421003
H145	H	-0.294400	0.021429	0.318363
H146	H	0.205600	0.521429	0.818363
Br147	Br	-0.938381	-0.181395	-0.042339
Br148	Br	-0.438381	0.318605	0.457661
Br149	Br	-0.118653	0.023096	0.343226
Br150	Br	0.381347	0.523096	0.843226
Br151	Br	-1.054378	-0.386248	0.304510
Br152	Br	-0.554378	0.113752	0.804510
H153	H	-0.705111	0.001664	0.026082
H154	H	-0.205111	0.501664	0.526082
H155	H	-0.830239	-0.771375	0.063815
H156	H	-0.330239	-0.271375	0.563815
Br157	Br	-0.822447	-0.197121	0.055497
Br158	Br	-0.322447	0.302879	0.555497
H159	H	-1.002045	-0.758858	0.248265
H160	H	-0.502045	-0.258858	0.748265
