data_functionalizedCrystal
_audit_creation_method	'MofGen! by Chris Wilmer'
_symmetry_space_group_name_H-M	'P1'
_symmetry_Int_Tables_number	1
_symmetry_cell_setting	triclinic
loop_
_symmetry_equiv_pos_as_xyz
  x,y,z
_cell_length_a	16.956995
_cell_length_b	16.992695
_cell_length_c	16.053942
_cell_angle_alpha	87.264413
_cell_angle_beta	87.615586
_cell_angle_gamma	96.638653
loop_
_atom_site_label
_atom_site_type_symbol
_atom_site_fract_x
_atom_site_fract_y
_atom_site_fract_z
O1	O	1.063233	-0.028863	-0.069486
O2	O	1.563233	0.471137	0.430514
O3	O	0.832822	-0.056277	-0.069475
O4	O	1.332822	0.443723	0.430525
O5	O	0.947104	0.071512	-0.069474
O6	O	1.447104	0.571512	0.430526
O7	O	0.948952	-0.156653	-0.069487
O8	O	1.448952	0.343347	0.430513
O9	O	0.940831	0.064520	0.069382
O10	O	1.440831	0.564520	0.569382
O11	O	0.826549	-0.063269	0.069381
O12	O	1.326549	0.436731	0.569381
O13	O	1.056960	-0.035855	0.069370
O14	O	1.556960	0.464145	0.569370
Zn15	Zn	0.940759	-0.050672	0.091422
Zn16	Zn	1.440759	0.449328	0.591422
Zn17	Zn	0.949023	-0.041460	-0.091527
Zn18	Zn	1.449023	0.458540	0.408473
O19	O	0.942679	-0.163644	0.069369
O20	O	1.442679	0.336356	0.569369
C21	C	0.800067	-0.061177	-0.000046
C22	C	1.300067	0.438823	0.499954
C23	C	0.711812	-0.065350	-0.000042
C24	C	1.211812	0.434650	0.499958
C25	C	0.941591	0.097075	-0.000046
C26	C	1.441591	0.597075	0.499954
C27	C	0.934500	0.183660	-0.000046
C28	C	1.434500	0.683660	0.499954
C29	C	0.214503	-0.096567	-0.000074
C30	C	0.714503	0.403433	0.499926
C31	C	0.297428	-0.092640	-0.000074
C32	C	0.797428	0.407360	0.499926
C33	C	0.343818	-0.018927	-0.000063
C34	C	0.843818	0.481073	0.499937
C35	C	0.307280	0.050863	-0.000062
C36	C	0.807280	0.550863	0.499938
C37	C	0.224357	0.046935	-0.000069
C38	C	0.724357	0.546935	0.499931
C39	C	0.592351	0.000513	-0.000047
C40	C	1.092351	0.500513	0.499953
C41	C	0.675280	0.004435	-0.000038
C42	C	1.175280	0.504435	0.499962
C43	C	0.665422	-0.139068	-0.000051
C44	C	1.165422	0.360932	0.499949
C45	C	0.582497	-0.142989	-0.000053
C46	C	1.082497	0.357011	0.499947
C47	C	0.545966	-0.073199	-0.000056
C48	C	1.045966	0.426801	0.499944
N49	N	0.428581	-0.014912	-0.000059
N50	N	0.928581	0.485088	0.499941
N51	N	0.461206	-0.077215	-0.000066
N52	N	0.961206	0.422785	0.499934
C53	C	1.089715	-0.030955	-0.000061
C54	C	1.589715	0.469045	0.499939
C55	C	1.177970	-0.026782	-0.000071
C56	C	1.677970	0.473218	0.499929
N57	N	0.954664	-0.035167	-0.216385
N58	N	1.454664	0.464833	0.283615
C59	C	0.948192	-0.189207	-0.000061
C60	C	1.448192	0.310793	0.499939
C61	C	0.955283	-0.275791	-0.000067
C62	C	1.455283	0.224209	0.499933
C63	C	1.002915	0.238334	-0.000048
C64	C	1.502915	0.738334	0.499952
C65	C	0.996248	0.319689	-0.000056
C66	C	1.496248	0.819689	0.499944
C67	C	0.921166	0.346367	-0.000055
C68	C	1.421166	0.846367	0.499945
C69	C	0.852746	0.291686	-0.000055
C70	C	1.352746	0.791686	0.499945
C71	C	0.859413	0.210333	-0.000054
C72	C	1.359413	0.710333	0.499946
C73	C	0.893530	0.588175	-0.000065
C74	C	1.393530	1.088175	0.499935
C75	C	0.886868	0.669534	-0.000064
C76	C	1.386868	1.169534	0.499936
C77	C	1.030371	0.697531	-0.000066
C78	C	1.530371	1.197531	0.499934
C79	C	1.037032	0.616175	-0.000060
C80	C	1.537032	1.116175	0.499940
C81	C	0.968612	0.561502	-0.000064
C82	C	1.468612	1.061502	0.499936
N83	N	0.914349	0.429525	-0.000060
N84	N	1.414349	0.929525	0.499940
N85	N	0.975430	0.478346	-0.000065
N86	N	1.475430	0.978346	0.499935
C87	C	0.983852	-0.002680	-0.740004
C88	C	1.483852	0.497320	-0.240004
C89	C	0.979884	-0.007089	-0.652599
C90	C	1.479884	0.492911	-0.152599
C91	C	0.927192	-0.065781	-0.608912
C92	C	1.427192	0.434219	-0.108912
C93	C	0.878459	-0.120062	-0.652634
C94	C	1.378459	0.379938	-0.152634
C95	C	0.882423	-0.115648	-0.740038
C96	C	1.382423	0.384352	-0.240038
C97	C	0.909895	-0.085035	-0.347510
C98	C	1.409895	0.414965	0.152490
C99	C	0.905936	-0.089445	-0.260101
C100	C	1.405936	0.410555	0.239899
C101	C	1.007361	0.023528	-0.260072
C102	C	1.507361	0.523528	0.239928
C103	C	1.011324	0.027934	-0.347477
C104	C	1.511324	0.527934	0.152523
C105	C	0.962588	-0.026344	-0.391191
C106	C	1.462588	0.473656	0.108809
N107	N	0.923137	-0.070291	-0.519570
N108	N	1.423137	0.429709	-0.019570
N109	N	0.966639	-0.021830	-0.480532
N110	N	1.466639	0.478170	0.019468
N111	N	0.935124	-0.056958	0.216280
N112	N	1.435124	0.443042	0.716280
H113	H	0.327169	-0.149465	-0.000084
H114	H	0.827169	0.350535	0.499916
H115	H	0.176737	-0.156592	-0.000077
H116	H	0.676737	0.343408	0.499923
H117	H	1.086074	0.742055	-0.000064
H118	H	1.586074	1.242055	0.499936
H119	H	0.544731	-0.203014	-0.000064
H120	H	1.044731	0.296986	0.499936
O121	O	0.862484	-0.137661	-0.390009
O122	O	1.362484	0.362339	0.109991
C123	C	0.759588	-0.156090	-0.488753
C124	C	1.259588	0.343910	0.011247
C125	C	0.813216	-0.096401	-0.440653
C126	C	1.313216	0.403599	0.059347
H127	H	0.719753	-0.122754	-0.529722
H128	H	1.219753	0.377246	-0.029722
H129	H	0.721195	-0.198794	-0.442555
H130	H	1.221195	0.301206	0.057445
H131	H	0.798162	-0.190916	-0.529635
H132	H	1.298162	0.309084	-0.029635
H133	H	0.774704	-0.061521	-0.399769
H134	H	1.274704	0.438479	0.100231
H135	H	0.851615	-0.053750	-0.486895
H136	H	1.351615	0.446250	0.013105
H137	H	0.194614	0.103762	-0.000067
H138	H	0.694614	0.603762	0.499933
O139	O	0.813869	0.695318	-0.000110
O140	O	1.313869	1.195318	0.499890
C141	C	0.672235	0.658967	-0.000077
C142	C	1.172235	1.158967	0.499923
C143	C	0.754850	0.629658	-0.000045
C144	C	1.254850	1.129658	0.499955
H145	H	0.624495	0.605896	-0.000007
H146	H	1.124495	1.105896	0.499993
H147	H	0.668111	0.699248	-0.058203
H148	H	1.168111	1.199248	0.441797
H149	H	0.662937	0.693462	0.058019
H150	H	1.162937	1.193462	0.558019
H151	H	0.764203	0.595130	-0.058102
H152	H	1.264203	1.095130	0.441898
H153	H	0.758935	0.589418	0.058119
H154	H	1.258935	1.089418	0.558119
H155	H	0.713050	0.064464	-0.000033
H156	H	1.213050	0.564464	0.499967
O157	O	0.556998	0.068378	-0.000003
O158	O	1.056998	0.568378	0.499997
C159	C	0.575536	0.211129	-0.000024
C160	C	1.075536	0.711129	0.499976
C161	C	0.615679	0.134329	-0.000058
C162	C	1.115679	0.634329	0.499942
H163	H	0.622962	0.264470	-0.000087
H164	H	1.122962	0.764470	0.499913
H165	H	0.534352	0.210002	0.058098
H166	H	1.034352	0.710002	0.558098
H167	H	0.539567	0.215770	-0.058124
H168	H	1.039567	0.715770	0.441876
H169	H	0.651689	0.129639	0.058002
H170	H	1.151689	0.629639	0.558002
H171	H	0.656816	0.135489	-0.058219
H172	H	1.156816	0.635489	0.441781
H173	H	0.863026	-0.137243	-0.224535
H174	H	1.363026	0.362757	0.275465
O175	O	1.075875	0.212468	-0.000198
O176	O	1.575875	0.712468	0.499802
C177	C	1.203830	0.215167	-0.072121
C178	C	1.703830	0.715167	0.427879
C179	C	1.121224	0.244502	-0.072060
C180	C	1.621224	0.744502	0.427940
H181	H	1.240524	0.241068	-0.130207
H182	H	1.740524	0.741068	0.369793
H183	H	1.196896	0.147633	-0.072173
H184	H	1.696896	0.647633	0.427827
H185	H	1.235245	0.235129	-0.013987
H186	H	1.735245	0.735129	0.486013
H187	H	1.089764	0.224597	-0.130184
H188	H	1.589764	0.724597	0.369816
H189	H	1.128214	0.312034	-0.071965
H190	H	1.628214	0.812034	0.428035
O191	O	1.054808	0.076191	-0.217646
O192	O	1.554808	0.576191	0.282354
C193	C	1.188826	0.129284	-0.190921
C194	C	1.688826	0.629284	0.309079
C195	C	1.135188	0.069587	-0.239002
C196	C	1.635188	0.569587	0.260998
H197	H	1.253824	0.123977	-0.208183
H198	H	1.753824	0.623977	0.291817
H199	H	1.177014	0.116061	-0.120937
H200	H	1.677014	0.616061	0.379063
H201	H	1.175342	0.192057	-0.208094
H202	H	1.675342	0.692057	0.291906
H203	H	1.148641	0.006793	-0.221899
H204	H	1.648641	0.506793	0.278101
H205	H	1.147010	0.082879	-0.308974
H206	H	1.647010	0.582879	0.191026
H207	H	1.019562	0.037108	-0.617006
H208	H	1.519562	0.537108	-0.117006
O209	O	0.352251	0.122509	0.000057
O210	O	0.852251	0.622509	0.500057
C211	C	0.382815	0.242718	0.072031
C212	C	0.882815	0.742718	0.572031
C213	C	0.331824	0.161606	0.071989
C214	C	0.831824	0.661606	0.571989
H215	H	0.366330	0.274344	0.130190
H216	H	0.866330	0.774344	0.630190
H217	H	0.371558	0.280307	0.013960
H218	H	0.871558	0.780307	0.513960
H219	H	0.448355	0.233524	0.071996
H220	H	0.948355	0.733524	0.571996
H221	H	0.266267	0.170726	0.072053
H222	H	0.766267	0.670726	0.572053
H223	H	0.343149	0.124044	0.130054
H224	H	0.843149	0.624044	0.630054
H225	H	1.051959	0.364203	-0.000056
H226	H	1.551959	0.864203	0.499944
O227	O	1.109994	0.590313	-0.000208
O228	O	1.609994	1.090313	0.499792
C229	C	1.237958	0.593015	-0.072113
C230	C	1.737958	1.093015	0.427887
C231	C	1.155351	0.622346	-0.072066
C232	C	1.655351	1.122346	0.427934
H233	H	1.274658	0.618915	-0.130195
H234	H	1.774658	1.118915	0.369805
H235	H	1.231027	0.525481	-0.072162
H236	H	1.731027	1.025481	0.427838
H237	H	1.269365	0.612980	-0.013976
H238	H	1.769365	1.112980	0.486024
H239	H	1.123899	0.602439	-0.130193
H240	H	1.623899	1.102439	0.369807
H241	H	1.162337	0.689878	-0.071973
H242	H	1.662337	1.189878	0.428027
H243	H	0.835552	-0.167848	-0.617059
H244	H	1.335552	0.332152	-0.117059
H245	H	0.837818	0.543668	-0.000069
H246	H	1.337818	1.043668	0.499931
H247	H	0.791612	0.313414	-0.000060
H248	H	1.291612	0.813414	0.499940
H249	H	0.842743	-0.159847	-0.775631
H250	H	1.342743	0.340153	-0.275631
H251	H	0.695174	-0.195887	-0.000050
H252	H	1.195174	0.304113	0.499950
H253	H	1.054230	0.075725	-0.383045
H254	H	1.554230	0.575725	0.116955
H255	H	0.803702	0.165817	-0.000052
H256	H	1.303702	0.665817	0.499948
H257	H	1.026763	0.045110	-0.775568
H258	H	1.526763	0.545110	-0.275568
