data_functionalizedCrystal
_audit_creation_method	'MofGen! by Chris Wilmer'
_symmetry_space_group_name_H-M	'P1'
_symmetry_Int_Tables_number	1
_symmetry_cell_setting	triclinic
loop_
_symmetry_equiv_pos_as_xyz
  x,y,z
_cell_length_a	16.109301
_cell_length_b	16.109304
_cell_length_c	15.186229
_cell_angle_alpha	90.000934
_cell_angle_beta	90.000994
_cell_angle_gamma	83.462111
loop_
_atom_site_label
_atom_site_type_symbol
_atom_site_fract_x
_atom_site_fract_y
_atom_site_fract_z
O1	O	1.103132	0.106867	0.073175
O2	O	0.861070	0.120166	0.073186
O3	O	0.988749	-0.007514	0.073181
O4	O	0.975452	0.234547	0.073180
O5	O	0.988741	-0.007516	-0.073277
O6	O	0.861061	0.120164	-0.073271
O7	O	1.103123	0.106865	-0.073283
Zn8	Zn	0.982091	0.113514	-0.096530
Zn9	Zn	0.982102	0.113517	0.096434
O10	O	0.975444	0.234545	-0.073277
C11	C	0.830091	0.119626	-0.000041
C12	C	0.737795	0.118011	-0.000036
C13	C	0.988206	-0.038490	-0.000046
C14	C	0.986590	-0.130785	-0.000040
C15	C	0.428798	0.188494	-0.000052
C16	C	0.515518	0.190020	-0.000046
C17	C	0.535390	0.038531	-0.000034
C18	C	0.448671	0.037007	-0.000033
C19	C	0.395377	0.111991	-0.000046
C20	C	0.568816	0.115040	-0.000042
C21	C	0.662842	0.116694	-0.000037
C22	C	0.301345	0.110338	-0.000050
C23	C	0.982861	-0.343122	0.079791
C24	C	0.981335	-0.429842	0.079790
C25	C	0.981330	-0.429841	-0.079886
C26	C	0.982850	-0.343121	-0.079884
C27	C	0.983620	-0.299765	-0.000043
C28	C	0.980573	-0.473204	-0.000046
C29	C	0.978919	-0.567230	-0.000047
C30	C	0.985273	-0.205733	-0.000041
C31	C	1.134102	0.107405	-0.000054
C32	C	1.226398	0.109020	-0.000053
C33	C	0.975987	0.265521	-0.000048
C34	C	0.977603	0.357816	-0.000049
N35	N	0.982089	0.113512	-0.228223
C36	C	1.038645	0.056994	-0.453948
C37	C	1.038647	0.056992	-0.546138
C38	C	0.925549	0.170033	-0.546142
C39	C	0.925543	0.170030	-0.453954
C40	C	0.982095	0.113512	-0.407859
C41	C	0.982104	0.113513	-0.592237
C42	C	0.982106	0.113511	-0.692193
C43	C	0.982092	0.113512	-0.307897
N44	N	0.982110	0.113512	0.228126
H45	H	0.385408	0.249551	-0.000062
C46	C	0.552278	0.274173	-0.000057
H47	H	0.508115	0.318609	-0.000071
H48	H	0.585693	0.277926	0.051015
H49	H	0.585693	0.277910	-0.051137
H50	H	0.980715	-0.465139	0.144799
C51	C	0.594015	-0.043944	-0.000032
H52	H	0.650449	-0.032081	-0.000044
H53	H	0.583889	-0.075316	0.051041
H54	H	0.583881	-0.075315	-0.051111
C55	C	0.863353	0.232205	-0.596848
H56	H	0.871461	0.224119	-0.658354
H57	H	0.807869	0.223164	-0.581749
H58	H	0.872374	0.287697	-0.581733
H59	H	0.983485	-0.307823	0.144802
H60	H	0.980705	-0.465153	-0.144889
H61	H	0.983463	-0.307819	-0.144898
C62	C	0.863343	0.232207	-0.403249
H63	H	0.871436	0.224105	-0.341744
H64	H	0.872359	0.287697	-0.418352
H65	H	0.807856	0.223161	-0.418359
H66	H	1.084692	0.010973	-0.416420
H67	H	0.421460	-0.025296	-0.000026
H68	H	1.084694	0.010970	-0.583661
