data_functionalizedCrystal
_audit_creation_method	'MofGen! by Chris Wilmer'
_symmetry_space_group_name_H-M	'P1'
_symmetry_Int_Tables_number	1
_symmetry_cell_setting	triclinic
loop_
_symmetry_equiv_pos_as_xyz
  x,y,z
_cell_length_a	17.077404
_cell_length_b	17.077402
_cell_length_c	17.077396
_cell_angle_alpha	90.027528
_cell_angle_beta	90.018362
_cell_angle_gamma	90.021463
loop_
_atom_site_label
_atom_site_type_symbol
_atom_site_fract_x
_atom_site_fract_y
_atom_site_fract_z
Zn1	Zn	1.200051	-0.312551	0.443824
Zn2	Zn	1.199957	-0.443826	0.312560
Zn3	Zn	1.068783	-0.312573	0.312575
Zn4	Zn	1.068750	-0.443774	0.443786
O5	O	1.134385	-0.378181	0.378186
O6	O	1.309886	-0.329977	0.426421
O7	O	1.182531	-0.426446	0.202715
O8	O	1.086250	-0.202723	0.330007
O9	O	1.309816	-0.426424	0.329982
O10	O	1.182692	-0.202707	0.426435
O11	O	1.086158	-0.330015	0.202726
O12	O	0.958932	-0.329965	0.329970
O13	O	1.086193	-0.426336	0.553638
O14	O	0.958907	-0.426357	0.426371
O15	O	1.182659	-0.329927	0.553666
O16	O	1.182499	-0.553666	0.329946
O17	O	1.086101	-0.553628	0.426357
C18	C	0.930437	-0.378158	0.378169
C19	C	0.843188	-0.378168	0.378180
C20	C	0.802234	-0.328037	0.428472
C21	C	0.720254	-0.328042	0.428476
C22	C	0.679228	-0.378183	0.378190
C23	C	0.720187	-0.428315	0.327892
C24	C	0.802166	-0.428306	0.327885
C25	C	0.549317	-0.428333	0.327912
C26	C	0.467333	-0.428344	0.327920
C27	C	0.467405	-0.328070	0.428502
C28	C	0.549384	-0.328060	0.428495
C29	C	0.590337	-0.378194	0.378198
C30	C	1.134307	-0.582129	0.378163
C31	C	1.134346	-0.669378	0.378179
C32	C	1.184536	-0.710292	0.428430
C33	C	1.184569	-0.792273	0.428447
C34	C	1.134415	-0.833338	0.378208
C35	C	1.084220	-0.792418	0.327955
C36	C	1.084183	-0.710439	0.327943
C37	C	1.084300	-0.963288	0.327983
C38	C	1.084337	-1.045273	0.327994
C39	C	1.184686	-1.045122	0.428486
C40	C	1.184649	-0.963143	0.428474
C41	C	1.134455	-0.922229	0.378220
C42	C	1.339130	-0.378204	0.378204
C43	C	1.426379	-0.378213	0.378212
C44	C	1.134433	-0.378123	0.582931
C45	C	1.134453	-0.378098	0.670181
C46	C	1.134485	-0.173436	0.378227
C47	C	1.134527	-0.086187	0.378244
C48	C	1.134383	-0.378182	0.174238
C49	C	1.134515	-0.377985	0.086989
C50	C	1.184685	-0.327894	0.711186
C51	C	1.184694	-0.327868	0.793167
C52	C	1.134475	-0.378051	0.834140
C53	C	1.084238	-0.428257	0.793128
C54	C	1.084225	-0.428279	0.711149
C55	C	1.084269	-0.428210	0.963999
C56	C	1.084283	-0.428190	1.045983
C57	C	1.184739	-0.327799	1.046016
C58	C	1.184726	-0.327821	0.964037
C59	C	1.134489	-0.378028	0.923031
H60	H	0.686778	-0.469137	0.286945
C61	C	1.239304	-0.273537	0.666662
C62	C	1.289604	-0.317997	0.619610
C63	C	1.339934	-0.267947	0.578592
H64	H	1.209376	-0.239326	0.634621
H65	H	1.269266	-0.243644	0.702802
H66	H	1.259645	-0.347876	0.583474
H67	H	1.319549	-0.352206	0.651631
H68	H	1.369896	-0.238054	0.614732
H69	H	1.310000	-0.233738	0.546556
H70	H	1.374073	-0.298106	0.546668
H71	H	1.225556	-1.078438	0.469406
H72	H	1.225600	-0.286988	0.826550
C73	C	1.239280	-0.273252	0.919691
C74	C	1.283263	-0.229262	0.973146
C75	C	1.333517	-0.178977	0.932324
H76	H	1.273530	-0.303207	0.887707
H77	H	1.209279	-0.239014	0.887731
H78	H	1.313262	-0.263496	1.005093
H79	H	1.249034	-0.199292	1.005133
H80	H	1.303516	-0.144739	0.900364
H81	H	1.367762	-0.208937	0.900341
H82	H	1.363360	-0.149118	0.968587
C83	C	1.029843	-0.482838	0.837653
C84	C	1.074273	-0.533159	0.884697
C85	C	1.024192	-0.583458	0.925715
H86	H	0.995646	-0.452889	0.869700
H87	H	0.999936	-0.512787	0.801514
H88	H	1.104166	-0.503213	0.920832
H89	H	1.108467	-0.563125	0.852670
H90	H	0.994286	-0.613407	0.889576
H91	H	0.989998	-0.553503	0.957757
H92	H	1.054331	-0.617611	0.957633
C93	C	1.239186	-0.273304	1.090674
C94	C	1.228429	-0.284002	1.171237
C95	C	1.278561	-0.233809	1.212404
H96	H	1.291954	-0.284747	1.077346
H97	H	1.227708	-0.220551	1.077286
H98	H	1.239913	-0.336743	1.184620
H99	H	1.175671	-0.272553	1.184589
H100	H	1.267083	-0.181055	1.199016
H101	H	1.331327	-0.245256	1.199069
H102	H	1.271265	-0.241055	1.267070
H103	H	1.225380	-0.676863	0.469336
C104	C	0.422692	-0.482649	0.273271
C105	C	0.375603	-0.438136	0.223062
C106	C	0.334463	-0.488135	0.172714
H107	H	0.458734	-0.512517	0.243237
H108	H	0.390670	-0.516885	0.303215
H109	H	0.407622	-0.403914	0.193121
H110	H	0.339546	-0.408270	0.253075
H111	H	0.302441	-0.522371	0.202659
H112	H	0.370511	-0.518001	0.142686
H113	H	0.302503	-0.457941	0.138647
H114	H	1.225492	-0.929708	0.469378
C115	C	1.029721	-0.837101	0.273536
C116	C	0.979418	-0.884197	0.317941
C117	C	0.929213	-0.925377	0.267834
H118	H	0.999749	-0.801082	0.243588
H119	H	1.059764	-0.869122	0.239378
H120	H	0.949379	-0.852180	0.352085
H121	H	1.009370	-0.920231	0.347887
H122	H	0.959255	-0.957397	0.233675
H123	H	0.899245	-0.889352	0.237889
H124	H	0.895081	-0.957341	0.297954
H125	H	1.043388	-0.469051	1.079341
H126	H	1.043349	-0.469082	0.930614
C127	C	1.029751	-1.089823	0.273553
C128	C	0.952065	-1.069959	0.290594
C129	C	0.901758	-1.110993	0.240468
H130	H	1.041151	-1.076449	0.220789
H131	H	1.036916	-1.144512	0.280768
H132	H	0.944903	-1.015282	0.283373
H133	H	0.940640	-1.083335	0.343350
H134	H	0.908923	-1.165682	0.247683
H135	H	0.913165	-1.097616	0.187706
H136	H	0.849042	-1.097526	0.252028
C137	C	1.029659	-0.666156	0.273300
C138	C	0.985757	-0.719663	0.229292
C139	C	0.935523	-0.678900	0.178943
H140	H	0.995357	-0.634185	0.303210
H141	H	1.059671	-0.634188	0.239077
H142	H	0.955747	-0.751619	0.263511
H143	H	1.020038	-0.751636	0.199367
H144	H	0.965535	-0.646931	0.144719
H145	H	0.901227	-0.646931	0.208858
H146	H	0.905735	-0.715198	0.149072
H147	H	1.043313	-0.469152	0.677764
H148	H	0.434057	-0.287247	0.469455
H149	H	0.582659	-0.469156	0.286953
C150	C	0.846631	-0.273514	0.483102
C151	C	0.793215	-0.229599	0.527131
C152	C	0.834082	-0.179354	0.577457
H153	H	0.878619	-0.303494	0.517319
H154	H	0.878592	-0.239227	0.453150
H155	H	0.761268	-0.263881	0.557081
H156	H	0.761225	-0.199602	0.492935
H157	H	0.866043	-0.145067	0.547505
H158	H	0.866068	-0.209341	0.611669
H159	H	0.797845	-0.149546	0.607332
C160	C	0.846775	-0.482650	0.273313
C161	C	0.927349	-0.471895	0.284053
C162	C	0.968465	-0.521935	0.233784
H163	H	0.833427	-0.535441	0.284659
H164	H	0.833365	-0.471088	0.220576
H165	H	0.940753	-0.483464	0.336778
H166	H	0.940720	-0.419115	0.272702
H167	H	0.955055	-0.510372	0.181046
H168	H	0.955111	-0.574722	0.245133
H169	H	1.023138	-0.514639	0.241059
C170	C	1.238939	-0.836728	0.483100
C171	C	1.194496	-0.883781	0.533405
C172	C	1.244559	-0.924732	0.583771
H173	H	1.273188	-0.868763	0.453198
H174	H	1.268790	-0.800549	0.513056
H175	H	1.164659	-0.919955	0.503451
H176	H	1.160249	-0.851765	0.563323
H177	H	1.274410	-0.888553	0.613728
H178	H	1.278806	-0.956763	0.553863
H179	H	1.214412	-0.956657	0.617914
C180	C	0.675693	-0.273745	0.483132
C181	C	0.628623	-0.318262	0.533354
C182	C	0.587557	-0.268268	0.583710
H183	H	0.711780	-0.243870	0.513156
H184	H	0.643665	-0.239515	0.453194
H185	H	0.660648	-0.352479	0.563289
H186	H	0.592521	-0.348136	0.503352
H187	H	0.555529	-0.234038	0.553772
H188	H	0.623649	-0.238395	0.613729
H189	H	0.555609	-0.298465	0.617787
H190	H	0.582785	-0.287236	0.469447
H191	H	1.043423	-0.929978	0.287063
