data_functionalizedCrystal
_audit_creation_method	'MofGen! by Chris Wilmer'
_symmetry_space_group_name_H-M	'P1'
_symmetry_Int_Tables_number	1
_symmetry_cell_setting	triclinic
loop_
_symmetry_equiv_pos_as_xyz
  x,y,z
_cell_length_a	19.077068
_cell_length_b	19.077267
_cell_length_c	19.076919
_cell_angle_alpha	85.333063
_cell_angle_beta	94.470751
_cell_angle_gamma	90.063967
loop_
_atom_site_label
_atom_site_type_symbol
_atom_site_fract_x
_atom_site_fract_y
_atom_site_fract_z
Zn1	Zn	-0.337166	-1.047524	-0.369401
Zn2	Zn	-0.003832	-0.714190	-0.036067
Zn3	Zn	0.329501	-0.380857	0.297266
Zn4	Zn	-0.450316	-1.047437	-0.256249
Zn5	Zn	-0.116982	-0.714103	0.077085
Zn6	Zn	0.216351	-0.380770	0.410418
Zn7	Zn	-0.328092	-0.934761	-0.255885
Zn8	Zn	0.005241	-0.601428	0.077448
Zn9	Zn	0.338574	-0.268095	0.410782
Zn10	Zn	-0.450276	-0.924869	-0.378825
Zn11	Zn	-0.116942	-0.591536	-0.045492
Zn12	Zn	0.216391	-0.258203	0.287842
O13	O	-0.391462	-0.988648	-0.315090
O14	O	-0.058129	-0.655314	0.018243
O15	O	0.275204	-0.321981	0.351577
O16	O	-0.355990	-1.145999	-0.350599
O17	O	-0.022656	-0.812665	-0.017266
O18	O	0.310677	-0.479332	0.316068
O19	O	-0.430322	-1.036593	-0.157395
O20	O	-0.096989	-0.703260	0.175938
O21	O	0.236345	-0.369927	0.509272
O22	O	-0.230808	-0.953896	-0.266847
O23	O	0.102525	-0.620562	0.066487
O24	O	0.435859	-0.287229	0.399820
O25	O	-0.439120	-1.145935	-0.267467
O26	O	-0.105787	-0.812601	0.065867
O27	O	0.227546	-0.479268	0.399200
O28	O	-0.237474	-1.036742	-0.350246
O29	O	0.095859	-0.703408	-0.016913
O30	O	0.429192	-0.370075	0.316420
O31	O	-0.340525	-0.953811	-0.157128
O32	O	-0.007192	-0.620478	0.176206
O33	O	0.326142	-0.287145	0.509539
O34	O	-0.340486	-0.834963	-0.275985
O35	O	-0.007153	-0.501629	0.057348
O36	O	0.326181	-0.168296	0.390682
O37	O	-0.439052	-0.937037	-0.476380
O38	O	-0.105719	-0.603703	-0.143047
O39	O	0.227615	-0.270370	0.190286
O40	O	-0.430254	-0.827695	-0.366309
O41	O	-0.096920	-0.494362	-0.032975
O42	O	0.236413	-0.161029	0.300358
O43	O	-0.355951	-1.027150	-0.469456
O44	O	-0.022617	-0.693817	-0.136123
O45	O	0.310716	-0.360483	0.197210
O46	O	-0.548798	-1.027002	-0.276605
O47	O	-0.215465	-0.693668	0.056728
O48	O	0.117868	-0.360335	0.390061
O49	O	-0.548769	-0.936952	-0.366662
O50	O	-0.215436	-0.603619	-0.033328
O51	O	0.117898	-0.270285	0.300005
C52	C	-0.384381	-0.805793	-0.322130
C53	C	-0.051048	-0.472459	0.011203
C54	C	0.282285	-0.139126	0.344536
C55	C	-0.381370	-0.727565	-0.325160
C56	C	-0.048036	-0.394232	0.008173
C57	C	0.285297	-0.060898	0.341507
C58	C	-0.423161	-0.690783	-0.283230
C59	C	-0.089828	-0.357450	0.050103
C60	C	0.243506	-0.024116	0.383436
C61	C	-0.420332	-0.617280	-0.286086
C62	C	-0.086998	-0.283946	0.047247
C63	C	0.246335	0.049387	0.380581
C64	C	-0.375707	-0.580559	-0.330868
C65	C	-0.042374	-0.247226	0.002465
C66	C	0.290960	0.086107	0.335798
C67	C	-0.333914	-0.617346	-0.372803
C68	C	-0.000581	-0.284013	-0.039469
C69	C	0.332752	0.049320	0.293864
C70	C	-0.336748	-0.690848	-0.369950
C71	C	-0.003415	-0.357515	-0.036617
C72	C	0.329919	-0.024182	0.296717
C73	C	-0.362603	-0.360735	-0.344052
C74	C	-0.029270	-0.027402	-0.010719
C75	C	0.304063	0.305932	0.322615
C76	C	-0.359772	-0.287228	-0.346900
C77	C	-0.026438	0.046105	-0.013567
C78	C	0.306895	0.379438	0.319767
C79	C	-0.446190	-0.287166	-0.260184
C80	C	-0.112857	0.046167	0.073149
C81	C	0.220477	0.379500	0.406483
C82	C	-0.449016	-0.360670	-0.257332
C83	C	-0.115683	-0.027337	0.076001
C84	C	0.217650	0.305997	0.409334
C85	C	-0.407226	-0.397450	-0.299269
C86	C	-0.073893	-0.064117	0.034064
C87	C	0.259440	0.269216	0.367397
N88	N	-0.372813	-0.505427	-0.333787
N89	N	-0.039479	-0.172094	-0.000453
N90	N	0.293854	0.161240	0.332880
N91	N	-0.410125	-0.472581	-0.296354
N92	N	-0.076792	-0.139248	0.036979
N93	N	0.256541	0.194086	0.370313
C94	C	-0.574322	-0.980913	-0.322710
C95	C	-0.240988	-0.647579	0.010623
C96	C	0.092345	-0.314246	0.343956
C97	C	-0.652553	-0.977667	-0.325991
C98	C	-0.319220	-0.644333	0.007342
C99	C	0.014113	-0.311000	0.340675
C100	C	-0.689301	-1.023059	-0.280681
C101	C	-0.355968	-0.689726	0.052652
C102	C	-0.022635	-0.356393	0.385985
C103	C	-0.762808	-1.020010	-0.283771
C104	C	-0.429475	-0.686677	0.049562
C105	C	-0.096142	-0.353344	0.382895
C106	C	-0.799566	-0.971565	-0.332168
C107	C	-0.466232	-0.638232	0.001165
C108	C	-0.132899	-0.304899	0.334498
C109	C	-0.762813	-0.926171	-0.377483
C110	C	-0.429479	-0.592837	-0.044150
C111	C	-0.096146	-0.259504	0.289183
C112	C	-0.689307	-0.929223	-0.374396
C113	C	-0.355974	-0.595890	-0.041063
C114	C	-0.022641	-0.262557	0.292271
C115	C	-1.019404	-0.957407	-0.346429
C116	C	-0.686071	-0.624074	-0.013095
C117	C	-0.352738	-0.290740	0.320238
C118	C	-1.092915	-0.954356	-0.349511
C119	C	-0.759581	-0.621023	-0.016177
C120	C	-0.426248	-0.287690	0.317156
C121	C	-1.092905	-1.048197	-0.255799
C122	C	-0.759572	-0.714864	0.077534
C123	C	-0.426239	-0.381531	0.410867
C124	C	-1.019398	-1.051243	-0.252714
C125	C	-0.686065	-0.717910	0.080620
C126	C	-0.352732	-0.384576	0.413953
C127	C	-0.982652	-1.005851	-0.298031
C128	C	-0.649319	-0.672518	0.035302
C129	C	-0.315985	-0.339184	0.368636
N130	N	-0.874702	-0.968446	-0.335327
N131	N	-0.541368	-0.635113	-0.001993
N132	N	-0.208035	-0.301779	0.331340
N133	N	-0.907518	-1.008974	-0.294876
N134	N	-0.574184	-0.675641	0.038458
N135	N	-0.240851	-0.342307	0.371791
C136	C	-0.207890	-0.996432	-0.307455
C137	C	0.125443	-0.663098	0.025879
C138	C	0.458776	-0.329765	0.359212
C139	C	-0.129663	-0.999749	-0.304201
C140	C	0.203671	-0.666416	0.029132
C141	C	0.537004	-0.333082	0.362466
C142	C	-0.398509	-0.981000	-0.499254
C143	C	-0.065176	-0.647666	-0.165921
C144	C	0.268158	-0.314333	0.167413
C145	C	-0.401512	-0.977740	-0.577734
C146	C	-0.068179	-0.644407	-0.244400
C147	C	0.265155	-0.311074	0.088933
C148	C	-0.398562	-0.172218	-0.308012
C149	C	-0.065229	0.161116	0.025321
C150	C	0.268105	0.494449	0.358654
C151	C	-0.401563	-0.250446	-0.304970
C152	C	-0.068229	0.082887	0.028363
C153	C	0.265104	0.416220	0.361696
C154	C	-0.359658	-1.023124	-0.611000
C155	C	-0.026325	-0.689791	-0.277667
C156	C	0.307009	-0.356457	0.055667
C157	C	-0.362477	-1.020053	-0.684740
C158	C	-0.029143	-0.686720	-0.351407
C159	C	0.304190	-0.353387	-0.018074
C160	C	-0.407153	-0.971602	-0.725213
C161	C	-0.073820	-0.638268	-0.391880
C162	C	0.259514	-0.304935	-0.058546
C163	C	-0.449008	-0.926213	-0.691942
C164	C	-0.115675	-0.592880	-0.358608
C165	C	0.217658	-0.259546	-0.025275
C166	C	-0.446186	-0.929281	-0.618203
C167	C	-0.112852	-0.595948	-0.284869
C168	C	0.220481	-0.262614	0.048464
C169	C	-0.420231	-0.957392	-0.946136
C170	C	-0.086897	-0.624059	-0.612802
C171	C	0.246436	-0.290725	-0.279469
C172	C	-0.423052	-0.954329	-1.019879
C173	C	-0.089719	-0.620996	-0.686546
C174	C	0.243615	-0.287662	-0.353213
C175	C	-0.336519	-1.048169	-1.012673
C176	C	-0.003185	-0.714835	-0.679340
C177	C	0.330148	-0.381502	-0.346006
C178	C	-0.333703	-1.051235	-0.938933
C179	C	-0.000370	-0.717902	-0.605599
C180	C	0.332963	-0.384569	-0.272266
C181	C	-0.375556	-1.005844	-0.905668
C182	C	-0.042222	-0.672511	-0.572335
C183	C	0.291111	-0.339178	-0.239001
N184	N	-0.410037	-0.968463	-0.800587
N185	N	-0.076703	-0.635130	-0.467254
N186	N	0.256630	-0.301796	-0.133921
N187	N	-0.372668	-1.008980	-0.830295
N188	N	-0.039335	-0.675647	-0.496961
N189	N	0.293999	-0.342313	-0.163628
C190	C	-0.384394	-0.996309	-0.131639
C191	C	-0.051061	-0.662976	0.201695
C192	C	0.282273	-0.329642	0.535028
C193	C	-0.381198	-0.999713	-0.053146
C194	C	-0.047865	-0.666379	0.280188
C195	C	0.285469	-0.333046	0.613521
H196	H	-0.454362	-0.587335	-0.251943
H197	H	-0.121029	-0.254002	0.081391
H198	H	0.212304	0.079332	0.414724
H199	H	-0.989491	-0.920446	-0.383326
H200	H	-0.656158	-0.587113	-0.049993
H201	H	-0.322824	-0.253779	0.283340
H202	H	-0.297584	-0.587443	-0.409268
H203	H	0.035750	-0.254109	-0.075935
H204	H	0.369083	0.079224	0.257398
C205	C	-0.803244	-0.872881	-0.430717
C206	C	-0.469910	-0.539547	-0.097384
C207	C	-0.136577	-0.206214	0.235949
H208	H	-0.852284	-0.877557	-0.426062
H209	H	-0.518950	-0.544224	-0.092729
H210	H	-0.185617	-0.210891	0.240605
H211	H	-0.793382	-0.881670	-0.477265
H212	H	-0.460049	-0.548337	-0.143931
H213	H	-0.126716	-0.215004	0.189402
H214	H	-0.789013	-0.826530	-0.421655
H215	H	-0.455680	-0.493196	-0.088322
H216	H	-0.122346	-0.159863	0.245011
H217	H	-0.302716	-0.720795	-0.404093
H218	H	0.030617	-0.387462	-0.070760
H219	H	0.363950	-0.054129	0.262574
H220	H	-0.485382	-0.886760	-0.724901
H221	H	-0.152049	-0.553427	-0.391567
H222	H	0.181285	-0.220094	-0.058234
H223	H	-0.792725	-1.056973	-0.246875
H224	H	-0.459392	-0.723640	0.086459
H225	H	-0.126059	-0.390307	0.419792
H226	H	-0.989472	-1.090691	-0.213305
H227	H	-0.656139	-0.757358	0.120028
H228	H	-0.322805	-0.424024	0.453362
H229	H	-0.659388	-0.892261	-0.411293
H230	H	-0.326054	-0.558928	-0.077960
H231	H	0.007279	-0.225594	0.255374
H232	H	-0.459496	-0.720676	-0.246761
H233	H	-0.126163	-0.387342	0.086572
H234	H	0.207170	-0.054009	0.419906
C235	C	-0.290480	-1.098089	-1.049266
C236	C	0.042853	-0.764756	-0.715932
C237	C	0.376187	-0.431422	-0.382599
H238	H	-0.298553	-1.089321	-1.098978
H239	H	0.034780	-0.755987	-0.765645
H240	H	0.368113	-0.422654	-0.432312
H241	H	-0.302146	-1.145442	-1.035792
H242	H	0.031187	-0.812109	-0.702458
H243	H	0.364520	-0.478776	-0.369125
H244	H	-0.242329	-1.090290	-1.035609
H245	H	0.091005	-0.756957	-0.702276
H246	H	0.424338	-0.423623	-0.368943
C247	C	-1.133328	-1.098129	-0.205960
C248	C	-0.799995	-0.764795	0.127373
C249	C	-0.466661	-0.431462	0.460706
H250	H	-1.182370	-1.089378	-0.214732
H251	H	-0.849037	-0.756045	0.118601
H252	H	-0.515703	-0.422712	0.451934
H253	H	-1.119098	-1.090340	-0.158402
H254	H	-0.785765	-0.757006	0.174932
H255	H	-0.452432	-0.423673	0.508265
H256	H	-1.123462	-1.145481	-0.214011
H257	H	-0.790128	-0.812147	0.119322
H258	H	-0.456795	-0.478814	0.452655
H259	H	-1.122841	-0.914914	-0.388934
H260	H	-0.789508	-0.581581	-0.055600
H261	H	-0.456175	-0.248248	0.277733
C262	C	-0.498102	-0.401057	-0.208070
C263	C	-0.164768	-0.067724	0.125263
C264	C	0.168565	0.265609	0.458596
H265	H	-0.522589	-0.368623	-0.183510
H266	H	-0.189256	-0.035290	0.149824
H267	H	0.144077	0.298044	0.483157
H268	H	-0.471057	-0.432135	-0.175116
H269	H	-0.137724	-0.098801	0.158217
H270	H	0.195610	0.234532	0.491550
H271	H	-0.530950	-0.427323	-0.235197
H272	H	-0.197617	-0.093989	0.098136
H273	H	0.135717	0.239344	0.431470
H274	H	-0.480214	-0.257212	-0.226043
H275	H	-0.146881	0.076121	0.107291
H276	H	0.186452	0.409455	0.440624
C277	C	-0.310510	-1.076418	-0.566486
C278	C	0.022823	-0.743085	-0.233153
C279	C	0.356156	-0.409752	0.100180
H280	H	-0.285982	-1.103001	-0.596863
H281	H	0.047351	-0.769668	-0.263529
H282	H	0.380685	-0.436335	0.069804
H283	H	-0.337514	-1.107141	-0.537659
H284	H	-0.004181	-0.773807	-0.204326
H285	H	0.329153	-0.440474	0.129008
H286	H	-0.277699	-1.051985	-0.537484
H287	H	0.055634	-0.718652	-0.204150
H288	H	0.388968	-0.385319	0.129183
C289	C	-0.472196	-0.901028	-1.064399
C290	C	-0.138863	-0.567695	-0.731065
C291	C	0.194471	-0.234361	-0.397732
H292	H	-0.496714	-0.874430	-1.034027
H293	H	-0.163380	-0.541096	-0.700694
H294	H	0.169953	-0.207763	-0.367360
H295	H	-0.505006	-0.925453	-1.093403
H296	H	-0.171673	-0.592120	-0.760070
H297	H	0.161661	-0.258787	-0.426736
H298	H	-0.445180	-0.870310	-1.093224
H299	H	-0.111847	-0.536977	-0.759891
H300	H	0.221487	-0.203643	-0.426558
C301	C	-0.316441	-1.069979	-0.721330
C302	C	0.016892	-0.736646	-0.387997
C303	C	0.350226	-0.403312	-0.054664
H304	H	-0.289437	-1.099280	-0.686665
H305	H	0.043897	-0.765947	-0.353332
H306	H	0.377230	-0.432614	-0.019999
H307	H	-0.285831	-1.043165	-0.749855
H308	H	0.047503	-0.709831	-0.416522
H309	H	0.380836	-0.376498	-0.083188
H310	H	-0.345659	-1.098305	-0.750037
H311	H	-0.012326	-0.764972	-0.416703
H312	H	0.321008	-0.431639	-0.083370
C313	C	-0.492243	-0.879376	-0.581610
C314	C	-0.158909	-0.546042	-0.248277
C315	C	0.174424	-0.212709	0.085057
H316	H	-0.519264	-0.850089	-0.616274
H317	H	-0.185931	-0.516755	-0.282940
H318	H	0.147402	-0.183422	0.050393
H319	H	-0.463045	-0.851044	-0.552896
H320	H	-0.129712	-0.517711	-0.219563
H321	H	0.203621	-0.184378	0.113771
H322	H	-0.522848	-0.906213	-0.553093
H323	H	-0.189515	-0.572879	-0.219759
H324	H	0.143818	-0.239546	0.113574
H325	H	-0.323427	-0.257333	-0.383365
H326	H	0.009906	0.076000	-0.050031
H327	H	0.343240	0.409334	0.283302
H328	H	-0.297325	-1.090692	-0.905985
H329	H	0.036008	-0.757358	-0.572651
H330	H	0.369342	-0.424025	-0.239318
H331	H	-0.659378	-1.062506	-0.241268
H332	H	-0.326045	-0.729172	0.092065
H333	H	0.007289	-0.395839	0.425398
H334	H	-0.454321	-0.920441	-0.919061
H335	H	-0.120988	-0.587108	-0.585727
H336	H	0.212346	-0.253775	-0.252394
H337	H	-0.328576	-0.390673	-0.378201
H338	H	0.004758	-0.057339	-0.044868
H339	H	0.338091	0.275994	0.288466
