data_functionalizedCrystal
_audit_creation_method	'MofGen! by Chris Wilmer'
_symmetry_space_group_name_H-M	'P1'
_symmetry_Int_Tables_number	1
_symmetry_cell_setting	triclinic
loop_
_symmetry_equiv_pos_as_xyz
  x,y,z
_cell_length_a	25.639242
_cell_length_b	25.639239
_cell_length_c	25.639234
_cell_angle_alpha	90.024905
_cell_angle_beta	90.030783
_cell_angle_gamma	90.033712
loop_
_atom_site_label
_atom_site_type_symbol
_atom_site_fract_x
_atom_site_fract_y
_atom_site_fract_z
Zn1	Zn	-0.799262	0.208252	-0.295762
Zn2	Zn	-0.549262	0.458252	-0.045762
Zn3	Zn	-0.299262	0.708252	0.204238
Zn4	Zn	-0.049262	0.958252	0.454238
Zn5	Zn	-0.799175	0.295680	-0.208327
Zn6	Zn	-0.549175	0.545680	0.041673
Zn7	Zn	-0.299175	0.795680	0.291673
Zn8	Zn	-0.049175	1.045680	0.541673
Zn9	Zn	-0.711828	0.208253	-0.208324
Zn10	Zn	-0.461828	0.458253	0.041676
Zn11	Zn	-0.211828	0.708253	0.291676
Zn12	Zn	0.038172	0.958253	0.541676
Zn13	Zn	-0.711784	0.295651	-0.295714
Zn14	Zn	-0.461784	0.545651	-0.045714
Zn15	Zn	-0.211784	0.795651	0.204286
Zn16	Zn	0.038216	1.045651	0.454286
O17	O	-0.755512	0.251959	-0.252032
O18	O	-0.505512	0.501959	-0.002032
O19	O	-0.255512	0.751959	0.247968
O20	O	-0.005512	1.001959	0.497968
O21	O	-0.872416	0.219861	-0.284185
O22	O	-0.622416	0.469861	-0.034185
O23	O	-0.372416	0.719861	0.215815
O24	O	-0.122416	0.969861	0.465815
O25	O	-0.787570	0.284096	-0.135161
O26	O	-0.537570	0.534096	0.114839
O27	O	-0.287570	0.784096	0.364839
O28	O	-0.037570	1.034096	0.614839
O29	O	-0.723481	0.135088	-0.219942
O30	O	-0.473481	0.385088	0.030058
O31	O	-0.223481	0.635088	0.280058
O32	O	0.026519	0.885088	0.530058
O33	O	-0.872351	0.284095	-0.219946
O34	O	-0.622351	0.534095	0.030054
O35	O	-0.372351	0.784095	0.280054
O36	O	-0.122351	1.034095	0.530054
O37	O	-0.787719	0.135087	-0.284182
O38	O	-0.537719	0.385087	-0.034182
O39	O	-0.287719	0.635087	0.215818
O40	O	-0.037719	0.885087	0.465818
O41	O	-0.723396	0.219863	-0.135159
O42	O	-0.473396	0.469863	0.114841
O43	O	-0.223396	0.719863	0.364841
O44	O	0.026604	0.969863	0.614841
O45	O	-0.638656	0.219835	-0.219896
O46	O	-0.388656	0.469835	0.030104
O47	O	-0.138656	0.719835	0.280104
O48	O	0.111344	0.969835	0.530104
O49	O	-0.723406	0.284044	-0.368886
O50	O	-0.473406	0.534044	-0.118886
O51	O	-0.223406	0.784044	0.131114
O52	O	0.026594	1.034044	0.381114
O53	O	-0.638624	0.284045	-0.284101
O54	O	-0.388624	0.534045	-0.034101
O55	O	-0.138624	0.784045	0.215899
O56	O	0.111376	1.034045	0.465899
O57	O	-0.787676	0.219833	-0.368921
O58	O	-0.537676	0.469833	-0.118921
O59	O	-0.287676	0.719833	0.131079
O60	O	-0.037676	0.969833	0.381079
O61	O	-0.787527	0.368841	-0.219900
O62	O	-0.537527	0.618841	0.030100
O63	O	-0.287527	0.868841	0.280100
O64	O	-0.037527	1.118841	0.530100
O65	O	-0.723321	0.368820	-0.284103
O66	O	-0.473321	0.618820	-0.034103
O67	O	-0.223321	0.868820	0.215897
O68	O	0.026679	1.118820	0.465897
C69	C	-0.619669	0.251937	-0.251993
C70	C	-0.369669	0.501937	-0.001993
C71	C	-0.119669	0.751937	0.248007
C72	C	0.130331	1.001937	0.498007
C73	C	-0.561555	0.251940	-0.251989
C74	C	-0.311555	0.501940	-0.001989
C75	C	-0.061555	0.751940	0.248011
C76	C	0.188445	1.001940	0.498011
C77	C	-0.755546	0.251935	-0.388405
C78	C	-0.505546	0.501935	-0.138405
C79	C	-0.255546	0.751935	0.111595
C80	C	-0.005546	1.001935	0.361595
C81	C	-0.755560	0.251925	-0.446519
C82	C	-0.505560	0.501925	-0.196519
C83	C	-0.255560	0.751925	0.053481
C84	C	-0.005560	1.001925	0.303481
C85	C	-0.755424	0.387801	-0.252008
C86	C	-0.505424	0.637801	-0.002008
C87	C	-0.255424	0.887801	0.247992
C88	C	-0.005424	1.137801	0.497992
C89	C	-0.755434	0.445916	-0.252015
C90	C	-0.505434	0.695916	-0.002015
C91	C	-0.255434	0.945916	0.247985
C92	C	-0.005434	1.195916	0.497985
C93	C	-0.201184	0.285444	-0.285418
C94	C	0.048816	0.535444	-0.035418
C95	C	0.298816	0.785444	0.214582
C96	C	0.548816	1.035444	0.464582
C97	C	-0.146580	0.285447	-0.285425
C98	C	0.103420	0.535447	-0.035425
C99	C	0.353420	0.785447	0.214575
C100	C	0.603420	1.035447	0.464575
O101	O	-0.118337	0.313910	-0.313824
O102	O	0.131663	0.563910	-0.063824
O103	O	0.381663	0.813910	0.186176
O104	O	0.631663	1.063910	0.436176
N105	N	-0.119273	0.251968	-0.252050
N106	N	0.130727	0.501968	-0.002050
N107	N	0.380727	0.751968	0.247950
N108	N	0.630727	1.001968	0.497950
C109	C	-0.146573	0.218480	-0.218670
C110	C	0.103427	0.468480	0.031330
C111	C	0.353427	0.718480	0.281330
C112	C	0.603427	0.968480	0.531330
O113	O	-0.118332	0.190003	-0.190283
O114	O	0.131668	0.440003	0.059717
O115	O	0.381668	0.690003	0.309717
O116	O	0.631668	0.940003	0.559717
C117	C	-0.201176	0.218475	-0.218666
C118	C	0.048824	0.468475	0.031334
C119	C	0.298824	0.718475	0.281334
C120	C	0.548824	0.968475	0.531334
C121	C	-0.228481	0.251960	-0.252039
C122	C	0.021519	0.501960	-0.002039
C123	C	0.271519	0.751960	0.247961
C124	C	0.521519	1.001960	0.497961
C125	C	-0.228489	0.318927	-0.318789
C126	C	0.021511	0.568927	-0.068789
C127	C	0.271511	0.818927	0.181211
C128	C	0.521511	1.068927	0.431211
C129	C	-0.283089	0.318924	-0.318781
C130	C	-0.033089	0.568924	-0.068781
C131	C	0.216911	0.818924	0.181219
C132	C	0.466911	1.068924	0.431219
C133	C	-0.310385	0.285440	-0.285402
C134	C	-0.060385	0.535440	-0.035402
C135	C	0.189615	0.785440	0.214598
C136	C	0.439615	1.035440	0.464598
C137	C	-0.283081	0.251958	-0.252032
C138	C	-0.033081	0.501958	-0.002032
C139	C	0.216919	0.751958	0.247968
C140	C	0.466919	1.001958	0.497968
C141	C	-0.228475	0.184984	-0.185289
C142	C	0.021525	0.434984	0.064711
C143	C	0.271525	0.684984	0.314711
C144	C	0.521525	0.934984	0.564711
C145	C	-0.283082	0.184982	-0.185288
C146	C	-0.033082	0.434982	0.064712
C147	C	0.216918	0.684982	0.314712
C148	C	0.466918	0.934982	0.564712
C149	C	-0.310387	0.218467	-0.218662
C150	C	-0.060387	0.468467	0.031338
C151	C	0.189613	0.718467	0.281338
C152	C	0.439613	0.968467	0.531338
C153	C	-0.364978	0.218471	-0.218645
C154	C	-0.114978	0.468471	0.031355
C155	C	0.135022	0.718471	0.281355
C156	C	0.385022	0.968471	0.531355
N157	N	-0.392285	0.251951	-0.252020
N158	N	-0.142285	0.501951	-0.002020
N159	N	0.107715	0.751951	0.247980
N160	N	0.357715	1.001951	0.497980
C161	C	-0.364989	0.285435	-0.285399
C162	C	-0.114989	0.535435	-0.035399
C163	C	0.135011	0.785435	0.214601
C164	C	0.385011	1.035435	0.464601
C165	C	-0.031902	0.218492	-0.218681
C166	C	0.218098	0.468492	0.031319
C167	C	0.468098	0.718492	0.281319
C168	C	0.718098	0.968492	0.531319
C169	C	0.022700	0.218499	-0.218682
C170	C	0.272700	0.468499	0.031318
C171	C	0.522700	0.718499	0.281318
C172	C	0.772700	0.968499	0.531318
C173	C	0.022689	0.285466	-0.285438
C174	C	0.272689	0.535466	-0.035438
C175	C	0.522689	0.785466	0.214562
C176	C	0.772689	1.035466	0.464562
C177	C	-0.031914	0.285461	-0.285434
C178	C	0.218086	0.535461	-0.035434
C179	C	0.468086	0.785461	0.214566
C180	C	0.718086	1.035461	0.464566
C181	C	-0.059209	0.251971	-0.252056
C182	C	0.190791	0.501971	-0.002056
C183	C	0.440791	0.751971	0.247944
C184	C	0.690791	1.001971	0.497944
C185	C	-0.479654	0.285428	-0.285380
C186	C	-0.229654	0.535428	-0.035380
C187	C	0.020346	0.785428	0.214620
C188	C	0.270346	1.035428	0.464620
C189	C	-0.534259	0.285425	-0.285367
C190	C	-0.284259	0.535425	-0.035367
C191	C	-0.034259	0.785425	0.214633
C192	C	0.215741	1.035425	0.464633
C193	C	-0.534244	0.218456	-0.218614
C194	C	-0.284244	0.468456	0.031386
C195	C	-0.034244	0.718456	0.281386
C196	C	0.215756	0.968456	0.531386
C197	C	-0.479643	0.218461	-0.218624
C198	C	-0.229643	0.468461	0.031376
C199	C	0.020357	0.718461	0.281376
C200	C	0.270357	0.968461	0.531376
C201	C	-0.452349	0.251949	-0.252011
C202	C	-0.202349	0.501949	-0.002011
C203	C	0.047651	0.751949	0.247989
C204	C	0.297651	1.001949	0.497989
O205	O	-0.393256	0.190021	-0.190262
O206	O	-0.143256	0.440021	0.059738
O207	O	0.106744	0.690021	0.309738
O208	O	0.356744	0.940021	0.559738
O209	O	-0.393236	0.313902	-0.313786
O210	O	-0.143236	0.563902	-0.063786
O211	O	0.106764	0.813902	0.186214
O212	O	0.356764	1.063902	0.436214
C213	C	0.108115	0.251979	-0.252065
C214	C	0.358115	0.501979	-0.002065
C215	C	0.608115	0.751979	0.247935
C216	C	0.858115	1.001979	0.497935
C217	C	0.050001	0.251982	-0.252063
C218	C	0.300001	0.501982	-0.002063
C219	C	0.550001	0.751982	0.247937
C220	C	0.800001	1.001982	0.497937
C221	C	-0.755614	0.115586	-0.252067
C222	C	-0.505614	0.365586	-0.002067
C223	C	-0.255614	0.615586	0.247933
C224	C	-0.005614	0.865586	0.497933
C225	C	-0.755658	0.057472	-0.252082
C226	C	-0.505658	0.307472	-0.002082
C227	C	-0.255658	0.557472	0.247918
C228	C	-0.005658	0.807472	0.497918
C229	C	-0.789031	0.806277	-0.218658
C230	C	-0.539031	1.056277	0.031342
C231	C	-0.289031	1.306277	0.281342
C232	C	-0.039031	1.556277	0.531342
C233	C	-0.789051	0.860882	-0.218665
C234	C	-0.539051	1.110882	0.031335
C235	C	-0.289051	1.360882	0.281335
C236	C	-0.039051	1.610882	0.531335
O237	O	-0.817526	0.889117	-0.190277
O238	O	-0.567526	1.139117	0.059723
O239	O	-0.317526	1.389117	0.309723
O240	O	-0.067526	1.639117	0.559723
N241	N	-0.755604	0.888198	-0.252066
N242	N	-0.505604	1.138198	-0.002066
N243	N	-0.255604	1.388198	0.247934
N244	N	-0.005604	1.638198	0.497934
C245	C	-0.722138	0.860907	-0.285467
C246	C	-0.472138	1.110907	-0.035467
C247	C	-0.222138	1.360907	0.214533
C248	C	0.027862	1.610907	0.464533
O249	O	-0.693690	0.889156	-0.313878
O250	O	-0.443690	1.139156	-0.063878
O251	O	-0.193690	1.389156	0.186122
O252	O	0.056310	1.639156	0.436122
C253	C	-0.722120	0.806304	-0.285462
C254	C	-0.472120	1.056304	-0.035462
C255	C	-0.222120	1.306304	0.214538
C256	C	0.027880	1.556304	0.464538
C257	C	-0.755566	0.778990	-0.252055
C258	C	-0.505566	1.028990	-0.002055
C259	C	-0.255566	1.278990	0.247945
C260	C	-0.005566	1.528990	0.497945
C261	C	-0.822475	0.778964	-0.185254
C262	C	-0.572475	1.028964	0.064746
C263	C	-0.322475	1.278964	0.314746
C264	C	-0.072475	1.528964	0.564746
C265	C	-0.822454	0.724363	-0.185246
C266	C	-0.572454	0.974363	0.064754
C267	C	-0.322454	1.224363	0.314754
C268	C	-0.072454	1.474363	0.564754
C269	C	-0.788989	0.697076	-0.218643
C270	C	-0.538989	0.947076	0.031357
C271	C	-0.288989	1.197076	0.281357
C272	C	-0.038989	1.447076	0.531357
C273	C	-0.755545	0.724390	-0.252047
C274	C	-0.505545	0.974390	-0.002047
C275	C	-0.255545	1.224390	0.247953
C276	C	-0.005545	1.474390	0.497953
C277	C	-0.688657	0.779014	-0.318865
C278	C	-0.438657	1.029014	-0.068865
C279	C	-0.188657	1.279014	0.181135
C280	C	0.061343	1.529014	0.431135
C281	C	-0.688643	0.724407	-0.318857
C282	C	-0.438643	0.974407	-0.068857
C283	C	-0.188643	1.224407	0.181143
C284	C	0.061357	1.474407	0.431143
C285	C	-0.722089	0.697094	-0.285450
C286	C	-0.472089	0.947094	-0.035450
C287	C	-0.222089	1.197094	0.214550
C288	C	0.027911	1.447094	0.464550
C289	C	-0.722059	0.642502	-0.285436
C290	C	-0.472059	0.892502	-0.035436
C291	C	-0.222059	1.142502	0.214564
C292	C	0.027941	1.392502	0.464564
N293	N	-0.755507	0.615186	-0.252035
N294	N	-0.505507	0.865186	-0.002035
N295	N	-0.255507	1.115186	0.247965
N296	N	-0.005507	1.365186	0.497965
C297	C	-0.788972	0.642473	-0.218638
C298	C	-0.538972	0.892473	0.031362
C299	C	-0.288972	1.142473	0.281362
C300	C	-0.038972	1.392473	0.531362
C301	C	-0.722177	0.975578	-0.285475
C302	C	-0.472177	1.225578	-0.035475
C303	C	-0.222177	1.475578	0.214525
C304	C	0.027823	1.725578	0.464525
C305	C	-0.722191	1.030180	-0.285477
C306	C	-0.472191	1.280180	-0.035477
C307	C	-0.222191	1.530180	0.214523
C308	C	0.027809	1.780180	0.464523
C309	C	-0.789106	1.030151	-0.218676
C310	C	-0.539106	1.280151	0.031324
C311	C	-0.289106	1.530151	0.281324
C312	C	-0.039106	1.780151	0.531324
C313	C	-0.789089	0.975547	-0.218671
C314	C	-0.539089	1.225547	0.031329
C315	C	-0.289089	1.475547	0.281329
C316	C	-0.039089	1.725547	0.531329
C317	C	-0.755625	0.948261	-0.252073
C318	C	-0.505625	1.198261	-0.002073
C319	C	-0.255625	1.448261	0.247927
C320	C	-0.005625	1.698261	0.497927
C321	C	-0.788925	0.527808	-0.218625
C322	C	-0.538925	0.777808	0.031375
C323	C	-0.288925	1.027808	0.281375
C324	C	-0.038925	1.277808	0.531375
C325	C	-0.788899	0.473202	-0.218618
C326	C	-0.538899	0.723202	0.031382
C327	C	-0.288899	0.973202	0.281382
C328	C	-0.038899	1.223202	0.531382
C329	C	-0.721987	0.473237	-0.285421
C330	C	-0.471987	0.723237	-0.035421
C331	C	-0.221987	0.973237	0.214579
C332	C	0.028013	1.223237	0.464579
C333	C	-0.722010	0.527837	-0.285426
C334	C	-0.472010	0.777837	-0.035426
C335	C	-0.222010	1.027837	0.214574
C336	C	0.027990	1.277837	0.464574
C337	C	-0.755483	0.555121	-0.252026
C338	C	-0.505483	0.805121	-0.002026
C339	C	-0.255483	1.055121	0.247974
C340	C	-0.005483	1.305121	0.497974
O341	O	-0.693601	0.614232	-0.313811
O342	O	-0.443601	0.864232	-0.063811
O343	O	-0.193601	1.114232	0.186189
O344	O	0.056399	1.364232	0.436189
O345	O	-0.817419	0.614218	-0.190236
O346	O	-0.567419	0.864218	0.059764
O347	O	-0.317419	1.114218	0.309764
O348	O	-0.067419	1.364218	0.559764
C349	C	-0.722160	0.218417	-0.806887
C350	C	-0.472160	0.468417	-0.556887
C351	C	-0.222160	0.718417	-0.306887
C352	C	0.027840	0.968417	-0.056887
C353	C	-0.722163	0.218407	-0.861491
C354	C	-0.472163	0.468407	-0.611491
C355	C	-0.222163	0.718407	-0.361491
C356	C	0.027837	0.968407	-0.111491
O357	O	-0.693738	0.189975	-0.889732
O358	O	-0.443738	0.439975	-0.639732
O359	O	-0.193738	0.689975	-0.389732
O360	O	0.056262	0.939975	-0.139732
N361	N	-0.755578	0.251843	-0.888802
N362	N	-0.505578	0.501843	-0.638802
N363	N	-0.255578	0.751843	-0.388802
N364	N	-0.005578	1.001843	-0.138802
C365	C	-0.788989	0.285294	-0.861505
C366	C	-0.538989	0.535294	-0.611505
C367	C	-0.288989	0.785294	-0.361505
C368	C	-0.038989	1.035294	-0.111505
O369	O	-0.817411	0.313733	-0.889749
O370	O	-0.567411	0.563733	-0.639749
O371	O	-0.317411	0.813733	-0.389749
O372	O	-0.067411	1.063733	-0.139749
C373	C	-0.788983	0.285306	-0.806902
C374	C	-0.538983	0.535306	-0.556902
C375	C	-0.288983	0.785306	-0.306902
C376	C	-0.038983	1.035306	-0.056902
C377	C	-0.755569	0.251864	-0.779594
C378	C	-0.505569	0.501864	-0.529594
C379	C	-0.255569	0.751864	-0.279594
C380	C	-0.005569	1.001864	-0.029594
C381	C	-0.688749	0.184978	-0.779579
C382	C	-0.438749	0.434978	-0.529579
C383	C	-0.188749	0.684978	-0.279579
C384	C	0.061251	0.934978	-0.029579
C385	C	-0.688747	0.184987	-0.724978
C386	C	-0.438747	0.434987	-0.474978
C387	C	-0.188747	0.684987	-0.224978
C388	C	0.061253	0.934987	0.025022
C389	C	-0.722156	0.218435	-0.697686
C390	C	-0.472156	0.468435	-0.447686
C391	C	-0.222156	0.718435	-0.197686
C392	C	0.027844	0.968435	0.052314
C393	C	-0.755567	0.251873	-0.724993
C394	C	-0.505567	0.501873	-0.474993
C395	C	-0.255567	0.751873	-0.224993
C396	C	-0.005567	1.001873	0.025007
C397	C	-0.822390	0.318759	-0.779606
C398	C	-0.572390	0.568759	-0.529606
C399	C	-0.322390	0.818759	-0.279606
C400	C	-0.072390	1.068759	-0.029606
C401	C	-0.822381	0.318768	-0.724999
C402	C	-0.572381	0.568768	-0.474999
C403	C	-0.322381	0.818768	-0.224999
C404	C	-0.072381	1.068768	0.025001
C405	C	-0.788968	0.285326	-0.697691
C406	C	-0.538968	0.535326	-0.447691
C407	C	-0.288968	0.785326	-0.197691
C408	C	-0.038968	1.035326	0.052309
C409	C	-0.788974	0.285329	-0.643100
C410	C	-0.538974	0.535329	-0.393100
C411	C	-0.288974	0.785329	-0.143100
C412	C	-0.038974	1.035329	0.106900
N413	N	-0.755559	0.251894	-0.615789
N414	N	-0.505559	0.501894	-0.365789
N415	N	-0.255559	0.751894	-0.115789
N416	N	-0.005559	1.001894	0.134211
C417	C	-0.722150	0.218446	-0.643082
C418	C	-0.472150	0.468446	-0.393082
C419	C	-0.222150	0.718446	-0.143082
C420	C	0.027850	0.968446	0.106918
C421	C	-0.788998	0.285267	-0.976176
C422	C	-0.538998	0.535267	-0.726176
C423	C	-0.288998	0.785267	-0.476176
C424	C	-0.038998	1.035267	-0.226176
C425	C	-0.789006	0.285253	-1.030778
C426	C	-0.539006	0.535253	-0.780778
C427	C	-0.289006	0.785253	-0.530778
C428	C	-0.039006	1.035253	-0.280778
C429	C	-0.722180	0.218367	-1.030760
C430	C	-0.472180	0.468367	-0.780760
C431	C	-0.222180	0.718367	-0.530760
C432	C	0.027820	0.968367	-0.280760
C433	C	-0.722174	0.218379	-0.976157
C434	C	-0.472174	0.468379	-0.726157
C435	C	-0.222174	0.718379	-0.476157
C436	C	0.027826	0.968379	-0.226157
C437	C	-0.755583	0.251832	-0.948865
C438	C	-0.505583	0.501832	-0.698865
C439	C	-0.255583	0.751832	-0.448865
C440	C	-0.005583	1.001832	-0.198865
C441	C	-0.722149	0.218467	-0.528417
C442	C	-0.472149	0.468467	-0.278417
C443	C	-0.222149	0.718467	-0.028417
C444	C	0.027851	0.968467	0.221583
C445	C	-0.722151	0.218478	-0.473812
C446	C	-0.472151	0.468478	-0.223812
C447	C	-0.222151	0.718478	0.026188
C448	C	0.027849	0.968478	0.276188
C449	C	-0.788976	0.285365	-0.473834
C450	C	-0.538976	0.535365	-0.223834
C451	C	-0.288976	0.785365	0.026166
C452	C	-0.038976	1.035365	0.276166
C453	C	-0.788975	0.285353	-0.528435
C454	C	-0.538975	0.535353	-0.278435
C455	C	-0.288975	0.785353	-0.028435
C456	C	-0.038975	1.035353	0.221565
C457	C	-0.755558	0.251902	-0.555725
C458	C	-0.505558	0.501902	-0.305725
C459	C	-0.255558	0.751902	-0.055725
C460	C	-0.005558	1.001902	0.194275
O461	O	-0.817383	0.313748	-0.614825
O462	O	-0.567383	0.563748	-0.364825
O463	O	-0.317383	0.813748	-0.114825
O464	O	-0.067383	1.063748	0.135175
O465	O	-0.693728	0.190017	-0.614832
O466	O	-0.443728	0.440017	-0.364832
O467	O	-0.193728	0.690017	-0.114832
O468	O	0.056272	0.940017	0.135168
C469	C	-0.755508	0.251945	-0.116189
C470	C	-0.505508	0.501945	0.133811
C471	C	-0.255508	0.751945	0.383811
C472	C	-0.005508	1.001945	0.633811
C473	C	-0.755595	0.251808	-0.058076
C474	C	-0.505595	0.501808	0.191924
C475	C	-0.255595	0.751808	0.441924
C476	C	-0.005595	1.001808	0.691924
H477	H	-0.556488	0.312695	-0.312544
H478	H	-0.306488	0.562695	-0.062544
H479	H	-0.056488	0.812695	0.187456
H480	H	0.193512	1.062695	0.437456
Br481	Br	-0.676754	0.938552	-0.330807
Br482	Br	-0.426754	1.188552	-0.080807
Br483	Br	-0.176754	1.438552	0.169193
Br484	Br	0.073246	1.688552	0.419193
Br485	Br	-0.676574	0.436194	-0.330745
Br486	Br	-0.426574	0.686194	-0.080745
Br487	Br	-0.176574	0.936194	0.169255
Br488	Br	0.073426	1.186194	0.419255
H489	H	-0.457438	0.312696	-0.312568
H490	H	-0.207438	0.562696	-0.062568
H491	H	0.042562	0.812696	0.187432
H492	H	0.292562	1.062696	0.437432
Br493	Br	-0.643393	0.139588	-0.816609
Br494	Br	-0.393393	0.389588	-0.566609
Br495	Br	-0.143393	0.639588	-0.316609
Br496	Br	0.106607	0.889588	-0.066609
H497	H	-0.054123	0.191221	-0.191497
H498	H	0.195877	0.441221	0.058503
H499	H	0.445877	0.691221	0.308503
H500	H	0.695877	0.941221	0.558503
Br501	Br	0.059749	0.173061	-0.173380
Br502	Br	0.309749	0.423061	0.076620
Br503	Br	0.559749	0.673061	0.326620
Br504	Br	0.809749	0.923061	0.576620
Br505	Br	-0.191454	0.364375	-0.364095
Br506	Br	0.058546	0.614375	-0.114095
Br507	Br	0.308546	0.864375	0.135905
Br508	Br	0.558546	1.114375	0.385905
H509	H	-0.661393	0.702193	-0.346059
H510	H	-0.411393	0.952193	-0.096059
H511	H	-0.161393	1.202193	0.153941
H512	H	0.088607	1.452193	0.403941
H513	H	-0.816135	0.450965	-0.191412
H514	H	-0.566135	0.700965	0.058588
H515	H	-0.316135	0.950965	0.308588
H516	H	-0.066135	1.200965	0.558588
H517	H	-0.816183	0.550016	-0.191428
H518	H	-0.566183	0.800016	0.058572
H519	H	-0.316183	1.050016	0.308572
H520	H	-0.066183	1.300016	0.558572
Br521	Br	-0.191433	0.139534	-0.139997
Br522	Br	0.058567	0.389534	0.110003
Br523	Br	0.308567	0.639534	0.360003
Br524	Br	0.558567	0.889534	0.610003
Br525	Br	-0.676804	0.173088	-0.436754
Br526	Br	-0.426804	0.423088	-0.186754
Br527	Br	-0.176804	0.673088	0.063246
Br528	Br	0.073196	0.923088	0.313246
Br529	Br	-0.676606	0.564907	-0.330752
Br530	Br	-0.426606	0.814907	-0.080752
Br531	Br	-0.176606	1.064907	0.169248
Br532	Br	0.073394	1.314907	0.419248
Br533	Br	-0.068964	0.330907	-0.330728
Br534	Br	0.181036	0.580907	-0.080728
Br535	Br	0.431036	0.830907	0.169272
Br536	Br	0.681036	1.080907	0.419272
Br537	Br	-0.676838	0.172974	-1.067811
Br538	Br	-0.426838	0.422974	-0.817811
Br539	Br	-0.176838	0.672974	-0.567811
Br540	Br	0.073162	0.922974	-0.317811
H541	H	-0.556478	0.191196	-0.191436
H542	H	-0.306478	0.441196	0.058564
H543	H	-0.056478	0.691196	0.308564
H544	H	0.193522	0.941196	0.558564
Br545	Br	-0.834481	0.938485	-0.173331
Br546	Br	-0.584481	1.188485	0.076669
Br547	Br	-0.334481	1.438485	0.326669
Br548	Br	-0.084481	1.688485	0.576669
Br549	Br	-0.867855	0.687303	-0.139913
Br550	Br	-0.617855	0.937303	0.110087
Br551	Br	-0.367855	1.187303	0.360087
Br552	Br	-0.117855	1.437303	0.610087
Br553	Br	-0.676791	1.067242	-0.330810
Br554	Br	-0.426791	1.317242	-0.080810
Br555	Br	-0.176791	1.567242	0.169190
Br556	Br	0.073209	1.817242	0.419190
H557	H	-0.694966	0.191148	-0.953927
H558	H	-0.444966	0.441148	-0.703927
H559	H	-0.194966	0.691148	-0.453927
H560	H	0.055034	0.941148	-0.203927
H561	H	-0.849729	0.801175	-0.158058
H562	H	-0.599729	1.051175	0.091942
H563	H	-0.349729	1.301175	0.341942
H564	H	-0.099729	1.551175	0.591942
Br565	Br	-0.834363	0.330632	-1.067832
Br566	Br	-0.584363	0.580632	-0.817832
Br567	Br	-0.334363	0.830632	-0.567832
Br568	Br	-0.084363	1.080632	-0.317832
H569	H	-0.816189	0.312578	-0.550670
H570	H	-0.566189	0.562578	-0.300670
H571	H	-0.316189	0.812578	-0.050670
H572	H	-0.066189	1.062578	0.199330
Br573	Br	-0.320137	0.364369	-0.364078
Br574	Br	-0.070137	0.614369	-0.114078
Br575	Br	0.179863	0.864369	0.135922
Br576	Br	0.429863	1.114369	0.385922
Br577	Br	0.059744	0.330905	-0.330742
Br578	Br	0.309744	0.580905	-0.080742
Br579	Br	0.559744	0.830905	0.169258
Br580	Br	0.809744	1.080905	0.419258
Br581	Br	-0.676799	0.173066	-0.565445
Br582	Br	-0.426799	0.423066	-0.315445
Br583	Br	-0.176799	0.673066	-0.065445
Br584	Br	0.073201	0.923066	0.184555
H585	H	-0.816357	1.052378	-0.191485
H586	H	-0.566357	1.302378	0.058515
H587	H	-0.316357	1.552378	0.308515
H588	H	-0.066357	1.802378	0.558515
H589	H	-0.457411	0.191196	-0.191448
H590	H	-0.207411	0.441196	0.058552
H591	H	0.042589	0.691196	0.308552
H592	H	0.292589	0.941196	0.558552
H593	H	-0.661419	0.801243	-0.346066
H594	H	-0.411419	1.051243	-0.096066
H595	H	-0.161419	1.301243	0.153934
H596	H	0.088581	1.551243	0.403934
H597	H	-0.661536	0.157758	-0.702749
H598	H	-0.411536	0.407758	-0.452749
H599	H	-0.161536	0.657758	-0.202749
H600	H	0.088464	0.907758	0.047251
Br601	Br	-0.320123	0.139527	-0.139989
Br602	Br	-0.070123	0.389527	0.110011
Br603	Br	0.179877	0.639527	0.360011
Br604	Br	0.429877	0.889527	0.610011
Br605	Br	-0.834346	0.330668	-0.939142
Br606	Br	-0.584346	0.580668	-0.689142
Br607	Br	-0.334346	0.830668	-0.439142
Br608	Br	-0.084346	1.080668	-0.189142
H609	H	-0.849599	0.345991	-0.801831
H610	H	-0.599599	0.595991	-0.551831
H611	H	-0.349599	0.845991	-0.301831
H612	H	-0.099599	1.095991	-0.051831
Br613	Br	-0.867721	0.364173	-0.687963
Br614	Br	-0.617721	0.614173	-0.437963
Br615	Br	-0.367721	0.864173	-0.187963
Br616	Br	-0.117721	1.114173	0.062037
Br617	Br	-0.834318	0.330752	-0.436784
Br618	Br	-0.584318	0.580752	-0.186784
Br619	Br	-0.334318	0.830752	0.063216
Br620	Br	-0.084318	1.080752	0.313216
