data_functionalizedCrystal
_audit_creation_method	'MofGen! by Chris Wilmer'
_symmetry_space_group_name_H-M	'P1'
_symmetry_Int_Tables_number	1
_symmetry_cell_setting	triclinic
loop_
_symmetry_equiv_pos_as_xyz
  x,y,z
_cell_length_a	8.597226
_cell_length_b	8.559649
_cell_length_c	7.088929
_cell_angle_alpha	84.655815
_cell_angle_beta	91.337861
_cell_angle_gamma	102.373960
loop_
_atom_site_label
_atom_site_type_symbol
_atom_site_fract_x
_atom_site_fract_y
_atom_site_fract_z
O1	O	-1.998325	0.287665	-0.488219
O2	O	-1.547617	0.298375	-0.413964
O3	O	-1.812679	0.061715	-0.457632
O4	O	-1.733263	0.524325	-0.444552
O5	O	-1.848111	0.030014	-0.145494
O6	O	-1.583049	0.266674	-0.101826
O7	O	-2.033757	0.255964	-0.176081
Cu8	Cu	-1.811638	0.258424	-0.110453
Cu9	Cu	-1.769736	0.295914	-0.479592
O10	O	-1.768695	0.492624	-0.132414
C11	C	-1.508167	0.279605	-0.248477
C12	C	-1.337832	0.270889	-0.220414
C13	C	-1.836413	-0.013469	-0.302558
C14	C	-1.854326	-0.190263	-0.305520
C15	C	-1.073209	0.274729	-0.341564
C16	C	-1.243549	0.283431	-0.369612
C17	C	-1.744961	0.567807	-0.287492
C18	C	-1.727046	0.744603	-0.284542
N19	N	-1.841121	0.232055	0.149178
N20	N	-1.740267	0.322271	-0.739226
H21	H	-1.288234	0.253500	-0.071221
C22	C	-1.309822	0.306877	-0.568447
C23	C	-1.367123	0.448835	-0.587843
C24	C	-1.428205	0.470474	-0.770970
H25	H	-1.227972	0.313684	-0.658469
H26	H	-1.394268	0.218454	-0.589478
H27	H	-1.282687	0.537236	-0.566833
H28	H	-1.448990	0.442061	-0.497864
H29	H	-1.512650	0.382051	-0.792000
H30	H	-1.346346	0.477276	-0.860977
H31	H	-1.467103	0.566786	-0.784149
C32	C	-1.563333	-0.149579	-0.257880
C33	C	-1.463257	-0.164917	-0.404957
C34	C	-1.312426	-0.067467	-0.380446
H35	H	-1.572391	-0.040795	-0.259481
H36	H	-1.519832	-0.181878	-0.139884
H37	H	-1.506749	-0.132608	-0.522923
H38	H	-1.454153	-0.273678	-0.403383
H39	H	-1.268924	-0.099766	-0.262450
H40	H	-1.321500	0.041310	-0.382045
H41	H	-1.244502	-0.077872	-0.480223
C42	C	-2.018001	-0.296211	-0.332086
C43	C	-2.118059	-0.280932	-0.184962
C44	C	-2.268837	-0.378522	-0.209358
H45	H	-2.061618	-0.264032	-0.450031
H46	H	-2.008789	-0.404971	-0.330453
H47	H	-2.127275	-0.172196	-0.186612
H48	H	-2.074492	-0.313122	-0.066998
H49	H	-2.259625	-0.487282	-0.207726
H50	H	-2.312438	-0.346335	-0.327309
H51	H	-2.336740	-0.368180	-0.109531
H52	H	-1.635744	0.415761	0.196348
C53	C	-1.980433	0.107157	0.234848
C54	C	-1.968465	-0.045222	0.188239
C55	C	-2.096776	-0.160313	0.267106
H56	H	-1.978559	0.108747	0.368693
H57	H	-2.077472	0.130848	0.186086
H58	H	-1.871451	-0.068907	0.237011
H59	H	-1.970359	-0.046865	0.054409
H60	H	-2.193816	-0.136621	0.218344
H61	H	-2.094891	-0.158707	0.400948
H62	H	-2.088681	-0.263712	0.235479
