data_functionalizedCrystal
_audit_creation_method	'MofGen! by Chris Wilmer'
_symmetry_space_group_name_H-M	'P1'
_symmetry_Int_Tables_number	1
_symmetry_cell_setting	triclinic
loop_
_symmetry_equiv_pos_as_xyz
  x,y,z
_cell_length_a	19.805405
_cell_length_b	21.295418
_cell_length_c	19.805398
_cell_angle_alpha	89.964511
_cell_angle_beta	90.030326
_cell_angle_gamma	89.955382
loop_
_atom_site_label
_atom_site_type_symbol
_atom_site_fract_x
_atom_site_fract_y
_atom_site_fract_z
Zn1	Zn	-0.269143	-0.962297	0.383116
Zn2	Zn	0.230857	-0.462297	0.883116
Zn3	Zn	-0.382333	-0.962230	0.269924
Zn4	Zn	0.117667	-0.462230	0.769924
Zn5	Zn	-0.269200	-0.857043	0.269896
Zn6	Zn	0.230800	-0.357043	0.769896
Zn7	Zn	-0.382331	-0.856997	0.383027
Zn8	Zn	0.117669	-0.356997	0.883027
O9	O	-0.325752	-0.909642	0.326491
O10	O	0.174248	-0.409642	0.826491
O11	O	-0.284135	-1.050377	0.368150
O12	O	0.215865	-0.550377	0.868150
O13	O	-0.367351	-0.948267	0.175204
O14	O	0.132649	-0.448267	0.675204
O15	O	-0.174476	-0.871052	0.284940
O16	O	0.325524	-0.371052	0.784940
O17	O	-0.367296	-1.050328	0.284988
O18	O	0.132704	-0.550328	0.784988
O19	O	-0.174434	-0.948382	0.368122
O20	O	0.325566	-0.448382	0.868122
O21	O	-0.284232	-0.870987	0.175183
O22	O	0.215768	-0.370987	0.675183
O23	O	-0.284230	-0.768947	0.284854
O24	O	0.215770	-0.268947	0.784854
O25	O	-0.367292	-0.870974	0.477755
O26	O	0.132708	-0.370974	0.977755
O27	O	-0.367347	-0.768914	0.367971
O28	O	0.132653	-0.268914	0.867971
O29	O	-0.284133	-0.948338	0.477820
O30	O	0.215867	-0.448338	0.977820
O31	O	-0.477050	-0.948223	0.284902
O32	O	0.022950	-0.448223	0.784902
O33	O	-0.477048	-0.870909	0.367998
O34	O	0.022952	-0.370909	0.867998
C35	C	-0.501608	-0.909571	0.326458
C36	C	-0.001608	-0.409571	0.826458
C37	C	-0.576840	-0.909598	0.326466
C38	C	-0.076840	-0.409598	0.826466
C39	C	-0.325795	-0.746090	0.326400
C40	C	0.174205	-0.246090	0.826400
C41	C	-0.325830	-0.676122	0.326377
C42	C	0.174170	-0.176122	0.826377
C43	C	-0.612162	-0.949894	0.283244
C44	C	-0.112162	-0.449894	0.783244
C45	C	-0.682851	-0.949921	0.283259
C46	C	-0.182851	-0.449921	0.783259
C47	C	-0.718215	-0.909648	0.326493
C48	C	-0.218215	-0.409648	0.826493
C49	C	-0.682888	-0.869350	0.369721
C50	C	-0.182888	-0.369350	0.869721
C51	C	-0.612201	-0.869327	0.369709
C52	C	-0.112201	-0.369327	0.869709
C53	C	-0.967961	-0.869442	0.369771
C54	C	-0.467961	-0.369442	0.869771
C55	C	-1.038653	-0.869467	0.369778
C56	C	-0.538653	-0.369467	0.869778
C57	C	-1.038611	-0.950037	0.283321
C58	C	-0.538611	-0.450037	0.783321
C59	C	-0.967924	-0.950014	0.283309
C60	C	-0.467924	-0.450014	0.783309
C61	C	-0.932603	-0.909718	0.326539
C62	C	-0.432603	-0.409718	0.826539
C63	C	-0.855954	-0.909691	0.326523
C64	C	-0.355954	-0.409691	0.826523
C65	C	-0.794863	-0.909672	0.326506
C66	C	-0.294863	-0.409672	0.826506
C67	C	-0.369168	-0.643254	0.369589
C68	C	0.130832	-0.143254	0.869589
C69	C	-0.369154	-0.577512	0.369614
C70	C	0.130846	-0.077512	0.869614
C71	C	-0.325809	-0.544639	0.326416
C72	C	0.174191	-0.044639	0.826416
C73	C	-0.282463	-0.577515	0.283201
C74	C	0.217537	-0.077515	0.783201
C75	C	-0.282473	-0.643256	0.283182
C76	C	0.217527	-0.143256	0.783182
N77	N	-0.320527	-0.441375	0.267208
N78	N	0.179473	0.058625	0.767208
N79	N	-0.320521	-0.378923	0.267228
N80	N	0.179479	0.121077	0.767228
C81	C	-0.325775	-0.346565	0.326472
C82	C	0.174225	0.153435	0.826472
N83	N	-0.331048	-0.379017	0.385697
N84	N	0.168952	0.120983	0.885697
N85	N	-0.331057	-0.441474	0.385676
N86	N	0.168943	0.058526	0.885676
C87	C	-0.325793	-0.473354	0.326432
C88	C	0.174207	0.026646	0.826432
C89	C	-0.369100	-0.242411	0.369715
C90	C	0.130900	0.257589	0.869715
C91	C	-0.369082	-0.176668	0.369741
C92	C	0.130918	0.323332	0.869741
C93	C	-0.282394	-0.176672	0.283323
C94	C	0.217606	0.323328	0.783323
C95	C	-0.282409	-0.242415	0.283302
C96	C	0.217591	0.257585	0.783302
C97	C	-0.325766	-0.275280	0.326497
C98	C	0.174234	0.224720	0.826497
C99	C	-0.149209	-0.909730	0.326538
C100	C	0.350791	-0.409730	0.826538
C101	C	-0.073977	-0.909767	0.326559
C102	C	0.426023	-0.409767	0.826559
C103	C	-0.325706	-0.909658	0.503033
C104	C	0.174294	-0.409658	1.003033
C105	C	-0.325687	-0.909666	0.578265
C106	C	0.174313	-0.409666	1.078265
C107	C	-0.325721	-0.073832	0.326562
C108	C	0.174279	0.426168	0.826562
C109	C	-0.325736	-0.143800	0.326543
C110	C	0.174264	0.356200	0.826543
C111	C	-0.325749	-0.909661	0.150635
C112	C	0.174251	-0.409661	0.650635
C113	C	-0.325577	-0.909776	0.075403
C114	C	0.174423	-0.409776	0.575403
C115	C	-0.368859	-0.950005	1.040065
C116	C	0.131141	-0.450005	1.540065
C117	C	-0.368877	-0.949987	0.969376
C118	C	0.131123	-0.449987	1.469376
C119	C	-0.325610	-0.909744	0.934027
C120	C	0.174390	-0.409744	1.434027
C121	C	-0.282327	-0.869510	0.969370
C122	C	0.217673	-0.369510	1.469370
C123	C	-0.282312	-0.869525	1.040058
C124	C	0.217688	-0.369525	1.540058
C125	C	-0.282385	-0.869450	0.684297
C126	C	0.217615	-0.369450	1.184297
C127	C	-0.282401	-0.869439	0.613605
C128	C	0.217599	-0.369439	1.113605
C129	C	-0.368950	-0.949912	0.613616
C130	C	0.131050	-0.449912	1.113616
C131	C	-0.368935	-0.949926	0.684303
C132	C	0.131065	-0.449926	1.184303
C133	C	-0.325655	-0.909691	0.719640
C134	C	0.174345	-0.409691	1.219640
C135	C	-0.325636	-0.909710	0.796288
C136	C	0.174364	-0.409710	1.296288
C137	C	-0.325625	-0.909728	0.857380
C138	C	0.174375	-0.409728	1.357380
H139	H	-0.583373	-0.982687	0.248034
H140	H	-0.083373	-0.482687	0.748034
H141	H	-0.939132	-0.982806	0.248101
H142	H	-0.439132	-0.482806	0.748101
F143	F	-0.236349	-0.826604	0.575985
F144	F	0.263651	-0.326604	1.075985
H145	H	-1.067378	-0.982850	0.248124
H146	H	-0.567378	-0.482850	0.748124
F147	F	-0.414907	-0.992842	1.077680
F148	F	0.085093	-0.492842	1.577680
F149	F	-0.720440	-0.992812	0.237257
F150	F	-0.220440	-0.492812	0.737257
H151	H	-1.067445	-0.836673	0.404990
H152	H	-0.567445	-0.336673	0.904990
H153	H	-0.939208	-0.836631	0.404969
H154	H	-0.439208	-0.336631	0.904969
F155	F	-0.720528	-0.826491	0.415739
F156	F	-0.220528	-0.326491	0.915739
H157	H	-0.247144	-0.836687	0.713060
H158	H	0.252856	-0.336687	1.213060
H159	H	-0.247101	-0.836741	0.940584
H160	H	0.252899	-0.336741	1.440584
H161	H	-0.583442	-0.836514	0.404906
H162	H	-0.083442	-0.336514	0.904906
H163	H	-0.404193	-0.982671	0.584836
H164	H	0.095807	-0.482671	1.084836
H165	H	-0.404471	-0.670009	0.404763
H166	H	0.095529	-0.170009	0.904763
H167	H	-0.404372	-0.149908	0.404934
H168	H	0.095628	0.350092	0.904934
F169	F	-0.236330	-0.542529	0.237229
F170	F	0.263670	-0.042529	0.737229
H171	H	-0.247099	-0.149908	0.248153
H172	H	0.252901	0.350092	0.748153
H173	H	-0.404445	-0.550746	0.404805
H174	H	0.095555	-0.050746	0.904805
F175	F	-0.236244	-0.826711	1.077667
F176	F	0.263756	-0.326711	1.577667
F177	F	-0.236344	-0.678237	0.237189
F178	F	0.263656	-0.178237	0.737189
H179	H	-0.247122	-0.269176	0.248111
H180	H	0.252878	0.230824	0.748111
F181	F	-0.415240	-0.277392	0.415690
F182	F	0.084760	0.222608	0.915690
F183	F	-0.414943	-0.992805	0.931770
F184	F	0.085057	-0.492805	1.431770
H185	H	-0.404165	-0.982699	0.713081
H186	H	0.095835	-0.482699	1.213081
