data_functionalizedCrystal
_audit_creation_method	'MofGen! by Chris Wilmer'
_symmetry_space_group_name_H-M	'P1'
_symmetry_Int_Tables_number	1
_symmetry_cell_setting	triclinic
loop_
_symmetry_equiv_pos_as_xyz
  x,y,z
_cell_length_a	18.050589
_cell_length_b	14.908571
_cell_length_c	14.908308
_cell_angle_alpha	89.824947
_cell_angle_beta	93.269302
_cell_angle_gamma	93.275442
loop_
_atom_site_label
_atom_site_type_symbol
_atom_site_fract_x
_atom_site_fract_y
_atom_site_fract_z
Zn1	Zn	-0.387558	-1.345230	-0.587600
Zn2	Zn	0.112442	-0.845230	-0.087600
Zn3	Zn	-0.505024	-1.353791	-0.437245
Zn4	Zn	-0.005024	-0.853791	0.062755
Zn5	Zn	-0.373294	-1.203548	-0.428597
Zn6	Zn	0.126706	-0.703548	0.071403
Zn7	Zn	-0.504142	-1.194819	-0.578897
Zn8	Zn	-0.004142	-0.694819	-0.078897
O9	O	-0.442504	-1.274347	-0.508085
O10	O	0.057496	-0.774347	-0.008085
O11	O	-0.409479	-1.472191	-0.574916
O12	O	0.090521	-0.972191	-0.074916
O13	O	-0.481949	-1.341097	-0.310273
O14	O	0.018051	-0.841097	0.189727
O15	O	-0.271266	-1.222413	-0.449712
O16	O	0.228734	-0.722413	0.050288
O17	O	-0.495781	-1.478480	-0.464452
O18	O	0.004219	-0.978480	0.035548
O19	O	-0.281746	-1.326506	-0.566530
O20	O	0.218254	-0.826506	-0.066530
O21	O	-0.385168	-1.230714	-0.303919
O22	O	0.114832	-0.730714	0.196081
O23	O	-0.384312	-1.076565	-0.441273
O24	O	0.115688	-0.576565	0.058727
O25	O	-0.494277	-1.207536	-0.705876
O26	O	0.005723	-0.707536	-0.205876
O27	O	-0.480446	-1.070152	-0.551698
O28	O	0.019554	-0.570152	-0.051698
O29	O	-0.408624	-1.318042	-0.712270
O30	O	0.091376	-0.818042	-0.212270
O31	O	-0.608827	-1.332633	-0.456013
O32	O	-0.108827	-0.832633	0.043987
O33	O	-0.608179	-1.215836	-0.560084
O34	O	-0.108179	-0.715836	-0.060084
C35	C	-0.430736	-1.040734	-0.494603
C36	C	0.069264	-0.540734	0.005397
C37	C	-0.425720	-0.940791	-0.488857
C38	C	0.074280	-0.440791	0.011143
C39	C	-0.635451	-1.274239	-0.508063
C40	C	-0.135451	-0.774239	-0.008063
C41	C	-0.717999	-1.274274	-0.508089
C42	C	-0.217999	-0.774274	-0.008089
C43	C	-0.452943	-1.260860	-0.742610
C44	C	0.047057	-0.760860	-0.242610
C45	C	-0.457391	-1.255113	-0.842551
C46	C	0.042609	-0.755113	-0.342551
C47	C	-0.917126	-1.210820	-0.564665
C48	C	-0.417126	-0.710820	-0.064665
C49	C	-0.961795	-1.193639	-0.481356
C50	C	-0.461795	-0.693639	0.018644
C51	C	-0.869134	-1.274362	-0.508106
C52	C	-0.369134	-0.774362	-0.008106
C53	C	-0.971550	-1.291586	-0.591427
C54	C	-0.471550	-0.791586	-0.091427
C55	C	-1.015125	-1.274444	-0.508129
C56	C	-0.515125	-0.774444	-0.008129
C57	C	-0.912712	-1.257140	-0.424750
C58	C	-0.412712	-0.757140	0.075250
C59	C	-0.922467	-1.355122	-0.534880
C60	C	-0.422467	-0.855122	-0.034880
C61	C	-0.967112	-1.337975	-0.451515
C62	C	-0.467112	-0.837975	0.048485
C63	C	-0.785033	-1.274312	-0.508094
C64	C	-0.285033	-0.774312	-0.008094
C65	C	-1.099224	-1.274495	-0.508132
C66	C	-0.599224	-0.774495	-0.008132
C67	C	-0.248807	-1.274479	-0.508127
C68	C	0.251193	-0.774479	-0.008127
C69	C	-0.166265	-1.274535	-0.508145
C70	C	0.333735	-0.774535	-0.008145
C71	C	-0.454320	-1.508873	-0.521619
C72	C	0.045680	-1.008873	-0.021619
C73	C	-0.459355	-1.608814	-0.527387
C74	C	0.040645	-1.108814	-0.027387
C75	C	-0.516539	-0.746369	-0.592890
C76	C	-0.016539	-0.246369	-0.092890
C77	C	-0.511829	-0.652464	-0.587494
C78	C	-0.011829	-0.152464	-0.087494
C79	C	-0.411586	-0.659075	-0.472674
C80	C	0.088414	-0.159075	0.027326
C81	C	-0.416296	-0.752980	-0.478070
C82	C	0.083704	-0.252980	0.021930
C83	C	-0.468775	-0.796623	-0.538179
C84	C	0.031225	-0.296623	-0.038179
C85	C	-0.473489	-0.890530	-0.543570
C86	C	0.026511	-0.390530	-0.043570
C87	C	-0.373243	-0.897139	-0.428755
C88	C	0.126757	-0.397139	0.071245
C89	C	-0.368533	-0.803235	-0.423359
C90	C	0.131467	-0.303235	0.076641
C91	C	-0.376542	-1.359381	-1.037010
C92	C	0.123458	-0.859381	-0.537010
C93	C	-0.380719	-1.353984	-1.130914
C94	C	0.119281	-0.853984	-0.630914
C95	C	-0.469919	-1.238917	-1.124263
C96	C	0.030081	-0.738917	-0.624263
C97	C	-0.465741	-1.244314	-1.030360
C98	C	0.034259	-0.744314	-0.530360
C99	C	-0.419052	-1.304549	-0.986737
C100	C	0.080948	-0.804549	-0.486737
C101	C	-0.414880	-1.309951	-0.892832
C102	C	0.085120	-0.809951	-0.392832
C103	C	-0.504075	-1.194880	-0.886183
C104	C	-0.004075	-0.694880	-0.386183
C105	C	-0.508252	-1.189483	-0.980086
C106	C	-0.008252	-0.689483	-0.480086
C107	C	-0.432055	-1.287833	-0.274474
C108	C	0.067945	-0.787833	0.225526
C109	C	-0.427407	-1.293755	-0.174544
C110	C	0.072593	-0.793755	0.325456
H111	H	-0.895182	-1.157015	-0.612419
H112	H	-0.395182	-0.657015	-0.112419
H113	H	-0.546263	-1.140439	-1.015617
H114	H	-0.046263	-0.640439	-0.515617
H115	H	-0.334352	-0.938067	-0.384203
H116	H	0.165648	-0.438067	0.115797
H117	H	-0.507930	-1.189877	-1.159798
H118	H	-0.007930	-0.689877	-0.659798
O119	O	-0.326195	-1.424356	-0.989958
O120	O	0.173805	-0.924356	-0.489958
H121	H	-0.330438	-1.418903	-0.916215
H122	H	0.169562	-0.918903	-0.416215
H123	H	-0.550721	-0.611550	-0.632047
H124	H	-0.050721	-0.111550	-0.132047
H125	H	-0.346101	-1.398631	-1.171843
H126	H	0.153899	-0.898631	-0.671843
H127	H	-0.887110	-1.242524	-0.354272
H128	H	-0.387110	-0.742524	0.145728
H129	H	-0.559273	-0.781904	-0.641828
H130	H	-0.059273	-0.281904	-0.141828
O131	O	-0.530082	-0.937596	-0.608414
O132	O	-0.030082	-0.437596	-0.108414
H133	H	-0.501075	-0.977767	-0.656678
H134	H	-0.001075	-0.477767	-0.156678
H135	H	-0.368856	-0.623524	-0.423742
H136	H	0.131144	-0.123524	0.076258
H137	H	-0.538692	-1.150234	-0.845240
H138	H	-0.038692	-0.650234	-0.345240
H139	H	-0.325804	-0.767687	-0.374423
H140	H	0.174196	-0.267687	0.125577
O141	O	-0.995991	-1.409208	-0.388101
O142	O	-0.495991	-0.909208	0.111899
H143	H	-1.057515	-1.409132	-0.388989
H144	H	-0.557515	-0.909132	0.111011
O145	O	-0.984902	-1.103225	-0.451356
O146	O	-0.484902	-0.603225	0.048644
H147	H	-0.964886	-1.050558	-0.498396
H148	H	-0.464886	-0.550558	0.001604
H149	H	-0.905010	-1.423362	-0.557544
H150	H	-0.405010	-0.923362	-0.057544
H151	H	-0.997236	-1.306123	-0.661882
H152	H	-0.497236	-0.806123	-0.161882
O153	O	-0.364527	-1.374916	-0.845774
O154	O	0.135473	-0.874916	-0.345774
H155	H	-0.306268	-1.358488	-0.862909
H156	H	0.193732	-0.858488	-0.362909
