data_functionalizedCrystal
_audit_creation_method	'MofGen! by Chris Wilmer'
_symmetry_space_group_name_H-M	'P1'
_symmetry_Int_Tables_number	1
_symmetry_cell_setting	triclinic
loop_
_symmetry_equiv_pos_as_xyz
  x,y,z
_cell_length_a	9.730223
_cell_length_b	10.654550
_cell_length_c	10.654545
_cell_angle_alpha	95.515995
_cell_angle_beta	90.002833
_cell_angle_gamma	89.995747
loop_
_atom_site_label
_atom_site_type_symbol
_atom_site_fract_x
_atom_site_fract_y
_atom_site_fract_z
O1	O	-0.114276	0.176372	-1.667842
O2	O	-0.114282	0.193184	-1.302363
O3	O	-0.114270	0.002038	-1.493506
O4	O	-0.114287	0.367517	-1.476700
O5	O	0.114310	0.002033	-1.493493
O6	O	0.114298	0.193178	-1.302351
O7	O	0.114304	0.176366	-1.667830
Zn8	Zn	0.150593	0.184771	-1.485088
Zn9	Zn	-0.150571	0.184778	-1.485105
O10	O	0.114292	0.367512	-1.476687
C11	C	0.000008	0.191948	-1.255559
C12	C	0.000006	0.188258	-1.116115
C13	C	0.000019	-0.044762	-1.492266
C14	C	0.000017	-0.184206	-1.488574
N15	N	0.356130	0.184766	-1.485086
N16	N	-0.356107	0.184774	-1.485117
C17	C	0.428061	0.100163	-1.569753
C18	C	0.571944	0.100163	-1.569766
C19	C	0.571952	0.269381	-1.400440
C20	C	0.428071	0.269374	-1.400423
C21	C	0.000018	-0.263693	-1.601115
C22	C	0.000002	-0.394714	-1.597639
C23	C	-0.000012	-0.366747	-1.369069
C24	C	-0.000005	-0.235729	-1.372547
C25	C	0.000000	0.414312	-1.477927
C26	C	-0.000007	0.553755	-1.481619
C27	C	0.000012	0.177602	-1.714634
C28	C	0.000005	0.181292	-1.854078
C29	C	0.124606	0.186518	-1.050604
C30	C	0.124606	0.183031	-0.919585
C31	C	-0.124605	0.183028	-0.919599
C32	C	-0.124603	0.186507	-1.050617
H33	H	0.369489	0.031268	-1.638690
H34	H	0.630541	0.338269	-1.331511
H35	H	0.369501	0.338268	-1.331471
H36	H	-0.226074	0.187920	-1.103958
Cl37	Cl	-0.000039	-0.431529	-1.223215
Cl38	Cl	-0.281247	0.180796	-0.837253
H39	H	-0.000010	-0.171006	-1.280896
H40	H	0.000033	-0.221748	-1.695592
Cl41	Cl	0.281256	0.188712	-1.132942
Cl42	Cl	0.662367	-0.006202	-1.676206
Cl43	Cl	0.000000	-0.494636	-1.739127
Cl44	Cl	0.281253	0.180846	-0.837233
