data_functionalizedCrystal
_audit_creation_method	'MofGen! by Chris Wilmer'
_symmetry_space_group_name_H-M	'P1'
_symmetry_Int_Tables_number	1
_symmetry_cell_setting	triclinic
loop_
_symmetry_equiv_pos_as_xyz
  x,y,z
_cell_length_a	17.038272
_cell_length_b	23.532407
_cell_length_c	15.500227
_cell_angle_alpha	92.805592
_cell_angle_beta	86.956295
_cell_angle_gamma	86.980117
loop_
_atom_site_label
_atom_site_type_symbol
_atom_site_fract_x
_atom_site_fract_y
_atom_site_fract_z
O1	O	1.040103	0.121159	-0.071851
O2	O	1.540103	0.621159	0.428149
O3	O	0.812488	0.119196	-0.071876
O4	O	1.312488	0.619196	0.428124
O5	O	0.933158	0.037607	-0.071847
O6	O	1.433158	0.537607	0.428153
O7	O	0.919432	0.202748	-0.071880
O8	O	1.419432	0.702748	0.428120
O9	O	0.925836	0.042537	0.072040
O10	O	1.425836	0.542537	0.572040
O11	O	0.805165	0.124126	0.072011
O12	O	1.305165	0.624126	0.572011
O13	O	1.032780	0.126090	0.072036
O14	O	1.532780	0.626090	0.572036
Cu15	Cu	0.918304	0.125558	0.085162
Cu16	Cu	1.418304	0.625558	0.585162
Cu17	Cu	0.926964	0.119727	-0.085001
Cu18	Cu	1.426964	0.619727	0.414999
O19	O	0.912110	0.207678	0.072007
O20	O	1.412110	0.707678	0.572007
C21	C	0.779712	0.119875	0.000065
C22	C	1.279712	0.619875	0.500065
C23	C	0.692959	0.114548	0.000056
C24	C	1.192959	0.614548	0.500056
C25	C	0.642483	0.163453	0.000046
C26	C	1.142483	0.663453	0.500046
C27	C	0.560969	0.158445	0.000059
C28	C	1.060969	0.658445	0.500059
C29	C	0.529932	0.104532	0.000075
C30	C	1.029932	0.604532	0.500075
C31	C	0.580414	0.055624	0.000087
C32	C	1.080414	0.555624	0.500087
C33	C	0.661927	0.060632	0.000080
C34	C	1.161927	0.560632	0.500080
C35	C	0.284304	0.086837	0.000102
C36	C	0.784304	0.586837	0.500102
C37	C	0.202786	0.081832	0.000106
C38	C	0.702786	0.581832	0.500106
C39	C	0.183345	0.184654	0.000080
C40	C	0.683345	0.684654	0.500080
C41	C	0.264860	0.189658	0.000068
C42	C	0.764860	0.689658	0.500068
C43	C	0.315335	0.140750	0.000084
C44	C	0.815335	0.640750	0.500084
C45	C	0.446612	0.099412	0.000086
C46	C	0.946612	0.599412	0.500086
C47	C	0.398653	0.145871	0.000080
C48	C	0.898653	0.645871	0.500080
C49	C	0.929147	0.018838	0.000099
C50	C	1.429147	0.518838	0.500099
C51	C	0.928096	-0.044434	0.000105
C52	C	1.428096	0.455566	0.500105
C53	C	0.992917	-0.440131	0.000065
C54	C	1.492917	0.059869	0.500065
C55	C	0.991941	-0.499583	0.000058
C56	C	1.491941	0.000417	0.500058
O57	O	1.052030	-0.533169	0.000033
O58	O	1.552030	-0.033169	0.500033
N59	N	0.920202	-0.525981	0.000051
N60	N	1.420202	-0.025981	0.500051
C61	C	0.849435	-0.492924	0.000042
C62	C	1.349435	0.007076	0.500042
O63	O	0.788325	-0.520836	0.000034
O64	O	1.288325	-0.020836	0.500034
C65	C	0.850412	-0.433473	0.000042
C66	C	1.350412	0.066527	0.500042
C67	C	0.922155	-0.407078	0.000058
C68	C	1.422155	0.092922	0.500058
C69	C	1.064654	-0.413736	0.000080
C70	C	1.564654	0.086264	0.500080
C71	C	1.065630	-0.354288	0.000089
C72	C	1.565630	0.145712	0.500089
C73	C	0.994868	-0.321235	0.000082
C74	C	1.494868	0.178765	0.500082
C75	C	0.923131	-0.347631	0.000067
C76	C	1.423131	0.152369	0.500067
C77	C	0.779646	-0.400418	0.000027
C78	C	1.279646	0.099582	0.500027
C79	C	0.780629	-0.340963	0.000026
C80	C	1.280629	0.159037	0.500026
C81	C	0.852372	-0.314569	0.000043
C82	C	1.352372	0.185431	0.500043
C83	C	0.853344	-0.255130	0.000068
C84	C	1.353344	0.244870	0.500068
N85	N	0.925083	-0.228732	0.000075
N86	N	1.425083	0.271268	0.500075
C87	C	0.995845	-0.261785	0.000082
C88	C	1.495845	0.238215	0.500082
C89	C	0.847388	-0.617774	0.000039
C90	C	1.347388	-0.117774	0.500039
C91	C	0.846410	-0.677223	0.000045
C92	C	1.346410	-0.177223	0.500045
C93	C	0.988916	-0.683878	0.000060
C94	C	1.488916	-0.183878	0.500060
C95	C	0.989894	-0.624428	0.000061
C96	C	1.489894	-0.124428	0.500061
C97	C	0.919127	-0.591376	0.000047
C98	C	1.419127	-0.091376	0.500047
C99	C	0.997889	-0.136940	0.000100
C100	C	1.497889	0.363060	0.500100
C101	C	0.998858	-0.077487	0.000112
C102	C	1.498858	0.422513	0.500112
C103	C	0.856352	-0.070837	0.000093
C104	C	1.356352	0.429163	0.500093
C105	C	0.855382	-0.130285	0.000085
C106	C	1.355382	0.369715	0.500085
C107	C	0.926157	-0.163336	0.000086
C108	C	1.426157	0.336664	0.500086
O109	O	0.793287	-0.221508	0.000090
O110	O	1.293287	0.278492	0.500090
O111	O	1.056945	-0.233865	0.000078
O112	O	1.556945	0.266135	0.500078
C113	C	1.065556	0.125410	0.000094
C114	C	1.565556	0.625410	0.500094
C115	C	1.152310	0.130737	0.000097
C116	C	1.652310	0.630737	0.500097
C117	C	0.916121	0.226447	0.000059
C118	C	1.416121	0.726447	0.500059
C119	C	0.917172	0.289719	0.000047
C120	C	1.417172	0.789719	0.500047
N121	N	0.912219	0.129659	0.204845
N122	N	1.412219	0.629659	0.704845
N123	N	0.933055	0.115622	-0.204685
N124	N	1.433055	0.615622	0.295315
C125	C	0.963369	0.095101	0.250134
C126	C	1.463369	0.595101	0.750134
C127	C	0.958774	0.098208	0.340706
C128	C	1.458774	0.598208	0.840706
C129	C	0.903033	0.135876	0.385987
C130	C	1.403033	0.635876	0.885987
C131	C	0.851877	0.170435	0.340691
C132	C	1.351877	0.670435	0.840691
C133	C	0.856469	0.167324	0.250121
C134	C	1.356469	0.667324	0.750121
C135	C	0.886491	0.147071	0.659450
C136	C	1.386491	0.647071	1.159450
C137	C	0.881905	0.150180	0.750026
C138	C	1.381905	0.650180	1.250026
C139	C	0.988801	0.077952	0.750034
C140	C	1.488801	0.577952	1.250034
C141	C	0.993391	0.074848	0.659462
C142	C	1.493391	0.574848	1.159462
C143	C	0.942233	0.109404	0.614175
C144	C	1.442233	0.609404	1.114175
C145	C	0.898336	0.139054	0.478566
C146	C	1.398336	0.639054	0.978566
C147	C	0.946927	0.106223	0.521598
C148	C	1.446927	0.606223	1.021598
H149	H	0.423926	0.189767	0.000072
H150	H	0.923926	0.689767	0.500072
H151	H	1.055521	-0.163843	0.000098
H152	H	1.555521	0.336157	0.500098
C153	C	0.800206	0.205345	0.200304
C154	C	1.300206	0.705345	0.700304
N155	N	0.757827	0.233984	0.162783
N156	N	1.257827	0.733984	0.662783
C157	C	0.339816	0.033036	0.000114
C158	C	0.839816	0.533036	0.500114
N159	N	0.381632	-0.007489	0.000122
N160	N	0.881632	0.492511	0.500122
H161	H	0.519874	0.198268	0.000051
H162	H	1.019874	0.698268	0.500051
C163	C	1.045065	0.039938	0.799858
C164	C	1.545065	0.539938	1.299858
N165	N	1.087442	0.011302	0.837385
N166	N	1.587442	0.511302	1.337385
C167	C	0.546272	-0.003681	0.000106
C168	C	1.046272	0.496319	0.500106
N169	N	0.520556	-0.048351	0.000117
N170	N	1.020556	0.451649	0.500117
H171	H	0.421332	0.055516	0.000123
H172	H	0.921332	0.555516	0.500123
H173	H	1.057282	-0.055999	0.000128
H174	H	1.557282	0.444001	0.500128
C175	C	0.700722	-0.429439	0.000003
C176	C	1.200722	0.070561	0.500003
N177	N	0.641271	-0.451296	-0.000018
N178	N	1.141271	0.048704	0.499982
C179	C	0.298992	0.248966	0.000064
C180	C	0.798992	0.748966	0.500064
N181	N	0.324701	0.293639	0.000063
N182	N	0.824701	0.793639	0.500063
C183	C	0.830316	0.185163	0.609645
C184	C	1.330316	0.685163	1.109645
N185	N	0.788039	0.213885	0.572130
N186	N	1.288039	0.713885	1.072130
C187	C	1.144554	-0.325262	0.000097
C188	C	1.644554	0.174738	0.500097
N189	N	1.204004	-0.303404	0.000100
N190	N	1.704004	0.196596	0.500100
C191	C	1.142505	-0.450085	0.000097
C192	C	1.642505	0.049915	0.500097
N193	N	1.201147	-0.477458	0.000119
N194	N	1.701147	0.022542	0.500119
H195	H	0.703024	0.020809	0.000087
H196	H	1.203024	0.520809	0.500087
C197	C	0.820580	0.191617	0.799834
C198	C	1.320580	0.691617	1.299834
N199	N	0.774393	0.222826	0.837348
N200	N	1.274393	0.722826	1.337348
C201	C	1.068816	-0.595399	0.000071
C202	C	1.568816	-0.095399	0.500071
N203	N	1.128264	-0.573538	0.000075
N204	N	1.628264	-0.073538	0.500075
H205	H	0.789757	-0.590866	0.000035
H206	H	1.289757	-0.090866	0.500035
H207	H	0.992309	0.075552	0.484727
H208	H	1.492309	0.575552	0.984727
H209	H	1.046535	-0.710801	0.000062
H210	H	1.546535	-0.210801	0.500062
C211	C	0.767486	-0.706250	0.000038
C212	C	1.267486	-0.206250	0.500038
N213	N	0.708039	-0.728111	0.000027
N214	N	1.208039	-0.228111	0.500027
C215	C	0.790554	0.211864	0.390504
C216	C	1.290554	0.711864	0.890504
N217	N	0.744363	0.243069	0.428022
N218	N	1.244363	0.743069	0.928022
H219	H	0.723001	-0.314056	0.000014
H220	H	1.223001	0.185944	0.500014
H221	H	0.796962	-0.151776	0.000096
H222	H	1.296962	0.348224	0.500096
C223	C	1.024689	0.053663	0.200333
C224	C	1.524689	0.553663	0.700333
N225	N	1.070875	0.022449	0.162826
N226	N	1.570875	0.522449	0.662826
C227	C	1.015025	0.060178	0.390520
C228	C	1.515025	0.560178	0.890520
N229	N	1.057388	0.031525	0.428039
N230	N	1.557388	0.531525	0.928039
H231	H	0.798739	-0.043915	0.000090
H232	H	1.298739	0.456085	0.500090
H233	H	0.852952	0.169725	0.515441
H234	H	1.352952	0.669725	1.015441
H235	H	0.142240	0.224472	0.000069
H236	H	0.642240	0.724472	0.500069
H237	H	0.667745	0.207354	0.000033
H238	H	1.167745	0.707354	0.500033
C239	C	1.054707	0.033407	0.609660
C240	C	1.554707	0.533407	1.109660
N241	N	1.100892	0.002194	0.572149
N242	N	1.600892	0.502194	1.072149
H243	H	0.177520	0.037928	0.000118
H244	H	0.677520	0.537928	0.500118
