data_functionalizedCrystal
_audit_creation_method	'MofGen! by Chris Wilmer'
_symmetry_space_group_name_H-M	'P1'
_symmetry_Int_Tables_number	1
_symmetry_cell_setting	triclinic
loop_
_symmetry_equiv_pos_as_xyz
  x,y,z
_cell_length_a	16.992694
_cell_length_b	12.837942
_cell_length_c	16.053802
_cell_angle_alpha	92.838962
_cell_angle_beta	87.249047
_cell_angle_gamma	92.748582
loop_
_atom_site_label
_atom_site_type_symbol
_atom_site_fract_x
_atom_site_fract_y
_atom_site_fract_z
O1	O	1.059913	0.217066	-0.069322
O2	O	0.831447	0.214638	-0.069347
O3	O	0.940614	0.064530	-0.069330
O4	O	0.950746	0.367174	-0.069339
O5	O	0.934602	0.072756	0.069528
O6	O	0.825435	0.222864	0.069511
O7	O	1.053901	0.225292	0.069536
Zn8	Zn	0.938714	0.225384	0.091570
Zn9	Zn	0.946634	0.214546	-0.091381
O10	O	0.944734	0.375400	0.069519
C11	C	0.798996	0.215629	0.000079
C12	C	0.711256	0.206315	0.000070
C13	C	0.667730	0.296178	0.000068
C14	C	0.585288	0.287422	0.000079
C15	C	0.546375	0.188801	0.000087
C16	C	0.589907	0.098931	0.000092
C17	C	0.672346	0.107689	0.000086
C18	C	0.300064	0.152502	0.000111
C19	C	0.217618	0.143751	0.000114
C20	C	0.213006	0.332243	0.000103
C21	C	0.295447	0.340992	0.000092
C22	C	0.338972	0.251122	0.000101
N23	N	0.462107	0.179847	0.000097
N24	N	0.423238	0.260077	0.000098
C25	C	0.934185	0.029738	0.000098
C26	C	0.923977	-0.086184	0.000096
C27	C	1.046699	-0.316977	0.000092
C28	C	1.037111	-0.425897	0.000089
C29	C	0.895215	-0.412948	0.000082
C30	C	0.904802	-0.304027	0.000085
C31	C	0.980547	-0.256046	0.000091
C32	C	0.990134	-0.147123	0.000099
C33	C	0.848238	-0.134176	0.000086
C34	C	0.838650	-0.243097	0.000084
C35	C	1.086353	0.224300	0.000108
C36	C	1.174092	0.233614	0.000112
C37	C	0.951163	0.410191	0.000089
C38	C	0.961371	0.526114	0.000086
N39	N	0.933314	0.232780	0.216430
N40	N	0.952040	0.207141	-0.216241
C41	C	0.979785	0.168935	0.260131
C42	C	0.976016	0.174120	0.347537
C43	C	0.925779	0.243156	0.391240
C44	C	0.879303	0.307004	0.347533
C45	C	0.883068	0.301813	0.260129
C46	C	0.909329	0.265799	0.652647
C47	C	0.905569	0.270987	0.740058
C48	C	1.002281	0.138101	0.740056
C49	C	1.006046	0.132921	0.652650
C50	C	0.959566	0.196765	0.608950
N51	N	0.921927	0.248459	0.480584
N52	N	0.963414	0.191455	0.519608
H53	H	0.185938	0.063438	0.000120
H54	H	1.090979	-0.475503	0.000087
H55	H	0.707785	0.034512	0.000087
O56	O	0.342306	0.065164	-0.000034
C57	C	0.326649	0.001420	-0.071937
H58	H	0.304812	0.051182	-0.122204
H59	H	0.382950	-0.037011	-0.096076
H60	H	0.279528	-0.061455	-0.055674
O61	O	0.543052	0.374739	-0.000074
C62	C	0.564910	0.429955	-0.071987
H63	H	0.591086	0.374233	-0.122250
H64	H	0.510690	0.465520	-0.096125
H65	H	0.610627	0.494762	-0.055739
H66	H	0.558216	0.018632	0.000110
H67	H	1.051809	-0.108058	0.000107
H68	H	1.108373	-0.277909	0.000104
O69	O	0.837901	0.363941	0.217804
C70	C	0.792739	0.425971	0.275118
H71	H	0.822491	0.433556	0.337418
H72	H	0.788010	0.506765	0.249854
H73	H	0.731199	0.387752	0.284427
H74	H	0.699407	0.376486	0.000061
H75	H	0.871485	0.317785	0.617074
H76	H	0.833547	-0.452034	0.000069
H77	H	0.327125	0.421299	0.000076
O78	O	0.765121	-0.289838	-0.000031
C79	C	0.758430	-0.356687	-0.071960
H80	H	0.819628	-0.380042	-0.095938
H81	H	0.720964	-0.429585	-0.055788
H82	H	0.729287	-0.314494	-0.122315
O83	O	0.784059	-0.074835	0.000046
C84	C	0.808758	0.031593	0.000073
H85	H	0.872178	0.039352	-0.026212
H86	H	0.768835	0.074739	-0.040242
H87	H	0.805234	0.066747	0.066692
H88	H	0.864658	0.327208	0.775638
O89	O	1.028493	0.101705	0.217737
C90	C	1.007026	-0.001336	0.239154
H91	H	0.942779	-0.005672	0.263176
H92	H	1.014670	-0.056369	0.181696
H93	H	1.046268	-0.025291	0.289905
H94	H	1.013856	0.122131	0.383118
H95	H	0.838395	0.363211	0.383121
H96	H	1.040121	0.086121	0.775644
O97	O	1.054726	0.065513	0.610423
C98	C	1.033077	-0.037387	0.632079
H99	H	0.968796	-0.041484	0.655996
H100	H	1.040734	-0.092660	0.574769
H101	H	1.072195	-0.061227	0.682980
O102	O	0.170604	0.419433	0.000138
C103	C	0.089497	0.390561	0.000124
H104	H	0.079086	0.309927	0.026415
H105	H	0.054954	0.449810	0.040440
H106	H	0.068866	0.388598	-0.066492
