data_functionalizedCrystal
_audit_creation_method	'MofGen! by Chris Wilmer'
_symmetry_space_group_name_H-M	'P1'
_symmetry_Int_Tables_number	1
_symmetry_cell_setting	triclinic
loop_
_symmetry_equiv_pos_as_xyz
  x,y,z
_cell_length_a	14.044220
_cell_length_b	10.654558
_cell_length_c	9.130313
_cell_angle_alpha	90.002433
_cell_angle_beta	90.000868
_cell_angle_gamma	88.838597
loop_
_atom_site_label
_atom_site_type_symbol
_atom_site_fract_x
_atom_site_fract_y
_atom_site_fract_z
O1	O	0.133263	1.681225	0.121783
O2	O	0.145948	1.317023	0.121791
O3	O	0.001585	1.493657	0.121773
O4	O	0.277626	1.504590	0.121802
O5	O	0.001594	1.493645	-0.121826
O6	O	0.145957	1.317010	-0.121808
O7	O	0.133272	1.681213	-0.121815
Cu8	Cu	0.139615	1.499110	-0.144054
Cu9	Cu	0.139605	1.499125	0.144030
O10	O	0.277635	1.504578	-0.121797
C11	C	0.145019	1.270125	-0.000007
C12	C	0.142228	1.130402	-0.000005
C13	C	-0.033757	1.488865	-0.000027
C14	C	-0.139077	1.474590	-0.000028
C15	C	0.138299	0.933475	0.132781
C16	C	0.140914	1.064761	0.132782
C17	C	0.140918	1.064751	-0.132802
C18	C	0.138296	0.933468	-0.132803
C19	C	0.136994	0.867841	0.265577
C20	C	0.138303	0.933483	0.398375
C21	C	0.140917	1.064768	0.398377
C22	C	0.142224	1.130412	0.265580
C23	C	-0.331910	1.448491	-0.000007
C24	C	-0.388876	1.549739	-0.000005
C25	C	-0.496175	1.535217	0.000007
C26	C	-0.224601	1.463011	-0.000019
C27	C	0.312977	1.509370	0.000006
C28	C	0.418297	1.523646	0.000017
C29	C	0.134200	1.728110	-0.000014
C30	C	0.136992	1.867834	-0.000007
N31	N	0.139622	1.499109	-0.346677
C32	C	0.197686	1.581773	-0.423338
C33	C	0.197668	1.581790	-0.576675
C34	C	0.081520	1.416467	-0.576675
C35	C	0.081533	1.416458	-0.423341
C36	C	0.255775	1.664424	-0.346673
C37	C	0.313845	1.747094	-0.423335
C38	C	0.313827	1.747111	-0.576672
C39	C	0.255739	1.664457	-0.653347
N40	N	0.139591	1.499135	0.346652
H41	H	0.134868	0.760942	0.265590
H42	H	-0.363723	1.350911	-0.000001
H43	H	0.137232	0.880028	0.506493
C44	C	0.017662	1.325520	-0.339009
N45	N	-0.030449	1.257024	-0.275490
H46	H	0.144347	1.237313	0.265592
C47	C	0.142345	1.136971	0.544455
N48	N	0.143424	1.191352	0.654487
H49	H	-0.357061	1.647326	0.000092
H50	H	0.141983	1.118208	-0.240919
C51	C	0.136859	0.861258	-0.278876
N52	N	0.135773	0.806869	-0.388902
H53	H	0.255798	1.664417	-0.221819
H54	H	0.255721	1.664489	-0.778204
C55	C	0.377729	1.838017	-0.338989
N56	N	0.425848	1.906504	-0.275462
C57	C	0.377715	1.838035	-0.660995
N58	N	0.425846	1.906511	-0.724504
C59	C	0.017637	1.325545	-0.661024
N60	N	-0.030477	1.257055	-0.724556
