data_functionalizedCrystal
_audit_creation_method	'MofGen! by Chris Wilmer'
_symmetry_space_group_name_H-M	'P1'
_symmetry_Int_Tables_number	1
_symmetry_cell_setting	triclinic
loop_
_symmetry_equiv_pos_as_xyz
  x,y,z
_cell_length_a	10.723023
_cell_length_b	9.198806
_cell_length_c	10.654550
_cell_angle_alpha	89.997986
_cell_angle_beta	95.523775
_cell_angle_gamma	90.003487
loop_
_atom_site_label
_atom_site_type_symbol
_atom_site_fract_x
_atom_site_fract_y
_atom_site_fract_z
O1	O	1.657214	0.120874	-0.176142
O2	O	1.294065	0.120879	-0.193004
O3	O	1.483989	0.120871	-0.001832
O4	O	1.467290	0.120882	-0.367313
O5	O	1.483974	-0.120914	-0.001832
O6	O	1.294049	-0.120906	-0.193003
O7	O	1.657199	-0.120911	-0.176142
Cu8	Cu	1.475623	-0.142985	-0.184572
Cu9	Cu	1.475641	0.142953	-0.184573
O10	O	1.467275	-0.120903	-0.367313
C11	C	1.247557	-0.000012	-0.191777
C12	C	1.109002	-0.000010	-0.188106
N13	N	1.475619	-0.344099	-0.184571
C14	C	1.047222	-0.125261	-0.186469
C15	C	0.904018	-0.125262	-0.182675
C16	C	1.555363	-0.416300	-0.103950
C17	C	1.555383	-0.583712	-0.103946
C18	C	1.703707	-0.000016	-0.177369
C19	C	1.842262	-0.000009	-0.181039
C20	C	1.482755	-0.000020	0.044966
C21	C	1.479087	-0.000015	0.184408
N22	N	1.475654	0.344067	-0.184564
C23	C	1.468508	-0.000009	-0.414111
C24	C	1.472177	-0.000005	-0.553554
C25	C	1.590911	-0.000021	0.263911
C26	C	1.587457	-0.000011	0.394931
C27	C	1.360344	0.000006	0.366933
C28	C	1.363800	0.000006	0.235915
C29	C	1.722034	-0.000037	0.280077
C30	C	1.718579	-0.000026	0.411097
H31	H	1.100349	-0.232492	-0.187869
H32	H	0.850888	-0.232493	-0.181275
H33	H	0.895382	0.107228	-0.182454
H34	H	1.623617	-0.354177	-0.034925
H35	H	1.623659	-0.645802	-0.034927
H36	H	1.407383	-0.593853	-0.253596
H37	H	1.055877	0.107221	-0.186695
H38	H	1.407357	-0.406225	-0.253587
H39	H	1.763781	-0.104435	0.244457
Cl40	Cl	1.223214	0.000050	0.135972
Cl41	Cl	1.779768	0.161145	0.481586
H42	H	1.266480	0.000024	0.408887
H43	H	1.767978	-0.101212	0.452865
Cl44	Cl	1.801222	0.156171	0.234751
