data_functionalizedCrystal
_audit_creation_method	'MofGen! by Chris Wilmer'
_symmetry_space_group_name_H-M	'P1'
_symmetry_Int_Tables_number	1
_symmetry_cell_setting	triclinic
loop_
_symmetry_equiv_pos_as_xyz
  x,y,z
_cell_length_a	13.032831
_cell_length_b	14.908520
_cell_length_c	13.032268
_cell_angle_alpha	99.985811
_cell_angle_beta	90.886977
_cell_angle_gamma	86.522975
loop_
_atom_site_label
_atom_site_type_symbol
_atom_site_fract_x
_atom_site_fract_y
_atom_site_fract_z
Zn1	Zn	1.453341	-0.608125	-0.815711
Zn2	Zn	1.465124	-0.742288	-0.651425
Zn3	Zn	1.305991	-0.570509	-0.619794
Zn4	Zn	1.271734	-0.737420	-0.801271
O5	O	1.374048	-0.664586	-0.722050
O6	O	1.597505	-0.643703	-0.813198
O7	O	1.463283	-0.705796	-0.502526
O8	O	1.334942	-0.449498	-0.638589
O9	O	1.606162	-0.742272	-0.692498
O10	O	1.443199	-0.477135	-0.782527
O11	O	1.346369	-0.579590	-0.479287
O12	O	1.158846	-0.574869	-0.624587
O13	O	1.276556	-0.733974	-0.947889
O14	O	1.133677	-0.697498	-0.757917
O15	O	1.409982	-0.638982	-0.958498
O16	O	1.430066	-0.867643	-0.678496
O17	O	1.287983	-0.864066	-0.788588
C18	C	1.109287	-0.631574	-0.686253
C19	C	0.996016	-0.617476	-0.670965
C20	C	1.356610	-0.898531	-0.735434
C21	C	1.349239	-0.998628	-0.741207
C22	C	0.933097	-0.671944	-0.730029
C23	C	0.816026	-0.657374	-0.714229
C24	C	1.483459	-1.190413	-0.637541
C25	C	1.476537	-1.284464	-0.642962
C26	C	1.328478	-1.280784	-0.757475
C27	C	1.335400	-1.186733	-0.752054
C28	C	1.412892	-1.141551	-0.692084
C29	C	1.419809	-1.047497	-0.686657
C30	C	1.271756	-1.043820	-0.801176
C31	C	1.264834	-1.137870	-0.806597
C32	C	1.639842	-0.697726	-0.757987
C33	C	1.753108	-0.711849	-0.773302
C34	C	1.338133	-0.690131	-0.991762
C35	C	1.322829	-0.701017	-1.106698
C36	C	1.391578	-0.429732	-0.708640
C37	C	1.399048	-0.329652	-0.702926
C38	C	1.382022	-0.658870	-1.163188
C39	C	1.366205	-0.670120	-1.281980
C40	C	1.409886	-0.639082	-0.453391
C41	C	1.425406	-0.627967	-0.338469
H42	H	0.965901	-0.729359	-0.792296
N43	N	1.503395	-0.998766	-0.621989
H44	H	1.497074	-0.931770	-0.626828
H45	H	1.496228	-1.006277	-0.546937
N46	N	1.567024	-1.141671	-0.572852
H47	H	1.610675	-1.186897	-0.539116
H48	H	1.611415	-1.112461	-0.619100
H49	H	0.783226	-0.599948	-0.651965
N50	N	1.464674	-0.600047	-1.110781
H51	H	1.533954	-0.624882	-1.140178
H52	H	1.451087	-0.535518	-1.123727
H53	H	1.487793	-0.583546	-1.298892
H54	H	0.785905	-0.769267	-0.835576
N55	N	1.240194	-0.759854	-1.159118
H56	H	1.202865	-0.786436	-1.105099
H57	H	1.189845	-0.721537	-1.195464
H58	H	0.963212	-0.560054	-0.608705
N59	N	1.283545	-0.728939	-1.334388
H60	H	1.283957	-0.728633	-1.411819
H61	H	1.297083	-0.793456	-1.321386
H62	H	1.265394	-1.317589	-0.806308
N63	N	1.552649	-1.337168	-0.584138
H64	H	1.602787	-1.294271	-0.545327
H65	H	1.514712	-1.366537	-0.532896
H66	H	1.201744	-1.174671	-0.855426
N67	N	1.195632	-0.991118	-0.860002
H68	H	1.211771	-0.924680	-0.847467
H69	H	1.200383	-1.016483	-0.936950
