data_functionalizedCrystal
_audit_creation_method	'MofGen! by Chris Wilmer'
_symmetry_space_group_name_H-M	'P1'
_symmetry_Int_Tables_number	1
_symmetry_cell_setting	triclinic
loop_
_symmetry_equiv_pos_as_xyz
  x,y,z
_cell_length_a	12.594517
_cell_length_b	12.594516
_cell_length_c	17.077396
_cell_angle_alpha	90.023494
_cell_angle_beta	89.979204
_cell_angle_gamma	89.973836
loop_
_atom_site_label
_atom_site_type_symbol
_atom_site_fract_x
_atom_site_fract_y
_atom_site_fract_z
Zn1	Zn	1.627173	0.423758	-0.443897
Zn2	Zn	1.627035	0.601759	-0.312642
Zn3	Zn	1.449181	0.423793	-0.312642
Zn4	Zn	1.449126	0.601693	-0.443863
O5	O	1.538129	0.512751	-0.378261
O6	O	1.776101	0.447383	-0.426500
O7	O	1.603408	0.578194	-0.202795
O8	O	1.472873	0.274843	-0.330067
O9	O	1.775999	0.578160	-0.330068
O10	O	1.603643	0.274817	-0.426500
O11	O	1.472740	0.447443	-0.202795
O12	O	1.300228	0.447379	-0.330034
O13	O	1.472779	0.578048	-0.553715
O14	O	1.300188	0.578082	-0.426442
O15	O	1.603589	0.447320	-0.553740
O16	O	1.603354	0.750696	-0.330035
O17	O	1.472645	0.750648	-0.426442
C18	C	1.261588	0.512728	-0.378235
C19	C	1.143282	0.512744	-0.378242
C20	C	1.538008	0.789292	-0.378252
C21	C	1.538053	0.907597	-0.378275
C22	C	1.003257	0.441576	-0.325926
C23	C	1.074118	0.415648	-0.397556
C24	C	1.073993	0.538624	-0.306620
C25	C	1.003358	0.486807	-0.449967
C26	C	1.003227	0.609828	-0.358984
C27	C	1.074056	0.583937	-0.430663
C28	C	1.466941	0.976863	-0.430673
C29	C	1.440996	1.047723	-0.359045
C30	C	1.564055	1.047536	-0.449914
C31	C	1.512058	0.976899	-0.306608
C32	C	1.635162	0.976706	-0.397526
C33	C	1.609254	1.047534	-0.325848
C34	C	1.815750	0.512775	-0.378288
C35	C	1.934055	0.512785	-0.378299
C36	C	1.538193	0.512673	-0.583005
C37	C	1.538221	0.512639	-0.670255
C38	C	1.538233	1.235130	-0.378286
C39	C	1.538158	1.116825	-0.378294
C40	C	1.606336	0.444563	-0.711260
C41	C	1.606349	0.444528	-0.793240
C42	C	1.538251	0.512574	-0.834215
C43	C	1.470128	0.580653	-0.793205
C44	C	1.470111	0.580683	-0.711226
C45	C	1.470171	0.580589	-0.964075
C46	C	1.470189	0.580562	-1.046059
C47	C	1.606409	0.444435	-1.046089
C48	C	1.606392	0.444464	-0.964110
C49	C	1.538270	0.512544	-0.923106
C50	C	1.538126	0.512752	-0.174313
C51	C	1.538305	0.512486	-0.087064
H52	H	1.105238	0.333560	-0.413883
O53	O	1.332277	1.089038	-0.337475
H54	H	1.333516	1.177157	-0.337127
H55	H	0.972459	0.464839	-0.510578
H56	H	1.104944	0.644138	-0.474980
O57	O	1.688972	1.088389	-0.267099
H58	H	1.769255	1.058672	-0.282609
H59	H	1.414677	0.636054	-0.826573
H60	H	0.972066	0.691889	-0.342645
H61	H	1.661849	0.389060	-0.930751
H62	H	1.661818	0.389096	-0.826622
O63	O	1.593141	1.088635	-0.530154
H64	H	1.533940	1.060329	-0.573522
H65	H	1.414633	0.636106	-0.677841
O66	O	1.679877	0.370992	-1.090308
H67	H	1.668440	0.382389	-1.154197
H68	H	1.414682	0.636011	-0.930691
O69	O	0.962065	0.361784	-0.267363
H70	H	0.990460	0.281274	-0.283565
O71	O	1.396720	0.653936	-1.090252
H72	H	1.408184	0.642478	-1.154146
O73	O	1.115096	0.567611	-0.226360
H74	H	1.086727	0.508401	-0.183023
H75	H	1.406712	0.945831	-0.474921
H76	H	1.490012	0.945999	-0.246014
O77	O	1.743974	0.935589	-0.419026
H78	H	1.765383	0.963915	-0.478507
H79	H	1.661793	0.389155	-0.677904
