data_functionalizedCrystal
_audit_creation_method	'MofGen! by Chris Wilmer'
_symmetry_space_group_name_H-M	'P1'
_symmetry_Int_Tables_number	1
_symmetry_cell_setting	triclinic
loop_
_symmetry_equiv_pos_as_xyz
  x,y,z
_cell_length_a	15.995292
_cell_length_b	15.995280
_cell_length_c	15.072220
_cell_angle_alpha	90.013217
_cell_angle_beta	90.002061
_cell_angle_gamma	96.533893
loop_
_atom_site_label
_atom_site_type_symbol
_atom_site_fract_x
_atom_site_fract_y
_atom_site_fract_z
O1	O	0.107643	-1.111010	-0.073791
O2	O	0.440976	-0.777677	0.259543
O3	O	0.774310	-0.444344	0.592876
O4	O	0.121033	-0.867224	-0.073789
O5	O	0.454366	-0.533891	0.259545
O6	O	0.787699	-0.200557	0.592878
O7	O	-0.007555	-0.995807	-0.073791
O8	O	0.325779	-0.662473	0.259542
O9	O	0.659112	-0.329140	0.592876
O10	O	0.236231	-0.982428	-0.073788
O11	O	0.569564	-0.649094	0.259545
O12	O	0.902897	-0.315761	0.592878
O13	O	-0.007548	-0.995775	0.073774
O14	O	0.325786	-0.662441	0.407107
O15	O	0.659119	-0.329108	0.740441
O16	O	0.121040	-0.867192	0.073777
O17	O	0.454373	-0.533859	0.407110
O18	O	0.787706	-0.200526	0.740443
O19	O	0.107650	-1.110978	0.073774
O20	O	0.440984	-0.777645	0.407108
O21	O	0.774317	-0.444312	0.740441
Zn22	Zn	0.114346	-0.989080	0.097205
Zn23	Zn	0.447680	-0.655747	0.430538
Zn24	Zn	0.781013	-0.322414	0.763871
Zn25	Zn	0.114337	-0.989122	-0.097219
Zn26	Zn	0.447670	-0.655789	0.236114
Zn27	Zn	0.781003	-0.322455	0.569448
O28	O	0.236238	-0.982396	0.073777
O29	O	0.569571	-0.649063	0.407110
O30	O	0.902904	-0.315729	0.740443
C31	C	0.120493	-0.836013	-0.000006
C32	C	0.453826	-0.502679	0.333327
C33	C	0.787160	-0.169346	0.666661
C34	C	0.118865	-0.743059	-0.000005
C35	C	0.452198	-0.409726	0.333328
C36	C	0.785531	-0.076393	0.666661
C37	C	0.112878	-0.405320	-0.000018
C38	C	0.446212	-0.071987	0.333315
C39	C	0.779545	0.261346	0.666648
C40	C	0.205684	-0.428613	-0.000346
C41	C	0.539017	-0.095280	0.332987
C42	C	0.872351	0.238053	0.666320
C43	C	0.207444	-0.525289	-0.000009
C44	C	0.540777	-0.191956	0.333324
C45	C	0.874110	0.141378	0.666658
C46	C	0.115849	-0.572876	-0.000012
C47	C	0.449182	-0.239543	0.333321
C48	C	0.782515	0.093790	0.666654
C49	C	0.069455	-0.543766	0.084251
C50	C	0.402788	-0.210433	0.417584
C51	C	0.736122	0.122901	0.750918
C52	C	0.068342	-0.446975	0.084317
C53	C	0.401675	-0.113642	0.417650
C54	C	0.735009	0.219692	0.750984
C55	C	0.066439	-0.447156	-0.083492
C56	C	0.399772	-0.113823	0.249841
C57	C	0.733106	0.219510	0.583174
C58	C	0.069874	-0.543649	-0.084601
C59	C	0.403207	-0.210316	0.248732
C60	C	0.736540	0.123018	0.582065
C61	C	0.117523	-0.667573	-0.000006
C62	C	0.450856	-0.334239	0.333327
C63	C	0.784189	-0.000906	0.666661
C64	C	0.111202	-0.310624	-0.000019
C65	C	0.444535	0.022709	0.333315
C66	C	0.777868	0.356042	0.666648
C67	C	-0.038747	-0.995246	-0.000011
C68	C	0.294587	-0.661913	0.333323
C69	C	0.627920	-0.328579	0.666656
C70	C	-0.131699	-0.993614	-0.000017
C71	C	0.201634	-0.660280	0.333316
C72	C	0.534968	-0.326947	0.666649
C73	C	-0.469436	-0.987612	-0.000009
C74	C	-0.136103	-0.654279	0.333324
C75	C	0.197231	-0.320946	0.666657
C76	C	-0.446147	-1.080420	0.000320
C77	C	-0.112814	-0.747086	0.333653
C78	C	0.220519	-0.413753	0.666986
C79	C	-0.349472	-1.082184	-0.000016
C80	C	-0.016139	-0.748850	0.333317
C81	C	0.317195	-0.415517	0.666650
C82	C	-0.301881	-0.990590	-0.000013
C83	C	0.031452	-0.657257	0.333321
C84	C	0.364786	-0.323924	0.666654
C85	C	-0.330974	-0.944209	-0.084277
C86	C	0.002359	-0.610876	0.249057
C87	C	0.335692	-0.277542	0.582390
C88	C	-0.427765	-0.943092	-0.084344
C89	C	-0.094431	-0.609758	0.248989
C90	C	0.238902	-0.276425	0.582323
C91	C	-0.427613	-0.941160	0.083465
C92	C	-0.094280	-0.607827	0.416799
C93	C	0.239054	-0.274494	0.750132
C94	C	-0.331121	-0.944599	0.084576
C95	C	0.002212	-0.611266	0.417909
C96	C	0.335545	-0.277933	0.751242
C97	C	-0.207185	-0.992268	-0.000018
C98	C	0.126148	-0.658935	0.333316
C99	C	0.459481	-0.325602	0.666649
C100	C	-0.564131	-0.985931	-0.000010
C101	C	-0.230798	-0.652598	0.333323
C102	C	0.102535	-0.319265	0.666656
C103	C	0.267430	-0.982956	-0.000005
C104	C	0.600763	-0.649623	0.333328
C105	C	0.934096	-0.316290	0.666661
C106	C	0.360382	-0.984589	-0.000005
C107	C	0.693715	-0.651255	0.333329
C108	C	1.027049	-0.317922	0.666662
N109	N	0.114352	-0.989058	0.229893
N110	N	0.447685	-0.655725	0.563227
N111	N	0.781019	-0.322391	0.896560
C112	C	0.108201	-0.142188	-0.000013
C113	C	0.441534	0.191145	0.333321
C114	C	0.774868	0.524478	0.666654
C115	C	0.109862	-0.235137	-0.000025
C116	C	0.443196	0.098196	0.333308
C117	C	0.776529	0.431529	0.666641
N118	N	0.114324	-0.989151	-0.229908
N119	N	0.447658	-0.655818	0.103426
N120	N	0.780991	-0.322485	0.436759
C121	C	0.114333	-0.989120	0.589095
C122	C	0.447667	-0.655787	0.922428
C123	C	0.781000	-0.322454	1.255762
C124	C	0.182907	-0.920088	0.551489
C125	C	0.516241	-0.586754	0.884823
C126	C	0.849574	-0.253421	1.218156
C127	C	0.183158	-0.920246	0.448664
C128	C	0.516491	-0.586912	0.781997
C129	C	0.849824	-0.253579	1.115330
C130	C	0.114343	-0.989089	0.410891
C131	C	0.447676	-0.655755	0.744224
C132	C	0.781009	-0.322422	1.077557
C133	C	0.133403	-1.076452	0.448182
C134	C	0.466736	-0.743119	0.781515
C135	C	0.800070	-0.409786	1.114848
C136	C	0.133890	-1.076066	0.551039
C137	C	0.467224	-0.742732	0.884373
C138	C	0.800557	-0.409399	1.217706
C139	C	0.026496	-0.971569	0.551194
C140	C	0.359829	-0.638235	0.884528
C141	C	0.693163	-0.304902	1.217861
C142	C	0.027082	-0.969564	0.448331
C143	C	0.360416	-0.636231	0.781664
C144	C	0.693749	-0.302897	1.114998
C145	C	0.114346	-0.989076	0.310177
C146	C	0.447680	-0.655743	0.643511
C147	C	0.781013	-0.322410	0.976844
C148	C	0.114332	-0.989139	0.689808
C149	C	0.447665	-0.655805	1.023142
C150	C	0.780998	-0.322472	1.356475
H151	H	0.095445	-0.418837	-0.147360
H152	H	0.428779	-0.085503	0.185974
H153	H	0.762112	0.247830	0.519307
Cl154	Cl	0.263882	-0.553678	0.093414
Cl155	Cl	0.597215	-0.220345	0.426748
Cl156	Cl	0.930548	0.112989	0.760081
H157	H	0.171742	-0.854938	0.576251
H158	H	0.505075	-0.521605	0.909584
H159	H	0.838408	-0.188271	1.242918
Cl160	Cl	-0.302458	-0.996733	0.180824
Cl161	Cl	0.030875	-0.663400	0.514157
Cl162	Cl	0.364208	-0.330066	0.847490
Cl163	Cl	-0.039029	-0.425579	-0.084375
Cl164	Cl	0.294304	-0.092246	0.248959
Cl165	Cl	0.627637	0.241087	0.582292
H166	H	0.103653	-0.562225	-0.146939
H167	H	0.436987	-0.228892	0.186395
H168	H	0.770320	0.104442	0.519728
H169	H	0.084785	-1.129048	0.423712
H170	H	0.418118	-0.795715	0.757045
H171	H	0.751452	-0.462382	1.090378
H172	H	-0.455706	-0.970374	0.147337
H173	H	-0.122373	-0.637040	0.480670
H174	H	0.210961	-0.303707	0.814004
Cl175	Cl	0.260917	-0.385397	-0.093645
Cl176	Cl	0.594250	-0.052064	0.239688
Cl177	Cl	0.927583	0.281269	0.573022
H178	H	-0.442298	-0.875045	-0.088159
H179	H	-0.108964	-0.541712	0.245174
H180	H	0.224369	-0.208379	0.578507
Cl181	Cl	-0.489381	-1.135635	0.093618
Cl182	Cl	-0.156048	-0.802301	0.426952
Cl183	Cl	0.177285	-0.468968	0.760285
H184	H	-0.298135	-0.877744	0.089667
H185	H	0.035199	-0.544411	0.423001
H186	H	0.368532	-0.211078	0.756334
H187	H	-0.330453	-1.118509	0.060386
H188	H	0.002880	-0.785176	0.393719
H189	H	0.336213	-0.451843	0.727053
H190	H	-0.441586	-0.872847	0.084035
H191	H	-0.108253	-0.539514	0.417369
H192	H	0.225080	-0.206180	0.750702
Cl193	Cl	0.260618	-0.383779	0.092426
Cl194	Cl	0.593952	-0.050446	0.425759
Cl195	Cl	0.927285	0.282887	0.759092
H196	H	0.003019	-0.576634	-0.089693
H197	H	0.336352	-0.243301	0.243640
H198	H	0.669685	0.090033	0.576973
H199	H	0.012617	-0.905298	0.423959
H200	H	0.345951	-0.571965	0.757292
H201	H	0.679284	-0.238632	1.090626
H202	H	-0.475177	-1.116006	-0.059771
H203	H	-0.141843	-0.782673	0.273562
H204	H	0.191490	-0.449339	0.606895
H205	H	0.100481	-0.420138	0.147308
H206	H	0.433814	-0.086804	0.480641
H207	H	0.767147	0.246529	0.813974
H208	H	-0.310925	-0.976443	-0.146987
H209	H	0.022408	-0.643110	0.186346
H210	H	0.355742	-0.309777	0.519679
H211	H	-0.331080	-1.118750	-0.060526
H212	H	0.002254	-0.785416	0.272807
H213	H	0.335587	-0.452083	0.606141
Cl214	Cl	0.282984	-0.937159	0.591362
Cl215	Cl	0.616317	-0.603825	0.924695
Cl216	Cl	0.949651	-0.270492	1.258029
Cl217	Cl	-0.281744	-0.840150	-0.089119
Cl218	Cl	0.051589	-0.506816	0.244215
Cl219	Cl	0.384922	-0.173483	0.577548
H220	H	-0.454592	-0.975240	-0.147335
H221	H	-0.121259	-0.641906	0.185998
H222	H	0.212075	-0.308573	0.519332
H223	H	0.171805	-0.855306	0.423453
H224	H	0.505138	-0.521973	0.756786
H225	H	0.838472	-0.188639	1.090120
H226	H	0.000297	-0.432438	0.088142
H227	H	0.333630	-0.099105	0.421475
H228	H	0.666963	0.234229	0.754809
Cl229	Cl	0.283805	-0.937514	0.410656
Cl230	Cl	0.617139	-0.604180	0.743989
Cl231	Cl	0.950472	-0.270847	1.077323
H232	H	0.197949	-1.091535	0.575022
H233	H	0.531282	-0.758202	0.908355
H234	H	0.864615	-0.424868	1.241688
H235	H	0.101679	-0.563805	0.146962
H236	H	0.435012	-0.230472	0.480295
H237	H	0.768345	0.102862	0.813629
H238	H	0.085912	-1.129038	0.575913
H239	H	0.419246	-0.795705	0.909247
H240	H	0.752579	-0.462372	1.242580
H241	H	0.196731	-1.092292	0.422413
H242	H	0.530065	-0.758959	0.755746
H243	H	0.863398	-0.425625	1.089080
Cl244	Cl	-0.001793	-0.875332	0.591290
Cl245	Cl	0.331540	-0.541999	0.924624
Cl246	Cl	0.664873	-0.208666	1.257957
H247	H	0.243773	-0.544321	-0.060414
H248	H	0.577106	-0.210988	0.272919
H249	H	0.910440	0.122346	0.606252
Cl250	Cl	-0.055394	-1.042161	0.408652
Cl251	Cl	0.277939	-0.708827	0.741985
Cl252	Cl	0.611273	-0.375494	1.075319
Cl253	Cl	-0.034612	-0.592979	0.089084
Cl254	Cl	0.298722	-0.259646	0.422418
Cl255	Cl	0.632055	0.073688	0.755751
Cl256	Cl	-0.052291	-1.049292	0.588739
Cl257	Cl	0.281042	-0.715958	0.922072
Cl258	Cl	0.614375	-0.382625	1.255405
