data_functionalizedCrystal
_audit_creation_method	'MofGen! by Chris Wilmer'
_symmetry_space_group_name_H-M	'P1'
_symmetry_Int_Tables_number	1
_symmetry_cell_setting	triclinic
loop_
_symmetry_equiv_pos_as_xyz
  x,y,z
_cell_length_a	14.044220
_cell_length_b	9.065218
_cell_length_c	7.540329
_cell_angle_alpha	89.998628
_cell_angle_beta	89.996748
_cell_angle_gamma	90.897619
loop_
_atom_site_label
_atom_site_type_symbol
_atom_site_fract_x
_atom_site_fract_y
_atom_site_fract_z
O1	O	1.260760	-0.356074	0.147280
O2	O	1.594093	-0.022740	0.480614
O3	O	1.927427	0.310593	0.813947
O4	O	0.984680	-0.343225	0.147326
O5	O	1.318014	-0.009891	0.480659
O6	O	1.651347	0.323442	0.813992
O7	O	1.128427	-0.135639	0.147298
O8	O	1.461760	0.197694	0.480632
O9	O	1.795093	0.531028	0.813965
O10	O	1.117014	-0.563659	0.147308
O11	O	1.450347	-0.230326	0.480641
O12	O	1.783680	0.103008	0.813974
O13	O	1.128422	-0.135637	-0.147667
O14	O	1.461755	0.197697	0.185667
O15	O	1.795088	0.531030	0.519000
O16	O	0.984675	-0.343222	-0.147639
O17	O	1.318009	-0.009889	0.185694
O18	O	1.651342	0.323444	0.519027
O19	O	1.260755	-0.356071	-0.147685
O20	O	1.594088	-0.022738	0.185649
O21	O	1.927422	0.310595	0.518982
Cu22	Cu	1.122715	-0.349647	-0.174595
Cu23	Cu	1.456048	-0.016313	0.158739
Cu24	Cu	1.789381	0.317020	0.492072
Cu25	Cu	1.122721	-0.349649	0.174236
Cu26	Cu	1.456054	-0.016316	0.507569
Cu27	Cu	1.789387	0.317017	0.840902
O28	O	1.117009	-0.563657	-0.147657
O29	O	1.450342	-0.230323	0.185676
O30	O	1.783675	0.103010	0.519009
C31	C	0.949315	-0.337599	-0.000151
C32	C	1.282648	-0.004266	0.333182
C33	C	1.615982	0.329068	0.666516
C34	C	0.843945	-0.320822	-0.000133
C35	C	1.177279	0.012511	0.333200
C36	C	1.510612	0.345845	0.666533
C37	C	1.127327	-0.080530	-0.000181
C38	C	1.460661	0.252804	0.333152
C39	C	1.793994	0.586137	0.666486
C40	C	1.124048	0.083677	-0.000172
C41	C	1.457381	0.417010	0.333161
C42	C	1.790714	0.750343	0.666495
N43	N	1.122717	-0.349645	-0.419943
N44	N	1.456051	-0.016311	-0.086610
N45	N	1.789384	0.317022	0.246724
C46	C	0.651021	-0.290150	-0.000169
C47	C	0.984354	0.043183	0.333164
C48	C	1.317687	0.376517	0.666497
C49	C	0.594409	-0.409139	-0.000174
C50	C	0.927742	-0.075806	0.333159
C51	C	1.261076	0.257528	0.666492
C52	C	0.487059	-0.392073	-0.000194
C53	C	0.820392	-0.058740	0.333139
C54	C	1.153726	0.274594	0.666473
C55	C	0.758381	-0.307214	-0.000149
C56	C	1.091714	0.026119	0.333184
C57	C	1.425047	0.359453	0.666517
C58	C	1.296120	-0.361697	-0.000204
C59	C	1.629453	-0.028364	0.333129
C60	C	1.962787	0.304970	0.666463
C61	C	1.401490	-0.378474	-0.000210
C62	C	1.734823	-0.045141	0.333123
C63	C	2.068157	0.288193	0.666457
C64	C	1.118108	-0.618766	-0.000174
C65	C	1.451441	-0.285433	0.333159
C66	C	1.784775	0.047901	0.666493
C67	C	1.121388	-0.782972	-0.000171
C68	C	1.454721	-0.449639	0.333162
C69	C	1.788054	-0.116306	0.666495
N70	N	1.122725	-0.349641	0.419584
N71	N	1.456059	-0.016307	0.752917
N72	N	1.789392	0.317026	1.086251
H73	H	0.626565	-0.523826	-0.000163
H74	H	0.959898	-0.190493	0.333170
H75	H	1.293231	0.142841	0.666503
C76	C	0.607581	-0.135223	-0.000168
C77	C	0.940915	0.198111	0.333165
C78	C	1.274248	0.531444	0.666498
N79	N	0.574852	-0.018533	-0.000159
N80	N	0.908185	0.314801	0.333174
N81	N	1.241519	0.648134	0.666507
