data_functionalizedCrystal
_audit_creation_method	'MofGen! by Chris Wilmer'
_symmetry_space_group_name_H-M	'P1'
_symmetry_Int_Tables_number	1
_symmetry_cell_setting	triclinic
loop_
_symmetry_equiv_pos_as_xyz
  x,y,z
_cell_length_a	19.805407
_cell_length_b	19.805405
_cell_length_c	19.805399
_cell_angle_alpha	89.970699
_cell_angle_beta	89.982197
_cell_angle_gamma	90.023727
loop_
_atom_site_label
_atom_site_type_symbol
_atom_site_fract_x
_atom_site_fract_y
_atom_site_fract_z
Zn1	Zn	1.034736	-0.269527	-0.382680
Zn2	Zn	1.284736	-0.019527	-0.132680
Zn3	Zn	1.534736	0.230473	0.117320
Zn4	Zn	1.784736	0.480473	0.367320
Zn5	Zn	1.034650	-0.382716	-0.269488
Zn6	Zn	1.284650	-0.132716	-0.019488
Zn7	Zn	1.534650	0.117284	0.230512
Zn8	Zn	1.784650	0.367284	0.480512
Zn9	Zn	0.921550	-0.269541	-0.269508
Zn10	Zn	1.171550	-0.019541	-0.019508
Zn11	Zn	1.421550	0.230459	0.230492
Zn12	Zn	1.671550	0.480459	0.480492
Zn13	Zn	0.921514	-0.382674	-0.382638
Zn14	Zn	1.171514	-0.132674	-0.132638
Zn15	Zn	1.421514	0.117326	0.117362
Zn16	Zn	1.671514	0.367326	0.367362
O17	O	0.978113	-0.326115	-0.326078
O18	O	1.228113	-0.076115	-0.076078
O19	O	1.478113	0.173885	0.173922
O20	O	1.728113	0.423885	0.423922
O21	O	1.129441	-0.284554	-0.367674
O22	O	1.379441	-0.034554	-0.117674
O23	O	1.629441	0.215446	0.132326
O24	O	1.879441	0.465446	0.382326
O25	O	1.019627	-0.367726	-0.174774
O26	O	1.269627	-0.117726	0.075226
O27	O	1.519627	0.132274	0.325226
O28	O	1.769627	0.382274	0.575226
O29	O	0.936615	-0.174822	-0.284546
O30	O	1.186615	0.075178	-0.034546
O31	O	1.436615	0.325178	0.215454
O32	O	1.686615	0.575178	0.465454
O33	O	1.129378	-0.367713	-0.284512
O34	O	1.379378	-0.117713	-0.034512
O35	O	1.629378	0.132287	0.215488
O36	O	1.879378	0.382287	0.465488
O37	O	1.019772	-0.174813	-0.367693
O38	O	1.269772	0.075187	-0.117693
O39	O	1.519772	0.325187	0.132307
O40	O	1.769772	0.575187	0.382307
O41	O	0.936533	-0.284576	-0.174788
O42	O	1.186533	-0.034576	0.075212
O43	O	1.436533	0.215424	0.325212
O44	O	1.686533	0.465424	0.575212
O45	O	0.826829	-0.284536	-0.284506
O46	O	1.076829	-0.034536	-0.034506
O47	O	1.326829	0.215464	0.215494
O48	O	1.576829	0.465464	0.465494
O49	O	0.936553	-0.367642	-0.477360
O50	O	1.186553	-0.117642	-0.227360
O51	O	1.436553	0.132358	0.022640
O52	O	1.686553	0.382358	0.272640
O53	O	0.826802	-0.367655	-0.367622
O54	O	1.076802	-0.117655	-0.117622
O55	O	1.326802	0.132345	0.132378
O56	O	1.576802	0.382345	0.382378
O57	O	1.019737	-0.284514	-0.477391
O58	O	1.269737	-0.034514	-0.227391
O59	O	1.519737	0.215486	0.022609
O60	O	1.769737	0.465486	0.272609
O61	O	1.019592	-0.477427	-0.284472
O62	O	1.269592	-0.227427	-0.034472
O63	O	1.519592	0.022573	0.215528
O64	O	1.769592	0.272573	0.465528
O65	O	0.936471	-0.477397	-0.367603
O66	O	1.186471	-0.227397	-0.117603
O67	O	1.436471	0.022603	0.132397
O68	O	1.686471	0.272603	0.382397
C69	C	0.802257	-0.326093	-0.326062
C70	C	1.052257	-0.076093	-0.076062
C71	C	1.302257	0.173907	0.173938
C72	C	1.552257	0.423907	0.423938
C73	C	0.727025	-0.326101	-0.326071
C74	C	0.977025	-0.076101	-0.076071
C75	C	1.227025	0.173899	0.173929
C76	C	1.477025	0.423899	0.423929
C77	C	0.691714	-0.282876	-0.369439
C78	C	0.941714	-0.032876	-0.119439
C79	C	1.191714	0.217124	0.130561
C80	C	1.441714	0.467124	0.380561
C81	C	0.621025	-0.282880	-0.369442
C82	C	0.871025	-0.032880	-0.119442
C83	C	1.121025	0.217120	0.130558
C84	C	1.371025	0.467120	0.380558
C85	C	0.585649	-0.326112	-0.326079
C86	C	0.835649	-0.076112	-0.076079
C87	C	1.085649	0.173888	0.173921
C88	C	1.335649	0.423888	0.423921
C89	C	0.620965	-0.369338	-0.282706
C90	C	0.870965	-0.119338	-0.032706
C91	C	1.120965	0.130662	0.217294
C92	C	1.370965	0.380662	0.467294
C93	C	0.691652	-0.369330	-0.282701
C94	C	0.941652	-0.119330	-0.032701
C95	C	1.191652	0.130670	0.217299
C96	C	1.441652	0.380670	0.467299
C97	C	0.335892	-0.369368	-0.282727
C98	C	0.585892	-0.119368	-0.032727
C99	C	0.835892	0.130632	0.217273
C100	C	1.085892	0.380632	0.467273
C101	C	0.265199	-0.369374	-0.282737
C102	C	0.515199	-0.119374	-0.032737
C103	C	0.765199	0.130626	0.217263
C104	C	1.015199	0.380626	0.467263
C105	C	0.265265	-0.282918	-0.369468
C106	C	0.515265	-0.032918	-0.119468
C107	C	0.765265	0.217082	0.130532
C108	C	1.015265	0.467082	0.380532
C109	C	0.335952	-0.282910	-0.369462
C110	C	0.585952	-0.032910	-0.119462
C111	C	0.835952	0.217090	0.130538
C112	C	1.085952	0.467090	0.380538
C113	C	0.371262	-0.326134	-0.326087
C114	C	0.621262	-0.076134	-0.076087
C115	C	0.871262	0.173866	0.173913
C116	C	1.121262	0.423866	0.423913
C117	C	0.447910	-0.326128	-0.326084
C118	C	0.697910	-0.076128	-0.076084
C119	C	0.947910	0.173872	0.173916
C120	C	1.197910	0.423872	0.423916
C121	C	0.509002	-0.326121	-0.326085
C122	C	0.759002	-0.076121	-0.076085
C123	C	1.009002	0.173879	0.173915
C124	C	1.259002	0.423879	0.423915
C125	C	0.978036	-0.501971	-0.326046
C126	C	1.228036	-0.251971	-0.076046
C127	C	1.478036	-0.001971	0.173954
C128	C	1.728036	0.248029	0.423954
C129	C	0.978066	-0.577203	-0.326054
C130	C	1.228066	-0.327203	-0.076054
C131	C	1.478066	-0.077203	0.173946
C132	C	1.728066	0.172797	0.423946
C133	C	1.021389	-0.612540	-0.282813
C134	C	1.271389	-0.362540	-0.032813
C135	C	1.521389	-0.112540	0.217187
C136	C	1.771389	0.137460	0.467187
C137	C	1.021418	-0.683228	-0.282828
C138	C	1.271418	-0.433228	-0.032828
C139	C	1.521418	-0.183228	0.217172
C140	C	1.771418	0.066772	0.467172
C141	C	0.978119	-0.718578	-0.326081
C142	C	1.228119	-0.468578	-0.076081
C143	C	1.478119	-0.218578	0.173919
C144	C	1.728119	0.031422	0.423919
C145	C	0.934794	-0.683236	-0.369327
C146	C	1.184794	-0.433236	-0.119327
C147	C	1.434794	-0.183236	0.130673
C148	C	1.684794	0.066764	0.380673
C149	C	0.934769	-0.612549	-0.369315
C150	C	1.184769	-0.362549	-0.119315
C151	C	1.434769	-0.112549	0.130685
C152	C	1.684769	0.137451	0.380685
C153	C	0.934894	-0.968309	-0.369377
C154	C	1.184894	-0.718309	-0.119377
C155	C	1.434894	-0.468309	0.130623
C156	C	1.684894	-0.218309	0.380623
C157	C	0.934921	-1.039001	-0.369384
C158	C	1.184921	-0.789001	-0.119384
C159	C	1.434921	-0.539001	0.130616
C160	C	1.684921	-0.289001	0.380616
C161	C	1.021542	-1.038989	-0.282890
C162	C	1.271542	-0.788989	-0.032890
C163	C	1.521542	-0.538989	0.217110
C164	C	1.771542	-0.288989	0.467110
C165	C	1.021517	-0.968302	-0.282878
C166	C	1.271517	-0.718302	-0.032878
C167	C	1.521517	-0.468302	0.217122
C168	C	1.771517	-0.218302	0.467122
C169	C	0.978195	-0.932965	-0.326126
C170	C	1.228195	-0.682965	-0.076126
C171	C	1.478195	-0.432965	0.173874
C172	C	1.728195	-0.182965	0.423874
C173	C	0.978165	-0.856317	-0.326110
C174	C	1.228165	-0.606317	-0.076110
C175	C	1.478165	-0.356317	0.173890
C176	C	1.728165	-0.106317	0.423890
C177	C	0.978145	-0.795225	-0.326094
C178	C	1.228145	-0.545225	-0.076094
C179	C	1.478145	-0.295225	0.173906
C180	C	1.728145	-0.045225	0.423906
C181	C	1.154655	-0.326136	-0.326095
C182	C	1.404655	-0.076136	-0.076095
C183	C	1.654655	0.173864	0.173905
C184	C	1.904655	0.423864	0.423905
C185	C	1.229887	-0.326146	-0.326102
C186	C	1.479887	-0.076146	-0.076102
C187	C	1.729887	0.173854	0.173898
C188	C	1.979887	0.423854	0.423898
C189	C	0.978151	-0.326072	-0.502621
C190	C	1.228151	-0.076072	-0.252621
C191	C	1.478151	0.173928	-0.002621
C192	C	1.728151	0.423928	0.247379
C193	C	0.978167	-0.326054	-0.577853
C194	C	1.228167	-0.076054	-0.327853
C195	C	1.478167	0.173946	-0.077853
C196	C	1.728167	0.423946	0.172147
C197	C	0.978207	-0.149572	-0.326126
C198	C	1.228207	0.100428	-0.076126
C199	C	1.478207	0.350428	0.173874
C200	C	1.728207	0.600428	0.423874
C201	C	0.978248	-0.074340	-0.326146
C202	C	1.228248	0.175660	-0.076146
C203	C	1.478248	0.425660	0.173854
C204	C	1.728248	0.675660	0.423854
C205	C	1.021481	-0.282767	-0.613214
C206	C	1.271481	-0.032767	-0.363214
C207	C	1.521481	0.217233	-0.113214
C208	C	1.771481	0.467233	0.136786
C209	C	1.021488	-0.282747	-0.683903
C210	C	1.271488	-0.032747	-0.433903
C211	C	1.521488	0.217253	-0.183903
C212	C	1.771488	0.467253	0.066097
C213	C	0.978184	-0.326018	-0.719229
C214	C	1.228184	-0.076018	-0.469229
C215	C	1.478184	0.173982	-0.219229
C216	C	1.728184	0.423982	0.030771
C217	C	0.934864	-0.369308	-0.683863
C218	C	1.184864	-0.119308	-0.433863
C219	C	1.434864	0.130692	-0.183863
C220	C	1.684864	0.380692	0.066137
C221	C	0.934854	-0.369323	-0.613176
C222	C	1.184854	-0.119323	-0.363176
C223	C	1.434854	0.130677	-0.113176
C224	C	1.684854	0.380677	0.136824
C225	C	0.934902	-0.369244	-0.968936
C226	C	1.184902	-0.119244	-0.718936
C227	C	1.434902	0.130756	-0.468936
C228	C	1.684902	0.380756	-0.218936
C229	C	0.934917	-0.369227	-1.039628
C230	C	1.184917	-0.119227	-0.789628
C231	C	1.434917	0.130773	-0.539628
C232	C	1.684917	0.380773	-0.289628
C233	C	1.021536	-0.282668	-1.039663
C234	C	1.271536	-0.032668	-0.789663
C235	C	1.521536	0.217332	-0.539663
C236	C	1.771536	0.467332	-0.289663
C237	C	1.021527	-0.282684	-0.968976
C238	C	1.271527	-0.032684	-0.718976
C239	C	1.521527	0.217316	-0.468976
C240	C	1.771527	0.467316	-0.218976
C241	C	0.978205	-0.325970	-0.933616
C242	C	1.228205	-0.075970	-0.683616
C243	C	1.478205	0.174030	-0.433616
C244	C	1.728205	0.424030	-0.183616
C245	C	0.978197	-0.325990	-0.856968
C246	C	1.228197	-0.075990	-0.606968
C247	C	1.478197	0.174010	-0.356968
C248	C	1.728197	0.424010	-0.106968
C249	C	0.978194	-0.326002	-0.795876
C250	C	1.228194	-0.076002	-0.545876
C251	C	1.478194	0.173998	-0.295876
C252	C	1.728194	0.423998	-0.045876
C253	C	0.978114	-0.326108	-0.150222
C254	C	1.228114	-0.076108	0.099778
C255	C	1.478114	0.173892	0.349778
C256	C	1.728114	0.423892	0.599778
C257	C	0.978229	-0.325936	-0.074991
C258	C	1.228229	-0.075936	0.175009
C259	C	1.478229	0.174064	0.425009
C260	C	1.728229	0.424064	0.675009
H261	H	0.592278	-0.247684	-0.404757
H262	H	0.842278	0.002316	-0.154757
H263	H	1.092278	0.252316	0.095243
H264	H	1.342278	0.502316	0.345243
H265	H	0.899602	-0.404538	-0.712631
H266	H	1.149602	-0.154538	-0.462631
H267	H	1.399602	0.095462	-0.212631
H268	H	1.649602	0.345462	0.037369
F269	F	1.067470	-0.574925	-0.236772
F270	F	1.317470	-0.324925	0.013228
F271	F	1.567470	-0.074925	0.263228
F272	F	1.817470	0.175075	0.513228
H273	H	0.236507	-0.247721	-0.404783
H274	H	0.486507	0.002279	-0.154783
H275	H	0.736507	0.252279	0.095217
H276	H	0.986507	0.502279	0.345217
F277	F	1.067530	-0.720834	-0.236807
F278	F	1.317530	-0.470834	0.013193
F279	F	1.567530	-0.220834	0.263193
F280	F	1.817530	0.029166	0.513193
H281	H	0.236398	-0.404580	-0.247424
H282	H	0.486398	-0.154580	0.002576
H283	H	0.736398	0.095420	0.252576
H284	H	0.986398	0.345420	0.502576
H285	H	0.364632	-0.404564	-0.247409
H286	H	0.614632	-0.154564	0.002591
H287	H	0.864632	0.095436	0.252591
H288	H	1.114632	0.345436	0.502591
H289	H	0.720512	-0.247674	-0.404752
H290	H	0.970512	0.002326	-0.154752
H291	H	1.220512	0.252326	0.095248
H292	H	1.470512	0.502326	0.345248
F293	F	0.373598	-0.236900	-0.415617
F294	F	0.623598	0.013100	-0.165617
F295	F	0.873598	0.263100	0.084383
F296	F	1.123598	0.513100	0.334383
F297	F	0.888823	-0.415284	-1.077224
F298	F	1.138823	-0.165284	-0.827224
F299	F	1.388823	0.084716	-0.577224
F300	F	1.638823	0.334716	-0.327224
F301	F	0.888751	-0.415394	-0.575542
F302	F	1.138751	-0.165394	-0.325542
F303	F	1.388751	0.084606	-0.075542
F304	F	1.638751	0.334606	0.174458
F305	F	0.583313	-0.415345	-0.236553
F306	F	0.833313	-0.165345	0.013447
F307	F	1.083313	0.084655	0.263447
F308	F	1.333313	0.334655	0.513447
H309	H	0.720401	-0.404528	-0.247386
H310	H	0.970401	-0.154528	0.002614
H311	H	1.220401	0.095472	0.252614
H312	H	1.470401	0.345472	0.502614
H313	H	1.056773	-0.939522	-0.247655
H314	H	1.306773	-0.689522	0.002345
H315	H	1.556773	-0.439522	0.252345
H316	H	1.806773	-0.189522	0.502345
F317	F	0.888795	-0.415314	-0.931313
F318	F	1.138795	-0.165314	-0.681313
F319	F	1.388795	0.084686	-0.431313
F320	F	1.638795	0.334686	-0.181313
H321	H	1.056820	-1.067768	-0.247678
H322	H	1.306820	-0.817768	0.002322
H323	H	1.556820	-0.567768	0.252322
H324	H	1.806820	-0.317768	0.502322
F325	F	0.888835	-1.076621	-0.415424
F326	F	1.138835	-0.826621	-0.165424
F327	F	1.388835	-0.576621	0.084576
F328	F	1.638835	-0.326621	0.334576
F329	F	0.888786	-0.930710	-0.415405
F330	F	1.138786	-0.680710	-0.165405
F331	F	1.388786	-0.430710	0.084595
F332	F	1.638786	-0.180710	0.334595
H333	H	1.056747	-0.247532	-0.584457
H334	H	1.306747	0.002468	-0.334457
H335	H	1.556747	0.252468	-0.084457
H336	H	1.806747	0.502468	0.165543
F337	F	0.888717	-0.720859	-0.415364
F338	F	1.138717	-0.470859	-0.165364
F339	F	1.388717	-0.220859	0.084636
F340	F	1.638717	0.029141	0.334636
H341	H	0.899492	-0.583777	-0.404527
H342	H	1.149492	-0.333777	-0.154527
H343	H	1.399492	-0.083777	0.095473
H344	H	1.649492	0.166223	0.345473
F345	F	1.067613	-0.236698	-0.721534
F346	F	1.317613	0.013302	-0.471534
F347	F	1.567613	0.263302	-0.221534
F348	F	1.817613	0.513302	0.028466
H349	H	1.056792	-0.247450	-0.940217
H350	H	1.306792	0.002550	-0.690217
H351	H	1.556792	0.252550	-0.440217
H352	H	1.806792	0.502550	-0.190217
F353	F	1.067642	-0.236596	-1.077301
F354	F	1.317642	0.013404	-0.827301
F355	F	1.567642	0.263404	-0.577301
F356	F	1.817642	0.513404	-0.327301
