data_functionalizedCrystal
_audit_creation_method	'MofGen! by Chris Wilmer'
_symmetry_space_group_name_H-M	'P1'
_symmetry_Int_Tables_number	1
_symmetry_cell_setting	triclinic
loop_
_symmetry_equiv_pos_as_xyz
  x,y,z
_cell_length_a	12.811439
_cell_length_b	12.811432
_cell_length_c	11.892095
_cell_angle_alpha	80.673990
_cell_angle_beta	88.502246
_cell_angle_gamma	83.525252
loop_
_atom_site_label
_atom_site_type_symbol
_atom_site_fract_x
_atom_site_fract_y
_atom_site_fract_z
O1	O	-1.388775	-0.145841	0.063308
O2	O	-1.085374	-0.159107	0.033566
O3	O	-1.245822	0.001341	0.033567
O4	O	-1.228327	-0.306289	0.063307
O5	O	-1.232444	-0.012016	0.221573
O6	O	-1.071997	-0.172464	0.221572
O7	O	-1.375397	-0.159198	0.251313
Zn8	Zn	-1.221573	-0.167952	0.266292
Zn9	Zn	-1.239198	-0.150353	0.018587
O10	O	-1.214950	-0.319646	0.251312
C11	C	-1.039869	-0.164634	0.123472
C12	C	-0.924209	-0.161189	0.111262
C13	C	-0.692287	-0.169260	0.293303
C14	C	-0.583613	-0.166024	0.281837
C15	C	-0.598188	-0.151472	0.076864
C16	C	-0.706862	-0.154709	0.088330
C17	C	-0.753906	-0.163604	0.196554
C18	C	-0.862581	-0.166848	0.208019
C19	C	-0.877155	-0.152290	0.003046
C20	C	-0.768481	-0.149053	-0.008420
C21	C	-1.238564	0.034061	0.123471
C22	C	-1.236856	0.151458	0.111255
C23	C	-0.420901	-0.153675	0.161409
C24	C	-0.536560	-0.157132	0.173621
C25	C	-1.241734	0.324202	-0.008428
C26	C	-1.243344	0.213899	0.003038
C27	C	-1.228760	0.199328	0.208013
C28	C	-1.227150	0.309631	0.196547
C29	C	-1.233636	0.372064	0.088323
C30	C	-1.232018	0.482369	0.076857
C31	C	-1.217441	0.467796	0.281832
C32	C	-1.219051	0.357493	0.293298
N33	N	-1.209551	-0.179962	0.435345
C34	C	-1.222209	0.647634	0.161406
C35	C	-1.223922	0.530238	0.173615
N36	N	-1.251228	-0.138335	-0.150466
C37	C	-1.334879	-0.054704	0.672001
C38	C	-1.326484	-0.063107	0.790344
C39	C	-1.184361	-0.205164	0.790374
C40	C	-1.192756	-0.196761	0.672031
C41	C	-1.268019	-0.121530	0.612849
C42	C	-1.276419	-0.113133	0.494506
C43	C	-1.134291	-0.255184	0.494537
C44	C	-1.125896	-0.263587	0.612880
H45	H	-0.927337	-0.147691	-0.075734
H46	H	-1.079852	-0.309601	0.446363
C47	C	-1.410899	0.021201	0.490583
C48	C	-1.417637	0.027952	0.606945
H49	H	-1.462004	0.072218	0.450427
H50	H	-1.342795	0.034951	0.462807
H51	H	-1.423346	-0.048144	0.479602
H52	H	-1.405181	0.097295	0.617928
H53	H	-1.485757	0.014209	0.634731
C54	C	-1.467809	0.078151	0.778422
C55	C	-1.399980	0.010348	0.855365
H56	H	-1.513186	0.123498	0.818566
H57	H	-1.427825	0.119988	0.723889
H58	H	-1.508431	0.036947	0.740642
H59	H	-1.359353	0.051553	0.893139
H60	H	-1.439969	-0.031493	0.909917
H61	H	-0.900882	-0.174098	0.296141
C62	C	-0.438067	-0.140037	-0.031714
C63	C	-0.546464	-0.141688	-0.042089
H64	H	-0.406136	-0.134001	-0.105152
H65	H	-0.425405	-0.080976	0.003037
H66	H	-0.409143	-0.204024	0.013994
H67	H	-0.575389	-0.077697	-0.087790
H68	H	-0.559133	-0.200754	-0.076857
C69	C	-1.245728	0.499760	-0.117014
C70	C	-1.248853	0.392836	-0.127383
H71	H	-1.250116	0.542127	-0.190455
H72	H	-1.303214	0.522189	-0.071325
H73	H	-1.181722	0.507478	-0.082247
H74	H	-1.312863	0.385116	-0.162142
H75	H	-1.191362	0.370400	-0.173090
C76	C	-1.203179	0.442308	0.485597
C77	C	-1.208536	0.520407	0.388191
H78	H	-1.197671	0.474789	0.551254
H79	H	-1.264855	0.406947	0.491282
H80	H	-1.143365	0.392232	0.480321
H81	H	-1.268354	0.570479	0.393463
H82	H	-1.146853	0.555785	0.382505
C83	C	-1.033067	-0.235790	0.911138
C84	C	-1.101635	-0.287844	0.855449
H85	H	-0.982000	-0.286835	0.951319
H86	H	-0.998995	-0.188059	0.856586
H87	H	-1.071705	-0.197189	0.963290
H88	H	-1.062998	-0.326439	0.803290
H89	H	-1.135709	-0.335594	0.910007
H90	H	-1.064615	-0.324836	0.661079
C91	C	-0.666968	-0.183321	0.494760
C92	C	-0.744006	-0.179038	0.412258
H93	H	-0.698900	-0.189350	0.568197
H94	H	-0.616763	-0.243278	0.491502
H95	H	-0.633009	-0.120229	0.480542
H96	H	-0.777960	-0.242134	0.426471
H97	H	-0.794230	-0.119076	0.415519
C98	C	-0.735462	-0.226360	-0.178574
C99	C	-0.716762	-0.139284	-0.127374
H100	H	-0.703538	-0.220328	-0.252015
H101	H	-0.706528	-0.290327	-0.132861
H102	H	-0.809006	-0.227468	-0.185586
H103	H	-0.643218	-0.138181	-0.120355
H104	H	-0.745692	-0.075301	-0.173098
C105	C	-1.166697	0.181558	-0.176201
C106	C	-1.252227	0.161303	-0.103327
H107	H	-1.172178	0.149087	-0.241869
H108	H	-1.166678	0.256180	-0.198492
H109	H	-1.103230	0.153125	-0.137667
H110	H	-1.315694	0.189742	-0.141858
H111	H	-1.252256	0.086665	-0.081037
C112	C	-0.410557	-0.167513	0.355272
C113	C	-0.515879	-0.172237	0.388186
H114	H	-0.368744	-0.171340	0.420931
H115	H	-0.387617	-0.225517	0.316774
H116	H	-0.403882	-0.102467	0.305802
H117	H	-0.522555	-0.237287	0.437649
H118	H	-0.538825	-0.114229	0.426702
H119	H	-1.237292	0.533200	-0.011265
H120	H	-1.223490	0.148477	0.296125
H121	H	-1.213775	0.306646	0.381411
H122	H	-1.337704	-0.051879	0.446321
