data_functionalizedCrystal
_audit_creation_method	'MofGen! by Chris Wilmer'
_symmetry_space_group_name_H-M	'P1'
_symmetry_Int_Tables_number	1
_symmetry_cell_setting	triclinic
loop_
_symmetry_equiv_pos_as_xyz
  x,y,z
_cell_length_a	15.944551
_cell_length_b	10.654550
_cell_length_c	9.130313
_cell_angle_alpha	90.002757
_cell_angle_beta	90.006165
_cell_angle_gamma	96.008166
loop_
_atom_site_label
_atom_site_type_symbol
_atom_site_fract_x
_atom_site_fract_y
_atom_site_fract_z
O1	O	0.117978	-1.666307	0.121694
O2	O	0.129218	-1.300683	0.121721
O3	O	0.001381	-1.493480	0.121693
O4	O	0.245815	-1.473511	0.121721
O5	O	0.001374	-1.493478	-0.121906
O6	O	0.129211	-1.300682	-0.121878
O7	O	0.117972	-1.666306	-0.121905
Cu8	Cu	0.123591	-1.483493	-0.144134
Cu9	Cu	0.123598	-1.483495	0.143950
O10	O	0.245809	-1.473509	-0.121878
C11	C	0.128389	-1.253895	-0.000075
C12	C	0.125920	-1.114484	-0.000065
C13	C	-0.029921	-1.492650	-0.000106
C14	C	-0.123182	-1.490165	-0.000107
N15	N	0.123585	-1.483501	-0.346757
C16	C	-0.338764	-1.364720	-0.000077
C17	C	-0.399448	-1.422971	-0.120191
C18	C	-0.293933	-1.485668	-0.000095
C19	C	-0.399425	-1.423002	0.119979
C20	C	-0.458871	-1.481317	-0.000078
C21	C	-0.353388	-1.543953	-0.120308
C22	C	-0.353359	-1.543966	0.119969
C23	C	-0.414024	-1.602306	-0.000173
C24	C	-0.198917	-1.488172	-0.000107
C25	C	-0.553887	-1.478822	-0.000077
C26	C	0.277110	-1.474339	-0.000075
C27	C	0.370371	-1.476824	-0.000065
C28	C	0.118800	-1.713094	-0.000106
C29	C	0.121269	-1.852505	-0.000106
C30	C	0.201189	-1.034024	-0.000061
C31	C	0.198863	-0.903034	-0.000087
C32	C	0.045995	-0.932975	-0.000115
C33	C	0.048321	-1.063963	-0.000100
N34	N	0.123597	-1.483498	0.346572
C35	C	0.067103	-1.569027	0.423212
C36	C	0.067099	-1.569032	0.576549
C37	C	0.180085	-1.397968	0.576593
C38	C	0.180093	-1.397970	0.423259
H39	H	-0.306038	-1.264327	-0.000190
H40	H	-0.419795	-1.371830	0.221532
H41	H	-0.332930	-1.595080	0.221513
H42	H	-0.017184	-0.891824	-0.000152
H43	H	-0.012976	-1.129477	-0.000108
H44	H	0.226082	-1.328331	0.639046
H45	H	-0.333105	-1.595066	-0.221966
H46	H	0.021098	-1.638679	0.638945
H47	H	0.226101	-1.328321	0.360855
H48	H	0.264375	-1.075154	-0.000044
H49	H	0.260155	-0.837528	-0.000086
H50	H	0.021102	-1.638671	0.360778
H51	H	-0.419855	-1.371814	-0.221729
H52	H	-0.446601	-1.702787	-0.000249
