data_functionalizedCrystal
_audit_creation_method	'MofGen! by Chris Wilmer'
_symmetry_space_group_name_H-M	'P1'
_symmetry_Int_Tables_number	1
_symmetry_cell_setting	triclinic
loop_
_symmetry_equiv_pos_as_xyz
  x,y,z
_cell_length_a	16.956984
_cell_length_b	10.654545
_cell_length_c	15.455313
_cell_angle_alpha	92.693355
_cell_angle_beta	87.518126
_cell_angle_gamma	80.269423
loop_
_atom_site_label
_atom_site_type_symbol
_atom_site_fract_x
_atom_site_fract_y
_atom_site_fract_z
O1	O	1.061790	0.046149	-0.072134
O2	O	1.561790	0.546149	0.427866
O3	O	0.829876	0.090215	-0.072133
O4	O	1.329876	0.590215	0.427867
O5	O	0.951165	-0.115184	-0.072133
O6	O	1.451165	0.384816	0.427867
O7	O	0.940501	0.251548	-0.072134
O8	O	1.440501	0.751548	0.427866
O9	O	0.944229	-0.103483	0.072129
O10	O	1.444229	0.396517	0.572129
O11	O	0.822940	0.101915	0.072129
O12	O	1.322940	0.601915	0.572129
O13	O	1.054854	0.057850	0.072129
O14	O	1.554854	0.557850	0.572129
Cu15	Cu	0.938264	0.080951	0.085301
Cu16	Cu	1.438264	0.580951	0.585301
Cu17	Cu	0.946466	0.067114	-0.085306
Cu18	Cu	1.446466	0.567114	0.414694
O19	O	0.933565	0.263248	0.072128
O20	O	1.433565	0.763248	0.572128
C21	C	0.796712	0.098322	-0.000002
C22	C	1.296712	0.598322	0.499998
C23	C	0.708229	0.105030	-0.000002
C24	C	1.208229	0.605030	0.499998
C25	C	0.675524	-0.007136	-0.000000
C26	C	1.175524	0.492864	0.500000
C27	C	0.592384	-0.000826	-0.000006
C28	C	1.092384	0.499174	0.499994
C29	C	0.541950	0.117653	-0.000008
C30	C	1.041950	0.617653	0.499992
C31	C	0.574660	0.229827	-0.000013
C32	C	1.074660	0.729827	0.499987
C33	C	0.657799	0.223515	-0.000013
C34	C	1.157799	0.723515	0.499987
C35	C	0.292351	0.148896	-0.000015
C36	C	0.792351	0.648896	0.499985
C37	C	0.209206	0.155200	-0.000012
C38	C	0.709206	0.655200	0.499988
C39	C	0.226936	-0.075454	-0.000007
C40	C	0.726936	0.424546	0.499993
C41	C	0.310075	-0.081755	-0.000002
C42	C	0.810075	0.418245	0.499998
C43	C	0.342779	0.030419	-0.000011
C44	C	0.842779	0.530419	0.499989
N45	N	0.456967	0.124106	-0.000012
N46	N	0.956967	0.624106	0.499988
N47	N	0.427760	0.023964	-0.000013
N48	N	0.927760	0.523964	0.499987
C49	C	0.946914	-0.156040	-0.000003
C50	C	1.446914	0.343960	0.499997
C51	C	0.944571	-0.295208	-0.000008
C52	C	1.444571	0.204792	0.499992
C53	C	0.952142	-0.307973	-0.157287
C54	C	1.452142	0.192027	0.342713
C55	C	0.954830	-0.379737	-0.235926
C56	C	1.454830	0.120263	0.264074
C57	C	0.952629	-0.510497	-0.235928
C58	C	1.452629	-0.010497	0.264072
C59	C	0.947737	-0.569495	-0.157281
C60	C	1.447737	-0.069495	0.342719
C61	C	0.945049	-0.497732	-0.078642
C62	C	1.445049	0.002268	0.421358
C63	C	0.947253	-0.366970	-0.078649
C64	C	1.447253	0.133030	0.421351
C65	C	0.937472	-0.484964	0.078635
C66	C	1.437472	0.015036	0.578635
C67	C	0.939679	-0.354206	0.078638
C68	C	1.439679	0.145794	0.578638
C69	C	0.932580	-0.543963	0.157282
C70	C	1.432580	-0.043963	0.657282
C71	C	0.929897	-0.472200	0.235923
C72	C	1.429897	0.027800	0.735923
C73	C	0.932100	-0.341433	0.235921
C74	C	1.432100	0.158567	0.735921
C75	C	0.936991	-0.282442	0.157277
C76	C	1.436991	0.217558	0.657277
C77	C	1.088018	0.049743	-0.000004
C78	C	1.588018	0.549743	0.499996
C79	C	1.176501	0.043034	-0.000010
C80	C	1.676501	0.543034	0.499990
C81	C	0.937817	0.304104	-0.000003
C82	C	1.437817	0.804104	0.499997
C83	C	0.940160	0.443272	-0.000004
C84	C	1.440160	0.943272	0.499996
N85	N	0.932500	0.090681	0.205297
N86	N	1.432500	0.590681	0.705297
N87	N	0.952236	0.057373	-0.205301
N88	N	1.452236	0.557373	0.294699
C89	C	0.984046	0.003449	0.250691
C90	C	1.484046	0.503449	0.750691
C91	C	0.979695	0.010819	0.341499
C92	C	1.479695	0.510819	0.841499
C93	C	0.923801	0.105428	0.386911
C94	C	1.423801	0.605428	0.886911
C95	C	0.872249	0.192664	0.341510
C96	C	1.372249	0.692664	0.841510
C97	C	0.876597	0.185288	0.250704
C98	C	1.376597	0.685288	0.750704
C99	C	0.905033	0.137233	0.658492
C100	C	1.405033	0.637233	1.158492
C101	C	0.900690	0.144605	0.749305
C102	C	1.400690	0.644605	1.249305
C103	C	1.008135	-0.037243	0.749287
C104	C	1.508135	0.462757	1.249287
C105	C	1.012481	-0.044606	0.658479
C106	C	1.512481	0.455394	1.158479
C107	C	0.960927	0.042626	0.613086
C108	C	1.460927	0.542626	1.113086
N109	N	0.919353	0.112965	0.479731
N110	N	1.419353	0.612965	0.979731
N111	N	0.965371	0.035082	0.520268
N112	N	1.465371	0.535082	1.020268
H113	H	0.351134	-0.178233	0.000004
H114	H	0.851134	0.321767	0.500004
Cl115	Cl	0.333452	0.289916	-0.000025
Cl116	Cl	0.833452	0.789916	0.499975
Cl117	Cl	0.145804	0.304157	-0.000006
Cl118	Cl	0.645804	0.804157	0.499994
Cl119	Cl	0.929805	-0.708345	0.157281
Cl120	Cl	1.429805	-0.208345	0.657281
Cl121	Cl	0.830418	0.263555	0.806388
Cl122	Cl	1.330418	0.763555	1.306388
H123	H	0.565760	-0.092164	-0.000006
H124	H	1.065760	0.407836	0.499994
Cl125	Cl	0.928715	-0.251225	0.334788
Cl126	Cl	1.428715	0.248775	0.834788
H127	H	0.716582	-0.103614	0.000005
H128	H	1.216582	0.396386	0.500005
Cl129	Cl	0.185818	-0.216464	-0.000001
Cl130	Cl	0.685818	0.283536	0.499999
Cl131	Cl	0.801978	0.311597	0.398597
Cl132	Cl	1.301978	0.811597	0.898597
Cl133	Cl	0.511258	0.378772	-0.000024
Cl134	Cl	1.011258	0.878772	0.499976
H135	H	0.958812	-0.331686	-0.299959
H136	H	1.458812	0.168314	0.200041
Cl137	Cl	0.840227	0.246898	0.601433
Cl138	Cl	1.340227	0.746898	1.101433
H139	H	1.021667	-0.060213	0.378458
H140	H	1.521667	0.439787	0.878458
Cl141	Cl	0.944953	-0.733876	-0.157285
Cl142	Cl	1.444953	-0.233876	0.342715
H143	H	0.938788	-0.175973	0.157268
H144	H	1.438788	0.324027	0.657268
Cl145	Cl	0.698914	0.364530	-0.000019
Cl146	Cl	1.198914	0.864530	0.499981
Cl147	Cl	0.923739	-0.546372	0.334781
Cl148	Cl	1.423739	-0.046372	0.834781
Cl149	Cl	0.956001	-0.600716	-0.334789
Cl150	Cl	1.456001	-0.100716	0.165211
H151	H	1.029564	-0.073586	0.213722
H152	H	1.529564	0.426414	0.713722
H153	H	0.953944	-0.201505	-0.157294
H154	H	1.453944	0.298495	0.342706
H155	H	1.057995	-0.121644	0.621507
H156	H	1.557995	0.378356	1.121507
H157	H	0.834622	0.256320	0.213745
H158	H	1.334622	0.756320	0.713745
Cl159	Cl	1.072939	-0.146904	0.806356
Cl160	Cl	1.572939	0.353096	1.306356
