data_functionalizedCrystal
_audit_creation_method	'MofGen! by Chris Wilmer'
_symmetry_space_group_name_H-M	'P1'
_symmetry_Int_Tables_number	1
_symmetry_cell_setting	triclinic
loop_
_symmetry_equiv_pos_as_xyz
  x,y,z
_cell_length_a	18.266242
_cell_length_b	19.188931
_cell_length_c	15.538191
_cell_angle_alpha	65.208618
_cell_angle_beta	90.004634
_cell_angle_gamma	90.007899
loop_
_atom_site_label
_atom_site_type_symbol
_atom_site_fract_x
_atom_site_fract_y
_atom_site_fract_z
O1	O	-0.060850	-0.896579	-0.117733
O2	O	-0.060856	-0.689287	-0.133581
O3	O	-0.060855	-0.833284	0.011638
O4	O	-0.060850	-0.752582	-0.262953
O5	O	0.060907	-0.833267	0.011646
O6	O	0.060906	-0.689270	-0.133574
O7	O	0.060912	-0.896562	-0.117726
Zn8	Zn	0.080242	-0.792913	-0.125649
Zn9	Zn	-0.080185	-0.792936	-0.125658
O10	O	0.060912	-0.752565	-0.262945
C11	C	0.000024	-0.663397	-0.133064
C12	C	0.000022	-0.586279	-0.131523
C13	C	-0.066343	-0.035795	-0.120529
C14	C	-0.066346	-0.108257	-0.121971
C15	C	0.000026	-0.144483	-0.122693
C16	C	0.066406	-0.108248	-0.121948
C17	C	0.066407	-0.035791	-0.120496
N18	N	0.049431	-0.239446	-0.178629
N19	N	0.049426	-0.308276	-0.180010
C20	C	0.000027	-0.362793	-0.127064
N21	N	-0.049376	-0.345875	-0.072698
N22	N	-0.049373	-0.277036	-0.071321
C23	C	0.000032	-0.223051	-0.124266
C24	C	-0.066351	-0.477593	-0.129366
C25	C	-0.066351	-0.550058	-0.130803
C26	C	0.066403	-0.550045	-0.130789
C27	C	0.066401	-0.477584	-0.129343
C28	C	0.000022	-0.441361	-0.128636
N29	N	0.189729	-0.792903	-0.125642
C30	C	0.228038	-0.856672	-0.061370
C31	C	0.304683	-0.856677	-0.061366
C32	C	0.343015	-0.792916	-0.125650
C33	C	0.304697	-0.729136	-0.189926
C34	C	0.228054	-0.729130	-0.189922
N35	N	0.463349	-0.762873	-0.209127
N36	N	0.536157	-0.762884	-0.209128
C37	C	0.573938	-0.792930	-0.125664
N38	N	0.536160	-0.822980	-0.042197
N39	N	0.463345	-0.822972	-0.042197
C40	C	0.426122	-0.792915	-0.125661
C41	C	0.695354	-0.856709	-0.061383
C42	C	0.772001	-0.856710	-0.061377
C43	C	0.772013	-0.729170	-0.189945
C44	C	0.695369	-0.729168	-0.189943
C45	C	0.657044	-0.792941	-0.125662
N46	N	0.810328	-0.792947	-0.125660
C47	C	0.000024	-0.841719	0.046772
C48	C	0.000017	-0.866869	0.151450
C49	C	0.000030	0.077548	-0.118244
C50	C	0.000028	0.000432	-0.119789
C51	C	0.000031	-0.744130	-0.298079
C52	C	0.000033	-0.718979	-0.402757
C53	C	0.000026	-0.617005	0.438212
C54	C	0.000028	-0.640656	0.536575
C55	C	0.000032	-0.773684	0.559565
C56	C	0.000026	-0.750044	0.461202
C57	C	0.000023	-0.671704	0.400533
C58	C	0.000024	-0.804743	0.423523
C59	C	0.000021	-0.781106	0.325168
C60	C	0.000021	-0.702769	0.264493
C61	C	0.000021	-0.648066	0.302178
C62	C	0.000031	-0.883083	0.484194
C63	C	0.000029	-0.937782	0.446515
C64	C	0.000021	-0.914145	0.348159
C65	C	0.000022	-0.835808	0.287483
C66	C	0.000022	-0.968847	0.310474
C67	C	0.000019	-0.945210	0.212119
C68	C	0.000019	-0.812170	0.189129
H69	H	0.120456	-0.006294	-0.119897
O70	O	0.000036	-0.858177	0.625002
H71	H	0.000035	-0.865426	0.699725
O72	O	0.000030	-1.022274	0.511957
H73	H	0.049660	-1.049626	0.498593
H74	H	0.000040	-0.596107	0.567247
H75	H	0.000012	-0.748378	0.139727
O76	O	0.000033	-1.053339	0.375919
H77	H	0.000038	-1.087405	0.333194
O78	O	-0.137933	-0.147349	-0.122760
H79	H	-0.141098	-0.157860	-0.187673
H80	H	0.196861	-0.677200	-0.242261
H81	H	0.120447	-0.137749	-0.122534
H82	H	-0.120401	-0.448099	-0.128788
O83	O	0.813338	-0.660403	-0.259312
H84	H	0.798650	-0.608966	-0.247496
H85	H	0.000026	-0.902326	0.564280
H86	H	0.000018	-0.553213	0.388810
O87	O	0.654041	-0.660394	-0.259275
H88	H	0.693570	-0.616058	-0.303982
H89	H	0.000019	-0.989751	0.181441
O90	O	0.654009	-0.925482	0.007955
H91	H	0.693528	-0.969822	0.052661
H92	H	-0.120401	-0.579556	-0.131398
O93	O	0.137994	-0.589103	-0.131571
H94	H	0.126844	-0.645573	-0.132710
H95	H	0.335911	-0.677220	-0.242265
O96	O	0.813326	-0.925497	0.007937
H97	H	0.773797	-0.969842	0.052623
H98	H	0.000024	-0.683525	0.184407
H99	H	0.000014	-0.584274	0.252777
H100	H	-0.120395	-0.006308	-0.119949
H101	H	0.120448	-0.448086	-0.128744
H102	H	0.196836	-0.908599	-0.009027
H103	H	0.335880	-0.908607	-0.009027
