data_functionalizedCrystal
_audit_creation_method	'MofGen! by Chris Wilmer'
_symmetry_space_group_name_H-M	'P1'
_symmetry_Int_Tables_number	1
_symmetry_cell_setting	triclinic
loop_
_symmetry_equiv_pos_as_xyz
  x,y,z
_cell_length_a	12.594517
_cell_length_b	25.639239
_cell_length_c	12.594510
_cell_angle_alpha	89.959750
_cell_angle_beta	89.978880
_cell_angle_gamma	90.038486
loop_
_atom_site_label
_atom_site_type_symbol
_atom_site_fract_x
_atom_site_fract_y
_atom_site_fract_z
Zn1	Zn	1.627097	-0.208106	-0.601816
Zn2	Zn	1.626919	-0.295558	-0.423820
Zn3	Zn	1.449102	-0.208138	-0.423845
Zn4	Zn	1.449013	-0.295512	-0.601750
O5	O	1.538033	-0.251829	-0.512808
O6	O	1.776019	-0.219713	-0.578222
O7	O	1.603293	-0.283994	-0.274877
O8	O	1.472825	-0.134969	-0.447492
O9	O	1.775888	-0.283963	-0.447448
O10	O	1.603598	-0.134945	-0.578247
O11	O	1.472652	-0.219767	-0.274896
O12	O	1.300144	-0.219722	-0.447427
O13	O	1.472674	-0.283885	-0.750704
O14	O	1.300079	-0.283916	-0.578133
O15	O	1.603512	-0.219668	-0.750753
O16	O	1.603207	-0.368717	-0.447384
O17	O	1.472501	-0.368683	-0.578108
C18	C	1.261492	-0.251818	-0.512776
C19	C	1.143186	-0.251826	-0.512788
C20	C	1.073938	-0.216864	-0.441833
C21	C	1.003089	-0.264557	-0.415643
C22	C	1.003237	-0.204156	-0.538996
C23	C	1.073895	-0.299545	-0.486547
C24	C	1.074050	-0.239112	-0.609946
C25	C	1.003232	-0.286838	-0.583793
C26	C	1.537854	-0.387671	-0.512759
C27	C	1.537875	-0.445785	-0.512774
C28	C	1.606269	-0.806153	-0.444855
C29	C	1.606310	-0.860757	-0.444870
O30	O	1.664276	-0.888998	-0.387070
N31	N	1.538220	-0.888068	-0.512878
C32	C	1.470091	-0.860771	-0.580885
O33	O	1.412179	-0.889014	-0.638733
C34	C	1.470056	-0.806167	-0.580875
C35	C	1.538144	-0.778860	-0.512854
C36	C	1.674352	-0.778846	-0.376841
C37	C	1.674309	-0.724245	-0.376826
C38	C	1.606183	-0.696952	-0.444825
C39	C	1.538101	-0.724259	-0.512839
C40	C	1.401934	-0.778871	-0.648886
C41	C	1.401905	-0.724264	-0.648871
C42	C	1.469992	-0.696957	-0.580850
C43	C	1.469932	-0.642366	-0.580822
N44	N	1.538023	-0.615056	-0.512814
C45	C	1.606148	-0.642349	-0.444815
C46	C	1.470171	-0.975441	-0.580901
C47	C	1.470200	-1.030044	-0.580906
C48	C	1.606421	-1.030027	-0.444892
C49	C	1.606386	-0.975423	-0.444883
C50	C	1.538262	-0.948131	-0.512892
C51	C	1.606052	-0.527684	-0.444787
C52	C	1.606000	-0.473078	-0.444775
C53	C	1.469784	-0.473100	-0.580792
C54	C	1.469831	-0.527701	-0.580801
C55	C	1.537974	-0.554991	-0.512795
O56	O	1.411999	-0.614090	-0.638596
O57	O	1.664060	-0.614099	-0.386986
C58	C	1.815654	-0.251839	-0.512840
C59	C	1.933959	-0.251844	-0.512853
C60	C	1.538103	-0.251768	-0.790429
C61	C	1.538133	-0.251742	-0.908734
C62	C	1.538241	-0.115455	-0.512880
C63	C	1.538330	-0.057341	-0.512911
C64	C	1.609317	-0.216812	-0.978014
C65	C	1.512251	-0.204015	-1.048808
C66	C	1.635256	-0.264504	-1.048740
C67	C	1.441016	-0.238920	-0.977970
C68	C	1.564086	-0.299431	-0.977895
C69	C	1.466953	-0.286652	-1.048657
C70	C	1.538024	-0.251851	-0.236267
C71	C	1.538200	-0.251729	-0.117962
H72	H	1.661445	-0.450846	-0.389381
O73	O	1.111148	-0.226315	-0.707982
C74	C	1.115800	-0.248172	-0.893976
C75	C	1.073686	-0.262724	-0.783016
H76	H	1.085547	-0.277607	-0.954667
H77	H	1.086798	-0.207503	-0.916268
H78	H	1.206307	-0.248651	-0.893120
H79	H	0.983181	-0.262275	-0.783787
H80	H	1.102769	-0.303384	-0.760767
O81	O	0.966332	-0.156015	-0.565293
C82	C	0.960355	-0.064754	-0.520108
C83	C	1.002235	-0.119243	-0.490232
H84	H	0.989347	-0.035011	-0.459425
H85	H	0.990791	-0.053578	-0.602297
H86	H	0.869847	-0.065343	-0.520685
H87	H	1.092740	-0.118695	-0.489594
H88	H	0.971718	-0.130397	-0.408061
O89	O	1.403768	-0.446556	-0.646959
C90	C	1.389366	-0.384824	-0.790579
C91	C	1.464241	-0.414864	-0.715721
H92	H	1.438227	-0.359185	-0.846178
H93	H	1.340723	-0.413691	-0.839283
H94	H	1.333702	-0.359329	-0.741635
H95	H	1.519969	-0.440360	-0.764584
H96	H	1.512809	-0.385969	-0.667014
O97	O	1.590340	-0.347561	-0.940878
C98	C	1.639368	-0.435742	-0.985097
C99	C	1.609659	-0.381258	-1.027165
H100	H	1.654974	-0.463004	-1.054839
H101	H	1.713865	-0.432789	-0.934057
H102	H	1.571179	-0.451777	-0.935240
H103	H	1.677779	-0.365191	-1.077067
H104	H	1.535129	-0.384244	-1.078147
O105	O	1.672275	-0.554108	-0.378623
C106	C	1.807414	-0.548313	-0.243749
C107	C	1.732462	-0.518324	-0.318613
H108	H	1.856111	-0.519395	-0.195228
H109	H	1.758650	-0.573909	-0.187981
H110	H	1.863024	-0.573844	-0.292680
H111	H	1.676837	-0.492765	-0.269768
H112	H	1.781292	-0.492761	-0.374385
H113	H	1.729755	-0.702015	-0.321441
H114	H	1.729834	-0.801062	-0.321468
O115	O	1.486077	-0.155934	-1.086164
C116	C	1.456009	-0.102192	-1.240268
C117	C	1.485615	-0.156671	-1.198104
H118	H	1.455648	-0.102766	-1.330776
H119	H	1.373800	-0.090992	-1.210037
H120	H	1.516741	-0.072470	-1.211194
H121	H	1.424955	-0.186429	-1.227161
H122	H	1.567851	-0.167826	-1.228327
H123	H	1.104804	-0.339878	-0.464317
H124	H	0.971921	-0.275322	-0.333507
H125	H	1.717362	-0.275302	-1.079830
O126	O	1.672644	-1.056625	-0.379013
C127	C	1.733185	-1.140744	-0.318896
C128	C	1.658112	-1.110685	-0.393522
H129	H	1.721447	-1.184456	-0.330584
H130	H	1.818981	-1.129972	-0.337767
H131	H	1.714652	-1.130051	-0.233023
H132	H	1.676550	-1.121362	-0.479419
H133	H	1.572339	-1.121459	-0.374560
O134	O	1.403941	-1.056591	-0.646822
C135	C	1.260312	-1.118326	-0.661043
C136	C	1.335263	-1.088288	-0.586263
H137	H	1.204782	-1.143969	-0.612112
H138	H	1.211539	-1.089458	-0.709619
H139	H	1.309187	-1.143818	-0.716775
H140	H	1.286469	-1.062795	-0.530467
H141	H	1.384039	-1.117184	-0.537762
H142	H	1.358885	-0.228074	-0.947013
H143	H	1.414688	-0.953223	-0.636280
O144	O	1.111162	-0.181632	-0.370246
C145	C	1.265118	-0.141861	-0.290575
C146	C	1.223105	-0.181766	-0.371705
H147	H	1.355628	-0.141964	-0.291712
H148	H	1.234919	-0.101299	-0.312069
H149	H	1.235897	-0.152805	-0.207820
H150	H	1.252308	-0.170870	-0.454488
H151	H	1.253295	-0.222317	-0.350120
H152	H	1.346431	-0.702046	-0.704256
H153	H	1.669409	-0.187256	-0.946992
H154	H	1.661829	-0.953193	-0.389495
H155	H	0.972383	-0.316446	-0.643825
O156	O	1.335762	-0.805308	-0.715066
C157	C	1.200622	-0.799538	-0.849944
C158	C	1.275527	-0.769535	-0.775059
H159	H	1.151886	-0.770629	-0.898452
H160	H	1.249425	-0.825039	-0.905724
H161	H	1.145046	-0.825165	-0.801030
H162	H	1.331118	-0.743881	-0.823887
H163	H	1.226658	-0.744067	-0.719276
O164	O	1.403656	-0.554149	-0.646971
C165	C	1.268505	-0.548397	-0.781841
C166	C	1.343401	-0.518384	-0.706963
H167	H	1.219754	-0.519494	-0.830349
H168	H	1.317316	-0.573893	-0.837622
H169	H	1.212943	-0.574028	-0.732922
H170	H	1.398978	-0.492724	-0.755797
H171	H	1.294523	-0.492920	-0.651179
H172	H	1.406714	-0.316185	-1.079480
