data_functionalizedCrystal
_audit_creation_method	'MofGen! by Chris Wilmer'
_symmetry_space_group_name_H-M	'P1'
_symmetry_Int_Tables_number	1
_symmetry_cell_setting	triclinic
loop_
_symmetry_equiv_pos_as_xyz
  x,y,z
_cell_length_a	14.044191
_cell_length_b	14.044190
_cell_length_c	12.503572
_cell_angle_alpha	93.839403
_cell_angle_beta	86.162165
_cell_angle_gamma	93.191777
loop_
_atom_site_label
_atom_site_type_symbol
_atom_site_fract_x
_atom_site_fract_y
_atom_site_fract_z
O1	O	1.282215	0.225145	-0.089290
O2	O	1.782215	0.725145	0.410710
O3	O	1.005543	0.216832	-0.089303
O4	O	1.505543	0.716832	0.410697
O5	O	1.139721	0.082653	-0.089276
O6	O	1.639721	0.582653	0.410724
O7	O	1.148036	0.359323	-0.089318
O8	O	1.648036	0.859323	0.410682
O9	O	1.129632	0.092762	0.089364
O10	O	1.629632	0.592762	0.589364
O11	O	0.995453	0.226941	0.089337
O12	O	1.495453	0.726941	0.589337
O13	O	1.272125	0.235254	0.089350
O14	O	1.772125	0.735254	0.589350
Cu15	Cu	1.132868	0.232021	0.105654
Cu16	Cu	1.632868	0.732021	0.605654
Cu17	Cu	1.144800	0.220065	-0.105608
Cu18	Cu	1.644800	0.720065	0.394392
O19	O	1.137947	0.369433	0.089322
O20	O	1.637947	0.869433	0.589322
C21	C	0.964876	0.218249	0.000016
C22	C	1.464876	0.718249	0.500016
C23	C	0.858733	0.207402	0.000012
C24	C	1.358733	0.707402	0.500012
C25	C	0.613276	0.264503	0.000014
C26	C	1.113276	0.764503	0.500014
C27	C	0.664399	0.187587	0.000023
C28	C	1.164399	0.687587	0.500023
C29	C	0.772536	0.198615	0.000017
C30	C	1.272536	0.698615	0.500017
C31	C	0.505129	0.253476	0.000020
C32	C	1.005129	0.753476	0.500020
C33	C	1.131040	0.052086	0.000047
C34	C	1.631040	0.552086	0.500047
C35	C	1.120192	-0.054057	0.000056
C36	C	1.620192	0.445943	0.500056
C37	C	1.177295	-0.299516	0.000017
C38	C	1.677295	0.200484	0.500017
C39	C	1.100378	-0.248393	0.000021
C40	C	1.600378	0.251607	0.500021
C41	C	1.111405	-0.140254	0.000040
C42	C	1.611405	0.359746	0.500040
C43	C	1.166269	-0.407664	-0.000003
C44	C	1.666269	0.092336	0.499997
C45	C	1.312792	0.233836	0.000029
C46	C	1.812792	0.733836	0.500029
C47	C	1.418936	0.244683	0.000026
C48	C	1.918936	0.744683	0.500026
C49	C	1.146629	0.400000	-0.000003
C50	C	1.646629	0.900000	0.499997
C51	C	1.157477	0.506142	-0.000019
C52	C	1.657477	1.006142	0.499981
N53	N	1.124483	0.240429	0.254245
N54	N	1.624483	0.740429	0.754245
N55	N	1.153192	0.211649	-0.254198
N56	N	1.653192	0.711649	0.245802
C57	C	1.112148	0.252807	0.473358
C58	C	1.612148	0.752807	0.973358
C59	C	1.165524	0.199275	0.526696
C60	C	1.665524	0.699275	1.026696
C61	C	1.158661	0.206162	0.648618
C62	C	1.658661	0.706162	1.148618
C63	C	1.119010	0.245921	0.351425
C64	C	1.619010	0.745921	0.851425
H65	H	0.650720	0.338629	-0.000001
H66	H	1.150720	0.838629	0.499999
H67	H	1.026246	-0.285838	0.000011
H68	H	1.526246	0.214162	0.500011
C69	C	1.068406	0.415340	0.508206
C70	C	1.568406	0.915340	1.008206
C71	C	1.043505	0.321661	0.535309
C72	C	1.543505	0.821661	1.035309
H73	H	1.026025	0.457846	0.546457
H74	H	1.526025	0.957846	1.046457
H75	H	1.131995	0.432035	0.526569
H76	H	1.631995	0.932035	1.026569
H77	H	1.064068	0.419673	0.433212
H78	H	1.564068	0.919673	0.933212
H79	H	1.047849	0.317327	0.610303
H80	H	1.547849	0.817327	1.110303
H81	H	0.979900	0.304961	0.516954
H82	H	1.479900	0.804961	1.016954
C83	C	1.282207	0.082262	0.537704
C84	C	1.782207	0.582262	1.037704
C85	C	1.234179	0.130426	0.464739
C86	C	1.734179	0.630426	0.964739
H87	H	1.324586	0.039758	0.499449
H88	H	1.824586	0.539758	0.999449
H89	H	1.317539	0.127309	0.581559
H90	H	1.817539	0.627309	1.081559
H91	H	1.237064	0.047042	0.581576
H92	H	1.737064	0.547042	1.081576
H93	H	1.279322	0.165652	0.420872
H94	H	1.779322	0.665652	0.920872
H95	H	1.198845	0.085372	0.420866
H96	H	1.698845	0.585372	0.920866
H97	H	0.626957	0.113450	-0.000041
H98	H	1.126957	0.613450	0.499959
H99	H	1.251421	-0.262072	0.000031
H100	H	1.751421	0.237928	0.500031
