data_functionalizedCrystal
_audit_creation_method	'MofGen! by Chris Wilmer'
_symmetry_space_group_name_H-M	'P1'
_symmetry_Int_Tables_number	1
_symmetry_cell_setting	triclinic
loop_
_symmetry_equiv_pos_as_xyz
  x,y,z
_cell_length_a	27.732048
_cell_length_b	27.732064
_cell_length_c	12.376457
_cell_angle_alpha	101.185913
_cell_angle_beta	78.807411
_cell_angle_gamma	82.646039
loop_
_atom_site_label
_atom_site_type_symbol
_atom_site_fract_x
_atom_site_fract_y
_atom_site_fract_z
O1	O	0.650254	0.048197	-0.093849
O2	O	0.509464	0.056940	-0.093882
O3	O	0.584228	-0.017828	-0.093869
O4	O	0.575490	0.122965	-0.093862
O5	O	0.565544	0.000839	0.094140
O6	O	0.490780	0.075606	0.094127
O7	O	0.631570	0.066864	0.094159
Zn8	Zn	0.558209	0.074199	0.123994
Zn9	Zn	0.582826	0.049605	-0.123716
O10	O	0.556806	0.141632	0.094146
C11	C	0.574702	-0.026502	0.000132
C12	C	0.574147	-0.080157	0.000121
C13	C	0.482116	0.066089	0.000118
C14	C	0.428462	0.065535	0.000105
C15	C	0.526181	-0.457232	0.000105
C16	C	0.528228	-0.255571	0.000104
O17	O	0.491012	-0.224324	0.000051
N18	N	0.572561	-0.236443	0.000115
C19	C	0.616386	-0.267734	0.000118
O20	O	0.654143	-0.246838	0.000115
C21	C	0.614340	-0.469394	0.000110
C22	C	0.570003	-0.488518	0.000112
C23	C	0.481848	-0.476357	0.000105
C24	C	0.481336	-0.526768	0.000112
C25	C	0.525158	-0.558055	0.000118
C26	C	0.569491	-0.538930	0.000118
C27	C	0.658166	-0.500684	0.000105
C28	C	0.657651	-0.551102	0.000101
C29	C	0.613314	-0.570227	0.000102
C30	C	0.612801	-0.620627	0.000131
N31	N	0.568468	-0.639756	0.000121
C32	C	0.524646	-0.608469	0.000114
C33	C	0.617457	-0.161859	0.000124
C34	C	0.617969	-0.111444	0.000127
C35	C	0.529810	-0.099285	0.000112
C36	C	0.529298	-0.149700	0.000116
C37	C	0.573124	-0.180987	0.000113
C38	C	0.523575	-0.714338	0.000129
C39	C	0.523067	-0.764754	0.000140
C40	C	0.611226	-0.776908	0.000149
C41	C	0.611734	-0.726496	0.000144
C42	C	0.567905	-0.695212	0.000130
O43	O	0.649998	-0.651904	0.000172
O44	O	0.486898	-0.629377	0.000092
C45	C	0.526693	-0.406820	0.000099
C46	C	0.571026	-0.387695	0.000099
C47	C	0.614848	-0.418982	0.000105
C48	C	0.571538	-0.337280	0.000103
C49	C	0.527716	-0.305994	0.000096
C50	C	0.483383	-0.325122	0.000086
C51	C	0.482871	-0.375534	0.000093
C52	C	0.659182	-0.399853	0.000116
C53	C	0.659690	-0.349441	0.000110
C54	C	0.615868	-0.318154	0.000104
C55	C	0.089644	0.106243	0.000156
C56	C	-0.112016	0.104193	0.000166
O57	O	-0.143275	0.141419	0.000217
N58	N	-0.131142	0.059858	0.000162
C59	C	-0.099850	0.016033	0.000163
O60	O	-0.120746	-0.021723	0.000171
C61	C	0.101809	0.018084	0.000161
C62	C	0.120933	0.062421	0.000153
C63	C	0.108769	0.150577	0.000150
C64	C	0.159182	0.151088	0.000141
C65	C	0.190470	0.107266	0.000139
C66	C	0.171346	0.062933	0.000145
C67	C	0.133099	-0.025740	0.000169
C68	C	0.183516	-0.025222	0.000172
C69	C	0.202640	0.019114	0.000165
C70	C	0.253047	0.019622	0.000133
N71	N	0.272173	0.063957	0.000137
C72	C	0.240884	0.107779	0.000140
C73	C	-0.205724	0.014959	0.000161
C74	C	-0.256139	0.014446	0.000160
C75	C	-0.268301	0.102607	0.000165
C76	C	-0.217885	0.103118	0.000159
C77	C	-0.186598	0.059294	0.000165
C78	C	0.346756	0.108850	0.000121
C79	C	0.397174	0.109357	0.000108
C80	C	0.409332	0.021197	0.000108
C81	C	0.358918	0.020689	0.000115
C82	C	0.327631	0.064520	0.000126
O83	O	0.284332	-0.017582	0.000095
O84	O	0.261788	0.145532	0.000157
C85	C	0.039232	0.105732	0.000165
C86	C	0.020107	0.061398	0.000171
C87	C	0.051395	0.017576	0.000168
C88	C	-0.030307	0.060885	0.000169
C89	C	-0.061596	0.104707	0.000172
C90	C	-0.042470	0.149043	0.000176
C91	C	0.007943	0.149554	0.000167
C92	C	0.032269	-0.026759	0.000164
C93	C	-0.018144	-0.027267	0.000171
C94	C	-0.049432	0.016555	0.000174
C95	C	0.658919	0.057715	0.000157
C96	C	0.712573	0.058268	0.000162
C97	C	0.566333	0.150305	0.000143
C98	C	0.566888	0.203960	0.000146
N99	N	0.541411	0.090983	0.293049
N100	N	0.599627	0.032817	-0.292772
C101	C	0.638618	-0.006155	0.648051
C102	C	0.650371	-0.017903	0.529713
C103	C	0.623132	0.009318	0.470541
C104	C	0.584138	0.048288	0.529719
C105	C	0.572386	0.060039	0.648068
C106	C	0.556900	0.075512	0.470558
C107	C	0.517906	0.114482	0.529736
C108	C	0.506155	0.126231	0.648074
C109	C	0.533394	0.099011	0.707246
C110	C	0.568652	0.063761	0.352209
C111	C	0.502420	0.129955	0.352226
C112	C	0.490667	0.141702	0.470564
H113	H	0.486960	-0.780321	0.000146
Br114	Br	0.451803	-0.038273	0.000107
Br115	Br	0.719867	-0.323493	0.000110
Br116	Br	0.225974	-0.084701	0.000187
H117	H	0.632704	-0.000249	0.374185
H118	H	0.174748	0.187192	0.000135
Br119	Br	0.671901	-0.700536	0.000191
Br120	Br	0.703291	-0.070786	0.449402
H121	H	0.480240	0.152121	0.304050
H122	H	0.660795	-0.028312	0.696236
H123	H	0.694868	-0.425322	0.000120
H124	H	0.412742	0.145463	0.000101
H125	H	0.523824	0.108574	0.803606
Br126	Br	0.074725	-0.086238	0.000164
H127	H	-0.033708	-0.063375	0.000168
H128	H	0.694270	-0.485123	0.000104
H129	H	-0.271703	-0.021660	0.000148
Br130	Br	0.453242	0.179125	0.728390
Br131	Br	0.437746	0.194588	0.550888
H132	H	0.646904	-0.802390	0.000160
H133	H	0.487885	-0.688871	0.000117
Br134	Br	0.421162	-0.552715	0.000102
H135	H	0.446767	-0.391099	0.000095
Br136	Br	-0.191937	0.163292	0.000149
H137	H	0.447701	-0.299639	0.000088
H138	H	0.446161	-0.450888	0.000096
H139	H	0.493194	-0.165267	0.000122
H140	H	0.023509	0.185658	0.000163
H141	H	0.654071	-0.095876	0.000144
Br142	Br	0.676941	-0.204313	0.000125
H143	H	0.600402	0.032031	0.304037
Br144	Br	0.717133	-0.593561	0.000089
Br145	Br	0.304301	0.168335	0.000137
Br146	Br	0.066315	0.210058	0.000153
Br147	Br	-0.163270	-0.044523	0.000171
Br148	Br	-0.310774	0.162079	0.000170
Br149	Br	0.332963	-0.039482	0.000129
H150	H	0.494128	-0.073802	0.000112
Br151	Br	-0.084941	0.208514	0.000171
H152	H	0.117537	-0.061843	0.000176
