data_functionalizedCrystal
_audit_creation_method	'MofGen! by Chris Wilmer'
_symmetry_space_group_name_H-M	'P1'
_symmetry_Int_Tables_number	1
_symmetry_cell_setting	triclinic
loop_
_symmetry_equiv_pos_as_xyz
  x,y,z
_cell_length_a	12.811438
_cell_length_b	12.837938
_cell_length_c	14.586319
_cell_angle_alpha	90.000630
_cell_angle_beta	95.434965
_cell_angle_gamma	89.411872
loop_
_atom_site_label
_atom_site_type_symbol
_atom_site_fract_x
_atom_site_fract_y
_atom_site_fract_z
O1	O	-1.406645	-0.139685	-0.193179
O2	O	-1.102580	-0.154874	-0.167901
O3	O	-1.247871	0.003653	-0.179980
O4	O	-1.261354	-0.298211	-0.181100
O5	O	-1.247859	0.003655	-0.027498
O6	O	-1.102568	-0.154871	-0.015419
O7	O	-1.406634	-0.139683	-0.040697
Cu8	Cu	-1.254600	-0.147277	-0.014135
Cu9	Cu	-1.254614	-0.147280	-0.194463
O10	O	-1.261343	-0.298209	-0.028618
C11	C	-1.063385	-0.154021	-0.088402
C12	C	-0.946612	-0.151472	-0.078695
C13	C	-1.243310	0.042294	-0.103362
C14	C	-1.229724	0.157430	-0.102239
C15	C	-1.445829	-0.140535	-0.120198
C16	C	-1.562602	-0.143084	-0.129912
C17	C	-0.782020	-0.147879	0.018100
C18	C	-0.891738	-0.150274	0.008983
C19	C	-0.891759	-0.150278	-0.157262
C20	C	-0.782041	-0.147882	-0.148145
C21	C	-0.727175	-0.146681	-0.060461
C22	C	-0.617455	-0.144278	-0.051345
C23	C	-0.617477	-0.144289	-0.217589
C24	C	-0.727196	-0.146685	-0.226706
C25	C	-1.393054	0.397684	-0.115846
C26	C	-1.380294	0.505865	-0.114791
C27	C	-1.191444	0.481975	-0.099081
C28	C	-1.204204	0.373794	-0.100136
C29	C	-1.305013	0.331652	-0.108517
C30	C	-1.317772	0.223469	-0.109566
C31	C	-1.128923	0.199582	-0.093862
C32	C	-1.116163	0.307763	-0.092808
N33	N	-1.254598	-0.147274	0.112696
C34	C	-1.265905	0.663150	-0.105248
C35	C	-1.279492	0.548014	-0.106408
N36	N	-1.254623	-0.147274	-0.321295
C37	C	-1.318959	-0.077102	0.342352
C38	C	-1.318962	-0.077100	0.438333
C39	C	-1.190255	-0.217449	0.449043
C40	C	-1.190247	-0.217446	0.353064
C41	C	-1.254605	-0.147274	0.299721
C42	C	-1.254616	-0.147274	0.491681
C43	C	-1.254618	-0.147272	0.595747
C44	C	-1.254602	-0.147274	0.195647
H45	H	-0.572784	-0.143308	0.020052
H46	H	-0.737347	-0.146907	0.089496
Br47	Br	-1.009430	0.109962	-0.083899
Br48	Br	-0.966238	-0.151910	-0.276251
H49	H	-1.371362	-0.019963	0.298922
H50	H	-0.771882	-0.147667	-0.298095
Br51	Br	-1.406296	0.018141	0.496189
H52	H	-1.137858	-0.274583	0.492484
H53	H	-1.399855	0.189160	-0.116387
H54	H	-1.109371	0.516306	-0.092267
H55	H	-1.034087	0.342089	-0.085987
H56	H	-1.475136	0.363372	-0.122661
H57	H	-0.572811	-0.143318	-0.281559
H58	H	-1.451987	0.559624	-0.120762
H59	H	-1.137838	-0.274588	0.318352
H60	H	-0.936389	-0.151253	0.072956
