data_functionalizedCrystal
_audit_creation_method	'MofGen! by Chris Wilmer'
_symmetry_space_group_name_H-M	'P1'
_symmetry_Int_Tables_number	1
_symmetry_cell_setting	triclinic
loop_
_symmetry_equiv_pos_as_xyz
  x,y,z
_cell_length_a	29.839134
_cell_length_b	29.839131
_cell_length_c	16.959447
_cell_angle_alpha	90.041568
_cell_angle_beta	90.027510
_cell_angle_gamma	90.027971
loop_
_atom_site_label
_atom_site_type_symbol
_atom_site_fract_x
_atom_site_fract_y
_atom_site_fract_z
Zn1	Zn	0.686753	-0.178931	0.447125
Zn2	Zn	0.686689	-0.254065	0.314920
Zn3	Zn	0.611632	-0.178940	0.314932
Zn4	Zn	0.611592	-0.254026	0.447029
O5	O	0.649166	-0.216490	0.381001
O6	O	0.749612	-0.188911	0.429623
O7	O	0.676723	-0.244119	0.204311
O8	O	0.621640	-0.116072	0.332513
O9	O	0.749565	-0.244111	0.332493
O10	O	0.676832	-0.116065	0.429634
O11	O	0.621578	-0.188925	0.204320
O12	O	0.548759	-0.188887	0.332419
O13	O	0.621572	-0.244044	0.557652
O14	O	0.548730	-0.244053	0.429470
O15	O	0.676793	-0.188873	0.557723
O16	O	0.676684	-0.316927	0.332400
O17	O	0.621510	-0.316898	0.429459
C18	C	0.532444	-0.216467	0.380936
C19	C	0.482509	-0.216468	0.380927
C20	C	0.649098	-0.333213	0.380935
C21	C	0.649110	-0.383147	0.380933
C22	C	0.125925	-0.187723	0.330570
C23	C	0.313598	-0.187711	0.330522
O24	O	0.337865	-0.163233	0.287634
N25	N	0.337064	-0.216475	0.380967
C26	C	0.313609	-0.245243	0.431430
O27	O	0.337875	-0.269705	0.474341
C28	C	0.125937	-0.245253	0.431482
C29	C	0.102473	-0.216490	0.381028
C30	C	0.102461	-0.158962	0.280122
C31	C	0.055546	-0.158968	0.280131
C32	C	0.032094	-0.187734	0.330589
C33	C	0.055558	-0.216495	0.381038
C34	C	0.102483	-0.274018	0.481949
C35	C	0.055562	-0.274017	0.481958
C36	C	0.032098	-0.245254	0.431505
C37	C	-0.014809	-0.245266	0.431505
N38	N	-0.038275	-0.216502	0.381061
C39	C	-0.014824	-0.187736	0.330603
C40	C	0.412140	-0.245236	0.431399
C41	C	0.459058	-0.245234	0.431385
C42	C	0.459043	-0.187701	0.330478
C43	C	0.412125	-0.187706	0.330488
C44	C	0.388674	-0.216472	0.380954
C45	C	-0.113350	-0.187749	0.330626
C46	C	-0.160269	-0.187758	0.330638
C47	C	-0.160251	-0.245289	0.431547
C48	C	-0.113335	-0.245282	0.431533
C49	C	-0.089886	-0.216508	0.381070
O50	O	-0.039105	-0.269727	0.474377
O51	O	-0.039097	-0.163270	0.287711
C52	C	0.172841	-0.187718	0.330561
C53	C	0.196304	-0.216479	0.381009
C54	C	0.172853	-0.245246	0.431467
C55	C	0.243222	-0.216477	0.380996
C56	C	0.266674	-0.187711	0.330538
C57	C	0.243208	-0.158947	0.280093
C58	C	0.196292	-0.158952	0.280103
C59	C	0.196319	-0.274010	0.481912
C60	C	0.243234	-0.274003	0.481897
C61	C	0.266686	-0.245236	0.431439
C62	C	0.677898	-0.692753	0.431645
C63	C	0.677947	-0.880426	0.431692
O64	O	0.702357	-0.904658	0.474760
N65	N	0.649243	-0.903932	0.381089
C66	C	0.620522	-0.880518	0.330474
O67	O	0.596105	-0.904818	0.287440
C68	C	0.620471	-0.692846	0.330431
C69	C	0.649181	-0.669342	0.381032
C70	C	0.706605	-0.669248	0.482242
C71	C	0.706594	-0.622333	0.482226
C72	C	0.677877	-0.598922	0.431614
C73	C	0.649170	-0.622426	0.381017
C74	C	0.591749	-0.669432	0.279821
C75	C	0.591738	-0.622511	0.279816
C76	C	0.620447	-0.599007	0.330417
C77	C	0.620442	-0.552100	0.330389
N78	N	0.649146	-0.528593	0.380992
C79	C	0.677864	-0.552004	0.431604
C80	C	0.620551	-0.979049	0.330499
C81	C	0.620565	-1.025967	0.330509
C82	C	0.677989	-1.025871	0.431728
C83	C	0.677978	-0.978952	0.431714
C84	C	0.649256	-0.955542	0.381102
C85	C	0.677839	-0.453478	0.431568
C86	C	0.677827	-0.406558	0.431545
C87	C	0.620401	-0.406658	0.330330
C88	C	0.620415	-0.453574	0.330348
C89	C	0.649135	-0.476982	0.380974
O90	O	0.596041	-0.527838	0.287350
O91	O	0.702270	-0.527696	0.474644
C92	C	0.677909	-0.739668	0.431660
C93	C	0.649202	-0.763172	0.381063
C94	C	0.620485	-0.739761	0.330450
C95	C	0.649216	-0.810090	0.381073
C96	C	0.677933	-0.833501	0.431685
C97	C	0.706637	-0.809994	0.482288
C98	C	0.706627	-0.763079	0.482273
C99	C	0.591781	-0.763268	0.279847
C100	C	0.591794	-0.810184	0.279866
C101	C	0.620511	-0.833595	0.330479
C102	C	0.766345	-0.216514	0.381068
C103	C	0.816279	-0.216524	0.381096
C104	C	0.649185	-0.216453	0.587170
C105	C	0.649193	-0.216437	0.675026
C106	C	0.649247	-0.099312	0.381086
C107	C	0.649282	-0.049378	0.381122
C108	C	0.649174	-0.216495	0.175635
C109	C	0.649253	-0.216384	0.087779
C110	C	0.620496	-0.245115	1.046468
C111	C	0.677998	-0.187665	1.046537
C112	C	0.677986	-0.187674	0.963991
C113	C	0.649229	-0.216405	0.922680
C114	C	0.620484	-0.245127	0.963914
C115	C	0.706733	-0.158957	0.922750
C116	C	0.706723	-0.158965	0.840199
C117	C	0.677963	-0.187694	0.798886
C118	C	0.649217	-0.216416	0.840126
C119	C	0.620460	-0.245147	0.798815
C120	C	0.591711	-0.273868	0.840053
C121	C	0.591725	-0.273855	0.922602
C122	C	0.677950	-0.187706	0.716338
C123	C	0.620448	-0.245159	0.716261
H124	H	-0.179371	-0.164335	0.289550
O125	O	0.030268	-0.305073	0.536338
H126	H	0.054469	-0.325084	0.571392
H127	H	0.393051	-0.268662	0.472496
H128	H	-0.094230	-0.268706	0.472610
O129	O	0.589489	-0.276089	1.090944
H130	H	0.569489	-0.296065	1.048346
O131	O	0.560721	-0.304831	0.967084
H132	H	0.540719	-0.324808	0.924492
H133	H	0.701223	-0.472532	0.472797
H134	H	0.568299	-0.297262	0.806407
H135	H	0.730148	-0.135568	0.956391
O136	O	0.709001	-0.156665	1.091087
H137	H	0.704174	-0.161476	1.155417
O138	O	0.737558	-0.596987	0.536811
H139	H	0.732733	-0.560428	0.528304
H140	H	-0.094263	-0.164317	0.289538
O141	O	0.268512	-0.127923	0.225671
H142	H	0.259489	-0.135589	0.163608
O143	O	0.708956	-0.156734	0.671864
H144	H	0.731794	-0.176853	0.634252
O145	O	0.589606	-1.051313	0.275918
H146	H	0.594439	-1.087872	0.284415
H147	H	0.597021	-0.387590	0.289119
H148	H	0.568395	-0.744211	0.238633
H149	H	0.730132	-0.135579	0.806630
H150	H	0.121579	-0.297440	0.523033
H151	H	0.036446	-0.135546	0.239047
O152	O	0.708941	-0.953603	0.486293
H153	H	0.731807	-0.932229	0.450955
O154	O	0.127745	-0.127935	0.225683
H155	H	0.149143	-0.105091	0.261115
H156	H	0.568416	-0.829317	0.238654
O157	O	0.268537	-0.305025	0.536328
H158	H	0.305103	-0.300193	0.527851
O159	O	0.708959	-1.051125	0.486329
H160	H	0.704139	-1.087697	0.477835
H161	H	0.730022	-0.829064	0.523496
H162	H	0.597162	-0.959991	0.289283
H163	H	0.177229	-0.297435	0.523002
H164	H	0.393024	-0.164283	0.289407
O165	O	0.484341	-0.156670	0.276059
H166	H	0.520907	-0.161501	0.284536
H167	H	0.177192	-0.135530	0.239019
O168	O	0.484364	-0.276258	0.485799
H169	H	0.460169	-0.296256	0.520891
O170	O	0.708798	-0.381206	0.486114
H171	H	0.728767	-0.405371	0.521311
H172	H	0.568371	-0.688562	0.238616
H173	H	-0.179353	-0.268711	0.472626
O174	O	0.589452	-0.478930	0.275773
H175	H	0.569480	-0.454766	0.240579
H176	H	0.729990	-0.688304	0.523461
O177	O	0.560763	-0.597261	0.225220
H178	H	0.540807	-0.621490	0.190035
O179	O	0.589421	-0.276137	0.671704
H180	H	0.569433	-0.296103	0.714249
H181	H	0.730004	-0.743945	0.523477
