data_functionalizedCrystal
_audit_creation_method	'MofGen! by Chris Wilmer'
_symmetry_space_group_name_H-M	'P1'
_symmetry_Int_Tables_number	1
_symmetry_cell_setting	triclinic
loop_
_symmetry_equiv_pos_as_xyz
  x,y,z
_cell_length_a	12.759387
_cell_length_b	21.395362
_cell_length_c	21.395361
_cell_angle_alpha	90.046585
_cell_angle_beta	90.039752
_cell_angle_gamma	90.040592
loop_
_atom_site_label
_atom_site_type_symbol
_atom_site_fract_x
_atom_site_fract_y
_atom_site_fract_z
Zn1	Zn	-0.594559	-0.957839	0.249133
Zn2	Zn	-0.418855	-0.957747	0.353926
Zn3	Zn	-0.418829	-0.853060	0.249195
Zn4	Zn	-0.594428	-0.853023	0.353905
O5	O	-0.506668	-0.905417	0.301540
O6	O	-0.571317	-1.045505	0.263016
O7	O	-0.271831	-0.943838	0.340068
O8	O	-0.442184	-0.867013	0.161509
O9	O	-0.442229	-1.045437	0.340007
O10	O	-0.571292	-0.943993	0.161463
O11	O	-0.271811	-0.866924	0.263123
O12	O	-0.442057	-0.765377	0.263103
O13	O	-0.741466	-0.866950	0.339972
O14	O	-0.571068	-0.765350	0.340033
O15	O	-0.741563	-0.943958	0.262996
O16	O	-0.442102	-0.943802	0.441601
O17	O	-0.571094	-0.866861	0.441586
C18	C	-0.506609	-0.905335	0.464328
C19	C	-0.506619	-0.905357	0.533969
C20	C	-0.506546	-0.742630	0.301573
C21	C	-0.506519	-0.672988	0.301602
C22	C	-0.780701	-0.905460	0.301475
C23	C	-0.897478	-0.905478	0.301448
C24	C	-0.897477	-0.825393	0.221319
C25	C	-0.952337	-0.785362	0.181242
C26	C	-1.062059	-0.785381	0.181220
C27	C	-1.116923	-0.825434	0.221279
C28	C	-1.062063	-0.865465	0.261356
C29	C	-0.952338	-0.865443	0.261373
C30	C	-1.062064	-0.945545	0.341487
C31	C	-0.952342	-0.945531	0.341507
C32	C	-1.116928	-0.985598	0.381546
C33	C	-1.062068	-1.025633	0.421621
C34	C	-0.952339	-1.025613	0.421641
C35	C	-0.897482	-0.985562	0.381584
C36	C	-0.233700	-0.905411	0.301559
C37	C	-0.116924	-0.905514	0.301410
C38	C	-0.506791	-1.068841	0.301507
C39	C	-0.506843	-1.138482	0.301493
C40	C	-0.573594	-0.640277	0.341713
C41	C	-0.573641	-0.574842	0.341698
C42	C	-0.506593	-0.542120	0.301578
C43	C	-0.439513	-0.574839	0.261460
C44	C	-0.439476	-0.640273	0.261472
C45	C	-0.412012	-0.438399	0.296549
C46	C	-0.412047	-0.372966	0.296541
C47	C	-0.506709	-0.340299	0.301537
C48	C	-0.601339	-0.373074	0.306554
C49	C	-0.601301	-0.438508	0.306566
C50	C	-0.506627	-0.471168	0.301560
C51	C	-0.573842	-0.236636	0.341633
C52	C	-0.573890	-0.171199	0.341614
C53	C	-0.439753	-0.171197	0.261379
C54	C	-0.439714	-0.236633	0.261395
C55	C	-0.506757	-0.269348	0.301526
C56	C	-0.506749	-0.905517	0.138116
C57	C	-0.506784	-0.905560	0.068475
C58	C	-0.439522	-0.945455	0.566669
C59	C	-0.439545	-0.945484	0.632104
C60	C	-0.506655	-0.905404	0.664837
C61	C	-0.573766	-0.865302	0.632129
C62	C	-0.573748	-0.865279	0.566695
C63	C	-0.514856	-0.848989	0.768566
C64	C	-0.514867	-0.849011	0.833999
C65	C	-0.506717	-0.905477	0.866658
C66	C	-0.498534	-0.961921	0.833875
C67	C	-0.498516	-0.961898	0.768441
C68	C	-0.506683	-0.905425	0.735789
C69	C	-0.439642	-0.945610	0.970310
C70	C	-0.439672	-0.945640	1.035747
C71	C	-0.573887	-0.865453	1.035770
C72	C	-0.573862	-0.865428	0.970335
C73	C	-0.506733	-0.905506	0.937609
H74	H	-0.808136	-0.825379	0.221329
H75	H	-0.907655	-0.752751	0.148628
H76	H	-0.628409	-0.832670	0.658784
Br77	Br	-0.348439	-0.684670	0.207030
H78	H	-0.384907	-0.978139	0.658734
Br79	Br	-1.136517	-0.731055	0.126828
Br80	Br	-0.487419	-1.038497	0.723952
Br81	Br	-0.748573	-0.985535	0.381605
H82	H	-0.521520	-0.803050	0.860686
H83	H	-0.384865	-0.978090	0.540025
H84	H	-1.206264	-0.825440	0.221263
Br85	Br	-1.265837	-0.985616	0.381525
H86	H	-0.678422	-0.346479	0.310622
Br87	Br	-0.664939	-0.126804	0.396049
H88	H	-1.106747	-1.058238	0.454237
H89	H	-0.628437	-0.263274	0.374307
H90	H	-0.907679	-1.058213	0.454275
H91	H	-0.628188	-0.666910	0.374389
H92	H	-0.385166	-0.144556	0.228710
Br93	Br	-0.664681	-0.530439	0.396136
H94	H	-0.678352	-0.465191	0.310650
H95	H	-0.491898	-1.007901	0.860464
H96	H	-0.385088	-0.263266	0.228736
H97	H	-0.334994	-0.346286	0.292460
Br98	Br	-0.664926	-0.811004	0.925953
Br99	Br	-0.283530	-0.482725	0.289768
Br100	Br	-0.348527	-0.530432	0.207006
Br101	Br	-0.348538	-0.999998	0.925892
H102	H	-0.385036	-0.978297	1.062370
H103	H	-0.628534	-0.832821	1.062421
Br104	Br	-0.664817	-0.810856	0.522313
H105	H	-0.521497	-0.803004	0.741982
