data_functionalizedCrystal
_audit_creation_method	'MofGen! by Chris Wilmer'
_symmetry_space_group_name_H-M	'P1'
_symmetry_Int_Tables_number	1
_symmetry_cell_setting	triclinic
loop_
_symmetry_equiv_pos_as_xyz
  x,y,z
_cell_length_a	18.215407
_cell_length_b	21.295418
_cell_length_c	21.295411
_cell_angle_alpha	89.975438
_cell_angle_beta	89.983429
_cell_angle_gamma	90.028835
loop_
_atom_site_label
_atom_site_type_symbol
_atom_site_fract_x
_atom_site_fract_y
_atom_site_fract_z
Zn1	Zn	1.125030	-0.250629	-0.355932
Zn2	Zn	1.625030	0.249371	0.144068
Zn3	Zn	1.124938	-0.355894	-0.250665
Zn4	Zn	1.624938	0.144106	0.249335
Zn5	Zn	1.001970	-0.250644	-0.250676
Zn6	Zn	1.501970	0.249356	0.249324
Zn7	Zn	1.001921	-0.355866	-0.355896
Zn8	Zn	1.501921	0.144134	0.144104
O9	O	1.063465	-0.303258	-0.303292
O10	O	1.563465	0.196742	0.196708
O11	O	1.228002	-0.264599	-0.341978
O12	O	1.728002	0.235401	0.158022
O13	O	1.108608	-0.341951	-0.162577
O14	O	1.608608	0.158049	0.337423
O15	O	1.018353	-0.162552	-0.264659
O16	O	1.518353	0.337448	0.235341
O17	O	1.227935	-0.341937	-0.264639
O18	O	1.727935	0.158063	0.235361
O19	O	1.108765	-0.162542	-0.341989
O20	O	1.608765	0.337458	0.158011
O21	O	1.018264	-0.264623	-0.162586
O22	O	1.518264	0.235377	0.337414
O23	O	0.898979	-0.264596	-0.264624
O24	O	1.398979	0.235404	0.235376
O25	O	1.018270	-0.341888	-0.443990
O26	O	1.518270	0.158112	0.056010
O27	O	0.898943	-0.341902	-0.341929
O28	O	1.398943	0.158098	0.158071
O29	O	1.108718	-0.264571	-0.444016
O30	O	1.608718	0.235429	0.055984
O31	O	1.108561	-0.443980	-0.264604
O32	O	1.608561	0.056020	0.235396
O33	O	1.018181	-0.443959	-0.341917
O34	O	1.518181	0.056041	0.158083
C35	C	0.872259	-0.303247	-0.303274
C36	C	1.372259	0.196753	0.196726
C37	C	0.790460	-0.303258	-0.303281
C38	C	1.290460	0.196742	0.196719
C39	C	0.602267	-0.343575	-0.343483
C40	C	1.102267	0.156425	0.156517
C41	C	0.525408	-0.343577	-0.343491
C42	C	1.025408	0.156423	0.156509
C43	C	0.525415	-0.262953	-0.263115
C44	C	1.025415	0.237047	0.236885
C45	C	0.602273	-0.262949	-0.263111
C46	C	1.102273	0.237051	0.236889
C47	C	0.640696	-0.303263	-0.303294
C48	C	1.140696	0.196737	0.196706
C49	C	0.486980	-0.303270	-0.303306
C50	C	0.986980	0.196730	0.196694
C51	C	0.403647	-0.303271	-0.303314
C52	C	0.903647	0.196729	0.196686
C53	C	0.724035	-0.303260	-0.303287
C54	C	1.224035	0.196740	0.196713
C55	C	1.063376	-0.466810	-0.303269
C56	C	1.563376	0.033190	0.196731
C57	C	1.063405	-0.536778	-0.303280
C58	C	1.563405	-0.036778	0.196720
C59	C	1.110634	-1.036177	-0.343639
C60	C	1.610634	-0.536177	0.156361
C61	C	1.110613	-0.970435	-0.343629
C62	C	1.610613	-0.470435	0.156371
C63	C	1.063565	-0.937617	-0.303332
C64	C	1.563565	-0.437617	0.196668
C65	C	1.016549	-0.970548	-0.263030
C66	C	1.516549	-0.470548	0.236970
C67	C	1.016577	-1.036289	-0.263036
C68	C	1.516577	-0.536289	0.236964
N69	N	0.999106	-0.834448	-0.298441
N70	N	1.499106	-0.334448	0.201559
N71	N	0.999081	-0.771997	-0.298438
N72	N	1.499081	-0.271997	0.201562
C73	C	1.063479	-0.739543	-0.303308
C74	C	1.563479	-0.239543	0.196692
N75	N	1.127903	-0.771899	-0.308193
N76	N	1.627903	-0.271899	0.191807
N77	N	1.127927	-0.834357	-0.308199
N78	N	1.627927	-0.334357	0.191801
C79	C	1.063530	-0.866332	-0.303320
C80	C	1.563530	-0.366332	0.196680
C81	C	1.110472	-0.635334	-0.343594
C82	C	1.610472	-0.135334	0.156406
C83	C	1.110452	-0.569591	-0.343579
C84	C	1.610452	-0.069591	0.156421
C85	C	1.016382	-0.569705	-0.262983
C86	C	1.516382	-0.069705	0.237017
C87	C	1.016409	-0.635448	-0.262994
C88	C	1.516409	-0.135448	0.237006
C89	C	1.063453	-0.668258	-0.303303
C90	C	1.563453	-0.168258	0.196697
C91	C	1.255418	-0.303270	-0.303311
C92	C	1.755418	0.196730	0.196689
C93	C	1.337217	-0.303274	-0.303319
C94	C	1.837217	0.196726	0.196681
C95	C	1.063499	-0.303225	-0.467483
C96	C	1.563499	0.196775	0.032517
C97	C	1.063513	-0.303210	-0.537451
C98	C	1.563513	0.196790	-0.037451
C99	C	1.063575	-0.139068	-0.303329
C100	C	1.563575	0.360932	0.196671
C101	C	1.063622	-0.069100	-0.303345
C102	C	1.563622	0.430900	0.196655
C103	C	1.110638	-0.343344	-1.036905
C104	C	1.610638	0.156656	-0.536905
C105	C	1.110624	-0.343364	-0.971162
C106	C	1.610624	0.156636	-0.471162
C107	C	1.063583	-0.303112	-0.938290
C108	C	1.563583	0.196888	-0.438290
C109	C	1.016538	-0.262849	-0.971166
C110	C	1.516538	0.237151	-0.471166
C111	C	1.016547	-0.262834	-1.036908
C112	C	1.516547	0.237166	-0.536908
N113	N	1.057959	-0.248033	-0.835081
N114	N	1.557959	0.251967	-0.335081
N115	N	1.057955	-0.248048	-0.772630
N116	N	1.557955	0.251952	-0.272630
C117	C	1.063551	-0.303155	-0.740216
C118	C	1.563551	0.196845	-0.240216
N119	N	1.069166	-0.358246	-0.772612
N120	N	1.569166	0.141754	-0.272612
N121	N	1.069174	-0.358230	-0.835069
N122	N	1.569174	0.141770	-0.335069
C123	C	1.063567	-0.303124	-0.867005
C124	C	1.563567	0.196876	-0.367005
C125	C	1.110575	-0.343441	-0.636062
C126	C	1.610575	0.156559	-0.136062
C127	C	1.110556	-0.343462	-0.570318
C128	C	1.610556	0.156538	-0.070318
C129	C	1.016473	-0.262941	-0.570323
C130	C	1.516473	0.237059	-0.070323
C131	C	1.016488	-0.262925	-0.636066
C132	C	1.516488	0.237075	-0.136066
C133	C	1.063543	-0.303174	-0.668931
C134	C	1.563543	0.196826	-0.168931
C135	C	1.063474	-0.303246	-0.139741
C136	C	1.563474	0.196754	0.360259
C137	C	1.063602	-0.303083	-0.069773
C138	C	1.563602	0.196917	0.430227
H139	H	0.494122	-0.376401	-0.376218
H140	H	0.994122	0.123599	0.123782
Cl141	Cl	0.477106	-0.212277	-0.212600
Cl142	Cl	0.977106	0.287723	0.287400
Cl143	Cl	0.957402	-0.212245	-0.929842
Cl144	Cl	1.457402	0.287755	-0.429842
Cl145	Cl	0.957407	-0.929293	-0.212367
Cl146	Cl	1.457407	-0.429293	0.287633
H147	H	0.633549	-0.376399	-0.376205
H148	H	1.133549	0.123601	0.123795
Cl149	Cl	1.169759	-0.393982	-0.929834
Cl150	Cl	1.669759	0.106018	-0.429834
Cl151	Cl	0.957299	-0.676839	-0.212339
Cl152	Cl	1.457299	-0.176839	0.287661
Cl153	Cl	0.650588	-0.212263	-0.212587
Cl154	Cl	1.150588	0.287737	0.287413
Cl155	Cl	1.169620	-0.676585	-0.394259
Cl156	Cl	1.669620	-0.176585	0.105741
Cl157	Cl	1.169563	-0.528202	-0.394236
Cl158	Cl	1.669563	-0.028202	0.105764
Cl159	Cl	1.169784	-0.393950	-1.078218
Cl160	Cl	1.669784	0.106050	-0.578218
H161	H	1.148947	-1.062888	-0.376457
H162	H	1.648947	-0.562888	0.123543
H163	H	1.148887	-0.376216	-0.662822
H164	H	1.648887	0.123784	-0.162822
Cl165	Cl	1.169719	-0.929037	-0.394288
Cl166	Cl	1.669719	-0.429037	0.105712
Cl167	Cl	0.957343	-0.212317	-0.677388
Cl168	Cl	1.457343	0.287683	-0.177388
Cl169	Cl	0.957407	-0.212220	-1.078230
Cl170	Cl	1.457407	0.287780	-0.578230
H171	H	0.978293	-1.063095	-0.230223
H172	H	1.478293	-0.563095	0.269777
Cl173	Cl	1.169689	-0.394084	-0.528998
Cl174	Cl	1.669689	0.105916	-0.028998
H175	H	0.978169	-0.230168	-0.543560
H176	H	1.478169	0.269832	-0.043560
H177	H	0.978078	-0.542986	-0.230169
H178	H	1.478078	-0.042986	0.269831
