data_functionalizedCrystal
_audit_creation_method	'MofGen! by Chris Wilmer'
_symmetry_space_group_name_H-M	'P1'
_symmetry_Int_Tables_number	1
_symmetry_cell_setting	triclinic
loop_
_symmetry_equiv_pos_as_xyz
  x,y,z
_cell_length_a	14.519709
_cell_length_b	17.699083
_cell_length_c	16.776229
_cell_angle_alpha	89.992455
_cell_angle_beta	89.998478
_cell_angle_gamma	83.481580
loop_
_atom_site_label
_atom_site_type_symbol
_atom_site_fract_x
_atom_site_fract_y
_atom_site_fract_z
O1	O	1.223449	0.099215	-0.066186
O2	O	0.954923	0.110899	-0.066211
O3	O	1.096772	-0.005110	-0.066191
O4	O	1.081599	0.215225	-0.066206
O5	O	1.096754	-0.005117	0.066386
O6	O	0.954904	0.110892	0.066366
O7	O	1.223430	0.099208	0.066390
Zn8	Zn	1.089164	0.105049	0.087428
Zn9	Zn	1.089189	0.105058	-0.087248
O10	O	1.081580	0.215218	0.066370
C11	C	0.920556	0.110351	0.000075
C12	C	0.818181	0.108719	0.000065
C13	C	1.096219	-0.033312	0.000098
C14	C	1.094588	-0.117335	0.000098
C15	C	1.177851	-0.165718	0.000107
C16	C	1.176313	-0.244665	0.000099
C17	C	1.091511	-0.275229	0.000089
C18	C	1.008242	-0.226840	0.000078
C19	C	1.009781	-0.147894	0.000080
C20	C	1.002033	-0.545221	0.000071
C21	C	1.000501	-0.624173	0.000072
C22	C	1.168566	-0.641992	0.000091
C23	C	1.170105	-0.563046	0.000092
C24	C	1.086836	-0.514664	0.000077
C25	C	1.088505	-0.429060	0.000083
C26	C	1.089841	-0.360831	0.000089
C27	C	0.443311	0.102712	0.000102
C28	C	0.547612	0.104380	0.000092
C29	C	0.630743	0.105716	0.000083
C30	C	0.735050	0.107384	0.000074
C31	C	1.257797	0.099756	0.000104
C32	C	1.360171	0.101388	0.000107
C33	C	1.082134	0.243420	0.000080
C34	C	1.083765	0.327442	0.000075
N35	N	1.089154	0.105042	0.206639
N36	N	1.089206	0.105059	-0.206459
C37	C	1.151984	0.053694	0.248365
C38	C	1.151989	0.053694	0.331817
C39	C	1.089168	0.105045	0.373542
C40	C	1.026331	0.156395	0.331810
C41	C	1.026322	0.156392	0.248359
C42	C	1.026364	0.156410	0.668357
C43	C	1.026380	0.156411	0.751814
C44	C	1.152031	0.053712	0.751815
C45	C	1.152022	0.053709	0.668364
C46	C	1.089183	0.105056	0.626640
C47	C	1.089177	0.105055	0.536151
C48	C	1.089177	0.105050	0.464028
H49	H	1.246907	-0.140840	0.000120
C50	C	0.916263	-0.260167	0.000108
C51	C	0.932734	-0.339661	0.000132
C52	C	0.848024	-0.370385	0.000173
H53	H	0.881923	-0.243647	-0.046115
H54	H	0.881973	-0.243614	0.046355
H55	H	0.967010	-0.356208	-0.046111
H56	H	0.967060	-0.356202	0.046352
H57	H	0.813733	-0.353832	0.046421
H58	H	0.813690	-0.353860	-0.046051
H59	H	0.859187	-0.424324	0.000197
C60	C	0.919281	-0.095487	0.000110
C61	C	0.844684	-0.139148	0.000122
C62	C	0.761299	-0.090898	0.000155
H63	H	0.916266	-0.064299	-0.046111
H64	H	0.916327	-0.064334	0.046360
H65	H	0.847636	-0.170288	-0.046123
H66	H	0.847668	-0.170335	0.046339
H67	H	0.758346	-0.059746	0.046405
H68	H	0.758294	-0.059713	-0.046066
H69	H	0.710676	-0.120515	0.000170
H70	H	0.975176	0.198204	0.365787
H71	H	1.203144	0.011881	0.214398
H72	H	1.203180	0.011896	0.634394
H73	H	1.236367	-0.681395	0.000099
H74	H	0.975158	0.198203	0.214387
H75	H	1.203150	0.011882	0.365790
C76	C	1.266814	-0.297069	0.000156
C77	C	1.341408	-0.253406	0.000193
C78	C	1.424795	-0.301654	0.000256
H79	H	1.269853	-0.328248	-0.046064
H80	H	1.269745	-0.328231	0.046407
H81	H	1.338478	-0.222257	-0.046053
H82	H	1.338400	-0.222229	0.046410
H83	H	1.427726	-0.332816	0.046507
H84	H	1.427824	-0.332830	-0.045965
H85	H	1.475417	-0.272035	0.000289
H86	H	1.203196	0.011900	0.785796
H87	H	0.975220	0.198229	0.785785
H88	H	1.239159	-0.538166	0.000105
H89	H	0.975200	0.198220	0.634392
C90	C	0.908330	-0.657212	0.000013
C91	C	0.835735	-0.597944	-0.000024
C92	C	0.750821	-0.628351	-0.000089
H93	H	0.904094	-0.687632	0.046232
H94	H	0.904204	-0.687613	-0.046239
H95	H	0.839860	-0.567556	0.046223
H96	H	0.839941	-0.567520	-0.046240
H97	H	0.746694	-0.658752	-0.046341
H98	H	0.746594	-0.658771	0.046131
H99	H	0.701555	-0.588143	-0.000122
H100	H	0.934231	-0.505837	0.000059
