data_functionalizedCrystal
_audit_creation_method	'MofGen! by Chris Wilmer'
_symmetry_space_group_name_H-M	'P1'
_symmetry_Int_Tables_number	1
_symmetry_cell_setting	triclinic
loop_
_symmetry_equiv_pos_as_xyz
  x,y,z
_cell_length_a	19.077105
_cell_length_b	16.120444
_cell_length_c	19.076919
_cell_angle_alpha	84.952692
_cell_angle_beta	89.923776
_cell_angle_gamma	90.739589
loop_
_atom_site_label
_atom_site_type_symbol
_atom_site_fract_x
_atom_site_fract_y
_atom_site_fract_z
Zn1	Zn	1.040330	-0.403263	0.456946
Zn2	Zn	1.039008	-0.537289	0.344933
Zn3	Zn	0.928045	-0.392097	0.334282
Zn4	Zn	0.916852	-0.536786	0.457665
O5	O	0.981059	-0.467359	0.398456
O6	O	1.138270	-0.425926	0.446244
O7	O	1.028419	-0.513566	0.245006
O8	O	0.948178	-0.276935	0.345795
O9	O	1.137298	-0.524394	0.363948
O10	O	1.030673	-0.285139	0.435916
O11	O	0.946895	-0.406894	0.237181
O12	O	0.828446	-0.406406	0.346492
O13	O	0.929101	-0.523537	0.556084
O14	O	0.820222	-0.512709	0.437141
O15	O	1.019820	-0.425438	0.555556
O16	O	1.017566	-0.653865	0.364645
O17	O	0.927819	-0.653496	0.447469
C18	C	0.798894	-0.458292	0.390739
C19	C	0.720961	-0.454434	0.387455
C20	C	0.680085	-0.508045	0.433041
C21	C	0.606859	-0.504409	0.429958
C22	C	0.574512	-0.447166	0.381286
C23	C	0.615394	-0.393550	0.335698
C24	C	0.688618	-0.397182	0.338785
C25	C	0.355972	-0.430356	0.367004
C26	C	0.282743	-0.426729	0.363920
C27	C	0.274213	-0.537589	0.458181
C28	C	0.347439	-0.541219	0.461261
C29	C	0.388315	-0.487600	0.415675
N30	N	0.499664	-0.443450	0.378132
N31	N	0.463162	-0.491312	0.418833
C32	C	0.971353	-0.683927	0.407307
C33	C	0.967263	-0.776580	0.411119
C34	C	1.002437	-0.987660	0.378838
C35	C	0.959810	-0.946213	0.418087
C36	C	0.963958	-0.851820	0.414209
C37	C	0.998290	-1.082061	0.382716
C38	C	1.163935	-0.476461	0.406204
C39	C	1.241866	-0.480340	0.409506
C40	C	0.973359	-0.475677	0.582077
C41	C	0.970078	-0.479222	0.660326
C42	C	0.990822	-0.249947	0.389588
C43	C	0.994982	-0.157299	0.385808
C44	C	0.988772	-0.459015	0.215549
C45	C	0.992199	-0.455242	0.137297
C46	C	1.015767	-0.429815	0.696813
C47	C	1.012676	-0.433142	0.770336
C48	C	0.963899	-0.485881	0.807369
C49	C	0.918205	-0.535290	0.770876
C50	C	0.921294	-0.531958	0.697355
C51	C	0.949594	-0.501319	1.027283
C52	C	0.946510	-0.504649	1.100809
C53	C	1.040980	-0.402499	1.100263
C54	C	1.044067	-0.399176	1.026741
C55	C	0.998371	-0.448581	0.990255
N56	N	0.960739	-0.489285	0.882521
N57	N	1.001528	-0.445172	0.915104
H58	H	0.256408	-0.380106	0.324289
H59	H	0.878487	-0.578228	0.801035
H60	H	0.884082	-0.572182	0.667647
C61	C	1.069419	-0.371797	0.656082
H62	H	1.096181	-0.342842	0.688345
H63	H	1.099744	-0.403897	0.629996
H64	H	1.045427	-0.332841	0.624785
H65	H	0.920200	-0.981622	0.454603
C66	C	1.097717	-0.341158	0.986006
H67	H	1.093015	-0.346255	0.936994
H68	H	1.089464	-0.285189	0.995335
H69	H	1.143774	-0.356252	1.000550
H70	H	0.389245	-0.386701	0.329881
C71	C	1.055937	-0.939832	0.329506
H72	H	1.051733	-0.881744	0.333335
H73	H	1.101998	-0.956794	0.342404
H74	H	1.047074	-0.951434	0.282336
C75	C	0.899337	-0.555667	0.987154
H76	H	0.908153	-0.546127	0.938063
H77	H	0.906577	-0.612729	1.001923
H78	H	0.852268	-0.541664	0.996709
C79	C	0.579813	-0.330586	0.282158
H80	H	0.530349	-0.336107	0.286842
H81	H	0.593886	-0.275664	0.290753
H82	H	0.593248	-0.341158	0.235840
H83	H	1.049882	-0.392911	0.800041
H84	H	0.906788	-0.547597	1.130960
C85	C	0.715661	-0.571012	0.486582
H86	H	0.680826	-0.602414	0.513294
H87	H	0.743728	-0.607477	0.462291
H88	H	0.744368	-0.541985	0.517205
C89	C	1.091236	-0.348152	1.140399
H90	H	1.082409	-0.357682	1.189490
H91	H	1.138303	-0.362146	1.130847
H92	H	1.083989	-0.291087	1.125629
C93	C	0.733582	-0.338209	0.288642
H94	H	0.703831	-0.303600	0.259209
H95	H	0.762644	-0.304581	0.315347
H96	H	0.762004	-0.370064	0.260425
H97	H	0.573580	-0.548066	0.467078
H98	H	0.240925	-0.581241	0.495295
C99	C	0.383017	-0.604181	0.514804
H100	H	0.348184	-0.635585	0.541517
H101	H	0.411084	-0.640645	0.490512
H102	H	0.411724	-0.575153	0.545427
