data_functionalizedCrystal
_audit_creation_method	'MofGen! by Chris Wilmer'
_symmetry_space_group_name_H-M	'P1'
_symmetry_Int_Tables_number	1
_symmetry_cell_setting	triclinic
loop_
_symmetry_equiv_pos_as_xyz
  x,y,z
_cell_length_a	19.288867
_cell_length_b	19.288865
_cell_length_c	17.766277
_cell_angle_alpha	90.012963
_cell_angle_beta	90.002427
_cell_angle_gamma	96.863342
loop_
_atom_site_label
_atom_site_type_symbol
_atom_site_fract_x
_atom_site_fract_y
_atom_site_fract_z
O1	O	0.921341	-0.086658	-0.062576
O2	O	1.254675	0.246675	0.270757
O3	O	1.588008	0.580009	0.604090
O4	O	0.719081	-0.098345	-0.062585
O5	O	1.052414	0.234988	0.270748
O6	O	1.385748	0.568321	0.604082
O7	O	0.826056	0.008629	-0.062566
O8	O	1.159389	0.341962	0.270768
O9	O	1.492722	0.675295	0.604101
O10	O	0.814367	-0.193632	-0.062596
O11	O	1.147700	0.139701	0.270738
O12	O	1.481034	0.473035	0.604071
O13	O	0.826058	0.008639	0.062623
O14	O	1.159392	0.341973	0.395956
O15	O	1.492725	0.675306	0.729290
O16	O	0.719084	-0.098335	0.062604
O17	O	1.052417	0.234999	0.395937
O18	O	1.385750	0.568332	0.729270
O19	O	0.921344	-0.086647	0.062612
O20	O	1.254677	0.246686	0.395945
O21	O	1.588011	0.580019	0.729279
Cu22	Cu	0.820214	-0.092490	0.074039
Cu23	Cu	1.153547	0.240843	0.407372
Cu24	Cu	1.486881	0.574177	0.740705
Cu25	Cu	0.820211	-0.092503	-0.074011
Cu26	Cu	1.153544	0.240831	0.259322
Cu27	Cu	1.486878	0.574164	0.592655
O28	O	0.814369	-0.193621	0.062593
O29	O	1.147703	0.139712	0.395926
O30	O	1.481036	0.473045	0.729259
C31	C	0.693206	-0.097964	0.000009
C32	C	1.026539	0.235370	0.333342
C33	C	1.359873	0.568703	0.666675
C34	C	0.616102	-0.096834	0.000006
C35	C	0.949436	0.236499	0.333339
C36	C	1.282769	0.569833	0.666673
C37	C	0.060536	-0.088704	-0.068224
C38	C	0.393869	0.244630	0.265109
C39	C	0.727202	0.577963	0.598442
C40	C	0.132983	-0.089761	-0.068227
C41	C	0.466316	0.243573	0.265106
C42	C	0.799650	0.576906	0.598439
C43	C	0.169213	-0.090287	0.000013
C44	C	0.502546	0.243046	0.333346
C45	C	0.835880	0.576380	0.666679
C46	C	0.132992	-0.089738	0.068261
C47	C	0.466325	0.243596	0.401594
C48	C	0.799659	0.576929	0.734927
C49	C	0.060547	-0.088674	0.068262
C50	C	0.393880	0.244660	0.401595
C51	C	0.727213	0.577993	0.734928
C52	C	0.278542	-0.132650	0.052287
C53	C	0.611875	0.200683	0.385620
C54	C	0.945208	0.534017	0.718954
C55	C	0.350985	-0.133718	0.052283
C56	C	0.684318	0.199615	0.385617
C57	C	1.017652	0.532948	0.718950
C58	C	0.392659	-0.093566	0.000012
C59	C	0.725992	0.239767	0.333346
C60	C	1.059325	0.573101	0.666679
C61	C	0.361879	-0.052354	-0.052267
C62	C	0.695213	0.280979	0.281066
C63	C	1.028546	0.614313	0.614399
C64	C	0.289434	-0.051290	-0.052266
C65	C	0.622767	0.282044	0.281067
C66	C	0.956101	0.615377	0.614400
C67	C	0.247768	-0.091440	0.000019
C68	C	0.581101	0.241893	0.333352
C69	C	0.914435	0.575226	0.666686
C70	C	0.507428	-0.095256	-0.068235
C71	C	0.840761	0.238077	0.265099
C72	C	1.174094	0.571410	0.598432
C73	C	0.579877	-0.096309	-0.068235
C74	C	0.913211	0.237024	0.265099
C75	C	1.246544	0.570357	0.598432
C76	C	0.579884	-0.096293	0.068255
C77	C	0.913217	0.237040	0.401589
C78	C	1.246550	0.570373	0.734922
C79	C	0.507437	-0.095233	0.068253
C80	C	0.840770	0.238100	0.401587
C81	C	1.174103	0.571433	0.734920
C82	C	0.471213	-0.094718	0.000006
C83	C	0.804546	0.238615	0.333340
C84	C	1.137879	0.571948	0.666673
C85	C	0.825681	0.034510	0.000031
C86	C	1.159014	0.367844	0.333364
C87	C	1.492347	0.701177	0.666698
C88	C	0.824552	0.111614	0.000038
C89	C	1.157885	0.444947	0.333371
C90	C	1.491218	0.778281	0.666704
C91	C	0.947219	-0.087029	0.000017
C92	C	1.280552	0.246304	0.333350
C93	C	1.613886	0.579638	0.666684
C94	C	1.024323	-0.088159	0.000015
C95	C	1.357656	0.245175	0.333348
C96	C	1.690989	0.578508	0.666681
N97	N	0.820209	-0.092506	-0.178142
N98	N	1.153543	0.240827	0.155192
N99	N	1.486876	0.574160	0.488525
C100	C	0.814744	-0.219503	-0.000005
C101	C	1.148078	0.113830	0.333328
C102	C	1.481411	0.447164	0.666661
C103	C	0.815873	-0.296607	-0.000017
C104	C	1.149207	0.036727	0.333316
C105	C	1.482540	0.370060	0.666650
C106	C	0.887320	0.156310	0.000044
C107	C	1.220653	0.489643	0.333377
C108	C	1.553986	0.822976	0.666711
C109	C	0.886259	0.228757	0.000032
C110	C	1.219592	0.562090	0.333365
C111	C	1.552926	0.895424	0.666699
C112	C	0.822427	0.256505	0.000029
C113	C	1.155760	0.589838	0.333362
C114	C	1.489093	0.923172	0.666695
C115	C	0.759651	0.211799	0.000018
C116	C	1.092984	0.545133	0.333352
C117	C	1.426317	0.878466	0.666685
C118	C	0.760713	0.139354	0.000023
C119	C	1.094047	0.472687	0.333356
C120	C	1.427380	0.806020	0.666689
C121	C	0.772248	0.364796	0.043877
C122	C	1.105582	0.698130	0.377211
C123	C	1.438915	1.031463	0.710544
C124	C	0.771188	0.437241	0.043878
C125	C	1.104522	0.770574	0.377211
C126	C	1.437855	1.103908	0.710544
C127	C	0.819147	0.479951	0.000012
C128	C	1.152481	0.813284	0.333345
C129	C	1.485814	1.146617	0.666678
C130	C	0.868178	0.450208	-0.043845
C131	C	1.201511	0.783542	0.289489
C132	C	1.534844	1.116875	0.622822
C133	C	0.869240	0.377763	-0.043840
C134	C	1.202573	0.711096	0.289493
C135	C	1.535907	1.044430	0.622826
C136	C	0.821268	0.335059	0.000024
C137	C	1.154601	0.668392	0.333357
C138	C	1.487934	1.001726	0.666690
C139	C	0.880769	0.603202	0.000004
C140	C	1.214103	0.936536	0.333337
C141	C	1.547436	1.269869	0.666671
C142	C	0.879706	0.675650	-0.000013
C143	C	1.213039	1.008984	0.333321
C144	C	1.546373	1.342317	0.666654
C145	C	0.753096	0.658691	-0.000019
C146	C	1.086429	0.992024	0.333315
C147	C	1.419763	1.325358	0.666648
C148	C	0.754161	0.586245	-0.000010
C149	C	1.087494	0.919578	0.333324
C150	C	1.420828	1.252911	0.666657
C151	C	0.818000	0.558505	0.000005
C152	C	1.151333	0.891838	0.333339
C153	C	1.484666	1.225172	0.666672
C154	C	0.867662	-0.045231	-0.217520
C155	C	1.200995	0.288103	0.115813
C156	C	1.534328	0.621436	0.449147
C157	C	0.867668	-0.045229	-0.296322
C158	C	1.201001	0.288104	0.037011
C159	C	1.534334	0.621437	0.370345
C160	C	0.820209	-0.092497	-0.335742
C161	C	1.153543	0.240836	-0.002409
C162	C	1.486876	0.574169	0.330924
C163	C	0.772753	-0.139782	-0.296354
C164	C	1.106087	0.193551	0.036979
C165	C	1.439420	0.526885	0.370312
C166	C	0.772753	-0.139787	-0.217554
C167	C	1.106087	0.193547	0.115779
C168	C	1.439420	0.526880	0.449113
C169	C	0.756922	-0.101642	-0.460591
C170	C	1.090255	0.231691	-0.127257
C171	C	1.423589	0.565024	0.206076
C172	C	0.756921	-0.101633	-0.539390
C173	C	1.090254	0.231700	-0.206056
C174	C	1.423588	0.565034	0.127277
C175	C	0.820210	-0.092488	-0.578789
C176	C	1.153543	0.240846	-0.245455
C177	C	1.486876	0.574179	0.087878
C178	C	0.883502	-0.083337	-0.539379
C179	C	1.216835	0.249997	-0.206046
C180	C	1.550168	0.583330	0.127288
C181	C	0.883502	-0.083341	-0.460579
C182	C	1.216835	0.249992	-0.127245
C183	C	1.550168	0.583325	0.206088
C184	C	0.820204	-0.092498	-0.421188
C185	C	1.153538	0.240835	-0.087855
C186	C	1.486871	0.574169	0.245479
C187	C	0.867673	-0.045208	-0.703613
C188	C	1.201006	0.288126	-0.370280
C189	C	1.534339	0.621459	-0.036946
C190	C	0.867679	-0.045211	-0.782416
C191	C	1.201013	0.288122	-0.449083
C192	C	1.534346	0.621455	-0.115749
C193	C	0.772759	-0.139761	-0.782447
C194	C	1.106092	0.193573	-0.449114
C195	C	1.439426	0.526906	-0.115780
C196	C	0.772758	-0.139760	-0.703645
C197	C	1.106091	0.193573	-0.370312
C198	C	1.439425	0.526906	-0.036979
C199	C	0.820214	-0.092480	-0.664233
C200	C	1.153547	0.240853	-0.330900
C201	C	1.486881	0.574186	0.002434
N202	N	0.820221	-0.092481	0.178169
N203	N	1.153555	0.240853	0.511502
N204	N	1.486888	0.574186	0.844836
H205	H	0.395809	-0.019660	-0.094833
H206	H	0.729142	0.313673	0.238500
H207	H	1.062475	0.647007	0.571833
H208	H	0.477951	-0.094792	0.123821
H209	H	0.811285	0.238541	0.457154
H210	H	1.144618	0.571875	0.790488
H211	H	0.376037	-0.167293	0.094837
H212	H	0.709371	0.166041	0.428170
H213	H	1.042704	0.499374	0.761503
H214	H	0.906325	-0.006716	-0.814479
H215	H	1.239658	0.326618	-0.481145
H216	H	1.572991	0.659951	-0.147812
H217	H	0.734120	-0.178250	-0.814543
H218	H	1.067453	0.155083	-0.481209
H219	H	1.400787	0.488417	-0.147876
N220	N	0.686461	0.538031	-0.000012
N221	N	1.019794	0.871365	0.333321
N222	N	1.353128	1.204698	0.666655
H223	H	0.645861	0.566600	-0.000015
H224	H	0.979195	0.899934	0.333318
H225	H	1.312528	1.233267	0.666651
H226	H	0.684146	0.507616	0.046399
H227	H	1.017479	0.840950	0.379732
H228	H	1.350812	1.174283	0.713065
H229	H	0.244616	-0.165344	0.094861
H230	H	0.577950	0.167990	0.428194
H231	H	0.911283	0.501323	0.761527
N232	N	0.718311	0.469310	0.091187
N233	N	1.051644	0.802643	0.424520
N234	N	1.384978	1.135977	0.757854
H235	H	0.669626	0.450154	0.074807
H236	H	1.002959	0.783488	0.408140
H237	H	1.336293	1.116821	0.741473
H238	H	0.724976	0.521681	0.084519
H239	H	1.058309	0.855014	0.417853
H240	H	1.391642	1.188347	0.751186
H241	H	0.734115	-0.178254	-0.671581
H242	H	1.067448	0.155079	-0.338248
H243	H	1.400782	0.488412	-0.004915
H244	H	0.705381	-0.109093	-0.428519
H245	H	1.038714	0.224240	-0.095185
H246	H	1.372048	0.557574	0.238148
H247	H	0.733193	0.330027	0.079602
H248	H	1.066526	0.663361	0.412936
H249	H	1.399859	0.996694	0.746269
H250	H	0.707678	0.234396	0.000014
H251	H	1.041012	0.567730	0.333347
H252	H	1.374345	0.901063	0.666681
N253	N	0.688656	-0.111496	-0.581884
N254	N	1.021989	0.221837	-0.248551
N255	N	1.355323	0.555171	0.084782
H256	H	0.662076	-0.158099	-0.568188
H257	H	0.995409	0.175234	-0.234854
H258	H	1.328742	0.508568	0.098479
H259	H	0.698310	-0.110066	-0.637769
H260	H	1.031644	0.223267	-0.304436
H261	H	1.364977	0.556600	0.028898
H262	H	0.932750	0.580616	0.000013
H263	H	1.266084	0.913949	0.333346
H264	H	1.599417	1.247282	0.666679
N265	N	0.693011	0.091141	0.000015
N266	N	1.026344	0.424474	0.333349
N267	N	1.359678	0.757807	0.666682
H268	H	0.652411	0.119709	0.000009
H269	H	0.985744	0.453042	0.333342
H270	H	1.319077	0.786375	0.666676
H271	H	0.690695	0.060727	0.046428
H272	H	1.024028	0.394061	0.379761
H273	H	1.357362	0.727394	0.713094
H274	H	0.734113	-0.178270	-0.328454
H275	H	1.067446	0.155064	0.004879
H276	H	1.400780	0.488397	0.338212
N277	N	0.918867	0.005739	-0.175011
N278	N	1.252200	0.339072	0.158322
N279	N	1.585533	0.672406	0.491656
H280	H	0.948936	0.035681	-0.211920
H281	H	1.282270	0.369014	0.121414
H282	H	1.615603	0.702348	0.454747
H283	H	0.949422	-0.020864	-0.142339
H284	H	1.282756	0.312469	0.190995
H285	H	1.616089	0.645803	0.524328
H286	H	0.477933	-0.094835	-0.123805
H287	H	0.811266	0.238498	0.209528
H288	H	1.144599	0.571832	0.542861
H289	H	0.907230	0.484981	-0.079565
H290	H	1.240563	0.818315	0.253768
H291	H	1.573897	1.151648	0.587102
H292	H	0.906311	-0.006731	-0.328390
H293	H	1.239644	0.326603	0.004944
H294	H	1.572977	0.659936	0.338277
H295	H	0.930821	0.712042	-0.000012
H296	H	1.264155	1.045375	0.333322
H297	H	1.597488	1.378709	0.666655
N298	N	0.721566	-0.190774	-0.175076
N299	N	1.054899	0.142559	0.158257
N300	N	1.388232	0.475892	0.491591
H301	H	0.691500	-0.220720	-0.212003
H302	H	1.024834	0.112614	0.121331
H303	H	1.358167	0.445947	0.454664
H304	H	0.691004	-0.164191	-0.142380
H305	H	1.024337	0.169142	0.190954
H306	H	1.357670	0.502476	0.524287
H307	H	0.701123	0.681283	-0.000025
H308	H	1.034456	1.014616	0.333308
H309	H	1.367789	1.347949	0.666642
H310	H	0.162495	-0.090165	0.123822
H311	H	0.495829	0.243169	0.457155
H312	H	0.829162	0.576502	0.790489
H313	H	0.935036	-0.075893	-0.428495
H314	H	1.268370	0.257441	-0.095161
H315	H	1.601703	0.590774	0.238172
H316	H	0.935038	-0.075895	-0.571456
H317	H	1.268371	0.257438	-0.238123
H318	H	1.601704	0.590772	0.095211
N319	N	0.021467	-0.088139	-0.141830
N320	N	0.354800	0.245194	0.191503
N321	N	0.688133	0.578528	0.524836
H322	H	0.055406	-0.088642	-0.185060
H323	H	0.388739	0.244692	0.148273
H324	H	0.722072	0.578025	0.481606
H325	H	-0.002821	-0.044645	-0.144795
H326	H	0.330513	0.288688	0.188538
H327	H	0.663846	0.622021	0.521871
H328	H	0.906316	-0.006711	-0.671522
H329	H	1.239650	0.326622	-0.338189
H330	H	1.572983	0.659955	-0.004855
N331	N	0.021484	-0.088085	0.141866
N332	N	0.354818	0.245249	0.475199
N333	N	0.688151	0.578582	0.808532
H334	H	0.055490	-0.088096	0.185095
H335	H	0.388823	0.245238	0.518429
H336	H	0.722156	0.578571	0.851762
H337	H	-0.014013	-0.130937	0.145060
H338	H	0.319321	0.202396	0.478394
H339	H	0.652654	0.535730	0.811727
H340	H	0.264377	-0.017732	-0.094833
H341	H	0.597710	0.315601	0.238500
H342	H	0.931043	0.648934	0.571834
N343	N	0.172053	-0.090348	-0.141830
N344	N	0.505387	0.242985	0.191503
N345	N	0.838720	0.576319	0.524836
H346	H	0.138113	-0.089859	-0.185063
H347	H	0.471446	0.243474	0.148270
H348	H	0.804779	0.576808	0.481603
H349	H	0.196343	-0.133841	-0.144801
H350	H	0.529677	0.199493	0.188533
H351	H	0.863010	0.532826	0.521866
H352	H	0.937374	0.265155	0.000034
H353	H	1.270707	0.598489	0.333367
H354	H	1.604040	0.931822	0.666701
N355	N	0.618941	-0.096886	-0.141839
N356	N	0.952274	0.236447	0.191494
N357	N	1.285607	0.569781	0.524828
H358	H	0.584997	-0.096398	-0.185069
H359	H	0.918331	0.236936	0.148264
H360	H	1.251664	0.570269	0.481597
H361	H	0.643237	-0.140374	-0.144817
H362	H	0.976571	0.192959	0.188517
H363	H	1.309904	0.526293	0.521850
H364	H	0.609382	-0.096719	0.123818
H365	H	0.942715	0.236614	0.457151
H366	H	1.276049	0.569948	0.790484
N367	N	0.956175	0.126399	0.000055
N368	N	1.289509	0.459732	0.333388
N369	N	1.622842	0.793065	0.666721
H370	H	0.983663	0.142705	-0.046352
H371	H	1.316996	0.476038	0.286982
H372	H	1.650330	0.809371	0.620315
H373	H	0.947274	0.073726	0.000085
H374	H	1.280607	0.407060	0.333418
H375	H	1.613940	0.740393	0.666752
N376	N	0.922116	0.345682	-0.091139
N377	N	1.255450	0.679015	0.242194
N378	N	1.588783	1.012348	0.575527
H379	H	0.952340	0.383726	-0.118931
H380	H	1.285673	0.717059	0.214403
H381	H	1.619006	1.050392	0.547736
H382	H	0.896995	0.312190	-0.128600
H383	H	1.230328	0.645524	0.204734
H384	H	1.563661	0.978857	0.538067
