data_functionalizedCrystal
_audit_creation_method	'MofGen! by Chris Wilmer'
_symmetry_space_group_name_H-M	'P1'
_symmetry_Int_Tables_number	1
_symmetry_cell_setting	triclinic
loop_
_symmetry_equiv_pos_as_xyz
  x,y,z
_cell_length_a	14.044191
_cell_length_b	14.044191
_cell_length_c	13.101039
_cell_angle_alpha	86.337551
_cell_angle_beta	86.327793
_cell_angle_gamma	86.808224
loop_
_atom_site_label
_atom_site_type_symbol
_atom_site_fract_x
_atom_site_fract_y
_atom_site_fract_z
O1	O	-0.225379	1.281981	-0.085150
O2	O	0.024621	1.531981	0.164850
O3	O	0.274621	1.781981	0.414850
O4	O	0.524621	2.031981	0.664850
O5	O	-0.217066	1.005309	-0.085163
O6	O	0.032934	1.255309	0.164837
O7	O	0.282934	1.505309	0.414837
O8	O	0.532934	1.755309	0.664837
O9	O	-0.082886	1.139489	-0.085159
O10	O	0.167114	1.389489	0.164841
O11	O	0.417114	1.639489	0.414841
O12	O	0.667114	1.889489	0.664841
O13	O	-0.359559	1.147801	-0.085154
O14	O	-0.109559	1.397801	0.164846
O15	O	0.140441	1.647801	0.414846
O16	O	0.390441	1.897801	0.664846
O17	O	-0.092531	1.129863	0.085271
O18	O	0.157469	1.379863	0.335271
O19	O	0.407469	1.629863	0.585271
O20	O	0.657469	1.879863	0.835271
O21	O	-0.226710	0.995683	0.085266
O22	O	0.023290	1.245683	0.335266
O23	O	0.273290	1.495683	0.585266
O24	O	0.523290	1.745683	0.835266
O25	O	-0.235024	1.272355	0.085280
O26	O	0.014976	1.522355	0.335280
O27	O	0.264976	1.772355	0.585280
O28	O	0.514976	2.022355	0.835280
Zn29	Zn	-0.232398	1.132491	0.112332
Zn30	Zn	0.017602	1.382491	0.362332
Zn31	Zn	0.267602	1.632491	0.612332
Zn32	Zn	0.517602	1.882491	0.862332
Zn33	Zn	-0.219691	1.145173	-0.112216
Zn34	Zn	0.030309	1.395173	0.137784
Zn35	Zn	0.280309	1.645173	0.387784
Zn36	Zn	0.530309	1.895173	0.637784
O37	O	-0.369204	1.138176	0.085275
O38	O	-0.119204	1.388176	0.335275
O39	O	0.130796	1.638176	0.585275
O40	O	0.380796	1.888176	0.835275
C41	C	-0.218251	0.964874	0.000050
C42	C	0.031749	1.214874	0.250050
C43	C	0.281749	1.464874	0.500050
C44	C	0.531749	1.714874	0.750050
C45	C	-0.207404	0.858731	0.000044
C46	C	0.042596	1.108731	0.250044
C47	C	0.292596	1.358731	0.500044
C48	C	0.542596	1.608731	0.750044
C49	C	-0.264505	0.613274	0.000055
C50	C	-0.014505	0.863274	0.250055
C51	C	0.235495	1.113274	0.500055
C52	C	0.485495	1.363274	0.750055
C53	C	-0.187588	0.664397	0.000052
C54	C	0.062412	0.914397	0.250052
C55	C	0.312412	1.164397	0.500052
C56	C	0.562412	1.414397	0.750052
C57	C	-0.198616	0.772535	0.000048
C58	C	0.051384	1.022535	0.250048
C59	C	0.301384	1.272535	0.500048
C60	C	0.551384	1.522535	0.750048
C61	C	-0.253479	0.505126	0.000060
C62	C	-0.003479	0.755126	0.250060
C63	C	0.246521	1.005126	0.500060
C64	C	0.496521	1.255126	0.750060
C65	C	-0.400003	1.146625	0.000061
C66	C	-0.150003	1.396625	0.250061
C67	C	0.099997	1.646625	0.500061
C68	C	0.349997	1.896625	0.750061
C69	C	-0.506147	1.157472	0.000063
C70	C	-0.256147	1.407472	0.250063
C71	C	-0.006147	1.657472	0.500063
C72	C	0.243853	1.907472	0.750063
C73	C	-0.751603	1.100372	0.000051
C74	C	-0.501603	1.350372	0.250051
C75	C	-0.251603	1.600372	0.500051
C76	C	-0.001603	1.850372	0.750051
C77	C	-0.700480	1.177288	0.000057
C78	C	-0.450480	1.427288	0.250057
C79	C	-0.200480	1.677288	0.500057
C80	C	0.049520	1.927288	0.750057
C81	C	-0.592343	1.166260	0.000060
C82	C	-0.342343	1.416260	0.250060
C83	C	-0.092343	1.666260	0.500060
C84	C	0.157657	1.916260	0.750060
C85	C	-0.859750	1.111399	0.000048
C86	C	-0.609750	1.361399	0.250048
C87	C	-0.359750	1.611399	0.500048
C88	C	-0.109750	1.861399	0.750048
C89	C	-0.052086	1.131040	0.000053
C90	C	0.197914	1.381040	0.250053
C91	C	0.447914	1.631040	0.500053
C92	C	0.697914	1.881040	0.750053
C93	C	0.054058	1.120193	0.000045
C94	C	0.304058	1.370193	0.250045
C95	C	0.554058	1.620193	0.500045
C96	C	0.804058	1.870193	0.750045
C97	C	-0.233838	1.312790	0.000065
C98	C	0.016162	1.562790	0.250065
C99	C	0.266162	1.812790	0.500065
C100	C	0.516162	2.062790	0.750065
C101	C	-0.244685	1.418934	0.000064
C102	C	0.005315	1.668934	0.250064
C103	C	0.255315	1.918934	0.500064
C104	C	0.505315	2.168934	0.750064
N105	N	-0.241071	1.123843	0.265581
N106	N	0.008929	1.373843	0.515581
N107	N	0.258929	1.623843	0.765581
N108	N	0.508929	1.873843	1.015581
N109	N	-0.211012	1.153829	-0.265464
N110	N	0.038988	1.403829	-0.015464
N111	N	0.288988	1.653829	0.234536
N112	N	0.538988	1.903829	0.484536
C113	C	-0.252879	1.112077	0.474623
C114	C	-0.002879	1.362077	0.724623
C115	C	0.247121	1.612077	0.974623
C116	C	0.497121	1.862077	1.224623
C117	C	-0.199207	1.165592	0.525500
C118	C	0.050793	1.415592	0.775500
C119	C	0.300793	1.665592	1.025500
C120	C	0.550793	1.915592	1.275500
C121	C	-0.205777	1.159045	0.641819
C122	C	0.044223	1.409045	0.891819
C123	C	0.294223	1.659045	1.141819
C124	C	0.544223	1.909045	1.391819
C125	C	-0.246310	1.118622	0.358294
C126	C	0.003690	1.368622	0.608294
C127	C	0.253690	1.618622	0.858294
C128	C	0.503690	1.868622	1.108294
H129	H	-0.113451	0.626956	-0.000021
H130	H	0.136549	0.876956	0.249979
H131	H	0.386549	1.126956	0.499979
H132	H	0.636549	1.376956	0.749979
H133	H	-0.148324	1.216325	0.481700
H134	H	0.101676	1.466325	0.731700
H135	H	0.351676	1.716325	0.981700
H136	H	0.601676	1.966325	1.231700
Br137	Br	-0.689195	0.976819	0.000045
Br138	Br	-0.439195	1.226819	0.250045
Br139	Br	-0.189195	1.476819	0.500045
Br140	Br	0.060805	1.726819	0.750045
H141	H	-0.338632	0.650717	0.000053
H142	H	-0.088632	0.900717	0.250053
H143	H	0.161368	1.150717	0.500053
H144	H	0.411368	1.400717	0.750053
Br145	Br	-0.762886	1.300849	0.000063
Br146	Br	-0.512886	1.550849	0.250063
Br147	Br	-0.262886	1.800849	0.500063
Br148	Br	-0.012886	2.050849	0.750063
Br149	Br	-0.337686	1.027524	0.547620
Br150	Br	-0.087686	1.277524	0.797620
Br151	Br	0.162314	1.527524	1.047620
Br152	Br	0.412314	1.777524	1.297620
