data_functionalizedCrystal
_audit_creation_method	'MofGen! by Chris Wilmer'
_symmetry_space_group_name_H-M	'P1'
_symmetry_Int_Tables_number	1
_symmetry_cell_setting	triclinic
loop_
_symmetry_equiv_pos_as_xyz
  x,y,z
_cell_length_a	21.395361
_cell_length_b	21.395364
_cell_length_c	21.395356
_cell_angle_alpha	90.024334
_cell_angle_beta	89.969319
_cell_angle_gamma	89.952591
loop_
_atom_site_label
_atom_site_type_symbol
_atom_site_fract_x
_atom_site_fract_y
_atom_site_fract_z
Zn1	Zn	-0.249175	-0.957853	-0.354261
Zn2	Zn	0.250825	-0.457853	0.145739
Zn3	Zn	-0.353952	-0.957758	-0.249478
Zn4	Zn	0.146048	-0.457758	0.250522
Zn5	Zn	-0.249223	-0.853070	-0.249496
Zn6	Zn	0.250777	-0.353070	0.250504
Zn7	Zn	-0.353949	-0.853037	-0.354217
Zn8	Zn	0.146051	-0.353037	0.145783
O9	O	-0.301575	-0.905430	-0.301863
O10	O	0.198425	-0.405430	0.198137
O11	O	-0.263055	-1.045519	-0.340372
O12	O	0.236945	-0.545519	0.159628
O13	O	-0.340080	-0.943844	-0.161802
O14	O	0.159920	-0.443844	0.338198
O15	O	-0.161538	-0.867023	-0.263420
O16	O	0.338462	-0.367023	0.236580
O17	O	-0.340034	-1.045448	-0.263388
O18	O	0.159966	-0.545448	0.236612
O19	O	-0.161504	-0.944007	-0.340390
O20	O	0.338496	-0.444007	0.159610
O21	O	-0.263136	-0.866931	-0.161816
O22	O	0.236864	-0.366931	0.338184
O23	O	-0.263134	-0.765388	-0.263377
O24	O	0.236866	-0.265388	0.236623
O25	O	-0.340030	-0.866968	-0.441901
O26	O	0.159970	-0.366968	0.058099
O27	O	-0.340076	-0.765364	-0.340315
O28	O	0.159924	-0.265364	0.159685
O29	O	-0.263053	-0.943976	-0.441933
O30	O	0.236947	-0.443976	0.058067
O31	O	-0.441629	-0.943813	-0.263346
O32	O	0.058371	-0.443813	0.236654
O33	O	-0.441628	-0.866875	-0.340297
O34	O	0.058372	-0.366875	0.159703
C35	C	-0.301610	-0.742642	-0.301843
C36	C	0.198390	-0.242642	0.198157
C37	C	-0.301640	-0.673001	-0.301850
C38	C	0.198360	-0.173001	0.198150
C39	C	-0.261624	-0.640347	-0.341997
C40	C	0.238376	-0.140347	0.158003
C41	C	-0.261609	-0.574911	-0.341998
C42	C	0.238391	-0.074911	0.158002
C43	C	-0.301622	-0.542132	-0.301859
C44	C	0.198378	-0.042132	0.198141
C45	C	-0.341641	-0.574794	-0.261705
C46	C	0.158359	-0.074794	0.238295
C47	C	-0.341651	-0.640229	-0.261700
C48	C	0.158349	-0.140229	0.238300
C49	C	-0.358051	-0.438408	-0.296818
C50	C	0.141949	0.061592	0.203182
C51	C	-0.358043	-0.372975	-0.296827
C52	C	0.141957	0.127025	0.203173
C53	C	-0.301594	-0.340312	-0.301871
C54	C	0.198406	0.159688	0.198129
C55	C	-0.245151	-0.373089	-0.306919
C56	C	0.254849	0.126911	0.193081
C57	C	-0.245160	-0.438523	-0.306914
C58	C	0.254840	0.061477	0.193086
C59	C	-0.301617	-0.471180	-0.301860
C60	C	0.198383	0.028820	0.198140
C61	C	-0.261558	-0.236705	-0.342021
C62	C	0.238442	0.263295	0.157979
C63	C	-0.261543	-0.171268	-0.342019
C64	C	0.238457	0.328732	0.157981
C65	C	-0.341580	-0.171153	-0.261728
C66	C	0.158420	0.328847	0.238272
C67	C	-0.341590	-0.236588	-0.261728
C68	C	0.158410	0.263412	0.238272
C69	C	-0.301580	-0.269360	-0.301878
C70	C	0.198420	0.230640	0.198122
C71	C	-0.464362	-0.905347	-0.301828
C72	C	0.035638	-0.405347	0.198172
C73	C	-0.534004	-0.905369	-0.301834
C74	C	-0.034004	-0.405369	0.198166
C75	C	-0.566697	-0.945466	-0.261807
C76	C	-0.066697	-0.445466	0.238193
C77	C	-0.632132	-0.945495	-0.261821
C78	C	-0.132132	-0.445495	0.238179
C79	C	-0.664872	-0.905416	-0.301856
C80	C	-0.164872	-0.405416	0.198144
C81	C	-0.632171	-0.865316	-0.341891
C82	C	-0.132171	-0.365316	0.158109
C83	C	-0.566737	-0.865293	-0.341880
C84	C	-0.066737	-0.365293	0.158120
C85	C	-0.768603	-0.849001	-0.306765
C86	C	-0.268603	-0.349001	0.193235
C87	C	-0.834036	-0.849024	-0.306771
C88	C	-0.334036	-0.349024	0.193229
C89	C	-0.866693	-0.905489	-0.301892
C90	C	-0.366693	-0.405489	0.198108
C91	C	-0.833909	-0.961933	-0.296994
C92	C	-0.333909	-0.461933	0.203006
C93	C	-0.768474	-0.961910	-0.296983
C94	C	-0.268474	-0.461910	0.203017
C95	C	-0.735824	-0.905437	-0.301872
C96	C	-0.235824	-0.405437	0.198128
C97	C	-0.970338	-0.945621	-0.261878
C98	C	-0.470338	-0.445621	0.238122
C99	C	-1.035775	-0.945651	-0.261896
C100	C	-0.535775	-0.445651	0.238104
C101	C	-1.035812	-0.865467	-0.341963
C102	C	-0.535812	-0.365467	0.158037
C103	C	-0.970377	-0.865442	-0.341948
C104	C	-0.470377	-0.365442	0.158052
C105	C	-0.937644	-0.905518	-0.301902
C106	C	-0.437644	-0.405518	0.198098
C107	C	-0.138151	-0.905530	-0.301912
C108	C	0.361849	-0.405530	0.198088
C109	C	-0.068510	-0.905572	-0.301932
C110	C	0.431490	-0.405572	0.198068
C111	C	-0.301536	-0.905479	-0.465286
C112	C	0.198464	-0.405479	0.034714
C113	C	-0.301519	-0.905500	-0.534928
C114	C	0.198481	-0.405500	-0.034928
C115	C	-0.301547	-0.068853	-0.301880
C116	C	0.198453	0.431147	0.198120
C117	C	-0.301555	-0.138494	-0.301879
C118	C	0.198445	0.361506	0.198121
C119	C	-0.261450	-0.865462	-0.567638
C120	C	0.238550	-0.365462	-0.067638
C121	C	-0.261438	-0.865460	-0.633073
C122	C	0.238562	-0.365460	-0.133073
C123	C	-0.301490	-0.905507	-0.665796
C124	C	0.198510	-0.405507	-0.165796
C125	C	-0.341567	-0.945548	-0.633078
C126	C	0.158433	-0.445548	-0.133078
C127	C	-0.341582	-0.945544	-0.567644
C128	C	0.158418	-0.445544	-0.067644
C129	C	-0.306399	-0.961959	-0.769483
C130	C	0.193601	-0.461959	-0.269483
C131	C	-0.306380	-0.961963	-0.834916
C132	C	0.193620	-0.461963	-0.334916
C133	C	-0.301447	-0.905517	-0.867617
C134	C	0.198553	-0.405517	-0.367617
C135	C	-0.296521	-0.849065	-0.834877
C136	C	0.203479	-0.349065	-0.334877
C137	C	-0.296536	-0.849061	-0.769443
C138	C	0.203464	-0.349061	-0.269443
C139	C	-0.301478	-0.905515	-0.736748
C140	C	0.198522	-0.405515	-0.236748
C141	C	-0.261363	-0.865473	-0.971280
C142	C	0.238637	-0.365473	-0.471280
C143	C	-0.261356	-0.865470	-1.036716
C144	C	0.238644	-0.365470	-0.536716
C145	C	-0.341481	-0.945564	-1.036720
C146	C	0.158519	-0.445564	-0.536720
C147	C	-0.341491	-0.945561	-0.971284
C148	C	0.158509	-0.445561	-0.471284
C149	C	-0.301429	-0.905517	-0.938568
C150	C	0.198571	-0.405517	-0.438568
C151	C	-0.301568	-0.905417	-0.139075
C152	C	0.198432	-0.405417	0.360925
C153	C	-0.301408	-0.905517	-0.069435
C154	C	0.198592	-0.405517	0.430565
H155	H	-0.374220	-0.548102	-0.229023
H156	H	0.125780	-0.048102	0.270977
H157	H	-1.062393	-0.978306	-0.229303
H158	H	-0.562393	-0.478306	0.270697
H159	H	-0.228831	-0.832852	-0.541005
H160	H	0.271169	-0.332852	-0.041005
H161	H	-0.228953	-0.144682	-0.374710
H162	H	0.271047	0.355318	0.125290
C163	C	-0.385047	-0.135686	-0.218078
C164	C	0.114953	0.364314	0.281922
C165	C	-0.420086	-0.178293	-0.182909
C166	C	0.079914	0.321707	0.317091
C167	C	-0.460127	-0.145640	-0.142683
C168	C	0.039873	0.354360	0.357317
H169	H	-0.412430	-0.110141	-0.241926
H170	H	0.087570	0.389859	0.258074
H171	H	-0.361052	-0.110185	-0.190791
H172	H	0.138948	0.389815	0.309209
H173	H	-0.444079	-0.203783	-0.210193
H174	H	0.055921	0.296217	0.289807
H175	H	-0.392720	-0.203838	-0.159048
H176	H	0.107280	0.296162	0.340952
H177	H	-0.436132	-0.120139	-0.115395
H178	H	0.063868	0.379861	0.384605
H179	H	-0.487506	-0.120097	-0.166535
H180	H	0.012494	0.379903	0.333465
H181	H	-0.483902	-0.174544	-0.118811
H182	H	0.016098	0.325456	0.381189
H183	H	-0.310388	-1.007930	-0.861568
H184	H	0.189612	-0.507930	-0.361568
C185	C	-0.217781	-0.821973	-1.072120
C186	C	0.282219	-0.321973	-0.572120
C187	C	-0.182690	-0.786918	-1.029460
C188	C	0.317310	-0.286918	-0.529460
C189	C	-0.142536	-0.746848	-1.062052
C190	C	0.357464	-0.246848	-0.562052
H191	H	-0.241677	-0.794601	-1.097629
H192	H	0.258323	-0.294601	-0.597629
H193	H	-0.190440	-0.845947	-1.097652
H194	H	0.309560	-0.345947	-0.597652
H195	H	-0.210027	-0.762946	-1.003939
H196	H	0.289973	-0.262946	-0.503939
H197	H	-0.158782	-0.814274	-1.003950
H198	H	0.341218	-0.314274	-0.503950
H199	H	-0.115195	-0.770822	-1.087583
H200	H	0.384805	-0.270822	-0.587583
H201	H	-0.166437	-0.719480	-1.087560
H202	H	0.333563	-0.219480	-0.587560
H203	H	-0.118718	-0.723063	-1.033112
H204	H	0.381282	-0.223063	-0.533112
H205	H	-0.228743	-0.832866	-0.944641
H206	H	0.271257	-0.332866	-0.444641
C207	C	-0.311731	-1.023316	-0.734095
C208	C	0.188269	-0.523316	-0.234095
C209	C	-0.316020	-1.072755	-0.776770
C210	C	0.183980	-0.572755	-0.276770
C211	C	-0.320926	-1.129283	-0.744195
C212	C	0.179074	-0.629283	-0.244195
H213	H	-0.348054	-1.022568	-0.708556
H214	H	0.151946	-0.522568	-0.208556
H215	H	-0.275817	-1.028879	-0.708595
H216	H	0.224183	-0.528879	-0.208595
H217	H	-0.351931	-1.067193	-0.802259
H218	H	0.148069	-0.567193	-0.302259
H219	H	-0.279702	-1.073523	-0.802311
H220	H	0.220298	-0.573523	-0.302311
H221	H	-0.285012	-1.134846	-0.718695
H222	H	0.214988	-0.634846	-0.218695
H223	H	-0.357249	-1.128529	-0.718657
H224	H	0.142751	-0.628529	-0.218657
H225	H	-0.323831	-1.162835	-0.773145
H226	H	0.176169	-0.662835	-0.273145
H227	H	-0.374177	-0.978154	-0.659725
H228	H	0.125823	-0.478154	-0.159725
C229	C	-0.217861	-0.821966	-0.668485
C230	C	0.282139	-0.321966	-0.168485
C231	C	-0.182770	-0.786907	-0.625828
C232	C	0.317230	-0.286907	-0.125828
C233	C	-0.142615	-0.746842	-0.658423
C234	C	0.357385	-0.246842	-0.158423
H235	H	-0.241756	-0.794597	-0.693997
H236	H	0.258244	-0.294597	-0.193997
H237	H	-0.190520	-0.845944	-0.694013
H238	H	0.309480	-0.345944	-0.194013
H239	H	-0.210108	-0.762931	-0.600310
H240	H	0.289892	-0.262931	-0.100310
H241	H	-0.158863	-0.814260	-0.600314
H242	H	0.341137	-0.314260	-0.100314
H243	H	-0.115274	-0.770820	-0.683952
H244	H	0.384726	-0.270820	-0.183952
H245	H	-0.166514	-0.719477	-0.683935
H246	H	0.333486	-0.219477	-0.183935
H247	H	-0.118797	-0.723054	-0.629486
H248	H	0.381203	-0.223054	-0.129486
H249	H	-0.374090	-0.978172	-1.063362
H250	H	0.125910	-0.478172	-0.563362
C251	C	-0.732993	-1.023256	-0.291699
C252	C	-0.232993	-0.523256	0.208301
C253	C	-0.775591	-1.072716	-0.287444
C254	C	-0.275591	-0.572716	0.212556
C255	C	-0.742928	-1.129238	-0.282586
C256	C	-0.242928	-0.629238	0.217414
H257	H	-0.707489	-1.022542	-0.255379
H258	H	-0.207489	-0.522542	0.244621
H259	H	-0.707450	-1.028766	-0.327621
H260	H	-0.207450	-0.528766	0.172379
H261	H	-0.801123	-1.067207	-0.251525
H262	H	-0.301123	-0.567207	0.248475
H263	H	-0.801096	-1.073451	-0.323759
H264	H	-0.301096	-0.573451	0.176241
H265	H	-0.717385	-1.134748	-0.318508
H266	H	-0.217385	-0.634748	0.181492
H267	H	-0.717425	-1.128517	-0.246266
H268	H	-0.217425	-0.628517	0.253734
H269	H	-0.771825	-1.162804	-0.279704
H270	H	-0.271825	-0.662804	0.220296
H271	H	-0.374210	-0.978151	-0.541011
H272	H	0.125790	-0.478151	-0.041011
C273	C	-0.934845	-0.822005	-0.385480
C274	C	-0.434845	-0.322005	0.114520
C275	C	-0.897220	-0.857446	-0.425677
C276	C	-0.397220	-0.357446	0.074323
C277	C	-0.864487	-0.817454	-0.465796
C278	C	-0.364487	-0.317454	0.034204
H279	H	-0.909317	-0.794696	-0.361555
H280	H	-0.409317	-0.294696	0.138445
H281	H	-0.963694	-0.798150	-0.409362
H282	H	-0.463694	-0.298150	0.090638
H283	H	-0.868374	-0.881291	-0.401797
H284	H	-0.368374	-0.381291	0.098203
H285	H	-0.922732	-0.884754	-0.449616
H286	H	-0.422732	-0.384754	0.050384
H287	H	-0.893336	-0.793599	-0.489678
H288	H	-0.393336	-0.293599	0.010322
H289	H	-0.838963	-0.790147	-0.441866
H290	H	-0.338963	-0.290147	0.058134
H291	H	-0.838959	-0.841495	-0.493078
H292	H	-0.338959	-0.341495	0.006922
C293	C	-0.385013	-0.989108	-0.935879
C294	C	0.114987	-0.489108	-0.435879
C295	C	-0.420075	-1.024192	-0.978539
C296	C	0.079925	-0.524192	-0.478539
C297	C	-0.460171	-1.064321	-0.945947
C298	C	0.039829	-0.564321	-0.445947
H299	H	-0.412380	-0.965194	-0.910332
H300	H	0.087620	-0.465194	-0.410332
H301	H	-0.361057	-1.016454	-0.910385
H302	H	0.138943	-0.516454	-0.410385
H303	H	-0.444030	-0.996850	-1.004021
H304	H	0.055970	-0.496850	-0.504021
H305	H	-0.392725	-1.048119	-1.004087
H306	H	0.107275	-0.548119	-0.504087
H307	H	-0.436215	-1.091667	-0.920453
H308	H	0.063785	-0.591667	-0.420453
H309	H	-0.487533	-1.040402	-0.920401
H310	H	0.012467	-0.540402	-0.420401
H311	H	-0.483961	-1.088134	-0.974886
H312	H	0.016039	-0.588134	-0.474886
H313	H	-0.943686	-0.978255	-0.229272
H314	H	-0.443686	-0.478255	0.270728
C315	C	-0.218110	-0.675814	-0.385603
C316	C	0.281890	-0.175814	0.114397
C317	C	-0.183048	-0.633206	-0.420750
C318	C	0.316952	-0.133206	0.079250
C319	C	-0.142949	-0.665857	-0.460918
C320	C	0.357051	-0.165857	0.039082
H321	H	-0.242043	-0.701335	-0.412913
H322	H	0.257957	-0.201335	0.087087
H323	H	-0.190748	-0.701338	-0.361695
H324	H	0.309252	-0.201338	0.138305
H325	H	-0.210407	-0.607693	-0.444656
H326	H	0.289593	-0.107693	0.055344
H327	H	-0.159102	-0.607683	-0.393457
H328	H	0.340898	-0.107683	0.106543
H329	H	-0.115587	-0.691381	-0.437010
H330	H	0.384413	-0.191381	0.062990
H331	H	-0.166887	-0.691377	-0.488223
H332	H	0.333113	-0.191377	0.011777
H333	H	-0.119151	-0.636952	-0.484766
H334	H	0.380849	-0.136952	0.015234
H335	H	-0.374179	-0.263176	-0.229039
H336	H	0.125821	0.236824	0.270961
C337	C	-0.419383	-0.337504	-0.291307
C338	C	0.080617	0.162496	0.208693
C339	C	-0.468818	-0.380112	-0.286862
C340	C	0.031182	0.119888	0.213138
C341	C	-0.525334	-0.347461	-0.281767
C342	C	-0.025334	0.152539	0.218233
H343	H	-0.425027	-0.311989	-0.327188
H344	H	0.074973	0.188011	0.172812
H345	H	-0.418545	-0.311974	-0.254975
H346	H	0.081455	0.188026	0.245025
H347	H	-0.469657	-0.405632	-0.323190
H348	H	0.030343	0.094368	0.176810
H349	H	-0.463194	-0.405629	-0.250982
H350	H	0.036806	0.094371	0.249018
H351	H	-0.524496	-0.321932	-0.245434
H352	H	-0.024496	0.178068	0.254566
H353	H	-0.530972	-0.321947	-0.317649
H354	H	-0.030972	0.178053	0.182351
H355	H	-0.558881	-0.376366	-0.278744
H356	H	-0.058881	0.123634	0.221256
H357	H	-0.860723	-0.803063	-0.310753
H358	H	-0.360723	-0.303063	0.189247
C359	C	-0.218266	-0.539367	-0.385627
C360	C	0.281734	-0.039367	0.114373
C361	C	-0.253799	-0.501777	-0.425706
C362	C	0.246201	-0.001777	0.074294
C363	C	-0.213894	-0.469020	-0.465900
C364	C	0.286106	0.030980	0.034100
H365	H	-0.194424	-0.568183	-0.409598
H366	H	0.305576	-0.068183	0.090402
H367	H	-0.190941	-0.513817	-0.361732
H368	H	0.309059	-0.013817	0.138268
H369	H	-0.281113	-0.527324	-0.449599
H370	H	0.218887	-0.027324	0.050401
H371	H	-0.277640	-0.472948	-0.401753
H372	H	0.222360	0.027052	0.098247
H373	H	-0.186569	-0.443470	-0.442005
H374	H	0.313431	0.056530	0.057995
H375	H	-0.190054	-0.497841	-0.489866
H376	H	0.309946	0.002159	0.010134
H377	H	-0.237997	-0.443507	-0.493094
H378	H	0.262003	0.056493	0.006906
C379	C	-0.419305	-0.473950	-0.291443
C380	C	0.080695	0.026050	0.208557
C381	C	-0.427328	-0.511547	-0.344409
C382	C	0.072672	-0.011547	0.155591
C383	C	-0.483740	-0.544303	-0.339475
C384	C	0.016260	-0.044303	0.160525
H385	H	-0.452974	-0.445133	-0.288470
H386	H	0.047026	0.054867	0.211530
H387	H	-0.418454	-0.499496	-0.255143
H388	H	0.081546	0.000504	0.244857
H389	H	-0.428184	-0.486004	-0.380699
H390	H	0.071816	0.013996	0.119301
H391	H	-0.393673	-0.540375	-0.347392
H392	H	0.106327	-0.040375	0.152608
H393	H	-0.482889	-0.569849	-0.303175
H394	H	0.017111	-0.069849	0.196825
H395	H	-0.517405	-0.515482	-0.336501
H396	H	-0.017405	-0.015482	0.163499
H397	H	-0.489188	-0.569820	-0.375408
H398	H	0.010812	-0.069820	0.124592
H399	H	-0.742020	-0.803017	-0.310740
H400	H	-0.242020	-0.303017	0.189260
C401	C	-0.384999	-0.675719	-0.218036
C402	C	0.115001	-0.175719	0.281964
C403	C	-0.349476	-0.713291	-0.177932
C404	C	0.150524	-0.213291	0.322068
C405	C	-0.389389	-0.745988	-0.137696
C406	C	0.110611	-0.245988	0.362304
H407	H	-0.412346	-0.701279	-0.241881
H408	H	0.087654	-0.201279	0.258119
H409	H	-0.408816	-0.646848	-0.194092
H410	H	0.091184	-0.146848	0.305908
H411	H	-0.325670	-0.742159	-0.201873
H412	H	0.174330	-0.242159	0.298127
H413	H	-0.322131	-0.687746	-0.154074
H414	H	0.177869	-0.187746	0.345926
H415	H	-0.413206	-0.717117	-0.113752
H416	H	0.086794	-0.217117	0.386248
H417	H	-0.416734	-0.771545	-0.161546
H418	H	0.083266	-0.271545	0.338454
H419	H	-0.365292	-0.771480	-0.110477
H420	H	0.134708	-0.271480	0.389523
H421	H	-0.199203	-0.465208	-0.311022
H422	H	0.300797	0.034792	0.188978
H423	H	-0.199185	-0.346496	-0.311026
H424	H	0.300815	0.153504	0.188974
H425	H	-0.292526	-0.803096	-0.742789
H426	H	0.207474	-0.303096	-0.242789
H427	H	-0.228976	-0.263389	-0.374710
H428	H	0.271024	0.236611	0.125290
H429	H	-0.540048	-0.978099	-0.229201
H430	H	-0.040048	-0.478099	0.270799
H431	H	-0.860496	-1.007913	-0.293022
H432	H	-0.360496	-0.507913	0.206978
C433	C	-0.667566	-0.989122	-0.218392
C434	C	-0.167566	-0.489122	0.281608
C435	C	-0.651569	-1.051108	-0.232063
C436	C	-0.151569	-0.551108	0.267937
C437	C	-0.684193	-1.091309	-0.192064
C438	C	-0.184193	-0.591309	0.307936
H439	H	-0.711232	-0.983472	-0.224099
H440	H	-0.211232	-0.483472	0.275901
H441	H	-0.656871	-0.980000	-0.176275
H442	H	-0.156871	-0.480000	0.323725
H443	H	-0.662268	-1.060227	-0.274170
H444	H	-0.162268	-0.560227	0.225830
H445	H	-0.607909	-1.056777	-0.226353
H446	H	-0.107909	-0.556777	0.273647
H447	H	-0.673499	-1.082187	-0.149946
H448	H	-0.173499	-0.582187	0.350054
H449	H	-0.727858	-1.085653	-0.197774
H450	H	-0.227858	-0.585653	0.302226
H451	H	-0.673340	-1.133370	-0.201330
H452	H	-0.173340	-0.633370	0.298670
H453	H	-1.062468	-0.832837	-0.374563
H454	H	-0.562468	-0.332837	0.125437
H455	H	-0.658832	-0.832685	-0.374489
H456	H	-0.158832	-0.332685	0.125511
C457	C	-0.531350	-0.821686	-0.385362
C458	C	-0.031350	-0.321686	0.114638
C459	C	-0.574024	-0.786582	-0.420419
C460	C	-0.074024	-0.286582	0.079581
C461	C	-0.541448	-0.746398	-0.460475
C462	C	-0.041448	-0.246398	0.039525
H463	H	-0.505772	-0.845560	-0.412734
H464	H	-0.005772	-0.345560	0.087266
H465	H	-0.505889	-0.794354	-0.361378
H466	H	-0.005889	-0.294354	0.138622
H467	H	-0.599474	-0.813910	-0.444402
H468	H	-0.099474	-0.313910	0.055598
H469	H	-0.599603	-0.762695	-0.393065
H470	H	-0.099603	-0.262695	0.106935
H471	H	-0.515987	-0.719067	-0.436490
H472	H	-0.015987	-0.219067	0.063510
H473	H	-0.515871	-0.770278	-0.487842
H474	H	-0.015871	-0.270278	0.012158
H475	H	-0.570397	-0.722571	-0.484262
H476	H	-0.070397	-0.222571	0.015738
H477	H	-0.292500	-0.803101	-0.861501
H478	H	0.207500	-0.303101	-0.361501
