data_functionalizedCrystal
_audit_creation_method	'MofGen! by Chris Wilmer'
_symmetry_space_group_name_H-M	'P1'
_symmetry_Int_Tables_number	1
_symmetry_cell_setting	triclinic
loop_
_symmetry_equiv_pos_as_xyz
  x,y,z
_cell_length_a	19.288857
_cell_length_b	14.853569
_cell_length_c	17.766277
_cell_angle_alpha	89.992614
_cell_angle_beta	89.991474
_cell_angle_gamma	83.384337
loop_
_atom_site_label
_atom_site_type_symbol
_atom_site_fract_x
_atom_site_fract_y
_atom_site_fract_z
O1	O	0.090691	1.195851	-0.062563
O2	O	0.101492	0.933330	-0.062573
O3	O	-0.005014	1.072180	-0.062559
O4	O	0.197196	1.057001	-0.062578
O5	O	-0.005019	1.072155	0.062630
O6	O	0.101487	0.933306	0.062616
O7	O	0.090685	1.195827	0.062625
Cu8	Cu	0.096085	1.064564	0.074051
Cu9	Cu	0.096092	1.064593	-0.073999
O10	O	0.197191	1.056977	0.062611
C11	C	0.101000	0.899732	0.000020
C12	C	0.099533	0.799657	0.000017
C13	C	0.035577	0.763646	0.000020
C14	C	0.162109	0.741633	0.000017
C15	C	0.160733	0.647606	0.000018
C16	C	0.096778	0.611596	0.000021
C17	C	0.034199	0.669611	0.000023
C18	C	0.223311	0.589584	0.000023
C19	C	0.221937	0.495551	0.000025
C20	C	0.157981	0.459539	0.000023
C21	C	0.095399	0.517561	0.000024
C22	C	0.031444	0.481550	0.000028
C23	C	-0.031138	0.539571	0.000024
C24	C	-0.029757	0.633599	0.000021
C25	C	0.156600	0.365511	0.000025
C26	C	0.030066	0.387516	0.000031
C27	C	-0.030895	1.071680	0.000036
C28	C	-0.108003	1.070218	0.000038
C29	C	-0.144213	1.069548	-0.068202
C30	C	-0.216664	1.068161	-0.068208
C31	C	-0.252904	1.067462	0.000031
C32	C	-0.216685	1.068126	0.068280
C33	C	-0.144234	1.069504	0.068284
C34	C	-0.372966	1.118073	0.052308
C35	C	-0.445416	1.116701	0.052301
C36	C	-0.476364	1.063207	0.000022
C37	C	-0.434855	1.011098	-0.052263
C38	C	-0.362405	1.012477	-0.052259
C39	C	-0.331464	1.065967	0.000034
C40	C	-0.591133	1.061033	-0.068229
C41	C	-0.663585	1.059640	-0.068232
C42	C	-0.663605	1.059614	0.068258
C43	C	-0.591154	1.060998	0.068259
C44	C	-0.554923	1.061711	0.000013
C45	C	0.223072	1.057476	0.000014
C46	C	0.300181	1.058939	0.000007
C47	C	0.091177	1.229425	0.000030
C48	C	0.092645	1.329500	0.000029
N49	N	0.096080	1.064550	0.178181
N50	N	0.096091	1.064614	-0.178129
C51	C	0.048943	1.126053	0.217574
C52	C	0.048940	1.126058	0.296376
C53	C	0.096086	1.064569	0.335782
C54	C	0.143227	1.003055	0.296379
C55	C	0.143224	1.003046	0.217579
C56	C	0.159333	1.052498	0.460614
C57	C	0.159337	1.052514	0.539413
C58	C	0.096094	1.064593	0.578828
C59	C	0.032846	1.076677	0.539435
C60	C	0.032843	1.076667	0.460635
C61	C	0.096094	1.064572	0.421228
C62	C	0.048949	1.126105	0.703667
C63	C	0.048945	1.126104	0.782471
C64	C	0.143239	1.003106	0.782472
C65	C	0.143237	1.003102	0.703670
C66	C	0.096093	1.064607	0.664273
H67	H	-0.022015	0.358204	0.000029
H68	H	-0.114718	1.070127	-0.123773
H69	H	0.181624	0.953037	0.814555
H70	H	0.010560	1.176183	0.671588
H71	H	-0.693110	1.059037	0.123819
H72	H	-0.246195	1.067554	0.123840
H73	H	0.272895	0.448318	0.000027
H74	H	-0.083210	0.510239	0.000021
H75	H	-0.015375	0.810890	0.000014
H76	H	-0.246151	1.067611	-0.123779
H77	H	-0.561672	1.061550	0.123828
H78	H	0.207553	0.318275	0.000035
H79	H	0.010557	1.176184	0.814545
H80	H	-0.080708	0.680847	0.000020
H81	H	-0.479208	1.159134	0.094872
H82	H	0.275379	0.618911	0.000026
H83	H	-0.347775	1.161633	0.094885
H84	H	0.214179	0.770959	0.000019
H85	H	-0.328611	0.970046	-0.094830
H86	H	0.181610	0.952962	0.185504
H87	H	-0.460051	0.967539	-0.094833
H88	H	0.181613	0.952989	0.328467
H89	H	-0.114752	1.070045	0.123855
H90	H	-0.561632	1.061609	-0.123799
H91	H	0.010554	1.176131	0.185499
H92	H	0.010553	1.176142	0.328456
H93	H	-0.693065	1.059091	-0.123804
H94	H	-0.018656	1.086503	0.428565
H95	H	-0.018652	1.086513	0.571526
H96	H	0.181624	0.953025	0.671594
H97	H	0.210838	1.042681	0.571480
H98	H	0.210836	1.042645	0.428528
