data_functionalizedCrystal
_audit_creation_method	'MofGen! by Chris Wilmer'
_symmetry_space_group_name_H-M	'P1'
_symmetry_Int_Tables_number	1
_symmetry_cell_setting	triclinic
loop_
_symmetry_equiv_pos_as_xyz
  x,y,z
_cell_length_a	16.120490
_cell_length_b	19.120786
_cell_length_c	19.121324
_cell_angle_alpha	95.009372
_cell_angle_beta	90.596294
_cell_angle_gamma	89.433653
loop_
_atom_site_label
_atom_site_type_symbol
_atom_site_fract_x
_atom_site_fract_y
_atom_site_fract_z
Zn1	Zn	1.236524	-0.313990	0.436445
Zn2	Zn	1.736524	0.186010	0.936445
Zn3	Zn	1.236423	-0.436676	0.313752
Zn4	Zn	1.736423	0.063324	0.813752
Zn5	Zn	1.103366	-0.313556	0.313349
Zn6	Zn	1.603366	0.186444	0.813349
Zn7	Zn	1.091967	-0.425688	0.425471
Zn8	Zn	1.591967	0.074312	0.925471
O9	O	1.167070	-0.372478	0.372254
O10	O	1.667070	0.127522	0.872254
O11	O	1.352694	-0.335044	0.424931
O12	O	1.852694	0.164956	0.924931
O13	O	1.223501	-0.424761	0.215427
O14	O	1.723501	0.075239	0.715427
O15	O	1.125843	-0.215341	0.334101
O16	O	1.625843	0.284659	0.834101
O17	O	1.352619	-0.425182	0.334789
O18	O	1.852619	0.074818	0.834789
O19	O	1.223673	-0.215659	0.424540
O20	O	1.723673	0.284341	0.924540
O21	O	1.125745	-0.334305	0.215131
O22	O	1.625745	0.165695	0.715131
O23	O	0.985671	-0.323650	0.323461
O24	O	1.485671	0.176350	0.823461
O25	O	1.106414	-0.406454	0.525198
O26	O	1.606414	0.093546	1.025198
O27	O	0.977296	-0.406034	0.405836
O28	O	1.477296	0.093966	0.905836
O29	O	1.212620	-0.324390	0.533260
O30	O	1.712620	0.175610	1.033260
O31	O	1.212448	-0.533492	0.324148
O32	O	1.712448	-0.033492	0.824148
O33	O	1.106316	-0.525419	0.406227
O34	O	1.606316	-0.025419	0.906227
C35	C	0.951359	-0.363603	0.363414
C36	C	1.451359	0.136397	0.863414
C37	C	0.859075	-0.359823	0.359649
C38	C	1.359075	0.140177	0.859649
C39	C	1.158156	-0.554936	0.364057
C40	C	1.658156	-0.054936	0.864057
C41	C	1.154417	-0.632995	0.360576
C42	C	1.654417	-0.132995	0.860576
C43	C	0.644870	-0.392082	0.391789
C44	C	1.144870	0.107918	0.891789
C45	C	0.690116	-0.352927	0.352772
C46	C	1.190116	0.147073	0.852772
C47	C	0.784133	-0.356765	0.356599
C48	C	1.284133	0.143235	0.856599
C49	C	0.550844	-0.388245	0.387963
C50	C	1.050844	0.111755	0.887963
C51	C	1.203555	-0.669770	0.406063
C52	C	1.703555	-0.169770	0.906063
C53	C	1.200039	-0.743114	0.402794
C54	C	1.700039	-0.243114	0.902794
C55	C	1.147389	-0.779683	0.354035
C56	C	1.647389	-0.279683	0.854035
C57	C	1.098246	-0.742903	0.308546
C58	C	1.598246	-0.242903	0.808546
C59	C	1.101758	-0.669560	0.311819
C60	C	1.601758	-0.169560	0.811819
C61	C	1.134233	-1.001127	0.341798
C62	C	1.634233	-0.501127	0.841798
C63	C	1.130726	-1.074475	0.338527
C64	C	1.630726	-0.574475	0.838527
C65	C	1.232518	-1.074681	0.432776
C66	C	1.732518	-0.574681	0.932776
C67	C	1.236030	-1.001337	0.436042
C68	C	1.736030	-0.501337	0.936042
C69	C	1.186884	-0.964563	0.390556
C70	C	1.686884	-0.464563	0.890556
C71	C	1.143795	-0.854653	0.350690
C72	C	1.643795	-0.354653	0.850690
C73	C	1.190473	-0.889594	0.393904
C74	C	1.690473	-0.389594	0.893904
C75	C	1.383624	-0.381387	0.381129
C76	C	1.883624	0.118613	0.881129
C77	C	1.475906	-0.385184	0.384911
C78	C	1.975906	0.114816	0.884911
C79	C	1.158257	-0.364245	0.555422
C80	C	1.658257	0.135755	1.055422
C81	C	1.154501	-0.360736	0.633477
C82	C	1.654501	0.139264	1.133477
C83	C	1.176041	-0.189306	0.380500
C84	C	1.676041	0.310694	0.880500
C85	C	1.179864	-0.111250	0.384014
C86	C	1.679864	0.388750	0.884014
C87	C	1.175899	-0.380630	0.189803
C88	C	1.675899	0.119370	0.689803
C89	C	1.179825	-0.383947	0.111763
C90	C	1.679825	0.116053	0.611763
C91	C	1.203629	-0.406181	0.670305
C92	C	1.703629	0.093819	1.170305
C93	C	1.200101	-0.402876	0.743647
C94	C	1.700101	0.097124	1.243647
C95	C	1.147439	-0.354129	0.780159
C96	C	1.647439	0.145871	1.280159
C97	C	1.098309	-0.308679	0.743327
C98	C	1.598309	0.191321	1.243327
C99	C	1.101843	-0.311981	0.669987
C100	C	1.601843	0.188019	1.169987
C101	C	1.134229	-0.341799	1.001591
C102	C	1.634229	0.158201	1.501591
C103	C	1.130697	-0.338502	1.074936
C104	C	1.630697	0.161498	1.574936
C105	C	1.232490	-0.432698	1.075251
C106	C	1.732490	0.067302	1.575251
C107	C	1.236015	-0.435999	1.001909
C108	C	1.736015	0.064001	1.501909
C109	C	1.186889	-0.390547	0.965083
C110	C	1.686889	0.109453	1.465083
C111	C	1.143830	-0.350751	0.855126
C112	C	1.643830	0.149249	1.355126
C113	C	1.190503	-0.393922	0.890118
C114	C	1.690503	0.106078	1.390118
H115	H	0.658242	-0.316523	0.316494
H116	H	1.158242	0.183477	0.816494
Cl117	Cl	1.269751	-0.623805	0.467360
Cl118	Cl	1.769751	-0.123805	0.967360
Cl119	Cl	1.261803	-0.789341	0.459988
Cl120	Cl	1.761803	-0.289341	0.959988
Cl121	Cl	1.077626	-0.289472	0.901033
Cl122	Cl	1.577626	0.210528	1.401033
Cl123	Cl	1.072466	-0.284661	0.955305
Cl124	Cl	1.572466	0.215339	1.455305
Cl125	Cl	0.694078	-0.448291	0.447788
Cl126	Cl	1.194078	0.051709	0.947788
H127	H	1.278902	-0.971564	0.475745
H128	H	1.778902	-0.471564	0.975745
Cl129	Cl	1.256708	-0.455199	0.844216
Cl130	Cl	1.756708	0.044801	1.344216
H131	H	1.272529	-1.104630	0.469809
H132	H	1.772529	-0.604630	0.969809
Cl133	Cl	1.064536	-1.120447	0.277223
Cl134	Cl	1.564536	-0.620447	0.777223
H135	H	1.055435	-0.268985	0.773061
H136	H	1.555435	0.231015	1.273061
H137	H	1.094218	-0.971192	0.304761
H138	H	1.594218	-0.471192	0.804761
H139	H	1.100930	-0.884435	0.310989
H140	H	1.600930	-0.384435	0.810989
H141	H	1.233338	-0.859818	0.433606
H142	H	1.733338	-0.359818	0.933606
H143	H	1.055373	-0.772683	0.268848
H144	H	1.555373	-0.272683	0.768848
Cl145	Cl	1.039981	-0.623329	0.254635
Cl146	Cl	1.539981	-0.123329	0.754635
Cl147	Cl	1.040082	-0.254846	0.623689
Cl148	Cl	1.540082	0.245154	1.123689
Cl149	Cl	1.269832	-0.467470	0.624410
Cl150	Cl	1.769832	0.032530	1.124410
H151	H	1.240107	-0.439882	0.773628
H152	H	1.740107	0.060118	1.273628
Cl153	Cl	1.302224	-0.497282	0.956013
Cl154	Cl	1.802224	0.002718	1.456013
Cl155	Cl	1.294248	-0.489832	1.121551
Cl156	Cl	1.794248	0.010168	1.621551
H157	H	1.087816	-0.298801	1.104663
H158	H	1.587816	0.201199	1.604663
