data_functionalizedCrystal
_audit_creation_method	'MofGen! by Chris Wilmer'
_symmetry_space_group_name_H-M	'P1'
_symmetry_Int_Tables_number	1
_symmetry_cell_setting	triclinic
loop_
_symmetry_equiv_pos_as_xyz
  x,y,z
_cell_length_a	16.956984
_cell_length_b	11.026607
_cell_length_c	15.455313
_cell_angle_alpha	93.255562
_cell_angle_beta	87.518126
_cell_angle_gamma	92.319718
loop_
_atom_site_label
_atom_site_type_symbol
_atom_site_fract_x
_atom_site_fract_y
_atom_site_fract_z
O1	O	1.067849	0.043987	-0.072134
O2	O	0.841720	0.085987	-0.072134
O3	O	0.936043	-0.109786	-0.072131
O4	O	0.973526	0.239760	-0.072137
O5	O	0.930643	-0.098634	0.072131
O6	O	0.836320	0.097139	0.072128
O7	O	1.062449	0.055139	0.072128
Cu8	Cu	0.948891	0.077157	0.085300
Cu9	Cu	0.955277	0.063969	-0.085307
O10	O	0.968126	0.250912	0.072125
C11	C	0.809621	0.093714	-0.000003
C12	C	0.722018	0.100108	-0.000004
C13	C	0.674587	-0.006802	-0.000000
C14	C	0.592275	-0.000787	-0.000006
C15	C	0.557396	0.112139	-0.000010
C16	C	0.604833	0.219057	-0.000016
C17	C	0.687143	0.213040	-0.000016
C18	C	0.311898	0.141919	-0.000017
C19	C	0.229582	0.147927	-0.000014
C20	C	0.217030	-0.071918	-0.000006
C21	C	0.299342	-0.077924	-0.000001
C22	C	0.346772	0.028993	-0.000011
N23	N	0.473260	0.118290	-0.000014
N24	N	0.430906	0.022841	-0.000014
C25	C	0.926428	-0.148727	-0.000001
C26	C	0.905815	-0.281373	-0.000004
C27	C	0.962732	-0.360889	-0.000006
C28	C	0.941428	-0.497986	-0.000009
C29	C	1.094548	0.047412	-0.000005
C30	C	1.182151	0.041017	-0.000011
C31	C	0.977741	0.289853	-0.000007
C32	C	0.998354	0.422499	-0.000010
N33	N	0.944405	0.086432	0.205295
N34	N	0.959768	0.054684	-0.205302
C35	C	0.984499	0.003287	0.250691
C36	C	0.981115	0.010312	0.341499
C37	C	0.937642	0.100487	0.386909
C38	C	0.897543	0.183635	0.341507
C39	C	0.900923	0.176605	0.250701
C40	C	0.923049	0.130802	0.658490
C41	C	0.919675	0.137828	0.749303
C42	C	1.003246	-0.035497	0.749288
C43	C	1.006625	-0.042516	0.658480
C44	C	0.966523	0.040629	0.613086
N45	N	0.934184	0.107671	0.479729
N46	N	0.969977	0.033438	0.520267
H47	H	0.178404	-0.158964	-0.000007
Cl48	Cl	1.062320	-0.309302	-0.000011
H49	H	1.062862	-0.544093	-0.000075
Cl50	Cl	0.850513	0.281130	0.193633
Cl51	Cl	0.185735	0.289903	-0.000010
H52	H	1.042025	-0.115943	0.621508
H53	H	0.884272	0.211265	0.786272
H54	H	0.702979	-0.098759	0.000006
H55	H	1.019903	-0.070138	0.213723
Cl56	Cl	0.371514	0.276330	-0.000029
H57	H	0.890398	0.198503	0.621537
Cl58	Cl	0.532652	-0.135197	-0.000027
Cl59	Cl	0.806227	-0.332962	-0.000013
H60	H	1.013762	-0.057391	0.378459
H61	H	0.327735	-0.169880	0.000006
Cl62	Cl	0.841837	-0.549569	-0.000018
H63	H	0.576428	0.311003	-0.000025
H64	H	0.862142	0.257054	0.378486
H65	H	0.725761	0.300098	-0.000015
Cl66	Cl	1.053653	-0.140020	0.806358
