data_functionalizedCrystal
_audit_creation_method	'MofGen! by Chris Wilmer'
_symmetry_space_group_name_H-M	'P1'
_symmetry_Int_Tables_number	1
_symmetry_cell_setting	triclinic
loop_
_symmetry_equiv_pos_as_xyz
  x,y,z
_cell_length_a	21.395364
_cell_length_b	18.050589
_cell_length_c	21.395355
_cell_angle_alpha	90.012701
_cell_angle_beta	89.975484
_cell_angle_gamma	89.969537
loop_
_atom_site_label
_atom_site_type_symbol
_atom_site_fract_x
_atom_site_fract_y
_atom_site_fract_z
Zn1	Zn	0.957842	0.295829	-0.354286
Zn2	Zn	1.457842	0.795829	0.145714
Zn3	Zn	0.957737	0.420001	-0.249519
Zn4	Zn	1.457737	0.920001	0.250481
Zn5	Zn	0.853057	0.295820	-0.249523
Zn6	Zn	1.353057	0.795820	0.250477
Zn7	Zn	0.853019	0.419973	-0.354259
Zn8	Zn	1.353019	0.919973	0.145741
O9	O	0.905413	0.357906	-0.301897
O10	O	1.405413	0.857906	0.198103
O11	O	1.045506	0.312317	-0.340398
O12	O	1.545506	0.812317	0.159602
O13	O	0.943823	0.403536	-0.161842
O14	O	1.443823	0.903536	0.338158
O15	O	0.867016	0.191897	-0.263433
O16	O	1.367016	0.691897	0.236567
O17	O	1.045429	0.403545	-0.263426
O18	O	1.545429	0.903545	0.236574
O19	O	0.944001	0.191904	-0.340402
O20	O	1.444001	0.691904	0.159598
O21	O	0.866915	0.312301	-0.161844
O22	O	1.366915	0.812301	0.338156
O23	O	0.765374	0.312274	-0.263407
O24	O	1.265374	0.812274	0.236593
O25	O	0.866951	0.403497	-0.441941
O26	O	1.366951	0.903497	0.058059
O27	O	0.765346	0.403488	-0.340356
O28	O	1.265346	0.903488	0.159644
O29	O	0.943965	0.312289	-0.441960
O30	O	1.443965	0.812289	0.058040
O31	O	0.943786	0.523922	-0.263401
O32	O	1.443786	1.023922	0.236599
O33	O	0.866850	0.523901	-0.340353
O34	O	1.366850	1.023901	0.159647
C35	C	0.742626	0.357878	-0.301879
C36	C	1.242626	0.857878	0.198121
C37	C	0.672985	0.357883	-0.301887
C38	C	1.172985	0.857883	0.198113
C39	C	0.171228	0.310515	-0.342050
C40	C	0.671228	0.810515	0.157950
C41	C	0.236663	0.310510	-0.342050
C42	C	0.736663	0.810510	0.157950
C43	C	0.269346	0.357929	-0.301911
C44	C	0.769346	0.857929	0.198089
C45	C	0.236588	0.405370	-0.261780
C46	C	0.736588	0.905370	0.238220
C47	C	0.171154	0.405379	-0.261786
C48	C	0.671154	0.905379	0.238214
C49	C	0.372982	0.363679	-0.245444
C50	C	0.872982	0.863679	0.254556
C51	C	0.438415	0.363665	-0.245438
C52	C	0.938415	0.863665	0.254562
C53	C	0.471167	0.357904	-0.301894
C54	C	0.971167	0.857904	0.198106
C55	C	0.438478	0.352142	-0.358358
C56	C	0.938478	0.852142	0.141642
C57	C	0.373043	0.352152	-0.358364
C58	C	0.873043	0.852152	0.141636
C59	C	0.340299	0.357924	-0.301901
C60	C	0.840299	0.857924	0.198099
C61	C	0.574869	0.310463	-0.342025
C62	C	1.074869	0.810463	0.157975
C63	C	0.640306	0.310463	-0.342026
C64	C	1.140306	0.810463	0.157974
C65	C	0.640230	0.405319	-0.261750
C66	C	1.140230	0.905319	0.238250
C67	C	0.574795	0.405323	-0.261755
C68	C	1.074795	0.905323	0.238245
C69	C	0.542118	0.357892	-0.301891
C70	C	1.042118	0.857892	0.198109
C71	C	0.905319	0.550858	-0.301887
C72	C	1.405319	1.050858	0.198113
C73	C	0.905336	0.633404	-0.301904
C74	C	1.405336	1.133404	0.198096
C75	C	0.863521	0.832870	-0.343736
C76	C	1.363521	1.332870	0.156264
C77	C	0.848238	0.882297	-0.286563
C78	C	1.348238	1.382297	0.213437
C79	C	0.905384	0.784534	-0.301912
C80	C	1.405384	1.284534	0.198088
C81	C	0.920683	0.882190	-0.359092
C82	C	1.420683	1.382190	0.140908
C83	C	0.905428	0.930519	-0.301926
C84	C	1.405428	1.430519	0.198074
C85	C	0.890071	0.832873	-0.244709
C86	C	1.390071	1.332873	0.255291
C87	C	0.962543	0.832762	-0.317277
C88	C	1.462543	1.332762	0.182723
C89	C	0.947282	0.882166	-0.260064
C90	C	1.447282	1.382166	0.239936
C91	C	0.905356	0.700436	-0.301906
C92	C	1.405356	1.200436	0.198094
C93	C	0.905455	1.014616	-0.301926
C94	C	1.405455	1.514616	0.198074
C95	C	1.068837	0.357935	-0.301915
C96	C	1.568837	0.857935	0.198085
C97	C	1.138478	0.357948	-0.301922
C98	C	1.638478	0.857948	0.198078
C99	C	0.905501	1.164200	-0.301921
C100	C	1.405501	1.664200	0.198079
C101	C	0.905477	1.081655	-0.301934
C102	C	1.405477	1.581655	0.198066
C103	C	0.905465	0.357891	-0.465320
C104	C	1.405465	0.857891	0.034680
C105	C	0.905488	0.357885	-0.534962
C106	C	1.405488	0.857885	-0.034962
C107	C	0.945587	0.310391	-0.567686
C108	C	1.445587	0.810391	-0.067686
C109	C	0.945586	0.310359	-0.633121
C110	C	1.445586	0.810359	-0.133121
C111	C	0.905492	0.357834	-0.665830
C112	C	1.405492	0.857834	-0.165830
C113	C	0.865386	0.405331	-0.633098
C114	C	1.365386	0.905331	-0.133098
C115	C	0.865383	0.405356	-0.567664
C116	C	1.365383	0.905356	-0.067664
C117	C	0.900513	0.424703	-0.769501
C118	C	1.400513	0.924703	-0.269501
C119	C	0.900519	0.424679	-0.834934
C120	C	1.400519	0.924679	-0.334934
C121	C	0.905496	0.357755	-0.867651
C122	C	1.405496	0.857755	-0.367651
C123	C	0.910480	0.290854	-0.834926
C124	C	1.410480	0.790854	-0.334926
C125	C	0.910477	0.290880	-0.769492
C126	C	1.410477	0.790880	-0.269492
C127	C	0.905490	0.357811	-0.736782
C128	C	1.405490	0.857811	-0.236782
C129	C	0.945597	0.310223	-0.971328
C130	C	1.445597	0.810223	-0.471328
C131	C	0.945591	0.310190	-1.036764
C132	C	1.445591	0.810190	-0.536764
C133	C	0.865395	0.405169	-1.036740
C134	C	1.365395	0.905169	-0.536740
C135	C	0.865397	0.405195	-0.971304
C136	C	1.365397	0.905195	-0.471304
C137	C	0.905501	0.357723	-0.938602
C138	C	1.405501	0.857723	-0.438602
C139	C	0.905398	0.357867	-0.139109
C140	C	1.405398	0.857867	0.360891
C141	C	0.905497	0.357665	-0.069468
C142	C	1.405497	0.857665	0.430532
H143	H	0.465143	0.347447	-0.404330
H144	H	0.965143	0.847447	0.095670
H145	H	0.914533	0.236407	-0.742851
H146	H	1.414533	0.736407	-0.242851
H147	H	0.666970	0.271840	-0.374707
H148	H	1.166970	0.771840	0.125293
H149	H	0.933606	0.903852	-0.407444
H150	H	1.433606	1.403852	0.092556
H151	H	0.914533	0.236359	-0.861563
H152	H	1.414533	0.736359	-0.361563
H153	H	0.144627	0.271896	-0.374735
H154	H	0.644627	0.771896	0.125265
H155	H	0.982703	0.903675	-0.224660
H156	H	1.482703	1.403675	0.275340
H157	H	0.263333	0.271882	-0.374726
H158	H	0.763333	0.771882	0.125274
H159	H	0.548129	0.443945	-0.229076
H160	H	1.048129	0.943945	0.270924
H161	H	0.896292	0.479185	-0.742869
H162	H	1.396292	0.979185	-0.242869
H163	H	0.144490	0.444006	-0.229108
H164	H	0.644490	0.944006	0.270892
H165	H	0.832747	0.443874	-0.944660
H166	H	1.332747	0.943874	-0.444660
H167	H	0.832740	0.443983	-0.659733
H168	H	1.332740	0.943983	-0.159733
H169	H	0.828073	0.811224	-0.379055
H170	H	1.328073	1.311224	0.120945
H171	H	0.799921	0.904071	-0.273580
H172	H	1.299921	1.404071	0.226420
H173	H	0.465026	0.368352	-0.199460
H174	H	0.965026	0.868352	0.300540
H175	H	0.832743	0.443816	-1.063370
H176	H	1.332743	0.943816	-0.563370
H177	H	0.548263	0.271841	-0.374706
H178	H	1.048263	0.771841	0.125294
H179	H	1.010848	0.810990	-0.330287
H180	H	1.510848	1.310990	0.169713
H181	H	0.877092	0.811301	-0.196345
H182	H	1.377092	1.311301	0.303655
H183	H	0.346321	0.368374	-0.199468
H184	H	0.846321	0.868374	0.300532
H185	H	0.978244	0.271510	-1.063407
H186	H	1.478244	0.771510	-0.563407
H187	H	0.978242	0.271734	-0.541064
H188	H	1.478242	0.771734	-0.041064
H189	H	0.263203	0.443981	-0.229100
H190	H	0.763203	0.943981	0.270900
H191	H	0.832727	0.444031	-0.541020
H192	H	1.332727	0.944031	-0.041020
H193	H	0.978248	0.271564	-0.944700
H194	H	1.478248	0.771564	-0.444700
H195	H	0.896466	0.479153	-0.861573
H196	H	1.396466	0.979153	-0.361573
H197	H	0.346430	0.347462	-0.404340
H198	H	0.846430	0.847462	0.095660
H199	H	0.666840	0.443934	-0.229073
H200	H	1.166840	0.943934	0.270927
H201	H	0.978238	0.271680	-0.659771
H202	H	1.478238	0.771680	-0.159771
