data_functionalizedCrystal
_audit_creation_method	'MofGen! by Chris Wilmer'
_symmetry_space_group_name_H-M	'P1'
_symmetry_Int_Tables_number	1
_symmetry_cell_setting	triclinic
loop_
_symmetry_equiv_pos_as_xyz
  x,y,z
_cell_length_a	19.805407
_cell_length_b	12.645330
_cell_length_c	19.805399
_cell_angle_alpha	90.021721
_cell_angle_beta	90.019573
_cell_angle_gamma	90.017692
loop_
_atom_site_label
_atom_site_type_symbol
_atom_site_fract_x
_atom_site_fract_y
_atom_site_fract_z
Zn1	Zn	1.034777	-0.422064	0.382747
Zn2	Zn	1.534777	0.077936	0.882747
Zn3	Zn	1.034709	-0.599342	0.269571
Zn4	Zn	1.534709	-0.099342	0.769571
Zn5	Zn	0.921591	-0.422093	0.269572
Zn6	Zn	1.421591	0.077907	0.769572
Zn7	Zn	0.921572	-0.599286	0.382717
Zn8	Zn	1.421572	-0.099286	0.882717
O9	O	0.978162	-0.510696	0.326152
O10	O	1.478162	-0.010696	0.826152
O11	O	1.129484	-0.445592	0.367746
O12	O	1.629484	0.054408	0.867746
O13	O	1.019683	-0.575865	0.174854
O14	O	1.519683	-0.075865	0.674854
O15	O	0.936642	-0.273742	0.284598
O16	O	1.436642	0.226258	0.784598
O17	O	1.129434	-0.575837	0.284596
O18	O	1.629434	-0.075837	0.784596
O19	O	1.019799	-0.273721	0.367747
O20	O	1.519799	0.226279	0.867747
O21	O	0.936576	-0.445641	0.174855
O22	O	1.436576	0.054359	0.674855
O23	O	0.826872	-0.445587	0.284569
O24	O	1.326872	0.054413	0.784569
O25	O	0.936609	-0.575741	0.477438
O26	O	1.436609	-0.075741	0.977438
O27	O	0.826858	-0.575769	0.367696
O28	O	1.326858	-0.075769	0.867696
O29	O	1.019780	-0.445537	0.477460
O30	O	1.519780	0.054463	0.977460
O31	O	1.019664	-0.747682	0.284567
O32	O	1.519664	-0.247682	0.784567
O33	O	0.936543	-0.747641	0.367695
O34	O	1.436543	-0.247641	0.867695
C35	C	0.802306	-0.510676	0.326130
C36	C	1.302306	-0.010676	0.826130
C37	C	0.727074	-0.510693	0.326137
C38	C	1.227074	-0.010693	0.826137
C39	C	0.978113	-0.786126	0.326142
C40	C	1.478113	-0.286126	0.826142
C41	C	0.978154	-0.903956	0.326161
C42	C	1.478154	-0.403956	0.826161
C43	C	0.691740	-0.578581	0.369351
C44	C	1.191740	-0.078581	0.869351
C45	C	0.621052	-0.578583	0.369361
C46	C	1.121052	-0.078583	0.869361
C47	C	0.585699	-0.510701	0.326152
C48	C	1.085699	-0.010701	0.826152
C49	C	0.621037	-0.442805	0.282935
C50	C	1.121037	0.057195	0.782935
C51	C	0.691725	-0.442799	0.282930
C52	C	1.191725	0.057201	0.782930
C53	C	0.335964	-0.442829	0.282958
C54	C	0.835964	0.057171	0.782958
C55	C	0.265272	-0.442843	0.282965
C56	C	0.765272	0.057157	0.782965
C57	C	0.265292	-0.578613	0.369388
C58	C	0.765292	-0.078613	0.869388
C59	C	0.335979	-0.578606	0.369383
C60	C	0.835979	-0.078606	0.869383
C61	C	0.371311	-0.510707	0.326169
C62	C	0.871311	-0.010707	0.826169
C63	C	0.447960	-0.510705	0.326160
C64	C	0.947960	-0.010705	0.826160
C65	C	0.509051	-0.510708	0.326157
C66	C	1.009051	-0.010708	0.826157
C67	C	0.926078	-1.071538	0.378618
C68	C	1.426078	-0.571538	0.878618
C69	C	0.925811	-0.948979	0.378450
C70	C	1.425811	-0.448979	0.878450
C71	C	0.958847	-0.948544	0.254828
C72	C	1.458847	-0.448544	0.754828
C73	C	0.958530	-1.071142	0.255147
C74	C	1.458530	-0.571142	0.755147
C75	C	1.049854	-1.071047	0.344457
C76	C	1.549854	-0.571047	0.844457
C77	C	1.049415	-0.948440	0.346017
C78	C	1.549415	-0.448440	0.846017
C79	C	1.154705	-0.510717	0.326174
C80	C	1.654705	-0.010717	0.826174
C81	C	1.229937	-0.510726	0.326184
C82	C	1.729937	-0.010726	0.826184
C83	C	0.978200	-0.510629	0.502695
C84	C	1.478200	-0.010629	1.002695
C85	C	0.978216	-0.510601	0.577927
C86	C	1.478216	-0.010601	1.077927
C87	C	0.978230	-0.234191	0.326176
C88	C	1.478230	0.265809	0.826176
C89	C	0.978259	-0.116361	0.326186
C90	C	1.478259	0.383639	0.826186
C91	C	0.978163	-0.510686	0.150296
C92	C	1.478163	-0.010686	0.650296
C93	C	0.978278	-0.510416	0.075064
C94	C	1.478278	-0.010416	0.575064
C95	C	1.021524	-0.442800	0.613283
C96	C	1.521524	0.057200	1.113283
C97	C	1.021531	-0.442770	0.683972
C98	C	1.521531	0.057230	1.183972
C99	C	0.978233	-0.510546	0.719302
C100	C	1.478233	-0.010546	1.219302
C101	C	0.934920	-0.578349	0.683941
C102	C	1.434920	-0.078349	1.183941
C103	C	0.934910	-0.578374	0.613253
C104	C	1.434910	-0.078374	1.113253
C105	C	0.934958	-0.578250	0.969014
C106	C	1.434958	-0.078250	1.469014
C107	C	0.934973	-0.578223	1.039706
C108	C	1.434973	-0.078223	1.539706
C109	C	1.021579	-0.442646	1.039732
C110	C	1.521579	0.057354	1.539732
C111	C	1.021570	-0.442671	0.969045
C112	C	1.521570	0.057329	1.469045
C113	C	0.978255	-0.510470	0.933690
C114	C	1.478255	-0.010470	1.433690
C115	C	0.978247	-0.510501	0.857041
C116	C	1.478247	-0.010501	1.357041
C117	C	0.978244	-0.510521	0.795949
C118	C	1.478244	-0.010521	1.295949
H119	H	0.720520	-0.633862	0.404534
H120	H	1.220520	-0.133862	0.904534
Cl121	Cl	1.015664	-0.903524	0.192862
Cl122	Cl	1.515664	-0.403524	0.692862
Cl123	Cl	0.880485	-0.663550	0.728356
Cl124	Cl	1.380485	-0.163550	1.228356
Cl125	Cl	1.077046	-1.118671	0.423401
Cl126	Cl	1.577046	-0.618671	0.923401
H127	H	1.063974	-0.919294	0.398514
H128	H	1.563974	-0.419294	0.898514
Cl129	Cl	0.576635	-0.663932	0.423690
Cl130	Cl	1.076635	-0.163932	0.923690
H131	H	0.236515	-0.633895	0.404578
H132	H	0.736515	-0.133895	0.904578
Cl133	Cl	0.880462	-0.663609	0.568805
Cl134	Cl	1.380462	-0.163609	1.068805
H135	H	0.364760	-0.633886	0.404566
H136	H	0.864760	-0.133886	0.904566
H137	H	0.236489	-0.387559	0.247779
H138	H	0.736489	0.112441	0.747779
Cl139	Cl	1.014654	-1.116931	0.192771
Cl140	Cl	1.514654	-0.616931	0.692771
Cl141	Cl	0.380373	-0.357467	0.228634
Cl142	Cl	0.880373	0.142533	0.728634
Cl143	Cl	0.878884	-0.901290	0.230499
Cl144	Cl	1.378884	-0.401290	0.730499
Cl145	Cl	0.576593	-0.357461	0.228620
Cl146	Cl	1.076593	0.142539	0.728620
Cl147	Cl	1.076008	-0.357577	0.728417
Cl148	Cl	1.576008	0.142423	1.228417
H149	H	1.090340	-0.917787	0.310610
H150	H	1.590340	-0.417787	0.810610
H151	H	0.720492	-0.387512	0.247744
H152	H	1.220492	0.112488	0.747744
Cl153	Cl	0.880536	-0.663433	1.084121
Cl154	Cl	1.380536	-0.163433	1.584121
H155	H	1.056830	-0.387484	0.940283
H156	H	1.556830	0.112516	1.440283
Cl157	Cl	0.880505	-0.663485	0.924576
Cl158	Cl	1.380505	-0.163485	1.424576
H159	H	0.937890	-0.918829	0.431342
H160	H	1.437890	-0.418829	0.931342
Cl161	Cl	1.109880	-1.115819	0.285509
Cl162	Cl	1.609880	-0.615819	0.785509
H163	H	0.938046	-1.100955	0.431684
H164	H	1.438046	-0.600955	0.931684
Cl165	Cl	1.076031	-0.357407	1.084184
Cl166	Cl	1.576031	0.142593	1.584184
H167	H	0.872734	-0.919743	0.366345
H168	H	1.372734	-0.419743	0.866345
Cl169	Cl	0.844644	-1.119267	0.360183
Cl170	Cl	1.344644	-0.619267	0.860183
H171	H	0.906193	-1.099832	0.239669
H172	H	1.406193	-0.599832	0.739669
H173	H	1.056785	-0.387612	0.584522
H174	H	1.556785	0.112388	1.084522
