data_functionalizedCrystal
_audit_creation_method	'MofGen! by Chris Wilmer'
_symmetry_space_group_name_H-M	'P1'
_symmetry_Int_Tables_number	1
_symmetry_cell_setting	triclinic
loop_
_symmetry_equiv_pos_as_xyz
  x,y,z
_cell_length_a	11.169416
_cell_length_b	12.594517
_cell_length_c	11.169409
_cell_angle_alpha	89.976516
_cell_angle_beta	89.968635
_cell_angle_gamma	90.009949
loop_
_atom_site_label
_atom_site_type_symbol
_atom_site_fract_x
_atom_site_fract_y
_atom_site_fract_z
Zn1	Zn	-0.477716	1.627333	-0.678668
Zn2	Zn	-0.678457	1.627236	-0.477988
Zn3	Zn	-0.477786	1.449330	-0.477990
Zn4	Zn	-0.678355	1.449338	-0.678620
O5	O	-0.578079	1.538309	-0.578317
O6	O	-0.504358	1.776266	-0.652067
O7	O	-0.651909	1.603592	-0.310039
O8	O	-0.309827	1.472981	-0.504630
O9	O	-0.651842	1.776194	-0.504628
O10	O	-0.309776	1.603759	-0.652068
O11	O	-0.504477	1.472886	-0.310040
O12	O	-0.504378	1.300386	-0.504584
O13	O	-0.651669	1.472993	-0.846577
O14	O	-0.651736	1.300391	-0.651987
O15	O	-0.504260	1.603766	-0.846612
O16	O	-0.846393	1.603599	-0.504582
O17	O	-0.846319	1.472898	-0.651986
C18	C	-0.578054	1.261768	-0.578281
C19	C	-0.578073	1.143463	-0.578295
C20	C	-0.497816	1.074176	-0.498275
C21	C	-0.607295	1.003374	-0.468759
C22	C	-0.468648	1.003466	-0.607831
C23	C	-0.687609	1.074219	-0.548721
C24	C	-0.548889	1.074317	-0.687845
C25	C	-0.658443	1.003547	-0.658370
C26	C	-0.889903	1.538268	-0.578305
C27	C	-1.023303	1.538348	-0.578340
C28	C	-0.265036	1.538380	-0.578355
C29	C	-0.131636	1.538410	-0.578371
C30	C	-0.577945	1.538391	-0.891359
C31	C	-0.577888	1.538426	-1.024759
C32	C	-0.578104	1.815930	-0.578353
C33	C	-0.578114	1.934236	-0.578368
C34	C	-0.578125	1.538289	-0.266492
C35	C	-0.577843	1.538460	-0.133092
H36	H	-0.780194	1.105168	-0.523667
H37	H	-0.430011	1.105188	-0.430522
C38	C	-0.750254	0.961902	-0.749829
C39	C	-0.708620	0.892054	-0.855036
C40	C	-0.800434	0.850405	-0.946489
C41	C	-0.933881	0.878604	-0.932733
C42	C	-0.975521	0.948455	-0.827521
C43	C	-0.883708	0.990104	-0.736069
H44	H	-0.609829	0.871176	-0.865223
H45	H	-0.769608	0.798696	-1.024374
H46	H	-1.001847	0.847773	-1.000432
H47	H	-1.074313	0.969333	-0.817335
H48	H	-0.914534	1.041813	-0.658184
H49	H	-0.524145	1.105503	-0.780429
H50	H	-0.376103	0.972331	-0.632742
H51	H	-0.632005	0.972214	-0.376146
