data_functionalizedCrystal
_audit_creation_method	'MofGen! by Chris Wilmer'
_symmetry_space_group_name_H-M	'P1'
_symmetry_Int_Tables_number	1
_symmetry_cell_setting	triclinic
loop_
_symmetry_equiv_pos_as_xyz
  x,y,z
_cell_length_a	10.654554
_cell_length_b	11.792241
_cell_length_c	9.730223
_cell_angle_alpha	89.998500
_cell_angle_beta	90.001137
_cell_angle_gamma	84.340080
loop_
_atom_site_label
_atom_site_type_symbol
_atom_site_fract_x
_atom_site_fract_y
_atom_site_fract_z
O1	O	1.667380	0.159439	-0.114248
O2	O	1.301859	0.174622	-0.114260
O3	O	1.493490	0.001881	-0.114244
O4	O	1.475749	0.332181	-0.114264
O5	O	1.493487	0.001885	0.114336
O6	O	1.301857	0.174627	0.114320
O7	O	1.667377	0.159443	0.114332
Zn8	Zn	1.484617	0.167036	0.150618
Zn9	Zn	1.484620	0.167030	-0.150546
O10	O	1.475747	0.332185	0.114316
C11	C	1.255063	0.173509	0.000028
C12	C	1.115630	0.170170	0.000024
C13	C	0.904842	0.268744	0.000031
C14	C	1.035855	0.271882	0.000020
C15	C	1.064386	0.065313	0.000025
C16	C	0.933376	0.062177	0.000026
C17	C	0.825073	0.370463	0.000040
C18	C	0.876308	0.475320	0.000037
C19	C	1.007320	0.478458	0.000026
C20	C	1.087098	0.376739	0.000019
C21	C	1.492374	-0.040411	0.000045
C22	C	1.489039	-0.166432	0.000044
C23	C	1.482905	-0.397158	0.000021
C24	C	1.486313	-0.268765	0.000033
C25	C	1.714173	0.160557	0.000041
C26	C	1.853607	0.163896	0.000036
C27	C	1.476862	0.374476	0.000024
C28	C	1.480198	0.500498	0.000016
N29	N	1.484624	0.167039	0.356154
N30	N	1.484622	0.167018	-0.356082
C31	C	1.569500	0.090575	0.428087
C32	C	1.569497	0.090561	0.571970
C33	C	1.399737	0.243485	0.571974
C34	C	1.399736	0.243493	0.428094
C35	C	1.654388	0.014122	0.356148
C36	C	1.739272	-0.062348	0.428081
C37	C	1.739269	-0.062361	0.571964
C38	C	1.654381	0.014094	0.643914
H39	H	0.718395	0.367920	0.000054
N40	N	0.790288	0.585037	0.000042
H41	H	0.735285	0.588349	-0.084686
H42	H	0.735388	0.588281	0.084840
H43	H	1.330627	0.305733	0.630565
H44	H	1.049031	0.563837	0.000010
N45	N	0.878108	-0.050909	0.000061
H46	H	0.783010	-0.037459	0.000063
H47	H	0.907229	-0.095473	-0.084670
N48	N	1.830796	-0.144818	0.350469
H49	H	1.886694	-0.100977	0.290773
H50	H	1.884477	-0.193254	0.417949
N51	N	1.830825	-0.144823	0.649553
H52	H	1.884603	-0.193246	0.582143
H53	H	1.886623	-0.100883	0.709244
N54	N	1.654387	0.014086	0.799102
H55	H	1.587740	0.074126	0.833762
H56	H	1.635640	-0.063229	0.833649
N57	N	1.308190	0.325958	0.350497
H58	H	1.254420	0.374396	0.417900
H59	H	1.356603	0.376545	0.290800
H60	H	1.129351	-0.017501	0.000021
N61	N	1.228405	0.380119	-0.000012
H62	H	1.248761	0.461976	-0.000022
H63	H	1.265482	0.340272	0.084725
N64	N	1.654383	0.014142	0.200962
H65	H	1.739815	0.031384	0.166309
H66	H	1.635548	-0.063142	0.166402
