data_functionalizedCrystal
_audit_creation_method	'MofGen! by Chris Wilmer'
_symmetry_space_group_name_H-M	'P1'
_symmetry_Int_Tables_number	1
_symmetry_cell_setting	triclinic
loop_
_symmetry_equiv_pos_as_xyz
  x,y,z
_cell_length_a	19.188933
_cell_length_b	15.995350
_cell_length_c	15.072220
_cell_angle_alpha	89.994173
_cell_angle_beta	90.003485
_cell_angle_gamma	96.681028
loop_
_atom_site_label
_atom_site_type_symbol
_atom_site_fract_x
_atom_site_fract_y
_atom_site_fract_z
O1	O	0.926410	-0.104545	0.073749
O2	O	0.723135	-0.118616	0.073756
O3	O	0.830329	0.010328	0.073751
O4	O	0.819216	-0.233488	0.073754
O5	O	0.830320	0.010339	-0.073814
O6	O	0.723126	-0.118604	-0.073809
O7	O	0.926401	-0.104533	-0.073816
Zn8	Zn	0.824762	-0.111567	-0.097242
Zn9	Zn	0.824774	-0.111582	0.097182
O10	O	0.819207	-0.233476	-0.073812
C11	C	0.829865	0.041527	-0.000029
C12	C	0.828488	0.134472	-0.000024
C13	C	0.697118	-0.118154	-0.000025
C14	C	0.619610	-0.116785	-0.000022
N15	N	0.824758	-0.111555	-0.229931
C16	C	0.066335	-0.107024	0.080406
C17	C	0.139163	-0.108305	0.080409
C18	C	0.175576	-0.108942	-0.000028
C19	C	0.139158	-0.108278	-0.080475
C20	C	0.066333	-0.106988	-0.080476
N21	N	0.284719	-0.158608	-0.059901
N22	N	0.353899	-0.159834	-0.059894
C23	C	0.394995	-0.112825	-0.000029
N24	N	0.364294	-0.064554	0.059842
N25	N	0.295107	-0.063331	0.059838
C26	C	0.254543	-0.110340	-0.000036
C27	C	0.510372	-0.114873	0.080416
C28	C	0.583201	-0.116149	0.080416
C29	C	0.583195	-0.116130	-0.080471
C30	C	0.510368	-0.114846	-0.080468
C31	C	0.473960	-0.114222	-0.000023
C32	C	0.952418	-0.104995	-0.000033
C33	C	1.029926	-0.106364	-0.000030
C34	C	0.819671	-0.264675	-0.000029
C35	C	0.821048	-0.357621	-0.000028
C36	C	0.823541	0.472201	-0.000027
C37	C	0.747199	0.424488	0.000307
C38	C	0.748577	0.327803	-0.000026
C39	C	0.825995	0.304650	-0.000025
C40	C	0.863644	0.345872	-0.084292
C41	C	0.861726	0.442500	-0.084362
C42	C	0.863314	0.442851	0.083447
C43	C	0.863296	0.345905	0.084560
C44	C	0.827385	0.209957	-0.000027
C45	C	0.822153	0.566894	-0.000031
C46	C	0.824767	-0.111566	-0.410928
C47	C	0.882138	-0.042595	-0.448572
C48	C	0.882346	-0.042777	-0.551398
C49	C	0.824775	-0.111576	-0.589132
C50	C	0.840385	-0.198991	-0.551787
C51	C	0.840792	-0.198581	-0.448929
C52	C	0.751614	-0.093910	-0.448844
C53	C	0.752109	-0.091929	-0.551709
C54	C	0.824778	-0.111587	-0.689845
C55	C	0.824765	-0.111561	-0.310215
N56	N	0.824783	-0.111587	0.229870
H57	H	0.036697	-0.106512	0.145911
F58	F	0.827594	0.309763	0.166053
F59	F	0.471616	-0.114155	-0.166081
H60	H	0.718982	0.299268	0.060380
H61	H	0.920520	0.331954	-0.087425
H62	H	0.612843	-0.116646	-0.145964
H63	H	0.612845	-0.116680	0.145920
H64	H	0.716690	0.442904	0.060736
F65	F	0.177920	-0.109008	0.166024
F66	F	0.825829	0.466299	-0.166694
F67	F	0.177913	-0.108954	-0.166082
F68	F	0.707386	0.450241	-0.078020
F69	F	0.936883	0.484634	0.084190
F70	F	0.027582	-0.106288	-0.166091
H71	H	0.718775	0.299834	-0.060533
F72	F	0.829456	0.308660	-0.166259
H73	H	0.919752	0.330749	0.089649
H74	H	0.838358	0.463294	0.147316
H75	H	0.917775	0.474954	-0.088185
H76	H	0.873095	0.022200	-0.576649
F77	F	0.870246	0.042624	-0.416257
H78	H	0.480728	-0.114362	0.145920
H79	H	0.936122	-0.053713	-0.422708
F80	F	0.953309	-0.057541	-0.583559
H81	H	0.894132	-0.214129	-0.424934
F82	F	0.788638	-0.268114	-0.416377
H83	H	0.799698	-0.251557	-0.576227
F84	F	0.909307	-0.219814	-0.585450
F85	F	0.731911	-0.012365	-0.414953
F86	F	0.736607	-0.007885	-0.583630
F87	F	0.693720	-0.153335	-0.585273
H88	H	0.708924	-0.144208	-0.424499
