data_functionalizedCrystal
_audit_creation_method	'MofGen! by Chris Wilmer'
_symmetry_space_group_name_H-M	'P1'
_symmetry_Int_Tables_number	1
_symmetry_cell_setting	triclinic
loop_
_symmetry_equiv_pos_as_xyz
  x,y,z
_cell_length_a	10.489741
_cell_length_b	17.699083
_cell_length_c	16.776229
_cell_angle_alpha	90.007545
_cell_angle_beta	89.995573
_cell_angle_gamma	96.088906
loop_
_atom_site_label
_atom_site_type_symbol
_atom_site_fract_x
_atom_site_fract_y
_atom_site_fract_z
O1	O	1.692074	-0.106782	-0.066241
O2	O	1.320692	-0.116805	-0.066253
O3	O	1.516876	-0.001673	-0.066240
O4	O	1.495891	-0.221914	-0.066254
O5	O	1.516850	-0.001666	0.066337
O6	O	1.320666	-0.116798	0.066323
O7	O	1.692048	-0.106775	0.066336
Zn8	Zn	1.506353	-0.111785	0.087379
Zn9	Zn	1.506387	-0.111795	-0.087296
O10	O	1.495865	-0.221907	0.066322
C11	C	1.273162	-0.116044	0.000033
C12	C	1.131574	-0.113779	0.000029
N13	N	1.506339	-0.111778	0.206590
C14	C	1.516111	0.026533	0.000049
C15	C	1.513855	0.110565	0.000049
C16	C	1.064795	-0.040524	0.000041
C17	C	0.972038	-0.075133	-0.065327
C18	C	0.972046	-0.075143	0.065384
C19	C	1.040682	-0.148418	-0.065393
C20	C	1.040700	-0.148418	0.065376
C21	C	0.947970	-0.183080	-0.000008
C22	C	1.739579	-0.107535	0.000047
C23	C	1.881166	-0.109800	0.000047
C24	C	1.496630	-0.250112	0.000032
C25	C	1.498886	-0.334145	0.000027
C26	C	1.629011	0.158433	0.000054
C27	C	1.626883	0.237390	0.000047
C28	C	1.509599	0.268478	0.000040
C29	C	1.394435	0.220605	0.000033
C30	C	1.396563	0.141649	0.000034
C31	C	1.385848	0.539024	0.000026
C32	C	1.383729	0.617986	0.000027
C33	C	1.616168	0.634765	0.000039
C34	C	1.618297	0.555810	0.000040
C35	C	1.503133	0.507943	0.000028
C36	C	1.505441	0.422328	0.000035
C37	C	1.507290	0.354091	0.000040
N38	N	1.506412	-0.111796	-0.206508
C39	C	1.593236	-0.060819	0.248313
C40	C	1.593243	-0.060818	0.331765
C41	C	1.506358	-0.111781	0.373493
C42	C	1.419453	-0.162743	0.331764
C43	C	1.419441	-0.162739	0.248313
C44	C	1.419499	-0.162758	0.668311
C45	C	1.419520	-0.162759	0.751768
C46	C	1.593301	-0.060837	0.751763
C47	C	1.593289	-0.060833	0.668313
C48	C	1.506379	-0.111792	0.626591
C49	C	1.506371	-0.111791	0.536103
C50	C	1.506372	-0.111786	0.463980
H51	H	0.941611	-0.044140	-0.120587
C52	C	1.047606	-0.151749	0.208369
C53	C	1.081843	-0.190220	0.139977
H54	H	1.073018	-0.177550	0.254428
H55	H	0.957378	-0.150215	0.209174
H56	H	1.089222	-0.101394	0.207892
H57	H	1.040219	-0.240574	0.140450
H58	H	1.172087	-0.191763	0.139172
H59	H	1.713801	0.530502	0.000049
C60	C	1.214671	-0.191940	-0.139436
C61	C	1.081526	-0.190227	-0.140087
H62	H	1.239886	-0.217745	-0.185552
H63	H	1.238709	-0.217787	-0.093084
H64	H	1.255713	-0.141447	-0.139246
H65	H	1.040483	-0.240720	-0.140272
H66	H	1.057475	-0.164381	-0.186452
C67	C	1.716137	0.763252	0.000029
C68	C	1.742763	0.687384	0.000039
H69	H	1.794290	0.795732	0.000025
H70	H	1.668035	0.772749	0.046255
H71	H	1.668045	0.772728	-0.046210
H72	H	1.790847	0.677905	0.046281
H73	H	1.790885	0.677883	-0.046192
H74	H	0.897426	-0.243364	-0.000048
C75	C	1.247655	-0.263482	0.323380
C76	C	1.323937	-0.218758	0.377628
H77	H	1.188682	-0.298060	0.351695
H78	H	1.300648	-0.291016	0.290823
H79	H	1.201885	-0.231698	0.290840
H80	H	1.369715	-0.250541	0.410165
H81	H	1.270937	-0.191222	0.410198
H82	H	1.288216	0.643294	0.000024
C83	C	0.869736	0.029746	0.116817
C84	C	0.930989	-0.033283	0.139990
H85	H	0.844399	0.055593	0.162874
H86	H	0.796224	0.013249	0.085842
H87	H	0.927054	0.063148	0.086030
H88	H	0.873667	-0.066688	0.170772
H89	H	1.004510	-0.016787	0.170978
C90	C	1.155874	0.530380	0.000033
C91	C	1.259262	0.486415	0.000029
H92	H	1.077723	0.497897	0.000041
H93	H	1.159883	0.561515	-0.046198
H94	H	1.159892	0.561534	0.046267
H95	H	1.255250	0.455265	-0.046209
H96	H	1.255251	0.455267	0.046265
C97	C	1.211034	0.051334	-0.067851
C98	C	1.133358	0.040777	-0.000038
H99	H	1.253371	0.101522	-0.067898
H100	H	1.159486	0.043783	-0.114299
H101	H	1.272939	0.015862	-0.067336
H102	H	1.071447	0.076245	-0.000555
H103	H	1.184910	0.048336	0.046423
H104	H	1.298940	0.245923	0.000023
H105	H	1.664042	-0.019337	0.634341
H106	H	1.348736	-0.204251	0.634348
H107	H	1.302792	0.102675	0.000030
C108	C	1.391419	-0.265576	0.154443
C109	C	1.323926	-0.218756	0.202445
H110	H	1.332445	-0.300154	0.126123
H111	H	1.444411	-0.293111	0.186986
H112	H	1.443158	-0.235214	0.117654
H113	H	1.272194	-0.249117	0.239238
H114	H	1.270911	-0.191218	0.169899
H115	H	1.663992	-0.019322	0.214344
H116	H	1.663999	-0.019323	0.365736
H117	H	1.724517	0.133128	0.000064
C118	C	1.856859	0.246046	0.000078
C119	C	1.753466	0.290007	0.000061
H120	H	1.935008	0.278531	0.000092
H121	H	1.852873	0.214898	-0.046152
H122	H	1.852824	0.214904	0.046314
H123	H	1.757496	0.321145	-0.046177
H124	H	1.757454	0.321168	0.046296
H125	H	1.348764	-0.204261	0.785741
C126	C	1.621327	0.042015	0.845620
C127	C	1.688822	-0.004812	0.797627
H128	H	1.680299	0.076603	0.873928
H129	H	1.569596	0.011665	0.882410
H130	H	1.568326	0.069546	0.813065
H131	H	1.741816	-0.032348	0.830183
H132	H	1.740575	0.025542	0.760832
