data_functionalizedCrystal
_audit_creation_method	'MofGen! by Chris Wilmer'
_symmetry_space_group_name_H-M	'P1'
_symmetry_Int_Tables_number	1
_symmetry_cell_setting	triclinic
loop_
_symmetry_equiv_pos_as_xyz
  x,y,z
_cell_length_a	10.540539
_cell_length_b	7.681481
_cell_length_c	8.559649
_cell_angle_alpha	94.930900
_cell_angle_beta	102.847922
_cell_angle_gamma	95.783538
loop_
_atom_site_label
_atom_site_type_symbol
_atom_site_fract_x
_atom_site_fract_y
_atom_site_fract_z
O1	O	1.648885	-0.146339	-0.239893
O2	O	1.277251	-0.146359	-0.261088
O3	O	1.495810	-0.146345	-0.018262
O4	O	1.430327	-0.146353	-0.482719
O5	O	1.522717	0.146514	0.011694
O6	O	1.304159	0.146500	-0.231132
O7	O	1.675793	0.146521	-0.209937
Zn8	Zn	1.494248	0.193008	-0.215778
Zn9	Zn	1.458796	-0.192847	-0.255247
O10	O	1.457234	0.146507	-0.452763
C11	C	1.243568	0.000068	-0.244521
C12	C	1.103117	0.000059	-0.239767
N13	N	1.518452	0.456344	-0.188841
C14	C	1.514225	0.000081	0.056189
C15	C	1.528996	0.000072	0.233400
C16	C	0.938829	0.000746	-0.057495
C17	C	1.084880	0.000068	-0.062384
C18	C	1.017142	-0.167173	-0.342236
C19	C	0.871221	-0.167294	-0.336195
C20	C	0.900953	0.165741	-0.305738
C21	C	1.047966	0.167934	-0.307147
C22	C	1.709475	0.000090	-0.226505
C23	C	1.849925	0.000087	-0.231260
N24	N	1.434603	-0.456183	-0.282171
C25	C	1.438818	0.000076	-0.527215
C26	C	1.424047	0.000074	-0.704427
H27	H	1.145541	0.119947	0.017045
O28	O	0.925271	0.159602	0.051587
H29	H	1.022321	0.239975	0.096256
H30	H	1.054504	-0.291629	-0.295668
O31	O	1.663003	0.000102	0.342466
H32	H	1.663910	-0.119258	0.406965
H33	H	1.349011	0.468615	-0.377433
H34	H	1.322894	0.000074	0.213231
O35	O	0.893981	-0.157207	0.018806
H36	H	0.808649	-0.236185	-0.066496
O37	O	1.134958	-0.158999	0.010932
H38	H	1.076546	-0.280474	-0.058938
O39	O	0.827380	-0.332853	-0.269528
H40	H	0.910398	-0.412071	-0.241894
O41	O	0.789041	-0.177372	-0.506192
H42	H	0.801564	-0.300192	-0.576444
O43	O	1.027927	-0.175451	-0.515631
H44	H	1.094845	-0.060187	-0.530647
O45	O	1.631852	0.555962	-0.062667
H46	H	1.690438	0.461029	0.002526
O47	O	0.882590	0.333663	-0.212512
H48	H	0.836881	0.300918	-0.112044
H49	H	1.059580	0.178029	-0.435438
O50	O	1.125921	0.331827	-0.207795
H51	H	1.203629	0.293901	-0.110830
O52	O	0.820760	0.167270	-0.475287
H53	H	0.744920	0.050688	-0.506429
