data_functionalizedCrystal
_audit_creation_method	'MofGen! by Chris Wilmer'
_symmetry_space_group_name_H-M	'P1'
_symmetry_Int_Tables_number	1
_symmetry_cell_setting	triclinic
loop_
_symmetry_equiv_pos_as_xyz
  x,y,z
_cell_length_a	21.295417
_cell_length_b	21.295418
_cell_length_c	12.594509
_cell_angle_alpha	90.040208
_cell_angle_beta	90.035198
_cell_angle_gamma	90.045515
loop_
_atom_site_label
_atom_site_type_symbol
_atom_site_fract_x
_atom_site_fract_y
_atom_site_fract_z
Zn1	Zn	-0.250324	0.962337	0.602345
Zn2	Zn	0.083009	1.295671	0.935678
Zn3	Zn	0.416342	1.629004	1.269012
Zn4	Zn	-0.355603	0.962248	0.424345
Zn5	Zn	-0.022270	1.295581	0.757678
Zn6	Zn	0.311064	1.628914	1.091011
Zn7	Zn	-0.250381	0.857067	0.424315
Zn8	Zn	0.082953	1.190400	0.757648
Zn9	Zn	0.416286	1.523734	1.090982
Zn10	Zn	-0.355589	0.857031	0.602216
Zn11	Zn	-0.022255	1.190365	0.935549
Zn12	Zn	0.311078	1.523698	1.268883
O13	O	-0.302974	0.909671	0.513305
O14	O	0.030359	1.243004	0.846639
O15	O	0.363692	1.576338	1.179972
O16	O	-0.264272	1.050415	0.578799
O17	O	0.069061	1.383748	0.912133
O18	O	0.402394	1.717082	1.245466
O19	O	-0.341675	0.948273	0.275395
O20	O	-0.008341	1.281606	0.608728
O21	O	0.324992	1.614939	0.942062
O22	O	-0.162284	0.871084	0.447973
O23	O	0.171049	1.204417	0.781306
O24	O	0.504383	1.537750	1.114639
O25	O	-0.341620	1.050349	0.448023
O26	O	-0.008287	1.383682	0.781357
O27	O	0.325047	1.717016	1.114690
O28	O	-0.162243	0.948426	0.578770
O29	O	0.171091	1.281759	0.912104
O30	O	0.504424	1.615092	1.245437
O31	O	-0.264368	0.870997	0.275373
O32	O	0.068965	1.204330	0.608706
O33	O	0.402298	1.537664	0.942040
O34	O	-0.264354	0.768973	0.447848
O35	O	0.068979	1.102306	0.781181
O36	O	0.402312	1.435640	1.114514
O37	O	-0.341596	0.871023	0.751179
O38	O	-0.008262	1.204356	1.084512
O39	O	0.325071	1.537690	1.417846
O40	O	-0.341650	0.768947	0.578551
O41	O	-0.008317	1.102280	0.911884
O42	O	0.325016	1.435613	1.245218
O43	O	-0.264258	0.948391	0.751274
O44	O	0.069075	1.281724	1.084607
O45	O	0.402408	1.615058	1.417940
O46	O	-0.443691	0.948238	0.447898
O47	O	-0.110357	1.281572	0.781232
O48	O	0.222976	1.614905	1.114565
O49	O	-0.443680	0.870936	0.578580
O50	O	-0.110347	1.204270	0.911913
O51	O	0.222987	1.537603	1.245246
C52	C	-0.466526	0.909591	0.513251
C53	C	-0.133193	1.242924	0.846585
C54	C	0.200141	1.576257	1.179918
C55	C	-0.536494	0.909614	0.513264
C56	C	-0.203161	1.242947	0.846597
C57	C	0.130173	1.576281	1.179931
C58	C	-0.303007	0.746119	0.513183
C59	C	0.030326	1.079453	0.846516
C60	C	0.363659	1.412786	1.179849
C61	C	-0.303037	0.676151	0.513156
C62	C	0.030297	1.009484	0.846489
C63	C	0.363630	1.342818	1.179822
C64	C	-0.569282	0.949863	0.581419
C65	C	-0.235949	1.283196	0.914752
C66	C	0.097385	1.616529	1.248086
C67	C	-0.635024	0.949885	0.581445
C68	C	-0.301691	1.283218	0.914779
C69	C	0.031642	1.616552	1.248112
C70	C	-0.667977	0.909665	0.513297
C71	C	-0.334643	1.242998	0.846631
C72	C	-0.001310	1.576332	1.179964
C73	C	-0.635181	0.869408	0.445138
C74	C	-0.301847	1.202742	0.778471
C75	C	0.031486	1.536075	1.111804
C76	C	-0.569439	0.869383	0.445121
C77	C	-0.236106	1.202716	0.778454
C78	C	0.097227	1.536050	1.111787
N79	N	-0.771244	0.904909	0.420144
N80	N	-0.437911	1.238242	0.753477
N81	N	-0.104578	1.571576	1.086811
N82	N	-0.833696	0.904937	0.420163
N83	N	-0.500362	1.238270	0.753496
N84	N	-0.167029	1.571604	1.086830
C85	C	-0.866051	0.909739	0.513346
C86	C	-0.532718	1.243072	0.846679
C87	C	-0.199385	1.576405	1.180012
N88	N	-0.833596	0.914524	0.606510
N89	N	-0.500263	1.247857	0.939844
N90	N	-0.166929	1.581190	1.273177
N91	N	-0.771139	0.914499	0.606490
N92	N	-0.437806	1.247832	0.939823
N93	N	-0.104472	1.581166	1.273157
C94	C	-0.739262	0.909688	0.513309
C95	C	-0.405929	1.243021	0.846642
C96	C	-0.072595	1.576355	1.179975
C97	C	-0.970125	0.950014	0.581535
C98	C	-0.636791	1.283347	0.914868
C99	C	-0.303458	1.616680	1.248201
C100	C	-1.035868	0.950031	0.581563
C101	C	-0.702535	1.283365	0.914896
C102	C	-0.369202	1.616698	1.248230
C103	C	-1.036023	0.869558	0.445246
C104	C	-0.702690	1.202891	0.778579
C105	C	-0.369357	1.536225	1.111912
C106	C	-0.970281	0.869537	0.445227
C107	C	-0.636947	1.202870	0.778561
C108	C	-0.303614	1.536204	1.111894
C109	C	-0.937335	0.909768	0.513370
C110	C	-0.604002	1.243101	0.846704
C111	C	-0.270669	1.576435	1.180037
C112	C	-0.343338	0.643287	0.581111
C113	C	-0.010005	0.976621	0.914444
C114	C	0.323329	1.309954	1.247778
C115	C	-0.343323	0.577545	0.581159
C116	C	-0.009989	0.910878	0.914492
C117	C	0.323344	1.244212	1.247825
C118	C	-0.303012	0.544669	0.513232
C119	C	0.030321	0.878002	0.846565
C120	C	0.363654	1.211335	1.179899
C121	C	-0.262703	0.577540	0.445272
C122	C	0.070630	0.910874	0.778605
C123	C	0.403963	1.244207	1.111939
C124	C	-0.262715	0.643282	0.445234
C125	C	0.070618	0.976615	0.778567
C126	C	0.403951	1.309948	1.111900
N127	N	-0.298099	0.441396	0.420138
N128	N	0.035234	0.774729	0.753471
N129	N	0.368567	1.108063	1.086805
N130	N	-0.298091	0.378945	0.420177
N131	N	0.035242	0.712278	0.753511
N132	N	0.368575	1.045611	1.086844
C133	C	-0.302972	0.346594	0.513345
C134	C	0.030361	0.679927	0.846678
C135	C	0.363694	1.013261	1.180012
N136	N	-0.307873	0.379054	0.606474
N137	N	0.025460	0.712387	0.939807
N138	N	0.358793	1.045721	1.273141
N139	N	-0.307885	0.441511	0.606433
N140	N	0.025449	0.774845	0.939767
N141	N	0.358782	1.108178	1.273100
C142	C	-0.302994	0.473383	0.513267
C143	C	0.030339	0.806717	0.846600
C144	C	0.363672	1.140050	1.179933
C145	C	-0.343259	0.242445	0.581358
C146	C	-0.009925	0.575778	0.914691
C147	C	0.323408	0.909111	1.248025
C148	C	-0.343239	0.176701	0.581408
C149	C	-0.009906	0.510034	0.914741
C150	C	0.323428	0.843368	1.248074
C151	C	-0.262623	0.176698	0.445511
C152	C	0.070710	0.510031	0.778845
C153	C	0.404044	0.843364	1.112178
C154	C	-0.262639	0.242440	0.445471
C155	C	0.070694	0.575774	0.778805
C156	C	0.404027	0.909107	1.112138
C157	C	-0.302961	0.275310	0.513393
C158	C	0.030373	0.608643	0.846726
C159	C	0.363706	0.941976	1.180060
C160	C	-0.138784	0.909769	0.513383
C161	C	0.194549	1.243102	0.846716
C162	C	0.527883	1.576435	1.180049
C163	C	-0.068816	0.909810	0.513416
C164	C	0.264517	1.243144	0.846749
C165	C	0.597851	1.576477	1.180082
C166	C	-0.302919	0.909713	0.790926
C167	C	0.030414	1.243046	1.124260
C168	C	0.363748	1.576380	1.457593
C169	C	-0.302896	0.909731	0.909232
C170	C	0.030438	1.243064	1.242565
C171	C	0.363771	1.576398	1.575899
C172	C	-0.302942	1.073861	0.513429
C173	C	0.030392	1.407195	0.846762
C174	C	0.363725	1.740528	1.180096
C175	C	-0.302928	1.143829	0.513482
C176	C	0.030406	1.477163	0.846815
C177	C	0.363739	1.810496	1.180148
C178	C	-0.302984	0.909665	0.236764
C179	C	0.030350	1.242999	0.570098
C180	C	0.363683	1.576332	0.903431
C181	C	-0.302830	0.909769	0.118459
C182	C	0.030503	1.243103	0.451793
C183	C	0.363837	1.576436	0.785126
C184	C	-0.344936	0.867664	0.978434
C185	C	-0.011602	1.200997	1.311767
C186	C	0.321731	1.534331	1.645100
C187	C	-0.360300	0.925099	1.049253
C188	C	-0.026967	1.258433	1.382586
C189	C	0.306367	1.591766	1.715920
C190	C	-0.287493	0.852341	1.049212
C191	C	0.045840	1.185674	1.382545
C192	C	0.379174	1.519007	1.715878
C193	C	-0.318291	0.967196	0.978493
C194	C	0.015043	1.300530	1.311826
C195	C	0.348376	1.633863	1.645160
C196	C	-0.245457	0.894399	0.978446
C197	C	0.087877	1.227732	1.311779
C198	C	0.421210	1.561066	1.645112
C199	C	-0.260799	0.951874	1.049233
C200	C	0.072534	1.285207	1.382566
C201	C	0.405867	1.618541	1.715900
H202	H	-0.542460	0.982620	0.636908
H203	H	-0.209126	1.315953	0.970241
H204	H	0.124207	1.649286	1.303574
O205	O	-0.386818	0.542100	0.654430
O206	O	-0.053484	0.875433	0.987763
O207	O	0.279849	1.208767	1.321097
H208	H	-0.376109	0.554778	0.738003
H209	H	-0.042776	0.888111	1.071336
H210	H	0.290557	1.221444	1.404669
H211	H	-0.380542	0.832117	0.947349
H212	H	-0.047209	1.165450	1.280682
H213	H	0.286124	1.498784	1.614016
H214	H	-0.376056	0.149944	0.636752
H215	H	-0.042722	0.483278	0.970085
H216	H	0.290611	0.816611	1.303418
H217	H	-0.408847	0.938088	1.080355
H218	H	-0.075514	1.271421	1.413688
H219	H	0.257820	1.604755	1.747022
H220	H	-1.062852	0.836806	0.389765
H221	H	-0.729519	1.170140	0.723099
H222	H	-0.396186	1.503473	1.056432
H223	H	-0.661726	0.982655	0.636958
H224	H	-0.328392	1.315988	0.970291
H225	H	0.004941	1.649322	1.303624
H226	H	-0.376170	0.670046	0.636420
H227	H	-0.042837	1.003379	0.969753
H228	H	0.290497	1.336712	1.303086
H229	H	-1.062563	0.982807	0.637068
H230	H	-0.729230	1.316140	0.970401
H231	H	-0.395896	1.649473	1.303734
H232	H	-0.376088	0.269209	0.636669
H233	H	-0.042754	0.602542	0.970003
H234	H	0.290579	0.935875	1.303336
H235	H	-0.229881	0.550768	0.389968
H236	H	0.103452	0.884102	0.723301
H237	H	0.436785	1.217435	1.056634
O238	O	-0.534076	0.825973	0.371594
O239	O	-0.200743	1.159307	0.704927
O240	O	0.132591	1.492640	1.038260
H241	H	-0.504141	0.793916	0.419151
H242	H	-0.170808	1.127249	0.752485
H243	H	0.162525	1.460582	1.085818
H244	H	-0.662014	0.836660	0.389654
H245	H	-0.328681	1.169993	0.722987
H246	H	0.004652	1.503326	1.056320
H247	H	-0.229895	0.670039	0.389896
H248	H	0.103438	1.003372	0.723229
H249	H	0.436771	1.336706	1.056563
H250	H	-0.331346	1.015761	0.947558
H251	H	0.001988	1.349094	1.280892
H252	H	0.335321	1.682428	1.614225
H253	H	-0.943299	0.982770	0.637025
H254	H	-0.609966	1.316104	0.970358
H255	H	-0.276633	1.649437	1.303691
O256	O	-0.934915	0.826128	0.371706
O257	O	-0.601582	1.159462	0.705039
O258	O	-0.268248	1.492795	1.038372
H259	H	-0.883666	0.832864	0.383148
H260	H	-0.550332	1.166197	0.716481
H261	H	-0.216999	1.499530	1.049815
H262	H	-0.196924	0.881393	0.947320
H263	H	0.136410	1.214727	1.280653
H264	H	0.469743	1.548060	1.613987
O265	O	-0.270267	0.788032	1.090362
O266	O	0.063067	1.121366	1.423696
O267	O	0.396400	1.454699	1.757029
H268	H	-0.222948	0.774997	1.060786
H269	H	0.110385	1.108330	1.394119
H270	H	0.443718	1.441664	1.727452
H271	H	-0.225220	0.987506	1.080122
H272	H	0.108114	1.320839	1.413456
H273	H	0.441447	1.654173	1.746789
H274	H	-0.229825	0.269198	0.390129
H275	H	0.103508	0.602532	0.723463
H276	H	0.436842	0.935865	1.056796
O277	O	-0.219149	0.141249	0.372235
O278	O	0.114185	0.474583	0.705568
O279	O	0.447518	0.807916	1.038901
H280	H	-0.225914	0.090013	0.383669
H281	H	0.107419	0.423347	0.717003
H282	H	0.440753	0.756680	1.050336
