data_functionalizedCrystal
_audit_creation_method	'MofGen! by Chris Wilmer'
_symmetry_space_group_name_H-M	'P1'
_symmetry_Int_Tables_number	1
_symmetry_cell_setting	triclinic
loop_
_symmetry_equiv_pos_as_xyz
  x,y,z
_cell_length_a	15.298114
_cell_length_b	16.959454
_cell_length_c	15.298259
_cell_angle_alpha	99.708728
_cell_angle_beta	107.353098
_cell_angle_gamma	99.639900
loop_
_atom_site_label
_atom_site_type_symbol
_atom_site_fract_x
_atom_site_fract_y
_atom_site_fract_z
Zn1	Zn	1.330674	0.473848	-0.279401
Zn2	Zn	1.830674	0.973848	0.220599
Zn3	Zn	1.357466	0.633682	-0.123908
Zn4	Zn	1.857466	1.133682	0.376092
Zn5	Zn	1.202068	0.473896	-0.150856
Zn6	Zn	1.702068	0.973896	0.349144
Zn7	Zn	1.175135	0.578344	-0.306334
Zn8	Zn	1.675135	1.078344	0.193666
O9	O	1.266336	0.539943	-0.215125
O10	O	1.766336	1.039943	0.284875
O11	O	1.464356	0.518190	-0.236226
O12	O	1.964356	1.018190	0.263774
O13	O	1.359336	0.635665	0.002661
O14	O	1.859336	1.135665	0.502661
O15	O	1.219187	0.363287	-0.167914
O16	O	1.719187	0.863287	0.332086
O17	O	1.484040	0.635619	-0.121985
O18	O	1.984040	1.135619	0.378015
O19	O	1.313673	0.363252	-0.262356
O20	O	1.813673	0.863252	0.237644
O21	O	1.245165	0.518271	-0.017138
O22	O	1.745165	1.018271	0.482862
O23	O	1.068367	0.464612	-0.194029
O24	O	1.568367	0.964612	0.305971
O25	O	1.173284	0.541304	-0.432904
O26	O	1.673284	1.041304	0.067096
O27	O	1.048580	0.541350	-0.308259
O28	O	1.548580	1.041350	0.191741
O29	O	1.287558	0.464531	-0.413117
O30	O	1.787558	0.964531	0.086883
O31	O	1.333220	0.736944	-0.148100
O32	O	1.833220	1.236944	0.351900
O33	O	1.199263	0.696288	-0.282128
O34	O	1.699263	1.196288	0.217872
C35	C	1.024733	0.496982	-0.256991
C36	C	1.524733	0.996982	0.243009
C37	C	0.921370	0.478618	-0.274924
C38	C	1.421370	0.978618	0.225076
C39	C	0.671062	0.671156	-0.087185
C40	C	1.171062	1.171156	0.412815
C41	C	0.768178	0.688409	-0.070329
C42	C	1.268178	1.188409	0.429671
C43	C	0.806481	0.635963	-0.121477
C44	C	1.306481	1.135963	0.378523
C45	C	0.747658	0.566260	-0.189482
C46	C	1.247658	1.066260	0.310518
C47	C	0.650534	0.549001	-0.206334
C48	C	1.150534	1.049001	0.293666
C49	C	0.785953	0.513809	-0.240626
C50	C	1.285953	1.013809	0.259374
C51	C	0.727131	0.444105	-0.308632
C52	C	1.227131	0.944105	0.191368
C53	C	0.630016	0.426850	-0.325481
C54	C	1.130016	0.926850	0.174519
C55	C	0.591713	0.479296	-0.274334
C56	C	1.091713	0.979296	0.225666
C57	C	0.883077	0.531068	-0.223774
C58	C	1.383077	1.031068	0.276226
C59	C	0.862549	0.408913	-0.342924
C60	C	1.362549	0.908913	0.157076
C61	C	0.765434	0.391659	-0.359779
C62	C	1.265434	0.891659	0.140221
C63	C	1.266248	0.745295	-0.215128
C64	C	1.766248	1.245295	0.284872
C65	C	1.266290	0.833155	-0.215146
C66	C	1.766290	1.333155	0.284854
C67	C	1.196630	1.183509	-0.284911
C68	C	1.696630	1.683509	0.215089
C69	C	1.336201	1.225784	-0.145427
C70	C	1.836201	1.725784	0.354573
C71	C	1.336176	1.143235	-0.145422
C72	C	1.836176	1.643235	0.354578
C73	C	1.266375	1.080819	-0.215161
C74	C	1.766375	1.580819	0.284839
C75	C	1.196601	1.100951	-0.284906
C76	C	1.696601	1.600951	0.215094
C77	C	1.405943	1.123096	-0.075673
C78	C	1.905943	1.623096	0.424327
C79	C	1.405919	1.040543	-0.075664
C80	C	1.905919	1.540543	0.424336
C81	C	1.336122	0.978125	-0.145408
C82	C	1.836122	1.478125	0.354592
C83	C	1.266346	0.998262	-0.215157
C84	C	1.766346	1.498262	0.284843
C85	C	1.196545	0.935845	-0.284896
C86	C	1.696545	1.435845	0.215104
C87	C	1.126772	0.955980	-0.354649
C88	C	1.626772	1.455980	0.145351
C89	C	1.126804	1.038533	-0.354651
C90	C	1.626804	1.538533	0.145349
C91	C	1.336090	0.895572	-0.145407
C92	C	1.836090	1.395572	0.354593
C93	C	1.196516	0.853288	-0.284891
C94	C	1.696516	1.353288	0.215109
C95	C	1.508882	0.583072	-0.173095
C96	C	2.008882	1.083072	0.326905
C97	C	1.612241	0.601450	-0.155184
C98	C	2.112241	1.101450	0.344816
C99	C	1.224428	0.496739	-0.457699
C100	C	1.724428	0.996739	0.042301
C101	C	1.206570	0.478328	-0.561069
C102	C	1.706570	0.978328	-0.061069
C103	C	1.266430	1.333786	-0.215144
C104	C	1.766430	1.833786	0.284856
C105	C	1.266431	1.245925	-0.215172
C106	C	1.766431	1.745925	0.284828
C107	C	1.394003	0.670923	-0.811213
C108	C	1.894003	1.170923	-0.311213
C109	C	1.410777	0.688225	-0.714092
C110	C	1.910777	1.188225	-0.214092
C111	C	1.359727	0.635753	-0.675831
C112	C	1.859727	1.135753	-0.175831
C113	C	1.291900	0.565975	-0.734702
C114	C	1.791900	1.065975	-0.234702
C115	C	1.275119	0.548675	-0.831833
C116	C	1.775119	1.048675	-0.331833
C117	C	1.240843	0.513504	-0.696451
C118	C	1.740843	1.013504	-0.196451
C119	C	1.173015	0.443726	-0.755322
C120	C	1.673015	0.943726	-0.255322
C121	C	1.156238	0.426429	-0.852443
C122	C	1.656238	0.926429	-0.352443
C123	C	1.207288	0.478902	-0.890704
C124	C	1.707288	0.978902	-0.390704
C125	C	1.257624	0.530804	-0.599320
C126	C	1.757624	1.030804	-0.099320
C127	C	1.138739	0.408556	-0.619940
C128	C	1.638739	0.908556	-0.119940
C129	C	1.121965	0.391254	-0.717061
C130	C	1.621965	0.891254	-0.217061
C131	C	1.308134	0.582931	0.026515
C132	C	1.808134	1.082931	0.526515
C133	C	1.326172	0.601151	0.129916
C134	C	1.826172	1.101151	0.629916
H135	H	0.717527	0.334906	-0.415150
H136	H	1.217527	0.834906	0.084850
F137	F	1.084019	0.352186	-0.915100
F138	F	1.584019	0.852186	-0.415100
H139	H	0.639867	0.713845	-0.045542
H140	H	1.139867	1.213845	0.454458
H141	H	1.435554	0.713644	-0.842376
H142	H	1.935554	1.213644	-0.342376
H143	H	0.930961	0.587821	-0.168403
H144	H	1.430961	1.087821	0.331597
F145	F	0.903309	0.353090	-0.397358
F146	F	1.403309	0.853090	0.102642
F147	F	0.909840	0.654330	-0.103538
F148	F	1.409840	1.154330	0.396462
F149	F	1.049779	0.316994	-0.779726
F150	F	1.549779	0.816994	-0.279726
F151	F	1.084394	0.352713	-0.579227
F152	F	1.584394	0.852713	-0.079227
H153	H	0.816064	0.745161	-0.014958
H154	H	1.316064	1.245161	0.485042
H155	H	0.512634	0.465253	-0.288057
H156	H	1.012634	0.965253	0.211943
F157	F	1.410336	0.874145	-0.071169
F158	F	1.910336	1.374145	0.428831
H159	H	1.069997	1.054935	-0.411439
H160	H	1.569997	1.554935	0.088561
F161	F	1.329809	0.605064	-0.536677
F162	F	1.829809	1.105064	-0.036677
H163	H	0.582126	0.370088	-0.380850
H164	H	1.082126	0.870088	0.119150
F165	F	1.122227	0.786864	-0.359124
F166	F	1.622227	1.286864	0.140876
F167	F	1.480182	1.019121	-0.001432
F168	F	1.980182	1.519121	0.498568
H169	H	1.393025	1.276608	-0.088644
H170	H	1.893025	1.776608	0.411356
F171	F	1.377584	0.654167	-0.572465
F172	F	1.877584	1.154167	-0.072465
H173	H	1.069936	0.905151	-0.411429
H174	H	1.569936	1.405151	0.088571
H175	H	1.193636	0.464817	-0.969786
H176	H	1.693636	0.964817	-0.469786
H177	H	1.139825	1.199907	-0.341705
H178	H	1.639825	1.699907	0.158295
F179	F	1.480227	1.189526	-0.001459
F180	F	1.980227	1.689526	0.498541
F181	F	1.482962	0.762484	-0.651445
F182	F	1.982962	1.262484	-0.151445
