data_functionalizedCrystal
_audit_creation_method	'MofGen! by Chris Wilmer'
_symmetry_space_group_name_H-M	'P1'
_symmetry_Int_Tables_number	1
_symmetry_cell_setting	triclinic
loop_
_symmetry_equiv_pos_as_xyz
  x,y,z
_cell_length_a	10.654554
_cell_length_b	10.654546
_cell_length_c	9.130313
_cell_angle_alpha	90.011114
_cell_angle_beta	89.994119
_cell_angle_gamma	95.514817
loop_
_atom_site_label
_atom_site_type_symbol
_atom_site_fract_x
_atom_site_fract_y
_atom_site_fract_z
O1	O	0.176378	-1.667845	-0.122063
O2	O	0.193188	-1.302366	-0.122010
O3	O	0.002044	-1.493506	-0.122023
O4	O	0.367522	-1.476706	-0.122050
O5	O	0.002039	-1.493492	0.121576
O6	O	0.193183	-1.302353	0.121589
O7	O	0.176372	-1.667832	0.121536
Cu8	Cu	0.184777	-1.485091	0.143805
Cu9	Cu	0.184784	-1.485107	-0.144279
O10	O	0.367516	-1.476692	0.121549
C11	C	0.191952	-1.255562	-0.000203
C12	C	0.188262	-1.116118	-0.000183
C13	C	0.300804	-1.036634	-0.000206
C14	C	0.297329	-0.905613	-0.000220
C15	C	0.068760	-0.933573	-0.000194
C16	C	0.072236	-1.064591	-0.000169
C17	C	0.432767	-1.020491	-0.000228
C18	C	0.429292	-0.889470	-0.000242
C19	C	-0.044756	-1.492264	-0.000223
C20	C	-0.184199	-1.488570	-0.000220
C21	C	-0.366760	-1.369083	-0.000235
C22	C	-0.235738	-1.372554	-0.000217
C23	C	-0.263690	-1.601123	-0.000257
C24	C	-0.394709	-1.597652	-0.000285
C25	C	-0.350621	-1.237120	-0.000206
C26	C	-0.219600	-1.240591	-0.000187
C27	C	0.414317	-1.477934	-0.000255
C28	C	0.553760	-1.481628	-0.000267
C29	C	0.177612	-0.714636	-0.000253
C30	C	0.181311	-0.854078	-0.000222
N31	N	0.184772	-1.485089	0.346427
N32	N	0.184779	-1.485118	-0.346902
C33	C	0.100169	-1.569755	0.423073
C34	C	0.100169	-1.569767	0.576410
C35	C	0.269386	-1.400444	0.576442
C36	C	0.269379	-1.400427	0.423107
H37	H	0.474788	-1.056153	-0.105406
H38	H	-0.221717	-1.695586	-0.000297
H39	H	0.031277	-1.638707	0.638811
Br40	Br	0.512167	-0.819911	-0.170163
H41	H	-0.459418	-1.689297	-0.000328
Br42	Br	0.384195	-1.285506	0.319076
H43	H	0.338273	-1.331515	0.638890
Br44	Br	-0.399526	-1.151107	-0.170105
H45	H	-0.386277	-1.195082	0.104966
H46	H	-0.173931	-1.200721	-0.105356
H47	H	-0.019407	-1.129303	-0.000129
H48	H	0.469171	-0.843793	0.104927
Br49	Br	-0.150035	-1.157718	0.169748
H50	H	-0.025705	-0.891603	-0.000205
Br51	Br	0.518790	-1.069382	0.169674
Br52	Br	-0.014657	-1.684651	0.319013
