data_functionalizedCrystal
_audit_creation_method	'MofGen! by Chris Wilmer'
_symmetry_space_group_name_H-M	'P1'
_symmetry_Int_Tables_number	1
_symmetry_cell_setting	triclinic
loop_
_symmetry_equiv_pos_as_xyz
  x,y,z
_cell_length_a	14.908571
_cell_length_b	19.121063
_cell_length_c	14.910749
_cell_angle_alpha	95.531922
_cell_angle_beta	90.117042
_cell_angle_gamma	89.303906
loop_
_atom_site_label
_atom_site_type_symbol
_atom_site_fract_x
_atom_site_fract_y
_atom_site_fract_z
Zn1	Zn	1.324683	-0.366235	-0.606270
Zn2	Zn	1.658016	-0.032901	-0.272936
Zn3	Zn	1.991350	0.300432	0.060397
Zn4	Zn	1.326685	-0.477336	-0.461641
Zn5	Zn	1.660018	-0.144003	-0.128308
Zn6	Zn	1.993352	0.189330	0.205026
Zn7	Zn	1.183619	-0.352796	-0.446608
Zn8	Zn	1.516952	-0.019463	-0.113274
Zn9	Zn	1.850285	0.313870	0.220059
Zn10	Zn	1.167904	-0.476460	-0.603221
Zn11	Zn	1.501237	-0.143126	-0.269887
Zn12	Zn	1.834570	0.190207	0.063446
O13	O	1.250723	-0.418207	-0.529435
O14	O	1.584056	-0.084873	-0.196101
O15	O	1.917389	0.248460	0.137232
O16	O	1.450435	-0.386963	-0.594652
O17	O	1.783769	-0.053630	-0.261318
O18	O	2.117102	0.279703	0.072015
O19	O	1.315121	-0.455559	-0.333576
O20	O	1.648455	-0.122226	-0.000242
O21	O	1.981788	0.211108	0.333091
O22	O	1.208070	-0.256329	-0.462772
O23	O	1.541403	0.077004	-0.129438
O24	O	1.874737	0.410337	0.203895
O25	O	1.451906	-0.468589	-0.488394
O26	O	1.785239	-0.135256	-0.155060
O27	O	2.118573	0.198077	0.178273
O28	O	1.311710	-0.266202	-0.580075
O29	O	1.645043	0.067131	-0.246741
O30	O	1.978376	0.400465	0.086592
O31	O	1.210011	-0.364060	-0.322531
O32	O	1.543344	-0.030727	0.010802
O33	O	1.876678	0.302607	0.344136
O34	O	1.056048	-0.363210	-0.459815
O35	O	1.389381	-0.029876	-0.126482
O36	O	1.722714	0.303457	0.206851
O37	O	1.181286	-0.467095	-0.729696
O38	O	1.514620	-0.133762	-0.396363
O39	O	1.847953	0.199572	-0.063029
O40	O	1.044502	-0.454065	-0.574878
O41	O	1.377835	-0.120731	-0.241545
O42	O	1.711169	0.212602	0.091788
O43	O	1.296472	-0.386113	-0.731936
O44	O	1.629805	-0.052780	-0.398603
O45	O	1.963138	0.280553	-0.065269
O46	O	1.299883	-0.575470	-0.485437
O47	O	1.633217	-0.242137	-0.152104
O48	O	1.966550	0.091197	0.181229
O49	O	1.183228	-0.574826	-0.589455
O50	O	1.516561	-0.241492	-0.256122
O51	O	1.849894	0.091841	0.077211
C52	C	1.017737	-0.407084	-0.515385
C53	C	1.351071	-0.073751	-0.182052
C54	C	1.684404	0.259582	0.151281
C55	C	0.918063	-0.402344	-0.509397
C56	C	1.251396	-0.069011	-0.176064
C57	C	1.584730	0.264323	0.157270
C58	C	0.718791	-0.488176	-0.617812
C59	C	1.052125	-0.154843	-0.284479
C60	C	1.385458	0.178491	0.048855
C61	C	0.625138	-0.483724	-0.612189
C62	C	0.958471	-0.150391	-0.278856
C63	C	1.291805	0.182942	0.054478
C64	C	0.637101	-0.388986	-0.492532
C65	C	0.970435	-0.055653	-0.159199
C66	C	1.303768	0.277681	0.174134
C67	C	0.730755	-0.393438	-0.498156
C68	C	1.064088	-0.060104	-0.164822
C69	C	1.397421	0.273229	0.168511
C70	C	0.771596	-0.443035	-0.560797
C71	C	1.104929	-0.109702	-0.227463
C72	C	1.438263	0.223632	0.105870
C73	C	0.865251	-0.447490	-0.566415
C74	C	1.198585	-0.114156	-0.233081
C75	C	1.531918	0.219177	0.100252
C76	C	0.877213	-0.352748	-0.446763
C77	C	1.210546	-0.019415	-0.113430
C78	C	1.543879	0.313918	0.219903
C79	C	0.783559	-0.348297	-0.441140
C80	C	1.116893	-0.014963	-0.107807
C81	C	1.450226	0.318370	0.225526
C82	C	1.240091	-0.600625	-0.538768
C83	C	1.573424	-0.267292	-0.205435
C84	C	1.906757	0.066042	0.127899
C85	C	1.235622	-0.678669	-0.542796
C86	C	1.568956	-0.345336	-0.209463
C87	C	1.902289	-0.012003	0.123871
C88	C	1.294302	-0.715651	-0.490582
C89	C	1.627635	-0.382318	-0.157249
C90	C	1.960968	-0.048984	0.176085
C91	C	1.290104	-0.788982	-0.494376
C92	C	1.623438	-0.455649	-0.161042
C93	C	1.956771	-0.122316	0.172291
C94	C	1.227223	-0.825331	-0.550379
C95	C	1.560556	-0.491997	-0.217046
C96	C	1.893890	-0.158664	0.116287
C97	C	1.168541	-0.788344	-0.602599
C98	C	1.501875	-0.455011	-0.269266
C99	C	1.835208	-0.121677	0.064067
C100	C	1.172743	-0.715014	-0.598810
C101	C	1.506077	-0.381681	-0.265476
C102	C	1.839410	-0.048347	0.067857
C103	C	1.211498	-1.046723	-0.564533
C104	C	1.544832	-0.713390	-0.231199
C105	C	1.878165	-0.380057	0.102134
C106	C	1.207299	-1.120058	-0.568316
C107	C	1.540632	-0.786725	-0.234983
C108	C	1.873965	-0.453392	0.098350
C109	C	1.328863	-1.120692	-0.460094
C110	C	1.662197	-0.787358	-0.126760
C111	C	1.995530	-0.454025	0.206573
C112	C	1.333056	-1.047360	-0.456305
C113	C	1.666390	-0.714027	-0.122972
C114	C	1.999723	-0.380694	0.210362
C115	C	1.274378	-1.010380	-0.508528
C116	C	1.607711	-0.677047	-0.175195
C117	C	1.941045	-0.343714	0.158138
C118	C	1.222929	-0.900287	-0.554256
C119	C	1.556263	-0.566954	-0.220923
C120	C	1.889596	-0.233620	0.112410
C121	C	1.278676	-0.935426	-0.504656
C122	C	1.612010	-0.602092	-0.171322
C123	C	1.945343	-0.268759	0.162011
C124	C	1.484618	-0.429373	-0.543540
C125	C	1.817951	-0.096040	-0.210206
C126	C	2.151284	0.237294	0.123127
C127	C	1.584290	-0.434132	-0.549550
C128	C	1.917623	-0.100798	-0.216217
C129	C	2.250956	0.232535	0.117116
C130	C	1.236903	-0.428005	-0.764419
C131	C	1.570236	-0.094672	-0.431085
C132	C	1.903569	0.238661	-0.097752
C133	C	1.231014	-0.432181	-0.864555
C134	C	1.564347	-0.098847	-0.531222
C135	C	1.897680	0.234486	-0.197888
C136	C	1.261419	-0.235078	-0.520086
C137	C	1.594753	0.098255	-0.186753
C138	C	1.928086	0.431588	0.146580
C139	C	1.265978	-0.157040	-0.516102
C140	C	1.599311	0.176293	-0.182769
C141	C	1.932644	0.509627	0.150564
C142	C	1.264543	-0.408398	-0.295365
C143	C	1.597877	-0.075065	0.037968
C144	C	1.931210	0.258268	0.371301
C145	C	1.270618	-0.404033	-0.195230
C146	C	1.603951	-0.070700	0.138103
C147	C	1.937284	0.262634	0.471437
C148	C	1.162896	-0.480823	-0.004320
C149	C	1.496229	-0.147490	0.329014
C150	C	1.829563	0.185844	0.662347
C151	C	1.168600	-0.476724	0.089766
C152	C	1.501934	-0.143390	0.423100
C153	C	1.835267	0.189943	0.756433
C154	C	1.287725	-0.391732	0.087031
C155	C	1.621058	-0.058399	0.420364
C156	C	1.954392	0.274934	0.753698
C157	C	1.282021	-0.395832	-0.007055
C158	C	1.615354	-0.062498	0.326278
C159	C	1.948688	0.270835	0.659611
C160	C	1.219605	-0.440379	-0.052727
C161	C	1.552939	-0.107046	0.280606
C162	C	1.886272	0.226288	0.613939
C163	C	1.213906	-0.444482	-0.146816
C164	C	1.547239	-0.111148	0.186518
C165	C	1.880573	0.222185	0.519851
C166	C	1.333026	-0.359487	-0.149549
C167	C	1.666359	-0.026154	0.183784
C168	C	1.999693	0.307180	0.517117
C169	C	1.338730	-0.355388	-0.055463
C170	C	1.672063	-0.022054	0.277870
C171	C	2.005397	0.311279	0.611204
H172	H	0.603832	-0.348602	-0.441539
H173	H	0.937165	-0.015269	-0.108205
H174	H	1.270498	0.318065	0.225128
H175	H	1.389545	-0.319117	-0.018264
H176	H	1.722878	0.014217	0.315070
H177	H	2.056212	0.347550	0.648403
Br178	Br	0.728123	-0.280985	-0.356138
Br179	Br	1.061457	0.052348	-0.022804
Br180	Br	1.394790	0.385682	0.310529
Br181	Br	0.948882	-0.291490	-0.369370
Br182	Br	1.282215	0.041844	-0.036036
Br183	Br	1.615548	0.375177	0.297297
Br184	Br	1.418409	-0.998037	-0.380310
Br185	Br	1.751743	-0.664703	-0.046976
Br186	Br	2.085076	-0.331370	0.286357
H187	H	1.345502	-0.686061	-0.444974
H188	H	1.678836	-0.352727	-0.111640
H189	H	2.012169	-0.019394	0.221693
Br190	Br	1.091630	-0.531610	0.155461
Br191	Br	1.424964	-0.198277	0.488795
Br192	Br	1.758297	0.135056	0.822128
Br193	Br	0.553476	-0.544986	-0.689574
Br194	Br	0.886809	-0.211653	-0.356241
Br195	Br	1.220142	0.121680	-0.022908
Br196	Br	1.369749	-0.839170	-0.423516
Br197	Br	1.703082	-0.505837	-0.090183
Br198	Br	2.036416	-0.172503	0.243150
Br199	Br	1.408498	-1.170883	-0.389228
Br200	Br	1.741831	-0.837549	-0.055894
Br201	Br	2.075165	-0.504216	0.277439
Br202	Br	1.131863	-0.996546	-0.635408
Br203	Br	1.465196	-0.663212	-0.302075
Br204	Br	1.798530	-0.329879	0.031258
H205	H	1.156103	-1.149652	-0.613938
H206	H	1.489436	-0.816319	-0.280604
H207	H	1.822770	-0.482985	0.052729
H208	H	1.379204	-0.326556	-0.188973
H209	H	1.712538	0.006778	0.144360
H210	H	2.045871	0.340111	0.477694
Br211	Br	1.083208	-0.837673	-0.678613
Br212	Br	1.416542	-0.504340	-0.345280
Br213	Br	1.749875	-0.171007	-0.011947
H214	H	1.124962	-0.684904	-0.641329
H215	H	1.458295	-0.351571	-0.307996
H216	H	1.791629	-0.018238	0.025338
H217	H	1.329878	-0.905829	-0.459061
H218	H	1.663211	-0.572496	-0.125728
H219	H	1.996544	-0.239163	0.207606
H220	H	1.171730	-0.929890	-0.599853
H221	H	1.505063	-0.596556	-0.266519
H222	H	1.838396	-0.263223	0.066814
H223	H	1.163086	-0.480756	-0.184001
H224	H	1.496419	-0.147423	0.149333
H225	H	1.829753	0.185911	0.482666
H226	H	0.898503	-0.487875	-0.617419
H227	H	1.231836	-0.154542	-0.284086
H228	H	1.565169	0.178791	0.049248
H229	H	1.112080	-0.517100	-0.041507
H230	H	1.445414	-0.183767	0.291826
H231	H	1.778747	0.149567	0.625159
Br232	Br	0.774224	-0.555493	-0.702810
Br233	Br	1.107557	-0.222160	-0.369476
Br234	Br	1.440891	0.111173	-0.036143
H235	H	1.338536	-0.355460	0.124234
H236	H	1.671870	-0.022127	0.457567
H237	H	2.005203	0.311206	0.790901
