data_functionalizedCrystal
_audit_creation_method	'MofGen! by Chris Wilmer'
_symmetry_space_group_name_H-M	'P1'
_symmetry_Int_Tables_number	1
_symmetry_cell_setting	triclinic
loop_
_symmetry_equiv_pos_as_xyz
  x,y,z
_cell_length_a	12.811445
_cell_length_b	12.837942
_cell_length_c	15.455313
_cell_angle_alpha	92.949088
_cell_angle_beta	81.881657
_cell_angle_gamma	89.412982
loop_
_atom_site_label
_atom_site_type_symbol
_atom_site_fract_x
_atom_site_fract_y
_atom_site_fract_z
O1	O	1.417209	0.128222	-0.183602
O2	O	1.917209	0.628222	0.316398
O3	O	1.111761	0.144908	-0.159578
O4	O	1.611761	0.644908	0.340422
O5	O	1.257712	-0.014333	-0.171052
O6	O	1.757712	0.485667	0.328948
O7	O	1.271258	0.287464	-0.172128
O8	O	1.771258	0.787464	0.327872
O9	O	1.249362	-0.005264	-0.026133
O10	O	1.749362	0.494736	0.473867
O11	O	1.103411	0.153977	-0.014660
O12	O	1.603411	0.653977	0.485340
O13	O	1.408859	0.137291	-0.038683
O14	O	1.908859	0.637291	0.461317
Cu15	Cu	1.255373	0.146462	-0.013439
Cu16	Cu	1.755373	0.646462	0.486561
Cu17	Cu	1.265247	0.135737	-0.184822
Cu18	Cu	1.765247	0.635737	0.315178
O19	O	1.262908	0.296532	-0.027210
O20	O	1.762908	0.796532	0.472790
C21	C	1.068219	0.148784	-0.084023
C22	C	1.568219	0.648784	0.415977
C23	C	0.950915	0.146810	-0.074797
C24	C	1.450915	0.646810	0.425203
C25	C	0.739590	0.133234	-0.215466
C26	C	1.239590	0.633234	0.284534
C27	C	0.629373	0.131379	-0.206802
C28	C	1.129373	0.631379	0.293198
C29	C	0.620262	0.141255	-0.048803
C30	C	1.120262	0.641255	0.451197
C31	C	0.730479	0.143109	-0.057468
C32	C	1.230479	0.643109	0.442532
C33	C	0.790139	0.139097	-0.140802
C34	C	1.290139	0.639097	0.359198
C35	C	0.900359	0.140944	-0.149466
C36	C	1.400359	0.640944	0.350534
C37	C	0.891245	0.150827	0.008532
C38	C	1.391245	0.650827	0.508532
C39	C	0.781028	0.148972	0.017197
C40	C	1.281028	0.648972	0.517197
C41	C	1.248961	-0.048417	-0.098233
C42	C	1.748961	0.451583	0.401767
C43	C	1.235313	-0.163486	-0.097161
C44	C	1.735313	0.336514	0.402839
C45	C	1.399386	-0.404545	-0.110084
C46	C	1.899386	0.095455	0.389916
C47	C	1.386568	-0.512663	-0.109077
C48	C	1.886568	-0.012663	0.390923
C49	C	1.196859	-0.487842	-0.094147
C50	C	1.696859	0.012158	0.405853
C51	C	1.209678	-0.379724	-0.095154
C52	C	1.709678	0.120276	0.404846
C53	C	1.310944	-0.338080	-0.103121
C54	C	1.810944	0.161920	0.396879
C55	C	1.323761	-0.229959	-0.104122
C56	C	1.823761	0.270041	0.395878
C57	C	1.134054	-0.205141	-0.089198
C58	C	1.634054	0.294859	0.410802
C59	C	1.121235	-0.313259	-0.088192
C60	C	1.621235	0.186741	0.411808
C61	C	1.452401	0.133415	-0.114241
C62	C	1.952401	0.633415	0.385759
C63	C	1.569705	0.135388	-0.123472
C64	C	2.069705	0.635388	0.376528
C65	C	1.271659	0.330616	-0.100030
C66	C	1.771659	0.830616	0.399970
C67	C	1.285308	0.445684	-0.101108
C68	C	1.785308	0.945684	0.398892
N69	N	1.248435	0.154004	0.107102
N70	N	1.748435	0.654004	0.607102
N71	N	1.272193	0.128186	-0.305364
N72	N	1.772193	0.628186	0.194636
C73	C	1.310466	0.086378	0.147619
C74	C	1.810466	0.586378	0.647619
C75	C	1.305230	0.092092	0.238839
C76	C	1.805230	0.592092	0.738839
C77	C	1.237968	0.165437	0.289539
C78	C	1.737968	0.665437	0.789539
C79	C	1.175930	0.233067	0.249015
C80	C	1.675930	0.733067	0.749015
C81	C	1.181161	0.227347	0.157798
C82	C	1.681161	0.727347	0.657798
C83	C	1.215385	0.190096	0.562895
C84	C	1.715385	0.690096	1.062895
C85	C	1.210161	0.195813	0.654119
C86	C	1.710161	0.695813	1.154119
C87	C	1.339461	0.054836	0.643936
C88	C	1.839461	0.554836	1.143936
C89	C	1.344691	0.049127	0.552717
C90	C	1.844691	0.549127	1.052717
C91	C	1.282649	0.116753	0.512202
C92	C	1.782649	0.616753	1.012202
N93	N	1.232617	0.171282	0.382780
N94	N	1.732617	0.671282	0.882780
N95	N	1.287995	0.110903	0.418963
N96	N	1.787995	0.610903	0.918963
H97	H	0.571667	0.144531	0.019044
H98	H	1.071667	0.644531	0.519044
H99	H	1.399461	-0.010597	0.511439
H100	H	1.899461	0.489403	1.011439
H101	H	1.038787	-0.347182	-0.081708
H102	H	1.538787	0.152818	0.418292
O103	O	1.432980	-0.185037	-0.112715
O104	O	1.932980	0.314963	0.387285
H105	H	1.446748	-0.140056	-0.172593
H106	H	1.946748	0.359944	0.327407
H107	H	1.062037	-0.151012	-0.083522
H108	H	1.562037	0.348988	0.416478
H109	H	1.389972	-0.000223	0.676932
H110	H	1.889972	0.499777	1.176932
H111	H	1.114413	-0.521770	-0.087670
H112	H	1.614413	-0.021770	0.412330
O113	O	0.945770	0.157185	0.089067
O114	O	1.445770	0.657185	0.589067
H115	H	0.885764	0.159667	0.148467
H116	H	1.385764	0.659667	0.648467
H117	H	1.121157	0.292783	0.290301
H118	H	1.621157	0.792783	0.790301
O119	O	1.114262	0.300291	0.114089
O120	O	1.614262	0.800291	0.614089
H121	H	1.066619	0.352262	0.164666
H122	H	1.566619	0.852262	0.664666
O123	O	0.964719	0.136615	-0.239341
O124	O	1.464719	0.636615	0.260659
H125	H	0.943456	0.204508	-0.275374
H126	H	1.443456	0.704508	0.224626
H127	H	1.481841	-0.370637	-0.116562
H128	H	1.981841	0.129363	0.383438
H129	H	0.788167	0.129961	-0.283321
H130	H	1.288167	0.629961	0.216679
H131	H	1.155385	0.255544	0.695395
H132	H	1.655385	0.755544	1.195395
H133	H	1.458587	-0.566776	-0.114749
H134	H	1.958587	-0.066776	0.385251
H135	H	1.365243	0.026656	0.106344
H136	H	1.865243	0.526656	0.606344
H137	H	1.164870	0.245162	0.529915
H138	H	1.664870	0.745162	1.029915
O139	O	1.372159	0.019163	0.282531
O140	O	1.872159	0.519163	0.782531
H141	H	1.351627	-0.062745	0.266723
H142	H	1.851627	0.437255	0.766723
O143	O	0.574848	0.125026	-0.287330
O144	O	1.074848	0.625026	0.212670
H145	H	0.634854	0.122531	-0.346730
H146	H	1.134854	0.622531	0.153270
H147	H	0.732438	0.152243	0.085045
H148	H	1.232438	0.652243	0.585045
