data_functionalizedCrystal
_audit_creation_method	'MofGen! by Chris Wilmer'
_symmetry_space_group_name_H-M	'P1'
_symmetry_Int_Tables_number	1
_symmetry_cell_setting	triclinic
loop_
_symmetry_equiv_pos_as_xyz
  x,y,z
_cell_length_a	14.853566
_cell_length_b	17.019294
_cell_length_c	13.930277
_cell_angle_alpha	86.116472
_cell_angle_beta	89.995631
_cell_angle_gamma	83.514243
loop_
_atom_site_label
_atom_site_type_symbol
_atom_site_fract_x
_atom_site_fract_y
_atom_site_fract_z
O1	O	1.196090	0.102985	-0.088279
O2	O	0.933597	0.115254	-0.089309
O3	O	1.072165	-0.005705	-0.079297
O4	O	1.057521	0.223944	-0.098291
O5	O	1.072146	-0.005708	0.080365
O6	O	0.933578	0.115252	0.070353
O7	O	1.196071	0.102982	0.071383
Zn8	Zn	1.064821	0.109116	0.096218
Zn9	Zn	1.064846	0.109120	-0.114144
O10	O	1.057502	0.223942	0.061371
C11	C	0.900000	0.114697	-0.009434
C12	C	0.799921	0.113032	-0.009302
C13	C	0.376765	0.105989	-0.095735
C14	C	0.376766	0.105987	0.078335
C15	C	0.470796	0.107551	0.078203
C16	C	0.517815	0.108335	-0.008900
C17	C	0.470804	0.107555	-0.095870
C18	C	0.517812	0.108338	0.165171
C19	C	0.611848	0.109903	0.165042
C20	C	0.658869	0.110682	0.077939
C21	C	0.611853	0.109901	-0.009035
C22	C	0.658872	0.110686	-0.096137
C23	C	0.611858	0.109900	-0.183111
C24	C	0.517825	0.108334	-0.182973
C25	C	0.752902	0.112247	0.077800
C26	C	0.752910	0.112252	-0.096273
C27	C	1.071600	-0.035096	0.002963
C28	C	1.069934	-0.122669	0.010199
C29	C	1.069164	-0.163804	-0.073432
C30	C	1.067592	-0.246087	-0.066630
C31	C	1.066798	-0.287233	0.023805
C32	C	1.067565	-0.246092	0.107443
C33	C	1.069130	-0.163810	0.100639
C34	C	1.062066	-0.535671	0.048701
C35	C	1.060504	-0.617959	0.055498
C36	C	1.060529	-0.617949	-0.118576
C37	C	1.062099	-0.535666	-0.125371
C38	C	1.062862	-0.494531	-0.041733
C39	C	1.065194	-0.371340	0.030760
C40	C	1.064459	-0.410425	-0.048690
C41	C	1.229667	0.103539	-0.008494
C42	C	1.329747	0.105205	-0.008632
C43	C	1.058067	0.253333	-0.020891
C44	C	1.059733	0.340905	-0.028134
N45	N	1.064810	0.109114	0.239784
N46	N	1.064864	0.109116	-0.257710
C47	C	1.003486	0.162660	0.687621
C48	C	1.126232	0.055574	0.696454
C49	C	1.126221	0.055571	0.595959
C50	C	1.064843	0.109115	0.541290
C51	C	1.003475	0.162660	0.587116
C52	C	1.187594	0.002032	0.550124
C53	C	1.187586	0.002028	0.449623
C54	C	1.126203	0.055568	0.394952
C55	C	1.064832	0.109115	0.440785
C56	C	1.003453	0.162659	0.386116
C57	C	0.942078	0.216203	0.431947
C58	C	0.942092	0.216201	0.532446
C59	C	1.126189	0.055570	0.294453
C60	C	1.003443	0.162659	0.285610
H61	H	0.338477	0.105353	0.149249
O62	O	1.062825	-0.495816	-0.213296
C63	C	1.061831	-0.549771	-0.285655
H64	H	1.032183	-0.605191	-0.255562
H65	H	1.133959	-0.566717	-0.311010
C66	C	1.039772	-0.442886	-0.408057
C67	C	1.003352	-0.510951	-0.371099
H68	H	1.003704	-0.418940	-0.460765
H69	H	1.040446	-0.406534	-0.359309
H70	H	1.099879	-0.457017	-0.429179
H71	H	0.943251	-0.496818	-0.349967
H72	H	1.002667	-0.547299	-0.419846
H73	H	0.791186	0.112888	-0.167203
H74	H	1.069745	-0.130316	0.168741
H75	H	0.479538	0.107693	-0.253782
H76	H	0.791175	0.112895	0.148612
O77	O	0.882581	0.268248	0.378728
C78	C	0.930795	0.317005	0.316575
H79	H	1.001381	0.285700	0.304108
H80	H	0.936838	0.375318	0.350480
C81	C	0.793255	0.372228	0.235036
C82	C	0.879947	0.333777	0.219718
H83	H	0.761889	0.382577	0.175291
H84	H	0.760771	0.339382	0.276912
H85	H	0.798303	0.420818	0.263293
H86	H	0.874898	0.285184	0.191473
H87	H	0.912430	0.366615	0.177835
O88	O	1.247083	-0.050053	0.603285
C89	C	1.198862	-0.098778	0.665472
H90	H	1.127773	-0.100225	0.635303
H91	H	1.194097	-0.074091	0.739593
C92	C	1.335969	-0.181620	0.711082
C93	C	1.248658	-0.183402	0.674024
H94	H	1.366687	-0.233819	0.716362
H95	H	1.368458	-0.148791	0.669189
H96	H	1.331986	-0.161044	0.772846
H97	H	1.252643	-0.203969	0.612256
H98	H	1.216172	-0.216237	0.715907
H99	H	1.176209	0.011984	0.740969
O100	O	0.657620	0.110771	-0.267668
C101	C	0.701688	0.179955	-0.278605
H102	H	0.712327	0.202950	-0.204939
H103	H	0.658240	0.227150	-0.325464
C104	C	0.781082	0.132473	-0.417240
C105	C	0.794155	0.160711	-0.326762
H106	H	0.838118	0.120604	-0.446949
H107	H	0.751390	0.085863	-0.409875
H108	H	0.744872	0.171806	-0.456277
H109	H	0.830355	0.121374	-0.287722
H110	H	0.823855	0.207314	-0.334122
O111	O	0.331039	0.105367	-0.180203
C112	C	0.266329	0.172713	-0.190969
H113	H	0.287464	0.220898	-0.145566
H114	H	0.197392	0.156089	-0.166209
C115	C	0.234258	0.144462	-0.353274
C116	C	0.260221	0.203647	-0.297516
H117	H	0.230486	0.163542	-0.418997
H118	H	0.277852	0.099088	-0.346021
H119	H	0.176813	0.130614	-0.332629
H120	H	0.317669	0.217487	-0.318153
H121	H	0.216636	0.249024	-0.304775
H122	H	1.176164	0.011979	0.257142
H123	H	0.479522	0.107705	0.236084
O124	O	1.066926	-0.285933	-0.147965
C125	C	1.067966	-0.231973	-0.229243
H126	H	1.097574	-0.176545	-0.208289
H127	H	0.995856	-0.215043	-0.257454
C128	C	1.090151	-0.338852	-0.333959
C129	C	1.126523	-0.270776	-0.308225
H130	H	1.126268	-0.362787	-0.382681
H131	H	1.089447	-0.375206	-0.279202
H132	H	1.030060	-0.324734	-0.357463
H133	H	1.186608	-0.284896	-0.284711
H134	H	1.127239	-0.234425	-0.362980
H135	H	1.066913	-0.279599	0.181077
H136	H	0.650119	0.110542	0.235862
H137	H	1.069816	-0.130309	-0.147074
O138	O	1.064317	-0.411390	0.118549
C139	C	0.985363	-0.450127	0.126971
H140	H	0.959105	-0.459488	0.052180
H141	H	0.931319	-0.412232	0.166806
C142	C	1.039842	-0.519487	0.275252
C143	C	1.007596	-0.530991	0.183392
H144	H	1.053554	-0.569367	0.310059
H145	H	1.093033	-0.493388	0.269581
H146	H	0.994800	-0.487906	0.308435
H147	H	1.052641	-0.562563	0.150207
H148	H	0.954412	-0.557098	0.189059
H149	H	1.059852	-0.651458	0.129144
O150	O	1.059613	-0.657931	-0.199783
C151	C	0.980674	-0.696691	-0.201763
H152	H	0.926600	-0.665704	-0.154936
H153	H	0.997127	-0.761050	-0.173049
C154	C	1.011677	-0.732007	-0.363483
C155	C	0.945261	-0.693944	-0.305975
H156	H	0.989834	-0.730317	-0.427765
H157	H	1.064862	-0.705897	-0.362148
H158	H	1.025383	-0.785636	-0.339543
H159	H	0.931565	-0.640314	-0.329908
H160	H	0.892073	-0.720046	-0.307316
H161	H	0.953457	0.206258	0.241105
H162	H	1.065100	-0.376920	-0.122321
H163	H	0.892122	0.259795	0.569767
O164	O	1.062942	-0.495641	0.129871
C165	C	1.141901	-0.456911	0.131880
H166	H	1.168156	-0.447536	0.055536
H167	H	1.195944	-0.494817	0.177965
C168	C	1.087434	-0.387577	0.268715
C169	C	1.119677	-0.376056	0.174947
H170	H	1.073727	-0.337703	0.295285
H171	H	1.034239	-0.413672	0.267364
H172	H	1.132475	-0.419168	0.307107
H173	H	1.074632	-0.344475	0.136554
H174	H	1.172863	-0.349954	0.176292
O175	O	0.943832	0.214562	0.732252
C176	C	0.888262	0.172223	0.793876
H177	H	0.924252	0.110552	0.814028
H178	H	0.821641	0.166757	0.755606
C179	C	0.824737	0.292410	0.860917
C180	C	0.868943	0.216667	0.885674
H181	H	0.812815	0.319826	0.917541
H182	H	0.862172	0.320935	0.819397
H183	H	0.769224	0.287844	0.829024
H184	H	0.924459	0.221234	0.917556
H185	H	0.831517	0.188144	0.927202
O186	O	1.247232	-0.050063	0.405263
C187	C	1.301423	-0.097305	0.475066
H188	H	1.264474	-0.098251	0.546793
H189	H	1.368360	-0.071585	0.483607
C190	C	1.365491	-0.181216	0.354789
C191	C	1.320106	-0.182383	0.442884
H192	H	1.377020	-0.233694	0.334937
H193	H	1.328984	-0.149386	0.307760
H194	H	1.421267	-0.159778	0.361918
H195	H	1.264327	-0.203810	0.435751
H196	H	1.356604	-0.214218	0.489911
