data_functionalizedCrystal
_audit_creation_method	'MofGen! by Chris Wilmer'
_symmetry_space_group_name_H-M	'P1'
_symmetry_Int_Tables_number	1
_symmetry_cell_setting	triclinic
loop_
_symmetry_equiv_pos_as_xyz
  x,y,z
_cell_length_a	16.625548
_cell_length_b	16.120484
_cell_length_c	16.120704
_cell_angle_alpha	84.364775
_cell_angle_beta	87.110717
_cell_angle_gamma	92.926626
loop_
_atom_site_label
_atom_site_type_symbol
_atom_site_fract_x
_atom_site_fract_y
_atom_site_fract_z
Zn1	Zn	1.191057	-0.356910	0.489465
Zn2	Zn	1.190983	-0.489549	0.356773
Zn3	Zn	1.063450	-0.349795	0.349708
Zn4	Zn	1.048983	-0.496646	0.496498
O5	O	1.123618	-0.423225	0.423111
O6	O	1.303878	-0.374512	0.471876
O7	O	1.180089	-0.465063	0.238871
O8	O	1.086463	-0.233771	0.362347
O9	O	1.303824	-0.471962	0.374388
O10	O	1.180215	-0.238998	0.465026
O11	O	1.086391	-0.362387	0.233681
O12	O	0.948699	-0.369268	0.369167
O13	O	1.061806	-0.484057	0.612530
O14	O	0.938070	-0.477158	0.477013
O15	O	1.166187	-0.381393	0.607363
O16	O	1.166061	-0.607458	0.381208
O17	O	1.061734	-0.612672	0.483863
C18	C	0.914129	-0.423212	0.423087
C19	C	0.824506	-0.423227	0.423098
C20	C	0.496329	-0.423235	0.423134
C21	C	0.587638	-0.423230	0.423121
C22	C	0.660415	-0.423231	0.423115
C23	C	0.751730	-0.423226	0.423104
C24	C	1.112340	-0.640394	0.434083
C25	C	1.107588	-0.733302	0.438805
C26	C	1.098915	-0.903405	0.447444
C27	C	1.148464	-0.942205	0.398792
C28	C	1.143639	-1.036856	0.403599
C29	C	1.103740	-0.808745	0.442638
C30	C	1.333925	-0.423239	0.423136
C31	C	1.423545	-0.423245	0.423146
C32	C	1.112391	-0.434310	0.641122
C33	C	1.107606	-0.439034	0.734025
C34	C	1.134961	-0.205208	0.412114
C35	C	1.139794	-0.112303	0.407428
C36	C	1.148361	-0.398917	0.942954
C37	C	1.098846	-0.447624	0.904113
C38	C	1.103722	-0.442843	0.809467
C39	C	1.143486	-0.403697	1.037609
C40	C	1.134799	-0.412210	1.205950
C41	C	1.139598	-0.407509	1.113048
H42	H	1.052874	-0.941271	0.492701
C43	C	1.255379	-0.293669	0.946161
C44	C	1.210533	-0.337784	0.891896
H45	H	1.293758	-0.255928	0.914630
H46	H	1.282602	-0.331776	0.982063
H47	H	1.220190	-0.263375	0.978581
H48	H	1.245722	-0.368083	0.859480
H49	H	1.183308	-0.299672	0.855980
H50	H	1.052788	-0.492909	0.941940
H51	H	1.194508	-0.904336	0.353530
