data_functionalizedCrystal
_audit_creation_method	'MofGen! by Chris Wilmer'
_symmetry_space_group_name_H-M	'P1'
_symmetry_Int_Tables_number	1
_symmetry_cell_setting	triclinic
loop_
_symmetry_equiv_pos_as_xyz
  x,y,z
_cell_length_a	19.288864
_cell_length_b	10.654550
_cell_length_c	18.366186
_cell_angle_alpha	89.994973
_cell_angle_beta	89.977106
_cell_angle_gamma	83.810575
loop_
_atom_site_label
_atom_site_type_symbol
_atom_site_fract_x
_atom_site_fract_y
_atom_site_fract_z
O1	O	0.922379	0.156657	-0.060782
O2	O	0.720256	0.177789	-0.060732
O3	O	0.825965	-0.015616	-0.060755
O4	O	0.816670	0.350062	-0.060758
O5	O	0.825946	-0.015625	0.060344
O6	O	0.720238	0.177780	0.060368
O7	O	0.922360	0.156647	0.060318
Zn8	Zn	0.821296	0.167212	0.079570
Zn9	Zn	0.821320	0.167224	-0.079984
O10	O	0.816652	0.350052	0.060341
C11	C	0.694366	0.177105	-0.000176
C12	C	0.617249	0.175063	-0.000156
C13	C	0.573296	0.288545	-0.000169
C14	C	0.500836	0.286627	-0.000177
C15	C	0.472333	0.171222	-0.000187
C16	C	0.516296	0.057725	-0.000171
C17	C	0.588754	0.059646	-0.000155
C18	C	0.363484	0.080503	-0.042637
C19	C	0.291027	0.078587	-0.042657
C20	C	0.248849	0.165292	-0.000231
C21	C	0.279136	0.253935	0.042205
C22	C	0.351594	0.255855	0.042221
C23	C	0.393766	0.169126	-0.000203
C24	C	0.126326	0.276702	-0.000251
C25	C	0.053865	0.274779	-0.000255
C26	C	0.069327	0.045875	-0.000256
C27	C	0.141786	0.047800	-0.000245
C28	C	0.170281	0.163217	-0.000246
C29	C	0.825273	-0.062404	-0.000206
C30	C	0.823231	-0.201803	-0.000208
C31	C	0.885471	-0.282621	-0.000221
C32	C	0.883548	-0.413601	-0.000226
C33	C	0.757141	-0.382932	-0.000201
C34	C	0.759065	-0.251955	-0.000202
C35	C	0.949637	-0.232470	-0.000228
C36	C	1.011882	-0.313290	-0.000240
C37	C	1.009959	-0.444269	-0.000245
C38	C	0.945792	-0.494429	-0.000237
C39	C	0.948250	0.157332	-0.000240
C40	C	1.025367	0.159373	-0.000264
C41	C	0.817344	0.396840	-0.000209
C42	C	0.819385	0.536240	-0.000212
N43	N	0.821285	0.167203	0.188461
N44	N	0.821337	0.167224	-0.188875
C45	C	0.868108	0.081605	0.226551
C46	C	0.868113	0.081599	0.302779
C47	C	0.821300	0.167213	0.340914
C48	C	0.774468	0.252817	0.302815
C49	C	0.774461	0.252812	0.226588
C50	C	0.812752	0.281634	0.461675
C51	C	0.812764	0.281641	0.537899
C52	C	0.821320	0.167229	0.576021
C53	C	0.829879	0.052804	0.537909
C54	C	0.829871	0.052799	0.461682
C55	C	0.821303	0.167228	0.423569
C56	C	0.868151	0.081618	0.696766
C57	C	0.868151	0.081610	0.772995
C58	C	0.774509	0.252840	0.773030
C59	C	0.774507	0.252836	0.696802
C60	C	0.821331	0.167226	0.658675
H61	H	0.149528	0.370681	-0.000241
C62	C	0.409872	-0.014880	-0.089316
N63	N	0.444811	-0.086720	-0.124474
C64	C	0.943681	-0.638513	-0.000246
N65	N	0.942092	-0.747035	-0.000250
H66	H	0.704899	-0.423784	-0.000194
C67	C	0.037978	-0.081073	-0.000266
N68	N	0.014362	-0.176694	-0.000273
C69	C	0.722979	0.347035	0.184688
N70	N	0.684214	0.418026	0.153128
H71	H	0.708384	-0.186150	-0.000190
C72	C	1.082462	-0.258110	-0.000249
N73	N	1.135624	-0.216550	-0.000255
H74	H	1.060642	-0.510069	-0.000262
C75	C	0.919651	-0.012580	0.814894
N76	N	0.958439	-0.083532	0.846453
H77	H	0.736381	0.322543	0.665787
C78	C	0.919631	-0.012556	0.344686
N79	N	0.958438	-0.083470	0.376249
H80	H	0.736391	0.322543	0.804079
C81	C	0.919610	-0.012581	0.184616
N82	N	0.958399	-0.083526	0.153029
C83	C	0.803343	0.407509	0.579816
N84	N	0.796243	0.502316	0.611386
H85	H	0.951210	-0.125822	-0.000222
C86	C	0.484941	-0.069221	-0.000183
N87	N	0.461325	-0.164841	-0.000190
C88	C	0.803339	0.407505	0.419748
N89	N	0.796249	0.502309	0.388170
C90	C	0.839276	-0.073065	0.419762
N91	N	0.846355	-0.167868	0.388187
H92	H	0.465043	0.379040	-0.000185
C93	C	0.839289	-0.073060	0.579837
N94	N	0.846378	-0.167858	0.611421
H95	H	0.177574	-0.044609	-0.000239
C96	C	0.919652	-0.012565	0.654824
N97	N	0.958442	-0.083507	0.623235
C98	C	0.232745	0.349314	0.088881
N99	N	0.197801	0.421152	0.124035
H100	H	0.736352	0.322524	0.333868
H101	H	0.376250	0.328027	0.076776
C102	C	0.604636	0.415507	-0.000156
N103	N	0.628243	0.511137	-0.000141
H104	H	0.624542	-0.032767	-0.000146
C105	C	0.257719	-0.018927	-0.089333
N106	N	0.232633	-0.092383	-0.124487
H107	H	0.018079	0.367194	-0.000261
