data_functionalizedCrystal
_audit_creation_method	'MofGen! by Chris Wilmer'
_symmetry_space_group_name_H-M	'P1'
_symmetry_Int_Tables_number	1
_symmetry_cell_setting	triclinic
loop_
_symmetry_equiv_pos_as_xyz
  x,y,z
_cell_length_a	11.169417
_cell_length_b	12.594516
_cell_length_c	11.169417
_cell_angle_alpha	90.006626
_cell_angle_beta	90.000863
_cell_angle_gamma	90.016931
loop_
_atom_site_label
_atom_site_type_symbol
_atom_site_fract_x
_atom_site_fract_y
_atom_site_fract_z
Zn1	Zn	1.834690	-0.423891	0.678550
Zn2	Zn	1.834626	-0.601840	0.477871
Zn3	Zn	1.634042	-0.423879	0.477885
Zn4	Zn	1.633963	-0.601830	0.678516
O5	O	1.734330	-0.512860	0.578205
O6	O	2.002631	-0.447505	0.651938
O7	O	1.808024	-0.578232	0.309923
O8	O	1.660719	-0.274935	0.504524
O9	O	2.002584	-0.578244	0.504500
O10	O	1.808134	-0.274943	0.651952
O11	O	1.660656	-0.447485	0.309933
O12	O	1.466082	-0.447475	0.504490
O13	O	1.660584	-0.578227	0.846470
O14	O	1.466024	-0.578216	0.651893
O15	O	1.808057	-0.447496	0.846495
O16	O	1.807948	-0.750785	0.504466
O17	O	1.660522	-0.750777	0.651879
C18	C	1.422506	-0.512844	0.578190
C19	C	1.289106	-0.512863	0.578212
C20	C	1.734252	-0.789401	0.578194
C21	C	1.734328	-0.907706	0.578229
C22	C	1.654135	-0.976994	0.658350
C23	C	1.624925	-1.047827	0.548837
C24	C	1.763647	-1.047673	0.687761
C25	C	1.705060	-0.976981	0.468658
C26	C	1.843833	-0.976821	0.607655
C27	C	1.814665	-1.047621	0.498066
C28	C	2.047373	-0.512877	0.578222
C29	C	2.180773	-0.512884	0.578228
C30	C	1.734319	-0.512862	0.891248
C31	C	1.734314	-0.512862	1.024648
C32	C	1.734442	-0.235239	0.578243
C33	C	1.734490	-0.116934	0.578260
C34	C	1.734328	-0.512878	1.266381
C35	C	1.734317	-0.512864	1.132981
H36	H	1.586198	-0.945981	0.726008
F37	F	1.503974	-1.088591	0.516310
H38	H	1.680220	-0.946058	0.376015
F39	F	1.903399	-1.087901	0.409423
F40	F	1.964751	-0.936024	0.640222
F41	F	1.795974	-1.088264	0.808816
