data_functionalizedCrystal
_audit_creation_method	'MofGen! by Chris Wilmer'
_symmetry_space_group_name_H-M	'P1'
_symmetry_Int_Tables_number	1
_symmetry_cell_setting	triclinic
loop_
_symmetry_equiv_pos_as_xyz
  x,y,z
_cell_length_a	13.897449
_cell_length_b	12.645329
_cell_length_c	13.897441
_cell_angle_alpha	90.028679
_cell_angle_beta	90.023394
_cell_angle_gamma	90.018804
loop_
_atom_site_label
_atom_site_type_symbol
_atom_site_fract_x
_atom_site_fract_y
_atom_site_fract_z
Zn1	Zn	1.474701	-0.421982	0.545463
Zn2	Zn	1.474594	-0.599278	0.384169
Zn3	Zn	1.313390	-0.422031	0.384173
Zn4	Zn	1.313371	-0.599207	0.545414
O5	O	1.394014	-0.510624	0.464805
O6	O	1.609668	-0.445510	0.524085
O7	O	1.453173	-0.575816	0.249188
O8	O	1.334841	-0.273677	0.405591
O9	O	1.609590	-0.575768	0.405584
O10	O	1.453355	-0.273641	0.524089
O11	O	1.334737	-0.445594	0.249191
O12	O	1.178406	-0.445525	0.405544
O13	O	1.334808	-0.575647	0.680403
O14	O	1.178392	-0.575695	0.524007
O15	O	1.453337	-0.445441	0.680438
O16	O	1.453155	-0.747615	0.405537
O17	O	1.334705	-0.747563	0.524003
C18	C	1.143399	-0.510608	0.464771
C19	C	1.036186	-0.510627	0.464780
C20	C	0.949116	-0.510630	0.464796
C21	C	0.839883	-0.510638	0.464825
C22	C	1.393942	-0.786054	0.464785
C23	C	1.394000	-0.903884	0.464809
C24	C	1.319448	-0.948778	0.539293
C25	C	1.319757	-1.071337	0.539616
C26	C	1.495839	-1.071648	0.492206
C27	C	1.495318	-0.949050	0.492716
C28	C	1.367789	-0.949180	0.362807
C29	C	1.365635	-1.071788	0.363381
C30	C	1.645607	-0.510642	0.464839
C31	C	1.752821	-0.510649	0.464854
C32	C	1.394082	-0.510531	0.716398
C33	C	1.394111	-0.510491	0.823612
C34	C	1.394112	-0.234119	0.464846
C35	C	1.394154	-0.116289	0.464863
C36	C	1.394001	-0.510641	0.214191
C37	C	1.394159	-0.510383	0.106977
C38	C	1.394138	-0.510419	1.019907
C39	C	1.394120	-0.510462	0.910675
H40	H	1.244364	-1.101527	0.522526
N41	N	1.439699	-0.910724	0.289287
H42	H	1.506272	-0.935411	0.307854
H43	H	1.438432	-0.830913	0.286886
H44	H	1.552947	-1.100757	0.439639
H45	H	1.518454	-1.102269	0.565959
N46	N	1.342157	-0.907890	0.638850
H47	H	1.285434	-0.866464	0.664180
H48	H	1.400555	-0.860449	0.635851
N49	N	1.219204	-0.909875	0.516914
H50	H	1.221140	-0.862768	0.458279
H51	H	1.193643	-0.868549	0.573609
H52	H	1.552776	-0.919344	0.440812
H53	H	1.415990	-1.102403	0.304949
N54	N	1.271183	-0.908369	0.329751
H55	H	1.243429	-0.860097	0.380568
H56	H	1.226155	-0.969926	0.318835
H57	H	1.337203	-1.100588	0.615204
H58	H	1.517505	-0.920372	0.567273
N59	N	1.266577	-1.110596	0.335979
H60	H	1.240268	-1.156796	0.389080
H61	H	1.270779	-1.152867	0.274446
