data_functionalizedCrystal
_audit_creation_method	'MofGen! by Chris Wilmer'
_symmetry_space_group_name_H-M	'P1'
_symmetry_Int_Tables_number	1
_symmetry_cell_setting	triclinic
loop_
_symmetry_equiv_pos_as_xyz
  x,y,z
_cell_length_a	14.044191
_cell_length_b	14.044220
_cell_length_c	16.776229
_cell_angle_alpha	89.992645
_cell_angle_beta	89.995480
_cell_angle_gamma	93.190327
loop_
_atom_site_label
_atom_site_type_symbol
_atom_site_fract_x
_atom_site_fract_y
_atom_site_fract_z
O1	O	1.277176	0.230202	-0.066253
O2	O	1.777176	0.730202	0.433747
O3	O	1.000504	0.221890	-0.066263
O4	O	1.500504	0.721890	0.433737
O5	O	1.134687	0.087710	-0.066250
O6	O	1.634687	0.587710	0.433750
O7	O	1.142993	0.364382	-0.066266
O8	O	1.642993	0.864382	0.433734
O9	O	1.134667	0.087700	0.066326
O10	O	1.634667	0.587700	0.566326
O11	O	1.000483	0.221879	0.066313
O12	O	1.500483	0.721879	0.566313
O13	O	1.277156	0.230192	0.066323
O14	O	1.777156	0.730192	0.566323
Zn15	Zn	1.138816	0.226034	0.087368
Zn16	Zn	1.638816	0.726034	0.587368
Zn17	Zn	1.138843	0.226048	-0.087308
Zn18	Zn	1.638843	0.726048	0.412692
O19	O	1.142972	0.364371	0.066311
O20	O	1.642972	0.864371	0.566311
C21	C	0.964872	0.218248	0.000024
C22	C	1.464872	0.718248	0.500024
C23	C	0.858728	0.207401	0.000020
C24	C	1.358728	0.707401	0.500020
C25	C	0.613270	0.264501	0.000025
C26	C	1.113270	0.764501	0.500025
C27	C	0.664395	0.187585	0.000028
C28	C	1.164395	0.687585	0.500028
C29	C	0.772532	0.198613	0.000024
C30	C	1.272532	0.698613	0.500024
C31	C	0.505123	0.253474	0.000029
C32	C	1.005123	0.753474	0.500029
C33	C	1.131041	0.052083	0.000038
C34	C	1.631041	0.552083	0.500038
C35	C	1.120197	-0.054060	0.000039
C36	C	1.620197	0.445940	0.500039
C37	C	1.100370	-0.248398	0.000026
C38	C	1.600370	0.251602	0.500026
C39	C	1.177285	-0.299526	0.000027
C40	C	1.677285	0.200474	0.500027
C41	C	1.166253	-0.407663	0.000020
C42	C	1.666253	0.092337	0.500020
C43	C	1.111400	-0.140252	0.000033
C44	C	1.611400	0.359748	0.500033
C45	C	1.312788	0.233834	0.000034
C46	C	1.812788	0.733834	0.500034
C47	C	1.418931	0.244681	0.000033
C48	C	1.918931	0.744681	0.500033
C49	C	1.146618	0.399998	0.000020
C50	C	1.646618	0.899998	0.500020
C51	C	1.157463	0.506142	0.000015
C52	C	1.657463	1.006142	0.500015
N53	N	1.138805	0.226024	0.206579
N54	N	1.638805	0.726024	0.706579
N55	N	1.138861	0.226050	-0.206519
N56	N	1.638861	0.726050	0.293481
C57	C	1.198244	0.166638	0.248302
C58	C	1.698244	0.666638	0.748302
C59	C	1.198249	0.166637	0.331754
C60	C	1.698249	0.666637	0.831754
C61	C	1.138820	0.226029	0.373482
C62	C	1.638820	0.726029	0.873482
C63	C	1.079375	0.285418	0.331753
C64	C	1.579375	0.785418	0.831753
C65	C	1.079365	0.285413	0.248303
C66	C	1.579365	0.785413	0.748303
C67	C	1.079411	0.285440	0.668300
C68	C	1.579411	0.785440	1.168300
C69	C	1.079427	0.285442	0.751757
C70	C	1.579427	0.785442	1.251757
C71	C	1.198294	0.166664	0.751752
C72	C	1.698294	0.666664	1.251752
C73	C	1.198285	0.166659	0.668301
C74	C	1.698285	0.666659	1.168301
C75	C	1.138837	0.226044	0.626580
C76	C	1.638837	0.726044	1.126580
C77	C	1.138830	0.226042	0.536091
C78	C	1.638830	0.726042	1.036091
C79	C	1.138830	0.226036	0.463969
C80	C	1.638830	0.726036	0.963969
H81	H	0.626952	0.113452	-0.000024
H82	H	1.126952	0.613452	0.499976
O83	O	1.255832	0.108902	0.627644
O84	O	1.755832	0.608902	1.127644
C85	C	1.242977	0.121531	0.545042
C86	C	1.742977	0.621531	1.045042
H87	H	1.213913	0.194479	0.533596
H88	H	1.713913	0.694479	1.033596
H89	H	1.314301	0.116803	0.513248
H90	H	1.814301	0.616803	1.013248
H91	H	1.190323	0.063527	0.521486
H92	H	1.690323	0.563527	1.021486
O93	O	0.657886	0.352957	0.000152
O94	O	1.157886	0.852957	0.500152
C95	C	0.631136	0.402857	0.068798
C96	C	1.131136	0.902857	0.568798
H97	H	0.605988	0.349772	0.116800
H98	H	1.105988	0.849772	0.616800
H99	H	0.694968	0.448472	0.091833
H100	H	1.194968	0.948472	0.591833
H101	H	0.570823	0.450677	0.053270
H102	H	1.070823	0.950677	0.553270
H103	H	1.246698	0.118307	0.785730
H104	H	1.746698	0.618307	1.285730
H105	H	1.251419	-0.262085	-0.000024
H106	H	1.751419	0.237915	0.499976
H107	H	1.031008	0.333795	0.634338
H108	H	1.531008	0.833795	1.134338
H109	H	1.026242	-0.285837	0.000022
H110	H	1.526242	0.214163	0.500022
H111	H	1.030982	0.333772	0.365733
H112	H	1.530982	0.833772	0.865733
O113	O	1.021598	0.343160	0.792169
O114	O	1.521598	0.843160	1.292169
C115	C	0.969140	0.395589	0.737452
C116	C	1.469140	0.895589	1.237452
H117	H	0.964747	0.356354	0.677970
H118	H	1.464747	0.856354	1.177970
H119	H	0.894130	0.403651	0.761578
H120	H	1.394130	0.903651	1.261578
H121	H	1.006120	0.469157	0.728561
H122	H	1.506120	0.969157	1.228561
H123	H	1.246642	0.118279	0.214332
H124	H	1.746642	0.618279	0.714332
O125	O	1.256088	0.108933	0.372159
O126	O	1.756088	0.608933	0.872159
C127	C	1.308531	0.056504	0.317435
C128	C	1.808531	0.556504	0.817435
H129	H	1.312897	0.095734	0.257941
H130	H	1.812897	0.595734	0.757941
H131	H	1.383552	0.048453	0.341533
H132	H	1.883552	0.548453	0.841533
H133	H	1.271555	-0.017067	0.308579
H134	H	1.771555	0.482933	0.808579
O135	O	1.021601	0.343192	0.207894
O136	O	1.521601	0.843192	0.707894
C137	C	0.969133	0.395599	0.262617
C138	C	1.469133	0.895599	0.762617
H139	H	1.008373	0.400017	0.322097
H140	H	1.508373	0.900017	0.822097
H141	H	0.961005	0.470601	0.238494
H142	H	1.461005	0.970601	0.738494
H143	H	0.895594	0.358558	0.271509
H144	H	1.395594	0.858558	0.771509
