data_functionalizedCrystal
_audit_creation_method	'MofGen! by Chris Wilmer'
_symmetry_space_group_name_H-M	'P1'
_symmetry_Int_Tables_number	1
_symmetry_cell_setting	triclinic
loop_
_symmetry_equiv_pos_as_xyz
  x,y,z
_cell_length_a	17.699083
_cell_length_b	15.021413
_cell_length_c	17.699092
_cell_angle_alpha	89.994305
_cell_angle_beta	83.284691
_cell_angle_gamma	90.001270
loop_
_atom_site_label
_atom_site_type_symbol
_atom_site_fract_x
_atom_site_fract_y
_atom_site_fract_z
O1	O	1.004083	0.073904	0.095701
O2	O	0.783705	0.073933	0.108153
O3	O	0.900117	0.073915	-0.008262
O4	O	0.887671	0.073921	0.212116
O5	O	0.900098	-0.074149	-0.008245
O6	O	0.783686	-0.074132	0.108170
O7	O	1.004064	-0.074160	0.095717
Zn8	Zn	0.893872	-0.097654	0.101946
Zn9	Zn	0.893897	0.097427	0.101924
O10	O	0.887652	-0.074143	0.212132
C11	C	0.755499	-0.000096	0.107715
C12	C	0.671480	-0.000085	0.106377
N13	N	0.893861	-0.230792	0.101961
C14	C	0.622862	-0.000083	0.174710
C15	C	0.543918	-0.000095	0.173448
C16	C	0.513595	-0.000101	0.103851
C17	C	0.562220	-0.000106	0.035513
C18	C	0.641162	-0.000100	0.036776
C19	C	0.243857	-0.000128	0.030418
C20	C	0.164909	-0.000130	0.029160
C21	C	0.146613	-0.000122	0.167089
C22	C	0.225555	-0.000117	0.168352
C23	C	0.274173	-0.000126	0.100014
C24	C	0.359772	-0.000115	0.101384
C25	C	0.427998	-0.000106	0.102481
C26	C	0.840024	-0.470467	0.155766
C27	C	0.908388	-0.529810	0.170330
C28	C	0.893881	-0.412399	0.101942
C29	C	0.825535	-0.529797	0.087395
C30	C	0.893893	-0.587823	0.101925
C31	C	0.962279	-0.470435	0.116540
C32	C	0.879381	-0.470417	0.033575
C33	C	0.947795	-0.529734	0.048110
C34	C	0.893872	-0.311341	0.101953
C35	C	0.893909	-0.688878	0.101913
C36	C	1.032271	-0.000130	0.096155
C37	C	1.116289	-0.000135	0.097494
C38	C	0.899661	-0.000115	-0.036450
C39	C	0.898319	-0.000111	-0.120468
N40	N	0.893914	0.230564	0.101904
C41	C	0.897701	0.080600	-0.159945
C42	C	0.896436	0.080601	-0.238888
C43	C	0.895795	-0.000109	-0.278353
C44	C	0.896411	-0.080827	-0.238871
C45	C	0.897671	-0.080827	-0.159929
C46	C	0.891331	-0.080827	-0.557236
C47	C	0.890073	-0.080821	-0.636184
C48	C	0.890096	0.080601	-0.636195
C49	C	0.891356	0.080601	-0.557253
C50	C	0.891968	-0.000116	-0.517777
C51	C	0.893338	-0.000116	-0.432178
C52	C	0.894430	-0.000110	-0.363952
C53	C	0.888109	-0.000110	0.240321
C54	C	0.889450	-0.000109	0.324339
H55	H	0.647544	-0.000077	0.231383
F56	F	0.895720	-0.166725	-0.280874
H57	H	0.895936	0.146324	-0.271026
H58	H	1.020095	-0.444470	0.128906
F59	F	0.492177	-0.000089	0.246177
H60	H	0.250239	-0.000107	0.225025
H61	H	0.889549	-0.146549	-0.668315
F62	F	0.295591	-0.000137	-0.042314
F63	F	1.007395	-0.563539	-0.011397
F64	F	0.529947	-0.000118	-0.038557
F65	F	0.780555	-0.436450	0.215306
F66	F	0.692906	-0.000105	-0.035953
F67	F	0.749983	-0.563882	0.071320
F68	F	0.891972	-0.166733	-0.515232
F69	F	0.898328	-0.166730	-0.117915
F70	F	0.863309	-0.436289	-0.041962
F71	F	0.924434	-0.563910	0.245889
H72	H	0.898228	0.146324	-0.127818
H73	H	0.889594	0.146324	-0.668345
F74	F	0.094864	-0.000116	0.239821
F75	F	0.132640	-0.000138	-0.044918
H76	H	0.891882	0.146323	-0.525124
