data_functionalizedCrystal
_audit_creation_method	'MofGen! by Chris Wilmer'
_symmetry_space_group_name_H-M	'P1'
_symmetry_Int_Tables_number	1
_symmetry_cell_setting	triclinic
loop_
_symmetry_equiv_pos_as_xyz
  x,y,z
_cell_length_a	11.169417
_cell_length_b	11.169416
_cell_length_c	12.759393
_cell_angle_alpha	89.971356
_cell_angle_beta	89.981972
_cell_angle_gamma	90.011589
loop_
_atom_site_label
_atom_site_type_symbol
_atom_site_fract_x
_atom_site_fract_y
_atom_site_fract_z
Zn1	Zn	1.834945	-0.477696	-0.593990
Zn2	Zn	2.334945	0.022304	-0.093990
Zn3	Zn	1.834839	-0.678429	-0.418319
Zn4	Zn	2.334839	-0.178429	0.081681
Zn5	Zn	1.634236	-0.477763	-0.418330
Zn6	Zn	2.134236	0.022237	0.081670
Zn7	Zn	1.634238	-0.678340	-0.593962
Zn8	Zn	2.134238	-0.178340	-0.093962
O9	O	1.734564	-0.578057	-0.506150
O10	O	2.234564	-0.078057	-0.006150
O11	O	2.002880	-0.504333	-0.570693
O12	O	2.502880	-0.004333	-0.070693
O13	O	1.808184	-0.651875	-0.271299
O14	O	2.308184	-0.151875	0.228701
O15	O	1.660903	-0.309804	-0.441649
O16	O	2.160903	0.190196	0.058351
O17	O	2.002803	-0.651811	-0.441629
O18	O	2.502803	-0.151811	0.058371
O19	O	1.808363	-0.309755	-0.570705
O20	O	2.308363	0.190245	-0.070705
O21	O	1.660801	-0.504447	-0.271308
O22	O	2.160801	-0.004447	0.228692
O23	O	1.466286	-0.504361	-0.441621
O24	O	1.966286	-0.004361	0.058379
O25	O	1.660907	-0.651660	-0.740986
O26	O	2.160907	-0.151660	-0.240986
O27	O	1.466288	-0.651724	-0.570657
O28	O	1.966288	-0.151724	-0.070657
O29	O	1.808366	-0.504247	-0.741007
O30	O	2.308366	-0.004247	-0.241007
O31	O	1.808186	-0.846367	-0.441601
O32	O	2.308186	-0.346367	0.058399
O33	O	1.660805	-0.846302	-0.570645
O34	O	2.160805	-0.346302	-0.070645
C35	C	1.422740	-0.578041	-0.506138
C36	C	1.922740	-0.078041	-0.006138
C37	C	1.289340	-0.578063	-0.506158
C38	C	1.789340	-0.078063	-0.006158
C39	C	1.734517	-0.889882	-0.506142
C40	C	2.234517	-0.389882	-0.006142
C41	C	1.734606	-1.023282	-0.506174
C42	C	2.234606	-0.523282	-0.006174
C43	C	2.047607	-0.578074	-0.506163
C44	C	2.547607	-0.078074	-0.006163
C45	C	2.181007	-0.578082	-0.506168
C46	C	2.681007	-0.078082	-0.006168
C47	C	1.734649	-0.577936	-0.780183
C48	C	2.234649	-0.077936	-0.280183
C49	C	1.734684	-0.577885	-0.896960
C50	C	2.234684	-0.077885	-0.396960
C51	C	1.734645	-0.265015	-0.506181
C52	C	2.234645	0.234985	-0.006181
C53	C	1.734679	-0.131615	-0.506194
C54	C	2.234679	0.368385	-0.006194
C55	C	1.811476	-0.501120	-0.951835
C56	C	2.311476	-0.001120	-0.451835
C57	C	1.811505	-0.501076	-1.061559
C58	C	2.311505	-0.001076	-0.561559
C59	C	1.657946	-0.654573	-1.061524
C60	C	2.157946	-0.154573	-0.561524
C61	C	1.657912	-0.654609	-0.951802
C62	C	2.157912	-0.154609	-0.451802
C63	C	1.900136	-0.412503	-0.951855
C64	C	2.400136	0.087497	-0.451855
C65	C	1.900165	-0.412460	-1.061580
C66	C	2.400165	0.087540	-0.561580
C67	C	1.734550	-0.578091	-0.233183
C68	C	2.234550	-0.078091	0.266817
C69	C	1.734746	-0.577805	-0.116407
C70	C	2.234746	-0.077805	0.383593
H71	H	1.595376	-0.717115	-0.907128
H72	H	2.095376	-0.217115	-0.407128
H73	H	1.993121	-0.437352	-1.091358
H74	H	2.493121	0.062648	-0.591358
H75	H	1.595438	-0.717037	-1.106190
H76	H	2.095438	-0.217037	-0.606190
H77	H	1.875262	-0.319557	-0.922096
H78	H	2.375262	0.180443	-0.422096
Br79	Br	2.047262	-0.468033	-0.895117
Br80	Br	2.547262	0.031967	-0.395117
H81	H	1.866900	-0.324146	-1.095624
H82	H	2.366900	0.175854	-0.595624
