data_functionalizedCrystal
_audit_creation_method	'MofGen! by Chris Wilmer'
_symmetry_space_group_name_H-M	'P1'
_symmetry_Int_Tables_number	1
_symmetry_cell_setting	triclinic
loop_
_symmetry_equiv_pos_as_xyz
  x,y,z
_cell_length_a	18.101398
_cell_length_b	21.295417
_cell_length_c	18.101389
_cell_angle_alpha	89.977434
_cell_angle_beta	89.975673
_cell_angle_gamma	90.025773
loop_
_atom_site_label
_atom_site_type_symbol
_atom_site_fract_x
_atom_site_fract_y
_atom_site_fract_z
Zn1	Zn	1.132124	-0.250755	-0.418817
Zn2	Zn	1.632124	0.249245	0.081183
Zn3	Zn	1.132021	-0.356008	-0.294967
Zn4	Zn	1.632021	0.143992	0.205033
Zn5	Zn	1.008283	-0.250748	-0.294979
Zn6	Zn	1.508283	0.249252	0.205021
Zn7	Zn	1.008235	-0.355981	-0.418755
Zn8	Zn	1.508235	0.144019	0.081245
O9	O	1.070166	-0.303373	-0.356880
O10	O	1.570166	0.196627	0.143120
O11	O	1.235743	-0.264731	-0.402409
O12	O	1.735743	0.235269	0.097591
O13	O	1.115584	-0.342054	-0.191335
O14	O	1.615584	0.157946	0.308665
O15	O	1.024774	-0.162660	-0.311437
O16	O	1.524774	0.337340	0.188563
O17	O	1.235668	-0.342060	-0.311417
O18	O	1.735668	0.157940	0.188583
O19	O	1.115759	-0.162664	-0.402421
O20	O	1.615759	0.337336	0.097579
O21	O	1.024674	-0.264720	-0.191344
O22	O	1.524674	0.235280	0.308656
O23	O	0.904644	-0.264694	-0.311377
O24	O	1.404644	0.235306	0.188623
O25	O	1.024692	-0.342014	-0.522397
O26	O	1.524692	0.157986	-0.022397
O27	O	0.904609	-0.342008	-0.402315
O28	O	1.404609	0.157992	0.097685
O29	O	1.115713	-0.264705	-0.522442
O30	O	1.615713	0.235295	-0.022442
O31	O	1.115538	-0.444094	-0.311357
O32	O	1.615538	0.055906	0.188643
O33	O	1.024592	-0.444074	-0.402304
O34	O	1.524592	0.055926	0.097696
C35	C	0.877755	-0.303348	-0.356841
C36	C	1.377755	0.196652	0.143159
C37	C	0.795441	-0.303352	-0.356842
C38	C	1.295441	0.196648	0.143158
C39	C	0.496350	-0.303391	-0.356904
C40	C	0.996350	0.196609	0.143096
C41	C	0.527673	-0.254504	-0.299967
C42	C	1.027673	0.245496	0.200033
C43	C	0.613291	-0.254635	-0.299724
C44	C	1.113291	0.245365	0.200276
C45	C	0.644733	-0.303371	-0.356873
C46	C	1.144733	0.196629	0.143127
C47	C	0.613615	-0.369679	-0.335543
C48	C	1.113615	0.130321	0.164457
C49	C	0.527970	-0.369407	-0.335147
C50	C	1.027970	0.130593	0.164853
C51	C	0.527965	-0.286547	-0.435305
C52	C	1.027965	0.213453	0.064695
C53	C	0.613615	-0.285070	-0.434877
C54	C	1.113615	0.214930	0.065123
C55	C	0.728592	-0.303364	-0.356857
C56	C	1.228592	0.196636	0.143143
C57	C	0.412491	-0.303403	-0.356919
C58	C	0.912491	0.196597	0.143081
C59	C	1.070069	-0.466925	-0.356839
C60	C	1.570069	0.033075	0.143161
C61	C	1.070095	-0.536893	-0.356846
C62	C	1.570095	-0.036893	0.143154
C63	C	1.117492	-0.569749	-0.309538
C64	C	1.617492	-0.069749	0.190462
C65	C	1.117527	-0.635491	-0.309555
C66	C	1.617527	-0.135491	0.190445
C67	C	1.070151	-0.668375	-0.356871
C68	C	1.570151	-0.168375	0.143129
C69	C	1.022751	-0.635511	-0.404188
C70	C	1.522751	-0.135511	0.095812
C71	C	1.022722	-0.569770	-0.404175
C72	C	1.522722	-0.069770	0.095825
N73	N	1.005367	-0.771637	-0.362504
N74	N	1.505367	-0.271637	0.137496
N75	N	1.005396	-0.834089	-0.362512
N76	N	1.505396	-0.334089	0.137488
C77	C	1.070234	-0.866450	-0.356914
C78	C	1.570234	-0.366450	0.143086
N79	N	1.135044	-0.834001	-0.351293
N80	N	1.635044	-0.334001	0.148707
N81	N	1.135014	-0.771543	-0.351282
N82	N	1.635014	-0.271543	0.148718
C83	C	1.070177	-0.739661	-0.356891
C84	C	1.570177	-0.239661	0.143109
C85	C	1.117673	-0.970592	-0.309622
C86	C	1.617673	-0.470592	0.190378
C87	C	1.117709	-1.036335	-0.309644
C88	C	1.617709	-0.536335	0.190356
C89	C	1.022926	-1.036354	-0.404273
C90	C	1.522926	-0.536354	0.095727
C91	C	1.022897	-0.970612	-0.404255
C92	C	1.522897	-0.470612	0.095745
C93	C	1.070269	-0.937734	-0.356925
C94	C	1.570269	-0.437734	0.143075
C95	C	1.263328	-0.303399	-0.356919
C96	C	1.763328	0.196601	0.143081
C97	C	1.345642	-0.303410	-0.356935
C98	C	1.845642	0.196590	0.143065
C99	C	1.070209	-0.303357	-0.550042
C100	C	1.570209	0.196643	-0.050042
C101	C	1.070227	-0.303350	-0.632356
C102	C	1.570227	0.196650	-0.132356
C103	C	1.070283	-0.139183	-0.356937
C104	C	1.570283	0.360817	0.143063
C105	C	1.070334	-0.069215	-0.356961
C106	C	1.570334	0.430785	0.143039
C107	C	1.070270	-0.303232	-0.931447
C108	C	1.570270	0.196768	-0.431447
C109	C	1.012805	-0.351719	-0.900093
C110	C	1.512805	0.148281	-0.400093
C111	C	1.012960	-0.351944	-0.814475
C112	C	1.512960	0.148056	-0.314475
C113	C	1.070248	-0.303291	-0.783064
C114	C	1.570248	0.196709	-0.283064
C115	C	1.148274	-0.321303	-0.814168
C116	C	1.648274	0.178697	-0.314168
C117	C	1.147953	-0.321621	-0.899813
C118	C	1.647953	0.178379	-0.399813
C119	C	1.050388	-0.236626	-0.899877
C120	C	1.550388	0.263374	-0.399877
C121	C	1.048652	-0.237011	-0.814226
C122	C	1.548652	0.262989	-0.314226
C123	C	1.070240	-0.303323	-0.699205
C124	C	1.570240	0.196677	-0.199205
C125	C	1.070283	-0.303202	-1.015306
C126	C	1.570283	0.196798	-0.515306
C127	C	1.070166	-0.303344	-0.164469
C128	C	1.570166	0.196656	0.335531
C129	C	1.070291	-0.303173	-0.082155
C130	C	1.570291	0.196827	0.417845
H131	H	0.507102	-0.205183	-0.313191
H132	H	1.007102	0.294817	0.186809
H133	H	1.156126	-0.662248	-0.271032
H134	H	1.656126	-0.162248	0.228968
Br135	Br	0.958566	-0.926018	-0.468460
Br136	Br	1.458566	-0.426018	0.031540
H137	H	0.507249	-0.407065	-0.374809
H138	H	1.007249	0.092935	0.125191
H139	H	1.156310	-1.063086	-0.271122
H140	H	1.656310	-0.563086	0.228878
H141	H	1.156067	-0.542982	-0.271002
H142	H	1.656067	-0.042982	0.228998
H143	H	0.506124	-0.265512	-0.242211
H144	H	1.006124	0.234488	0.257789
H145	H	0.633980	-0.407079	-0.375715
H146	H	1.133980	0.092921	0.124285
Br147	Br	0.647389	-0.273188	-0.202895
Br148	Br	1.147389	0.226812	0.297105
Br149	Br	0.916073	-0.333121	-0.934395
Br150	Br	1.416073	0.166879	-0.434395
H151	H	1.025801	-0.400788	-0.921614
H152	H	1.525801	0.099212	-0.421614
Br153	Br	0.494612	-0.393217	-0.239619
Br154	Br	0.994612	0.106783	0.260381
Br155	Br	1.034882	-0.434223	-0.780322
Br156	Br	1.534882	0.065777	-0.280322
Br157	Br	0.958637	-1.080975	-0.468497
Br158	Br	1.458637	-0.580975	0.031503
H159	H	1.192239	-0.287098	-0.793825
H160	H	1.692239	0.212902	-0.293825
Br161	Br	0.649304	-0.393907	-0.241045
Br162	Br	1.149304	0.106093	0.258955
H163	H	1.164808	-0.370312	-0.919793
H164	H	1.664808	0.129688	-0.419793
H165	H	1.087452	-0.198968	-0.792845
H166	H	1.587452	0.301032	-0.292845
H167	H	0.506392	-0.239037	-0.454697
H168	H	1.006392	0.260963	0.045303
Br169	Br	1.221688	-0.265276	-0.934392
Br170	Br	1.721688	0.234724	-0.434392
H171	H	1.165420	-0.369476	-0.792722
H172	H	1.665420	0.130524	-0.292722
H173	H	0.994480	-0.220216	-0.921464
H174	H	1.494480	0.279784	-0.421464
H175	H	0.984178	-0.662290	-0.442715
H176	H	1.484178	-0.162290	0.057285
H177	H	0.984125	-0.543018	-0.442700
H178	H	1.484125	-0.043018	0.057300
Br179	Br	0.952942	-0.214373	-0.780353
Br180	Br	1.452942	0.285627	-0.280353
Br181	Br	0.916526	-0.333151	-0.779416
Br182	Br	1.416526	0.166849	-0.279416
Br183	Br	1.120149	-0.176415	-0.933673
Br184	Br	1.620149	0.323585	-0.433673
Br185	Br	0.648363	-0.172681	-0.322009
Br186	Br	1.148363	0.327319	0.177991
Br187	Br	0.649287	-0.340096	-0.509377
Br188	Br	1.149287	0.159904	-0.009377
Br189	Br	0.647535	-0.203747	-0.461696
Br190	Br	1.147535	0.296253	0.038304
Br191	Br	1.181960	-0.925969	-0.245388
Br192	Br	1.681960	-0.425969	0.254612
H193	H	0.507709	-0.322155	-0.477728
H194	H	1.007709	0.177845	0.022272
