data_functionalizedCrystal
_audit_creation_method	'MofGen! by Chris Wilmer'
_symmetry_space_group_name_H-M	'P1'
_symmetry_Int_Tables_number	1
_symmetry_cell_setting	triclinic
loop_
_symmetry_equiv_pos_as_xyz
  x,y,z
_cell_length_a	23.532407
_cell_length_b	22.010155
_cell_length_c	23.532407
_cell_angle_alpha	90.009202
_cell_angle_beta	82.848712
_cell_angle_gamma	90.013018
loop_
_atom_site_label
_atom_site_type_symbol
_atom_site_fract_x
_atom_site_fract_y
_atom_site_fract_z
O1	O	0.755269	0.050493	0.069134
O2	O	0.589405	0.050503	0.079137
O3	O	0.677339	0.050487	-0.008796
O4	O	0.667336	0.050510	0.157067
O5	O	0.677312	-0.050564	-0.008796
O6	O	0.589379	-0.050547	0.079137
O7	O	0.755242	-0.050557	0.069134
Cu8	Cu	0.672308	-0.059779	0.074135
Cu9	Cu	0.672340	0.059725	0.074135
O10	O	0.667309	-0.050541	0.157067
C11	C	0.568176	-0.000021	0.078882
C12	C	0.504959	-0.000017	0.078116
C13	C	0.238792	-0.000041	0.022921
C14	C	0.298192	-0.000041	0.023632
O15	O	0.334937	-0.000068	-0.020153
N16	N	0.320818	-0.000030	0.075909
C17	C	0.284041	-0.000025	0.127477
O18	O	0.308740	-0.000016	0.172007
C19	C	0.224642	-0.000029	0.126765
C20	C	0.202019	-0.000035	0.074485
C21	C	0.216168	-0.000047	-0.029354
C22	C	0.156772	-0.000046	-0.030066
C23	C	0.119999	-0.000039	0.021499
C24	C	0.142623	-0.000034	0.073774
C25	C	0.187865	-0.000029	0.178333
C26	C	0.128463	-0.000034	0.177616
C27	C	0.105840	-0.000039	0.125336
C28	C	0.046454	-0.000026	0.124627
N29	N	0.023828	-0.000037	0.072351
C30	C	0.060600	-0.000044	0.020787
C31	C	0.408783	-0.000016	0.128968
C32	C	0.468181	-0.000007	0.129681
C33	C	0.482328	-0.000025	0.025836
C34	C	0.422929	-0.000029	0.025124
C35	C	0.386157	-0.000027	0.076692
C36	C	-0.064136	-0.000042	0.019297
C37	C	-0.123538	-0.000038	0.018590
C38	C	-0.137680	-0.000024	0.122435
C39	C	-0.078284	-0.000024	0.123142
C40	C	-0.041512	-0.000035	0.071568
O41	O	0.009675	-0.000001	0.168390
O42	O	0.035892	-0.000061	-0.023737
N43	N	0.672291	-0.143831	0.074135
C44	C	0.706685	-0.563608	0.108496
C45	C	0.706692	-0.627216	0.108495
O46	O	0.735915	-0.660105	0.137706
N47	N	0.672351	-0.659038	0.074129
C48	C	0.638005	-0.627250	0.039758
O49	O	0.608796	-0.660159	0.010527
C50	C	0.638002	-0.563644	0.039757
C51	C	0.672341	-0.531824	0.074129
C52	C	0.741022	-0.531789	0.142865
C53	C	0.741014	-0.468185	0.142867
C54	C	0.706670	-0.436402	0.108500
C55	C	0.672333	-0.468221	0.074131
C56	C	0.603660	-0.531857	0.005383
C57	C	0.603660	-0.468246	0.005385
C58	C	0.637999	-0.436427	0.039757
C59	C	0.637981	-0.372834	0.039766
N60	N	0.672322	-0.341012	0.074132
C61	C	0.706667	-0.372795	0.108499
C62	C	0.638015	-0.760828	0.039763
C63	C	0.638015	-0.824433	0.039766
C64	C	0.706703	-0.824394	0.108502
C65	C	0.706699	-0.760788	0.108501
C66	C	0.672356	-0.729005	0.074128
C67	C	0.706647	-0.239224	0.108501
C68	C	0.706635	-0.175615	0.108502
C69	C	0.637950	-0.175660	0.039764
C70	C	0.637960	-0.239263	0.039765
C71	C	0.672313	-0.271043	0.074135
O72	O	0.608775	-0.339905	0.010569
O73	O	0.735876	-0.339879	0.137720
C74	C	0.776472	-0.000032	0.069389
C75	C	0.839689	-0.000032	0.070155
C76	C	0.677071	-0.000040	-0.030012
C77	C	0.676305	-0.000045	-0.093229
N78	N	0.672362	0.143777	0.074131
C79	C	0.723538	-0.000014	-0.492332
C80	C	0.722827	-0.000010	-0.551733
O81	O	0.766613	0.000010	-0.588477
N82	N	0.670551	-0.000007	-0.574359
C83	C	0.618982	-0.000002	-0.537581
O84	O	0.574452	0.000001	-0.562281
C85	C	0.619695	-0.000003	-0.478182
C86	C	0.671974	-0.000012	-0.455559
C87	C	0.775814	-0.000023	-0.469709
C88	C	0.776525	-0.000028	-0.410313
C89	C	0.724961	-0.000026	-0.373540
C90	C	0.672685	-0.000018	-0.396163
C91	C	0.568127	0.000006	-0.441406
C92	C	0.568843	0.000006	-0.382003
C93	C	0.621123	-0.000003	-0.359381
C94	C	0.621832	-0.000021	-0.299994
N95	N	0.674109	-0.000024	-0.277368
C96	C	0.725673	-0.000026	-0.314141
C97	C	0.617491	-0.000001	-0.662324
C98	C	0.616778	-0.000005	-0.721722
C99	C	0.720623	-0.000011	-0.735869
C100	C	0.721335	-0.000011	-0.676470
C101	C	0.669767	-0.000004	-0.639698
C102	C	0.727163	-0.000039	-0.189404
C103	C	0.727869	-0.000047	-0.130002
C104	C	0.624025	-0.000038	-0.115860
C105	C	0.623318	-0.000033	-0.175257
C106	C	0.674891	-0.000031	-0.212028
O107	O	0.578069	-0.000038	-0.263215
O108	O	0.770196	-0.000022	-0.289433
C109	C	0.667577	-0.000013	0.178283
C110	C	0.668343	-0.000004	0.241500
H111	H	-0.141954	-0.000041	-0.023984
H112	H	-0.059864	-0.000019	0.165712
N113	N	-0.024481	-0.000056	-0.036327
H114	H	-0.047834	-0.000059	-0.069547
H115	H	0.000480	0.037405	-0.038297
H116	H	0.582043	-0.000038	-0.085909
N117	N	0.600963	-0.726555	0.002692
H118	H	0.572944	-0.700169	0.027627
H119	H	0.625952	-0.700198	-0.025309
N120	N	0.369136	-0.000008	0.184600
H121	H	0.344180	0.037448	0.186630
H122	H	0.344209	-0.037495	0.186596
N123	N	0.743692	-0.273501	0.145573
H124	H	0.771714	-0.299885	0.120638
H125	H	0.765404	-0.243650	0.167341
N126	N	0.743678	-0.141294	0.145570
H127	H	0.718725	-0.114909	0.173575
H128	H	0.765433	-0.171122	0.167300
H129	H	0.763906	-0.000018	-0.658055
H130	H	0.246104	-0.000055	-0.071347
N131	N	0.132376	-0.000058	-0.086453
H132	H	0.164692	-0.000064	-0.119006
H133	H	0.108035	-0.037521	-0.089010
N134	N	0.492576	0.000000	0.186069
H135	H	0.535785	-0.000001	0.178702
H136	H	0.479110	0.037464	0.208617
N137	N	-0.177348	-0.000014	0.178048
H138	H	-0.218408	-0.000017	0.169660
H139	H	-0.170064	-0.037473	0.200844
N140	N	0.212256	-0.000017	0.234720
H141	H	0.179939	-0.000015	0.267273
H142	H	0.236586	-0.037475	0.237283
H143	H	0.817806	-0.000022	-0.499644
H144	H	0.762610	-0.000011	-0.765821
H145	H	0.610046	-0.850335	0.011784
H146	H	0.098525	-0.000035	0.219610
H147	H	0.575496	0.000000	-0.632386
H148	H	0.768992	-0.557660	0.170851
N149	N	0.521993	-0.000037	-0.029784
H150	H	0.546962	0.037422	-0.031804
H151	H	0.546907	-0.037522	-0.031766
H152	H	0.768979	-0.442284	0.170854
N153	N	0.511739	0.000008	-0.465796
H154	H	0.479187	0.000011	-0.433480
H155	H	0.509186	0.037469	-0.490128
H156	H	0.734661	-0.734885	0.136490
N157	N	0.743747	-0.858681	0.145571
H158	H	0.738537	-0.903803	0.140351
H159	H	0.785229	-0.847554	0.134107
N160	N	0.566636	-0.566166	-0.031704
H161	H	0.544890	-0.536371	-0.053479
H162	H	0.591642	-0.592543	-0.059669
H163	H	0.574207	-0.000008	-0.740135
N164	N	0.566930	-0.000028	-0.199657
H165	H	0.564330	0.037436	-0.223977
H166	H	0.564343	-0.037507	-0.223968
H167	H	0.819097	-0.000033	-0.391900
H168	H	0.526850	0.000013	-0.352065
H169	H	0.575693	-0.442372	-0.022607
N170	N	0.398531	-0.000035	-0.031262
H171	H	0.430845	-0.000038	-0.063817
H172	H	0.374191	-0.037499	-0.033822
H173	H	0.609991	-0.265172	0.011784
N174	N	0.600914	-0.141373	0.002693
H175	H	0.606127	-0.096251	0.007908
H176	H	0.612413	-0.152496	-0.038784
H177	H	0.769159	-0.000035	-0.219337
H178	H	0.770443	-0.000056	-0.111587
