data_functionalizedCrystal
_audit_creation_method	'MofGen! by Chris Wilmer'
_symmetry_space_group_name_H-M	'P1'
_symmetry_Int_Tables_number	1
_symmetry_cell_setting	triclinic
loop_
_symmetry_equiv_pos_as_xyz
  x,y,z
_cell_length_a	19.805407
_cell_length_b	19.805405
_cell_length_c	19.805399
_cell_angle_alpha	89.973385
_cell_angle_beta	89.979591
_cell_angle_gamma	90.028666
loop_
_atom_site_label
_atom_site_type_symbol
_atom_site_fract_x
_atom_site_fract_y
_atom_site_fract_z
Zn1	Zn	1.034734	-0.269444	-0.382739
Zn2	Zn	1.034648	-0.382632	-0.269553
Zn3	Zn	0.921549	-0.269466	-0.269562
Zn4	Zn	0.921512	-0.382600	-0.382698
O5	O	0.978111	-0.326036	-0.326138
O6	O	1.129439	-0.284463	-0.367738
O7	O	1.019625	-0.367643	-0.174838
O8	O	0.936615	-0.174747	-0.284597
O9	O	1.129376	-0.367622	-0.284581
O10	O	1.019771	-0.174730	-0.367747
O11	O	0.936531	-0.284501	-0.174844
O12	O	0.826827	-0.284470	-0.284557
O13	O	0.936551	-0.367567	-0.477420
O14	O	0.826800	-0.367589	-0.367677
O15	O	1.019735	-0.284431	-0.477450
O16	O	1.019589	-0.477345	-0.284541
O17	O	0.936468	-0.477321	-0.367668
C18	C	0.802255	-0.326029	-0.326114
C19	C	0.727023	-0.326042	-0.326119
C20	C	0.265268	-0.282816	-0.369531
C21	C	0.335957	-0.282817	-0.369526
C22	C	0.371261	-0.326046	-0.326160
C23	C	0.335874	-0.369281	-0.282801
C24	C	0.265186	-0.369283	-0.282810
C25	C	0.620947	-0.369276	-0.282765
C26	C	0.691639	-0.369270	-0.282758
C27	C	0.691717	-0.282810	-0.369481
C28	C	0.621030	-0.282812	-0.369490
C29	C	0.585648	-0.326049	-0.326134
C30	C	0.509000	-0.326048	-0.326141
C31	C	0.447908	-0.326044	-0.326149
C32	C	0.978034	-0.501892	-0.326114
C33	C	0.978063	-0.577124	-0.326126
C34	C	1.021337	-0.612401	-0.369456
C35	C	1.021361	-0.683089	-0.369469
C36	C	0.978114	-0.718499	-0.326147
C37	C	0.934835	-0.683217	-0.282815
C38	C	0.934808	-0.612530	-0.282806
C39	C	0.934944	-0.968290	-0.282849
C40	C	0.934976	-1.038982	-0.282860
C41	C	1.021497	-1.038850	-0.369512
C42	C	1.021470	-0.968163	-0.369504
C43	C	0.978189	-0.932887	-0.326174
C44	C	0.978162	-0.856238	-0.326162
C45	C	0.978144	-0.795146	-0.326155
C46	C	1.154654	-0.326043	-0.326163
C47	C	1.229885	-0.326046	-0.326174
C48	C	0.978149	-0.325993	-0.502681
C49	C	0.978165	-0.325975	-0.577913
C50	C	0.978207	-0.149493	-0.326178
C51	C	0.978248	-0.074261	-0.326194
C52	C	1.021480	-0.282684	-0.613274
C53	C	1.021487	-0.282664	-0.683962
C54	C	0.978182	-0.325939	-0.719289
C55	C	0.934862	-0.369232	-0.683923
C56	C	0.934852	-0.369248	-0.613235
C57	C	0.934900	-0.369169	-0.968996
C58	C	0.934915	-0.369151	-1.039688
C59	C	1.021535	-0.282586	-1.039723
C60	C	1.021525	-0.282601	-0.969036
C61	C	0.978203	-0.325891	-0.933676
C62	C	0.978195	-0.325911	-0.857028
C63	C	0.978193	-0.325923	-0.795936
C64	C	0.978112	-0.326029	-0.150282
C65	C	0.978227	-0.325857	-0.075051
H66	H	0.236528	-0.247609	-0.404840
F67	F	0.583300	-0.415278	-0.236606
F68	F	1.067640	-0.236510	-1.077361
H69	H	0.899705	-0.939574	-0.247568
H70	H	1.056737	-1.067580	-0.404796
H71	H	1.056791	-0.247365	-0.940277
H72	H	1.056688	-0.939334	-0.404778
H73	H	0.364624	-0.404482	-0.247494
F74	F	0.888803	-0.720905	-0.236714
H75	H	0.899756	-1.067811	-0.247581
F76	F	0.888749	-0.574985	-0.236688
F77	F	1.067575	-0.236627	-0.575683
H78	H	0.720533	-0.247606	-0.404786
F79	F	0.227530	-0.415299	-0.236668
H80	H	0.899574	-0.404493	-0.584445
F81	F	1.067612	-0.236612	-0.721593
F82	F	1.067412	-0.720631	-0.415595
F83	F	0.888821	-0.415213	-1.077284
F84	F	0.888793	-0.415242	-0.931373
H85	H	0.364762	-0.247616	-0.404834
F86	F	0.583460	-0.236800	-0.415644
H87	H	0.899600	-0.404465	-0.712691
F88	F	0.729211	-0.415282	-0.236600
F89	F	1.067370	-0.574721	-0.415563
