data_functionalizedCrystal
_audit_creation_method	'MofGen! by Chris Wilmer'
_symmetry_space_group_name_H-M	'P1'
_symmetry_Int_Tables_number	1
_symmetry_cell_setting	triclinic
loop_
_symmetry_equiv_pos_as_xyz
  x,y,z
_cell_length_a	16.625547
_cell_length_b	16.625539
_cell_length_c	13.032721
_cell_angle_alpha	97.153640
_cell_angle_beta	97.205017
_cell_angle_gamma	89.975178
loop_
_atom_site_label
_atom_site_type_symbol
_atom_site_fract_x
_atom_site_fract_y
_atom_site_fract_z
Zn1	Zn	1.191920	-0.496755	-0.416041
Zn2	Zn	1.691920	0.003245	0.083959
Zn3	Zn	1.174701	-0.379042	-0.590807
Zn4	Zn	1.674701	0.120958	-0.090807
Zn5	Zn	1.057078	-0.361929	-0.416077
Zn6	Zn	1.557078	0.138071	0.083923
Zn7	Zn	1.039936	-0.513816	-0.590744
Zn8	Zn	1.539936	-0.013816	-0.090744
O9	O	1.115909	-0.437886	-0.503417
O10	O	1.615909	0.062114	-0.003417
O11	O	1.302467	-0.481162	-0.439236
O12	O	1.802467	0.018838	0.060764
O13	O	1.159066	-0.263944	-0.567671
O14	O	1.659066	0.236056	-0.067671
O15	O	1.089346	-0.365513	-0.269834
O16	O	1.589346	0.134487	0.230166
O17	O	1.289816	-0.394679	-0.567636
O18	O	1.789816	0.105321	-0.067636
O19	O	1.188413	-0.464569	-0.269807
O20	O	1.688413	0.035431	0.230193
O21	O	1.072649	-0.251371	-0.439297
O22	O	1.572649	0.248629	0.060703
O23	O	0.941973	-0.382056	-0.439236
O24	O	1.441973	0.117944	0.060764
O25	O	1.060129	-0.624381	-0.567528
O26	O	1.560129	-0.124381	-0.067528
O27	O	0.929379	-0.493646	-0.567563
O28	O	1.429379	0.006354	-0.067563
O29	O	1.171791	-0.611847	-0.439174
O30	O	1.671791	-0.111847	0.060826
O31	O	1.142444	-0.411222	-0.737038
O32	O	1.642444	0.088778	-0.237038
O33	O	1.043433	-0.510240	-0.736991
O34	O	1.543433	-0.010240	-0.236991
C35	C	0.906420	-0.437846	-0.503397
C36	C	1.406420	0.062154	-0.003397
C37	C	0.816797	-0.437850	-0.503414
C38	C	1.316797	0.062150	-0.003414
C39	C	0.744015	-0.437860	-0.503416
C40	C	1.244015	0.062140	-0.003416
C41	C	0.652706	-0.437881	-0.503421
C42	C	1.152706	0.062119	-0.003421
C43	C	0.579928	-0.437902	-0.503431
C44	C	1.079928	0.062098	-0.003431
C45	C	0.488613	-0.437922	-0.503438
C46	C	0.988613	0.062078	-0.003438
C47	C	1.115969	-0.648187	-0.503340
C48	C	1.615969	-0.148187	-0.003340
C49	C	1.115994	-0.737805	-0.503306
C50	C	1.615994	-0.237805	-0.003306
C51	C	1.116043	-1.065969	-0.503189
C52	C	1.616043	-0.565969	-0.003189
C53	C	1.116027	-0.974664	-0.503225
C54	C	1.616027	-0.474664	-0.003225
C55	C	1.116019	-0.901890	-0.503249
C56	C	1.616019	-0.401890	-0.003249
C57	C	1.116002	-0.810579	-0.503283
C58	C	1.616002	-0.310579	-0.003283
C59	C	1.326216	-0.437927	-0.503439
C60	C	1.826216	0.062073	-0.003439
C61	C	1.415836	-0.437944	-0.503448
C62	C	1.915836	0.062056	-0.003448
C63	C	1.089232	-0.464457	-0.774933
C64	C	1.589232	0.035543	-0.274933
C65	C	1.077893	-0.475851	-0.891088
C66	C	1.577893	0.024149	-0.391088
C67	C	1.115903	-0.228395	-0.503420
C68	C	1.615903	0.271605	-0.003420
C69	C	1.116062	-0.138749	-0.503158
C70	C	1.616062	0.361251	-0.003158
C71	C	1.121870	-0.431975	-0.942862
C72	C	1.621870	0.068025	-0.442862
C73	C	1.110151	-0.443751	-1.062915
C74	C	1.610151	0.056249	-0.562915
C75	C	1.142712	-0.411229	-0.230842
C76	C	1.642712	0.088771	0.269158
C77	C	1.154134	-0.399869	-0.114687
C78	C	1.654134	0.100131	0.385313
H79	H	1.168199	-0.385697	-0.898312
H80	H	1.668199	0.114303	-0.398312
O81	O	1.209295	-0.344559	-1.061507
O82	O	1.709295	0.155441	-0.561507
C83	C	1.169532	-0.286307	-0.998444
C84	C	1.669532	0.213693	-0.498444
H85	H	1.102827	-0.284482	-1.031475
H86	H	1.602827	0.215518	-0.531475
H87	H	1.174758	-0.303179	-0.915744
H88	H	1.674758	0.196821	-0.415744
C89	C	1.291070	-0.204592	-0.956088
C90	C	1.791070	0.295408	-0.456088
C91	C	1.209144	-0.202346	-0.996661
C92	C	1.709144	0.297654	-0.496661
H93	H	1.315506	-0.152801	-0.954983
H94	H	1.815506	0.347199	-0.454983
H95	H	1.317860	-0.243839	-0.998571
H96	H	1.817860	0.256161	-0.498571
H97	H	1.295414	-0.218655	-0.887174
H98	H	1.795414	0.281345	-0.387174
H99	H	1.204801	-0.188293	-1.065577
H100	H	1.704801	0.311707	-0.565577
H101	H	1.182353	-0.163095	-0.954190
H102	H	1.682353	0.336905	-0.454190
O103	O	1.054891	-0.498910	-1.116213
O104	O	1.554891	0.001090	-0.616213
C105	C	1.055504	-0.498398	-1.224214
C106	C	1.555504	0.001602	-0.724214
H107	H	1.080509	-0.437643	-1.239040
H108	H	1.580509	0.062357	-0.739040
H109	H	1.095423	-0.549276	-1.255099
H110	H	1.595423	-0.049276	-0.755099
C111	C	0.937758	-0.585804	-1.262229
C112	C	1.437758	-0.085804	-0.762229
C113	C	0.968463	-0.511180	-1.280439
C114	C	1.468463	-0.011180	-0.780439
H115	H	0.884068	-0.593692	-1.296913
H116	H	1.384068	-0.093692	-0.796913
H117	H	0.937346	-0.586151	-1.189467
H118	H	1.437346	-0.086151	-0.689467
H119	H	0.971031	-0.628193	-1.287966
H120	H	1.471031	-0.128193	-0.787966
H121	H	0.935196	-0.468792	-1.254690
H122	H	1.435196	0.031208	-0.754690
H123	H	0.968867	-0.510826	-1.353198
H124	H	1.468867	-0.010826	-0.853198
O125	O	1.022726	-0.531117	-0.944343
O126	O	1.522726	-0.031117	-0.444343
C127	C	1.062497	-0.589392	-1.007363
C128	C	1.562497	-0.089392	-0.507363
H129	H	1.122049	-0.562593	-1.023563
H130	H	1.622049	-0.062593	-0.523563
H131	H	1.075399	-0.645057	-0.965299
H132	H	1.575399	-0.145057	-0.465299
C133	C	0.934929	-0.646970	-1.091243
C134	C	1.434929	-0.146970	-0.591243
C135	C	1.008067	-0.614053	-1.111148
C136	C	1.508067	-0.114053	-0.611148
H137	H	0.901353	-0.662185	-1.155261
H138	H	1.401353	-0.162185	-0.655261
H139	H	0.908134	-0.607711	-1.048784
H140	H	1.408134	-0.107711	-0.548784
H141	H	0.945691	-0.693353	-1.056187
H142	H	1.445691	-0.193353	-0.556187
H143	H	0.997306	-0.567665	-1.146191
H144	H	1.497306	-0.067665	-0.646191
H145	H	1.034860	-0.653305	-1.153616
H146	H	1.534860	-0.153305	-0.653616
