data_functionalizedCrystal
_audit_creation_method	'MofGen! by Chris Wilmer'
_symmetry_space_group_name_H-M	'P1'
_symmetry_Int_Tables_number	1
_symmetry_cell_setting	triclinic
loop_
_symmetry_equiv_pos_as_xyz
  x,y,z
_cell_length_a	12.645331
_cell_length_b	12.645275
_cell_length_c	12.594517
_cell_angle_alpha	89.934876
_cell_angle_beta	89.993798
_cell_angle_gamma	89.938094
loop_
_atom_site_label
_atom_site_type_symbol
_atom_site_fract_x
_atom_site_fract_y
_atom_site_fract_z
Zn1	Zn	-1.620152	-0.422451	0.602455
Zn2	Zn	-1.619941	-0.599665	0.424684
Zn3	Zn	-1.442929	-0.422397	0.424473
Zn4	Zn	-1.442694	-0.599656	0.602602
O5	O	-1.531429	-0.511042	0.513553
O6	O	-1.768471	-0.445985	0.578900
O7	O	-1.596471	-0.576130	0.275710
O8	O	-1.466624	-0.274056	0.447933
O9	O	-1.768316	-0.576183	0.448292
O10	O	-1.596829	-0.274096	0.578695
O11	O	-1.466420	-0.445893	0.275555
O12	O	-1.294550	-0.445885	0.448075
O13	O	-1.466223	-0.576169	0.751529
O14	O	-1.294378	-0.576116	0.578946
O15	O	-1.596601	-0.445977	0.751420
O16	O	-1.596243	-0.748012	0.448435
O17	O	-1.466019	-0.748006	0.579151
C18	C	-1.255999	-0.510994	0.513505
C19	C	-1.138169	-0.510999	0.513509
C20	C	-0.970679	-0.428680	0.431620
C21	C	-1.093238	-0.428903	0.431268
C22	C	-1.093562	-0.622657	0.482997
C23	C	-0.970964	-0.622198	0.482430
C24	C	-0.971005	-0.482692	0.626203
C25	C	-1.093613	-0.480207	0.625582
C26	C	-1.531111	-0.786474	0.513855
C27	C	-1.531073	-0.904304	0.514020
C28	C	-0.807934	-0.511070	0.513587
C29	C	-0.925764	-0.511030	0.513559
C30	C	-1.531410	-0.511078	0.791174
C31	C	-1.531401	-0.511094	0.909480
C32	C	-1.531776	-0.234536	0.513274
C33	C	-1.531925	-0.116705	0.513155
C34	C	-1.613664	-0.071849	0.595607
C35	C	-1.612930	0.050706	0.596429
C36	C	-1.419445	0.050480	0.543895
C37	C	-1.420410	-0.072116	0.543993
C38	C	-1.560654	-0.070801	0.400805
C39	C	-1.562626	0.051812	0.401907
C40	C	-1.460487	-0.581877	1.049555
C41	C	-1.434679	-0.485168	0.978639
C42	C	-1.557162	-0.607792	0.978824
C43	C	-1.505534	-0.414293	1.049349
C44	C	-1.628062	-0.536981	1.049541
C45	C	-1.602291	-0.440206	0.978656
C46	C	-1.531426	-0.511040	1.237012
C47	C	-1.531392	-0.511053	1.118707
H48	H	-0.941280	-0.345626	0.450520
H49	H	-0.939844	-0.447198	0.348635
C50	C	-1.304357	-0.610540	1.154218
C51	C	-1.379480	-0.662604	1.091593
H52	H	-1.254350	-0.660375	1.180176
H53	H	-1.269061	-0.558753	1.112633
H54	H	-1.338713	-0.577197	1.212329
H55	H	-1.345124	-0.695941	1.033477
H56	H	-1.414779	-0.714410	1.133179
H57	H	-1.122781	-0.398040	0.648592
C58	C	-1.723320	-0.175864	0.480465
C59	C	-1.726083	-0.110949	0.570420
H60	H	-1.792726	-0.200011	0.464920
H61	H	-1.696793	-0.136799	0.421788
H62	H	-1.678580	-0.234818	0.493689
H63	H	-1.770818	-0.051991	0.557193
H64	H	-1.752625	-0.150015	0.629110
H65	H	-1.357391	-0.101820	0.486538
H66	H	-1.501103	-0.099795	0.339397
H67	H	-1.507213	0.082473	0.337486
H68	H	-1.644795	0.081421	0.379357
H69	H	-1.122529	-0.447634	0.347796
C70	C	-1.593846	-0.224722	0.707110
C71	C	-1.588267	-0.114137	0.707363
H72	H	-1.578155	-0.250830	0.776100
H73	H	-1.663049	-0.246151	0.687303
H74	H	-1.544102	-0.252180	0.657765
H75	H	-1.638016	-0.086678	0.756702
H76	H	-1.519054	-0.092698	0.727184
H77	H	-0.942327	-0.646235	0.400086
H78	H	-0.941245	-0.685629	0.539515
H79	H	-1.122657	-0.685657	0.540813
H80	H	-0.941952	-0.542673	0.687253
H81	H	-1.124200	-0.535820	0.689891
H82	H	-1.124225	-0.647114	0.401541
H83	H	-1.593648	0.079513	0.679933
C84	C	-1.296639	-0.355020	0.973728
C85	C	-1.324325	-0.455579	0.936591
H86	H	-1.228507	-0.336765	0.947777
H87	H	-1.346936	-0.304667	0.949451
H88	H	-1.295682	-0.355437	1.049147
H89	H	-1.325290	-0.455160	0.861172
H90	H	-1.274016	-0.505946	0.960863
C91	C	-1.724221	0.202753	0.571960
C92	C	-1.724670	0.092025	0.571263
H93	H	-1.793207	0.228255	0.556419
H94	H	-1.703126	0.227174	0.640022
H95	H	-1.676035	0.227922	0.519896
H96	H	-1.772850	0.066856	0.623333
H97	H	-1.745778	0.067594	0.503191
C98	C	-1.367198	-0.024589	0.720583
C99	C	-1.387562	-0.111458	0.654870
H100	H	-1.346928	-0.048875	0.789037
H101	H	-1.311690	0.016480	0.690932
H102	H	-1.429176	0.017532	0.726360
H103	H	-1.325582	-0.153575	0.649087
H104	H	-1.443076	-0.152544	0.684529
H105	H	-0.940168	-0.402690	0.653972
H106	H	-1.123404	-0.346103	0.450379
H107	H	-1.356623	0.079595	0.485929
C108	C	-1.683195	-0.360570	0.825715
C109	C	-1.683242	-0.359288	0.936884
H110	H	-1.733172	-0.310617	0.799927
H111	H	-1.614741	-0.342748	0.800374
H112	H	-1.701660	-0.429212	0.801451
H113	H	-1.664769	-0.290647	0.961148
H114	H	-1.751711	-0.377104	0.962235
C115	C	-1.549774	-0.229662	1.054368
C116	C	-1.475980	-0.303843	1.090993
H117	H	-1.531527	-0.161480	1.080087
H118	H	-1.549618	-0.229000	0.978955
H119	H	-1.618221	-0.248191	1.079241
H120	H	-1.407533	-0.285319	1.066114
H121	H	-1.476125	-0.304502	1.166422
H122	H	-1.394441	0.080646	0.625364
H123	H	-1.640926	-0.101172	0.373251
C124	C	-1.765209	-0.667978	1.056097
C125	C	-1.738383	-0.566611	1.091628
H126	H	-1.833314	-0.686279	1.082089
H127	H	-1.765860	-0.668841	0.980691
H128	H	-1.714653	-0.717563	1.081433
H129	H	-1.788935	-0.517024	1.066286
H130	H	-1.737740	-0.565740	1.167050
H131	H	-1.578956	-0.689586	0.947843
