data_functionalizedCrystal
_audit_creation_method	'MofGen! by Chris Wilmer'
_symmetry_space_group_name_H-M	'P1'
_symmetry_Int_Tables_number	1
_symmetry_cell_setting	triclinic
loop_
_symmetry_equiv_pos_as_xyz
  x,y,z
_cell_length_a	12.759401
_cell_length_b	12.759400
_cell_length_c	19.076919
_cell_angle_alpha	87.725144
_cell_angle_beta	87.715880
_cell_angle_gamma	90.013728
loop_
_atom_site_label
_atom_site_type_symbol
_atom_site_fract_x
_atom_site_fract_y
_atom_site_fract_z
Zn1	Zn	1.582347	-0.442179	0.397909
Zn2	Zn	1.589312	-0.610815	0.280221
Zn3	Zn	1.413719	-0.435148	0.280234
Zn4	Zn	1.406639	-0.617812	0.397884
O5	O	1.498004	-0.526488	0.339062
O6	O	1.730291	-0.464563	0.382303
O7	O	1.571898	-0.581642	0.181734
O8	O	1.436136	-0.289061	0.295860
O9	O	1.735409	-0.588459	0.295839
O10	O	1.560026	-0.294226	0.382316
O11	O	1.442890	-0.452580	0.181743
O12	O	1.265759	-0.459365	0.295835
O13	O	1.424068	-0.600384	0.496376
O14	O	1.260557	-0.593567	0.382272
O15	O	1.553160	-0.471347	0.496395
O16	O	1.565032	-0.758763	0.295813
O17	O	1.430823	-0.763904	0.382259
C18	C	1.225038	-0.526463	0.339052
C19	C	1.108260	-0.526479	0.339065
C20	C	1.497943	-0.799455	0.339048
C21	C	1.498011	-0.916232	0.339065
C22	C	1.050722	-0.462097	0.384157
C23	C	0.940998	-0.462117	0.384161
C24	C	0.946359	-0.590910	0.293980
C25	C	1.056082	-0.590883	0.293972
C26	C	1.102901	-0.397692	0.429249
C27	C	1.045362	-0.333306	0.474346
C28	C	0.935638	-0.333326	0.474350
C29	C	0.883452	-0.397733	0.429258
C30	C	1.567966	-0.968386	0.294102
C31	C	1.568029	-1.078111	0.294124
C32	C	1.428174	-1.083520	0.384073
C33	C	1.428117	-0.973797	0.384054
C34	C	1.637860	-0.910821	0.249113
C35	C	1.707819	-0.962974	0.204146
C36	C	1.707883	-1.072700	0.204168
C37	C	1.637987	-1.130272	0.249156
C38	C	1.772037	-0.526514	0.339072
C39	C	1.888813	-0.526526	0.339077
C40	C	1.487048	-0.537430	0.522637
C41	C	1.482378	-0.542093	0.600866
C42	C	1.498094	-0.252457	0.339092
C43	C	1.498132	-0.135681	0.339105
C44	C	1.508979	-0.515513	0.156201
C45	C	1.513851	-0.510554	0.077973
C46	C	1.547393	-0.477104	0.637629
C47	C	1.542993	-0.481482	0.711133
C48	C	1.473583	-0.550854	0.747873
C49	C	1.408562	-0.615845	0.711105
C50	C	1.412957	-0.611462	0.637602
C51	C	1.453226	-0.571162	0.967702
C52	C	1.448837	-0.575543	1.041210
C53	C	1.583267	-0.441177	1.041233
C54	C	1.587661	-0.436805	0.967729
C55	C	1.522636	-0.501792	0.930967
N56	N	1.469086	-0.555332	0.823006
N57	N	1.527128	-0.497308	0.855835
H58	H	1.087860	-0.280862	0.511053
N59	N	1.662485	-0.361958	0.928090
H60	H	1.712982	-0.402825	0.897583
H61	H	1.702934	-0.321447	0.962566
H62	H	0.903860	-0.643348	0.257270
N63	N	1.638061	-1.248618	0.249173
H64	H	1.566794	-1.274340	0.236198
H65	H	1.654492	-1.277802	0.297479
H66	H	1.636206	-0.388267	1.071173
N67	N	1.221243	-0.397654	0.429262
H68	H	1.250564	-0.375340	0.381008
H69	H	1.246820	-0.470533	0.442146
N70	N	0.873576	-0.263868	0.522974
H71	H	0.923284	-0.223063	0.551534
H72	H	0.826110	-0.308650	0.555498
N73	N	0.765107	-0.397747	0.429254
H74	H	0.736572	-0.347183	0.464660
H75	H	0.737990	-0.470654	0.442087
H76	H	1.637814	-0.821477	0.249088
H77	H	1.102931	-0.643309	0.257255
H78	H	1.764733	-0.916094	0.167522
N79	N	1.783341	-1.128955	0.155677
H80	H	1.827607	-1.075835	0.127176
H81	H	1.742583	-1.172593	0.123092
H82	H	1.392312	-0.632037	1.071121
H83	H	1.371267	-1.130404	0.420700
N84	N	1.352673	-0.917536	0.432551
H85	H	1.308399	-0.970651	0.461051
H86	H	1.305775	-0.870355	0.403868
H87	H	1.603917	-0.420617	0.607721
H88	H	1.595937	-0.428563	0.741062
H89	H	1.400293	-0.624095	0.937779
H90	H	1.352043	-0.672326	0.741024
N91	N	1.342826	-0.681547	0.597947
H92	H	1.298186	-0.726158	0.632373
H93	H	1.387390	-0.728355	0.567443
