data_functionalizedCrystal
_audit_creation_method	'MofGen! by Chris Wilmer'
_symmetry_space_group_name_H-M	'P1'
_symmetry_Int_Tables_number	1
_symmetry_cell_setting	triclinic
loop_
_symmetry_equiv_pos_as_xyz
  x,y,z
_cell_length_a	6.817900
_cell_length_b	10.992421
_cell_length_c	10.992709
_cell_angle_alpha	91.821350
_cell_angle_beta	108.769842
_cell_angle_gamma	108.764763
loop_
_atom_site_label
_atom_site_type_symbol
_atom_site_fract_x
_atom_site_fract_y
_atom_site_fract_z
V1	V	-4.114273	-0.177698	-0.400567
O2	O	-4.072400	0.008604	-0.392960
O3	O	-4.091851	-0.352407	-0.397810
O4	O	-4.091875	-0.174936	-0.575276
O5	O	-4.072376	-0.170096	-0.214265
V6	V	-4.591165	-0.155418	-0.378286
O7	O	-4.390076	-0.226572	-0.449443
O8	O	-4.765559	-0.106543	-0.329411
O9	O	-4.390380	0.019292	-0.381043
O10	O	-4.750434	-0.341719	-0.385893
O11	O	-4.750459	-0.163020	-0.564588
O12	O	-4.390356	-0.158179	-0.203577
C13	C	-3.942330	-0.394999	-0.391486
C14	C	-4.005458	-0.537826	-0.390396
C15	C	-3.942360	-0.168615	-0.617861
C16	C	-4.005503	-0.167513	-0.760686
C17	C	-4.251991	-0.174856	-0.822996
C18	C	-4.318017	-0.174244	-0.971641
C19	C	-4.047907	-0.285143	-0.979406
C20	C	-3.983726	-0.286403	-0.830864
C21	C	-3.853558	-0.040830	-0.792390
C22	C	-3.922573	-0.038252	-0.940906
C23	C	-3.873122	-0.733114	-0.381610
C24	C	-3.807040	-0.584470	-0.382235
C25	C	-4.076060	-0.576480	-0.270583
C26	C	-4.140296	-0.725023	-0.269314
C27	C	-4.271816	-0.763566	-0.514925
C28	C	-4.202763	-0.615052	-0.517525
C29	C	-4.203243	0.061876	-0.387364
C30	C	-4.119354	0.204702	-0.388462
C31	C	-4.203213	-0.164505	-0.160986
C32	C	-4.119307	-0.165600	-0.018159
H33	H	-4.375701	-0.088837	-0.997492
Cl34	Cl	-3.691035	-0.017057	-0.987391
Cl35	Cl	-4.300901	-0.529797	-0.272706
Cl36	Cl	-3.999092	0.098310	-0.977964
Cl37	Cl	-4.264309	-0.430692	-1.063144
H38	H	-3.807275	-0.286194	-0.789881
Cl39	Cl	-3.577476	-0.503515	-0.241310
H40	H	-4.367420	-0.266215	-0.802426
H41	H	-3.860491	0.049659	-0.742944
Cl42	Cl	-3.822677	-0.282460	-1.025926
Cl43	Cl	-4.434029	-0.568420	-0.538186
Cl44	Cl	-4.154183	-0.433505	-0.803821
H45	H	-3.673528	-0.034197	-0.751195
Cl46	Cl	-3.858998	-0.492769	-0.125270
Cl47	Cl	-4.292809	-0.043820	-0.751459
Cl48	Cl	-3.718825	-0.544663	-0.514403
H49	H	-4.153768	-0.591142	-0.606168
Cl50	Cl	-4.262051	-0.839999	-0.654898
Cl51	Cl	-4.549485	-0.827030	-0.524614
H52	H	-4.466314	-0.265694	-1.024092
H53	H	-3.757323	-0.753688	-0.290409
H54	H	-4.029489	-0.742552	-0.174185
Cl55	Cl	-3.833242	-0.804770	-0.512961
H56	H	-4.316507	-0.765906	-0.269125
