data_functionalizedCrystal
_audit_creation_method	'MofGen! by Chris Wilmer'
_symmetry_space_group_name_H-M	'P1'
_symmetry_Int_Tables_number	1
_symmetry_cell_setting	triclinic
loop_
_symmetry_equiv_pos_as_xyz
  x,y,z
_cell_length_a	34.408637
_cell_length_b	34.407814
_cell_length_c	34.404193
_cell_angle_alpha	60.004510
_cell_angle_beta	60.009006
_cell_angle_gamma	59.994604
loop_
_atom_site_label
_atom_site_type_symbol
_atom_site_fract_x
_atom_site_fract_y
_atom_site_fract_z
O1	O	0.053973	-0.567860	0.474801
O2	O	0.553973	-0.067860	0.974801
O3	O	0.020377	-0.442124	0.382567
O4	O	0.520377	0.057876	0.882567
O5	O	0.100004	-0.521670	0.382483
O6	O	0.600004	-0.021670	0.882483
O7	O	-0.025653	-0.488314	0.474886
O8	O	0.474347	0.011686	0.974886
O9	O	0.126426	-0.495253	0.408816
O10	O	0.626426	0.004747	0.908816
O11	O	0.046800	-0.415707	0.408900
O12	O	0.546800	0.084293	0.908900
O13	O	0.080396	-0.541443	0.501134
O14	O	0.580396	-0.041443	1.001134
Zn15	Zn	0.067793	-0.474381	0.459198
Zn16	Zn	0.567793	0.025619	0.959198
Zn17	Zn	0.032980	-0.509186	0.424503
Zn18	Zn	0.532980	-0.009186	0.924503
O19	O	0.000769	-0.461897	0.501219
O20	O	0.500769	0.038103	1.001219
N21	N	0.091552	-0.450631	0.482879
N22	N	0.591552	0.049369	0.982879
N23	N	0.009225	-0.532940	0.400823
N24	N	0.509225	-0.032940	0.900823
C25	C	0.142848	-0.268847	0.534081
C26	C	0.642848	0.231153	1.034081
C27	C	0.142979	-0.399386	0.664559
C28	C	0.642979	0.100614	1.164559
C29	C	0.142862	-0.399365	0.534081
C30	C	0.642862	0.100635	1.034081
C31	C	0.273409	-0.399338	0.533986
C32	C	0.773409	0.100662	1.033986
C33	C	0.157225	-0.311914	0.548422
C34	C	0.657225	0.188086	1.048422
C35	C	0.157300	-0.385019	0.621491
C36	C	0.657300	0.114981	1.121491
C37	C	0.230339	-0.384991	0.548370
C38	C	0.730339	0.115009	1.048370
C39	C	0.157235	-0.385007	0.548422
C40	C	0.657235	0.114993	1.048422
C41	C	0.124548	-0.214028	0.515827
C42	C	0.624548	0.285972	1.015827
C43	C	0.124571	-0.417639	0.515827
C44	C	0.624571	0.082361	1.015827
C45	C	0.175526	-0.366733	0.566676
C46	C	0.675526	0.133267	1.066676
C47	C	0.353121	-0.385580	0.491988
C48	C	0.853121	0.114420	0.991988
C49	C	0.402952	-0.402180	0.475348
C50	C	0.902952	0.097820	0.975348
C51	C	0.402981	-0.482812	0.506096
C52	C	0.902981	0.017188	1.006096
C53	C	0.353151	-0.466211	0.522737
C54	C	0.853151	0.033789	1.022737
C55	C	0.136544	-0.189099	0.466839
C56	C	0.636544	0.310901	0.966839
C57	C	0.119905	-0.139265	0.450247
C58	C	0.619905	0.360735	0.950247
C59	C	0.079280	-0.139291	0.531632
C60	C	0.579280	0.360709	1.031632
C61	C	0.095918	-0.189125	0.548224
C62	C	0.595918	0.310875	1.048224
C63	C	0.075577	-0.405615	0.527900
C64	C	0.575577	0.094385	1.027900
C65	C	0.058953	-0.422228	0.511301
C66	C	0.558953	0.077772	1.011301
C67	C	0.140315	-0.462889	0.470566
C68	C	0.640315	0.037111	0.970566
C69	C	0.156941	-0.446276	0.487159
C70	C	0.656941	0.053724	0.987159
C71	C	0.075772	-0.405653	0.744326
C72	C	0.575772	0.094347	1.244326
C73	C	0.059206	-0.422280	0.794159
C74	C	0.559206	0.077720	1.294159
C75	C	0.140607	-0.462951	0.794094
C76	C	0.640607	0.037049	1.294094
C77	C	0.157172	-0.446325	0.744260
C78	C	0.657172	0.053675	1.244260
C79	C	0.124753	-0.417674	0.719377
C80	C	0.624753	0.082326	1.219377
C81	C	0.328223	-0.417595	0.515681
C82	C	0.828223	0.082405	1.015681
C83	C	-0.172390	-0.583988	0.349141
C84	C	0.327610	-0.083988	0.849141
C85	C	-0.041751	-0.584138	0.218783
C86	C	0.458249	-0.084138	0.718783
C87	C	-0.041941	-0.584130	0.349402
C88	C	0.458059	-0.084130	0.849402
C89	C	-0.041957	-0.714607	0.349338
C90	C	0.458043	-0.214607	0.849338
C91	C	-0.129326	-0.598388	0.334853
C92	C	0.370674	-0.098388	0.834853
C93	C	-0.056165	-0.598473	0.261852
C94	C	0.443835	-0.098473	0.761852
C95	C	-0.056282	-0.671535	0.334962
C96	C	0.443718	-0.171535	0.834962
C97	C	-0.056272	-0.598469	0.334999
C98	C	0.443728	-0.098469	0.834999
C99	C	-0.227205	-0.565659	0.367327
C100	C	0.272795	-0.065659	0.867327
C101	C	-0.023703	-0.565882	0.367734
C102	C	0.476297	-0.065882	0.867734
C103	C	-0.074511	-0.616717	0.316667
C104	C	0.425489	-0.116717	0.816667
C105	C	-0.055754	-0.794298	0.391257
C106	C	0.444246	-0.294298	0.891257
C107	C	-0.039181	-0.844132	0.407888
C108	C	0.460819	-0.344132	0.907888
C109	C	0.041447	-0.844215	0.377269
C110	C	0.541447	-0.344215	0.877269
C111	C	0.024873	-0.794381	0.360637
C112	C	0.524873	-0.294381	0.860637
C113	C	-0.252183	-0.577666	0.416302
C114	C	0.247817	-0.077666	0.916302
C115	C	-0.302014	-0.561001	0.432833
C116	C	0.197986	-0.061001	0.932833
C117	C	-0.301886	-0.520329	0.351410
C118	C	0.198114	-0.020329	0.851410
C119	C	-0.252055	-0.536994	0.334880
C120	C	0.247945	-0.036994	0.834880
C121	C	-0.035709	-0.516892	0.355682
C122	C	0.464291	-0.016892	0.855682
C123	C	-0.019129	-0.500308	0.372353
C124	C	0.480871	-0.000308	0.872353
C125	C	0.021465	-0.581700	0.413115
C126	C	0.521465	-0.081700	0.913115
C127	C	0.004884	-0.598286	0.396450
C128	C	0.504884	-0.098286	0.896450
C129	C	-0.035389	-0.516907	0.139026
C130	C	0.464611	-0.016907	0.639026
C131	C	-0.018707	-0.500324	0.089193
C132	C	0.481293	-0.000324	0.589193
C133	C	0.021949	-0.581721	0.089240
C134	C	0.521949	-0.081721	0.589240
C135	C	0.005268	-0.598303	0.139074
C136	C	0.505268	-0.098303	0.639074
C137	C	-0.023402	-0.565894	0.163965
C138	C	0.476598	-0.065894	0.663965
C139	C	-0.023728	-0.769425	0.367633
C140	C	0.476272	-0.269425	0.867633
N141	N	0.427173	-0.450553	0.482630
N142	N	0.927173	0.049447	0.982630
O143	O	0.589997	-0.458460	0.365361
O144	O	1.089997	0.041540	0.865361
O145	O	0.590185	-0.550997	0.490963
O146	O	1.090185	-0.050997	0.990963
O147	O	0.590104	-0.550786	0.411309
O148	O	1.090104	-0.050786	0.911309
O149	O	0.590077	-0.458671	0.445016
O150	O	1.090077	0.041329	0.945016
O151	O	0.510940	-0.524462	0.437777
O152	O	1.010940	-0.024462	0.937777
O153	O	0.511020	-0.524674	0.517432
O154	O	1.011020	-0.024674	1.017432
O155	O	0.510832	-0.432136	0.391830
O156	O	1.010832	0.067864	0.891830
Zn157	Zn	0.498357	-0.474225	0.458833
Zn158	Zn	0.998357	0.025775	0.958833
Zn159	Zn	0.602660	-0.508908	0.423960
Zn160	Zn	1.102660	-0.008908	0.923960
O161	O	0.510913	-0.432348	0.471484
O162	O	1.010913	0.067652	0.971484
N163	N	0.673844	-0.532580	0.400158
N164	N	1.173844	-0.032580	0.900158
N165	N	0.091520	-0.115070	0.482873
N166	N	0.591520	0.384930	0.982873
O167	O	-0.025663	0.047841	0.474857
O168	O	0.474337	0.547841	0.974857
O169	O	0.099940	0.047877	0.382299
O170	O	0.599940	0.547877	0.882299
O171	O	0.020247	0.047844	0.382560
O172	O	0.520247	0.547844	0.882560
O173	O	0.054030	0.047874	0.474596
O174	O	0.554030	0.547874	0.974596
O175	O	0.046674	-0.031326	0.408942
O176	O	0.546674	0.468674	0.908942
O177	O	0.126367	-0.031293	0.408680
O178	O	0.626367	0.468707	0.908680
O179	O	0.000764	-0.031329	0.501238
O180	O	0.500764	0.468671	1.001238
Zn181	Zn	0.067761	-0.043881	0.459148
Zn182	Zn	0.567761	0.456119	0.959148
Zn183	Zn	0.032943	0.060429	0.424389
Zn184	Zn	0.532943	0.560429	0.924389
O185	O	0.080457	-0.031296	0.500977
O186	O	0.580457	0.468704	1.000977
N187	N	0.009178	0.131618	0.400665
N188	N	0.509178	0.631618	0.900665
N189	N	0.091852	-0.450680	0.818332
N190	N	0.591852	0.049320	1.318332
O191	O	0.083862	-0.567845	0.981235
O192	O	0.583862	-0.067845	1.481235
O193	O	-0.008657	-0.442198	0.981276
O194	O	0.491343	0.057802	1.481276
O195	O	-0.008441	-0.521875	0.981252
O196	O	0.491559	-0.021875	1.481252
O197	O	0.083646	-0.488168	0.981258
O198	O	0.583646	0.011832	1.481258
O199	O	0.017919	-0.495468	0.902085
O200	O	0.517919	0.004532	1.402085
O201	O	0.017703	-0.415791	0.902109
O202	O	0.517703	0.084209	1.402109
O203	O	0.110222	-0.541438	0.902067
O204	O	0.610222	-0.041438	1.402067
Zn205	Zn	0.068148	-0.474422	0.889518
Zn206	Zn	0.568148	0.025578	1.389518
Zn207	Zn	0.033417	-0.509214	0.993825
Zn208	Zn	0.533417	-0.009214	1.493825
O209	O	0.110006	-0.461761	0.902091
O210	O	0.610006	0.038239	1.402091
N211	N	0.009712	-0.532961	1.065011
N212	N	0.509712	-0.032961	1.565011
C213	C	0.030439	-0.413071	0.383027
C214	C	0.530439	0.086929	0.883027
C215	C	0.129046	-0.511580	0.382922
C216	C	0.629046	-0.011580	0.882922
C217	C	0.070334	-0.570496	0.500675
C218	C	0.570334	-0.070496	1.000675
C219	C	-0.028274	-0.471987	0.500780
C220	C	0.471726	0.028013	1.000780
C221	C	0.550625	-0.550579	0.520021
C222	C	1.050625	-0.050579	1.020021
C223	C	0.550527	-0.550317	0.421379
C224	C	1.050527	-0.050317	0.921379
C225	C	0.550389	-0.432554	0.362773
C226	C	1.050389	0.067446	0.862773
C227	C	0.550491	-0.432816	0.461414
C228	C	1.050491	0.067184	0.961414
C229	C	0.128944	0.008394	0.382712
C230	C	0.628944	0.508394	0.882712
C231	C	0.030287	0.008256	0.383068
C232	C	0.530287	0.508256	0.883068
C233	C	-0.028273	0.008252	0.500793
C234	C	0.471727	0.508252	1.000793
C235	C	0.070417	0.008292	0.500470
C236	C	0.570417	0.508292	1.000470
C237	C	-0.008218	-0.413165	0.941698
C238	C	0.491782	0.086835	1.441698
C239	C	-0.007945	-0.511830	0.941653
C240	C	0.492055	-0.011830	1.441653
C241	C	0.109783	-0.570471	0.941646
C242	C	0.609783	-0.070471	1.441646
C243	C	0.109516	-0.471800	0.941673
C244	C	0.609516	0.028200	1.441673
H245	H	0.019320	-0.412483	0.814467
H246	H	0.519320	0.087517	1.314467
H247	H	0.138447	-0.464586	0.941669
H248	H	0.638447	0.035414	1.441669
O249	O	0.078899	-0.613550	0.535279
O250	O	0.578899	-0.113550	1.035279
C251	C	0.073597	-0.607340	0.575395
C252	C	0.573597	-0.107340	1.075395
H253	H	0.078788	-0.572453	0.563957
H254	H	0.578788	-0.072453	1.063957
H255	H	0.036416	-0.606348	0.602345
H256	H	0.536416	-0.106348	1.102345
C257	C	0.104644	-0.691872	0.612309
C258	C	0.604644	-0.191872	1.112309
C259	C	0.111024	-0.649025	0.598260
C260	C	0.611024	-0.149025	1.098260
H261	H	0.127729	-0.717586	0.626415
H262	H	0.627729	-0.217586	1.126415
H263	H	0.108215	-0.696056	0.585283
H264	H	0.608215	-0.196056	1.085283
H265	H	0.073659	-0.691039	0.634765
H266	H	0.573659	-0.191039	1.134765
H267	H	0.142007	-0.649856	0.575800
H268	H	0.642007	-0.149856	1.075800
H269	H	0.107460	-0.644842	0.625283
H270	H	0.607460	-0.144842	1.125283
H271	H	0.044746	-0.608091	0.436494
H272	H	0.544746	-0.108091	0.936494
H273	H	0.550329	-0.403500	0.326702
H274	H	1.050329	0.096500	0.826702
H275	H	0.023260	-0.376951	0.354059
H276	H	0.523260	0.123049	0.854059
H277	H	0.550485	-0.403881	0.468626
H278	H	1.050485	0.096119	0.968626
H279	H	-0.036863	-0.519031	0.941619
H280	H	0.463137	-0.019031	1.441619
O281	O	-0.071288	-0.463548	0.535456
O282	O	0.428712	0.036452	1.035456
C283	C	-0.065021	-0.468868	0.575548
C284	C	0.434979	0.031132	1.075548
H285	H	-0.027049	-0.492676	0.575048
H286	H	0.472951	0.007324	1.075048
H287	H	-0.071819	-0.432470	0.574650
H288	H	0.428181	0.067530	1.074650
C289	C	-0.146922	-0.462446	0.621844
C290	C	0.353078	0.037554	1.121844
C291	C	-0.100286	-0.491691	0.621232
C292	C	0.399714	0.008309	1.121232
H293	H	-0.168676	-0.476523	0.650025
H294	H	0.331324	0.023477	1.150025
H295	H	-0.151145	-0.458860	0.594833
H296	H	0.348855	0.041140	1.094833
H297	H	-0.152580	-0.432116	0.621094
H298	H	0.347420	0.067884	1.121094
H299	H	-0.094626	-0.522019	0.621976
H300	H	0.405374	-0.022019	1.121976
H301	H	-0.096062	-0.495283	0.648244
H302	H	0.403938	0.004717	1.148244
O303	O	0.044214	-0.377842	0.720231
O304	O	0.544214	0.122158	1.220231
C305	C	-0.002570	-0.370786	0.752939
C306	C	0.497430	0.129214	1.252939
H307	H	-0.002445	-0.400839	0.788451
H308	H	0.497555	0.099161	1.288451
H309	H	-0.016847	-0.335290	0.758250
H310	H	0.483153	0.164710	1.258250
C311	C	-0.034712	-0.333523	0.689906
C312	C	0.465288	0.166477	1.189906
C313	C	-0.034559	-0.370436	0.733521
C314	C	0.465441	0.129564	1.233521
H315	H	-0.054445	-0.333305	0.677928
H316	H	0.445555	0.166695	1.177928
H317	H	-0.003192	-0.338275	0.667870
H318	H	0.496808	0.161725	1.167870
H319	H	-0.046608	-0.303947	0.694338
H320	H	0.453392	0.196053	1.194338
H321	H	-0.022657	-0.400012	0.729088
H322	H	0.477343	0.099988	1.229088
H323	H	-0.066077	-0.365689	0.755557
H324	H	0.433923	0.134311	1.255557
O325	O	0.171905	0.008692	0.348003
O326	O	0.671905	0.508692	0.848003
C327	C	0.201521	0.008785	0.365087
C328	C	0.701521	0.508785	0.865087
H329	H	0.178632	0.023614	0.395756
H330	H	0.678632	0.523614	0.895756
H331	H	0.225747	-0.029143	0.378129
H332	H	0.725747	0.470857	0.878129
C333	C	0.260181	0.021877	0.287035
C334	C	0.760181	0.521877	0.787035
C335	C	0.232068	0.040094	0.324701
C336	C	0.732068	0.540094	0.824701
H337	H	0.279026	0.041188	0.262122
H338	H	0.779026	0.541188	0.762122
H339	H	0.240230	0.021812	0.275525
H340	H	0.740230	0.521812	0.775525
H341	H	0.280365	-0.009730	0.297909
H342	H	0.780365	0.490270	0.797909
H343	H	0.211881	0.071698	0.313827
H344	H	0.711881	0.571698	0.813827
H345	H	0.252017	0.040165	0.336208
H346	H	0.752017	0.540165	0.836208
O347	O	-0.071306	0.008307	0.535477
O348	O	0.428694	0.508307	1.035477
C349	C	-0.092372	0.049320	0.548241
C350	C	0.407628	0.549320	1.048241
H351	H	-0.063504	0.063001	0.538569
H352	H	0.436496	0.563001	1.038569
H353	H	-0.118368	0.078023	0.528276
H354	H	0.381632	0.578023	1.028276
C355	C	-0.154717	0.020061	0.614097
C356	C	0.345283	0.520061	1.114097
C357	C	-0.119261	0.036862	0.602221
C358	C	0.380739	0.536862	1.102221
H359	H	-0.171306	0.012378	0.647394
H360	H	0.328694	0.512378	1.147394
H361	H	-0.140526	-0.007569	0.605497
H362	H	0.359474	0.492431	1.105497
H363	H	-0.176376	0.043983	0.597456
H364	H	0.323624	0.543983	1.097456
H365	H	-0.097600	0.012938	0.618857
H366	H	0.402400	0.512938	1.118857
H367	H	-0.133449	0.064488	0.610825
H368	H	0.366551	0.564488	1.110825
O369	O	0.550708	-0.585193	0.563075
O370	O	1.050708	-0.085193	1.063075
C371	C	0.550712	-0.568048	0.592697
C372	C	1.050712	-0.068048	1.092697
H373	H	0.565660	-0.537470	0.569805
H374	H	1.065660	-0.037470	1.069805
H375	H	0.512742	-0.554859	0.616765
H376	H	1.012742	-0.054859	1.116765
C377	C	0.563455	-0.646001	0.651580
C378	C	1.063455	-0.146001	1.151580
C379	C	0.581818	-0.608447	0.623464
C380	C	1.081818	-0.108447	1.123464
H381	H	0.582640	-0.670920	0.670560
H382	H	1.082640	-0.170920	1.170560
H383	H	0.563450	-0.657552	0.631624
H384	H	1.063450	-0.157552	1.131624
H385	H	0.531814	-0.635003	0.671632
H386	H	1.031814	-0.135003	1.171632
H387	H	0.613456	-0.619443	0.603408
H388	H	1.113456	-0.119443	1.103408
H389	H	0.581828	-0.596899	0.643417
H390	H	1.081828	-0.096899	1.143417
O391	O	0.550518	-0.584781	0.412706
O392	O	1.050518	-0.084781	0.912706
C393	C	0.550472	-0.567443	0.365924
C394	C	1.050472	-0.067443	0.865924
H395	H	0.535445	-0.526896	0.353419
H396	H	1.035445	-0.026896	0.853419
H397	H	0.588439	-0.579453	0.341267
H398	H	1.088439	-0.079453	0.841267
C399	C	0.537890	-0.636850	0.380383
C400	C	1.037890	-0.136850	0.880383
C401	C	0.519429	-0.587051	0.365025
C402	C	1.019429	-0.087051	0.865025
H403	H	0.518743	-0.648947	0.379827
H404	H	1.018743	-0.148947	0.879827
H405	H	0.537923	-0.648533	0.411900
H406	H	1.037923	-0.148533	0.911900
H407	H	0.569528	-0.646852	0.359833
H408	H	1.069528	-0.146852	0.859833
H409	H	0.487794	-0.577049	0.385578
H410	H	0.987794	-0.077049	0.885578
H411	H	0.519390	-0.575367	0.333511
H412	H	1.019390	-0.075367	0.833511
O413	O	0.078998	0.008381	0.534954
O414	O	0.578998	0.508381	1.034954
C415	C	0.046363	0.049372	0.547782
C416	C	0.546363	0.549372	1.047782
H417	H	0.032379	0.078029	0.517301
H418	H	0.532379	0.578029	1.017301
H419	H	0.015395	0.040091	0.580944
H420	H	0.515395	0.540091	1.080944
C421	C	0.088610	0.032779	0.595614
C422	C	0.588610	0.532779	1.095614
C423	C	0.071438	0.067977	0.558174
C424	C	0.571438	0.567977	1.058174
H425	H	0.104076	0.044254	0.602027
H426	H	0.604076	0.544254	1.102027
H427	H	0.110596	0.005161	0.586973
H428	H	0.610596	0.505161	1.086973
H429	H	0.062800	0.025048	0.623244
H430	H	0.562800	0.525048	1.123244
H431	H	0.097248	0.075703	0.530544
H432	H	0.597248	0.575703	1.030544
H433	H	0.049456	0.095596	0.566811
H434	H	0.549456	0.595596	1.066811
H435	H	-0.037264	-0.377079	0.941710
H436	H	0.462736	0.122921	1.441710
H437	H	0.138832	-0.606554	0.941627
H438	H	0.638832	-0.106554	1.441627
H439	H	0.167007	-0.486271	0.814352
H440	H	0.667007	0.013729	1.314352
O441	O	0.021649	0.008327	0.348532
O442	O	0.521649	0.508327	0.848532
C443	C	0.026915	0.049325	0.308382
C444	C	0.526915	0.549325	0.808382
H445	H	0.021767	0.077993	0.319761
H446	H	0.521767	0.577993	0.819761
H447	H	0.064071	0.040062	0.281398
H448	H	0.564071	0.540062	0.781398
C449	C	-0.004247	0.032687	0.271631
C450	C	0.495753	0.532687	0.771631
C451	C	-0.010574	0.067899	0.285607
C452	C	0.489426	0.567899	0.785607
H453	H	-0.027370	0.044143	0.257580
H454	H	0.472630	0.544143	0.757580
H455	H	-0.007793	0.005065	0.298680
H456	H	0.492207	0.505065	0.798680
H457	H	0.026718	0.024971	0.249146
H458	H	0.526718	0.524971	0.749146
H459	H	-0.041536	0.075610	0.308095
H460	H	0.458464	0.575610	0.808095
H461	H	-0.007034	0.095523	0.258561
H462	H	0.492966	0.595523	0.758561
H463	H	0.197059	-0.456117	0.723950
H464	H	0.697059	0.043883	1.223950
H465	H	-0.065262	-0.864385	0.427124
H466	H	0.434738	-0.364385	0.927124
O467	O	0.044068	-0.377782	0.555722
O468	O	0.544068	0.122218	1.055722
C469	C	-0.002740	-0.370739	0.562822
C470	C	0.497260	0.129261	1.062822
H471	H	-0.002676	-0.376302	0.532786
H472	H	0.497324	0.123698	1.032786
H473	H	-0.016989	-0.397271	0.598323
H474	H	0.483011	0.102729	1.098323
C475	C	-0.034788	-0.312858	0.600088
C476	C	0.465212	0.187142	1.100088
C477	C	-0.034710	-0.319687	0.563195
C478	C	0.465290	0.180313	1.063195
H479	H	-0.054510	-0.281368	0.600320
H480	H	0.445490	0.218632	1.100320
H481	H	-0.003253	-0.317604	0.595306
H482	H	0.496747	0.182396	1.095306
H483	H	-0.046661	-0.334972	0.629668
H484	H	0.453339	0.165028	1.129668
H485	H	-0.022832	-0.297578	0.533615
H486	H	0.477168	0.202422	1.033615
H487	H	-0.066244	-0.314935	0.567972
H488	H	0.433756	0.185065	1.067972
H489	H	0.166679	-0.486211	0.447227
H490	H	0.666679	0.013789	0.947227
O491	O	0.011364	-0.410493	0.522946
O492	O	0.511364	0.089507	1.022946
C493	C	-0.000722	-0.385406	0.481097
C494	C	0.499278	0.114594	0.981097
H495	H	0.027348	-0.368529	0.451148
H496	H	0.527348	0.131471	0.951148
H497	H	-0.002385	-0.411027	0.470610
H498	H	0.497615	0.088973	0.970610
C499	C	-0.084074	-0.366920	0.526791
C500	C	0.415926	0.133080	1.026791
C501	C	-0.049599	-0.346188	0.490008
C502	C	0.450401	0.153812	0.990008
H503	H	-0.114224	-0.342730	0.532287
H504	H	0.385776	0.157270	1.032287
H505	H	-0.075931	-0.383823	0.554985
H506	H	0.424069	0.116177	1.054985
H507	H	-0.085453	-0.388270	0.518047
H508	H	0.414547	0.111730	1.018047
H509	H	-0.048216	-0.324843	0.498754
H510	H	0.451784	0.175157	0.998754
H511	H	-0.057742	-0.329280	0.461815
H512	H	0.442258	0.170720	0.961815
H513	H	0.129672	-0.118967	0.410356
H514	H	0.629672	0.381033	0.910356
O515	O	0.204550	-0.458010	0.475399
O516	O	0.704550	0.041990	0.975399
C517	C	0.229555	-0.486833	0.446524
C518	C	0.729555	0.013167	0.946524
H519	H	0.205794	-0.504964	0.452904
H520	H	0.705794	-0.004964	0.952904
H521	H	0.240253	-0.463827	0.407494
H522	H	0.740253	0.036173	0.907494
C523	C	0.303696	-0.502636	0.451251
C524	C	0.803696	-0.002636	0.951251
C525	C	0.274514	-0.524908	0.459090
C526	C	0.774514	-0.024908	0.959090
H527	H	0.331430	-0.526121	0.459000
H528	H	0.831430	-0.026121	0.959000
H529	H	0.286850	-0.483216	0.470703
H530	H	0.786850	0.016784	0.970703
H531	H	0.312606	-0.483465	0.418726
H532	H	0.812606	0.016535	0.918726
H533	H	0.265599	-0.544074	0.491616
H534	H	0.765599	-0.044074	0.991616
H535	H	0.291359	-0.544333	0.439643
H536	H	0.791359	-0.044333	0.939643
H537	H	0.423275	-0.522397	0.511838
H538	H	0.923275	-0.022397	1.011838
O539	O	0.328992	-0.497323	0.545674
O540	O	0.828992	0.002677	1.045674
C541	C	0.341162	-0.520662	0.515177
C542	C	0.841162	-0.020662	1.015177
H543	H	0.354826	-0.497961	0.476600
H544	H	0.854826	0.002039	0.976600
H545	H	0.370108	-0.556619	0.523189
H546	H	0.870108	-0.056619	1.023189
C547	C	0.280116	-0.556129	0.570534
C548	C	0.780116	-0.056129	1.070534
C549	C	0.296894	-0.528246	0.523152
C550	C	0.796894	-0.028246	1.023152
H551	H	0.252810	-0.560810	0.575454
H552	H	0.752810	-0.060810	1.075454
H553	H	0.271917	-0.540407	0.591081
H554	H	0.771917	-0.040407	1.091081
H555	H	0.304242	-0.586090	0.577204
H556	H	0.804242	-0.086090	1.077204
H557	H	0.272770	-0.498284	0.516484
H558	H	0.772770	0.001716	1.016484
H559	H	0.305087	-0.543963	0.502604
H560	H	0.805087	-0.043963	1.002604
O561	O	0.427068	-0.371013	0.452321
O562	O	0.927068	0.128987	0.952321
C563	C	0.394381	-0.324544	0.449671
C564	C	0.894381	0.175456	0.949671
H565	H	0.358851	-0.322609	0.452963
H566	H	0.858851	0.177391	0.952963
H567	H	0.389109	-0.315243	0.479856
H568	H	0.889109	0.184757	0.979856
C569	C	0.457431	-0.291340	0.397512
C570	C	0.957431	0.208660	0.897512
C571	C	0.413794	-0.288962	0.401551
C572	C	0.913794	0.211038	0.901551
H573	H	0.469406	-0.269390	0.367830
H574	H	0.969406	0.230610	0.867830
H575	H	0.479453	-0.322647	0.399298
H576	H	0.979453	0.177353	0.899298
H577	H	0.453032	-0.283589	0.422668
H578	H	0.953032	0.216411	0.922668
H579	H	0.418195	-0.296718	0.376398
H580	H	0.918195	0.203282	0.876398
H581	H	0.391773	-0.257655	0.399759
H582	H	0.891773	0.242345	0.899759
H583	H	0.159856	-0.209371	0.440456
H584	H	0.659856	0.290629	0.940456
O585	O	0.328830	-0.338366	0.485158
O586	O	0.828830	0.161634	0.985158
C587	C	0.279509	-0.330578	0.504934
C588	C	0.779509	0.169422	1.004934
H589	H	0.272703	-0.361038	0.507338
H590	H	0.772703	0.138962	1.007338
H591	H	0.265395	-0.328818	0.542072
H592	H	0.765395	0.171182	1.042072
C593	C	0.262250	-0.245887	0.470165
C594	C	0.762250	0.254113	0.970165
C595	C	0.253891	-0.283297	0.473115
C596	C	0.753891	0.216703	0.973115
H597	H	0.246447	-0.216721	0.450540
H598	H	0.746447	0.283279	0.950540
H599	H	0.295479	-0.251134	0.456843
H600	H	0.795479	0.248866	0.956843
H601	H	0.250488	-0.244427	0.501116
H602	H	0.750488	0.255573	1.001116
H603	H	0.265658	-0.284761	0.442165
H604	H	0.765658	0.215239	0.942165
H605	H	0.220664	-0.278049	0.486431
H606	H	0.720664	0.221951	0.986431
O607	O	0.051529	-0.115153	0.563149
O608	O	0.551529	0.384847	1.063149
C609	C	0.076733	-0.127319	0.591920
C610	C	0.576733	0.372681	1.091920
H611	H	0.105753	-0.163494	0.592384
H612	H	0.605753	0.336506	1.092384
H613	H	0.093632	-0.099262	0.576920
H614	H	0.593632	0.400738	1.076920
C615	C	0.006595	-0.085214	0.642414
C616	C	0.506595	0.414786	1.142414
C617	C	0.042235	-0.129647	0.642987
C618	C	0.542235	0.370353	1.142987
H619	H	-0.014685	-0.086648	0.673914
H620	H	0.485315	0.413352	1.173914
H621	H	-0.010386	-0.077016	0.623029
H622	H	0.489614	0.422984	1.123029
H623	H	0.020683	-0.061838	0.629911
H624	H	0.520683	0.438162	1.129911
H625	H	0.028147	-0.153021	0.655484
H626	H	0.528147	0.346979	1.155484
H627	H	0.059212	-0.137850	0.662375
H628	H	0.559212	0.362150	1.162375
O629	O	0.084322	-0.213413	0.595795
O630	O	0.584322	0.286587	1.095795
C631	C	0.105169	-0.262738	0.603496
C632	C	0.605169	0.237262	1.103496
H633	H	0.112630	-0.269546	0.570816
H634	H	0.612630	0.230454	1.070816
H635	H	0.139963	-0.276850	0.610071
H636	H	0.639963	0.223150	1.110071
C637	C	0.061702	-0.279997	0.687311
C638	C	0.561702	0.220003	1.187311
C639	C	0.070861	-0.288359	0.647174
C640	C	0.570861	0.211641	1.147174
H641	H	0.040541	-0.295802	0.714255
H642	H	0.540541	0.204198	1.214255
H643	H	0.047658	-0.246766	0.682123
H644	H	0.547658	0.253234	1.182123
H645	H	0.090699	-0.291757	0.692784
H646	H	0.590699	0.208243	1.192784
H647	H	0.041865	-0.276593	0.641698
H648	H	0.541865	0.223407	1.141698
H649	H	0.084900	-0.321589	0.652362
H650	H	0.584900	0.178411	1.152362
O651	O	-0.030422	-0.452720	0.065044
O652	O	0.469578	0.047280	0.565044
C653	C	-0.059296	-0.427676	0.097703
C654	C	0.440704	0.072324	0.597703
H655	H	-0.077456	-0.451418	0.133206
H656	H	0.422544	0.048582	0.633206
H657	H	-0.036329	-0.416955	0.103059
H658	H	0.463671	0.083045	0.603059
C659	C	-0.075029	-0.353570	0.034578
C660	C	0.424971	0.146430	0.534578
C661	C	-0.097336	-0.382729	0.078183
C662	C	0.402664	0.117271	0.578183
H663	H	-0.098492	-0.325843	0.022537
H664	H	0.401508	0.174157	0.522537
H665	H	-0.055574	-0.370442	0.012574
H666	H	0.444426	0.129558	0.512574
H667	H	-0.055890	-0.344641	0.039047
H668	H	0.444110	0.155359	0.539047
H669	H	-0.116469	-0.391662	0.073712
H670	H	0.383531	0.108338	0.573712
H671	H	-0.116794	-0.365858	0.100185
H672	H	0.383206	0.134142	0.600185
H673	H	-0.058738	-0.490513	0.159288
H674	H	0.441262	0.009487	0.659288
H675	H	0.045284	-0.608113	0.068976
H676	H	0.545284	-0.108113	0.568976
H677	H	-0.058984	-0.490504	0.332300
H678	H	0.441016	0.009496	0.832300
O679	O	0.016939	-0.645908	0.163226
O680	O	0.516939	-0.145908	0.663226
C681	C	0.045826	-0.670954	0.130569
C682	C	0.545826	-0.170954	0.630569
H683	H	0.039526	-0.647187	0.095015
H684	H	0.539526	-0.147187	0.595015
H685	H	0.084846	-0.681741	0.125339
H686	H	0.584846	-0.181741	0.625339
C687	C	0.040916	-0.745036	0.193654
C688	C	0.540916	-0.245036	0.693654
C689	C	0.033176	-0.715847	0.149987
C690	C	0.533176	-0.215847	0.649987
H691	H	0.033115	-0.772730	0.205633
H692	H	0.533115	-0.272730	0.705633
H693	H	0.021456	-0.728163	0.215656
H694	H	0.521456	-0.228163	0.715656
H695	H	0.073434	-0.754021	0.189290
H696	H	0.573434	-0.254021	0.689290
H697	H	0.000658	-0.706858	0.154352
H698	H	0.500658	-0.206858	0.654352
H699	H	0.052630	-0.732719	0.127986
H700	H	0.552630	-0.232719	0.627986
O701	O	-0.030721	-0.452715	0.360562
O702	O	0.469279	0.047285	0.860562
C703	C	-0.013605	-0.432057	0.310652
C704	C	0.486395	0.067943	0.810652
H705	H	0.017127	-0.460465	0.294633
H706	H	0.517127	0.039535	0.794633
H707	H	-0.043459	-0.416287	0.295820
H708	H	0.456541	0.083713	0.795820
C709	C	-0.033841	-0.357527	0.317481
C710	C	0.466159	0.142473	0.817481
C711	C	0.003907	-0.392418	0.297807
C712	C	0.503907	0.107582	0.797807
H713	H	-0.023041	-0.333075	0.309557
H714	H	0.476959	0.166925	0.809557
H715	H	-0.045375	-0.371444	0.351106
H716	H	0.454625	0.128556	0.851106
H717	H	-0.058716	-0.344391	0.305119
H718	H	0.441284	0.155609	0.805119
H719	H	0.028778	-0.405557	0.310174
H720	H	0.528778	0.094443	0.810174
H721	H	0.015444	-0.378502	0.264183
H722	H	0.515444	0.121498	0.764183
H723	H	0.014660	-0.638178	0.406265
H724	H	0.514660	-0.138178	0.906265
H725	H	0.081021	-0.864532	0.371574
H726	H	0.581021	-0.364532	0.871574
O727	O	0.056047	-0.770295	0.337717
O728	O	0.556047	-0.270295	0.837717
C729	C	0.102497	-0.803013	0.335103
C730	C	0.602497	-0.303013	0.835103
H731	H	0.100556	-0.838521	0.364536
H732	H	0.600556	-0.338521	0.864536
H733	H	0.121560	-0.808332	0.298994
H734	H	0.621560	-0.308332	0.798994
C735	C	0.132495	-0.739990	0.305115
C736	C	0.632495	-0.239990	0.805115
C737	C	0.130110	-0.783601	0.341268
C738	C	0.630110	-0.283601	0.841268
H739	H	0.149528	-0.728015	0.308916
H740	H	0.649528	-0.228015	0.808916
H741	H	0.101200	-0.717946	0.306874
H742	H	0.601200	-0.217946	0.806874
H743	H	0.148379	-0.744428	0.275027
H744	H	0.648379	-0.244428	0.775027
H745	H	0.114221	-0.779160	0.371354
H746	H	0.614221	-0.279160	0.871354
H747	H	0.161402	-0.805643	0.339514
H748	H	0.661402	-0.305643	0.839514
O749	O	-0.102978	-0.770127	0.398059
O750	O	0.397022	-0.270127	0.898059
C751	C	-0.127689	-0.802771	0.422478
C752	C	0.372311	-0.302771	0.922478
H753	H	-0.102114	-0.838312	0.416765
H754	H	0.397886	-0.338312	0.916765
H755	H	-0.143243	-0.808045	0.462125
H756	H	0.356757	-0.308045	0.962125
C757	C	-0.199631	-0.739645	0.410332
C758	C	0.300369	-0.239645	0.910332
C759	C	-0.168220	-0.783295	0.403312
C760	C	0.331780	-0.283295	0.903312
H761	H	-0.224634	-0.727631	0.398511
H762	H	0.275366	-0.227631	0.898511
H763	H	-0.182983	-0.717652	0.393881
H764	H	0.317017	-0.217652	0.893881
H765	H	-0.212588	-0.744045	0.443371
H766	H	0.287412	-0.244045	0.943371
H767	H	-0.155259	-0.778893	0.370273
H768	H	0.344741	-0.278893	0.870273
H769	H	-0.184866	-0.805288	0.419756
H770	H	0.315134	-0.305288	0.919756
O771	O	-0.228120	-0.605488	0.447887
O772	O	0.271880	-0.105488	0.947887
C773	C	-0.260853	-0.612516	0.494660
C774	C	0.239147	-0.112516	0.994660
H775	H	-0.296352	-0.582443	0.494514
H776	H	0.203648	-0.082443	0.994514
H777	H	-0.266179	-0.647998	0.508924
H778	H	0.233821	-0.147998	1.008924
C779	C	-0.197858	-0.649825	0.526860
C780	C	0.302142	-0.149825	1.026860
C781	C	-0.241458	-0.612886	0.526681
C782	C	0.258542	-0.112886	1.026681
H783	H	-0.185895	-0.650055	0.546614
H784	H	0.314105	-0.150055	1.046614
H785	H	-0.175805	-0.645091	0.495348
H786	H	0.324195	-0.145091	0.995348
H787	H	-0.202303	-0.679389	0.538746
H788	H	0.297697	-0.179389	1.038746
H789	H	-0.237012	-0.583322	0.514790
H790	H	0.262988	-0.083322	1.014790
H791	H	-0.263511	-0.617614	0.558192
H792	H	0.236489	-0.117614	1.058192
O793	O	-0.326300	-0.572583	0.480405
O794	O	0.173700	-0.072583	0.980405
C795	C	-0.355129	-0.530697	0.492422
C796	C	0.144871	-0.030697	0.992422
H797	H	-0.340074	-0.500786	0.464350
H798	H	0.159926	-0.000786	0.964350
H799	H	-0.392880	-0.520172	0.494013
H800	H	0.107120	-0.020172	0.994013
C801	C	-0.374457	-0.576303	0.575801
C802	C	0.125543	-0.076303	1.075801
C803	C	-0.355962	-0.539567	0.541324
C804	C	0.144038	-0.039567	1.041324
H805	H	-0.374973	-0.581774	0.605967
H806	H	0.125027	-0.081774	1.105967
H807	H	-0.355035	-0.604523	0.567705
H808	H	0.144965	-0.104523	1.067705
H809	H	-0.405914	-0.567527	0.577120
H810	H	0.094086	-0.067527	1.077120
H811	H	-0.324504	-0.548345	0.540001
H812	H	0.175496	-0.048345	1.040001
H813	H	-0.375379	-0.511349	0.549421
H814	H	0.124621	-0.011349	1.049421
H815	H	-0.231721	-0.527215	0.295000
H816	H	0.268279	-0.027215	0.795000
O817	O	-0.325973	-0.492543	0.319845
O818	O	0.174027	0.007457	0.819845
C819	C	-0.313774	-0.517721	0.291037
C820	C	0.186226	-0.017721	0.791037
H821	H	-0.277615	-0.546760	0.290608
H822	H	0.222385	-0.046760	0.790608
H823	H	-0.341834	-0.534596	0.305977
H824	H	0.158166	-0.034596	0.805977
C825	C	-0.355798	-0.447536	0.240492
C826	C	0.144202	0.052464	0.740492
C827	C	-0.311386	-0.483200	0.239962
C828	C	0.188614	0.016800	0.739962
H829	H	-0.354327	-0.426242	0.208987
H830	H	0.145673	0.073758	0.708987
H831	H	-0.364019	-0.430574	0.259901
H832	H	0.135981	0.069426	0.759901
H833	H	-0.379177	-0.461605	0.252944
H834	H	0.120823	0.038395	0.752944
H835	H	-0.288009	-0.469132	0.227515
H836	H	0.211991	0.030868	0.727515
H837	H	-0.303161	-0.500160	0.220549
H838	H	0.196839	-0.000160	0.720549
O839	O	0.172133	-0.520128	0.348362
O840	O	0.672133	-0.020128	0.848362
C841	C	0.201716	-0.566904	0.365557
C842	C	0.701716	-0.066904	0.865557
H843	H	0.188808	-0.579512	0.406103
H844	H	0.688808	-0.079512	0.906103
H845	H	0.200405	-0.591521	0.353502
H846	H	0.700405	-0.091521	0.853502
C847	C	0.269095	-0.552227	0.296055
C848	C	0.769095	-0.052227	0.796055
C849	C	0.253243	-0.567711	0.345853
C850	C	0.753243	-0.067711	0.845853
H851	H	0.300880	-0.552726	0.283899
H852	H	0.800880	-0.052726	0.783899
H853	H	0.249164	-0.520713	0.284469
H854	H	0.749164	-0.020713	0.784469
H855	H	0.267999	-0.572744	0.286015
H856	H	0.767999	-0.072744	0.786015
H857	H	0.254334	-0.547191	0.355892
H858	H	0.754334	-0.047191	0.855892
H859	H	0.273175	-0.599221	0.357440
H860	H	0.773175	-0.099221	0.857440
