data_functionalizedCrystal
_audit_creation_method	'MofGen! by Chris Wilmer'
_symmetry_space_group_name_H-M	'P1'
_symmetry_Int_Tables_number	1
_symmetry_cell_setting	triclinic
loop_
_symmetry_equiv_pos_as_xyz
  x,y,z
_cell_length_a	17.699083
_cell_length_b	16.176319
_cell_length_c	17.699103
_cell_angle_alpha	89.988235
_cell_angle_beta	96.712962
_cell_angle_gamma	90.001389
loop_
_atom_site_label
_atom_site_type_symbol
_atom_site_fract_x
_atom_site_fract_y
_atom_site_fract_z
O1	O	-1.004086	-0.068640	0.095712
O2	O	-0.783708	-0.068668	0.108165
O3	O	-0.900115	-0.068637	-0.008250
O4	O	-0.887678	-0.068670	0.212127
O5	O	-0.900099	0.068856	-0.008257
O6	O	-0.783692	0.068825	0.108157
O7	O	-1.004070	0.068853	0.095705
Cu8	Cu	-0.893879	0.081394	0.101930
Cu9	Cu	-0.893898	-0.081208	0.101939
O10	O	-0.887662	0.068823	0.212119
C11	C	-0.755503	0.000075	0.107715
C12	C	-0.671485	0.000065	0.106376
C13	C	-0.899659	0.000112	-0.036450
C14	C	-0.898315	0.000118	-0.120468
C15	C	-1.032275	0.000108	0.096155
C16	C	-1.116293	0.000113	0.097493
N17	N	-0.893872	0.195759	0.101924
C18	C	-0.622869	0.000055	0.174709
C19	C	-0.543925	0.000066	0.173447
C20	C	-0.513600	0.000081	0.103851
C21	C	-0.562222	0.000094	0.035513
C22	C	-0.641164	0.000089	0.036776
C23	C	-0.243859	0.000115	0.030418
C24	C	-0.164910	0.000117	0.029160
C25	C	-0.146620	0.000092	0.167088
C26	C	-0.225562	0.000087	0.168351
C27	C	-0.274177	0.000104	0.100014
C28	C	-0.359777	0.000094	0.101383
C29	C	-0.428002	0.000085	0.102480
N30	N	-0.893912	-0.195573	0.101940
C31	C	-0.945432	0.239037	0.050396
C32	C	-0.945436	0.325584	0.050396
C33	C	-0.893882	0.368851	0.101926
C34	C	-0.842316	0.325567	0.153456
C35	C	-0.842309	0.239022	0.153453
C36	C	-0.842342	0.674596	0.153470
C37	C	-0.842354	0.761147	0.153471
C38	C	-0.945469	0.761157	0.050413
C39	C	-0.945462	0.674612	0.050410
C40	C	-0.893894	0.631336	0.101936
C41	C	-0.893889	0.537491	0.101936
C42	C	-0.893890	0.462694	0.101931
C43	C	-0.890099	-0.074884	-0.636175
C44	C	-0.891361	-0.074877	-0.557232
C45	C	-0.891982	0.000076	-0.517777
C46	C	-0.891349	0.075026	-0.557271
C47	C	-0.890092	0.075017	-0.636214
C48	C	-0.896418	0.075061	-0.238905
C49	C	-0.897673	0.075063	-0.159956
C50	C	-0.897688	-0.074833	-0.159923
C51	C	-0.896431	-0.074842	-0.238865
C52	C	-0.895802	0.000108	-0.278353
C53	C	-0.894434	0.000099	-0.363952
C54	C	-0.893344	0.000086	-0.432178
C55	C	-0.888119	0.000072	0.240320
C56	C	-0.889463	0.000060	0.324337
H57	H	-0.647553	0.000042	0.231382
Cl58	Cl	-1.010255	0.379992	-0.014383
Cl59	Cl	-0.898491	-0.169057	-0.110278
H60	H	-0.898175	0.136103	-0.127834
H61	H	-0.895907	0.136089	-0.271046
Cl62	Cl	-0.085498	0.000075	0.253000
H63	H	-0.895922	-0.135876	-0.270985
Cl64	Cl	-0.892134	0.169253	-0.507672
H65	H	-0.889573	0.136045	-0.668364
Cl66	Cl	-0.482811	0.000048	0.259355
Cl67	Cl	-1.010276	0.620221	-0.014371
H68	H	-0.889586	-0.135920	-0.668292
Cl69	Cl	-0.892163	-0.169097	-0.507593
H70	H	-0.250248	0.000071	0.225023
Cl71	Cl	-1.010296	0.815567	-0.014367
H72	H	-0.680747	0.000096	-0.018868
H73	H	-0.140223	0.000131	-0.027517
H74	H	-0.800336	0.360801	0.195411
Cl75	Cl	-0.304965	0.000135	-0.055493
H76	H	-0.537525	0.000118	-0.021153
Cl77	Cl	-0.777538	0.815540	0.218257
H78	H	-0.800355	0.639367	0.195426
Cl79	Cl	-1.010250	0.184652	-0.014386
Cl80	Cl	-0.777484	0.184616	0.218230
