data_functionalizedCrystal
_audit_creation_method	'MofGen! by Chris Wilmer'
_symmetry_space_group_name_H-M	'P1'
_symmetry_Int_Tables_number	1
_symmetry_cell_setting	triclinic
loop_
_symmetry_equiv_pos_as_xyz
  x,y,z
_cell_length_a	12.503572
_cell_length_b	17.699083
_cell_length_c	17.699083
_cell_angle_alpha	83.283015
_cell_angle_beta	93.515225
_cell_angle_gamma	86.494917
loop_
_atom_site_label
_atom_site_type_symbol
_atom_site_fract_x
_atom_site_fract_y
_atom_site_fract_z
O1	O	0.089171	-1.008441	-0.091332
O2	O	0.589171	-0.508441	0.408668
O3	O	0.089207	-0.788064	-0.103783
O4	O	0.589207	-0.288064	0.396217
O5	O	0.089179	-0.904478	0.012631
O6	O	0.589179	-0.404478	0.512631
O7	O	0.089200	-0.892027	-0.207746
O8	O	0.589200	-0.392027	0.292254
O9	O	-0.089461	-0.895723	0.003862
O10	O	0.410539	-0.395723	0.503862
O11	O	-0.089433	-0.779309	-0.112552
O12	O	0.410567	-0.279309	0.387448
O13	O	-0.089468	-0.999686	-0.100101
O14	O	0.410532	-0.499686	0.399899
Cu15	Cu	-0.105762	-0.888698	-0.107128
Cu16	Cu	0.394238	-0.388698	0.392872
Cu17	Cu	0.105500	-0.899052	-0.096757
Cu18	Cu	0.605500	-0.399052	0.403243
O19	O	-0.089440	-0.883272	-0.216516
O20	O	0.410560	-0.383272	0.283484
C21	C	-0.000109	-0.755490	-0.107721
C22	C	0.499891	-0.255490	0.392279
C23	C	-0.000095	-0.671473	-0.106382
C24	C	0.499905	-0.171473	0.393618
N25	N	-0.254352	-0.881421	-0.114421
N26	N	0.245648	-0.381421	0.385579
C27	C	-0.000141	-0.899655	0.036444
C28	C	0.499859	-0.399655	0.536444
C29	C	-0.000142	-0.898316	0.120462
C30	C	0.499858	-0.398316	0.620462
C31	C	-0.473465	-0.870717	-0.125157
C32	C	0.026535	-0.370717	0.374843
C33	C	-0.526803	-0.917037	-0.078723
C34	C	-0.026803	-0.417037	0.421277
C35	C	-0.648725	-0.911081	-0.084697
C36	C	-0.148725	-0.411081	0.415303
C37	C	-0.351532	-0.876672	-0.119185
C38	C	0.148468	-0.376672	0.380815
N39	N	0.254091	-0.906335	-0.089457
N40	N	0.754091	-0.406335	0.410543
C41	C	-0.000151	-1.032260	-0.096163
C42	C	0.499849	-0.532260	0.403837
C43	C	-0.000157	-1.116278	-0.097502
C44	C	0.499843	-0.616278	0.402498
C45	C	-0.000089	-0.622852	-0.174715
C46	C	0.499911	-0.122852	0.325285
C47	C	-0.000103	-0.543908	-0.173453
C48	C	0.499897	-0.043908	0.326547
C49	C	-0.000116	-0.513587	-0.103857
C50	C	0.499884	-0.013587	0.396143
C51	C	-0.000125	-0.562213	-0.035519
C52	C	0.499875	-0.062213	0.464481
C53	C	-0.000119	-0.641155	-0.036782
C54	C	0.499881	-0.141155	0.463218
C55	C	-0.000152	-0.243849	-0.030425
C56	C	0.499848	0.256151	0.469575
C57	C	-0.000155	-0.164901	-0.029168
C58	C	0.499845	0.335099	0.470832
C59	C	-0.000137	-0.146602	-0.167097
C60	C	0.499863	0.353398	0.332903
C61	C	-0.000130	-0.225544	-0.168359
C62	C	0.499870	0.274456	0.331641
C63	C	-0.000145	-0.274163	-0.100022
C64	C	0.499855	0.225837	0.399978
C65	C	-0.000132	-0.359763	-0.101391
C66	C	0.499868	0.140237	0.398609
C67	C	-0.000121	-0.427989	-0.102487
C68	C	0.499879	0.072011	0.397513
C69	C	-0.000118	-0.888096	-0.240328
C70	C	0.499882	-0.388096	0.259672
C71	C	-0.000111	-0.889435	-0.324345
C72	C	0.499889	-0.389435	0.175655
C73	C	-0.000154	-0.966649	0.169082
C74	C	0.499846	-0.466649	0.669082
C75	C	-0.000144	-0.965387	0.248026
C76	C	0.499856	-0.465387	0.748026
C77	C	-0.000130	-0.895791	0.278347
C78	C	0.499870	-0.395791	0.778347
C79	C	-0.000114	-0.827453	0.229721
C80	C	0.499886	-0.327453	0.729721
C81	C	-0.000116	-0.828716	0.150779
C82	C	0.499884	-0.328716	0.650779
C83	C	-0.000105	-0.822359	0.548084
C84	C	0.499895	-0.322359	1.048084
C85	C	-0.000106	-0.821101	0.627032
C86	C	0.499894	-0.321101	1.127032
C87	C	-0.000133	-0.959029	0.645331
C88	C	0.499867	-0.459029	1.145331
C89	C	-0.000135	-0.960292	0.566389
C90	C	0.499865	-0.460292	1.066389
C91	C	-0.000113	-0.891955	0.517770
C92	C	0.499887	-0.391955	1.017770
C93	C	-0.000122	-0.893324	0.432171
C94	C	0.499878	-0.393324	0.932171
C95	C	-0.000129	-0.894421	0.363945
C96	C	0.499871	-0.394421	0.863945
H97	H	-0.480901	-0.961167	-0.034484
H98	H	0.019099	-0.461167	0.465516
O99	O	-0.000131	-0.496569	-0.239764
O100	O	0.499869	0.003431	0.260236
C101	C	-0.000113	-0.420392	-0.223728
C102	C	0.499887	0.079608	0.276272
H103	H	-0.033956	-0.415818	-0.165951
H104	H	0.466044	0.084182	0.334049
H105	H	-0.051961	-0.382008	-0.269847
H106	H	0.448039	0.117992	0.230153
H107	H	0.085590	-0.401749	-0.222420
H108	H	0.585590	0.098251	0.277580
O109	O	-0.528336	-0.818041	-0.177838
O110	O	-0.028336	-0.318041	0.322162
C111	C	-0.593375	-0.768206	-0.140592
C112	C	-0.093375	-0.268206	0.359408
H113	H	-0.610083	-0.797556	-0.082090
H114	H	-0.110083	-0.297556	0.417910
H115	H	-0.672513	-0.752430	-0.176028
H116	H	-0.172513	-0.252430	0.323972
H117	H	-0.550123	-0.714337	-0.133540
H118	H	-0.050123	-0.214337	0.366460
H119	H	-0.000165	-0.283426	0.025219
H120	H	0.499835	0.216574	0.525219
O121	O	-0.000123	-0.652175	-0.242390
O122	O	0.499877	-0.152175	0.257610
C123	C	-0.000096	-0.592330	-0.302430
C124	C	0.499904	-0.092330	0.197570
H125	H	-0.033923	-0.537087	-0.282970
H126	H	0.466077	-0.037087	0.217030
H127	H	-0.051953	-0.606200	-0.353576
H128	H	0.448047	-0.106200	0.146424
H129	H	0.085608	-0.585309	-0.319294
H130	H	0.585608	-0.085309	0.180706
H131	H	-0.000115	-0.250227	-0.225031
H132	H	0.499885	0.249773	0.274969
O133	O	-0.000272	-0.753502	0.656515
O134	O	0.499728	-0.253502	1.156515
C135	C	-0.092776	-0.744113	0.697108
C136	C	0.407224	-0.244113	1.197108
H137	H	-0.157456	-0.780451	0.675335
H138	H	0.342544	-0.280451	1.175335
H139	H	-0.123809	-0.681578	0.688391
H140	H	0.376191	-0.181578	1.188391
H141	H	-0.071865	-0.762717	0.760421
H142	H	0.428135	-0.262717	1.260421
H143	H	-0.000095	-0.770788	0.254415
H144	H	0.499905	-0.270788	0.754415
H145	H	-0.000130	-0.107005	-0.222741
H146	H	0.499870	0.392995	0.277259
O147	O	-0.000152	-0.762266	0.103652
O148	O	0.499848	-0.262266	0.603652
C149	C	-0.000111	-0.700568	0.147342
C150	C	0.499889	-0.200568	0.647342
H151	H	-0.033939	-0.718226	0.204637
H152	H	0.466061	-0.218226	0.704637
H153	H	-0.051961	-0.650155	0.115586
H154	H	0.448039	-0.150155	0.615586
H155	H	0.085597	-0.683433	0.157129
H156	H	0.585597	-0.183433	0.657129
O157	O	-0.000032	-0.135542	0.038496
O158	O	0.499968	0.364458	0.538496
C159	C	0.092491	-0.164909	0.084686
C160	C	0.592491	0.335091	0.584686
H161	H	0.123342	-0.221136	0.065680
H162	H	0.623342	0.278864	0.565680
H163	H	0.071666	-0.174960	0.146711
H164	H	0.571666	0.325040	0.646711
H165	H	0.157277	-0.122381	0.079018
H166	H	0.657277	0.377619	0.579018
O167	O	-0.000092	-0.532638	0.032023
O168	O	0.499908	-0.032638	0.532023
C169	C	-0.000120	-0.452534	0.018485
C170	C	0.499880	0.047466	0.518485
H171	H	0.033708	-0.435540	-0.038952
H172	H	0.533708	0.064460	0.461048
H173	H	0.051737	-0.430914	0.065557
H174	H	0.551737	0.069086	0.565557
H175	H	-0.085824	-0.426374	0.017905
H176	H	0.414176	0.073626	0.517905
O177	O	-0.000168	-0.688494	0.029525
O178	O	0.499832	-0.188494	0.529525
C179	C	-0.000135	-0.764673	0.013489
C180	C	0.499865	-0.264673	0.513489
H181	H	-0.033947	-0.765934	-0.047615
H182	H	0.466053	-0.265934	0.452385
H183	H	-0.052003	-0.797984	0.054507
H184	H	0.447997	-0.297984	0.554507
H185	H	0.085568	-0.791700	0.020608
H186	H	0.585568	-0.291700	0.520608
O187	O	-0.000024	-1.034215	0.139548
O188	O	0.499976	-0.534215	0.639548
C189	C	0.092507	-1.043614	0.098985
C190	C	0.592507	-0.543614	0.598985
H191	H	0.123359	-0.985436	0.080725
H192	H	0.623359	-0.485436	0.580725
H193	H	0.071694	-1.072672	0.046327
H194	H	0.571694	-0.572672	0.546327
H195	H	0.157289	-1.080335	0.137103
H196	H	0.657289	-0.580335	0.637103
H197	H	-0.000157	-1.021031	0.287610
H198	H	0.499843	-0.521031	0.787610
H199	H	-0.000152	-1.016964	0.541706
H200	H	0.499848	-0.516964	1.041706
O201	O	-0.000094	-1.025348	0.692672
O202	O	0.499906	-0.525348	1.192672
C203	C	-0.000111	-1.009314	0.768850
C204	C	0.499889	-0.509314	1.268850
H205	H	0.033724	-0.951531	0.773428
H206	H	0.533724	-0.451531	1.273428
H207	H	0.051746	-1.055425	0.807237
H208	H	0.551746	-0.555425	1.307237
H209	H	-0.085812	-1.008023	0.787486
H210	H	0.414188	-0.508023	1.287486
H211	H	-0.000087	-0.766714	0.508508
H212	H	0.499913	-0.266714	1.008508
