data_functionalizedCrystal
_audit_creation_method	'MofGen! by Chris Wilmer'
_symmetry_space_group_name_H-M	'P1'
_symmetry_Int_Tables_number	1
_symmetry_cell_setting	triclinic
loop_
_symmetry_equiv_pos_as_xyz
  x,y,z
_cell_length_a	6.394989
_cell_length_b	10.654550
_cell_length_c	9.730223
_cell_angle_alpha	89.999957
_cell_angle_beta	89.998669
_cell_angle_gamma	85.491321
loop_
_atom_site_label
_atom_site_type_symbol
_atom_site_fract_x
_atom_site_fract_y
_atom_site_fract_z
O1	O	0.293441	1.670947	-0.114177
O2	O	0.321399	1.305765	-0.114201
O3	O	0.003431	1.493539	-0.114190
O4	O	0.611409	1.483172	-0.114188
O5	O	0.003422	1.493527	0.114390
O6	O	0.321390	1.305752	0.114379
O7	O	0.293433	1.670934	0.114403
Zn8	Zn	0.307410	1.488341	0.150683
Zn9	Zn	0.307421	1.488358	-0.150481
O10	O	0.611400	1.483160	0.114392
C11	C	0.319341	1.258939	0.000085
C12	C	0.313200	1.119430	0.000076
C13	C	0.500414	1.041927	0.000080
C14	C	0.494631	0.910845	0.000104
C15	C	0.114403	0.934782	0.000113
C16	C	0.120188	1.065861	0.000099
C17	C	0.689256	1.485216	0.000096
C18	C	0.925582	1.491480	0.000092
C19	C	0.295490	1.717760	0.000113
C20	C	0.301631	1.857269	0.000114
N21	N	0.307401	1.488339	0.356219
N22	N	0.307414	1.488369	-0.356018
C23	C	0.166665	1.571516	0.428150
C24	C	0.166665	1.571528	0.572033
C25	C	0.448157	1.405184	0.572041
C26	C	0.448144	1.405166	0.428161
H27	H	0.647080	0.847747	0.000111
H28	H	0.657577	1.085539	0.000072
C29	C	0.726374	1.240745	0.557597
C30	C	0.602859	1.313764	0.651123
H31	H	0.821872	1.184301	0.606420
H32	H	0.802339	1.294205	0.501472
H33	H	0.638672	1.194194	0.501486
H34	H	0.690561	1.360323	0.707228
H35	H	0.526890	1.260297	0.707273
C36	C	-0.211462	0.914822	-0.117383
C37	C	-0.097751	0.875895	0.000121
H38	H	-0.342443	0.878475	-0.117375
H39	H	-0.134294	0.888412	-0.197077
H40	H	-0.234794	1.003982	-0.117373
H41	H	-0.074405	0.786735	0.000106
H42	H	-0.174935	0.902297	0.079836
H43	H	-0.032274	1.128967	0.000099
H44	H	0.562749	1.337428	0.369591
C45	C	-0.111593	1.735928	0.442599
C46	C	0.011942	1.662925	0.349070
H47	H	-0.207126	1.792354	0.393778
H48	H	-0.023924	1.782490	0.498700
H49	H	-0.187539	1.682448	0.498734
H50	H	0.087900	1.716406	0.292942
H51	H	-0.075739	1.616361	0.292945
H52	H	0.052063	1.639256	0.630595
