data_functionalizedCrystal
_audit_creation_method	'MofGen! by Chris Wilmer'
_symmetry_space_group_name_H-M	'P1'
_symmetry_Int_Tables_number	1
_symmetry_cell_setting	triclinic
loop_
_symmetry_equiv_pos_as_xyz
  x,y,z
_cell_length_a	6.817900
_cell_length_b	10.992723
_cell_length_c	10.992410
_cell_angle_alpha	91.830958
_cell_angle_beta	108.764651
_cell_angle_gamma	108.770285
loop_
_atom_site_label
_atom_site_type_symbol
_atom_site_fract_x
_atom_site_fract_y
_atom_site_fract_z
V1	V	-4.114281	-0.177763	-0.400582
O2	O	-4.072374	0.008542	-0.392968
O3	O	-4.091893	-0.352473	-0.397831
O4	O	-4.091873	-0.175028	-0.575295
O5	O	-4.072394	-0.170131	-0.214276
V6	V	-4.591171	-0.155478	-0.378300
O7	O	-4.390091	-0.226645	-0.449460
O8	O	-4.765559	-0.106596	-0.329421
O9	O	-4.390353	0.019232	-0.381050
O10	O	-4.750475	-0.341783	-0.385913
O11	O	-4.750455	-0.163110	-0.564605
O12	O	-4.390373	-0.158213	-0.203587
C13	C	-3.942380	-0.395064	-0.391509
C14	C	-4.005535	-0.537892	-0.390424
C15	C	-4.317466	-0.748833	-0.396136
C16	C	-4.252189	-0.600354	-0.397761
C17	C	-3.982608	-0.607105	-0.509425
C18	C	-4.049772	-0.755778	-0.508444
C19	C	-3.918395	-0.717504	-0.262824
C20	C	-3.856042	-0.568782	-0.262474
C21	C	-3.942354	-0.168714	-0.617879
C22	C	-4.005488	-0.167634	-0.760708
C23	C	-3.872609	-0.157797	-0.955832
C24	C	-3.807059	-0.159452	-0.807348
C25	C	-4.203527	-0.294316	-0.837804
C26	C	-4.267841	-0.293195	-0.986371
C27	C	-4.145561	-0.047894	-0.948354
C28	C	-4.074852	-0.047293	-0.799341
C29	C	-4.203208	0.061816	-0.387369
C30	C	-4.119293	0.204643	-0.388462
C31	C	-4.203234	-0.164532	-0.160995
C32	C	-4.119337	-0.165605	-0.018165
H33	H	-4.090296	-0.586919	-0.604107
H34	H	-4.449845	-0.304211	-1.029001
H35	H	-3.658587	-0.068363	-0.754014
H36	H	-3.755388	-0.066081	-0.974667
C37	C	-4.406674	-0.308599	-0.798890
H38	H	-4.372429	-0.237262	-0.735122
H39	H	-4.527214	-0.310015	-0.873235
H40	H	-4.445678	-0.387328	-0.764278
C41	C	-4.518508	-0.821956	-0.518584
H42	H	-4.482194	-0.880711	-0.565052
H43	H	-4.639769	-0.868920	-0.493891
H44	H	-4.557560	-0.761340	-0.572368
C45	C	-4.240877	-0.825797	-0.636240
H46	H	-4.283522	-0.917096	-0.636771
H47	H	-4.363286	-0.799462	-0.643109
H48	H	-4.193699	-0.804040	-0.707687
C49	C	-4.141757	-0.415024	-0.803215
H50	H	-4.262672	-0.491203	-0.850358
H51	H	-4.016345	-0.411122	-0.825289
H52	H	-4.108177	-0.417222	-0.712652
H53	H	-4.375016	-0.774000	-0.310573
C54	C	-4.006498	0.082064	-0.975851
H55	H	-3.931135	0.065746	-1.030170
H56	H	-4.100840	0.127120	-1.018121
H57	H	-3.901675	0.133491	-0.896217
C58	C	-3.838921	-0.272053	-1.020637
H59	H	-3.689423	-0.266597	-0.982410
H60	H	-3.933822	-0.351771	-1.008516
H61	H	-3.872706	-0.268264	-1.110972
H62	H	-4.216965	-0.045806	-0.766830
C63	C	-3.729856	-0.275299	-0.773804
H64	H	-3.689470	-0.276703	-0.682835
H65	H	-3.846641	-0.353934	-0.818832
H66	H	-3.605794	-0.266718	-0.799033
C67	C	-4.246830	-0.413591	-1.048876
H68	H	-4.199136	-0.462720	-0.983410
H69	H	-4.386409	-0.465666	-1.110537
H70	H	-4.141933	-0.386657	-1.091220
C71	C	-3.971698	-0.751901	-0.139580
H72	H	-4.116994	-0.814067	-0.163599
H73	H	-3.868485	-0.787166	-0.087677
H74	H	-3.962551	-0.675691	-0.091444
H75	H	-3.931581	0.046420	-0.746989
C76	C	-3.743675	-0.552476	-0.508296
H77	H	-3.655571	-0.486811	-0.435068
H78	H	-3.685023	-0.620456	-0.503489
H79	H	-3.743027	-0.516432	-0.585631
C80	C	-4.285777	-0.536647	-0.282844
H81	H	-4.339547	-0.601489	-0.234750
H82	H	-4.148725	-0.474639	-0.228042
H83	H	-4.389822	-0.494531	-0.314849
C84	C	-4.410570	-0.575155	-0.521800
H85	H	-4.515090	-0.655729	-0.571399
H86	H	-4.486005	-0.524297	-0.498607
H87	H	-4.328316	-0.529910	-0.571939
C88	C	-4.387338	-0.054095	-1.003526
H89	H	-4.402154	0.017271	-0.960958
H90	H	-4.427683	-0.050272	-1.094087
H91	H	-4.481338	-0.133116	-0.989551
C92	C	-3.854705	-0.797711	-0.507982
H93	H	-3.894391	-0.888773	-0.507377
H94	H	-3.819807	-0.776987	-0.583524
H95	H	-3.729580	-0.753253	-0.432749
C96	C	-3.880130	-0.505847	-0.143435
H97	H	-3.789315	-0.524890	-0.066338
H98	H	-3.835838	-0.414377	-0.141744
H99	H	-4.030117	-0.539470	-0.148776
C100	C	-3.609337	-0.509271	-0.245161
H101	H	-3.594212	-0.464615	-0.316059
H102	H	-3.532329	-0.450030	-0.166294
H103	H	-3.549277	-0.576469	-0.242479
H104	H	-3.769627	-0.746698	-0.256021
