data_functionalizedCrystal
_audit_creation_method	'MofGen! by Chris Wilmer'
_symmetry_space_group_name_H-M	'P1'
_symmetry_Int_Tables_number	1
_symmetry_cell_setting	triclinic
loop_
_symmetry_equiv_pos_as_xyz
  x,y,z
_cell_length_a	16.109301
_cell_length_b	10.654550
_cell_length_c	14.586319
_cell_angle_alpha	89.997374
_cell_angle_beta	89.999213
_cell_angle_gamma	83.973192
loop_
_atom_site_label
_atom_site_type_symbol
_atom_site_fract_x
_atom_site_fract_y
_atom_site_fract_z
O1	O	1.104091	0.161419	-0.076180
O2	O	0.862148	0.181507	-0.076194
O3	O	0.988682	-0.011352	-0.076183
O4	O	0.977557	0.354278	-0.076191
O5	O	0.988673	-0.011354	0.076297
O6	O	0.862139	0.181504	0.076287
O7	O	1.104082	0.161416	0.076301
Cu8	Cu	0.983110	0.171460	0.090216
Cu9	Cu	0.983120	0.171463	-0.090110
O10	O	0.977548	0.354275	0.076290
C11	C	0.831164	0.180692	0.000044
C12	C	0.738854	0.178253	0.000039
C13	C	0.517228	0.287019	0.000047
C14	C	0.430494	0.284717	0.000053
C15	C	0.449008	0.055896	0.000054
C16	C	0.535741	0.058199	0.000055
C17	C	0.569848	0.173764	0.000047
C18	C	0.396382	0.169159	0.000052
C19	C	0.302341	0.166662	0.000058
C20	C	0.663895	0.176262	0.000042
C21	C	0.987861	-0.058140	0.000056
C22	C	0.985417	-0.197550	0.000053
C23	C	1.059918	-0.278046	0.000060
C24	C	1.057616	-0.409036	0.000053
C25	C	0.906306	-0.379020	0.000036
C26	C	0.908608	-0.248033	0.000036
C27	C	1.136726	-0.227564	0.000076
C28	C	1.211233	-0.308061	0.000084
C29	C	1.208932	-0.439051	0.000078
C30	C	1.132123	-0.489543	0.000063
C31	C	1.135066	0.162231	0.000060
C32	C	1.227376	0.164671	0.000060
C33	C	0.978369	0.401063	0.000049
C34	C	0.980813	0.540473	0.000046
N35	N	0.983108	0.171457	0.217048
N36	N	0.983128	0.171457	-0.216942
C37	C	1.039156	0.086088	0.452059
C38	C	1.039159	0.086084	0.548041
C39	C	0.927074	0.256830	0.548040
C40	C	0.927068	0.256826	0.452061
C41	C	0.983114	0.171456	0.404073
C42	C	0.983122	0.171457	0.596034
C43	C	0.983124	0.171455	0.700101
C44	C	0.983111	0.171457	0.299999
H45	H	0.578586	-0.034032	0.000057
C46	C	0.322216	0.414869	-0.078334
C47	C	0.372653	0.409208	0.000048
H48	H	0.286505	0.491726	-0.078332
H49	H	0.356436	0.411015	-0.131498
H50	H	0.289491	0.345713	-0.078319
H51	H	0.405383	0.478360	0.000030
H52	H	0.338429	0.413075	0.053226
H53	H	0.421227	-0.038193	0.000066
H54	H	1.269599	-0.504589	0.000075
H55	H	0.881428	0.326344	0.412988
C56	C	1.222405	-0.056263	0.000092
C57	C	1.139258	-0.083579	0.000079
H58	H	1.223964	0.032626	0.000090
H59	H	1.249809	-0.091437	0.053267
H60	H	1.249826	-0.091439	-0.053081
H61	H	1.111838	-0.048412	0.053255
H62	H	1.111842	-0.048390	-0.053101
H63	H	1.130255	-0.596205	0.000048
H64	H	0.843772	-0.420141	0.000026
C65	C	1.340912	-0.293296	-0.078293
C66	C	1.295657	-0.252562	0.000091
H67	H	1.393031	-0.259027	-0.078291
H68	H	1.350204	-0.382816	-0.078289
H69	H	1.310198	-0.265649	-0.131461
H70	H	1.326369	-0.280217	0.053259
H71	H	1.286369	-0.163023	0.000095
H72	H	1.084792	0.016568	0.587109
C73	C	0.758813	-0.231510	0.000025
C74	C	0.826716	-0.159541	0.000030
H75	H	0.708256	-0.176876	0.000023
H76	H	0.761066	-0.283221	-0.053143
H77	H	0.761060	-0.283227	0.053204
H78	H	0.824473	-0.107830	-0.053153
H79	H	0.824462	-0.107808	0.053203
C80	C	1.149940	-0.082697	0.461704
C81	C	1.100753	-0.007761	0.399310
H82	H	1.187962	-0.140643	0.429138
H83	H	1.180148	-0.030410	0.499130
H84	H	1.115064	-0.127875	0.499147
H85	H	1.135628	0.037424	0.361871
H86	H	1.070542	-0.060055	0.361868
H87	H	0.881444	0.326338	0.587122
H88	H	0.544995	0.381119	0.000048
