data_functionalizedCrystal
_audit_creation_method	'MofGen! by Chris Wilmer'
_symmetry_space_group_name_H-M	'P1'
_symmetry_Int_Tables_number	1
_symmetry_cell_setting	triclinic
loop_
_symmetry_equiv_pos_as_xyz
  x,y,z
_cell_length_a	21.395362
_cell_length_b	16.625546
_cell_length_c	21.395364
_cell_angle_alpha	90.003845
_cell_angle_beta	90.036401
_cell_angle_gamma	90.038346
loop_
_atom_site_label
_atom_site_type_symbol
_atom_site_fract_x
_atom_site_fract_y
_atom_site_fract_z
Zn1	Zn	0.957849	-0.320870	0.354586
Zn2	Zn	0.957780	-0.455651	0.249808
Zn3	Zn	0.853077	-0.320873	0.249787
Zn4	Zn	0.853048	-0.455702	0.354513
O5	O	0.905438	-0.388274	0.302173
O6	O	1.045517	-0.338726	0.340726
O7	O	0.943875	-0.437752	0.162128
O8	O	0.867017	-0.208040	0.263710
O9	O	1.045467	-0.437749	0.263747
O10	O	0.943992	-0.208038	0.340705
O11	O	0.866950	-0.338731	0.162112
O12	O	0.765396	-0.338781	0.263640
O13	O	0.866966	-0.437836	0.442200
O14	O	0.765374	-0.437839	0.340581
O15	O	0.943963	-0.338776	0.442254
O16	O	0.943846	-0.568490	0.263676
O17	O	0.866900	-0.568527	0.340602
C18	C	0.742651	-0.388316	0.302101
C19	C	0.673010	-0.388354	0.302085
C20	C	0.905379	-0.597765	0.302147
C21	C	0.905411	-0.687386	0.302157
C22	C	0.640301	-0.440002	0.342088
C23	C	0.574866	-0.439982	0.342116
C24	C	0.542141	-0.388323	0.302129
C25	C	0.574857	-0.336665	0.262123
C26	C	0.640291	-0.336681	0.262100
C27	C	0.438423	-0.381809	0.245724
C28	C	0.372990	-0.381799	0.245745
C29	C	0.340321	-0.388270	0.302198
C30	C	0.373092	-0.394769	0.358632
C31	C	0.438526	-0.394784	0.358610
C32	C	0.471189	-0.388300	0.302149
C33	C	0.236660	-0.439899	0.342236
C34	C	0.171223	-0.439874	0.342265
C35	C	0.171216	-0.336561	0.262266
C36	C	0.236651	-0.336583	0.262242
C37	C	0.269369	-0.388256	0.302226
C38	C	0.905520	-1.015561	0.302222
C39	C	0.905488	-0.924253	0.302206
C40	C	0.905465	-0.851476	0.302189
C41	C	0.905434	-0.760162	0.302173
C42	C	1.068862	-0.388231	0.302247
C43	C	1.138503	-0.388214	0.302278
C44	C	0.905469	-0.388311	0.465597
C45	C	0.905482	-0.388327	0.535238
C46	C	0.905515	-0.177965	0.302213
C47	C	0.905548	-0.088344	0.302231
C48	C	0.945568	-0.336755	0.567980
C49	C	0.945559	-0.336742	0.633415
C50	C	0.905470	-0.388315	0.666106
C51	C	0.865376	-0.439891	0.633356
C52	C	0.865382	-0.439897	0.567922
C53	C	0.900488	-0.460952	0.769770
C54	C	0.900486	-0.460947	0.835203
C55	C	0.905447	-0.388296	0.867927
C56	C	0.910422	-0.315648	0.835210
C57	C	0.910429	-0.315654	0.769776
C58	C	0.905458	-0.388314	0.737059
C59	C	0.945525	-0.336706	0.971621
C60	C	0.945511	-0.336691	1.037058
C61	C	0.865331	-0.439847	1.036998
C62	C	0.865342	-0.439855	0.971563
C63	C	0.905442	-0.388285	0.938878
C64	C	0.905411	-0.388261	1.139386
C65	C	0.905421	-0.388264	1.069745
H66	H	0.666937	-0.482077	0.374647
H67	H	0.465206	-0.400073	0.404560
N68	N	0.915498	-0.241443	0.736366
N69	N	0.875169	-0.187897	0.743646
H70	H	0.878747	-0.135483	0.720051
H71	H	0.832733	-0.481880	0.659978
N72	N	0.541442	-0.283898	0.221268
N73	N	0.570657	-0.237788	0.185550
H74	H	0.547060	-0.200517	0.156696
N75	N	0.270095	-0.492659	0.383084
N76	N	0.328518	-0.492666	0.383059
H77	H	0.352131	-0.529925	0.411910
N78	N	0.895454	-0.535180	0.736357
N79	N	0.938017	-0.556286	0.699891
H80	H	0.934470	-0.608712	0.676298
H81	H	0.832736	-0.481892	0.541264
N82	N	0.270065	-0.283844	0.221364
N83	N	0.306518	-0.312137	0.181386
H84	H	0.330118	-0.274888	0.152514
N85	N	0.673695	-0.283913	0.221234
N86	N	0.644473	-0.237785	0.185538
H87	H	0.668065	-0.200517	0.156675
H88	H	0.548230	-0.482039	0.374694
H89	H	0.465017	-0.376536	0.199750
N90	N	0.986533	-0.284076	0.534605
N91	N	1.022323	-0.238033	0.563852
H92	H	1.051255	-0.200828	0.540280
N93	N	0.986507	-0.284049	0.666860
N94	N	1.022302	-0.238005	0.637670
H95	H	1.051222	-0.200789	0.661288
H96	H	0.346313	-0.376513	0.199793
N97	N	0.986479	-0.284034	0.938222
N98	N	1.026399	-0.312396	0.901740
H99	H	1.055323	-0.275197	0.878152
N100	N	0.915489	-0.241437	0.868637
N101	N	0.915477	-0.241438	0.927060
H102	H	0.919055	-0.189029	0.950671
N103	N	0.986460	-0.283997	1.070496
N104	N	1.022257	-0.237959	1.041302
H105	H	1.051178	-0.200743	1.064918
H106	H	0.832684	-0.481831	1.063614
N107	N	0.824391	-0.492541	0.938123
N108	N	0.788597	-0.538583	0.967316
H109	H	0.759672	-0.575795	0.943701
N110	N	0.339720	-0.401403	0.416295
N111	N	0.281297	-0.401398	0.416310
H112	H	0.257725	-0.406093	0.457032
H113	H	0.896439	-0.520102	0.861836
H114	H	0.144594	-0.481930	0.374844
N115	N	0.137787	-0.283788	0.221431
N116	N	0.079364	-0.283775	0.221459
H117	H	0.055751	-0.246498	0.192621
