data_functionalizedCrystal
_audit_creation_method	'MofGen! by Chris Wilmer'
_symmetry_space_group_name_H-M	'P1'
_symmetry_Int_Tables_number	1
_symmetry_cell_setting	triclinic
loop_
_symmetry_equiv_pos_as_xyz
  x,y,z
_cell_length_a	19.188931
_cell_length_b	19.188930
_cell_length_c	18.266242
_cell_angle_alpha	90.011475
_cell_angle_beta	89.992492
_cell_angle_gamma	96.855219
loop_
_atom_site_label
_atom_site_type_symbol
_atom_site_fract_x
_atom_site_fract_y
_atom_site_fract_z
O1	O	0.926149	-0.087169	-0.060863
O2	O	0.722838	-0.098903	-0.060871
O3	O	0.830361	0.008620	-0.060852
O4	O	0.818626	-0.194691	-0.060881
O5	O	0.830343	0.008625	0.060910
O6	O	0.722820	-0.098897	0.060891
O7	O	0.926131	-0.087163	0.060899
Zn8	Zn	0.824473	-0.093029	0.080227
Zn9	Zn	0.824496	-0.093037	-0.080199
O10	O	0.818608	-0.194686	0.060880
C11	C	0.696818	-0.098520	0.000009
C12	C	0.619313	-0.097380	0.000006
C13	C	0.829972	0.034634	0.000031
C14	C	0.828831	0.112138	0.000037
C15	C	0.952151	-0.087546	0.000017
C16	C	1.029656	-0.088687	0.000015
C17	C	1.074580	-0.025596	0.000018
C18	C	1.147403	-0.026667	0.000022
C19	C	1.175300	-0.090834	0.000009
C20	C	1.130366	-0.153933	0.000010
C21	C	1.057544	-0.152859	0.000014
N22	N	1.283301	-0.139883	-0.041448
N23	N	1.352479	-0.140898	-0.041453
C24	C	1.394709	-0.094072	0.000001
N25	N	1.365147	-0.046181	0.041451
N26	N	1.295963	-0.045163	0.041452
C27	C	1.254262	-0.092005	0.000006
C28	C	1.518597	-0.032139	0.000010
C29	C	1.591422	-0.033213	0.000018
C30	C	1.574383	-0.160480	-0.000001
C31	C	1.501560	-0.159404	-0.000002
C32	C	1.473671	-0.095231	-0.000000
C33	C	0.818997	-0.220700	-0.000004
C34	C	0.820138	-0.298204	-0.000015
N35	N	0.824461	-0.093024	0.189714
C36	C	0.891922	0.157062	0.000043
C37	C	0.890850	0.229886	0.000031
C38	C	0.826684	0.257782	0.000028
C39	C	0.763585	0.212849	0.000018
C40	C	0.764658	0.140026	0.000022
N41	N	0.777630	0.365789	0.041464
N42	N	0.776615	0.434968	0.041461
C43	C	0.823446	0.477191	0.000013
N44	N	0.871341	0.447624	-0.041423
N45	N	0.872359	0.378439	-0.041417
C46	C	0.825513	0.336745	0.000023
C47	C	0.885379	0.601079	0.000005
C48	C	0.884305	0.673904	-0.000011
C49	C	0.757038	0.656865	-0.000017
C50	C	0.758114	0.584042	-0.000008
C51	C	0.822286	0.556154	0.000007
N52	N	0.824513	-0.093037	-0.189686
C53	C	0.872088	-0.045436	0.228031
C54	C	0.872092	-0.045433	0.304676
C55	C	0.824477	-0.093030	0.343001
C56	C	0.776841	-0.140621	0.304675
C57	C	0.776834	-0.140618	0.228031
N58	N	0.815401	-0.154837	0.463325
N59	N	0.815413	-0.154837	0.536133
C60	C	0.824496	-0.093040	0.573924
N61	N	0.833582	-0.031239	0.536156
N62	N	0.833574	-0.031240	0.463341
C63	C	0.824480	-0.093038	0.426108
C64	C	0.872130	-0.045444	0.695348
C65	C	0.872130	-0.045440	0.771994
C66	C	0.776882	-0.140634	0.771991
C67	C	0.776879	-0.140632	0.695346
C68	C	0.824507	-0.093038	0.657029
H69	H	1.183987	0.024710	0.000022
O70	O	0.730694	-0.186842	0.809324
C71	C	0.740897	-0.176627	0.885189
H72	H	0.796487	-0.150397	0.895652
H73	H	0.732965	-0.229522	0.914307
H74	H	0.701492	-0.141703	0.906955
O75	O	0.694663	0.683873	0.000076
C76	C	0.656211	0.660928	0.063146
H77	H	0.675079	0.610482	0.084177
H78	H	0.598039	0.650641	0.048959
H79	H	0.664421	0.703106	0.107300
O80	O	0.918319	0.000867	0.658130
C81	C	0.907222	0.069972	0.676854
H82	H	0.851336	0.070202	0.697951
H83	H	0.915352	0.105004	0.626435
H84	H	0.946005	0.090589	0.721317
O85	O	1.458016	-0.220755	-0.000046
C86	C	1.498251	-0.277622	-0.000038
H87	H	1.552660	-0.259734	-0.023088
H88	H	1.471256	-0.321816	-0.035394
H89	H	1.503371	-0.297299	0.058375
O90	O	0.947774	0.574099	-0.000026
C91	C	1.003232	0.629371	-0.000015
H92	H	0.983814	0.678778	-0.023069
H93	H	1.048047	0.614279	-0.035368
H94	H	1.022681	0.639749	0.058398
O95	O	1.013930	-0.214168	-0.000124
C96	C	1.026564	-0.253151	-0.063182
H97	H	1.051574	-0.216217	-0.107252
H98	H	0.974812	-0.281309	-0.084355
H99	H	1.063520	-0.293450	-0.048929
O100	O	1.635133	0.028032	-0.000077
C101	C	1.677762	0.031218	-0.063147
H102	H	1.681279	-0.024193	-0.084173
H103	H	1.732573	0.057398	-0.048964
H104	H	1.653904	0.063025	-0.107305
O105	O	1.157494	-0.216246	-0.000135
C106	C	1.199124	-0.220671	-0.063193
H107	H	1.182014	-0.184240	-0.107262
H108	H	1.192416	-0.276962	-0.084369
H109	H	1.256603	-0.204390	-0.048938
O110	O	0.954318	0.130089	0.000020
C111	C	1.009774	0.185362	0.000042
H112	H	0.990358	0.234769	-0.023015
H113	H	1.054596	0.170273	-0.035302
H114	H	1.029213	0.195739	0.058459
H115	H	0.935683	0.710481	-0.000010
O116	O	1.601589	-0.222751	-0.000057
C117	C	1.675498	-0.210171	-0.000044
H118	H	1.692765	-0.155628	-0.023077
H119	H	1.697734	-0.251212	-0.035413
H120	H	1.695758	-0.213501	0.058368
O121	O	0.952120	0.273565	-0.000087
C122	C	0.955314	0.316200	-0.063139
H123	H	0.919544	0.289411	-0.107223
H124	H	1.011586	0.324562	-0.084294
H125	H	0.937396	0.369102	-0.048885
H126	H	0.738100	-0.179386	0.664146
O127	O	0.696780	0.540471	-0.000102
C128	C	0.657824	0.553056	-0.063175
H129	H	0.675141	0.608347	-0.084203
H130	H	0.599574	0.547760	-0.048994
H131	H	0.667254	0.513241	-0.107330
O132	O	1.491617	0.030256	0.000050
C133	C	1.546889	0.085715	0.000041
H134	H	1.596298	0.066297	0.023093
H135	H	1.531800	0.130530	0.035397
H136	H	1.557262	0.105162	-0.058371
H137	H	0.713280	0.103449	0.000018
O138	O	0.730543	-0.186918	0.190920
C139	C	0.688501	-0.228915	0.241177
H140	H	0.717125	-0.229634	0.295806
H141	H	0.677675	-0.284701	0.219021
H142	H	0.636708	-0.206371	0.249343
O143	O	0.918329	0.000764	0.809331
C144	C	0.908134	-0.009451	0.885196
H145	H	0.852545	-0.035679	0.895670
H146	H	0.916073	0.043444	0.914335
H147	H	0.947540	-0.044377	0.906930
O148	O	1.047606	0.036800	0.000061
C149	C	1.102879	0.092257	0.000047
H150	H	1.152291	0.072836	0.023091
H151	H	1.087797	0.137072	0.035408
H152	H	1.113246	0.111706	-0.058365
H153	H	0.738071	-0.179374	0.335883
O154	O	0.701298	0.240027	-0.000082
C155	C	0.696873	0.281615	-0.063154
H156	H	0.751963	0.299915	-0.084174
H157	H	0.669186	0.329221	-0.048974
H158	H	0.665893	0.249338	-0.107314
O159	O	0.918373	0.000868	0.190925
C160	C	0.960423	0.042860	0.241187
H161	H	0.931807	0.043573	0.295829
H162	H	0.971245	0.098648	0.219057
H163	H	1.012217	0.020315	0.249317
H164	H	0.910877	-0.006680	0.335880
