data_functionalizedCrystal
_audit_creation_method	'MofGen! by Chris Wilmer'
_symmetry_space_group_name_H-M	'P1'
_symmetry_Int_Tables_number	1
_symmetry_cell_setting	triclinic
loop_
_symmetry_equiv_pos_as_xyz
  x,y,z
_cell_length_a	11.792241
_cell_length_b	11.026607
_cell_length_c	9.482900
_cell_angle_alpha	78.636152
_cell_angle_beta	80.596456
_cell_angle_gamma	83.610284
loop_
_atom_site_label
_atom_site_type_symbol
_atom_site_fract_x
_atom_site_fract_y
_atom_site_fract_z
O1	O	-0.461989	1.632110	-0.120853
O2	O	-0.407797	1.278448	-0.120860
O3	O	-0.271426	1.463863	-0.120865
O4	O	-0.598360	1.446696	-0.120848
O5	O	-0.299268	1.426202	0.120928
O6	O	-0.435639	1.240788	0.120933
O7	O	-0.489832	1.594449	0.120940
Cu8	Cu	-0.465278	1.414180	0.143014
Cu9	Cu	-0.432351	1.458718	-0.142934
O10	O	-0.626203	1.409035	0.120945
C11	C	-0.411720	1.214342	0.000035
C12	C	-0.381917	1.079432	0.000032
C13	C	-0.464208	1.006167	0.000035
C14	C	-0.433407	0.866731	0.000032
C15	C	-0.654787	1.428943	0.000051
C16	C	-0.781442	1.432169	0.000057
C17	C	-1.013328	1.438109	0.000021
C18	C	-0.884291	1.434809	0.000041
C19	C	-0.242841	1.443955	0.000026
C20	C	-0.116185	1.440730	0.000010
C21	C	-0.485908	1.658557	0.000041
C22	C	-0.515710	1.793468	0.000035
N23	N	-0.488438	1.382862	0.344135
N24	N	-0.409184	1.490045	-0.344056
C25	C	-0.439174	1.449472	0.416333
C26	C	-0.458454	1.423425	0.583751
H27	H	-0.288659	1.038934	-0.000010
H28	H	-0.557463	1.046670	0.000049
H29	H	-0.544882	1.306547	0.406268
O30	O	-0.309868	0.813104	0.000026
H31	H	-0.305061	0.712002	0.000015
H32	H	-0.608972	0.833963	0.000050
H33	H	-0.382719	1.525779	0.354203
H34	H	-0.514903	1.347105	0.645877
H35	H	-0.352725	1.566356	0.593818
