data_functionalizedCrystal
_audit_creation_method	'MofGen! by Chris Wilmer'
_symmetry_space_group_name_H-M	'P1'
_symmetry_Int_Tables_number	1
_symmetry_cell_setting	triclinic
loop_
_symmetry_equiv_pos_as_xyz
  x,y,z
_cell_length_a	10.654549
_cell_length_b	10.654555
_cell_length_c	16.776229
_cell_angle_alpha	89.995916
_cell_angle_beta	89.991852
_cell_angle_gamma	84.488236
loop_
_atom_site_label
_atom_site_type_symbol
_atom_site_fract_x
_atom_site_fract_y
_atom_site_fract_z
O1	O	1.667850	0.176430	-0.066303
O2	O	1.302373	0.193230	-0.066300
O3	O	1.493507	0.002092	-0.066301
O4	O	1.476716	0.367568	-0.066301
O5	O	1.493482	0.002080	0.066275
O6	O	1.302347	0.193218	0.066277
O7	O	1.667825	0.176418	0.066274
Zn8	Zn	1.485082	0.184816	0.087325
Zn9	Zn	1.485116	0.184832	-0.087351
O10	O	1.476690	0.367556	0.066275
C11	C	1.255562	0.191989	-0.000011
C12	C	1.116119	0.188295	-0.000010
C13	C	0.826143	0.409917	-0.000033
C14	C	0.877685	0.525935	-0.000029
C15	C	1.008703	0.529410	-0.000019
C16	C	1.088184	0.416855	-0.000014
C17	C	1.036643	0.300837	-0.000017
C18	C	0.905620	0.297374	-0.000025
C19	C	1.064577	0.072277	-0.000013
C20	C	0.933559	0.068798	-0.000018
C21	C	1.144058	-0.040278	-0.000008
C22	C	1.092517	-0.156299	-0.000006
C23	C	0.961490	-0.159770	-0.000015
C24	C	0.882018	-0.047220	-0.000021
C25	C	1.492259	-0.044712	-0.000014
C26	C	1.488561	-0.184155	-0.000019
C27	C	1.481593	-0.446199	0.144526
C28	C	1.483311	-0.380691	0.216794
C29	C	1.486779	-0.249672	0.216794
C30	C	1.488527	-0.184158	0.144518
C31	C	1.486810	-0.249666	0.072249
C32	C	1.483345	-0.380688	0.072257
C33	C	1.486844	-0.249663	-0.072288
C34	C	1.483384	-0.380683	-0.072290
C35	C	1.488591	-0.184148	-0.144565
C36	C	1.486883	-0.249657	-0.216835
C37	C	1.483416	-0.380684	-0.216832
C38	C	1.481667	-0.446191	-0.144559
C39	C	1.714635	0.177659	-0.000017
C40	C	1.854079	0.181353	-0.000023
C41	C	1.477939	0.414360	-0.000013
C42	C	1.481637	0.553803	-0.000014
N43	N	1.485068	0.184805	0.206536
N44	N	1.485140	0.184834	-0.206562
C45	C	1.569728	0.100204	0.248252
C46	C	1.569735	0.100203	0.331705
C47	C	1.485087	0.184810	0.373439
C48	C	1.400417	0.269414	0.331717
C49	C	1.400405	0.269408	0.248266
C50	C	1.400463	0.269439	0.668264
C51	C	1.400484	0.269441	0.751720
C52	C	1.569793	0.100234	0.751702
C53	C	1.569781	0.100228	0.668252
C54	C	1.485108	0.184828	0.626537
C55	C	1.485099	0.184826	0.536048
C56	C	1.485100	0.184818	0.463926
H57	H	1.478783	-0.552883	0.144533
H58	H	1.638714	0.031338	0.634274
C59	C	1.307361	0.362525	0.622384
H60	H	1.319470	0.350409	0.566706
H61	H	1.321756	0.446463	0.636061
H62	H	1.223417	0.348121	0.636069
C63	C	1.662850	0.007147	0.202348
H64	H	1.650731	0.019267	0.146673
H65	H	1.648495	-0.076803	0.216031
H66	H	1.746786	0.021586	0.216015
H67	H	1.488154	-0.196333	0.275642
H68	H	1.482007	-0.434012	-0.275682
C69	C	1.288175	-0.036464	-0.000010
H70	H	1.328126	-0.120110	-0.000017
H71	H	1.312653	0.006524	0.046220
H72	H	1.312661	0.006529	-0.046250
C73	C	1.307308	0.362482	0.377622
H74	H	1.319448	0.350380	0.433297
H75	H	1.223371	0.348064	0.363962
H76	H	1.321684	0.446432	0.363934
H77	H	1.331464	0.338297	0.214301
H78	H	1.331548	0.338341	0.785699
H79	H	1.638672	0.031314	0.365670
H80	H	1.491409	-0.077465	-0.144559
H81	H	1.478849	-0.552874	-0.144549
H82	H	1.491336	-0.077473	0.144524
C83	C	0.682027	0.406099	-0.000042
H84	H	0.642074	0.489744	-0.000050
H85	H	0.657526	0.363100	0.046186
H86	H	0.657568	0.363115	-0.046284
H87	H	1.638735	0.031344	0.785676
H88	H	0.775334	-0.050035	-0.000022
H89	H	1.050667	0.623882	-0.000015
C90	C	0.790256	0.649736	-0.000030
H91	H	0.704844	0.631055	-0.000029
H92	H	0.806005	0.697269	-0.046260
H93	H	0.805974	0.697251	0.046210
H94	H	1.194865	0.419695	-0.000015
C95	C	1.179943	-0.280091	0.000000
H96	H	1.265354	-0.261405	0.000008
H97	H	1.164227	-0.327622	-0.046229
H98	H	1.164200	-0.327613	0.046241
H99	H	0.919534	-0.254246	-0.000023
C100	C	1.481386	-0.452752	0.296294
H101	H	1.482894	-0.394970	0.339333
H102	H	1.553139	-0.512799	0.299303
H103	H	1.406913	-0.494923	0.299297
C104	C	1.488808	-0.177593	-0.296328
H105	H	1.491121	-0.090181	-0.285977
H106	H	1.415144	-0.190133	-0.326027
H107	H	1.561371	-0.207991	-0.326017
