data_functionalizedCrystal
_audit_creation_method	'MofGen! by Chris Wilmer'
_symmetry_space_group_name_H-M	'P1'
_symmetry_Int_Tables_number	1
_symmetry_cell_setting	triclinic
loop_
_symmetry_equiv_pos_as_xyz
  x,y,z
_cell_length_a	10.540539
_cell_length_b	17.038272
_cell_length_c	9.616153
_cell_angle_alpha	89.997688
_cell_angle_beta	89.995174
_cell_angle_gamma	87.818524
loop_
_atom_site_label
_atom_site_type_symbol
_atom_site_fract_x
_atom_site_fract_y
_atom_site_fract_z
O1	O	1.696176	0.110247	-0.115581
O2	O	1.327732	0.120634	-0.115599
O3	O	1.509764	0.001613	-0.115579
O4	O	1.514144	0.229269	-0.115601
O5	O	1.509738	0.001615	0.115712
O6	O	1.327705	0.120637	0.115693
O7	O	1.696149	0.110249	0.115710
Zn8	Zn	1.511923	0.115443	0.152424
Zn9	Zn	1.511958	0.115440	-0.152313
O10	O	1.514117	0.229271	0.115690
C11	C	1.280343	0.119857	0.000045
C12	C	1.139177	0.117526	0.000039
C13	C	0.947420	0.028219	0.000587
C14	C	1.094259	0.030581	0.000051
C15	C	1.081423	0.159366	-0.132039
C16	C	0.934602	0.156399	-0.132135
C17	C	0.934248	0.158170	0.130886
C18	C	1.081305	0.158971	0.132618
C19	C	1.505768	-0.027537	0.000066
C20	C	1.493883	-0.114398	0.000065
C21	C	1.602994	-0.163886	0.000072
C22	C	1.591820	-0.245501	0.000058
C23	C	1.471534	-0.277626	0.000048
C24	C	1.362416	-0.228133	0.000037
C25	C	1.373591	-0.146519	0.000041
C26	C	1.432055	-0.523611	0.000027
C27	C	1.420888	-0.605231	0.000027
C28	C	1.650293	-0.622593	0.000046
C29	C	1.661457	-0.540977	0.000058
C30	C	1.552339	-0.491491	0.000040
C31	C	1.460110	-0.361050	0.000038
C32	C	1.563764	-0.408069	0.000040
C33	C	1.743538	0.111027	0.000063
C34	C	1.884704	0.113358	0.000061
C35	C	1.518114	0.258421	0.000042
C36	C	1.529998	0.345282	0.000034
N37	N	1.511909	0.115445	0.360398
N38	N	1.511982	0.115432	-0.360287
C39	C	1.414198	0.178900	0.580758
C40	C	1.414448	0.179138	0.419590
C41	C	1.646364	0.134015	0.418852
C42	C	1.645842	0.134465	0.580070
C43	C	1.476466	0.033212	0.580316
C44	C	1.473469	0.033745	0.419089
H45	H	1.133791	-0.002340	0.094731
F46	F	1.130971	0.118956	0.260332
H47	H	1.111443	0.222359	0.140586
F48	F	1.284173	0.164573	0.367933
H49	H	1.676794	0.193323	0.378457
F50	F	0.880178	0.240254	0.132046
H51	H	1.343202	-0.483328	0.000013
F52	F	1.744302	0.076330	0.631045
F53	F	1.789481	-0.506793	0.000034
H54	H	1.547672	-0.014028	0.618440
F55	F	1.731019	-0.129703	0.000096
F56	F	1.691777	-0.373877	0.000042
H57	H	1.680669	-0.285790	0.000066
F58	F	0.893969	0.115976	-0.261172
F59	F	1.332096	-0.395248	0.000021
F60	F	0.879523	0.238127	-0.139979
H61	H	0.900066	0.130034	0.231000
F62	F	1.766415	-0.675265	0.000063
H63	H	1.322932	-0.631384	0.000041
H64	H	1.675792	0.194450	0.617653
F65	F	1.234398	-0.262325	0.000010
F66	F	1.283546	0.164511	0.631455
F67	F	0.905849	-0.016675	0.124395
H68	H	1.721225	0.089051	0.380507
F69	F	1.444696	0.258184	0.633662
F70	F	1.257461	-0.093851	0.000030
H71	H	1.438038	0.240138	0.381006
H72	H	1.380080	0.015538	0.621051
H73	H	1.539379	-0.015754	0.378802
H74	H	0.914033	-0.005985	-0.093600
F75	F	1.144782	-0.012580	-0.124103
F76	F	1.118453	0.242816	-0.138497
F77	F	1.344131	0.015345	0.369158
H78	H	1.121311	0.130299	-0.230328
