data_functionalizedCrystal
_audit_creation_method	'MofGen! by Chris Wilmer'
_symmetry_space_group_name_H-M	'P1'
_symmetry_Int_Tables_number	1
_symmetry_cell_setting	triclinic
loop_
_symmetry_equiv_pos_as_xyz
  x,y,z
_cell_length_a	14.908571
_cell_length_b	14.908520
_cell_length_c	14.908757
_cell_angle_alpha	89.821571
_cell_angle_beta	96.774914
_cell_angle_gamma	90.205961
loop_
_atom_site_label
_atom_site_type_symbol
_atom_site_fract_x
_atom_site_fract_y
_atom_site_fract_z
Zn1	Zn	1.391143	-0.404336	0.613556
Zn2	Zn	1.373710	-0.562395	0.470806
Zn3	Zn	1.231079	-0.404305	0.453488
Zn4	Zn	1.232008	-0.546016	0.612513
O5	O	1.306985	-0.479263	0.537591
O6	O	1.515121	-0.432170	0.602304
O7	O	1.347105	-0.548266	0.342215
O8	O	1.259219	-0.278855	0.467910
O9	O	1.502313	-0.548295	0.497426
O10	O	1.376818	-0.278877	0.585511
O11	O	1.242314	-0.432118	0.329491
O12	O	1.104912	-0.416236	0.466899
O13	O	1.260802	-0.520380	0.738945
O14	O	1.105594	-0.520351	0.583734
O15	O	1.377719	-0.416288	0.739711
O16	O	1.348006	-0.685677	0.496415
O17	O	1.243898	-0.673644	0.600526
C18	C	1.072507	-0.466514	0.523324
C19	C	0.972197	-0.461080	0.517244
C20	C	1.294187	-0.712190	0.550258
C21	C	1.288796	-0.811839	0.555712
C22	C	0.784443	-0.559469	0.627332
C23	C	0.690192	-0.554366	0.621622
C24	C	0.689444	-0.445766	0.500119
C25	C	0.783694	-0.450869	0.505829
C26	C	0.831190	-0.507724	0.569437
C27	C	0.925442	-0.512831	0.575142
C28	C	0.924693	-0.404227	0.453643
C29	C	0.830442	-0.399124	0.447933
C30	C	1.387198	-1.011562	0.457650
C31	C	1.382136	-1.105193	0.462772
C32	C	1.273615	-1.092732	0.571082
C33	C	1.278677	-0.999101	0.565960
C34	C	1.335470	-0.958520	0.509241
C35	C	1.340527	-0.864888	0.504115
C36	C	1.232011	-0.852429	0.612429
C37	C	1.226948	-0.946059	0.617551
C38	C	1.542379	-0.492063	0.551913
C39	C	1.642689	-0.497518	0.558017
C40	C	1.321309	-0.466511	0.772990
C41	C	1.327413	-0.461077	0.873304
C42	C	1.319859	-0.245427	0.524895
C43	C	1.325345	-0.145781	0.519485
C44	C	1.217139	-0.559277	1.061008
C45	C	1.222871	-0.554173	1.155262
C46	C	1.344612	-0.445772	1.156066
C47	C	1.338880	-0.450876	1.061813
C48	C	1.275141	-0.507629	1.014287
C49	C	1.269405	-0.512726	0.920031
C50	C	1.391150	-0.404331	0.920838
C51	C	1.396882	-0.399227	1.015091
C52	C	1.292709	-0.491986	1.303107
C53	C	1.286605	-0.497422	1.202794
H54	H	0.964112	-0.559126	0.626933
H55	H	0.962764	-0.362094	0.406498
H56	H	0.823114	-0.605767	0.679120
H57	H	0.652134	-0.596501	0.668769
C58	C	0.637183	-0.383222	0.430164
N59	N	0.597819	-0.336112	0.377475
H60	H	1.438375	-0.362270	0.882787
C61	C	1.199292	-0.575157	0.867755
N62	N	1.146483	-0.622184	0.828383
H63	H	0.791758	-0.352832	0.396147
C64	C	1.402999	-0.820251	0.441723
N65	N	1.450057	-0.786632	0.394730
C66	C	1.164475	-0.990710	0.679934
N67	N	1.117414	-1.024339	0.726917
H68	H	1.433434	-0.978521	0.411461
H69	H	1.189887	-0.809231	0.654436
H70	H	1.424261	-1.148377	0.420763
C71	C	1.147023	-0.621701	1.008728
N72	N	1.094211	-0.668722	0.969351
H73	H	1.227383	-1.125789	0.617266
C74	C	1.159061	-0.610987	1.206651
N75	N	1.110997	-0.653781	1.245358
H76	H	1.396513	-0.399575	1.194779
C77	C	1.466985	-0.336794	1.067379
N78	N	1.519783	-0.289763	1.106761
