data_functionalizedCrystal
_audit_creation_method	'MofGen! by Chris Wilmer'
_symmetry_space_group_name_H-M	'P1'
_symmetry_Int_Tables_number	1
_symmetry_cell_setting	triclinic
loop_
_symmetry_equiv_pos_as_xyz
  x,y,z
_cell_length_a	25.639242
_cell_length_b	25.639239
_cell_length_c	21.395355
_cell_angle_alpha	90.019334
_cell_angle_beta	90.025495
_cell_angle_gamma	90.030990
loop_
_atom_site_label
_atom_site_type_symbol
_atom_site_fract_x
_atom_site_fract_y
_atom_site_fract_z
Zn1	Zn	0.799283	-0.208319	0.354274
Zn2	Zn	1.299283	0.291681	0.854274
Zn3	Zn	0.799189	-0.295738	0.249495
Zn4	Zn	1.299189	0.204262	0.749495
Zn5	Zn	0.711842	-0.208307	0.249509
Zn6	Zn	1.211842	0.291693	0.749509
Zn7	Zn	0.711804	-0.295713	0.354233
Zn8	Zn	1.211804	0.204287	0.854233
O9	O	0.755529	-0.252019	0.301877
O10	O	1.255529	0.247981	0.801877
O11	O	0.872435	-0.219931	0.340385
O12	O	1.372435	0.280069	0.840385
O13	O	0.787579	-0.284146	0.161819
O14	O	1.287579	0.215854	0.661819
O15	O	0.723496	-0.135143	0.263429
O16	O	1.223496	0.364857	0.763429
O17	O	0.872367	-0.284157	0.263405
O18	O	1.372367	0.215843	0.763405
O19	O	0.787738	-0.135152	0.340399
O20	O	1.287738	0.364848	0.840399
O21	O	0.723405	-0.219911	0.161829
O22	O	1.223405	0.280089	0.661829
O23	O	0.638672	-0.219886	0.263389
O24	O	1.138672	0.280114	0.763389
O25	O	0.723431	-0.284114	0.441916
O26	O	1.223431	0.215886	0.941916
O27	O	0.638644	-0.284103	0.340330
O28	O	1.138644	0.215897	0.840330
O29	O	0.787702	-0.219906	0.441946
O30	O	1.287702	0.280094	0.941946
O31	O	0.787542	-0.368900	0.263366
O32	O	1.287542	0.131100	0.763366
O33	O	0.723341	-0.368882	0.340316
O34	O	1.223341	0.131118	0.840316
C35	C	0.619687	-0.251991	0.301857
C36	C	1.119687	0.248009	0.801857
C37	C	0.561573	-0.251992	0.301863
C38	C	1.061573	0.248008	0.801863
C39	C	0.310423	-0.218636	0.342034
C40	C	0.810423	0.281364	0.842034
C41	C	0.365027	-0.218631	0.342031
C42	C	0.865027	0.281369	0.842031
O43	O	0.393301	-0.190248	0.376181
O44	O	0.893301	0.309752	0.876181
N45	N	0.392299	-0.252013	0.301885
N46	N	0.892299	0.247987	0.801885
C47	C	0.364963	-0.285407	0.261744
C48	C	0.864963	0.214593	0.761744
O49	O	0.393174	-0.313801	0.227596
O50	O	0.893174	0.186199	0.727596
C51	C	0.310360	-0.285414	0.261751
C52	C	0.810360	0.214586	0.761751
C53	C	0.283091	-0.252026	0.301895
C54	C	0.783091	0.247974	0.801895
C55	C	0.283154	-0.185250	0.382176
C56	C	0.783154	0.314750	0.882176
C57	C	0.228554	-0.185255	0.382179
C58	C	0.728554	0.314745	0.882179
C59	C	0.201222	-0.218645	0.342040
C60	C	0.701222	0.281355	0.842040
C61	C	0.228491	-0.252030	0.301898
C62	C	0.728491	0.247970	0.801898
C63	C	0.283025	-0.318810	0.221614
C64	C	0.783025	0.181190	0.721614
C65	C	0.228418	-0.318815	0.221625
C66	C	0.728418	0.181185	0.721625
C67	C	0.201149	-0.285427	0.261769
C68	C	0.701149	0.214573	0.761769
C69	C	0.146558	-0.285425	0.261762
C70	C	0.646558	0.214575	0.761762
N71	N	0.119287	-0.252042	0.301908
N72	N	0.619287	0.247958	0.801908
C73	C	0.146619	-0.218652	0.342047
C74	C	0.646619	0.281348	0.842047
C75	C	0.479634	-0.285390	0.261733
C76	C	0.979634	0.214610	0.761733
C77	C	0.534236	-0.285380	0.261722
C78	C	1.034236	0.214620	0.761722
C79	C	0.534297	-0.218604	0.342010
C80	C	1.034297	0.281396	0.842010
C81	C	0.479693	-0.218612	0.342017
C82	C	0.979693	0.281388	0.842017
C83	C	0.452362	-0.252007	0.301879
C84	C	0.952362	0.247993	0.801879
C85	C	0.031954	-0.218664	0.342049
C86	C	0.531954	0.281336	0.842049
C87	C	-0.022652	-0.218670	0.342046
C88	C	0.477348	0.281330	0.842046
C89	C	-0.022708	-0.285448	0.261761
C90	C	0.477292	0.214552	0.761761
C91	C	0.031893	-0.285440	0.261761
C92	C	0.531893	0.214560	0.761761
C93	C	0.059222	-0.252047	0.301910
C94	C	0.559222	0.247953	0.801910
O95	O	0.118250	-0.313795	0.227630
O96	O	0.618250	0.186205	0.727630
O97	O	0.118402	-0.190268	0.376194
O98	O	0.618402	0.309732	0.876194
C99	C	0.755441	-0.387862	0.301849
C100	C	1.255441	0.112138	0.801849
C101	C	0.755452	-0.445976	0.301857
C102	C	1.255452	0.054024	0.801857
C103	C	0.789046	-0.806336	0.261877
C104	C	1.289046	-0.306336	0.761877
C105	C	0.789066	-0.860940	0.261886
C106	C	1.289066	-0.360940	0.761886
O107	O	0.817539	-0.889175	0.227862
O108	O	1.317539	-0.389175	0.727862
N109	N	0.755621	-0.888258	0.301919
N110	N	1.255621	-0.388258	0.801919
C111	C	0.722157	-0.860969	0.341951
C112	C	1.222157	-0.360969	0.841951
O113	O	0.693712	-0.889219	0.376003
O114	O	1.193712	-0.389219	0.876003
C115	C	0.722140	-0.806366	0.341945
C116	C	1.222140	-0.306366	0.841945
C117	C	0.755584	-0.779051	0.301905
C118	C	1.255584	-0.279051	0.801905
C119	C	0.822488	-0.779021	0.221841
C120	C	1.322488	-0.279021	0.721841
C121	C	0.822467	-0.724420	0.221832
C122	C	1.322467	-0.224420	0.721832
C123	C	0.789004	-0.697135	0.261859
C124	C	1.289004	-0.197135	0.761859
C125	C	0.755563	-0.724450	0.301896
C126	C	1.255563	-0.224450	0.801896
C127	C	0.688679	-0.779078	0.381980
C128	C	1.188679	-0.279078	0.881980
C129	C	0.688665	-0.724471	0.381971
C130	C	1.188665	-0.224471	0.881971
C131	C	0.722109	-0.697156	0.341931
C132	C	1.222109	-0.197156	0.841931
C133	C	0.722079	-0.642564	0.341914
C134	C	1.222079	-0.142564	0.841914
N135	N	0.755524	-0.615246	0.301881
N136	N	1.255524	-0.115246	0.801881
C137	C	0.788987	-0.642532	0.261854
C138	C	1.288987	-0.142532	0.761854
C139	C	0.722197	-0.975640	0.341961
C140	C	1.222197	-0.475640	0.841961
C141	C	0.722211	-1.030242	0.341964
C142	C	1.222211	-0.530242	0.841964
C143	C	0.789121	-1.030210	0.261899
C144	C	1.289121	-0.530210	0.761899
C145	C	0.789104	-0.975606	0.261893
C146	C	1.289104	-0.475606	0.761893
C147	C	0.755642	-0.948322	0.301927
C148	C	1.255642	-0.448322	0.801927
C149	C	0.788940	-0.527867	0.261837
C150	C	1.288940	-0.027867	0.761837
C151	C	0.788914	-0.473261	0.261830
C152	C	1.288914	0.026739	0.761830
C153	C	0.722006	-0.473299	0.341896
C154	C	1.222006	0.026701	0.841896
C155	C	0.722030	-0.527899	0.341902
C156	C	1.222030	-0.027899	0.841902
C157	C	0.755501	-0.555182	0.301870
C158	C	1.255501	-0.055182	0.801870
O159	O	0.693623	-0.614295	0.375923
O160	O	1.193623	-0.114295	0.875923
O161	O	0.817432	-0.614275	0.227813
O162	O	1.317432	-0.114275	0.727813
C163	C	0.891902	-0.252048	0.301898
C164	C	1.391902	0.247952	0.801898
C165	C	0.950016	-0.252060	0.301907
C166	C	1.450016	0.247940	0.801907
C167	C	0.755573	-0.252009	0.465301
C168	C	1.255573	0.247991	0.965301
C169	C	0.755591	-0.252004	0.534942
C170	C	1.255591	0.247996	1.034942
C171	C	0.755632	-0.115646	0.301920
C172	C	1.255632	0.384354	0.801920
C173	C	0.755676	-0.057532	0.301938
C174	C	1.255676	0.442468	0.801938
C175	C	0.755516	-0.251992	0.139090
C176	C	1.255516	0.248008	0.639090
C177	C	0.755599	-0.251849	0.069449
C178	C	1.255599	0.248151	0.569449
C179	C	0.789055	-0.218570	0.567672
C180	C	1.289055	0.281430	1.067672
C181	C	0.789055	-0.218547	0.633107
C182	C	1.289055	0.281453	1.133107
C183	C	0.755595	-0.251969	0.665810
C184	C	1.255595	0.248031	1.165810
C185	C	0.722125	-0.285406	0.633073
C186	C	1.222125	0.214594	1.133073
C187	C	0.722123	-0.285423	0.567639
C188	C	1.222123	0.214577	1.067639
C189	C	0.751436	-0.299045	0.769475
C190	C	1.251436	0.200955	1.269475
C191	C	0.751442	-0.299028	0.834908
C192	C	1.251442	0.200972	1.334908
C193	C	0.755599	-0.251913	0.867631
C194	C	1.255599	0.248087	1.367631
C195	C	0.759760	-0.204814	0.834913
C196	C	1.259760	0.295186	1.334913
C197	C	0.759758	-0.204832	0.769479
C198	C	1.259758	0.295168	1.269479
C199	C	0.755594	-0.251953	0.736763
C200	C	1.255594	0.248047	1.236763
C201	C	0.789064	-0.218451	0.971314
C202	C	1.289064	0.281549	1.471314
C203	C	0.789059	-0.218428	1.036750
C204	C	1.289059	0.281572	1.536750
C205	C	0.722132	-0.285291	1.036715
C206	C	1.222132	0.214709	1.536715
C207	C	0.722134	-0.285310	0.971279
C208	C	1.222134	0.214690	1.471279
C209	C	0.755602	-0.251891	0.938583
C210	C	1.255602	0.248109	1.438583
H211	H	0.305402	-0.158060	0.414865
H212	H	0.805402	0.341940	0.914865
H213	H	0.747912	-0.337402	0.742837
H214	H	1.247912	0.162598	1.242837
N215	N	0.823231	-0.184387	0.666551
N216	N	1.323231	0.315613	1.166551
N217	N	0.819802	-0.136142	0.659248
N218	N	1.319802	0.363858	1.159248
H219	H	0.843939	-0.112016	0.682867
H220	H	1.343939	0.387984	1.182867
H221	H	0.206168	-0.346012	0.188940
H222	H	0.706168	0.153988	0.688940
H223	H	-0.044851	-0.191479	0.374736
H224	H	0.455149	0.308521	0.874736
N225	N	0.687948	-0.319467	0.937853
N226	N	1.187948	0.180533	1.437853
N227	N	0.658074	-0.349305	0.967057
N228	N	1.158074	0.150695	1.467057
H229	H	0.633927	-0.373429	0.943450
H230	H	1.133927	0.126571	1.443450
H231	H	0.816337	-0.953369	0.229290
H232	H	1.316337	-0.453369	0.729290
H233	H	0.661443	-0.801309	0.414582
H234	H	1.161443	-0.301309	0.914582
H235	H	0.694973	-1.052478	0.374562
H236	H	1.194973	-0.552478	0.874562
N237	N	0.688002	-0.947771	0.382842
N238	N	1.188002	-0.447771	0.882842
N239	N	0.654681	-0.917342	0.360758
N240	N	1.154681	-0.417342	0.860758
H241	H	0.630531	-0.897661	0.389630
H242	H	1.130531	-0.397661	0.889630
N243	N	0.747157	-0.347138	0.868316
N244	N	1.247157	0.152862	1.368316
N245	N	0.743413	-0.389199	0.839093
N246	N	1.243413	0.110801	1.339093
H247	H	0.740372	-0.423177	0.862686
H248	H	1.240372	0.076823	1.362686
N249	N	0.654483	-0.696610	0.422874
N250	N	1.154483	-0.196610	0.922874
N251	N	0.624630	-0.721009	0.458619
N252	N	1.124630	-0.221009	0.958619
H253	H	0.600488	-0.701334	0.487507
H254	H	1.100488	-0.201334	0.987507
H255	H	0.816309	-0.191199	1.063398
H256	H	1.316309	0.308801	1.563398
N257	N	-0.050633	-0.319547	0.220754
N258	N	0.449367	0.180453	0.720754
N259	N	-0.081112	-0.301105	0.180873
N260	N	0.418888	0.198895	0.680873
H261	H	-0.100836	-0.325190	0.151913
H262	H	0.399164	0.174810	0.651913
N263	N	0.687939	-0.319572	0.534194
N264	N	1.187939	0.180428	1.034194
N265	N	0.654638	-0.301177	0.497663
N266	N	1.154638	0.198823	0.997663
H267	H	0.630495	-0.325295	0.474040
H268	H	1.130495	0.174705	0.974040
H269	H	0.054199	-0.191472	0.374742
H270	H	0.554199	0.308528	0.874742
N271	N	0.451850	-0.184507	0.383032
N272	N	0.951850	0.315493	0.883032
N273	N	0.476266	-0.154700	0.418866
N274	N	0.976266	0.345300	0.918866
H275	H	0.456605	-0.130614	0.447838
H276	H	0.956605	0.369386	0.947838
N277	N	0.200712	-0.151139	0.423182
N278	N	0.700712	0.348861	0.923182
N279	N	0.225131	-0.121328	0.459009
N280	N	0.725131	0.378672	0.959009
H281	H	0.205471	-0.097230	0.487969
H282	H	0.705471	0.402770	0.987969
N283	N	0.562220	-0.184491	0.383007
N284	N	1.062220	0.315509	0.883007
N285	N	0.592695	-0.151144	0.361030
N286	N	1.092695	0.348856	0.861030
H287	H	0.612417	-0.127052	0.389982
H288	H	1.112417	0.372948	0.889982
N289	N	0.856633	-0.696531	0.180928
N290	N	1.356633	-0.196531	0.680928
N291	N	0.886506	-0.720908	0.145197
N292	N	1.386506	-0.220908	0.645197
H293	H	0.910639	-0.701215	0.116307
H294	H	1.410639	-0.201215	0.616307
N295	N	0.059742	-0.319538	0.220740
N296	N	0.559742	0.180462	0.720740
N297	N	0.035330	-0.349344	0.184900
N298	N	0.535330	0.150656	0.684900
H299	H	0.054994	-0.373429	0.155930
H300	H	0.554994	0.126571	0.655930
N301	N	0.687856	-0.555796	0.382794
N302	N	1.187856	-0.055796	0.882794
N303	N	0.657978	-0.531425	0.418525
N304	N	1.157978	-0.031425	0.918525
H305	H	0.633844	-0.551123	0.447409
H306	H	1.133844	-0.051123	0.947409
N307	N	0.562095	-0.319474	0.220709
N308	N	1.062095	0.180526	0.720709
N309	N	0.592555	-0.301027	0.180820
N310	N	1.092555	0.198973	0.680820
H311	H	0.612230	-0.325108	0.151855
H312	H	1.112230	0.174892	0.651855
H313	H	0.694884	-0.312499	1.063341
H314	H	1.194884	0.187501	1.563341
H315	H	0.816307	-0.191356	0.541054
H316	H	1.316307	0.308644	1.041054
H317	H	0.816370	-1.052435	0.229309
H318	H	1.316370	-0.552435	0.729309
N319	N	0.687825	-0.445414	0.382772
N320	N	1.187825	0.054586	0.882772
N321	N	0.687816	-0.396661	0.382754
N322	N	1.187816	0.103339	0.882754
H323	H	0.663677	-0.376965	0.411624
H324	H	1.163677	0.123035	0.911624
N325	N	0.451726	-0.319506	0.220723
N326	N	0.951726	0.180494	0.720723
N327	N	0.476087	-0.349307	0.184884
N328	N	0.976087	0.150693	0.684884
H329	H	0.456380	-0.373403	0.155922
H330	H	0.956380	0.126597	0.655922
H331	H	0.694880	-0.312616	0.659704
H332	H	1.194880	0.187384	1.159704
N333	N	0.823078	-0.445368	0.220920
N334	N	1.323078	0.054632	0.720920
N335	N	0.852952	-0.469741	0.185186
N336	N	1.352952	0.030259	0.685186
H337	H	0.877081	-0.450044	0.156294
H338	H	1.377081	0.049956	0.656294
H339	H	0.763145	-0.166482	0.742843
H340	H	1.263145	0.333518	1.242843
H341	H	0.763146	-0.166448	0.861555
H342	H	1.263146	0.333552	1.361555
N343	N	0.823131	-0.555722	0.220942
N344	N	1.323131	-0.055722	0.720942
N345	N	0.852983	-0.531318	0.185199
N346	N	1.352983	-0.031318	0.685199
H347	H	0.877128	-0.550990	0.156312
H348	H	1.377128	-0.050990	0.656312
N349	N	0.310862	-0.352920	0.180603
N350	N	0.810862	0.147080	0.680603
N351	N	0.286442	-0.382730	0.144775
N352	N	0.786442	0.117270	0.644775
H353	H	0.306100	-0.406823	0.115809
H354	H	0.806100	0.093177	0.615809
N355	N	0.823250	-0.184311	0.937920
N356	N	1.323250	0.315689	1.437920
N357	N	0.853123	-0.154455	0.967154
N358	N	1.353123	0.345545	1.467154
H359	H	0.877267	-0.130342	0.943572
H360	H	1.377267	0.369658	1.443572
H361	H	0.849740	-0.801231	0.189245
H362	H	1.349740	-0.301231	0.689245
