data_functionalizedCrystal
_audit_creation_method	'MofGen! by Chris Wilmer'
_symmetry_space_group_name_H-M	'P1'
_symmetry_Int_Tables_number	1
_symmetry_cell_setting	triclinic
loop_
_symmetry_equiv_pos_as_xyz
  x,y,z
_cell_length_a	14.908571
_cell_length_b	25.639239
_cell_length_c	14.908308
_cell_angle_alpha	93.262277
_cell_angle_beta	90.175053
_cell_angle_gamma	86.734636
loop_
_atom_site_label
_atom_site_type_symbol
_atom_site_fract_x
_atom_site_fract_y
_atom_site_fract_z
Zn1	Zn	1.345148	-0.272845	-0.587542
Zn2	Zn	1.845148	0.227155	-0.087542
Zn3	Zn	1.353683	-0.355542	-0.437170
Zn4	Zn	1.853683	0.144458	0.062830
Zn5	Zn	1.203468	-0.262803	-0.428541
Zn6	Zn	1.703468	0.237197	0.071459
Zn7	Zn	1.194711	-0.354921	-0.578822
Zn8	Zn	1.694711	0.145079	-0.078822
O9	O	1.274253	-0.311528	-0.508019
O10	O	1.774253	0.188472	-0.008019
O11	O	1.472104	-0.288277	-0.574855
O12	O	1.972104	0.211723	-0.074855
O13	O	1.340994	-0.339297	-0.310201
O14	O	1.840994	0.160703	0.189799
O15	O	1.222355	-0.190974	-0.449671
O16	O	1.722355	0.309026	0.050329
O17	O	1.478375	-0.349035	-0.464378
O18	O	1.978375	0.150965	0.035622
O19	O	1.326446	-0.198352	-0.566488
O20	O	1.826446	0.301648	-0.066488
O21	O	1.230632	-0.271162	-0.303862
O22	O	1.730632	0.228838	0.196138
O23	O	1.076483	-0.270560	-0.441216
O24	O	1.576483	0.229440	0.058784
O25	O	1.207430	-0.347976	-0.705803
O26	O	1.707430	0.152024	-0.205803
O27	O	1.070049	-0.338239	-0.551626
O28	O	1.570049	0.161761	-0.051626
O29	O	1.317955	-0.287675	-0.712209
O30	O	1.817955	0.212325	-0.212209
O31	O	1.332503	-0.428620	-0.455922
O32	O	1.832503	0.071380	0.044078
O33	O	1.215707	-0.428164	-0.559993
O34	O	1.715707	0.071836	-0.059993
C35	C	1.040642	-0.303242	-0.494539
C36	C	1.540642	0.196758	0.005461
C37	C	0.940701	-0.299711	-0.488793
C38	C	1.440701	0.200289	0.011207
C39	C	0.746258	-0.363649	-0.592813
C40	C	1.246258	0.136351	-0.092813
C41	C	0.652355	-0.360332	-0.587418
C42	C	1.152355	0.139668	-0.087418
C43	C	0.658987	-0.289761	-0.472613
C44	C	1.158987	0.210239	0.027387
C45	C	0.752891	-0.293077	-0.478008
C46	C	1.252891	0.206923	0.021992
C47	C	0.796523	-0.330022	-0.538109
C48	C	1.296523	0.169978	-0.038109
C49	C	0.890429	-0.333341	-0.543499
C50	C	1.390429	0.166659	-0.043499
C51	C	0.897060	-0.262767	-0.428700
C52	C	1.397060	0.237233	0.071300
C53	C	0.803156	-0.259451	-0.423304
C54	C	1.303156	0.240549	0.076696
C55	C	1.274104	-0.447364	-0.507969
C56	C	1.774104	0.052636	-0.007969
C57	C	1.274121	-0.505479	-0.507982
C58	C	1.774121	-0.005479	-0.007982
C59	C	1.335213	-0.866081	-0.453936
C60	C	1.835213	-0.366081	0.046064
C61	C	1.335247	-0.920687	-0.453950
C62	C	1.835247	-0.420687	0.046050
O63	O	1.387035	-0.949120	-0.407943
O64	O	1.887035	-0.449120	0.092057
N65	N	1.274407	-0.947774	-0.508087
N66	N	1.774407	-0.447774	-0.008087
C67	C	1.213536	-0.920253	-0.562222
C68	C	1.713536	-0.420253	-0.062222
O69	O	1.161791	-0.948307	-0.608272
O70	O	1.661791	-0.448307	-0.108272
C71	C	1.213506	-0.865649	-0.562212
C72	C	1.713506	-0.365649	-0.062212
C73	C	1.274344	-0.838564	-0.508064
C74	C	1.774344	-0.338564	-0.008064
C75	C	1.396046	-0.838996	-0.399793
C76	C	1.896046	-0.338996	0.100207
C77	C	1.396010	-0.784393	-0.399778
C78	C	1.896010	-0.284393	0.100222
C79	C	1.335142	-0.756876	-0.453906
C80	C	1.835142	-0.256876	0.046094
C81	C	1.274309	-0.783961	-0.508048
C82	C	1.774309	-0.283961	-0.008048
C83	C	1.152640	-0.838129	-0.616350
C84	C	1.652640	-0.338129	-0.116350
C85	C	1.152616	-0.783521	-0.616336
C86	C	1.652616	-0.283521	-0.116336
C87	C	1.213454	-0.756436	-0.562188
C88	C	1.713454	-0.256436	-0.062188
C89	C	1.213404	-0.701842	-0.562161
C90	C	1.713404	-0.201842	-0.062161
N91	N	1.274244	-0.674754	-0.508024
N92	N	1.774244	-0.174754	-0.008024
C93	C	1.335113	-0.702272	-0.453896
C94	C	1.835113	-0.202272	0.046104
C95	C	1.213603	-1.034927	-0.562239
C96	C	1.713603	-0.534927	-0.062239
C97	C	1.213627	-1.089530	-0.562245
C98	C	1.713627	-0.589530	-0.062245
C99	C	1.335339	-1.089960	-0.453974
C100	C	1.835339	-0.589960	0.046026
C101	C	1.335310	-1.035355	-0.453964
C102	C	1.835310	-0.535355	0.046036
C103	C	1.274442	-1.007839	-0.508102
C104	C	1.774442	-0.507839	-0.008102
C105	C	1.335033	-0.587603	-0.453867
C106	C	1.835033	-0.087603	0.046133
C107	C	1.334989	-0.532996	-0.453854
C108	C	1.834989	-0.032996	0.046146
C109	C	1.213280	-0.532571	-0.562128
C110	C	1.713280	-0.032571	-0.062128
C111	C	1.213320	-0.587173	-0.562138
C112	C	1.713320	-0.087173	-0.062138
C113	C	1.274204	-0.614688	-0.508005
C114	C	1.774204	-0.114688	-0.008005
O115	O	1.161645	-0.673375	-0.608147
O116	O	1.661645	-0.173375	-0.108147
O117	O	1.386857	-0.674211	-0.407862
O118	O	1.886857	-0.174211	0.092138
C119	C	1.508776	-0.319846	-0.521552
C120	C	2.008776	0.180154	-0.021552
C121	C	1.608716	-0.323390	-0.527319
C122	C	2.108716	0.176610	-0.027319
C123	C	1.260764	-0.318877	-0.742543
C124	C	1.760764	0.181123	-0.242543
C125	C	1.255015	-0.322008	-0.842483
C126	C	1.755015	0.177992	-0.342483
C127	C	1.274426	-0.175163	-0.508090
C128	C	1.774426	0.324837	-0.008090
C129	C	1.274499	-0.117052	-0.508120
C130	C	1.774499	0.382948	-0.008120
C131	C	1.359301	-0.265089	-1.036954
C132	C	1.859301	0.234911	-0.536954
C133	C	1.353903	-0.268030	-1.130857
C134	C	1.853903	0.231970	-0.630857
C135	C	1.238817	-0.330827	-1.124193
C136	C	1.738817	0.169173	-0.624193
C137	C	1.244215	-0.327887	-1.030291
C138	C	1.744215	0.172113	-0.530291
C139	C	1.304460	-0.295017	-0.986674
C140	C	1.804460	0.204983	-0.486674
C141	C	1.309862	-0.292079	-0.892770
C142	C	1.809862	0.207921	-0.392770
C143	C	1.194772	-0.354874	-0.886108
C144	C	1.694772	0.145126	-0.386108
C145	C	1.189374	-0.357814	-0.980011
C146	C	1.689374	0.142186	-0.480011
C147	C	1.287741	-0.304171	-0.274410
C148	C	1.787741	0.195829	0.225590
C149	C	1.293664	-0.300899	-0.174480
C150	C	1.793664	0.199101	0.325520
H151	H	0.925953	-0.363425	-0.592435
H152	H	1.425953	0.136575	-0.092435
Cl153	Cl	1.113641	-0.399133	-1.034851
Cl154	Cl	1.613641	0.100867	-0.534851
H155	H	1.189768	-0.357588	-1.159722
H156	H	1.689768	0.142412	-0.659722
Cl157	Cl	1.137068	-1.000340	-0.630297
Cl158	Cl	1.637068	-0.500340	-0.130297
Cl159	Cl	0.801114	-0.410098	-0.668357
Cl160	Cl	1.301114	0.089902	-0.168357
H161	H	1.163719	-0.510158	-0.606196
H162	H	1.663719	-0.010158	-0.106196
H163	H	1.384905	-1.112374	-0.409903
H164	H	1.884905	-0.612374	0.090097
H165	H	1.445552	-0.762344	-0.355688
H166	H	1.945552	-0.262344	0.144312
H167	H	1.103051	-0.761120	-0.660424
H168	H	1.603051	-0.261120	-0.160424
Cl169	Cl	0.960256	-0.220496	-0.359917
Cl170	Cl	1.460256	0.279504	0.140083
Cl171	Cl	1.385600	-0.250760	-0.837939
Cl172	Cl	1.885600	0.249240	-0.337939
H173	H	1.408359	-0.238328	-1.001442
H174	H	1.908359	0.261672	-0.501442
H175	H	0.611432	-0.387713	-0.631965
H176	H	1.111432	0.112287	-0.131965
H177	H	0.623445	-0.259678	-0.423687
H178	H	1.123445	0.240322	0.076313
H179	H	1.445618	-0.861394	-0.355715
H180	H	1.945618	-0.361394	0.144285
H181	H	1.150119	-0.379244	-0.845160
H182	H	1.650119	0.120756	-0.345160
Cl183	Cl	0.748295	-0.213005	-0.347757
Cl184	Cl	1.248295	0.286995	0.152243
Cl185	Cl	1.411477	-0.498949	-0.385778
Cl186	Cl	1.911477	0.001051	0.114222
H187	H	1.384612	-0.609999	-0.409789
H188	H	1.884612	-0.109999	0.090211
H189	H	1.384850	-1.013306	-0.409873
H190	H	1.884850	-0.513306	0.090127
H191	H	1.164079	-1.111578	-0.606329
H192	H	1.664079	-0.611578	-0.106329
Cl193	Cl	1.076163	-0.872166	-0.684438
Cl194	Cl	1.576163	-0.372166	-0.184438
Cl195	Cl	1.422847	-0.230404	-1.194064
Cl196	Cl	1.922847	0.269596	-0.694064
Cl197	Cl	1.136821	-0.621223	-0.630191
Cl198	Cl	1.636821	-0.121223	-0.130191
