data_functionalizedCrystal
_audit_creation_method	'MofGen! by Chris Wilmer'
_symmetry_space_group_name_H-M	'P1'
_symmetry_Int_Tables_number	1
_symmetry_cell_setting	triclinic
loop_
_symmetry_equiv_pos_as_xyz
  x,y,z
_cell_length_a	29.917948
_cell_length_b	29.917021
_cell_length_c	29.913391
_cell_angle_alpha	60.005297
_cell_angle_beta	60.010472
_cell_angle_gamma	59.993667
loop_
_atom_site_label
_atom_site_type_symbol
_atom_site_fract_x
_atom_site_fract_y
_atom_site_fract_z
O1	O	0.061938	-0.653075	0.546110
O2	O	0.561938	-0.153075	1.046110
O3	O	0.023328	-0.508466	0.440017
O4	O	0.523328	-0.008466	0.940017
O5	O	0.114898	-0.599963	0.439941
O6	O	0.614898	-0.099963	0.939941
O7	O	-0.029633	-0.561578	0.546186
O8	O	0.470367	-0.061578	1.046186
O9	O	0.145278	-0.569587	0.470242
O10	O	0.645278	-0.069587	0.970242
O11	O	0.053708	-0.478090	0.470318
O12	O	0.553708	0.021910	0.970318
O13	O	0.092318	-0.622699	0.576411
O14	O	0.592318	-0.122699	1.076411
Zn15	Zn	0.077836	-0.545572	0.528175
Zn16	Zn	0.577836	-0.045572	1.028175
Zn17	Zn	0.037809	-0.585593	0.488253
Zn18	Zn	0.537809	-0.085593	0.988253
O19	O	0.000747	-0.531202	0.576487
O20	O	0.500747	-0.031202	1.076487
N21	N	0.105154	-0.518262	0.555424
N22	N	0.605154	-0.018262	1.055424
N23	N	0.010496	-0.612908	0.461004
N24	N	0.510496	-0.112908	0.961004
C25	C	0.164136	-0.309209	0.614352
C26	C	0.664136	0.190791	1.114352
C27	C	0.164251	-0.459335	0.764424
C28	C	0.664251	0.040665	1.264424
C29	C	0.164150	-0.459313	0.614341
C30	C	0.664150	0.040687	1.114341
C31	C	0.314282	-0.459305	0.614278
C32	C	0.814282	0.040695	1.114278
C33	C	0.180666	-0.358742	0.630849
C34	C	0.680666	0.141258	1.130849
C35	C	0.180732	-0.442815	0.714891
C36	C	0.680732	0.057185	1.214891
C37	C	0.264747	-0.442797	0.630809
C38	C	0.764747	0.057203	1.130809
C39	C	0.180676	-0.442802	0.630843
C40	C	0.680676	0.057198	1.130843
C41	C	0.143097	-0.246161	0.593354
C42	C	0.643097	0.253839	1.093354
C43	C	0.143120	-0.480326	0.593337
C44	C	0.643120	0.019674	1.093337
C45	C	0.201706	-0.421790	0.651848
C46	C	0.701706	0.078210	1.151848
C47	C	0.405963	-0.443499	0.565998
C48	C	0.905963	0.056501	1.065998
C49	C	0.463273	-0.462598	0.546874
C50	C	0.963273	0.037402	1.046874
C51	C	0.463297	-0.555329	0.582235
C52	C	0.963297	-0.055329	1.082235
C53	C	0.405988	-0.536228	0.601360
C54	C	0.905988	-0.036228	1.101360
C55	C	0.156905	-0.217495	0.537012
C56	C	0.656905	0.282505	1.037012
C57	C	0.137776	-0.160180	0.517926
C58	C	0.637776	0.339820	1.017926
C59	C	0.091035	-0.160201	0.611524
C60	C	0.591035	0.339799	1.111524
C61	C	0.110164	-0.217516	0.630611
C62	C	0.610164	0.282484	1.130611
C63	C	0.086772	-0.466488	0.607209
C64	C	0.586772	0.033512	1.107209
C65	C	0.067659	-0.485590	0.588108
C66	C	0.567659	0.014410	1.088108
C67	C	0.161236	-0.532368	0.541277
C68	C	0.661236	-0.032368	1.041277
C69	C	0.180352	-0.513266	0.560371
C70	C	0.680352	-0.013266	1.060371
C71	C	0.086942	-0.466529	0.856152
C72	C	0.586942	0.033471	1.356152
C73	C	0.067877	-0.485647	0.913465
C74	C	0.567877	0.014353	1.413465
C75	C	0.161489	-0.532436	0.913415
C76	C	0.661489	-0.032436	1.413415
C77	C	0.180552	-0.513318	0.856101
C78	C	0.680552	-0.013318	1.356101
C79	C	0.143277	-0.480363	0.827471
C80	C	0.643277	0.019637	1.327471
C81	C	0.377323	-0.480313	0.593239
C82	C	0.877323	0.019687	1.093239
C83	C	-0.111377	-0.650681	0.422736
C84	C	0.388623	-0.150681	0.922736
C85	C	-0.027364	-0.650787	0.422929
C86	C	0.472636	-0.150787	0.922929
C87	C	-0.048335	-0.671770	0.401835
C88	C	0.451665	-0.171770	0.901835
C89	C	-0.064214	-0.763416	0.450041
C90	C	0.435786	-0.263416	0.950041
C91	C	-0.045160	-0.820731	0.469172
C92	C	0.454840	-0.320731	0.969172
C93	C	0.047573	-0.820841	0.433980
C94	C	0.547573	-0.320841	0.933980
C95	C	0.028517	-0.763527	0.414847
C96	C	0.528517	-0.263527	0.914847
C97	C	-0.140115	-0.664483	0.479060
C98	C	0.359885	-0.164483	0.979060
C99	C	-0.197425	-0.645309	0.498058
C100	C	0.302575	-0.145309	0.998058
C101	C	-0.197256	-0.598535	0.404405
C102	C	0.302744	-0.098535	0.904405
C103	C	-0.139946	-0.617709	0.385407
C104	C	0.360054	-0.117709	0.885407
C105	C	-0.041168	-0.594444	0.409067
C106	C	0.458832	-0.094444	0.909067
C107	C	-0.022104	-0.575374	0.428250
C108	C	0.477896	-0.075374	0.928250
C109	C	0.024568	-0.668986	0.475143
C110	C	0.524568	-0.168986	0.975143
C111	C	0.005504	-0.688059	0.455967
C112	C	0.505504	-0.188059	0.955967
C113	C	-0.041000	-0.594453	0.310105
C114	C	0.459000	-0.094453	0.810105
C115	C	-0.021803	-0.575386	0.252792
C116	C	0.478197	-0.075386	0.752792
C117	C	0.024951	-0.669004	0.252854
C118	C	0.524951	-0.169004	0.752854
C119	C	0.005755	-0.688070	0.310168
C120	C	0.505755	-0.188070	0.810168
C121	C	-0.027222	-0.650793	0.338792
C122	C	0.472778	-0.150793	0.838792
C123	C	-0.027377	-0.734817	0.422881
C124	C	0.472623	-0.234817	0.922881
N125	N	0.491125	-0.518235	0.555255
N126	N	0.991125	-0.018235	1.055255
O127	O	0.678406	-0.527360	0.420422
O128	O	1.178406	-0.027360	0.920422
O129	O	0.678588	-0.633782	0.564887
O130	O	1.178588	-0.133782	1.064887
O131	O	0.678516	-0.633539	0.473265
O132	O	1.178516	-0.133539	0.973265
O133	O	0.678478	-0.527602	0.512044
O134	O	1.178478	-0.027602	1.012044
O135	O	0.587469	-0.603251	0.503685
O136	O	1.087469	-0.103251	1.003685
O137	O	0.587541	-0.603493	0.595307
O138	O	1.087541	-0.103493	1.095307
O139	O	0.587359	-0.497071	0.450842
O140	O	1.087359	0.002929	0.950842
Zn141	Zn	0.572994	-0.545473	0.527905
Zn142	Zn	1.072994	-0.045473	1.027905
Zn143	Zn	0.692953	-0.585380	0.487825
Zn144	Zn	1.192953	-0.085380	0.987825
O145	O	0.587431	-0.497313	0.542465
O146	O	1.087431	0.002687	1.042465
N147	N	0.774821	-0.612618	0.460470
N148	N	1.274821	-0.112618	0.960470
N149	N	0.105125	-0.132348	0.555445
N150	N	0.605125	0.367652	1.055445
O151	O	-0.029633	0.055031	0.546198
O152	O	0.470367	0.555031	1.046198
O153	O	0.114837	0.055047	0.439777
O154	O	0.614837	0.555047	0.939777
O155	O	0.023189	0.055024	0.440050
O156	O	0.523189	0.555024	0.940050
O157	O	0.062016	0.055054	0.545925
O158	O	0.562016	0.555054	1.045925
O159	O	0.053572	-0.036031	0.470398
O160	O	0.553572	0.463969	0.970398
O161	O	0.145220	-0.036008	0.470125
O162	O	0.645220	0.463992	0.970125
O163	O	0.000750	-0.036024	0.576546
O164	O	0.500750	0.463976	1.076546
Zn165	Zn	0.077809	-0.050473	0.528154
Zn166	Zn	0.577809	0.449527	1.028154
Zn167	Zn	0.037778	0.069496	0.488169
Zn168	Zn	0.537778	0.569496	0.988169
O169	O	0.092399	-0.036001	0.576273
O170	O	0.592399	0.463999	1.076273
N171	N	0.010456	0.151371	0.460879
N172	N	0.510456	0.651371	0.960879
N173	N	0.105414	-0.518315	0.941279
N174	N	0.605414	-0.018315	1.441279
O175	O	0.096182	-0.653057	1.128644
O176	O	0.596182	-0.153057	1.628644
O177	O	-0.010215	-0.508539	1.128670
O178	O	0.489785	-0.008539	1.628670
O179	O	-0.009968	-0.600172	1.128636
O180	O	0.490032	-0.100172	1.628636
O181	O	0.095935	-0.561424	1.128678
O182	O	0.595935	-0.061424	1.628678
O183	O	0.020367	-0.569808	1.037586
O184	O	0.520367	-0.069808	1.537586
O185	O	0.020121	-0.478175	1.037620
O186	O	0.520121	0.021825	1.537620
O187	O	0.126517	-0.622693	1.037594
O188	O	0.626517	-0.122693	1.537594
Zn189	Zn	0.078135	-0.545613	1.023151
Zn190	Zn	0.578135	-0.045613	1.523151
Zn191	Zn	0.038167	-0.585619	1.143113
Zn192	Zn	0.538167	-0.085619	1.643113
O193	O	0.126270	-0.531061	1.037628
O194	O	0.626270	-0.031061	1.537628
N195	N	0.010887	-0.612923	1.224985
N196	N	0.510887	-0.112923	1.724985
C197	C	0.034899	-0.475056	0.440551
C198	C	0.534899	0.024944	0.940551
C199	C	0.148298	-0.588365	0.440456
C200	C	0.648298	-0.088365	0.940456
C201	C	0.080746	-0.656109	0.575876
C202	C	0.580746	-0.156109	1.075876
C203	C	-0.032653	-0.542801	0.575971
C204	C	0.467347	-0.042801	1.075971
C205	C	0.633086	-0.633292	0.598298
C206	C	1.133086	-0.133292	1.098298
C207	C	0.632998	-0.632993	0.484834
C208	C	1.132998	-0.132993	0.984834
C209	C	0.632857	-0.497559	0.417433
C210	C	1.132857	0.002441	0.917433
C211	C	0.632949	-0.497860	0.530895
C212	C	1.132949	0.002140	1.030895
C213	C	0.148191	0.009634	0.440259
C214	C	0.648191	0.509634	0.940259
C215	C	0.034733	0.009493	0.440634
C216	C	0.534733	0.509493	0.940634
C217	C	-0.032641	0.009502	0.576027
C218	C	0.467359	0.509502	1.076027
C219	C	0.080854	0.009529	0.575690
C220	C	0.580854	0.509529	1.075690
C221	C	-0.009699	-0.475150	1.083148
C222	C	0.490301	0.024850	1.583148
C223	C	-0.009388	-0.588620	1.083088
C224	C	0.490612	-0.088620	1.583088
C225	C	0.126001	-0.656082	1.083116
C226	C	0.626001	-0.156082	1.583116
C227	C	0.125697	-0.542605	1.083155
C228	C	0.625697	-0.042605	1.583155
H229	H	0.056584	-0.439691	0.832846
H230	H	0.556584	0.060309	1.332846
N231	N	0.203285	-0.599201	0.396264
N232	N	0.703285	-0.099201	0.896264
H233	H	0.220748	-0.572309	0.385644
H234	H	0.720748	-0.072309	0.885644
H235	H	0.198181	-0.594840	0.363209
H236	H	0.698181	-0.094840	0.863209
H237	H	0.632941	-0.464583	0.539193
H238	H	1.132941	0.035417	1.039193
N239	N	0.091669	-0.711132	0.620016
N240	N	0.591669	-0.211132	1.120016
H241	H	0.100891	-0.740733	0.606639
H242	H	0.600891	-0.240733	1.106639
H243	H	0.058007	-0.711264	0.653863
H244	H	0.558007	-0.211264	1.153863
N245	N	0.633158	-0.677555	0.653252
N246	N	1.133158	-0.177555	1.153252
H247	H	0.599425	-0.688172	0.670700
H248	H	1.099425	-0.188172	1.170700
H249	H	0.633188	-0.663486	0.677686
H250	H	1.133188	-0.163486	1.177686
N251	N	0.170248	-0.711061	1.083112
N252	N	0.670248	-0.211061	1.583112
H253	H	0.204045	-0.711146	1.083121
H254	H	0.704045	-0.211146	1.583121
H255	H	0.179373	-0.718150	1.049351
H256	H	0.679373	-0.218150	1.549351
H257	H	-0.043102	-0.433644	1.083156
H258	H	0.456898	0.066356	1.583156
N259	N	0.023973	-0.420032	0.396414
N260	N	0.523973	0.079968	0.896414
H261	H	0.028315	-0.425056	0.363321
H262	H	0.528315	0.074944	0.863321
H263	H	0.050844	-0.402564	0.385832
H264	H	0.550844	0.097436	0.885832
N265	N	0.633015	-0.677080	0.473851
N266	N	1.133015	-0.177080	0.973851
H267	H	0.666792	-0.710179	0.478158
H268	H	1.166792	-0.210179	0.978158
H269	H	0.632954	-0.662830	0.435323
H270	H	1.132954	-0.162830	0.935323
H271	H	-0.074166	-0.534620	0.609333
H272	H	0.425834	-0.034620	1.109333
N273	N	-0.076614	-0.554245	0.373432
N274	N	0.423386	-0.054245	0.873432
H275	H	-0.082466	-0.515658	0.367565
H276	H	0.417534	-0.015658	0.867565
H277	H	-0.113132	-0.560083	0.391972
H278	H	0.386868	-0.060083	0.891972
H279	H	0.189596	0.009891	0.406765
H280	H	0.689596	0.509891	0.906765
H281	H	0.632798	-0.464146	0.375944
H282	H	1.132798	0.035854	0.875944
N283	N	0.023755	0.009401	0.396599
N284	N	0.523755	0.509401	0.896599
H285	H	-0.014771	0.009366	0.410819
H286	H	0.485229	0.509366	0.910819
H287	H	0.050652	-0.024382	0.386058
H288	H	0.550652	0.475618	0.886058
N289	N	-0.087596	0.009493	0.620287
N290	N	0.412404	0.509493	1.120287
H291	H	-0.112081	0.009483	0.606264
H292	H	0.387919	0.509483	1.106264
H293	H	-0.104981	0.043250	0.630859
H294	H	0.395019	0.543250	1.130859
H295	H	0.089168	0.009538	0.608950
H296	H	0.589168	0.509538	1.108950
H297	H	-0.042644	-0.596897	1.083039
H298	H	0.457356	-0.096897	1.583039
N299	N	0.169769	-0.531632	1.083169
N300	N	0.669769	-0.031632	1.583169
H301	H	0.155568	-0.493093	1.083179
H302	H	0.655568	0.006907	1.583179
H303	H	0.202863	-0.535999	1.049414
H304	H	0.702863	-0.035999	1.549414
H305	H	0.022003	-0.474373	0.936811
H306	H	0.522003	0.025627	1.436811
H307	H	0.191844	-0.559260	0.936723
H308	H	0.691844	-0.059260	1.436723
H309	H	-0.067855	-0.564093	0.333408
H310	H	0.432145	-0.064093	0.833408
H311	H	0.056452	-0.439666	0.634048
H312	H	0.556452	0.060334	1.134048
N313	N	0.241316	-0.528236	0.825163
N314	N	0.741316	-0.028236	1.325163
H315	H	0.258467	-0.569349	0.835123
H316	H	0.758467	-0.069349	1.335123
H317	H	0.258411	-0.514194	0.835140
H318	H	0.758411	-0.014194	1.335140
N319	N	0.006884	-0.470671	0.603066
N320	N	0.506884	0.029329	1.103066
H321	H	-0.013804	-0.446910	0.626853
H322	H	0.486196	0.053090	1.126853
H323	H	-0.003057	-0.505147	0.623713
H324	H	0.496943	-0.005147	1.123713
H325	H	0.226235	-0.524529	0.549071
H326	H	0.726235	-0.024529	1.049071
N327	N	0.201397	-0.567905	0.505728
N328	N	0.701397	-0.067905	1.005728
H329	H	0.239992	-0.573547	0.499617
H330	H	0.739992	-0.073547	0.999617
H331	H	0.195305	-0.549413	0.469330
H332	H	0.695305	-0.049413	0.969330
N333	N	0.375097	-0.575935	0.630744
N334	N	0.875097	-0.075935	1.130744
H335	H	0.385098	-0.603851	0.664602
H336	H	0.885098	-0.103851	1.164602
H337	H	0.385070	-0.595169	0.605646
H338	H	0.885070	-0.095169	1.105646
N339	N	0.494216	-0.615637	0.590991
N340	N	0.994216	-0.115637	1.090991
H341	H	0.467376	-0.636062	0.611152
H342	H	0.967376	-0.136062	1.111152
H343	H	0.518012	-0.629898	0.613286
H344	H	1.018012	-0.129898	1.113286
H345	H	0.382624	-0.397967	0.559385
H346	H	0.882624	0.102033	1.059385
N347	N	0.494164	-0.422889	0.517494
N348	N	0.994164	0.077111	1.017494
H349	H	0.484166	-0.394975	0.483633
H350	H	0.984166	0.105025	0.983633
H351	H	0.534810	-0.443515	0.506647
H352	H	1.034810	0.056485	1.006647
N353	N	0.192427	-0.248385	0.496824
N354	N	0.692427	0.251615	0.996824
H355	H	0.171751	-0.238411	0.473056
H356	H	0.671751	0.261589	0.973056
H357	H	0.202446	-0.289034	0.517502
H358	H	0.702446	0.210966	1.017502
N359	N	0.152663	-0.129251	0.457156
N360	N	0.652663	0.370749	0.957156
H361	H	0.138647	-0.139224	0.440029
H362	H	0.638647	0.360776	0.940029
H363	H	0.193773	-0.139226	0.440049
H364	H	0.693773	0.360774	0.940049
N365	N	0.055525	-0.129307	0.651712
N366	N	0.555525	0.370693	1.151712
H367	H	0.021076	-0.139291	0.675512
H368	H	0.521076	0.360709	1.175512
H369	H	0.045542	-0.088658	0.631034
H370	H	0.545542	0.411342	1.131034
N371	N	0.095275	-0.248435	0.691379
N372	N	0.595275	0.251565	1.191379
H373	H	0.054166	-0.238469	0.708529
H374	H	0.554166	0.261531	1.208529
H375	H	0.109326	-0.238449	0.708460
H376	H	0.609326	0.261551	1.208460
N377	N	-0.036667	-0.514615	0.221855
N378	N	0.463333	-0.014615	0.721855
H379	H	-0.060470	-0.493897	0.248688
H380	H	0.439530	0.006103	0.748688
H381	H	-0.057265	-0.504632	0.198012
H382	H	0.442735	-0.004632	0.698012
H383	H	0.051792	-0.699362	0.229554
H384	H	0.551792	-0.199362	0.729554
H385	H	0.016979	-0.733950	0.333522
H386	H	0.516979	-0.233950	0.833522
H387	H	0.051334	-0.699339	0.502037
H388	H	0.551334	-0.199339	1.002037
H389	H	-0.033345	-0.529494	0.416965
H390	H	0.466655	-0.029494	0.916965
H391	H	0.016742	-0.733938	0.467255
H392	H	0.516742	-0.233938	0.967255
H393	H	0.058518	-0.740243	0.392731
H394	H	0.558518	-0.240243	0.892731
H395	H	0.093086	-0.844219	0.427442
H396	H	0.593086	-0.344219	0.927442
H397	H	-0.109727	-0.740044	0.456586
H398	H	0.390273	-0.240044	0.956586
N399	N	-0.084888	-0.851581	0.498457
N400	N	0.415112	-0.351581	0.998457
H401	H	-0.123189	-0.824695	0.500642
H402	H	0.376811	-0.324695	1.000642
H403	H	-0.083367	-0.875357	0.536643
H404	H	0.416633	-0.375357	1.036643
H405	H	-0.116855	-0.691337	0.509456
H406	H	0.383145	-0.191337	1.009456
H407	H	-0.220518	-0.571693	0.374008
H408	H	0.279482	-0.071693	0.874008
N409	N	-0.228430	-0.660190	0.558810
N410	N	0.271570	-0.160190	1.058810
H411	H	-0.218492	-0.646202	0.575994
H412	H	0.281508	-0.146202	1.075994
H413	H	-0.218489	-0.701301	0.575915
H414	H	0.281511	-0.201301	1.075915
N415	N	-0.108945	-0.602820	0.324654
N416	N	0.391055	-0.102820	0.824654
H417	H	-0.135740	-0.579022	0.303890
H418	H	0.364260	-0.079022	0.803890
H419	H	-0.085168	-0.637304	0.314713
H420	H	0.414832	-0.137304	0.814713
