data_functionalizedCrystal
_audit_creation_method	'MofGen! by Chris Wilmer'
_symmetry_space_group_name_H-M	'P1'
_symmetry_Int_Tables_number	1
_symmetry_cell_setting	triclinic
loop_
_symmetry_equiv_pos_as_xyz
  x,y,z
_cell_length_a	12.811415
_cell_length_b	19.288864
_cell_length_c	18.366186
_cell_angle_alpha	90.022894
_cell_angle_beta	84.562925
_cell_angle_gamma	96.409453
loop_
_atom_site_label
_atom_site_type_symbol
_atom_site_fract_x
_atom_site_fract_y
_atom_site_fract_z
O1	O	0.130934	-0.922003	-0.069428
O2	O	0.148597	-0.719830	-0.070544
O3	O	-0.013052	-0.826002	-0.059893
O4	O	0.292582	-0.815832	-0.080078
O5	O	-0.013060	-0.825984	0.061207
O6	O	0.148589	-0.719812	0.050556
O7	O	0.130926	-0.921985	0.051672
Zn8	Zn	0.139756	-0.820896	0.070341
Zn9	Zn	0.139766	-0.820920	-0.089213
O10	O	0.292574	-0.815813	0.041022
C11	C	0.148024	-0.693942	-0.009950
C12	C	0.146318	-0.616830	-0.009818
C13	C	-0.052157	-0.825423	0.003238
C14	C	-0.168668	-0.823715	0.010930
C15	C	0.131498	-0.947873	-0.008923
C16	C	0.133204	-1.024985	-0.009060
C17	C	-0.387583	-0.820513	-0.106656
C18	C	-0.497055	-0.818908	-0.099432
C19	C	-0.497084	-0.818896	0.032599
C20	C	-0.387613	-0.820500	0.025375
C21	C	-0.332866	-0.821310	-0.044254
C22	C	-0.223393	-0.822920	-0.051477
C23	C	-0.223423	-0.822902	0.080554
C24	C	-0.332895	-0.821298	0.087777
C25	C	0.331680	-0.816393	-0.022111
C26	C	0.448190	-0.818101	-0.029807
N27	N	0.139748	-0.820884	0.179233
C28	C	0.241166	-0.572605	-0.016094
C29	C	0.239563	-0.500150	-0.015996
C30	C	0.143107	-0.471923	-0.009637
C31	C	0.048247	-0.516158	-0.003356
C32	C	0.049852	-0.588611	-0.003447
C33	C	0.067285	-0.363291	-0.047080
C34	C	0.065683	-0.290838	-0.046994
C35	C	0.138151	-0.248453	-0.009354
C36	C	0.212239	-0.278527	0.028191
C37	C	0.213845	-0.350981	0.028100
C38	C	0.141356	-0.393360	-0.009537
C39	C	0.231268	-0.125663	-0.015523
C40	C	0.229661	-0.053207	-0.015420
C41	C	0.038342	-0.069217	-0.002788
C42	C	0.039952	-0.141671	-0.002883
C43	C	0.136417	-0.169890	-0.009254
N44	N	0.139766	-0.820936	-0.198104
C45	C	0.068206	-0.867913	0.222047
C46	C	0.068201	-0.867917	0.298275
C47	C	0.139757	-0.820900	0.331685
C48	C	0.211305	-0.773863	0.288861
C49	C	0.211301	-0.773855	0.212635
C50	C	0.235391	-0.812077	0.446131
C51	C	0.235396	-0.812089	0.522356
C52	C	0.139770	-0.820920	0.566792
C53	C	0.044134	-0.829752	0.534995
C54	C	0.044130	-0.829744	0.458768
C55	C	0.139769	-0.820903	0.414339
C56	C	0.068216	-0.867955	0.692262
C57	C	0.068210	-0.867955	0.768491
C58	C	0.211324	-0.773904	0.759075
C59	C	0.211321	-0.773901	0.682848
C60	C	0.139768	-0.820930	0.649445
H61	H	-0.178820	-0.823581	-0.108173
H62	H	-0.033740	-0.836934	0.432882
Br63	Br	0.372083	-0.610898	-0.024739
Br64	Br	-0.313281	-0.821625	-0.201149
Br65	Br	-0.031077	-0.420807	-0.098167
H66	H	-0.178862	-0.823554	0.131366
H67	H	0.316802	-0.464135	-0.021104
Br68	Br	0.365184	-0.800162	0.385831
Br69	Br	-0.571311	-0.817822	-0.184124
Br70	Br	-0.028893	-0.931778	0.646928
Br71	Br	0.308411	-0.710048	0.334201
H72	H	-0.541677	-0.818231	0.089288
H73	H	0.269561	-0.735558	0.177775
H74	H	0.313269	-0.804902	0.548239
H75	H	0.009946	-0.906249	0.803352
H76	H	0.269582	-0.735609	0.647986
Br77	Br	-0.407202	-0.820190	0.182269
Br78	Br	0.314383	-0.391795	0.079052
Br79	Br	0.310599	-0.221013	0.079276
Br80	Br	0.362182	-0.163964	-0.024163
H81	H	0.306901	-0.017199	-0.020526
H82	H	-0.037284	-0.177681	0.002223
Br83	Br	-0.092565	-0.030917	0.005855
H84	H	0.005361	-0.266357	-0.077568
H85	H	-0.030288	-0.493171	0.001811
H86	H	-0.033734	-0.836942	0.571173
H87	H	0.009941	-0.906205	0.194854
Br88	Br	-0.078880	-0.648636	0.005072
H89	H	0.009940	-0.906215	0.333141
H90	H	0.269582	-0.735619	0.786277
