data_functionalizedCrystal
_audit_creation_method	'MofGen! by Chris Wilmer'
_symmetry_space_group_name_H-M	'P1'
_symmetry_Int_Tables_number	1
_symmetry_cell_setting	triclinic
loop_
_symmetry_equiv_pos_as_xyz
  x,y,z
_cell_length_a	18.215407
_cell_length_b	18.215405
_cell_length_c	11.169409
_cell_angle_alpha	89.960202
_cell_angle_beta	89.979148
_cell_angle_gamma	90.022329
loop_
_atom_site_label
_atom_site_type_symbol
_atom_site_fract_x
_atom_site_fract_y
_atom_site_fract_z
Zn1	Zn	1.125097	-0.292975	-0.678513
Zn2	Zn	1.625097	0.207025	-0.178513
Zn3	Zn	1.124998	-0.416066	-0.477804
Zn4	Zn	1.624998	0.083934	0.022196
Zn5	Zn	1.002022	-0.293012	-0.477844
Zn6	Zn	1.502022	0.206988	0.022156
Zn7	Zn	1.001996	-0.415999	-0.678445
Zn8	Zn	1.501996	0.084001	-0.178445
O9	O	1.063528	-0.354513	-0.578152
O10	O	1.563528	0.145487	-0.078152
O11	O	1.228068	-0.309316	-0.651901
O12	O	1.728068	0.190684	-0.151901
O13	O	1.108655	-0.399787	-0.309860
O14	O	1.608655	0.100213	0.190140
O15	O	1.018401	-0.190023	-0.504508
O16	O	1.518401	0.309977	-0.004508
O17	O	1.227996	-0.399750	-0.504440
O18	O	1.727996	0.100250	-0.004440
O19	O	1.108824	-0.189996	-0.651939
O20	O	1.608824	0.310004	-0.151939
O21	O	1.018305	-0.309380	-0.309889
O22	O	1.518305	0.190620	0.190111
O23	O	0.899035	-0.309314	-0.504443
O24	O	1.399035	0.190686	-0.004443
O25	O	1.018356	-0.399636	-0.846404
O26	O	1.518356	0.100364	-0.346404
O27	O	0.899015	-0.399672	-0.651823
O28	O	1.399015	0.100328	-0.151823
O29	O	1.108798	-0.309250	-0.846454
O30	O	1.608798	0.190750	-0.346454
O31	O	1.108629	-0.519041	-0.504374
O32	O	1.608629	-0.019041	-0.004374
O33	O	1.018260	-0.518992	-0.651785
O34	O	1.518260	-0.018992	-0.151785
C35	C	0.872322	-0.354490	-0.578131
C36	C	1.372322	0.145510	-0.078131
C37	C	0.790523	-0.354498	-0.578150
C38	C	1.290523	0.145502	-0.078150
C39	C	0.602366	-0.307506	-0.655054
C40	C	1.102366	0.192494	-0.155054
C41	C	0.525507	-0.307512	-0.655058
C42	C	1.025507	0.192488	-0.155058
C43	C	0.525443	-0.401541	-0.501271
C44	C	1.025443	0.098459	-0.001271
C45	C	0.602300	-0.401530	-0.501261
C46	C	1.102300	0.098470	-0.001261
C47	C	0.640760	-0.354514	-0.578160
C48	C	1.140760	0.145486	-0.078160
C49	C	0.487044	-0.354531	-0.578173
C50	C	0.987044	0.145469	-0.078173
C51	C	0.403710	-0.354538	-0.578177
C52	C	0.903710	0.145462	-0.078177
C53	C	0.724099	-0.354506	-0.578155
C54	C	1.224099	0.145494	-0.078155
C55	C	1.063451	-0.545719	-0.578094
C56	C	1.563451	-0.045719	-0.078094
C57	C	1.063485	-0.627518	-0.578109
C58	C	1.563485	-0.127518	-0.078109
C59	C	1.110651	-0.815713	-0.501494
C60	C	1.610651	-0.315713	-0.001494
C61	C	1.110683	-0.892572	-0.501523
C62	C	1.610683	-0.392572	-0.001523
C63	C	1.016500	-0.892561	-0.654896
C64	C	1.516500	-0.392561	-0.154896
C65	C	1.016472	-0.815703	-0.654872
C66	C	1.516472	-0.315703	-0.154872
C67	C	1.063546	-0.777282	-0.578164
C68	C	1.563546	-0.277282	-0.078164
C69	C	1.063607	-0.930998	-0.578217
C70	C	1.563607	-0.430998	-0.078217
C71	C	1.063643	-1.014331	-0.578249
C72	C	1.563643	-0.514331	-0.078249
C73	C	1.063512	-0.693943	-0.578133
C74	C	1.563512	-0.193943	-0.078133
C75	C	1.255481	-0.354536	-0.578174
C76	C	1.755481	0.145464	-0.078174
C77	C	1.337280	-0.354546	-0.578183
C78	C	1.837280	0.145454	-0.078183
C79	C	1.063585	-0.354431	-0.891194
C80	C	1.563585	0.145569	-0.391194
C81	C	1.063609	-0.354396	-1.024594
C82	C	1.563609	0.145604	-0.524594
C83	C	1.063626	-0.162560	-0.578236
C84	C	1.563626	0.337440	-0.078236
C85	C	1.063668	-0.080761	-0.578272
C86	C	1.563668	0.419239	-0.078272
C87	C	1.063514	-0.354541	-0.266327
C88	C	1.563514	0.145459	0.233673
C89	C	1.063633	-0.354369	-0.132928
C90	C	1.563633	0.145631	0.367072
H91	H	0.633678	-0.269220	-0.717666
H92	H	1.133678	0.230780	-0.217666
H93	H	0.494251	-0.269233	-0.717671
H94	H	0.994251	0.230767	-0.217671
Br95	Br	1.174618	-0.944727	-0.397473
Br96	Br	1.674618	-0.444727	0.102527
Br97	Br	0.473243	-0.465346	-0.396915
Br98	Br	0.973243	0.034654	0.103085
H99	H	0.978113	-0.784410	-0.717311
H100	H	1.478113	-0.284410	-0.217311
Br101	Br	0.654410	-0.465321	-0.396880
Br102	Br	1.154410	0.034679	0.103120
Br103	Br	0.952616	-0.944709	-0.758992
Br104	Br	1.452616	-0.444709	-0.258992
Br105	Br	1.174537	-0.763572	-0.397392
Br106	Br	1.674537	-0.263572	0.102608
