data_functionalizedCrystal
_audit_creation_method	'MofGen! by Chris Wilmer'
_symmetry_space_group_name_H-M	'P1'
_symmetry_Int_Tables_number	1
_symmetry_cell_setting	triclinic
loop_
_symmetry_equiv_pos_as_xyz
  x,y,z
_cell_length_a	11.169416
_cell_length_b	11.169417
_cell_length_c	11.169409
_cell_angle_alpha	90.021683
_cell_angle_beta	89.970483
_cell_angle_gamma	89.996824
loop_
_atom_site_label
_atom_site_type_symbol
_atom_site_fract_x
_atom_site_fract_y
_atom_site_fract_z
Zn1	Zn	-0.477744	-1.835013	-0.678626
Zn2	Zn	-0.227744	-1.585013	-0.428626
Zn3	Zn	0.022256	-1.335013	-0.178626
Zn4	Zn	0.272256	-1.085013	0.071374
Zn5	Zn	-0.678484	-1.834924	-0.477953
Zn6	Zn	-0.428484	-1.584924	-0.227953
Zn7	Zn	-0.178484	-1.334924	0.022047
Zn8	Zn	0.071516	-1.084924	0.272047
Zn9	Zn	-0.477810	-1.634299	-0.477954
Zn10	Zn	-0.227810	-1.384299	-0.227954
Zn11	Zn	0.022190	-1.134299	0.022046
Zn12	Zn	0.272190	-0.884299	0.272046
Zn13	Zn	-0.678380	-1.634328	-0.678591
Zn14	Zn	-0.428380	-1.384328	-0.428591
Zn15	Zn	-0.178380	-1.134328	-0.178591
Zn16	Zn	0.071620	-0.884328	0.071409
O17	O	-0.578105	-1.734641	-0.578281
O18	O	-0.328105	-1.484641	-0.328281
O19	O	-0.078105	-1.234641	-0.078281
O20	O	0.171895	-0.984641	0.171719
O21	O	-0.504389	-2.002951	-0.652020
O22	O	-0.254389	-1.752951	-0.402020
O23	O	-0.004389	-1.502951	-0.152020
O24	O	0.245611	-1.252951	0.097980
O25	O	-0.651936	-1.808261	-0.310003
O26	O	-0.401936	-1.558261	-0.060003
O27	O	-0.151936	-1.308261	0.189997
O28	O	0.098064	-1.058261	0.439997
O29	O	-0.309852	-1.660950	-0.504588
O30	O	-0.059852	-1.410950	-0.254588
O31	O	0.190148	-1.160950	-0.004588
O32	O	0.440148	-0.910950	0.245412
O33	O	-0.651872	-2.002885	-0.504586
O34	O	-0.401872	-1.752885	-0.254586
O35	O	-0.151872	-1.502885	-0.004586
O36	O	0.098128	-1.252885	0.245414
O37	O	-0.309803	-1.808413	-0.652021
O38	O	-0.059803	-1.558413	-0.402021
O39	O	0.190197	-1.308413	-0.152021
O40	O	0.440197	-1.058413	0.097979
O41	O	-0.504502	-1.660863	-0.310004
O42	O	-0.254502	-1.410863	-0.060004
O43	O	-0.004502	-1.160863	0.189996
O44	O	0.245498	-0.910863	0.439996
O45	O	-0.504400	-1.466353	-0.504554
O46	O	-0.254400	-1.216353	-0.254554
O47	O	-0.004400	-0.966353	-0.004554
O48	O	0.245600	-0.716353	0.245446
O49	O	-0.651694	-1.660999	-0.846545
O50	O	-0.401694	-1.410999	-0.596545
O51	O	-0.151694	-1.160999	-0.346545
O52	O	0.098306	-0.910999	-0.096545
O53	O	-0.651758	-1.466374	-0.651962
O54	O	-0.401758	-1.216374	-0.401962
O55	O	-0.151758	-0.966374	-0.151962
O56	O	0.098242	-0.716374	0.098038
O57	O	-0.504287	-1.808441	-0.846571
O58	O	-0.254287	-1.558441	-0.596571
O59	O	-0.004287	-1.308441	-0.346571
O60	O	0.245713	-1.058441	-0.096571
O61	O	-0.846420	-1.808289	-0.504553
O62	O	-0.596420	-1.558289	-0.254553
O63	O	-0.346420	-1.308289	-0.004553
O64	O	-0.096420	-1.058289	0.245447
O65	O	-0.846343	-1.660912	-0.651961
O66	O	-0.596343	-1.410912	-0.401961
O67	O	-0.346343	-1.160912	-0.151961
O68	O	-0.096343	-0.910912	0.098039
C69	C	-0.578076	-1.422816	-0.578255
C70	C	-0.328076	-1.172816	-0.328255
C71	C	-0.078076	-0.922816	-0.078255
C72	C	0.171924	-0.672816	0.171745
C73	C	-0.578092	-1.289416	-0.578273
C74	C	-0.328092	-1.039416	-0.328273
C75	C	-0.078092	-0.789416	-0.078273
C76	C	0.171908	-0.539416	0.171727
C77	C	-0.889929	-1.734627	-0.578279
C78	C	-0.639929	-1.484627	-0.328279
C79	C	-0.389929	-1.234627	-0.078279
C80	C	-0.139929	-0.984627	0.171721
C81	C	-1.023329	-1.734730	-0.578318
C82	C	-0.773329	-1.484730	-0.328318
C83	C	-0.523329	-1.234730	-0.078318
C84	C	-0.273329	-0.984730	0.171682
C85	C	-0.265062	-1.734688	-0.578309
C86	C	-0.015062	-1.484688	-0.328309
C87	C	0.234938	-1.234688	-0.078309
C88	C	0.484938	-0.984688	0.171691
C89	C	-0.131662	-1.734708	-0.578321
C90	C	0.118338	-1.484708	-0.328321
C91	C	0.368338	-1.234708	-0.078321
C92	C	0.618338	-0.984708	0.171679
C93	C	-0.577971	-1.734733	-0.891323
C94	C	-0.327971	-1.484733	-0.641323
C95	C	-0.077971	-1.234733	-0.391323
C96	C	0.172029	-0.984733	-0.141323
C97	C	-0.577915	-1.734772	-1.024723
C98	C	-0.327915	-1.484772	-0.774723
C99	C	-0.077915	-1.234772	-0.524723
C100	C	0.172085	-0.984772	-0.274723
C101	C	-0.578124	-1.047683	-0.578298
C102	C	-0.328124	-0.797683	-0.328298
C103	C	-0.078124	-0.547683	-0.078298
C104	C	0.171876	-0.297683	0.171702
C105	C	-0.578107	-1.181083	-0.578280
C106	C	-0.328107	-0.931083	-0.328280
C107	C	-0.078107	-0.681083	-0.078280
C108	C	0.171893	-0.431083	0.171720
C109	C	-0.578151	-1.734618	-0.266456
C110	C	-0.328151	-1.484618	-0.016456
C111	C	-0.078151	-1.234618	0.233544
C112	C	0.171849	-0.984618	0.483544
C113	C	-0.577869	-1.734812	-0.133057
C114	C	-0.327869	-1.484812	0.116943
C115	C	-0.077869	-1.234812	0.366943
C116	C	0.172131	-0.984812	0.616943
