data_functionalizedCrystal
_audit_creation_method	'MofGen! by Chris Wilmer'
_symmetry_space_group_name_H-M	'P1'
_symmetry_Int_Tables_number	1
_symmetry_cell_setting	triclinic
loop_
_symmetry_equiv_pos_as_xyz
  x,y,z
_cell_length_a	16.974800
_cell_length_b	13.262508
_cell_length_c	16.053802
_cell_angle_alpha	108.475487
_cell_angle_beta	91.074188
_cell_angle_gamma	82.923469
loop_
_atom_site_label
_atom_site_type_symbol
_atom_site_fract_x
_atom_site_fract_y
_atom_site_fract_z
O1	O	1.048044	0.135751	0.032240
O2	O	0.818459	0.152053	0.020422
O3	O	0.940703	-0.011106	-0.008361
O4	O	0.925800	0.298909	0.061023
O5	O	0.933975	-0.002162	0.132073
O6	O	0.811730	0.160996	0.160857
O7	O	1.041316	0.144694	0.172675
Zn8	Zn	0.925455	0.154265	0.189063
Zn9	Zn	0.934320	0.142482	0.004034
O10	O	0.919072	0.307852	0.201458
C11	C	0.785737	0.155741	0.088477
C12	C	0.698263	0.153392	0.082030
C13	C	0.653504	0.157162	0.155554
C14	C	0.571314	0.154938	0.149496
C15	C	0.533883	0.148953	0.069914
C16	C	0.578648	0.145180	-0.003616
C17	C	0.660838	0.147396	0.002442
C18	C	0.288467	0.141797	0.043587
C19	C	0.206271	0.139584	0.037535
C20	C	0.198943	0.149341	0.190647
C21	C	0.281133	0.151562	0.196699
C22	C	0.325892	0.147784	0.123168
N23	N	0.449871	0.146684	0.063720
N24	N	0.409903	0.150045	0.129361
C25	C	0.937122	-0.046311	0.052830
C26	C	0.936467	-0.164536	0.025936
C27	C	0.919945	-0.478306	0.256340
C28	C	0.920555	-0.367226	0.281609
C29	C	0.924533	-0.316548	0.217693
C30	C	0.927901	-0.376961	0.128504
C31	C	0.927286	-0.488050	0.103232
C32	C	0.931874	-0.326293	0.064585
C33	C	0.935242	-0.386706	-0.024604
C34	C	0.934627	-0.497784	-0.049871
C35	C	0.930649	-0.548462	0.014045
C36	C	0.932489	-0.215203	0.089857
C37	C	0.939830	-0.224948	-0.063251
C38	C	0.939221	-0.336028	-0.088520
C39	C	1.074037	0.141006	0.104618
C40	C	1.161512	0.143354	0.111059
C41	C	0.922652	0.343058	0.140264
C42	C	0.923308	0.461283	0.167153
N43	N	0.919411	0.162306	0.315340
N44	N	0.940370	0.134432	-0.122245
C45	C	0.971444	0.092907	0.346794
C46	C	0.967224	0.098542	0.435195
C47	C	0.910972	0.173583	0.492142
C48	C	0.858933	0.242985	0.460683
C49	C	0.863150	0.237344	0.372282
C50	C	0.892549	0.198193	0.757895
C51	C	0.888337	0.203831	0.846301
C52	C	0.996627	0.059386	0.820807
C53	C	1.000843	0.053756	0.732406
C54	C	0.948801	0.123155	0.700954
N55	N	0.906658	0.179347	0.582503
N56	N	0.953112	0.117385	0.610593
H57	H	0.534876	0.157990	0.209363
H58	H	1.038996	0.002884	0.846424
H59	H	0.929739	-0.166025	0.162475
H60	H	0.930156	-0.638913	-0.006525
H61	H	0.697279	0.144329	-0.057429
O62	O	0.170039	0.133728	-0.039851
C63	C	0.185968	0.124367	-0.191060
C64	C	0.227105	0.130961	-0.103490
H65	H	0.232085	0.122151	-0.242531
H66	H	0.155473	0.048613	-0.214165
H67	H	0.139873	0.197540	-0.181291
H68	H	0.273234	0.057844	-0.113187
H69	H	0.257547	0.206761	-0.080413
O70	O	0.943791	-0.175842	-0.125406
C71	C	1.018572	-0.161910	-0.246560
C72	C	1.014189	-0.217653	-0.176244
H73	H	1.075492	-0.195675	-0.287669
H74	H	0.965099	-0.176578	-0.290887
H75	H	1.018389	-0.072141	-0.213130
H76	H	1.014396	-0.307435	-0.209599
H77	H	1.067658	-0.202897	-0.131922
H78	H	1.046647	-0.007347	0.686040
O79	O	0.925158	-0.208644	0.242389
C80	C	0.921965	-0.043882	0.362659
C81	C	0.921265	-0.166082	0.334809
H82	H	0.918801	-0.009431	0.437382
H83	H	0.978967	-0.025415	0.337216
H84	H	0.868582	-0.006321	0.333986
H85	H	0.974609	-0.203726	0.363473
H86	H	0.864229	-0.184473	0.360240
O87	O	0.917329	-0.308714	0.368280
C88	C	0.909965	-0.310775	0.517473
C89	C	0.913623	-0.377171	0.419344
H90	H	0.906951	-0.366091	0.558786
H91	H	0.965279	-0.268151	0.534725
H92	H	0.854894	-0.248904	0.531550
H93	H	0.968658	-0.439096	0.405196
H94	H	0.858271	-0.419719	0.402142
H95	H	0.820778	0.293855	0.346674
O96	O	1.026112	0.019918	0.291588
C97	C	1.133103	-0.122717	0.275652
C98	C	1.071218	-0.040120	0.338260
H99	H	1.169599	-0.171264	0.313366
H100	H	1.101500	-0.178754	0.219907
H101	H	1.174063	-0.079220	0.247340
H102	H	1.030241	-0.083527	0.366637
H103	H	1.102873	0.015913	0.393955
O104	O	0.689740	0.162929	0.232917
C105	C	0.673782	0.172423	0.384153
C106	C	0.632649	0.165874	0.296588
H107	H	0.627639	0.174829	0.435660
H108	H	0.719838	0.099229	0.374488
H109	H	0.704320	0.248144	0.407152
H110	H	0.602065	0.090199	0.273540
H111	H	0.586636	0.239121	0.306304
O112	O	0.155578	0.153055	0.262163
C113	C	0.156993	0.162885	0.414650
C114	C	0.206194	0.158716	0.333729
H115	H	0.197897	0.167441	0.472527
H116	H	0.110563	0.236572	0.432090
H117	H	0.126094	0.087644	0.399214
H118	H	0.237143	0.233905	0.349100
H119	H	0.252577	0.084981	0.316310
O120	O	0.332003	0.138285	-0.027747
C121	C	0.419368	0.227336	-0.089519
C122	C	0.370110	0.231435	-0.008659
H123	H	0.450177	0.302648	-0.074121
H124	H	0.465861	0.153720	-0.106898
H125	H	0.378480	0.222633	-0.147429
H126	H	0.410935	0.236177	0.049303
H127	H	0.323609	0.305040	0.008644
H128	H	0.311604	0.156431	0.261502
H129	H	0.842528	0.264942	0.892666
H130	H	0.937363	-0.546968	-0.122495
H131	H	0.850176	0.254702	0.732294
H132	H	0.548166	0.140300	-0.068415
H133	H	0.916701	-0.519577	0.308371
O134	O	0.804254	0.315738	0.516059
C135	C	0.691663	0.344382	0.613625
C136	C	0.753551	0.261873	0.550952
H137	H	0.650644	0.300863	0.641839
H138	H	0.723263	0.400336	0.669428
H139	H	0.655231	0.393035	0.575950
H140	H	0.790002	0.213146	0.588551
H141	H	0.721903	0.205993	0.495149
O142	O	0.942448	-0.394870	-0.175119
C143	C	0.944803	-0.570332	-0.281893
C144	C	0.941126	-0.503818	-0.183792
H145	H	0.943752	-0.658431	-0.288936
H146	H	0.891526	-0.541387	-0.316263
H147	H	1.001915	-0.560418	-0.313106
H148	H	0.884048	-0.513702	-0.152502
H149	H	0.994442	-0.532779	-0.149486
H150	H	1.009593	0.042031	0.460803
