data_functionalizedCrystal
_audit_creation_method	'MofGen! by Chris Wilmer'
_symmetry_space_group_name_H-M	'P1'
_symmetry_Int_Tables_number	1
_symmetry_cell_setting	triclinic
loop_
_symmetry_equiv_pos_as_xyz
  x,y,z
_cell_length_a	16.974885
_cell_length_b	8.597304
_cell_length_c	16.053802
_cell_angle_alpha	84.919063
_cell_angle_beta	91.069328
_cell_angle_gamma	84.857988
loop_
_atom_site_label
_atom_site_type_symbol
_atom_site_fract_x
_atom_site_fract_y
_atom_site_fract_z
O1	O	1.051284	0.198756	-0.012756
O2	O	0.822091	0.222609	-0.029945
O3	O	0.940429	-0.016215	-0.004775
O4	O	0.932946	0.437581	-0.037926
O5	O	0.933915	-0.003124	0.132703
O6	O	0.815576	0.235700	0.107532
O7	O	1.044770	0.211847	0.124721
Zn8	Zn	0.929139	0.225852	0.137954
Zn9	Zn	0.937722	0.208604	-0.043178
O10	O	0.926431	0.450672	0.099551
C11	C	0.789458	0.228006	0.036893
C12	C	0.701928	0.224565	0.031231
C13	C	0.209612	0.204372	-0.008736
C14	C	0.291856	0.207606	-0.003405
C15	C	0.329418	0.216371	0.074200
C16	C	0.284733	0.221886	0.146479
C17	C	0.202492	0.218640	0.141148
C18	C	0.575002	0.226834	0.098180
C19	C	0.657249	0.230084	0.103505
C20	C	0.664366	0.215801	-0.046379
C21	C	0.582122	0.212565	-0.051704
C22	C	0.537445	0.218072	0.020576
N23	N	0.413484	0.219682	0.079650
N24	N	0.453382	0.214750	0.015125
C25	C	0.936006	-0.067749	0.068062
C26	C	0.932521	-0.240806	0.080271
C27	C	1.077403	0.206450	0.057881
C28	C	1.164933	0.209891	0.063538
C29	C	0.930855	0.502205	0.026713
C30	C	0.934340	0.675262	0.014498
N31	N	0.923287	0.237623	0.261573
N32	N	0.943580	0.196821	-0.166795
C33	C	0.973660	0.136039	0.315975
C34	C	0.969574	0.144288	0.402513
C35	C	0.915119	0.254129	0.434646
C36	C	0.864741	0.355717	0.380236
C37	C	0.868823	0.347460	0.293701
C38	C	0.897285	0.290152	0.692260
C39	C	0.893207	0.298405	0.778802
C40	C	0.998040	0.086973	0.801073
C41	C	1.002121	0.078732	0.714534
C42	C	0.951740	0.180314	0.660133
N43	N	0.910943	0.262566	0.523101
N44	N	0.955913	0.171869	0.571680
H45	H	0.328231	0.203102	-0.062257
H46	H	1.018006	0.046602	0.289820
H47	H	0.551545	0.205426	-0.114897
H48	H	0.938561	-0.264201	-0.051159
H49	H	0.928289	-0.301347	0.145932
H50	H	1.010590	0.061569	0.446808
H51	H	1.046462	-0.010709	0.688374
H52	H	0.700751	0.211316	-0.105225
H53	H	0.856264	0.372868	0.647972
H54	H	0.687828	0.237232	0.166702
H55	H	1.039056	0.004267	0.845374
F56	F	0.806781	0.472612	0.414435
F57	F	0.835246	0.415323	0.812993
H58	H	0.179035	0.197245	-0.071930
F59	F	0.527461	0.232727	0.175105
F60	F	0.324712	0.231209	0.229072
H61	H	0.827804	0.430178	0.249406
F62	F	0.154942	0.224503	0.218072
