data_functionalizedCrystal
_audit_creation_method	'MofGen! by Chris Wilmer'
_symmetry_space_group_name_H-M	'P1'
_symmetry_Int_Tables_number	1
_symmetry_cell_setting	triclinic
loop_
_symmetry_equiv_pos_as_xyz
  x,y,z
_cell_length_a	21.295420
_cell_length_b	21.295417
_cell_length_c	15.296720
_cell_angle_alpha	99.638166
_cell_angle_beta	99.661426
_cell_angle_gamma	90.028757
loop_
_atom_site_label
_atom_site_type_symbol
_atom_site_fract_x
_atom_site_fract_y
_atom_site_fract_z
Zn1	Zn	0.900686	-0.312214	-0.510033
Zn2	Zn	0.918829	-0.399274	-0.359172
Zn3	Zn	0.813647	-0.294023	-0.359199
Zn4	Zn	0.795386	-0.417439	-0.509971
O5	O	0.857137	-0.355737	-0.434594
O6	O	0.991181	-0.323774	-0.490035
O7	O	0.920112	-0.370097	-0.232941
O8	O	0.825242	-0.208351	-0.379245
O9	O	1.004510	-0.387736	-0.379198
O10	O	0.889189	-0.221716	-0.490062
O11	O	0.842835	-0.292769	-0.232962
O12	O	0.723137	-0.310383	-0.379185
O13	O	0.794119	-0.418696	-0.636213
O14	O	0.709721	-0.401056	-0.489956
O15	O	0.871483	-0.341387	-0.636259
O16	O	0.902405	-0.489768	-0.379138
O17	O	0.811712	-0.503114	-0.489930
C18	C	0.693589	-0.355717	-0.434568
C19	C	0.623619	-0.355726	-0.434578
C20	C	0.117197	-0.403018	-0.492216
C21	C	0.182941	-0.403017	-0.492207
C22	C	0.222775	-0.355755	-0.434622
C23	C	0.196862	-0.308500	-0.377026
C24	C	0.131120	-0.308505	-0.377031
N25	N	0.326835	-0.299820	-0.427840
N26	N	0.389287	-0.299816	-0.427841
C27	C	0.420852	-0.355735	-0.434603
N28	N	0.387604	-0.411660	-0.441382
N29	N	0.325146	-0.411663	-0.441386
C30	C	0.294061	-0.355743	-0.434610
C31	C	0.518044	-0.402989	-0.492180
C32	C	0.583790	-0.402988	-0.492164
C33	C	0.597709	-0.308466	-0.376989
C34	C	0.531965	-0.308471	-0.377000
C35	C	0.492136	-0.355733	-0.434600
C36	C	0.857061	-0.519283	-0.434544
C37	C	0.857082	-0.589252	-0.434553
C38	C	0.904335	-0.615156	-0.376922
C39	C	0.904362	-0.680901	-0.376943
C40	C	0.857126	-0.720738	-0.434584
C41	C	0.809869	-0.694828	-0.492225
C42	C	0.809847	-0.629085	-0.492209
N43	N	0.801228	-0.824831	-0.441452
N44	N	0.801252	-0.887284	-0.441461
C45	C	0.857190	-0.918819	-0.434635
N46	N	0.913108	-0.885540	-0.427782
N47	N	0.913084	-0.823081	-0.427768
C48	C	0.857145	-0.792027	-0.434607
C49	C	0.904476	-1.016011	-0.377024
C50	C	0.904503	-1.081758	-0.377051
C51	C	0.810006	-1.095683	-0.492328
C52	C	0.809984	-1.029938	-0.492306
C53	C	0.857218	-0.990105	-0.434650
C54	C	1.021324	-0.355758	-0.434620
C55	C	1.091291	-0.355767	-0.434632
C56	C	0.828740	-0.384097	-0.669882
C57	C	0.816639	-0.396182	-0.770148
C58	C	0.857229	-0.191555	-0.434664
C59	C	0.857268	-0.121591	-0.434693
C60	C	0.943649	-0.269252	-1.052876
C61	C	0.955023	-0.257899	-0.958671
C62	C	0.920428	-0.292468	-0.911536
C63	C	0.874457	-0.338394	-0.958615
C64	C	0.863086	-0.349752	-1.052829
C65	C	0.839865	-0.372968	-0.911489
C66	C	0.793894	-0.418894	-0.958567
C67	C	0.782525	-0.430250	-1.052772
C68	C	0.817120	-0.395680	-1.099908
C69	C	0.851236	-0.361610	-0.817274
C70	C	0.770673	-0.442110	-0.817227
C71	C	0.759299	-0.453463	-0.911432
C72	C	0.885460	-0.327443	-0.200220
C73	C	0.897683	-0.315180	-0.099955
H74	H	0.485614	-0.441473	-0.539081
H75	H	0.204037	-0.441495	-0.539102
C76	C	0.981295	-0.231681	-1.103889
C77	C	1.023996	-0.189038	-1.042500
C78	C	1.058694	-0.154421	-1.089460
H79	H	0.952865	-0.208628	-1.140654
H80	H	1.004307	-0.260181	-1.140611
H81	H	1.000984	-0.160542	-1.005793
H82	H	1.052438	-0.212074	-1.005733
H83	H	1.081707	-0.182921	-1.126183
H84	H	1.030260	-0.131372	-1.126224
H85	H	1.087675	-0.125488	-1.047815
C86	C	0.102874	-0.257281	-0.314529
C87	C	0.036777	-0.267414	-0.326839
C88	C	0.010736	-0.220247	-0.269262
H89	H	0.111989	-0.216564	-0.327763
H90	H	0.120924	-0.259138	-0.253879
H91	H	0.018733	-0.265551	-0.387474
H92	H	0.027644	-0.308121	-0.313597
H93	H	0.028786	-0.222104	-0.208613
H94	H	0.019856	-0.179533	-0.282502
H95	H	-0.034112	-0.227119	-0.277601
C96	C	0.758758	-1.139029	-0.554817
C97	C	0.768883	-1.202148	-0.542485
C98	C	0.721683	-1.242099	-0.600032
H99	H	0.760574	-1.135612	-0.615472
H100	H	0.718053	-1.126735	-0.541550
H101	H	0.809577	-1.214439	-0.555759
H102	H	0.767061	-1.205586	-0.481843
H103	H	0.680977	-1.229805	-0.586765
H104	H	0.723502	-1.238676	-0.660683
H105	H	0.728542	-1.284929	-0.591667
H106	H	0.888665	-0.324216	-0.778952
H107	H	0.745098	-0.467651	-1.091101
C108	C	0.804777	-0.408141	-1.202191
C109	C	0.817025	-0.471832	-1.233344
C110	C	0.805656	-0.483334	-1.327562
H111	H	0.831947	-0.381034	-1.223631
H112	H	0.761579	-0.399857	-1.223534
H113	H	0.860217	-0.480109	-1.212011
H114	H	0.789858	-0.498953	-1.211929
H115	H	0.762458	-0.475050	-1.348905
H116	H	0.832827	-0.456223	-1.348993
H117	H	0.813959	-0.526550	-1.348711
H118	H	0.604881	-0.441470	-0.539054
C119	C	0.503944	-0.257181	-0.314327
C120	C	0.530718	-0.260029	-0.225046
C121	C	0.504933	-0.212783	-0.167277
H122	H	0.459091	-0.263890	-0.322441
H123	H	0.513155	-0.216486	-0.327581
H124	H	0.521502	-0.300714	-0.211796
H125	H	0.575569	-0.253313	-0.216903
H126	H	0.514144	-0.172088	-0.180531
H127	H	0.460080	-0.219496	-0.175399
H128	H	0.523099	-0.214705	-0.106694
H129	H	0.771368	-0.607994	-0.539140
H130	H	0.630142	-0.269985	-0.330099
C131	C	0.955696	-0.572021	-0.314302
C132	C	0.997095	-0.608786	-0.263854
C133	C	1.044423	-0.569072	-0.206171
H134	H	0.936460	-0.541652	-0.274879
H135	H	0.978963	-0.550517	-0.348823
H136	H	0.973831	-0.630278	-0.229336
H137	H	1.016346	-0.639153	-0.303254
H138	H	1.067690	-0.547568	-0.240692
H139	H	1.025182	-0.538704	-0.166754
H140	H	1.072521	-0.594011	-0.171942
C141	C	1.004827	-0.207970	-0.907460
C142	C	0.975723	-0.161111	-0.853387
C143	C	1.021580	-0.115100	-0.806196
H144	H	1.023816	-0.188936	-0.948932
H145	H	1.036683	-0.227579	-0.870641
H146	H	0.943878	-0.141504	-0.890204
H147	H	0.956737	-0.180125	-0.811899
H148	H	1.053436	-0.134709	-0.769377
H149	H	1.040566	-0.096071	-0.847674
H150	H	1.001840	-0.083304	-0.769496
H151	H	0.942843	-0.701996	-0.330014
C152	C	0.758600	-1.001926	-0.554902
C153	C	0.717228	-1.050881	-0.605370
C154	C	0.669880	-1.025100	-0.663037
H155	H	0.777820	-0.980993	-0.594313
H156	H	0.735318	-0.972168	-0.520368
H157	H	0.740507	-1.080628	-0.639901
H158	H	0.697992	-1.071818	-0.565983
H159	H	0.646597	-0.995342	-0.628504
H160	H	0.689105	-1.004168	-0.702442
H161	H	0.641800	-1.058311	-0.697281
C162	C	0.932864	-0.280265	-0.809256
C163	C	0.952671	-0.336440	-0.778082
C164	C	0.964153	-0.325219	-0.683864
H165	H	0.894869	-0.266826	-0.787794
H166	H	0.965225	-0.247992	-0.787950
H167	H	0.920312	-0.368703	-0.799379
H168	H	0.990669	-0.349888	-0.799519
H169	H	0.996514	-0.292946	-0.662558
H170	H	0.926156	-0.311779	-0.662411
H171	H	0.977599	-0.363330	-0.662701
C172	C	0.709443	-0.503324	-0.962714
C173	C	0.706903	-0.505879	-1.055304
C174	C	0.660990	-0.551808	-1.102573
H175	H	0.668977	-0.492299	-0.947383
H176	H	0.720494	-0.543778	-0.947312
H177	H	0.695848	-0.465434	-1.070701
H178	H	0.747357	-0.516912	-1.070662
H179	H	0.672041	-0.592262	-1.087171
H180	H	0.620528	-0.540779	-1.087235
H181	H	0.659265	-0.553552	-1.165400
C182	C	0.733151	-0.479558	-0.765899
C183	C	0.752935	-0.459769	-0.673319
C184	C	0.718383	-0.494243	-0.626003
H185	H	0.740449	-0.523726	-0.781209
H186	H	0.688991	-0.472188	-0.781284
H187	H	0.797085	-0.467143	-0.657941
H188	H	0.745636	-0.415606	-0.657983
H189	H	0.674223	-0.486874	-0.641387
H190	H	0.725684	-0.538410	-0.641320
H191	H	0.731798	-0.480817	-0.563183
C192	C	0.758619	-0.738178	-0.554708
C193	C	0.768741	-0.801297	-0.542369
C194	C	0.721538	-0.841247	-0.599910
H195	H	0.760434	-0.734765	-0.615365
H196	H	0.717915	-0.725881	-0.541440
H197	H	0.809435	-0.813590	-0.555644
H198	H	0.766920	-0.804730	-0.481725
H199	H	0.680834	-0.828950	-0.586642
H200	H	0.723357	-0.837829	-0.660563
H201	H	0.728396	-0.884076	-0.591540
H202	H	0.942939	-0.983578	-0.330079
H203	H	0.229299	-0.270019	-0.330139
C204	C	0.074066	-0.454410	-0.554772
C205	C	0.110833	-0.495803	-0.605181
C206	C	0.071123	-0.543160	-0.662803
H207	H	0.043667	-0.435205	-0.594223
H208	H	0.052594	-0.477672	-0.520209
H209	H	0.132294	-0.472545	-0.639742
H210	H	0.141230	-0.515024	-0.565754
H211	H	0.049651	-0.566421	-0.628240
H212	H	0.040726	-0.523949	-0.702248
H213	H	0.096064	-0.571254	-0.697006
H214	H	0.942986	-1.102847	-0.330123
