data_functionalizedCrystal
_audit_creation_method	'MofGen! by Chris Wilmer'
_symmetry_space_group_name_H-M	'P1'
_symmetry_Int_Tables_number	1
_symmetry_cell_setting	triclinic
loop_
_symmetry_equiv_pos_as_xyz
  x,y,z
_cell_length_a	15.995350
_cell_length_b	10.723024
_cell_length_c	9.798715
_cell_angle_alpha	90.001978
_cell_angle_beta	90.000039
_cell_angle_gamma	83.980122
loop_
_atom_site_label
_atom_site_type_symbol
_atom_site_fract_x
_atom_site_fract_y
_atom_site_fract_z
O1	O	-1.111909	-0.160839	-0.113372
O2	O	-0.868247	-0.180701	-0.113399
O3	O	-0.995698	0.010878	-0.113380
O4	O	-0.984458	-0.352418	-0.113391
O5	O	-0.995689	0.010878	0.113602
O6	O	-0.868238	-0.180701	0.113583
O7	O	-1.111899	-0.160839	0.113610
Zn8	Zn	-0.990067	-0.170770	0.149635
Zn9	Zn	-0.990080	-0.170770	-0.149424
O10	O	-0.984448	-0.352418	0.113591
C11	C	-0.837043	-0.179880	0.000088
C12	C	-0.744079	-0.177418	0.000077
C13	C	-1.143103	-0.161660	0.000120
C14	C	-1.236068	-0.164122	0.000121
C15	C	-0.406280	-0.168577	0.000106
C16	C	-0.452931	-0.032138	0.000617
C17	C	-0.549635	-0.034601	0.000096
C18	C	-0.573866	-0.172962	0.000093
C19	C	-0.533171	-0.240259	-0.129522
C20	C	-0.436516	-0.236831	-0.129621
C21	C	-0.436182	-0.239650	0.128500
C22	C	-0.533127	-0.239618	0.130204
C23	C	-0.668578	-0.175448	0.000081
C24	C	-0.311568	-0.166096	0.000109
C25	C	-0.994876	0.057367	0.000109
C26	C	-0.992428	0.195890	0.000104
C27	C	-0.985271	-0.398907	0.000098
C28	C	-0.987718	-0.537430	0.000095
N29	N	-0.990064	-0.170768	0.353735
C30	C	-1.063743	0.271783	0.000111
C31	C	-1.061215	0.414954	0.000105
N32	N	-0.990089	-0.170761	-0.353524
C33	C	-1.043578	-0.089978	0.421520
C34	C	-1.043591	-0.089974	0.578682
H35	H	-0.577756	0.018298	0.093009
C36	C	-1.105462	0.003465	0.342753
C37	C	-1.105283	0.003448	0.185597
C38	C	-1.167169	0.096895	0.106835
C39	C	-1.229235	0.190361	0.185230
C40	C	-1.229417	0.190382	0.342395
C41	C	-1.167530	0.096934	0.421157
H42	H	-1.059336	-0.065744	0.127556
H43	H	-1.167035	0.096879	-0.009509
H44	H	-1.275048	0.259536	0.126927
H45	H	-1.275364	0.259573	0.400436
H46	H	-1.167665	0.096950	0.537501
C47	C	-1.143697	0.503040	0.000112
C48	C	-1.206890	0.497529	-0.117745
C49	C	-1.289375	0.585619	-0.117738
C50	C	-1.308668	0.679218	0.000127
C51	C	-1.245473	0.684732	0.117993
C52	C	-1.162988	0.596643	0.117986
H53	H	-1.192610	0.428238	-0.205004
H54	H	-1.336155	0.581536	-0.204991
H55	H	-1.369728	0.744427	0.000132
H56	H	-1.259754	0.754024	0.205252
H57	H	-1.116208	0.600726	0.205239
C58	C	-0.905233	0.374492	0.000087
C59	C	-0.885940	0.280892	-0.117777
C60	C	-0.803455	0.192803	-0.117784
C61	C	-0.740262	0.198313	0.000073
C62	C	-0.759553	0.291917	0.117947
C63	C	-0.842038	0.380006	0.117954
H64	H	-0.932720	0.276809	-0.205030
H65	H	-0.789175	0.123511	-0.205043
H66	H	-0.679202	0.133105	0.000068
H67	H	-0.712773	0.295999	0.205200
H68	H	-0.856319	0.449297	0.205212
H69	H	-0.404843	-0.337003	-0.135505
C70	C	-0.569984	-0.173692	0.259764
C71	C	-0.540269	-0.221833	0.401558
C72	C	-0.577303	-0.156119	0.531122
C73	C	-0.644051	-0.042264	0.518892
C74	C	-0.673770	0.005882	0.377093
C75	C	-0.636736	-0.059832	0.247529
H76	H	-0.490855	-0.306120	0.410616
H77	H	-0.555303	-0.191761	0.636091
H78	H	-0.671466	0.006381	0.614803
H79	H	-0.723184	0.090170	0.368034
H80	H	-0.658736	-0.024189	0.142560
C81	C	-1.105488	0.003473	0.657420
C82	C	-1.071992	0.098645	0.755745
C83	C	-1.133891	0.192095	0.834486
C84	C	-1.229286	0.190375	0.814903
C85	C	-1.262787	0.095200	0.716574
C86	C	-1.200888	0.001749	0.637833
H87	H	-1.001370	0.099922	0.770245
H88	H	-1.109091	0.262550	0.907275
H89	H	-1.275108	0.259552	0.873192
H90	H	-1.333409	0.093923	0.702074
H91	H	-1.225689	-0.068706	0.565044
H92	H	-0.549072	-0.340515	0.138031
C93	C	-0.928181	-0.264211	0.432504
C94	C	-0.832782	-0.262452	0.413013
C95	C	-0.770896	-0.355898	0.491778
C96	C	-0.804410	-0.451103	0.590036
C97	C	-0.899814	-0.452865	0.609532
C98	C	-0.961700	-0.359419	0.530766
H99	H	-0.807968	-0.191973	0.340273
H100	H	-0.700271	-0.354593	0.477346
H101	H	-0.758598	-0.520277	0.648343
H102	H	-0.924628	-0.523344	0.682272
H103	H	-1.032325	-0.360724	0.545199
C104	C	-0.427467	0.041553	0.126174
C105	C	-0.364002	-0.021253	0.229780
C106	C	-0.338528	0.052443	0.355337
C107	C	-0.376519	0.188944	0.377287
C108	C	-0.439988	0.251757	0.273677
C109	C	-0.465462	0.178062	0.148121
H110	H	-0.335875	-0.122306	0.213534
H111	H	-0.291544	0.005943	0.432035
H112	H	-0.357661	0.243498	0.470231
H113	H	-0.468114	0.352811	0.289923
H114	H	-0.512446	0.224561	0.071422
C115	C	-0.553040	-0.377583	-0.136051
C116	C	-0.606576	-0.430339	-0.023493
C117	C	-0.626445	-0.567664	-0.030018
C118	C	-0.592778	-0.652232	-0.149100
C119	C	-0.539239	-0.599478	-0.261667
C120	C	-0.519370	-0.462153	-0.255142
H121	H	-0.631501	-0.367735	0.064666
H122	H	-0.666078	-0.606715	0.053311
H123	H	-0.607486	-0.753888	-0.153931
H124	H	-0.514313	-0.662082	-0.349826
H125	H	-0.479736	-0.423101	-0.338471
C126	C	-0.408110	-0.179386	0.261233
C127	C	-0.350366	-0.257352	0.362326
C128	C	-0.322299	-0.197071	0.495052
C129	C	-0.351977	-0.058824	0.526686
C130	C	-0.409724	0.019151	0.425591
C131	C	-0.437790	-0.041130	0.292864
H132	H	-0.328394	-0.359699	0.338911
H133	H	-0.279551	-0.254794	0.569890
H134	H	-0.331200	-0.014200	0.624938
H135	H	-0.431696	0.121497	0.449006
H136	H	-0.480539	0.016592	0.218027
H137	H	-1.126670	0.230763	0.000126
H138	H	-0.433029	0.022148	-0.091819
H139	H	-0.929501	0.236910	0.000088
H140	H	-0.944274	-0.239937	0.588193
H141	H	-0.577191	0.018655	-0.092976
H142	H	-0.417929	-0.187756	-0.226509
H143	H	-0.561281	-0.193518	-0.225982
H144	H	-0.404998	-0.340245	0.129375
