data_functionalizedCrystal
_audit_creation_method	'MofGen! by Chris Wilmer'
_symmetry_space_group_name_H-M	'P1'
_symmetry_Int_Tables_number	1
_symmetry_cell_setting	triclinic
loop_
_symmetry_equiv_pos_as_xyz
  x,y,z
_cell_length_a	10.967926
_cell_length_b	10.908878
_cell_length_c	15.455313
_cell_angle_alpha	92.001267
_cell_angle_beta	99.406168
_cell_angle_gamma	72.684821
loop_
_atom_site_label
_atom_site_type_symbol
_atom_site_fract_x
_atom_site_fract_y
_atom_site_fract_z
O1	O	1.602976	0.192668	0.167481
O2	O	1.241083	0.205711	0.113384
O3	O	1.470003	0.013238	0.147607
O4	O	1.374057	0.385141	0.133258
O5	O	1.456922	0.024198	0.289913
O6	O	1.228002	0.216671	0.255691
O7	O	1.589895	0.203628	0.309787
Cu8	Cu	1.407754	0.211150	0.295733
Cu9	Cu	1.423224	0.198189	0.127439
O10	O	1.360976	0.396101	0.275565
C11	C	1.188940	0.209414	0.177721
C12	C	1.053062	0.204103	0.157409
C13	C	0.985707	0.207413	0.222073
C14	C	0.845270	0.201924	0.201082
C15	C	1.472429	-0.028940	0.220099
C16	C	1.499133	-0.170947	0.224088
C17	C	1.401698	-0.221948	0.209522
C18	C	1.429295	-0.368719	0.213644
C19	C	1.642038	0.199925	0.245449
C20	C	1.777917	0.205235	0.265755
C21	C	1.358549	0.438279	0.203070
C22	C	1.331846	0.580285	0.199076
N23	N	1.396883	0.220266	0.414103
N24	N	1.434108	0.189063	0.009070
C25	C	1.494157	0.138528	0.474039
C26	C	1.485944	0.145434	0.563619
C27	C	1.380460	0.234085	0.593262
C28	C	1.283177	0.315827	0.533318
C29	C	1.291386	0.308914	0.443739
C30	C	1.345033	0.263891	0.859547
C31	C	1.336833	0.270801	0.949134
C32	C	1.539600	0.100406	0.979429
C33	C	1.547804	0.093506	0.889847
C34	C	1.450517	0.175242	0.829911
N35	N	1.372065	0.241149	0.684827
N36	N	1.458909	0.168171	0.738347
H37	H	1.533150	-0.433711	0.229171
H38	H	1.602980	-0.235943	0.239614
N39	N	1.264131	-0.135867	0.188985
H40	H	1.263916	-0.043219	0.188962
H41	H	1.223056	-0.157506	0.129371
N42	N	1.194273	-0.333642	0.178520
H43	H	1.194055	-0.240994	0.178491
H44	H	1.153220	-0.355296	0.118903
H45	H	1.265820	0.330447	0.810754
N46	N	1.169396	0.411436	0.565283
H47	H	1.178955	0.403416	0.631126
H48	H	1.166400	0.501244	0.548950
N49	N	0.991736	0.194974	0.063490
H50	H	1.055980	0.193520	0.023221
H51	H	0.965282	0.113627	0.056160
N52	N	1.047020	0.216559	0.315993
H53	H	1.047959	0.139292	0.350538
H54	H	1.138620	0.219229	0.317600
H55	H	1.212173	0.375472	0.394938
H56	H	1.633698	0.021319	0.865715
N57	N	1.644526	0.012250	1.044073
H58	H	1.623324	0.030077	1.105320
H59	H	1.650386	-0.079973	1.029087
H60	H	1.580057	0.066345	0.449912
N61	N	1.590894	0.057320	0.628271
H62	H	1.658978	0.000132	0.595902
H63	H	1.631715	0.110339	0.672019
N64	N	0.783949	0.192796	0.107158
H65	H	0.848193	0.191341	0.066888
H66	H	0.757495	0.111448	0.099828
N67	N	0.839232	0.214360	0.359681
H68	H	0.930865	0.216984	0.361365
H69	H	0.787649	0.295120	0.386331
N70	N	1.223065	0.366434	0.981110
H71	H	1.162680	0.417167	0.929548
H72	H	1.175401	0.319209	1.011683
