data_functionalizedCrystal
_audit_creation_method	'MofGen! by Chris Wilmer'
_symmetry_space_group_name_H-M	'P1'
_symmetry_Int_Tables_number	1
_symmetry_cell_setting	triclinic
loop_
_symmetry_equiv_pos_as_xyz
  x,y,z
_cell_length_a	13.897447
_cell_length_b	13.032831
_cell_length_c	13.897441
_cell_angle_alpha	97.193526
_cell_angle_beta	90.029327
_cell_angle_gamma	82.824382
loop_
_atom_site_label
_atom_site_type_symbol
_atom_site_fract_x
_atom_site_fract_y
_atom_site_fract_z
Zn1	Zn	-0.571545	1.597699	0.732379
Zn2	Zn	-0.732853	1.597579	0.571070
Zn3	Zn	-0.551071	1.422933	0.550643
Zn4	Zn	-0.712280	1.422908	0.711880
O5	O	-0.641937	1.510280	0.641493
O6	O	-0.610121	1.743924	0.728109
O7	O	-0.708780	1.574372	0.433374
O8	O	-0.418812	1.446177	0.574781
O9	O	-0.728633	1.743836	0.609596
O10	O	-0.433855	1.574577	0.708302
O11	O	-0.575226	1.446060	0.418367
O12	O	-0.555278	1.276689	0.554904
O13	O	-0.693571	1.446134	0.849585
O14	O	-0.673717	1.276670	0.673363
O15	O	-0.590173	1.574553	0.864646
O16	O	-0.865098	1.574347	0.589718
O17	O	-0.849984	1.446017	0.693170
C18	C	-0.610044	1.238761	0.609693
C19	C	-0.596423	1.122604	0.596112
C20	C	-0.892542	1.510195	0.641461
C21	C	-0.999763	1.510254	0.641490
C22	C	-0.649046	1.070836	0.648581
C23	C	-0.634970	0.950781	0.634545
C24	C	-1.086838	1.510305	0.641518
C25	C	-1.196079	1.510378	0.641551
C26	C	-0.390358	1.510394	0.641550
C27	C	-0.283150	1.510442	0.641574
C28	C	-0.641861	1.510354	0.893095
C29	C	-0.641828	1.510386	1.000312
C30	C	-0.673956	1.782859	0.673417
C31	C	-0.687600	1.899016	0.687022
C32	C	-0.641951	1.510266	0.390877
C33	C	-0.641736	1.510437	0.283684
C34	C	-0.641766	1.510414	1.196611
C35	C	-0.641803	1.510395	1.087376
H36	H	-0.704517	1.115395	0.703896
H37	H	-0.540946	1.078045	0.540805
N38	N	-0.565367	0.894881	0.565164
N39	N	-0.554027	0.797436	0.553865
H40	H	-0.504870	0.757954	0.504867
H41	H	-0.743073	0.943570	0.742343
