data_functionalizedCrystal
_audit_creation_method	'MofGen! by Chris Wilmer'
_symmetry_space_group_name_H-M	'P1'
_symmetry_Int_Tables_number	1
_symmetry_cell_setting	triclinic
loop_
_symmetry_equiv_pos_as_xyz
  x,y,z
_cell_length_a	17.699077
_cell_length_b	17.699083
_cell_length_c	15.186229
_cell_angle_alpha	90.001174
_cell_angle_beta	90.005045
_cell_angle_gamma	83.281795
loop_
_atom_site_label
_atom_site_type_symbol
_atom_site_fract_x
_atom_site_fract_y
_atom_site_fract_z
O1	O	1.004080	0.095685	0.073219
O2	O	1.504080	0.595685	0.573219
O3	O	0.783701	0.108142	0.073223
O4	O	1.283701	0.608142	0.573223
O5	O	0.900117	-0.008276	0.073213
O6	O	1.400117	0.491724	0.573213
O7	O	0.887665	0.212103	0.073229
O8	O	1.387665	0.712103	0.573229
O9	O	0.900104	-0.008270	-0.073244
O10	O	1.400104	0.491730	0.426756
O11	O	0.783688	0.108148	-0.073234
O12	O	1.283688	0.608148	0.426766
O13	O	1.004067	0.095691	-0.073239
O14	O	1.504067	0.595691	0.426761
Zn15	Zn	0.893875	0.101921	-0.096490
Zn16	Zn	1.393875	0.601921	0.403510
Zn17	Zn	0.893893	0.101912	0.096474
Zn18	Zn	1.393893	0.601912	0.596474
O19	O	0.887651	0.212109	-0.073228
O20	O	1.387651	0.712109	0.426772
C21	C	0.755498	0.107700	-0.000005
C22	C	1.255498	0.607700	0.499995
C23	C	0.671479	0.106363	-0.000003
C24	C	1.171479	0.606363	0.499997
C25	C	0.632004	0.105736	-0.079838
C26	C	1.132004	0.605736	0.420162
C27	C	0.553062	0.104468	-0.079839
C28	C	1.053062	0.604468	0.420161
C29	C	0.513595	0.103832	-0.000005
C30	C	1.013595	0.603832	0.499995
C31	C	0.553076	0.104456	0.079836
C32	C	1.053076	0.604456	0.579836
C33	C	0.632017	0.105719	0.079837
C34	C	1.132017	0.605719	0.579837
C35	C	0.234712	0.099363	0.079838
C36	C	0.734712	0.599363	0.579838
C37	C	0.155765	0.098102	0.079831
C38	C	0.655765	0.598102	0.579831
C39	C	0.155757	0.098112	-0.079838
C40	C	0.655757	0.598112	0.420162
C41	C	0.234699	0.099375	-0.079838
C42	C	0.734699	0.599375	0.420162
C43	C	0.274173	0.099995	0.000002
C44	C	0.774173	0.599995	0.500002
C45	C	0.359772	0.101369	0.000003
C46	C	0.859772	0.601369	0.500003
C47	C	0.427997	0.102464	-0.000004
C48	C	0.927997	0.602464	0.499996
C49	C	0.899664	-0.036470	-0.000016
C50	C	1.399664	0.463530	0.499984
C51	C	0.898326	-0.120488	-0.000016
C52	C	1.398326	0.379512	0.499984
C53	C	0.966659	-0.169110	-0.000019
C54	C	1.466659	0.330890	0.499981
C55	C	0.965397	-0.248054	-0.000011
C56	C	1.465397	0.251946	0.499989
C57	C	0.895800	-0.278373	-0.000007
C58	C	1.395800	0.221627	0.499993
C59	C	0.827461	-0.229744	-0.000001
C60	C	1.327461	0.270256	0.499999
C61	C	0.828724	-0.150803	-0.000003
C62	C	1.328724	0.349197	0.499997
C63	C	0.822366	-0.548107	0.000006
C64	C	1.322366	-0.048107	0.500006
C65	C	0.821108	-0.627055	0.000005
C66	C	1.321108	-0.127055	0.500005
C67	C	0.959039	-0.645358	-0.000002
C68	C	1.459039	-0.145358	0.499998
C69	C	0.960302	-0.566417	-0.000004
C70	C	1.460302	-0.066417	0.499996
C71	C	0.891963	-0.517795	0.000006
C72	C	1.391963	-0.017795	0.500006
C73	C	0.893333	-0.432196	-0.000001
C74	C	1.393333	0.067804	0.499999
C75	C	0.894430	-0.363971	-0.000006
C76	C	1.394430	0.136029	0.499994
C77	C	1.032271	0.096133	-0.000009
C78	C	1.532271	0.596133	0.499991
C79	C	1.116289	0.097470	-0.000004
C80	C	1.616289	0.597470	0.499996
C81	C	0.888104	0.240303	0.000002
C82	C	1.388104	0.740303	0.500002
C83	C	0.889443	0.324321	0.000008
C84	C	1.389443	0.824321	0.500008
N85	N	0.893868	0.101926	-0.228182
N86	N	1.393868	0.601926	0.271818
C87	C	0.939700	0.147760	-0.453903
C88	C	1.439700	0.647760	0.046097
C89	C	0.939708	0.147755	-0.546092
C90	C	1.439708	0.647755	-0.046092
C91	C	0.848073	0.056061	-0.546106
C92	C	1.348073	0.556061	-0.046106
C93	C	0.848069	0.056063	-0.453918
C94	C	1.348069	0.556063	0.046082
C95	C	0.893881	0.101917	-0.407819
C96	C	1.393881	0.601917	0.092181
C97	C	0.893893	0.101910	-0.592197
C98	C	1.393893	0.601910	-0.092197
C99	C	0.893902	0.101904	-0.692153
C100	C	1.393902	0.601904	-0.192153
C101	C	0.893874	0.101923	-0.307856
C102	C	1.393874	0.601923	0.192144
N103	N	0.893906	0.101901	0.228167
N104	N	1.393906	0.601901	0.728167
H105	H	0.520936	0.103932	0.144839
H106	H	1.020936	0.603932	0.644839
H107	H	0.810774	0.018730	-0.583652
H108	H	1.310774	0.518730	-0.083652
N109	N	0.748660	-0.495674	0.000013
N110	N	1.248660	0.004326	0.500013
H111	H	0.760015	-0.441063	0.000018
H112	H	1.260015	0.058937	0.500018
H113	H	0.718334	-0.505482	0.054310
H114	H	1.218334	-0.005482	0.554310
H115	H	0.977003	0.185097	-0.416371
H116	H	1.477003	0.685097	0.083629
N117	N	0.674563	0.106423	-0.165951
N118	N	1.174563	0.606423	0.334049
H119	H	0.713542	0.060048	-0.169515
H120	H	1.213542	0.560048	0.330485
H121	H	0.701041	0.153878	-0.169457
H122	H	1.201041	0.653878	0.330543
H123	H	0.810758	0.018728	-0.416396
H124	H	1.310758	0.518728	0.083604
N125	N	0.510483	0.103790	-0.165945
N126	N	1.010483	0.603790	0.334055
H127	H	0.547530	0.103852	-0.216520
H128	H	1.047530	0.603852	0.283480
H129	H	0.471866	0.150439	-0.169686
H130	H	0.971866	0.650439	0.330314
H131	H	0.977019	0.185084	-0.583610
H132	H	1.477019	0.685084	-0.083610
H133	H	0.266828	0.099897	-0.144848
H134	H	0.766828	0.599897	0.355152
H135	H	0.664157	0.106230	0.144846
H136	H	1.164157	0.606230	0.644846
H137	H	0.123633	0.097583	0.144846
H138	H	0.623633	0.597583	0.644846
N139	N	0.113176	0.097438	-0.165951
N140	N	0.613176	0.597438	0.334049
H141	H	0.085798	0.050537	-0.168991
H142	H	0.585798	0.550537	0.331009
H143	H	0.150331	0.097009	-0.216471
H144	H	0.650331	0.597009	0.283529
N145	N	0.277283	0.100025	0.165947
N146	N	0.777283	0.600025	0.665947
H147	H	0.240300	0.099432	0.216519
H148	H	0.740300	0.599432	0.716519
H149	H	0.303817	0.147447	0.169437
H150	H	0.803817	0.647447	0.669437
H151	H	1.021041	-0.287639	-0.000015
H152	H	1.521041	0.212361	0.499985
N153	N	1.041726	-0.136414	-0.000032
N154	N	1.541726	0.363586	0.499968
H155	H	1.071664	-0.154151	0.054259
H156	H	1.571664	0.345849	0.554259
H157	H	1.032096	-0.079032	-0.000069
H158	H	1.532096	0.420968	0.499931
N159	N	1.035366	-0.533715	-0.000015
N160	N	1.535366	-0.033715	0.499985
H161	H	1.078465	-0.576497	-0.000015
H162	H	1.578465	-0.076497	0.499985
H163	H	1.038898	-0.501358	0.054277
H164	H	1.538898	-0.001358	0.554277
H165	H	0.764431	-0.651737	0.000006
H166	H	1.264431	-0.151737	0.500006
N167	N	1.032750	-0.697800	-0.000013
N168	N	1.532750	-0.197800	0.499987
H169	H	1.021393	-0.752411	-0.000009
H170	H	1.521393	-0.252411	0.499991
H171	H	1.063097	-0.687997	0.054276
H172	H	1.563097	-0.187997	0.554276
N173	N	0.752395	-0.262441	0.000009
N174	N	1.252395	0.237559	0.500009
H175	H	0.761962	-0.319829	0.000006
H176	H	1.261962	0.180171	0.500006
H177	H	0.722494	-0.244644	-0.054283
H178	H	1.222494	0.255356	0.445717
H179	H	0.773080	-0.111214	-0.000001
H180	H	1.273080	0.388786	0.499999
