data_functionalizedCrystal
_audit_creation_method	'MofGen! by Chris Wilmer'
_symmetry_space_group_name_H-M	'P1'
_symmetry_Int_Tables_number	1
_symmetry_cell_setting	triclinic
loop_
_symmetry_equiv_pos_as_xyz
  x,y,z
_cell_length_a	14.519709
_cell_length_b	9.730223
_cell_length_c	10.654550
_cell_angle_alpha	89.995869
_cell_angle_beta	95.917476
_cell_angle_gamma	89.995074
loop_
_atom_site_label
_atom_site_type_symbol
_atom_site_fract_x
_atom_site_fract_y
_atom_site_fract_z
O1	O	1.224716	0.114107	-0.164625
O2	O	0.956339	0.114149	-0.184011
O3	O	1.096698	0.114122	0.008481
O4	O	1.084357	0.114134	-0.357117
O5	O	1.096696	-0.114458	0.008490
O6	O	0.956338	-0.114431	-0.184002
O7	O	1.224714	-0.114473	-0.164615
Zn8	Zn	1.090526	-0.150744	-0.174307
Zn9	Zn	1.090528	0.150420	-0.174320
O10	O	1.084355	-0.114446	-0.357107
C11	C	0.921974	-0.000136	-0.183103
C12	C	0.819579	-0.000120	-0.180396
N13	N	1.090531	-0.356280	-0.174298
C14	C	1.095791	-0.000166	0.055275
C15	C	1.093080	-0.000161	0.194692
C16	C	0.444631	-0.000183	-0.170428
C17	C	0.548954	-0.000165	-0.173196
C18	C	0.632102	-0.000150	-0.175412
C19	C	0.736431	-0.000135	-0.178180
C20	C	1.259079	-0.000185	-0.165524
C21	C	1.361475	-0.000192	-0.168231
N22	N	1.090530	0.355956	-0.174319
C23	C	1.152798	0.427871	-0.089249
C24	C	1.152801	0.571754	-0.089241
C25	C	1.028260	0.571795	-0.259377
C26	C	1.028262	0.427915	-0.259390
C27	C	1.224698	0.427848	0.008982
C28	C	1.224700	0.571731	0.008990
C29	C	1.085262	-0.000155	-0.403901
C30	C	1.087973	-0.000151	-0.543318
C31	C	1.175721	-0.000178	0.274972
C32	C	1.173168	-0.000168	0.405968
C33	C	1.005326	-0.000130	0.376391
C34	C	1.007880	-0.000130	0.245397
C35	C	1.272623	-0.000206	0.292049
C36	C	1.270070	-0.000196	0.423046
H37	H	0.977567	0.369364	-0.328671
H38	H	0.935959	-0.000103	0.417692
F39	F	1.308348	0.128795	0.483074
H40	H	0.940586	-0.000097	0.180037
F41	F	1.322164	0.124810	0.254141
H42	H	0.977564	0.630400	-0.328640
H43	H	1.291611	0.616354	-0.021115
F44	F	1.204295	0.622757	0.135048
H45	H	1.202414	0.383204	0.100047
F46	F	1.317275	0.376803	-0.018485
F47	F	1.312942	-0.129221	0.245867
F48	F	1.317789	-0.125233	0.478099
