data_functionalizedCrystal
_audit_creation_method	'MofGen! by Chris Wilmer'
_symmetry_space_group_name_H-M	'P1'
_symmetry_Int_Tables_number	1
_symmetry_cell_setting	triclinic
loop_
_symmetry_equiv_pos_as_xyz
  x,y,z
_cell_length_a	6.394989
_cell_length_b	10.723024
_cell_length_c	9.798715
_cell_angle_alpha	90.003391
_cell_angle_beta	90.000171
_cell_angle_gamma	85.482790
loop_
_atom_site_label
_atom_site_type_symbol
_atom_site_fract_x
_atom_site_fract_y
_atom_site_fract_z
O1	O	-0.293022	-1.660297	-0.113473
O2	O	-0.321070	-1.297442	-0.113476
O3	O	-0.003055	-1.484020	-0.113475
O4	O	-0.611036	-1.473719	-0.113474
O5	O	-0.003054	-1.484006	0.113507
O6	O	-0.321069	-1.297428	0.113506
O7	O	-0.293021	-1.660283	0.113510
Zn8	Zn	-0.307045	-1.478853	0.149546
Zn9	Zn	-0.307046	-1.478872	-0.149513
O10	O	-0.611035	-1.473705	0.113509
C11	C	-0.319028	-1.250914	0.000014
C12	C	-0.312921	-1.112295	0.000012
C13	C	-0.295062	-1.706811	0.000016
C14	C	-0.301169	-1.845430	0.000009
N15	N	-0.307043	-1.478850	0.353646
C16	C	0.074796	-1.481977	0.000011
C17	C	0.311120	-1.475752	0.000009
N18	N	-0.307031	-1.478885	-0.353612
C19	C	-0.490865	-1.039201	0.000012
C20	C	-0.484558	-0.895931	0.000010
C21	C	-0.172929	-1.557182	0.421423
C22	C	-0.172922	-1.557202	0.578586
H23	H	-0.647879	-1.082689	0.000020
H24	H	-0.148827	-0.908239	0.000001
O25	O	-0.035941	-1.637029	0.351675
C26	C	0.093546	-1.567899	0.269019
H27	H	0.011442	-1.471612	0.247804
H28	H	0.248146	-1.556850	0.323954
C29	C	0.237902	-1.755640	0.159238
C30	C	0.137052	-1.637382	0.133171
H31	H	0.264749	-1.798501	0.075443
H32	H	0.150671	-1.802215	0.214927
H33	H	0.366724	-1.746416	0.205020
H34	H	0.008222	-1.646608	0.087405
H35	H	0.224263	-1.590809	0.077471
O36	O	-0.035644	-1.637153	0.647962
C37	C	0.171377	-1.613267	0.613176
H38	H	0.171775	-1.565229	0.509403
H39	H	0.236504	-1.549943	0.693577
C40	C	0.308514	-1.796607	0.734202
C41	C	0.309005	-1.737616	0.606741
H42	H	0.393414	-1.873310	0.730238
H43	H	0.169041	-1.812698	0.757643
H44	H	0.362782	-1.743824	0.801190
H45	H	0.254714	-1.790392	0.539759
H46	H	0.448473	-1.721537	0.583289
O47	O	-0.444116	-1.399045	0.576723
C48	C	-0.573602	-1.468201	0.494086
H49	H	-0.491422	-1.564456	0.472798
H50	H	-0.728132	-1.479324	0.549074
C51	C	-0.718247	-1.280471	0.384441
C52	C	-0.617304	-1.398689	0.358285
H53	H	-0.745213	-1.237592	0.300674
H54	H	-0.631016	-1.233878	0.440118
H55	H	-0.847010	-1.289756	0.430267
H56	H	-0.488531	-1.389402	0.312475
H57	H	-0.704514	-1.445279	0.302596
O58	O	-0.443812	-1.398679	0.423154
C59	C	-0.408633	-1.274480	0.388336
H60	H	-0.241465	-1.270928	0.348962
H61	H	-0.524141	-1.239744	0.305513
C62	C	-0.645309	-1.194896	0.563730
C63	C	-0.439984	-1.190532	0.515381
H64	H	-0.664657	-1.143110	0.642094
H65	H	-0.669017	-1.278571	0.587185
H66	H	-0.741542	-1.165951	0.494699
H67	H	-0.343757	-1.219491	0.584405
H68	H	-0.416261	-1.106859	0.491940
H69	H	-0.155907	-1.068806	-0.000023
H70	H	-0.636892	-0.833115	0.000004
