data_functionalizedCrystal
_audit_creation_method	'MofGen! by Chris Wilmer'
_symmetry_space_group_name_H-M	'P1'
_symmetry_Int_Tables_number	1
_symmetry_cell_setting	triclinic
loop_
_symmetry_equiv_pos_as_xyz
  x,y,z
_cell_length_a	10.489741
_cell_length_b	15.995350
_cell_length_c	9.565339
_cell_angle_alpha	90.002462
_cell_angle_beta	90.000900
_cell_angle_gamma	95.984226
loop_
_atom_site_label
_atom_site_type_symbol
_atom_site_fract_x
_atom_site_fract_y
_atom_site_fract_z
O1	O	1.692400	-0.118125	0.116166
O2	O	1.321049	-0.129213	0.116187
O3	O	1.516876	-0.001843	0.116175
O4	O	1.496573	-0.245496	0.116178
O5	O	1.516860	-0.001851	-0.116346
O6	O	1.321034	-0.129221	-0.116333
O7	O	1.692385	-0.118133	-0.116354
Zn8	Zn	1.506707	-0.123678	-0.153261
Zn9	Zn	1.506727	-0.123668	0.153094
O10	O	1.496558	-0.245504	-0.116342
C11	C	1.273521	-0.128380	-0.000070
C12	C	1.131927	-0.125874	-0.000062
N13	N	1.506702	-0.123685	-0.362341
C14	C	1.516029	0.029353	-0.000083
C15	C	1.513512	0.122319	-0.000075
C16	C	1.064921	-0.044832	-0.000076
C17	C	0.972266	-0.083112	0.114566
C18	C	0.972285	-0.083139	-0.114681
C19	C	1.041137	-0.164187	0.114675
C20	C	1.041165	-0.164203	-0.114675
C21	C	0.948537	-0.202542	-0.000005
C22	C	1.739912	-0.118966	-0.000094
C23	C	1.881507	-0.121472	-0.000093
C24	C	1.497405	-0.276699	-0.000081
C25	C	1.499921	-0.369665	-0.000080
C26	C	1.504476	0.460121	-0.000079
C27	C	1.365012	0.413528	0.000451
C28	C	1.367528	0.316822	-0.000074
C29	C	1.508958	0.292533	-0.000076
C30	C	1.577738	0.333191	-0.132858
C31	C	1.574234	0.429848	-0.132969
C32	C	1.577133	0.430198	0.131450
C33	C	1.577100	0.333253	0.133205
C34	C	1.511499	0.197820	-0.000079
C35	C	1.501939	0.554834	-0.000085
C36	C	1.416111	-0.182570	-0.453538
C37	C	1.531371	-0.199512	-0.546723
C38	C	1.391492	-0.106750	-0.546711
C39	C	1.622020	-0.140665	-0.453474
C40	C	1.482065	-0.047870	-0.453453
C41	C	1.597408	-0.064780	-0.546597
N42	N	1.506742	-0.123655	0.362173
H43	H	0.941738	-0.048818	0.211488
H44	H	1.719489	-0.155053	-0.412691
N45	N	1.507769	0.454485	-0.264434
H46	H	1.429433	0.482890	-0.238699
H47	H	1.568409	0.494460	-0.320861
N48	N	1.516746	0.457772	0.264760
H49	H	1.485946	0.406743	0.322442
H50	H	1.582210	0.495118	0.319801
H51	H	1.071492	-0.198448	0.211705
N52	N	1.314725	-0.248592	-0.399420
H53	H	1.356318	-0.290275	-0.339864
H54	H	1.250668	-0.220781	-0.341373
H55	H	1.552237	-0.263614	-0.587691
N56	N	1.510597	0.297489	0.263328
H57	H	1.554853	0.323912	0.348703
H58	H	1.418169	0.309938	0.262361
N59	N	1.699007	0.001204	-0.600394
H60	H	1.785961	-0.011688	-0.566295
H61	H	1.697859	0.001154	-0.705972
H62	H	1.461163	0.016212	-0.412453
H63	H	1.071725	-0.198469	-0.211602
N64	N	0.881820	-0.290878	0.000069
H65	H	0.906832	-0.321366	0.086704
H66	H	0.785960	-0.288634	-0.000810
H67	H	1.294044	-0.092439	-0.587669
N68	N	0.931870	-0.037709	-0.243065
H69	H	0.974645	0.021860	-0.242956
H70	H	0.958156	-0.067787	-0.329584
H71	H	1.115543	0.021790	0.000066
N72	N	1.295911	0.279601	0.126000
H73	H	1.262418	0.326012	0.182417
H74	H	1.221740	0.238691	0.094179
H75	H	1.309275	0.432399	0.095671
H76	H	1.309510	0.433453	-0.094234
N77	N	1.295424	0.280333	-0.126363
H78	H	1.261885	0.327080	-0.181914
H79	H	1.354949	0.250123	-0.186759
H80	H	1.676626	0.461479	-0.138995
H81	H	1.681642	0.318439	-0.137797
N82	N	1.514468	0.295969	-0.263751
H83	H	1.441265	0.252781	-0.237341
H84	H	1.480608	0.342033	-0.320666
H85	H	1.679959	0.461339	0.132341
N86	N	1.713720	0.312088	0.143833
H87	H	1.733468	0.275644	0.062033
H88	H	1.773883	0.365664	0.142692
