data_functionalizedCrystal
_audit_creation_method	'MofGen! by Chris Wilmer'
_symmetry_space_group_name_H-M	'P1'
_symmetry_Int_Tables_number	1
_symmetry_cell_setting	triclinic
loop_
_symmetry_equiv_pos_as_xyz
  x,y,z
_cell_length_a	16.120530
_cell_length_b	15.297327
_cell_length_c	15.296720
_cell_angle_alpha	107.319222
_cell_angle_beta	97.285319
_cell_angle_gamma	97.322224
loop_
_atom_site_label
_atom_site_type_symbol
_atom_site_fract_x
_atom_site_fract_y
_atom_site_fract_z
Zn1	Zn	1.083362	-0.533176	-0.661647
Zn2	Zn	1.083269	-0.661792	-0.533035
Zn3	Zn	0.975419	-0.499135	-0.499009
Zn4	Zn	0.918250	-0.677674	-0.677540
O5	O	1.015075	-0.592944	-0.592808
O6	O	1.197586	-0.557837	-0.652175
O7	O	1.092850	-0.619322	-0.399981
O8	O	1.013702	-0.375105	-0.499692
O9	O	1.197517	-0.652330	-0.557684
O10	O	1.093008	-0.400115	-0.619181
O11	O	1.013612	-0.499819	-0.374982
O12	O	0.853600	-0.515219	-0.515103
O13	O	0.916266	-0.679399	-0.803973
O14	O	0.811598	-0.646391	-0.646270
O15	O	1.037573	-0.573237	-0.792296
O16	O	1.037415	-0.792444	-0.573095
O17	O	0.916176	-0.804113	-0.679263
C18	C	0.802979	-0.578836	-0.578720
C19	C	0.712235	-0.572825	-0.572718
C20	C	0.970600	-0.831613	-0.631618
C21	C	0.951643	-0.933727	-0.648256
C22	C	1.150846	-1.197179	-0.474225
C23	C	1.168658	-1.101237	-0.458587
C24	C	1.114406	-1.059355	-0.506003
C25	C	1.042339	-1.113424	-0.569059
C26	C	1.024521	-1.209373	-0.584693
C27	C	0.988081	-1.071550	-0.616471
C28	C	0.916013	-1.125618	-0.679527
C29	C	0.898200	-1.221558	-0.695158
C30	C	0.952452	-1.263441	-0.647742
C31	C	1.005899	-0.975600	-0.600838
C32	C	0.879573	-0.987794	-0.711306
C33	C	0.861761	-1.083736	-0.726943
C34	C	0.546085	-0.561832	-0.561765
C35	C	0.484881	-0.624135	-0.623929
C36	C	0.392429	-0.618018	-0.617835
C37	C	0.638546	-0.567948	-0.567858
C38	C	1.228000	-0.607109	-0.606952
C39	C	1.318735	-0.613145	-0.612979
C40	C	0.970553	-0.631887	-0.832395
C41	C	0.951580	-0.648482	-0.934493
C42	C	1.059742	-0.353348	-0.553868
C43	C	1.078777	-0.251246	-0.537275
C44	C	1.150737	-0.474177	-1.197974
C45	C	1.168568	-0.458587	-1.102048
C46	C	1.114322	-0.506059	-1.060155
C47	C	1.042243	-0.569125	-1.114196
C48	C	1.024414	-0.584722	-1.210132
C49	C	0.988000	-0.616604	-1.072313
C50	C	0.915921	-0.679670	-1.126355
C51	C	0.898095	-0.695263	-1.222281
C52	C	0.952340	-0.647791	-1.264174
C53	C	1.005829	-0.601007	-0.976377
C54	C	0.879506	-0.711552	-0.988536
C55	C	0.861675	-0.727142	-1.084461
C56	C	1.059484	-0.554090	-0.354145
C57	C	1.078663	-0.537246	-0.252016
H58	H	1.128913	-0.981235	-0.493267
O59	O	0.783934	-0.795158	-1.142755
H60	H	0.787904	-0.865194	-1.136990
H61	H	1.064576	-0.931585	-0.549497
H62	H	0.529050	-0.503905	-0.503972
O63	O	1.083565	-0.532991	-0.918092
H64	H	1.079583	-0.462956	-0.923854
H65	H	1.128845	-0.493362	-0.982047
O66	O	1.246307	-0.390575	-1.043764
H67	H	1.242329	-0.320538	-1.049522
H68	H	1.194900	-0.435538	-1.232094
O69	O	0.507441	-0.700879	-0.700485
H70	H	0.480662	-0.695901	-0.769009
H71	H	0.937826	-0.660481	-1.342284
O72	O	0.820354	-0.763281	-1.280573
H73	H	0.785622	-0.793665	-1.235328
O74	O	0.820986	-0.762756	-0.943364
H75	H	0.845486	-0.741307	-0.867577
H76	H	1.227335	-1.057218	-0.407247
H77	H	0.839510	-1.265577	-0.746491
O78	O	0.784024	-1.142059	-0.794936
H79	H	0.803729	-1.195755	-0.851235
O80	O	1.209359	-1.242370	-0.423116
H81	H	1.173421	-1.276123	-0.381066
O82	O	0.933237	-1.366922	-0.664596
H83	H	0.986654	-1.399272	-0.691408
O84	O	0.821053	-0.942637	-0.762459
H85	H	0.845554	-0.866839	-0.741004
