data_functionalizedCrystal
_audit_creation_method	'MofGen! by Chris Wilmer'
_symmetry_space_group_name_H-M	'P1'
_symmetry_Int_Tables_number	1
_symmetry_cell_setting	triclinic
loop_
_symmetry_equiv_pos_as_xyz
  x,y,z
_cell_length_a	14.908520
_cell_length_b	14.908618
_cell_length_c	18.215399
_cell_angle_alpha	93.313798
_cell_angle_beta	93.269364
_cell_angle_gamma	89.795563
loop_
_atom_site_label
_atom_site_type_symbol
_atom_site_fract_x
_atom_site_fract_y
_atom_site_fract_z
Zn1	Zn	-0.437459	-1.353960	-0.500345
Zn2	Zn	-0.587820	-1.345177	-0.383942
Zn3	Zn	-0.428793	-1.203595	-0.369817
Zn4	Zn	-0.579079	-1.194888	-0.499491
O5	O	-0.508288	-1.274405	-0.438399
O6	O	-0.464690	-1.478619	-0.491173
O7	O	-0.566756	-1.326365	-0.279084
O8	O	-0.304121	-1.230861	-0.381578
O9	O	-0.575160	-1.472167	-0.405652
O10	O	-0.310488	-1.341333	-0.477477
O11	O	-0.449920	-1.222345	-0.268706
O12	O	-0.441443	-1.076616	-0.380750
O13	O	-0.560261	-1.216020	-0.602589
O14	O	-0.551858	-1.070218	-0.476021
O15	O	-0.456214	-1.332890	-0.603216
O16	O	-0.712482	-1.317921	-0.404824
O17	O	-0.706060	-1.207504	-0.489717
C18	C	-0.494762	-1.040792	-0.426760
C19	C	-0.488998	-0.940850	-0.421800
C20	C	-0.741897	-1.260839	-0.448728
C21	C	-0.841840	-1.255118	-0.453175
C22	C	-0.593318	-0.746425	-0.511565
C23	C	-0.587905	-0.652521	-0.506907
C24	C	-0.472753	-0.659135	-0.407829
C25	C	-0.478167	-0.753040	-0.412487
C26	C	-0.538452	-0.796681	-0.464356
C27	C	-0.543870	-0.890587	-0.469010
C28	C	-0.428714	-0.897200	-0.369936
C29	C	-0.423301	-0.803296	-0.365278
C30	C	-1.036279	-1.359462	-0.373215
C31	C	-1.130185	-1.354090	-0.377391
C32	C	-1.123561	-1.239005	-0.465708
C33	C	-1.029655	-1.244378	-0.461532
C34	C	-0.986017	-1.304607	-0.415283
C35	C	-0.892109	-1.309975	-0.411103
C36	C	-0.885487	-1.194895	-0.499423
C37	C	-0.979393	-1.189523	-0.503600
C38	C	-0.273768	-1.288048	-0.428047
C39	C	-0.173829	-1.293862	-0.423636
C40	C	-0.508229	-1.274463	-0.630352
C41	C	-0.508204	-1.274488	-0.712151
C42	C	-0.521860	-0.508930	-0.450078
C43	C	-0.527625	-0.608872	-0.455040
C44	C	-0.453974	-1.335366	-0.900671
C45	C	-0.453948	-1.335378	-0.977530
C46	C	-0.562298	-1.213682	-0.976865
C47	C	-0.562319	-1.213666	-0.900008
C48	C	-0.508158	-1.274513	-0.861913
C49	C	-0.508112	-1.274541	-1.015629
C50	C	-0.508085	-1.274554	-1.098962
C51	C	-0.508184	-1.274500	-0.778575
C52	C	-0.508284	-1.274402	-0.247192
C53	C	-0.508066	-1.274566	-0.165391
H54	H	-0.592959	-0.926118	-0.511244
H55	H	-0.844553	-1.150226	-0.533675
H56	H	-0.856580	-1.359014	-0.373442
H57	H	-1.000748	-1.408498	-0.335551
H58	H	-1.171105	-1.398760	-0.343137
H59	H	-0.409825	-1.384929	-1.009083
C60	C	-0.659630	-0.794433	-0.568614
H61	H	-0.691530	-0.751052	-0.596066
H62	H	-0.700872	-0.828784	-0.543957
H63	H	-0.627392	-0.833072	-0.601028
C64	C	-0.621930	-1.146731	-0.857372
H65	H	-0.654194	-1.110504	-0.891067
H66	H	-0.585280	-1.109547	-0.823916
H67	H	-0.663106	-1.178853	-0.830837
H68	H	-0.374216	-0.767750	-0.323050
H69	H	-0.384040	-0.938129	-0.331494
C70	C	-1.027400	-1.123272	-0.554466
H71	H	-1.090525	-1.127923	-0.550925
H72	H	-1.012719	-1.137268	-0.603890
H73	H	-1.008578	-1.063742	-0.539950
H74	H	-0.632580	-0.611605	-0.545351
H75	H	-1.159108	-1.189975	-0.503367
H76	H	-0.409870	-1.384909	-0.869657
C77	C	-0.406438	-0.611124	-0.350783
H78	H	-0.374529	-0.654502	-0.323336
H79	H	-0.438667	-0.572476	-0.318376
H80	H	-0.365192	-0.576783	-0.375451
H81	H	-0.606396	-1.164145	-1.007891
