data_functionalizedCrystal
_audit_creation_method	'MofGen! by Chris Wilmer'
_symmetry_space_group_name_H-M	'P1'
_symmetry_Int_Tables_number	1
_symmetry_cell_setting	triclinic
loop_
_symmetry_equiv_pos_as_xyz
  x,y,z
_cell_length_a	12.645330
_cell_length_b	16.625548
_cell_length_c	16.625539
_cell_angle_alpha	90.022345
_cell_angle_beta	89.975749
_cell_angle_gamma	89.982449
loop_
_atom_site_label
_atom_site_type_symbol
_atom_site_fract_x
_atom_site_fract_y
_atom_site_fract_z
Zn1	Zn	-0.422041	-1.232707	-0.455970
Zn2	Zn	-0.088708	-0.899374	-0.122637
Zn3	Zn	0.244625	-0.566041	0.210696
Zn4	Zn	-0.599327	-1.232622	-0.321147
Zn5	Zn	-0.265994	-0.899288	0.012186
Zn6	Zn	0.067339	-0.565955	0.345520
Zn7	Zn	-0.422078	-1.097869	-0.321147
Zn8	Zn	-0.088745	-0.764536	0.012187
Zn9	Zn	0.244589	-0.431202	0.345520
Zn10	Zn	-0.599263	-1.097851	-0.455933
Zn11	Zn	-0.265930	-0.764517	-0.122599
Zn12	Zn	0.067404	-0.431184	0.210734
O13	O	-0.510677	-1.165262	-0.388549
O14	O	-0.177344	-0.831929	-0.055216
O15	O	0.155989	-0.498596	0.278117
O16	O	-0.445570	-1.345528	-0.438102
O17	O	-0.112237	-1.012195	-0.104768
O18	O	0.221096	-0.678862	0.228565
O19	O	-0.575857	-1.214718	-0.208315
O20	O	-0.242524	-0.881385	0.125019
O21	O	0.090809	-0.548052	0.458352
O22	O	-0.273726	-1.115799	-0.339047
O23	O	0.059607	-0.782466	-0.005713
O24	O	0.392941	-0.449132	0.327620
O25	O	-0.575822	-1.345465	-0.339048
O26	O	-0.242488	-1.012132	-0.005714
O27	O	0.090845	-0.678799	0.327619
O28	O	-0.273699	-1.214864	-0.438101
O29	O	0.059634	-0.881531	-0.104768
O30	O	0.392968	-0.548197	0.228565
O31	O	-0.445633	-1.115716	-0.208314
O32	O	-0.112300	-0.782383	0.125019
O33	O	0.221034	-0.449049	0.458352
O34	O	-0.445570	-0.985034	-0.339010
O35	O	-0.112237	-0.651701	-0.005677
O36	O	0.221096	-0.318368	0.327656
O37	O	-0.575712	-1.115768	-0.568770
O38	O	-0.242378	-0.782435	-0.235437
O39	O	0.090955	-0.449101	0.097897
O40	O	-0.575747	-0.985021	-0.438037
O41	O	-0.242414	-0.651687	-0.104704
O42	O	0.090919	-0.318354	0.228629
O43	O	-0.445508	-1.214846	-0.568798
O44	O	-0.112175	-0.881513	-0.235464
O45	O	0.221159	-0.548180	0.097869
O46	O	-0.747666	-1.214701	-0.339011
O47	O	-0.414333	-0.881367	-0.005678
O48	O	-0.080999	-0.548034	0.327656
O49	O	-0.747619	-1.115685	-0.438038
O50	O	-0.414285	-0.782352	-0.104704
O51	O	-0.080952	-0.449018	0.228629
C52	C	-0.510656	-0.955771	-0.388520
C53	C	-0.177323	-0.622438	-0.055187
C54	C	0.156010	-0.289105	0.278147
C55	C	-0.510673	-0.866150	-0.388527
C56	C	-0.177340	-0.532817	-0.055194
C57	C	0.155994	-0.199484	0.278140
C58	C	-0.510671	-0.537975	-0.388551
C59	C	-0.177338	-0.204641	-0.055218
C60	C	0.155996	0.128692	0.278116
C61	C	-0.510669	-0.629283	-0.388542
C62	C	-0.177335	-0.295950	-0.055208
C63	C	0.155998	0.037384	0.278125
C64	C	-0.510673	-0.702059	-0.388538
C65	C	-0.177339	-0.368726	-0.055205
C66	C	0.155994	-0.035393	0.278128
C67	C	-0.510669	-0.793374	-0.388530
C68	C	-0.177336	-0.460040	-0.055197
C69	C	0.155998	-0.126707	0.278136
C70	C	-0.786107	-1.165203	-0.388538
C71	C	-0.452774	-0.831870	-0.055205
C72	C	-0.119441	-0.498537	0.278129
C73	C	-0.903937	-1.165252	-0.388560
C74	C	-0.570604	-0.831919	-0.055227
C75	C	-0.237271	-0.498585	0.278107
C76	C	-1.071515	-1.103218	-0.451050
C77	C	-0.738182	-0.769885	-0.117716
C78	C	-0.404849	-0.436551	0.215617
C79	C	-0.948956	-1.102901	-0.450849
C80	C	-0.615623	-0.769567	-0.117515
C81	C	-0.282289	-0.436234	0.215818
C82	C	-0.948530	-1.142250	-0.303584
C83	C	-0.615197	-0.808917	0.029749
C84	C	-0.281863	-0.475584	0.363083
C85	C	-1.071128	-1.141872	-0.303963
C86	C	-0.737795	-0.808538	0.029370
C87	C	-0.404462	-0.475205	0.362703
C88	C	-1.071027	-1.250667	-0.410357
C89	C	-0.737694	-0.917334	-0.077024
C90	C	-0.404360	-0.584000	0.256309
C91	C	-0.948420	-1.250144	-0.412215
C92	C	-0.615087	-0.916810	-0.078882
C93	C	-0.281754	-0.583477	0.254451
C94	C	-0.234172	-1.165343	-0.388578
C95	C	0.099161	-0.832010	-0.055245
C96	C	0.432494	-0.498677	0.278089
C97	C	-0.116342	-1.165378	-0.388590
C98	C	0.216991	-0.832044	-0.055257
C99	C	0.550325	-0.498711	0.278076
C100	C	-0.510598	-1.165315	-0.598858
C101	C	-0.177265	-0.831981	-0.265525
C102	C	0.156068	-0.498648	0.067808
C103	C	-0.510565	-1.165337	-0.688479
C104	C	-0.177231	-0.832004	-0.355146
C105	C	0.156102	-0.498670	-0.021813
C106	C	-0.510692	-0.375571	-0.388571
C107	C	-0.177359	-0.042238	-0.055238
C108	C	0.155974	0.291096	0.278096
C109	C	-0.510681	-0.465192	-0.388560
C110	C	-0.177347	-0.131859	-0.055227
C111	C	0.155986	0.201475	0.278106
C112	C	-0.510446	-1.165374	-1.016655
C113	C	-0.177113	-0.832041	-0.683322
C114	C	0.156221	-0.498707	-0.349989
C115	C	-0.510483	-1.165362	-0.925347
C116	C	-0.177149	-0.832028	-0.592013
C117	C	0.156184	-0.498695	-0.258680
C118	C	-0.510506	-1.165356	-0.852570
C119	C	-0.177173	-0.832023	-0.519237
C120	C	0.156160	-0.498689	-0.185903
C121	C	-0.510541	-1.165343	-0.761256
C122	C	-0.177208	-0.832009	-0.427923
C123	C	0.156126	-0.498676	-0.094589
C124	C	-0.510680	-1.165256	-0.179058
C125	C	-0.177346	-0.831923	0.154275
C126	C	0.155987	-0.498590	0.487608
C127	C	-0.510415	-1.165390	-0.089438
C128	C	-0.177081	-0.832057	0.243896
C129	C	0.156252	-0.498724	0.577229
H130	H	-0.918803	-1.117292	-0.513858
H131	H	-0.585470	-0.783958	-0.180524
H132	H	-0.252136	-0.450625	0.152809
H133	H	-0.917769	-1.298894	-0.370036
H134	H	-0.584436	-0.965561	-0.036703
H135	H	-0.251103	-0.632228	0.296630
H136	H	-1.100015	-1.296977	-0.364866
H137	H	-0.766681	-0.963644	-0.031532
H138	H	-0.433348	-0.630311	0.301801
H139	H	-1.102416	-1.040384	-0.436813
H140	H	-0.769082	-0.707050	-0.103480
H141	H	-0.435749	-0.373717	0.229854
Cl142	Cl	-1.116930	-1.125226	-0.548653
Cl143	Cl	-0.783597	-0.791893	-0.215320
Cl144	Cl	-0.450264	-0.458560	0.118013
Cl145	Cl	-0.903514	-1.209931	-0.229767
Cl146	Cl	-0.570181	-0.876598	0.103566
Cl147	Cl	-0.236848	-0.543265	0.436900
H148	H	-0.919721	-1.039671	-0.436428
H149	H	-0.586388	-0.706338	-0.103095
H150	H	-0.253054	-0.373005	0.230239
Cl151	Cl	-1.115430	-1.045613	-0.275496
Cl152	Cl	-0.782097	-0.712280	0.057837
Cl153	Cl	-0.448763	-0.378946	0.391170
Cl154	Cl	-0.901278	-1.046992	-0.274600
Cl155	Cl	-0.567944	-0.713659	0.058733
Cl156	Cl	-0.234611	-0.380326	0.392067
H157	H	-1.100785	-1.185181	-0.255839
H158	H	-0.767452	-0.851848	0.077494
H159	H	-0.434118	-0.518515	0.410827
H160	H	-1.101872	-1.271650	-0.471269
H161	H	-0.768539	-0.938316	-0.137935
H162	H	-0.435205	-0.604983	0.195398
H163	H	-0.919271	-1.267490	-0.474753
H164	H	-0.585937	-0.934157	-0.141420
H165	H	-0.252604	-0.600823	0.191914
