data_functionalizedCrystal
_audit_creation_method	'MofGen! by Chris Wilmer'
_symmetry_space_group_name_H-M	'P1'
_symmetry_Int_Tables_number	1
_symmetry_cell_setting	triclinic
loop_
_symmetry_equiv_pos_as_xyz
  x,y,z
_cell_length_a	19.188930
_cell_length_b	18.266242
_cell_length_c	19.188930
_cell_angle_alpha	89.988525
_cell_angle_beta	96.855221
_cell_angle_gamma	90.022918
loop_
_atom_site_label
_atom_site_type_symbol
_atom_site_fract_x
_atom_site_fract_y
_atom_site_fract_z
O1	O	0.926149	0.061124	-0.087169
O2	O	1.259483	0.394458	0.246165
O3	O	1.592816	0.727791	0.579498
O4	O	0.722838	0.061075	-0.098903
O5	O	1.056171	0.394409	0.234430
O6	O	1.389505	0.727742	0.567764
O7	O	0.830361	0.061087	0.008620
O8	O	1.163694	0.394420	0.341953
O9	O	1.497027	0.727754	0.675286
O10	O	0.818627	0.061113	-0.194691
O11	O	1.151960	0.394446	0.138642
O12	O	1.485293	0.727779	0.471975
O13	O	0.830343	-0.060675	0.008625
O14	O	1.163676	0.272658	0.341959
O15	O	1.497009	0.605992	0.675292
O16	O	0.722820	-0.060687	-0.098897
O17	O	1.056153	0.272647	0.234436
O18	O	1.389486	0.605980	0.567769
O19	O	0.926131	-0.060638	-0.087163
O20	O	1.259464	0.272696	0.246170
O21	O	1.592798	0.606029	0.579503
Zn22	Zn	0.824473	-0.079994	-0.093029
Zn23	Zn	1.157806	0.253339	0.240304
Zn24	Zn	1.491139	0.586672	0.573637
Zn25	Zn	0.824497	0.080432	-0.093037
Zn26	Zn	1.157830	0.413766	0.240297
Zn27	Zn	1.491163	0.747099	0.573630
O28	O	0.818608	-0.060649	-0.194686
O29	O	1.151942	0.272684	0.138647
O30	O	1.485275	0.606017	0.471981
C31	C	0.696818	0.000188	-0.098520
C32	C	1.030151	0.333521	0.234813
C33	C	1.363485	0.666855	0.568146
C34	C	0.619313	0.000169	-0.097380
C35	C	0.952647	0.333502	0.235954
C36	C	1.285980	0.666835	0.569287
N37	N	0.824461	-0.189481	-0.093024
N38	N	1.157795	0.143852	0.240309
N39	N	1.491128	0.477185	0.573643
C40	C	0.574389	0.000188	-0.160470
C41	C	0.907723	0.333521	0.172863
C42	C	1.241056	0.666855	0.506196
C43	C	0.501566	0.000196	-0.159399
C44	C	0.834899	0.333529	0.173935
C45	C	1.168232	0.666863	0.507268
C46	C	0.473669	0.000199	-0.095233
C47	C	0.807002	0.333532	0.238101
C48	C	1.140336	0.666866	0.571434
C49	C	0.518603	0.000175	-0.032133
C50	C	0.851936	0.333509	0.301200
C51	C	1.185270	0.666842	0.634533
C52	C	0.591425	0.000160	-0.033207
C53	C	0.924758	0.333494	0.300126
C54	C	1.258092	0.666827	0.633460
N55	N	0.365695	0.041663	-0.046188
N56	N	0.699028	0.374997	0.287146
N57	N	1.032362	0.708330	0.620479
N58	N	0.296516	0.041679	-0.045172
N59	N	0.629850	0.375013	0.288161
N60	N	0.963183	0.708346	0.621495
C61	C	0.254260	0.000243	-0.091994
C62	C	0.587594	0.333577	0.241339
C63	C	0.920927	0.666910	0.574672
N64	N	0.283795	-0.041200	-0.139881
N65	N	0.617128	0.292133	0.193452
N66	N	0.950462	0.625467	0.526785
N67	N	0.352980	-0.041213	-0.140899
N68	N	0.686313	0.292121	0.192434
N69	N	1.019646	0.625454	0.525768
C70	C	0.394707	0.000215	-0.094062
C71	C	0.728040	0.333548	0.239272
C72	C	1.061373	0.666882	0.572605
C73	C	0.130372	0.000270	-0.153928
C74	C	0.463705	0.333604	0.179406
C75	C	0.797039	0.666937	0.512739
C76	C	0.057547	0.000274	-0.152853
C77	C	0.390881	0.333607	0.180480
C78	C	0.724214	0.666940	0.513813
C79	C	0.074586	0.000261	-0.025586
C80	C	0.407919	0.333594	0.307747
C81	C	0.741253	0.666927	0.641080
C82	C	0.147409	0.000250	-0.026662
C83	C	0.480743	0.333583	0.306671
C84	C	0.814076	0.666917	0.640004
C85	C	0.175298	0.000258	-0.090835
C86	C	0.508631	0.333592	0.242498
C87	C	0.841964	0.666925	0.575832
C88	C	0.872088	-0.227785	-0.045436
C89	C	1.205421	0.105548	0.287897
C90	C	1.538755	0.438882	0.621230
C91	C	0.872092	-0.304430	-0.045433
C92	C	1.205426	0.028903	0.287900
C93	C	1.538759	0.362237	0.621234
C94	C	0.824477	-0.342768	-0.093030
C95	C	1.157810	-0.009435	0.240304
C96	C	1.491144	0.323898	0.573637
C97	C	0.776841	-0.304455	-0.140621
C98	C	1.110175	0.028878	0.192712
C99	C	1.443508	0.362211	0.526046
C100	C	0.776834	-0.227812	-0.140618
C101	C	1.110167	0.105521	0.192715
C102	C	1.443500	0.438855	0.526048
N103	N	0.815401	-0.463094	-0.154837
N104	N	1.148735	-0.129761	0.178496
N105	N	1.482068	0.203573	0.511830
N106	N	0.815413	-0.535902	-0.154838
N107	N	1.148746	-0.202569	0.178496
N108	N	1.482080	0.130764	0.511829
C109	C	0.824496	-0.573691	-0.093040
C110	C	1.157830	-0.240357	0.240294
C111	C	1.491163	0.092976	0.573627
N112	N	0.833582	-0.535920	-0.031239
N113	N	1.166915	-0.202587	0.302094
N114	N	1.500248	0.130746	0.635427
N115	N	0.833574	-0.463106	-0.031240
N116	N	1.166907	-0.129772	0.302094
N117	N	1.500240	0.203561	0.635427
C118	C	0.824480	-0.425875	-0.093038
C119	C	1.157813	-0.092542	0.240296
C120	C	1.491146	0.240791	0.573629
C121	C	0.872131	-0.695101	-0.045444
C122	C	1.205464	-0.361768	0.287889
C123	C	1.538797	-0.028435	0.621222
C124	C	0.872130	-0.771748	-0.045440
C125	C	1.205463	-0.438414	0.287893
C126	C	1.538797	-0.105081	0.621226
C127	C	0.776882	-0.771772	-0.140634
C128	C	1.110216	-0.438438	0.192699
C129	C	1.443549	-0.105105	0.526032
C130	C	0.776879	-0.695127	-0.140632
C131	C	1.110213	-0.361794	0.192701
C132	C	1.443546	-0.028460	0.526034
C133	C	0.824507	-0.656796	-0.093038
C134	C	1.157841	-0.323463	0.240295
C135	C	1.491174	0.009870	0.573628
C136	C	0.952151	0.000252	-0.087546
C137	C	1.285485	0.333585	0.245787
C138	C	1.618818	0.666918	0.579121
C139	C	1.029656	0.000276	-0.088687
C140	C	1.362989	0.333609	0.244647
C141	C	1.696322	0.666942	0.577980
C142	C	0.829972	0.000204	0.034634
C143	C	1.163305	0.333537	0.367967
C144	C	1.496638	0.666870	0.701300
C145	C	0.828831	0.000197	0.112138
C146	C	1.162164	0.333531	0.445471
C147	C	1.495498	0.666864	0.778805
N148	N	0.824513	0.189919	-0.093037
N149	N	1.157847	0.523253	0.240297
N150	N	1.491180	0.856586	0.573630
C151	C	0.818997	0.000236	-0.220700
C152	C	1.152331	0.333569	0.112634
C153	C	1.485664	0.666902	0.445967
C154	C	0.820138	0.000247	-0.298204
C155	C	1.153471	0.333580	0.035129
C156	C	1.486805	0.666914	0.368462
C157	C	0.891922	0.000209	0.157062
C158	C	1.225255	0.333542	0.490395
C159	C	1.558589	0.666876	0.823729
C160	C	0.890850	0.000220	0.229886
C161	C	1.224184	0.333554	0.563219
C162	C	1.557517	0.666887	0.896552
C163	C	0.826684	0.000206	0.257782
C164	C	1.160017	0.333539	0.591116
C165	C	1.493351	0.666872	0.924449
C166	C	0.763585	0.000198	0.212849
C167	C	1.096918	0.333531	0.546182
C168	C	1.430252	0.666865	0.879515
C169	C	0.764658	0.000194	0.140026
C170	C	1.097992	0.333527	0.473360
C171	C	1.431325	0.666860	0.806693
N172	N	0.777631	-0.041244	0.365789
N173	N	1.110964	0.292089	0.699123
N174	N	1.444297	0.625422	1.032456
N175	N	0.776615	-0.041242	0.434968
N176	N	1.109948	0.292091	0.768301
N177	N	1.443282	0.625425	1.101635
C178	C	0.823446	0.000220	0.477191
C179	C	1.156779	0.333553	0.810524
C180	C	1.490113	0.666886	1.143858
N181	N	0.871341	0.041669	0.447624
N182	N	1.204675	0.375003	0.780957
N183	N	1.538008	0.708336	1.114290
N184	N	0.872359	0.041664	0.378439
N185	N	1.205692	0.374997	0.711772
N186	N	1.539025	0.708330	1.045106
C187	C	0.825513	0.000210	0.336745
C188	C	1.158846	0.333544	0.670078
C189	C	1.492180	0.666877	1.003412
C190	C	0.885379	0.000245	0.601079
C191	C	1.218712	0.333578	0.934413
C192	C	1.552046	0.666911	1.267746
C193	C	0.884305	0.000261	0.673904
C194	C	1.217638	0.333594	1.007238
C195	C	1.550971	0.666927	1.340571
C196	C	0.757038	0.000231	0.656865
C197	C	1.090371	0.333564	0.990199
C198	C	1.423704	0.666897	1.323532
C199	C	0.758114	0.000222	0.584042
C200	C	1.091447	0.333556	0.917376
C201	C	1.424781	0.666889	1.250709
C202	C	0.822287	0.000226	0.556154
C203	C	1.155620	0.333559	0.889487
C204	C	1.488953	0.666892	1.222821
H205	H	0.597091	0.000196	-0.212725
H206	H	0.930424	0.333530	0.120609
H207	H	1.263758	0.666863	0.453942
Br208	Br	0.969936	0.000284	0.734875
Br209	Br	1.303269	0.333618	1.068209
Br210	Br	1.636603	0.666951	1.401542
Br211	Br	0.480745	0.000172	0.054950
Br212	Br	0.814079	0.333505	0.388283
Br213	Br	1.147412	0.666839	0.721617
H214	H	0.738049	-0.196624	-0.179371
H215	H	1.071383	0.136709	0.153963
H216	H	1.404716	0.470042	0.487296
Br217	Br	0.976479	0.000240	0.290866
Br218	Br	1.309813	0.333573	0.624199
Br219	Br	1.643146	0.666906	0.957533
H220	H	0.464982	0.000210	-0.210776
H221	H	0.798315	0.333543	0.122557
H222	H	1.131648	0.666876	0.455890
H223	H	0.628003	0.000145	0.018171
H224	H	0.961336	0.333478	0.351504
H225	H	1.294670	0.666811	0.684838
Br226	Br	0.676502	0.000187	0.250706
Br227	Br	1.009835	0.333520	0.584039
Br228	Br	1.343168	0.666854	0.917373
Br229	Br	0.168225	0.000276	-0.241017
Br230	Br	0.501559	0.333610	0.092317
Br231	Br	0.834892	0.666943	0.425650
H232	H	0.183988	0.000238	0.024713
H233	H	0.517321	0.333571	0.358046
H234	H	0.850654	0.666905	0.691380
Br235	Br	0.036735	0.000253	0.061498
Br236	Br	0.370068	0.333586	0.394831
Br237	Br	0.703401	0.666919	0.728165
H238	H	0.910877	-0.335623	-0.006680
H239	H	1.244210	-0.002289	0.326654
H240	H	1.577544	0.331044	0.659987
H241	H	0.738071	-0.335674	-0.179374
H242	H	1.071404	-0.002341	0.153959
H243	H	1.404738	0.330993	0.487293
Br244	Br	0.936721	-0.175764	0.019156
Br245	Br	1.270055	0.157569	0.352489
Br246	Br	1.603388	0.490902	0.685823
Br247	Br	0.936765	-0.643080	0.019149
Br248	Br	1.270098	-0.309746	0.352483
Br249	Br	1.603432	0.023587	0.685816
Br250	Br	0.936765	-0.823736	0.019154
Br251	Br	1.270098	-0.490402	0.352488
Br252	Br	1.603432	-0.157069	0.685821
H253	H	0.738110	-0.802986	-0.179386
H254	H	1.071444	-0.469653	0.153948
H255	H	1.404777	-0.136319	0.487281
H256	H	0.704792	0.000222	0.679578
H257	H	1.038126	0.333556	1.012911
H258	H	1.371459	0.666889	1.346245
H259	H	0.944176	0.000214	0.134360
H260	H	1.277509	0.333548	0.467694
H261	H	1.610843	0.666881	0.801027
H262	H	0.738100	-0.663938	-0.179386
H263	H	1.071433	-0.330605	0.153948
H264	H	1.404767	0.002729	0.487281
H265	H	0.706738	0.000208	0.547464
H266	H	1.040072	0.333542	0.880797
H267	H	1.373405	0.666875	1.214131
Br268	Br	0.679028	0.000180	0.079054
Br269	Br	1.012362	0.333513	0.412387
Br270	Br	1.345695	0.666847	0.745720
H271	H	0.020970	0.000285	-0.204232
H272	H	0.354303	0.333619	0.129102
H273	H	0.687637	0.666952	0.462435
Br274	Br	0.972468	0.000242	0.563226
Br275	Br	1.305801	0.333575	0.896560
Br276	Br	1.639135	0.666909	1.229893
