data_functionalizedCrystal
_audit_creation_method	'MofGen! by Chris Wilmer'
_symmetry_space_group_name_H-M	'P1'
_symmetry_Int_Tables_number	1
_symmetry_cell_setting	triclinic
loop_
_symmetry_equiv_pos_as_xyz
  x,y,z
_cell_length_a	29.839134
_cell_length_b	29.839131
_cell_length_c	18.050582
_cell_angle_alpha	89.978693
_cell_angle_beta	89.973027
_cell_angle_gamma	90.034448
loop_
_atom_site_label
_atom_site_type_symbol
_atom_site_fract_x
_atom_site_fract_y
_atom_site_fract_z
Zn1	Zn	0.686731	-0.178969	-0.420158
Zn2	Zn	0.686659	-0.254091	-0.295970
Zn3	Zn	0.611610	-0.178966	-0.295956
Zn4	Zn	0.611561	-0.254063	-0.420093
O5	O	0.649140	-0.216522	-0.358044
O6	O	0.749588	-0.188947	-0.403717
O7	O	0.676694	-0.244136	-0.192044
O8	O	0.621625	-0.116100	-0.312452
O9	O	0.749535	-0.244139	-0.312477
O10	O	0.676816	-0.116101	-0.403703
O11	O	0.621556	-0.188942	-0.192033
O12	O	0.548736	-0.188915	-0.312389
O13	O	0.621542	-0.244091	-0.524026
O14	O	0.548700	-0.244088	-0.403592
O15	O	0.676769	-0.188919	-0.524074
O16	O	0.676646	-0.316954	-0.312415
O17	O	0.621472	-0.316934	-0.403607
C18	C	0.532417	-0.216499	-0.357983
C19	C	0.482483	-0.216500	-0.357974
C20	C	0.649058	-0.333245	-0.358021
C21	C	0.649064	-0.383179	-0.358036
C22	C	0.125902	-0.187751	-0.310652
C23	C	0.313575	-0.187738	-0.310607
O24	O	0.337845	-0.163257	-0.270302
N25	N	0.337038	-0.216507	-0.358011
C26	C	0.313579	-0.245279	-0.405434
O27	O	0.337842	-0.269745	-0.445759
C28	C	0.125907	-0.245289	-0.405483
C29	C	0.102447	-0.216522	-0.358069
C30	C	0.102442	-0.158986	-0.263243
C31	C	0.055526	-0.158991	-0.263252
C32	C	0.032071	-0.187761	-0.310670
C33	C	0.055531	-0.216527	-0.358078
C34	C	0.102450	-0.274058	-0.452909
C35	C	0.055529	-0.274057	-0.452918
C36	C	0.032068	-0.245290	-0.405505
C37	C	-0.014839	-0.245302	-0.405505
N38	N	-0.038302	-0.216534	-0.358100
C39	C	-0.014847	-0.187763	-0.310682
C40	C	0.412110	-0.245272	-0.405405
C41	C	0.459028	-0.245270	-0.405392
C42	C	0.459020	-0.187729	-0.310565
C43	C	0.412102	-0.187734	-0.310575
C44	C	0.388647	-0.216503	-0.358000
C45	C	-0.113372	-0.187777	-0.310704
C46	C	-0.160292	-0.187786	-0.310715
C47	C	-0.160281	-0.245325	-0.405544
C48	C	-0.113365	-0.245318	-0.405531
C49	C	-0.089912	-0.216540	-0.358109
O50	O	-0.039138	-0.269767	-0.445794
O51	O	-0.039117	-0.163294	-0.270375
C52	C	0.172818	-0.187746	-0.310643
C53	C	0.196278	-0.216511	-0.358052
C54	C	0.172823	-0.245282	-0.405469
C55	C	0.243196	-0.216509	-0.358039
C56	C	0.266651	-0.187739	-0.310621
C57	C	0.243188	-0.158970	-0.263216
C58	C	0.196273	-0.158975	-0.263225
C59	C	0.196285	-0.274050	-0.452874
C60	C	0.243201	-0.274043	-0.452861
C61	C	0.266656	-0.245273	-0.405443
C62	C	0.620429	-0.739771	-0.405525
C63	C	0.620370	-0.552098	-0.405502
O64	O	0.595925	-0.527838	-0.445864
N65	N	0.649112	-0.528624	-0.358059
C66	C	0.677873	-0.552072	-0.310622
O67	O	0.702322	-0.527799	-0.270274
C68	C	0.677934	-0.739744	-0.310649
C69	C	0.649187	-0.763215	-0.358090
C70	C	0.591685	-0.763243	-0.452962
C71	C	0.591698	-0.810158	-0.452965
C72	C	0.620456	-0.833602	-0.405530
C73	C	0.649200	-0.810131	-0.358092
C74	C	0.706697	-0.763190	-0.263217
C75	C	0.706711	-0.810111	-0.263229
C76	C	0.677964	-0.833583	-0.310670
C77	C	0.677972	-0.880490	-0.310660
N78	N	0.649230	-0.903964	-0.358103
C79	C	0.620472	-0.880520	-0.405538
C80	C	0.677838	-0.453541	-0.310610
C81	C	0.677822	-0.406623	-0.310602
C82	C	0.620320	-0.406653	-0.405483
C83	C	0.620334	-0.453572	-0.405486
C84	C	0.649096	-0.477015	-0.358052
C85	C	0.620502	-0.979046	-0.405539
C86	C	0.620517	-1.025966	-0.405535
C87	C	0.678021	-1.025932	-0.310657
C88	C	0.678005	-0.979016	-0.310658
C89	C	0.649244	-0.955574	-0.358105
O90	O	0.702407	-0.904779	-0.270325
O91	O	0.596034	-0.904800	-0.445892
C92	C	0.620416	-0.692856	-0.405522
C93	C	0.649160	-0.669384	-0.358085
C94	C	0.677918	-0.692828	-0.310650
C95	C	0.649144	-0.622467	-0.358077
C96	C	0.620387	-0.599023	-0.405512
C97	C	0.591645	-0.622496	-0.452955
C98	C	0.591658	-0.669412	-0.452957
C99	C	0.706660	-0.669354	-0.263207
C100	C	0.706644	-0.622439	-0.263208
C101	C	0.677886	-0.598995	-0.310643
C102	C	0.766318	-0.216546	-0.358106
C103	C	0.816253	-0.216556	-0.358133
C104	C	0.649158	-0.216502	-0.551750
C105	C	0.649165	-0.216494	-0.634296
C106	C	0.649234	-0.099344	-0.358083
C107	C	0.649274	-0.049409	-0.358100
C108	C	0.619156	-0.246455	-0.833721
C109	C	0.660140	-0.257442	-0.883127
C110	C	0.649187	-0.216460	-0.785426
C111	C	0.608225	-0.205460	-0.883102
C112	C	0.649205	-0.216427	-0.931411
C113	C	0.690193	-0.227468	-0.833745
C114	C	0.638251	-0.175467	-0.833716
C115	C	0.679264	-0.186438	-0.883100
C116	C	0.649176	-0.216479	-0.701328
C117	C	0.649221	-0.216407	-1.015508
C118	C	0.649148	-0.216510	-0.165092
C119	C	0.649228	-0.216392	-0.082547
H120	H	-0.179391	-0.164359	-0.272103
O121	O	0.566926	-0.194320	-0.909055
C122	C	0.523208	-0.142379	-0.981291
C123	C	0.570006	-0.154944	-0.951966
H124	H	0.525681	-0.110537	-1.015977
H125	H	0.509672	-0.170847	-1.016969
H126	H	0.499617	-0.136436	-0.932584
H127	H	0.593631	-0.160880	-1.000627
H128	H	0.583506	-0.126470	-0.916266
H129	H	0.478126	-0.164304	-0.271955
H130	H	0.478125	-0.268700	-0.443992
H131	H	-0.094283	-0.164341	-0.272092
O132	O	0.734665	-0.832814	-0.217079
C133	C	0.791721	-0.827828	-0.123008
C134	C	0.760080	-0.802063	-0.175223
H135	H	0.812284	-0.802978	-0.089165
H136	H	0.771142	-0.849809	-0.084084
H137	H	0.815184	-0.849776	-0.157163
H138	H	0.736610	-0.780091	-0.141127
H139	H	0.780687	-0.780110	-0.214149
O140	O	0.671126	-0.298777	-0.909115
C141	C	0.648316	-0.362262	-0.982477
C142	C	0.635828	-0.315449	-0.953114
H143	H	0.619781	-0.375759	-1.018044
H144	H	0.680116	-0.359841	-1.017285
H145	H	0.654285	-0.385856	-0.933788
H146	H	0.629835	-0.291829	-1.001758
H147	H	0.604040	-0.317905	-0.918284
H148	H	0.596903	-0.387557	-0.444105
H149	H	0.593783	-0.271854	-0.812040
O150	O	0.734610	-0.692055	-0.217054
C151	C	0.791657	-0.687062	-0.122971
C152	C	0.760020	-0.661301	-0.175197
H153	H	0.812217	-0.662209	-0.089127
H154	H	0.771076	-0.709042	-0.084048
H155	H	0.815124	-0.709012	-0.157117
H156	H	0.736547	-0.639327	-0.141110
H157	H	0.780630	-0.639350	-0.214122
H158	H	0.393018	-0.268702	-0.444025
O159	O	0.563840	-0.833003	-0.499094
C160	C	0.557774	-0.885919	-0.599406
C161	C	0.589374	-0.860088	-0.547192
H162	H	0.578406	-0.907816	-0.638317
H163	H	0.534307	-0.907948	-0.565321
H164	H	0.537213	-0.861087	-0.633271
H165	H	0.609964	-0.884887	-0.513316
H166	H	0.612812	-0.838053	-0.581319
H167	H	0.262294	-0.135546	-0.224605
O168	O	0.563688	-0.692229	-0.498940
C169	C	0.503060	-0.745268	-0.508840
C170	C	0.534701	-0.719451	-0.456675
H171	H	0.479622	-0.767290	-0.474691
H172	H	0.482474	-0.720467	-0.542727
H173	H	0.523685	-0.767183	-0.547732
H174	H	0.514110	-0.697536	-0.417738
H175	H	0.555288	-0.744277	-0.422841
H176	H	0.036434	-0.297484	-0.491541
H177	H	0.701226	-0.387516	-0.271963
O178	O	0.705792	-0.476241	-0.264455
C179	C	0.762840	-0.471247	-0.170372
C180	C	0.731200	-0.445487	-0.222596
H181	H	0.783398	-0.446394	-0.136527
H182	H	0.742261	-0.493230	-0.131451
H183	H	0.786308	-0.493194	-0.204522
H184	H	0.707726	-0.423516	-0.188506
H185	H	0.751808	-0.423533	-0.261519
H186	H	0.568267	-0.744159	-0.491593
H187	H	0.121543	-0.297484	-0.491517
H188	H	-0.094263	-0.268746	-0.444133
H189	H	-0.179386	-0.268751	-0.444148
O190	O	0.705966	-0.956282	-0.264543
C191	C	0.762978	-0.961210	-0.170395
C192	C	0.731340	-0.987007	-0.222591
H193	H	0.783494	-0.986040	-0.136453
H194	H	0.786481	-0.939229	-0.204496
H195	H	0.742354	-0.939259	-0.131557
H196	H	0.751928	-1.008982	-0.261440
H197	H	0.707835	-1.008961	-0.188445
H198	H	0.724852	-0.236797	-0.812155
H199	H	0.597083	-0.959965	-0.444175
H200	H	0.704697	-0.161058	-0.904644
O201	O	0.592474	-0.476419	-0.451611
C202	C	0.586406	-0.529340	-0.551916
C203	C	0.618007	-0.503504	-0.499711
H204	H	0.607036	-0.551237	-0.590828
H205	H	0.562942	-0.551369	-0.517823
H206	H	0.565840	-0.504511	-0.585779
H207	H	0.638601	-0.528300	-0.465836
H208	H	0.641440	-0.481468	-0.533845
H209	H	0.628978	-0.140825	-0.811996
O210	O	0.705930	-1.048779	-0.264634
C211	C	0.731391	-1.121051	-0.222538
C212	C	0.699772	-1.095231	-0.274715
H213	H	0.726416	-1.158613	-0.230659
H214	H	0.767623	-1.111834	-0.235631
H215	H	0.723519	-1.111818	-0.162652
H216	H	0.707603	-1.104451	-0.334618
H217	H	0.663549	-1.104451	-0.261558
O218	O	0.173556	-0.130986	-0.217148
C219	C	0.178518	-0.073933	-0.123062
C220	C	0.204296	-0.105602	-0.175221
H221	H	0.203360	-0.053408	-0.089139
H222	H	0.156591	-0.050438	-0.157190
H223	H	0.156515	-0.094532	-0.084203
H224	H	0.226324	-0.085039	-0.214089
H225	H	0.226195	-0.129098	-0.141046
O226	O	0.389384	-0.159745	-0.264498
C227	C	0.394341	-0.102693	-0.170409
C228	C	0.420122	-0.134362	-0.222565
H229	H	0.419181	-0.082169	-0.136481
H230	H	0.372416	-0.079198	-0.204539
H231	H	0.372336	-0.123293	-0.131554
H232	H	0.442151	-0.113798	-0.261430
H233	H	0.442019	-0.157858	-0.188388
O234	O	0.032810	-0.131000	-0.217177
C235	C	0.037772	-0.073942	-0.123098
C236	C	0.063550	-0.105615	-0.175252
H237	H	0.062614	-0.053417	-0.089176
H238	H	0.015846	-0.050449	-0.157230
H239	H	0.015767	-0.094540	-0.084238
H240	H	0.085579	-0.085054	-0.214122
H241	H	0.085448	-0.129110	-0.141073
O242	O	0.265918	-0.302005	-0.498991
C243	C	0.260960	-0.359090	-0.593026
C244	C	0.235180	-0.327444	-0.540830
H245	H	0.236120	-0.379672	-0.626855
H246	H	0.282935	-0.338513	-0.631963
H247	H	0.282916	-0.382534	-0.558856
H248	H	0.213200	-0.303993	-0.574940
H249	H	0.213233	-0.348048	-0.501890
O250	O	0.563733	-0.599767	-0.499139
C251	C	0.541896	-0.585366	-0.625425
C252	C	0.573521	-0.611146	-0.573205
H253	H	0.549805	-0.594549	-0.685319
H254	H	0.505669	-0.594630	-0.612384
H255	H	0.546822	-0.547804	-0.617229
H256	H	0.568635	-0.648713	-0.581372
H257	H	0.609736	-0.601845	-0.586259
O258	O	0.173485	-0.301937	-0.499015
C259	C	0.120533	-0.308084	-0.599252
C260	C	0.146330	-0.276446	-0.547057
H261	H	0.098565	-0.287488	-0.638097
H262	H	0.145346	-0.328634	-0.633181
H263	H	0.098565	-0.331560	-0.565078
H264	H	0.168299	-0.252943	-0.581174
H265	H	0.121493	-0.255927	-0.513125
H266	H	0.597106	-1.045074	-0.444169
O267	O	0.734593	-0.599592	-0.217222
C268	C	0.795261	-0.546598	-0.207354
C269	C	0.763629	-0.572433	-0.259507
H270	H	0.818752	-0.524641	-0.241521
H271	H	0.774676	-0.524628	-0.168487
H272	H	0.815796	-0.571426	-0.173439
H273	H	0.743088	-0.547637	-0.293470
H274	H	0.784241	-0.594410	-0.298325
H275	H	0.730106	-0.744086	-0.224587
H276	H	0.121534	-0.135555	-0.224630
