data_functionalizedCrystal
_audit_creation_method	'MofGen! by Chris Wilmer'
_symmetry_space_group_name_H-M	'P1'
_symmetry_Int_Tables_number	1
_symmetry_cell_setting	triclinic
loop_
_symmetry_equiv_pos_as_xyz
  x,y,z
_cell_length_a	12.759401
_cell_length_b	19.120785
_cell_length_c	12.759393
_cell_angle_alpha	87.521267
_cell_angle_beta	89.980163
_cell_angle_gamma	92.465254
loop_
_atom_site_label
_atom_site_type_symbol
_atom_site_fract_x
_atom_site_fract_y
_atom_site_fract_z
Zn1	Zn	1.588347	-0.279562	-0.576126
Zn2	Zn	1.580716	-0.397039	-0.392927
Zn3	Zn	1.412647	-0.279601	-0.400459
Zn4	Zn	1.405116	-0.396987	-0.568567
O5	O	1.496706	-0.338297	-0.484520
O6	O	1.734355	-0.295150	-0.551836
O7	O	1.558380	-0.381499	-0.246902
O8	O	1.442299	-0.181305	-0.430077
O9	O	1.728749	-0.381460	-0.417240
O10	O	1.571385	-0.181276	-0.559139
O11	O	1.434900	-0.295218	-0.252436
O12	O	1.264627	-0.295168	-0.422747
O13	O	1.429464	-0.381373	-0.716594
O14	O	1.259094	-0.381411	-0.546256
O15	O	1.564083	-0.295100	-0.722147
O16	O	1.551077	-0.495323	-0.409910
O17	O	1.422064	-0.495285	-0.538953
C18	C	1.223740	-0.338289	-0.484499
C19	C	1.106962	-0.338302	-0.484515
C20	C	1.049242	-0.383277	-0.548715
C21	C	0.939518	-0.383280	-0.548736
C22	C	0.945243	-0.293330	-0.420346
C23	C	1.054966	-0.293325	-0.420332
C24	C	1.484954	-0.520790	-0.472817
C25	C	1.480022	-0.598861	-0.467846
C26	C	1.448734	-1.040419	-0.436390
C27	C	1.453370	-0.967063	-0.441061
C28	C	1.522851	-0.930310	-0.510645
C29	C	1.587692	-0.966918	-0.575570
C30	C	1.583050	-1.040272	-0.570903
C31	C	1.540222	-0.708823	-0.528104
C32	C	1.544861	-0.635463	-0.532763
C33	C	1.410537	-0.635613	-0.398255
C34	C	1.405906	-0.708969	-0.393590
C35	C	1.470743	-0.745570	-0.458519
C36	C	1.527594	-0.855329	-0.515419
C37	C	1.465994	-0.820551	-0.453750
C38	C	1.770739	-0.338306	-0.484541
C39	C	1.887515	-0.338310	-0.484550
C40	C	1.496784	-0.338226	-0.758558
C41	C	1.496818	-0.338196	-0.875336
C42	C	1.508533	-0.155092	-0.496291
C43	C	1.513573	-0.077021	-0.501308
C44	C	1.432546	-0.293261	-0.933080
C45	C	1.432572	-0.293240	-1.042805
C46	C	1.561150	-0.383089	-1.037034
C47	C	1.561117	-0.383114	-0.927311
C48	C	1.496692	-0.338317	-0.211551
C49	C	1.496875	-0.338150	-0.094786
H50	H	1.101963	-0.256696	-0.368052
C51	C	1.664123	-0.926491	-0.652112
C52	C	1.749823	-0.876044	-0.609861
C53	C	1.826258	-0.835618	-0.686401
C54	C	1.816992	-0.845638	-0.805194
C55	C	1.731288	-0.896086	-0.847452
C56	C	1.654853	-0.936513	-0.770911
H57	H	1.756685	-0.868625	-0.521918
H58	H	1.889701	-0.798273	-0.655119
H59	H	1.873573	-0.815712	-0.861854
H60	H	1.724426	-0.903506	-0.935395
H61	H	1.591410	-0.973858	-0.802194
H62	H	1.613501	-0.419659	-1.079365
H63	H	1.357748	-0.605806	-0.345394
C64	C	1.389569	-0.860976	-0.377208
C65	C	1.431956	-0.911428	-0.291562
C66	C	1.355534	-0.951861	-0.215016
C67	C	1.236726	-0.941843	-0.224115
C68	C	1.194333	-0.891389	-0.309765
C69	C	1.270754	-0.850956	-0.386311
H70	H	1.519911	-0.918846	-0.284823
H71	H	1.386917	-0.989211	-0.151613
H72	H	1.180154	-0.971774	-0.167452
H73	H	1.106378	-0.883971	-0.316504
H74	H	1.239372	-0.813606	-0.449714
C75	C	1.654374	-1.080539	-0.642312
C76	C	1.733688	-1.130953	-0.593655
C77	C	1.805009	-1.171219	-0.665071
C78	C	1.797016	-1.161070	-0.785145
C79	C	1.717699	-1.110654	-0.833809
C80	C	1.646378	-1.070388	-0.762393
H81	H	1.739607	-1.138467	-0.504763
H82	H	1.863724	-1.208540	-0.629045
H83	H	1.849812	-1.190877	-0.838011
H84	H	1.711779	-1.103139	-0.922700
H85	H	1.587663	-1.033066	-0.798418
H86	H	1.584168	-0.825399	-0.572074
C87	C	1.361810	-0.243859	-0.875907
C88	C	1.291108	-0.194435	-0.939428
C89	C	1.220367	-0.145032	-0.882259
C90	C	1.220328	-0.145054	-0.761567
C91	C	1.291033	-0.194480	-0.698039
C92	C	1.361774	-0.243882	-0.755208
H93	H	1.291134	-0.194417	-1.028778
H94	H	1.168027	-0.108444	-0.929287
H95	H	1.167961	-0.108483	-0.719247
H96	H	1.291006	-0.194497	-0.608689
H97	H	1.414114	-0.280470	-0.708180
H98	H	1.380235	-0.256650	-1.089815
H99	H	1.392159	-1.070338	-0.379723
C100	C	1.631822	-0.432545	-0.863784
C101	C	1.702559	-0.481947	-0.920949
C102	C	1.773255	-0.531377	-0.857422
C103	C	1.773215	-0.531406	-0.736730
C104	C	1.702475	-0.482002	-0.679558
C105	C	1.631778	-0.432572	-0.743085
H106	H	1.702591	-0.481927	-1.010298
H107	H	1.825622	-0.567949	-0.899745
H108	H	1.825549	-0.567997	-0.689703
H109	H	1.702443	-0.482022	-0.590209
H110	H	1.579412	-0.396000	-0.700763
H111	H	1.091574	-0.419899	-0.600980
H112	H	0.892527	-0.419902	-0.601016
C113	C	0.888039	-0.243860	-0.349747
C114	C	0.908264	-0.164017	-0.363646
C115	C	0.851060	-0.114546	-0.293046
C116	C	0.773633	-0.144918	-0.208548
C117	C	0.753405	-0.224765	-0.194646
C118	C	0.810609	-0.274236	-0.265246
H119	H	0.965583	-0.141530	-0.426199
H120	H	0.866035	-0.055438	-0.303338
H121	H	0.731288	-0.108296	-0.156286
H122	H	0.696086	-0.247251	-0.132092
H123	H	0.795634	-0.333344	-0.254954
H124	H	1.349329	-0.738888	-0.336926
H125	H	1.400573	-0.937262	-0.388201
H126	H	1.593029	-0.738614	-0.580962
H127	H	1.601445	-0.605542	-0.589430
