data_functionalizedCrystal
_audit_creation_method	'MofGen! by Chris Wilmer'
_symmetry_space_group_name_H-M	'P1'
_symmetry_Int_Tables_number	1
_symmetry_cell_setting	triclinic
loop_
_symmetry_equiv_pos_as_xyz
  x,y,z
_cell_length_a	18.050582
_cell_length_b	16.959455
_cell_length_c	16.959453
_cell_angle_alpha	89.983065
_cell_angle_beta	89.976667
_cell_angle_gamma	90.014681
loop_
_atom_site_label
_atom_site_type_symbol
_atom_site_fract_x
_atom_site_fract_y
_atom_site_fract_z
Zn1	Zn	-0.419890	-1.208387	-0.314791
Zn2	Zn	0.080110	-0.708387	0.185209
Zn3	Zn	-0.295700	-1.208309	-0.446965
Zn4	Zn	0.204300	-0.708309	0.053035
Zn5	Zn	-0.295716	-1.076215	-0.314798
Zn6	Zn	0.204284	-0.576215	0.185202
Zn7	Zn	-0.419851	-1.076180	-0.446924
Zn8	Zn	0.080149	-0.576180	0.053076
O9	O	-0.357789	-1.142273	-0.380869
O10	O	0.142211	-0.642273	0.119131
O11	O	-0.403425	-1.318988	-0.332338
O12	O	0.096575	-0.818988	0.167662
O13	O	-0.191777	-1.190768	-0.429453
O14	O	0.308223	-0.690768	0.070547
O15	O	-0.312212	-1.093795	-0.204186
O16	O	0.187788	-0.593795	0.295814
O17	O	-0.312183	-1.318930	-0.429446
O18	O	0.187817	-0.818930	0.070554
O19	O	-0.403441	-1.190901	-0.204181
O20	O	0.096559	-0.690901	0.295819
O21	O	-0.191789	-1.093719	-0.332350
O22	O	0.308211	-0.593719	0.167650
O23	O	-0.312174	-0.965599	-0.332310
O24	O	0.187826	-0.465599	0.167690
O25	O	-0.523780	-1.093736	-0.429376
O26	O	-0.023780	-0.593736	0.070624
O27	O	-0.403375	-0.965574	-0.429383
O28	O	0.096625	-0.465574	0.070617
O29	O	-0.523809	-1.190868	-0.332298
O30	O	-0.023809	-0.690868	0.167702
O31	O	-0.312145	-1.190735	-0.557571
O32	O	0.187855	-0.690735	-0.057571
O33	O	-0.403358	-1.093660	-0.557540
O34	O	0.096642	-0.593660	-0.057540
C35	C	-0.357772	-0.936906	-0.380843
C36	C	0.142228	-0.436906	0.119157
C37	C	-0.357782	-0.849050	-0.380851
C38	C	0.142218	-0.349050	0.119149
C39	C	-0.357762	-1.142207	-0.586236
C40	C	0.142238	-0.642207	-0.086236
C41	C	-0.357775	-1.142251	-0.674092
C42	C	0.142225	-0.642251	-0.174092
C43	C	-0.551495	-1.142307	-0.380832
C44	C	-0.051495	-0.642307	0.119168
C45	C	-0.634041	-1.142321	-0.380816
C46	C	-0.134041	-0.642321	0.119184
C47	C	-0.882851	-1.089551	-0.433521
C48	C	-0.382851	-0.589551	0.066479
C49	C	-0.833463	-1.070233	-0.361424
C50	C	-0.333463	-0.570233	0.138576
C51	C	-0.931161	-1.142388	-0.380700
C52	C	-0.431161	-0.642388	0.119300
C53	C	-0.833467	-1.161636	-0.452849
C54	C	-0.333467	-0.661636	0.047151
C55	C	-0.785176	-1.142354	-0.380760
C56	C	-0.285176	-0.642354	0.119240
C57	C	-0.882861	-1.123034	-0.308565
C58	C	-0.382861	-0.623034	0.191435
C59	C	-0.882869	-1.214470	-0.400038
C60	C	-0.382869	-0.714470	0.099962
C61	C	-0.833504	-1.195180	-0.327892
C62	C	-0.333504	-0.695180	0.172108
C63	C	-1.015259	-1.142406	-0.380666
C64	C	-0.515259	-0.642406	0.119334
C65	C	-0.701079	-1.142336	-0.380786
C66	C	-0.201079	-0.642336	0.119214
C67	C	-0.164837	-1.142284	-0.380850
C68	C	0.335163	-0.642284	0.119150
C69	C	-0.082292	-1.142423	-0.380643
C70	C	0.417708	-0.642423	0.119357
C71	C	-0.357807	-1.348441	-0.380896
C72	C	0.142193	-0.848441	0.119104
C73	C	-0.357814	-1.436298	-0.380908
C74	C	0.142186	-0.936298	0.119092
C75	C	-0.310400	-0.477563	-0.330282
C76	C	0.189600	0.022437	0.169718
C77	C	-0.405221	-0.477586	-0.431522
C78	C	0.094779	0.022414	0.068478
C79	C	-0.405216	-0.560131	-0.431510
C80	C	0.094784	-0.060131	0.068490
C81	C	-0.357802	-0.601397	-0.380885
C82	C	0.142198	-0.101397	0.119115
C83	C	-0.310392	-0.560117	-0.330271
C84	C	0.189608	-0.060117	0.169729
C85	C	-0.452620	-0.601418	-0.482129
C86	C	0.047380	-0.101418	0.017871
C87	C	-0.452616	-0.683969	-0.482120
C88	C	0.047384	-0.183969	0.017880
C89	C	-0.405205	-0.725236	-0.431490
C90	C	0.094795	-0.225236	0.068510
C91	C	-0.357794	-0.683950	-0.380874
C92	C	0.142206	-0.183950	0.119126
C93	C	-0.310380	-0.725216	-0.330248
C94	C	0.189620	-0.225216	0.169752
C95	C	-0.262972	-0.683932	-0.279627
C96	C	0.237028	-0.183932	0.220373
C97	C	-0.262981	-0.601383	-0.279641
C98	C	0.237019	-0.101383	0.220359
C99	C	-0.405197	-0.807784	-0.431476
C100	C	0.094803	-0.307784	0.068524
C101	C	-0.310373	-0.807769	-0.330237
C102	C	0.189627	-0.307769	0.169763
C103	C	-0.405382	-1.192901	-1.045507
C104	C	0.094618	-0.692901	-0.545507
C105	C	-0.310306	-1.091865	-1.045629
C106	C	0.189694	-0.591865	-0.545629
C107	C	-0.310289	-1.091836	-0.963083
C108	C	0.189711	-0.591836	-0.463083
C109	C	-0.357820	-1.142339	-0.921745
C110	C	0.142180	-0.642339	-0.421745
C111	C	-0.405368	-1.192871	-0.962953
C112	C	0.094632	-0.692871	-0.462953
C113	C	-0.262748	-1.041299	-0.921869
C114	C	0.237252	-0.541299	-0.421869
C115	C	-0.262729	-1.041267	-0.839318
C116	C	0.237271	-0.541267	-0.339318
C117	C	-0.310257	-1.091775	-0.797979
C118	C	0.189743	-0.591775	-0.297979
C119	C	-0.357806	-1.142310	-0.839192
C120	C	0.142194	-0.642310	-0.339192
C121	C	-0.405337	-1.192813	-0.797854
C122	C	0.094663	-0.692813	-0.297854
C123	C	-0.452883	-1.243352	-0.839065
C124	C	0.047117	-0.743352	-0.339065
C125	C	-0.452896	-1.243379	-0.921614
C126	C	0.047104	-0.743379	-0.421614
C127	C	-0.310244	-1.091748	-0.715430
C128	C	0.189756	-0.591748	-0.215430
C129	C	-0.405323	-1.192783	-0.715300
C130	C	0.094677	-0.692783	-0.215300
C131	C	-0.357833	-1.142360	-0.174701
C132	C	0.142167	-0.642360	0.325299
C133	C	-0.357851	-1.142398	-0.086845
C134	C	0.142149	-0.642398	0.413155
H135	H	-0.904519	-1.044848	-0.478107
H136	H	-0.404519	-0.544848	0.021893
H137	H	-0.224365	-0.717541	-0.238412
H138	H	0.275635	-0.217541	0.261588
H139	H	-0.444026	-1.233912	-0.681648
H140	H	0.055974	-0.733912	-0.181648
H141	H	-0.904467	-1.106670	-0.247556
H142	H	-0.404467	-0.606670	0.252444
H143	H	-0.491586	-1.284469	-0.805398
H144	H	0.008414	-0.784469	-0.305398
H145	H	-0.811974	-1.239848	-0.283198
H146	H	-0.311974	-0.739848	0.216802
F147	F	-0.805100	-1.182929	-0.532566
F148	F	-0.305100	-0.682929	-0.032566
F149	F	-0.911258	-1.294143	-0.421419
F150	F	-0.411258	-0.794143	0.078581
H151	H	-0.271612	-1.050745	-1.079291
H152	H	0.228388	-0.550745	-0.579291
F153	F	-0.503058	-0.557497	-0.536024
F154	F	-0.003058	-0.057497	-0.036024
F155	F	-0.212129	-0.987478	-0.795465
F156	F	0.287871	-0.487478	-0.295465
F157	F	-0.805098	-0.990538	-0.340069
F158	F	-0.305098	-0.490538	0.159931
F159	F	-0.212531	-0.557441	-0.225772
F160	F	0.287469	-0.057441	0.274228
F161	F	-0.503072	-0.727899	-0.535994
F162	F	-0.003072	-0.227899	-0.035994
F163	F	-0.212178	-0.987541	-0.965867
F164	F	0.287822	-0.487541	-0.465867
H165	H	-0.443793	-0.841394	-0.472694
H166	H	0.056207	-0.341394	0.027306
F167	F	-0.503495	-1.297159	-0.965479
F168	F	-0.003495	-0.797159	-0.465479
H169	H	-0.271766	-0.841362	-0.289007
H170	H	0.228234	-0.341362	0.210993
H171	H	-0.444091	-1.234051	-1.079065
H172	H	0.055909	-0.734051	-0.579065
F173	F	-0.259951	-0.433626	-0.276406
F174	F	0.240049	0.066374	0.223594
F175	F	-0.259648	-1.037962	-0.671574
F176	F	0.240352	-0.537962	-0.171574
H177	H	-0.443819	-0.443982	-0.472743
H178	H	0.056181	0.056018	0.027257
