data_functionalizedCrystal
_audit_creation_method	'MofGen! by Chris Wilmer'
_symmetry_space_group_name_H-M	'P1'
_symmetry_Int_Tables_number	1
_symmetry_cell_setting	triclinic
loop_
_symmetry_equiv_pos_as_xyz
  x,y,z
_cell_length_a	14.971486
_cell_length_b	11.792241
_cell_length_c	13.448316
_cell_angle_alpha	89.993264
_cell_angle_beta	89.998199
_cell_angle_gamma	83.903772
loop_
_atom_site_label
_atom_site_type_symbol
_atom_site_fract_x
_atom_site_fract_y
_atom_site_fract_z
O1	O	1.187540	0.147909	-0.082578
O2	O	1.687540	0.647909	0.417422
O3	O	0.927211	0.165622	-0.082605
O4	O	1.427211	0.665622	0.417395
O5	O	1.063693	-0.008446	-0.082584
O6	O	1.563693	0.491554	0.417416
O7	O	1.051058	0.321977	-0.082599
O8	O	1.551058	0.821977	0.417401
O9	O	1.063676	-0.008456	0.082800
O10	O	1.563676	0.491544	0.582800
O11	O	0.927194	0.165611	0.082779
O12	O	1.427194	0.665611	0.582779
O13	O	1.187523	0.147899	0.082806
O14	O	1.687523	0.647899	0.582806
Cu15	Cu	1.057357	0.156754	0.097893
Cu16	Cu	1.557357	0.656754	0.597893
Cu17	Cu	1.057377	0.156767	-0.097692
Cu18	Cu	1.557377	0.656767	0.402308
O19	O	1.051041	0.321966	0.082785
O20	O	1.551041	0.821966	0.582785
C21	C	0.893874	0.164824	0.000084
C22	C	1.393874	0.664824	0.500084
C23	C	0.794568	0.162451	0.000073
C24	C	1.294568	0.662451	0.500073
C25	C	1.062891	-0.050737	0.000108
C26	C	1.562891	0.449263	0.500108
C27	C	1.060515	-0.176735	0.000107
C28	C	1.560515	0.323265	0.500107
C29	C	0.737752	0.264710	0.000070
C30	C	1.237752	0.764710	0.500070
C31	C	0.644444	0.262473	0.000085
C32	C	1.144444	0.762473	0.500085
C33	C	0.607953	0.157975	0.000096
C34	C	1.107953	0.657975	0.500096
C35	C	0.664776	0.055707	0.000102
C36	C	1.164776	0.555707	0.500102
C37	C	0.758082	0.057946	0.000095
C38	C	1.258082	0.557946	0.500095
C39	C	0.470294	0.051049	0.000116
C40	C	0.970294	0.551049	0.500116
C41	C	0.376981	0.048810	0.000122
C42	C	0.876981	0.548810	0.500122
C43	C	0.356656	0.255577	0.000107
C44	C	0.856656	0.755577	0.500107
C45	C	0.449963	0.257815	0.000099
C46	C	0.949963	0.757815	0.500099
C47	C	0.506779	0.155547	0.000103
C48	C	1.006779	0.655547	0.500103
C49	C	1.056147	-0.407419	0.000089
C50	C	1.556147	0.092581	0.500089
C51	C	1.058574	-0.279050	0.000099
C52	C	1.558574	0.220950	0.500099
C53	C	1.220859	0.148696	0.000115
C54	C	1.720859	0.648696	0.500115
C55	C	1.320166	0.151070	0.000119
C56	C	1.820166	0.651070	0.500119
C57	C	1.051843	0.364257	0.000091
C58	C	1.551843	0.864257	0.500091
C59	C	1.054218	0.490256	0.000086
C60	C	1.554218	0.990256	0.500086
N61	N	1.057349	0.156744	0.235458
N62	N	1.557349	0.656744	0.735458
N63	N	1.057392	0.156767	-0.235257
N64	N	1.557392	0.656767	0.264743
C65	C	1.117802	0.079699	0.287507
C66	C	1.617802	0.579699	0.787507
C67	C	1.117808	0.079698	0.391611
C68	C	1.617808	0.579698	0.891611
C69	C	1.057363	0.156749	0.443662
C70	C	1.557363	0.656749	0.943662
C71	C	0.996904	0.233798	0.391605
C72	C	1.496904	0.733798	0.891605
C73	C	0.996895	0.233792	0.287504
C74	C	1.496895	0.733792	0.787504
C75	C	0.996929	0.233805	0.608585
C76	C	1.496929	0.733805	1.108585
C77	C	0.996939	0.233813	0.712694
C78	C	1.496939	0.733813	1.212694
C79	C	1.117842	0.079711	0.712692
C80	C	1.617842	0.579711	1.212692
C81	C	1.117832	0.079706	0.608591
C82	C	1.617832	0.579706	1.108591
C83	C	1.057374	0.156756	0.556541
C84	C	1.557374	0.656756	1.056541
H85	H	0.767455	0.349805	0.000060
H86	H	1.267455	0.849805	0.500060
H87	H	0.310391	0.338847	0.000108
H88	H	0.810391	0.838847	0.500108
H89	H	0.598187	0.345744	0.000081
H90	H	1.098187	0.845744	0.500081
H91	H	0.347274	-0.036282	0.000133
H92	H	0.847274	0.463718	0.500133
H93	H	0.479670	0.342907	0.000080
H94	H	0.979670	0.842907	0.500080
H95	H	0.516553	-0.032229	0.000121
H96	H	1.016553	0.467771	0.500121
H97	H	0.635057	-0.029377	0.000126
H98	H	1.135057	0.470623	0.500126
H99	H	0.804341	-0.025325	0.000097
H100	H	1.304341	0.474675	0.500097
H101	H	1.167069	0.016974	0.755077
H102	H	1.667069	0.516974	1.255077
H103	H	1.167026	0.016960	0.245134
H104	H	1.667026	0.516960	0.745134
H105	H	1.167055	0.016971	0.566210
H106	H	1.667055	0.516971	1.066210
H107	H	0.947693	0.296545	0.566210
H108	H	1.447693	0.796545	1.066210
H109	H	1.167032	0.016961	0.433989
H110	H	1.667032	0.516961	0.933989
H111	H	0.947718	0.296554	0.755069
H112	H	1.447718	0.796554	1.255069
H113	H	0.947684	0.296530	0.433992
H114	H	1.447684	0.796530	0.933992
H115	H	0.947666	0.296529	0.245126
H116	H	1.447666	0.796529	0.745126
