data_functionalizedCrystal
_audit_creation_method	'MofGen! by Chris Wilmer'
_symmetry_space_group_name_H-M	'P1'
_symmetry_Int_Tables_number	1
_symmetry_cell_setting	triclinic
loop_
_symmetry_equiv_pos_as_xyz
  x,y,z
_cell_length_a	17.019282
_cell_length_b	27.731996
_cell_length_c	15.500227
_cell_angle_alpha	92.797931
_cell_angle_beta	91.034464
_cell_angle_gamma	83.006485
loop_
_atom_site_label
_atom_site_type_symbol
_atom_site_fract_x
_atom_site_fract_y
_atom_site_fract_z
O1	O	1.045605	0.061735	0.005972
O2	O	1.545605	0.561735	0.505972
O3	O	0.816718	0.069063	-0.011090
O4	O	1.316718	0.569063	0.488910
O5	O	0.938291	-0.004955	-0.002009
O6	O	1.438291	0.495045	0.497991
O7	O	0.924032	0.135753	-0.003109
O8	O	1.424032	0.635753	0.496891
O9	O	0.930913	-0.000481	0.141328
O10	O	1.430913	0.499519	0.641328
O11	O	0.809341	0.073537	0.132248
O12	O	1.309341	0.573537	0.632248
O13	O	1.038228	0.066209	0.149309
O14	O	1.538228	0.566209	0.649309
Cu15	Cu	0.923111	0.070282	0.153866
Cu16	Cu	1.423111	0.570282	0.653866
Cu17	Cu	0.931835	0.064991	-0.015647
Cu18	Cu	1.431835	0.564991	0.484353
O19	O	0.916655	0.140227	0.140228
O20	O	1.416655	0.640227	0.640228
C21	C	0.783756	0.070935	0.058397
C22	C	1.283756	0.570935	0.558397
C23	C	0.696531	0.069842	0.051896
C24	C	1.196531	0.569842	0.551896
C25	C	0.651536	0.071766	0.126977
C26	C	1.151536	0.571766	0.626977
C27	C	0.569580	0.070731	0.120871
C28	C	1.069580	0.570731	0.620871
C29	C	0.532621	0.067775	0.039683
C30	C	1.032621	0.567775	0.539683
C31	C	0.577622	0.065850	-0.035404
C32	C	1.077622	0.565850	0.464596
C33	C	0.659577	0.066881	-0.029297
C34	C	1.159577	0.566881	0.470703
C35	C	0.285371	0.064536	0.017336
C36	C	0.785371	0.564536	0.517336
C37	C	0.203410	0.063506	0.011235
C38	C	0.703410	0.563506	0.511235
C39	C	0.195374	0.068386	0.167510
C40	C	0.695374	0.568386	0.667510
C41	C	0.277331	0.069420	0.173610
C42	C	0.777331	0.569420	0.673610
C43	C	0.322325	0.067492	0.098523
C44	C	0.822325	0.567492	0.598523
C45	C	0.448849	0.066719	0.033440
C46	C	0.948849	0.566719	0.533440
C47	C	0.406097	0.068545	0.104767
C48	C	0.906097	0.568545	0.604767
C49	C	0.934309	-0.020727	0.069641
C50	C	1.434309	0.479273	0.569641
C51	C	0.933426	-0.074388	0.069584
C52	C	1.433426	0.425612	0.569584
C53	C	0.931898	-0.409579	-0.009005
C54	C	1.431898	0.090421	0.490995
C55	C	0.928549	-0.611258	-0.009270
C56	C	1.428549	-0.111258	0.490730
O57	O	0.931502	-0.639406	-0.075755
O58	O	1.431502	-0.139406	0.424245
N59	N	0.924111	-0.634039	0.068831
N60	N	1.424111	-0.134039	0.568831
C61	C	0.920506	-0.606397	0.147004
C62	C	1.420506	-0.106397	0.647004
O63	O	0.916647	-0.630401	0.213428
O64	O	1.416647	-0.130401	0.713428
C65	C	0.923850	-0.404718	0.147268
C66	C	1.423850	0.095282	0.647268
C67	C	0.928296	-0.381940	0.069162
C68	C	1.428296	0.118060	0.569162
C69	C	0.936343	-0.386801	-0.087105
C70	C	1.436343	0.113199	0.412895
C71	C	0.937184	-0.336385	-0.087038
C72	C	1.437184	0.163615	0.412962
C73	C	0.933582	-0.308746	-0.008871
C74	C	1.433582	0.191254	0.491129
C75	C	0.929137	-0.331524	0.069229
C76	C	1.429137	0.168476	0.569229
C77	C	0.920239	-0.377076	0.225439
C78	C	1.420239	0.122924	0.725439
C79	C	0.921073	-0.326653	0.225498
C80	C	1.421073	0.173347	0.725498
C81	C	0.925519	-0.303875	0.147392
C82	C	1.425519	0.196125	0.647392
C83	C	0.926376	-0.253469	0.147464
C84	C	1.426376	0.246531	0.647464
N85	N	0.930814	-0.230688	0.069362
N86	N	1.430814	0.269312	0.569362
C87	C	0.934416	-0.258326	-0.008805
C88	C	1.434416	0.241674	0.491195
C89	C	0.918752	-0.712282	0.146860
C90	C	1.418752	-0.212282	0.646860
C91	C	0.917917	-0.762701	0.146795
C92	C	1.417917	-0.262701	0.646795
C93	C	0.925959	-0.767559	-0.009480
C94	C	1.425959	-0.267559	0.490520
C95	C	0.926799	-0.717139	-0.009413
C96	C	1.426799	-0.217139	0.490587
C97	C	0.923189	-0.689501	0.068759
C98	C	1.423189	-0.189501	0.568759
C99	C	0.936184	-0.152448	-0.008658
C100	C	1.436184	0.347552	0.491342
C101	C	0.937029	-0.102027	-0.008583
C102	C	1.437029	0.397973	0.491417
C103	C	0.928983	-0.097173	0.147691
C104	C	1.428983	0.402827	0.647691
C105	C	0.928143	-0.147590	0.147617
C106	C	1.428143	0.352410	0.647617
C107	C	0.931741	-0.175226	0.069436
C108	C	1.431741	0.324774	0.569436
O109	O	0.923417	-0.225290	0.213913
O110	O	1.423417	0.274710	0.713913
O111	O	0.938258	-0.234312	-0.075220
O112	O	1.438258	0.265688	0.424780
C113	C	0.931057	-0.459996	-0.009073
C114	C	1.431057	0.040004	0.490927
C115	C	0.926612	-0.482773	0.069027
C116	C	1.426612	0.017227	0.569027
C117	C	0.923010	-0.455135	0.147194
C118	C	1.423010	0.044865	0.647194
C119	C	0.925778	-0.533193	0.068961
C120	C	1.425778	-0.033193	0.568961
C121	C	0.929380	-0.560832	-0.009206
C122	C	1.429380	-0.060832	0.490794
C123	C	0.933818	-0.538051	-0.087307
C124	C	1.433818	-0.038051	0.412693
C125	C	0.934659	-0.487634	-0.087240
C126	C	1.434659	0.012366	0.412760
C127	C	0.918572	-0.477916	0.225296
C128	C	1.418572	0.022084	0.725296
C129	C	0.917732	-0.528333	0.225222
C130	C	1.417732	-0.028333	0.725222
C131	C	0.921334	-0.555971	0.147055
C132	C	1.421334	-0.055971	0.647055
C133	C	1.071190	0.064337	0.079820
C134	C	1.571190	0.564337	0.579820
C135	C	1.158415	0.065430	0.086316
C136	C	1.658415	0.565430	0.586316
C137	C	0.920637	0.155999	0.068576
C138	C	1.420637	0.655999	0.568576
C139	C	0.921520	0.209660	0.068628
C140	C	1.421520	0.709660	0.568628
N141	N	0.916980	0.074003	0.273093
N142	N	1.416980	0.574003	0.773093
N143	N	0.937972	0.061266	-0.134874
N144	N	1.437972	0.561266	0.365126
C145	C	0.968512	0.042650	0.322219
C146	C	1.468512	0.542650	0.822219
C147	C	0.963883	0.045469	0.412446
C148	C	1.463883	0.545469	0.912446
C149	C	0.907725	0.079643	0.453546
C150	C	1.407725	0.579643	0.953546
C151	C	0.856188	0.110996	0.404413
C152	C	1.356188	0.610996	0.904413
C153	C	0.860814	0.108175	0.314188
C154	C	1.360814	0.608175	0.814188
C155	C	0.891060	0.089798	0.725768
C156	C	1.391060	0.589798	1.225768
C157	C	0.886440	0.092618	0.816000
C158	C	1.386440	0.592618	1.316000
C159	C	0.994135	0.027090	0.824027
C160	C	1.494135	0.527090	1.324027
C161	C	0.998759	0.024274	0.733799
C162	C	1.498759	0.524274	1.233799
C163	C	0.947219	0.055625	0.684675
C164	C	1.447219	0.555625	1.184675
C165	C	0.902994	0.082525	0.545773
C166	C	1.402994	0.582525	1.045773
C167	C	0.951947	0.052740	0.592449
C168	C	1.451947	0.552740	1.092449
H169	H	0.547524	0.063440	-0.101509
H170	H	1.047524	0.563440	0.398491
Cl171	Cl	0.912344	-0.791331	0.244991
Cl172	Cl	1.412344	-0.291331	0.744991
Cl173	Cl	0.924454	-0.062418	0.245953
Cl174	Cl	1.424454	0.437582	0.745953
Cl175	Cl	0.716143	0.064460	-0.123689
Cl176	Cl	1.216143	0.564460	0.376311
H177	H	0.321997	0.062964	-0.043805
H178	H	0.821997	0.562964	0.456195
H179	H	0.436193	0.070949	0.170870
H180	H	0.936193	0.570949	0.670870
Cl181	Cl	0.942766	-0.307757	-0.185235
Cl182	Cl	1.442766	0.192243	0.314765
Cl183	Cl	0.513016	0.073158	0.215264
Cl184	Cl	1.013016	0.573158	0.715264
H185	H	0.857270	0.110351	0.579243
H186	H	1.357270	0.610351	1.079243
H187	H	0.418747	0.064313	-0.032664
H188	H	0.918747	0.564313	0.467336
Cl189	Cl	0.815835	0.135584	0.867662
Cl190	Cl	1.315835	0.635584	1.367662
H191	H	1.044487	-0.003553	0.700338
H192	H	1.544487	0.496447	1.200338
H193	H	0.849095	0.115327	0.685778
H194	H	1.349095	0.615327	1.185778
H195	H	0.930418	-0.698597	-0.073014
H196	H	1.430418	-0.198597	0.426986
Cl197	Cl	0.914210	-0.677543	0.245144
Cl198	Cl	1.414210	-0.177543	0.745144
H199	H	0.158731	0.069955	0.228641
H200	H	0.658731	0.569955	0.728641
H201	H	0.810458	0.138819	0.437882
H202	H	1.310458	0.638819	0.937882
H203	H	0.924530	-0.166137	0.211218
H204	H	1.424530	0.333863	0.711218
Cl205	Cl	0.940247	-0.459007	-0.185436
Cl206	Cl	1.440247	0.040993	0.314564
H207	H	0.936755	-0.560563	-0.150954
H208	H	1.436755	-0.060563	0.349046
H209	H	0.914118	-0.546874	0.288831
H210	H	1.414118	-0.046874	0.788831
H211	H	0.307418	0.071825	0.239721
H212	H	0.807418	0.571825	0.739721
Cl213	Cl	0.942620	-0.073396	-0.106781
Cl214	Cl	1.442620	0.426604	0.393219
Cl215	Cl	0.697991	0.075484	0.229047
Cl216	Cl	1.197991	0.575484	0.729047
Cl217	Cl	0.914037	-0.443177	0.323573
Cl218	Cl	1.414037	0.056823	0.823573
H219	H	0.818850	0.133705	0.274190
H220	H	1.318850	0.633705	0.774190
H221	H	0.939110	-0.174943	-0.072321
H222	H	1.439110	0.325057	0.427679
H223	H	0.916620	-0.395613	0.289042
H224	H	1.416620	0.104387	0.789042
Cl225	Cl	1.039119	-0.000311	0.270561
Cl226	Cl	1.539119	0.499689	0.770561
H227	H	0.173320	0.061101	-0.054882
H228	H	0.673320	0.561101	0.445118
Cl229	Cl	1.028667	0.006054	0.474206
Cl230	Cl	1.528667	0.506054	0.974206
Cl231	Cl	0.940874	-0.421538	-0.185386
Cl232	Cl	1.440874	0.078462	0.314614
Cl233	Cl	0.930483	-0.802314	-0.107747
Cl234	Cl	1.430483	-0.302314	0.392253
H235	H	0.918122	-0.304151	0.289156
H236	H	1.418122	0.195849	0.789156
Cl237	Cl	1.022541	0.009779	0.540780
Cl238	Cl	1.522541	0.509779	1.040780
H239	H	1.036096	0.001564	0.864032
H240	H	1.536096	0.501564	1.364032
