data_functionalizedCrystal
_audit_creation_method	'MofGen! by Chris Wilmer'
_symmetry_space_group_name_H-M	'P1'
_symmetry_Int_Tables_number	1
_symmetry_cell_setting	triclinic
loop_
_symmetry_equiv_pos_as_xyz
  x,y,z
_cell_length_a	18.215407
_cell_length_b	18.215406
_cell_length_c	18.215399
_cell_angle_alpha	90.015166
_cell_angle_beta	89.979405
_cell_angle_gamma	89.999279
loop_
_atom_site_label
_atom_site_type_symbol
_atom_site_fract_x
_atom_site_fract_y
_atom_site_fract_z
Zn1	Zn	-1.125195	-0.292993	0.416196
Zn2	Zn	-1.125155	-0.416065	0.293157
Zn3	Zn	-1.002128	-0.293016	0.293142
Zn4	Zn	-1.002145	-0.416022	0.416181
O5	O	-1.063656	-0.354524	0.354669
O6	O	-1.228174	-0.309327	0.399888
O7	O	-1.108811	-0.399769	0.190171
O8	O	-1.018462	-0.190029	0.309465
O9	O	-1.228145	-0.399747	0.309492
O10	O	-1.108879	-0.190012	0.399873
O11	O	-1.018424	-0.309366	0.190160
O12	O	-0.899146	-0.309325	0.309450
O13	O	-1.018492	-0.399675	0.519167
O14	O	-0.899159	-0.399697	0.399846
O15	O	-1.108896	-0.309286	0.519178
O16	O	-1.108828	-0.519043	0.309477
O17	O	-1.018454	-0.519012	0.399861
C18	C	-0.872450	-0.354510	0.354645
C19	C	-0.790651	-0.354521	0.354653
C20	C	-1.063659	-0.545730	0.354685
C21	C	-1.063727	-0.627529	0.354717
C22	C	-0.602483	-0.401650	0.401660
C23	C	-0.525624	-0.401652	0.401669
C24	C	-0.525581	-0.307402	0.307681
C25	C	-0.602438	-0.307397	0.307677
C26	C	-0.640887	-0.354526	0.354665
C27	C	-0.487171	-0.354532	0.354678
C28	C	-0.403837	-0.354533	0.354686
C29	C	-0.724226	-0.354523	0.354658
C30	C	-1.063701	-0.354473	0.546622
C31	C	-1.063720	-0.354452	0.628421
C32	C	-0.255609	-0.354537	0.354690
C33	C	-0.337408	-0.354536	0.354690
C34	C	-1.063673	-0.162571	0.354669
C35	C	-1.063681	-0.080772	0.354669
C36	C	-1.016624	0.107414	0.307621
C37	C	-1.016630	0.184273	0.307629
C38	C	-1.110786	0.184279	0.401770
C39	C	-1.110776	0.107422	0.401765
C40	C	-1.063696	0.068991	0.354685
C41	C	-1.063712	0.222707	0.354700
C42	C	-1.063719	0.306041	0.354710
C43	C	-1.063687	-0.014348	0.354676
C44	C	-1.063654	-0.354522	0.163463
C45	C	-1.063777	-0.354336	0.081664
C46	C	-1.110810	-0.307342	0.816622
C47	C	-1.110819	-0.307321	0.893481
C48	C	-1.016681	-0.401447	0.893458
C49	C	-1.016669	-0.401465	0.816600
C50	C	-1.063738	-0.354413	0.778185
C51	C	-1.063759	-0.354374	0.931901
C52	C	-1.063768	-0.354352	1.015234
C53	C	-1.063728	-0.354435	0.694846
H54	H	-0.633786	-0.440023	0.439924
F55	F	-1.160874	0.066527	0.451865
H56	H	-1.149134	-0.269028	0.785346
H57	H	-1.149118	0.215577	0.440100
H58	H	-1.149149	-0.268990	0.924773
F59	F	-0.966526	0.225162	0.257540
H60	H	-0.978362	-0.439757	0.924745
F61	F	-0.966563	-0.451563	0.775690
H62	H	-0.494359	-0.440025	0.439938
H63	H	-0.633708	-0.269018	0.269408
F64	F	-0.484654	-0.257249	0.257674
F65	F	-0.966515	0.066516	0.257517
