data_functionalizedCrystal
_audit_creation_method	'MofGen! by Chris Wilmer'
_symmetry_space_group_name_H-M	'P1'
_symmetry_Int_Tables_number	1
_symmetry_cell_setting	triclinic
loop_
_symmetry_equiv_pos_as_xyz
  x,y,z
_cell_length_a	18.215407
_cell_length_b	12.759394
_cell_length_c	18.215399
_cell_angle_alpha	90.023582
_cell_angle_beta	90.019833
_cell_angle_gamma	90.014304
loop_
_atom_site_label
_atom_site_type_symbol
_atom_site_fract_x
_atom_site_fract_y
_atom_site_fract_z
Zn1	Zn	1.125128	-0.418265	0.416138
Zn2	Zn	1.625128	0.081735	0.916138
Zn3	Zn	1.125060	-0.593962	0.293081
Zn4	Zn	1.625060	-0.093962	0.793081
Zn5	Zn	1.002061	-0.418299	0.293086
Zn6	Zn	1.502061	0.081701	0.793086
Zn7	Zn	1.002050	-0.593904	0.416106
Zn8	Zn	1.502050	-0.093904	0.916106
O9	O	1.063575	-0.506107	0.354603
O10	O	1.563575	-0.006107	0.854603
O11	O	1.228104	-0.441581	0.399826
O12	O	1.728104	0.058419	0.899826
O13	O	1.108720	-0.570699	0.190098
O14	O	1.608720	-0.070699	0.690098
O15	O	1.018419	-0.271273	0.309424
O16	O	1.518419	0.228727	0.809424
O17	O	1.228054	-0.570666	0.309417
O18	O	1.728054	-0.070666	0.809417
O19	O	1.108836	-0.271248	0.399830
O20	O	1.608836	0.228752	0.899830
O21	O	1.018353	-0.441640	0.190101
O22	O	1.518353	0.058360	0.690101
O23	O	0.899075	-0.441583	0.309393
O24	O	1.399075	0.058417	0.809393
O25	O	1.018401	-0.570566	0.519095
O26	O	1.518401	-0.070566	1.019095
O27	O	0.899068	-0.570599	0.399776
O28	O	1.399068	-0.070599	0.899776
O29	O	1.108826	-0.441525	0.519118
O30	O	1.608826	0.058475	1.019118
O31	O	1.108710	-0.740975	0.309386
O32	O	1.608710	-0.240975	0.809386
O33	O	1.018335	-0.740932	0.399772
O34	O	1.518335	-0.240932	0.899772
C35	C	0.872369	-0.506089	0.354582
C36	C	1.372369	-0.006089	0.854582
C37	C	0.790570	-0.506107	0.354590
C38	C	1.290570	-0.006107	0.854590
C39	C	1.063534	-0.779075	0.354591
C40	C	1.563534	-0.279075	0.854591
C41	C	1.063584	-0.895852	0.354610
C42	C	1.563584	-0.395852	0.854610
C43	C	0.602391	-0.573391	0.401593
C44	C	1.102391	-0.073391	0.901593
C45	C	0.525533	-0.573395	0.401603
C46	C	1.025533	-0.073395	0.901603
C47	C	0.525511	-0.438843	0.307628
C48	C	1.025511	0.061157	0.807628
C49	C	0.602368	-0.438835	0.307623
C50	C	1.102368	0.061165	0.807623
C51	C	0.640806	-0.506115	0.354605
C52	C	1.140806	-0.006115	0.854605
C53	C	0.487090	-0.506126	0.354619
C54	C	0.987090	-0.006126	0.854619
C55	C	0.403757	-0.506129	0.354629
C56	C	0.903757	-0.006129	0.854629
C57	C	0.724145	-0.506111	0.354596
C58	C	1.224145	-0.006111	0.854596
C59	C	1.157665	-0.895667	0.448821
C60	C	1.657665	-0.395667	0.948821
C61	C	1.204728	-0.950436	0.495932
C62	C	1.704728	-0.450436	0.995932
C63	C	1.204772	-1.060157	0.495947
C64	C	1.704772	-0.560157	0.995947
C65	C	1.157746	-1.115113	0.448849
C66	C	1.657746	-0.615113	0.948849
C67	C	1.110682	-1.060344	0.401738
C68	C	1.610682	-0.560344	0.901738
C69	C	1.110645	-0.950620	0.401726
C70	C	1.610645	-0.450620	0.901726
C71	C	1.016599	-1.060529	0.307532
C72	C	1.516599	-0.560529	0.807532
C73	C	1.016557	-0.950807	0.307512
C74	C	1.516557	-0.450807	0.807512
C75	C	0.969572	-1.115484	0.260434
C76	C	1.469572	-0.615484	0.760434
C77	C	0.922511	-1.060716	0.213318
C78	C	1.422511	-0.560716	0.713318
C79	C	0.922470	-0.950987	0.213304
C80	C	1.422470	-0.450987	0.713304
C81	C	0.969494	-0.896039	0.260401
C82	C	1.469494	-0.396039	0.760401
C83	C	1.255528	-0.506126	0.354624
C84	C	1.755528	-0.006126	0.854624
C85	C	1.337327	-0.506134	0.354634
C86	C	1.837327	-0.006134	0.854634
C87	C	1.063620	-0.506035	0.546556
C88	C	1.563620	-0.006035	1.046556
C89	C	1.063639	-0.506004	0.628355
C90	C	1.563639	-0.006004	1.128355
C91	C	1.063636	-0.232074	0.354631
C92	C	1.563636	0.267926	0.854631
C93	C	1.063662	-0.115297	0.354643
C94	C	1.563662	0.384703	0.854643
C95	C	1.063573	-0.506104	0.163397
C96	C	1.563573	-0.006104	0.663397
C97	C	1.063696	-0.505839	0.081598
C98	C	1.563696	-0.005839	0.581598
C99	C	1.110740	-0.438749	0.816562
C100	C	1.610740	0.061251	1.316562
C101	C	1.110749	-0.438719	0.893421
C102	C	1.610749	0.061281	1.393421
C103	C	1.016590	-0.573096	0.893385
C104	C	1.516590	-0.073096	1.393385
C105	C	1.016578	-0.573121	0.816528
C106	C	1.516578	-0.073121	1.316528
C107	C	1.063657	-0.505949	0.778118
C108	C	1.563657	-0.005949	1.278118
C109	C	1.063678	-0.505894	0.931835
C110	C	1.563678	-0.005894	1.431835
C111	C	1.063687	-0.505861	1.015168
C112	C	1.563687	-0.005861	1.515168
C113	C	1.063647	-0.505980	0.694779
C114	C	1.563647	-0.005980	1.194779
H115	H	0.633685	-0.628173	0.439851
H116	H	1.133685	-0.128173	0.939851
C117	C	0.644628	-0.364829	0.255932
C118	C	1.144628	0.135171	0.755932
H119	H	0.610729	-0.324771	0.227945
H120	H	1.110729	0.175229	0.727945
H121	H	0.674628	-0.319101	0.284136
H122	H	1.174628	0.180899	0.784136
H123	H	0.674591	-0.404966	0.223817
H124	H	1.174591	0.095034	0.723817
C125	C	0.969615	-1.236175	0.260449
C126	C	1.469615	-0.736175	0.760449
H127	H	0.934865	-1.261057	0.225657
H128	H	1.434865	-0.761057	0.725657
H129	H	1.017120	-1.260956	0.247764
H130	H	1.517120	-0.760956	0.747764
H131	H	0.956872	-1.260969	0.307936
H132	H	1.456872	-0.760969	0.807936
H133	H	1.157641	-0.806326	0.448806
H134	H	1.657641	-0.306326	0.948806
H135	H	1.243016	-0.905681	0.534280
H136	H	1.743016	-0.405681	1.034280
C137	C	0.870698	-0.890750	0.161481
C138	C	1.370698	-0.390750	0.661481
H139	H	0.842704	-0.939197	0.133434
H140	H	1.342704	-0.439197	0.633434
H141	H	0.838605	-0.847956	0.189599
H142	H	1.338605	-0.347956	0.689599
H143	H	0.898853	-0.847948	0.129427
H144	H	1.398853	-0.347948	0.629427
H145	H	0.978261	-0.627787	0.924668
H146	H	1.478261	-0.127787	1.424668
C147	C	1.256543	-1.120405	0.547765
C148	C	1.756543	-0.620405	1.047765
H149	H	1.284548	-1.071966	0.575809
H150	H	1.784548	-0.571966	1.075809
H151	H	1.228394	-1.163217	0.579810
H152	H	1.728394	-0.663217	1.079810
H153	H	1.288639	-1.163190	0.519635
H154	H	1.788639	-0.663190	1.019635
C155	C	1.157792	-1.235803	0.448870
C156	C	1.657792	-0.735803	0.948870
H157	H	1.192557	-1.260550	0.483671
H158	H	1.692557	-0.760550	0.983671
H159	H	1.110304	-1.260667	0.461557
H160	H	1.610304	-0.760667	0.961557
H161	H	1.170557	-1.260650	0.401390
H162	H	1.670557	-0.760650	0.901390
C163	C	0.964789	-0.647051	0.774237
C164	C	1.464789	-0.147051	1.274237
H165	H	0.936761	-0.687064	0.808118
H166	H	1.436761	-0.187064	1.308118
H167	H	0.932727	-0.606873	0.744251
H168	H	1.432727	-0.106873	1.244251
H169	H	0.992936	-0.692839	0.744257
H170	H	1.492936	-0.192839	1.244257
H171	H	0.494258	-0.628176	0.439866
H172	H	0.994258	-0.128176	0.939866
H173	H	0.884222	-1.105469	0.174978
H174	H	1.384222	-0.605469	0.674978
H175	H	0.494205	-0.384067	0.269377
H176	H	0.994205	0.115933	0.769377
H177	H	0.969468	-0.806697	0.260390
H178	H	1.469468	-0.306697	0.760390
C179	C	1.162515	-0.364851	0.774314
C180	C	1.662515	0.135149	1.274314
H181	H	1.190551	-0.324817	0.808221
H182	H	1.690551	0.175183	1.308221
H183	H	1.194571	-0.405043	0.744330
H184	H	1.694571	0.094957	1.244330
H185	H	1.134359	-0.319081	0.744336
H186	H	1.634359	0.180919	1.244336
C187	C	1.162543	-0.364804	0.935706
C188	C	1.662543	0.135196	1.435706
H189	H	1.190582	-0.324812	0.901821
H190	H	1.690582	0.175188	1.401821
H191	H	1.134409	-0.319013	0.965689
H192	H	1.634409	0.180987	1.465689
H193	H	1.194607	-0.404995	0.965689
H194	H	1.694607	0.095005	1.465689
