data_functionalizedCrystal
_audit_creation_method	'MofGen! by Chris Wilmer'
_symmetry_space_group_name_H-M	'P1'
_symmetry_Int_Tables_number	1
_symmetry_cell_setting	triclinic
loop_
_symmetry_equiv_pos_as_xyz
  x,y,z
_cell_length_a	10.685904
_cell_length_b	18.050590
_cell_length_c	10.686551
_cell_angle_alpha	94.409718
_cell_angle_beta	98.408451
_cell_angle_gamma	94.385190
loop_
_atom_site_label
_atom_site_type_symbol
_atom_site_fract_x
_atom_site_fract_y
_atom_site_fract_z
Zn1	Zn	1.995784	-0.166454	0.866689
Zn2	Zn	1.979346	-0.300994	0.654408
Zn3	Zn	1.767207	-0.187125	0.638150
Zn4	Zn	1.783468	-0.300922	0.850318
O5	O	1.881451	-0.238874	0.752391
O6	O	2.171240	-0.175681	0.852185
O7	O	1.937520	-0.294570	0.474618
O8	O	1.797603	-0.080453	0.668514
O9	O	2.159162	-0.274526	0.696223
O10	O	1.965538	-0.065266	0.836421
O11	O	1.781663	-0.210911	0.462674
O12	O	1.591728	-0.210841	0.652639
O13	O	1.825317	-0.274404	1.030123
O14	O	1.603675	-0.294448	0.808518
O15	O	1.981305	-0.175611	1.042151
O16	O	1.953288	-0.404915	0.680348
O17	O	1.809377	-0.404862	0.824282
C18	C	1.551643	-0.254880	0.727038
C19	C	1.410551	-0.261744	0.716222
C20	C	1.881350	-0.431833	0.752333
C21	C	1.881426	-0.514374	0.752360
C22	C	1.959870	-0.713812	0.674220
C23	C	1.999776	-0.755996	0.792452
C24	C	1.881502	-0.665499	0.752416
C25	C	1.841729	-0.770388	0.634246
C26	C	1.881577	-0.811478	0.752460
C27	C	1.921472	-0.706589	0.870713
C28	C	1.763365	-0.720983	0.712425
C29	C	1.803233	-0.763143	0.830733
C30	C	1.881462	-0.581404	0.752389
C31	C	1.881618	-0.895571	0.752500
C32	C	2.212548	-0.222806	0.777844
C33	C	2.353642	-0.215959	0.788690
C34	C	1.906959	-0.222694	1.083483
C35	C	1.917828	-0.215799	1.224574
C36	C	1.881590	-0.045158	0.752480
C37	C	1.881649	0.037392	0.752518
C38	C	1.856116	-0.254934	0.422593
C39	C	1.845493	-0.261608	0.281522
H40	H	1.412864	-0.171505	0.859005
H41	H	1.736999	-0.784665	0.896962
H42	H	1.955051	-0.678897	0.970743
H43	H	1.663452	-0.705351	0.678542
Cl44	Cl	2.026299	-0.147103	1.315953
H45	H	2.026173	-0.692142	0.608169
Cl46	Cl	2.154079	-0.780089	0.844738
Cl47	Cl	1.737041	-0.330308	1.190150
Cl48	Cl	1.319130	-0.330367	0.607649
H49	H	1.808059	-0.798172	0.534294
