data_functionalizedCrystal
_audit_creation_method	'MofGen! by Chris Wilmer'
_symmetry_space_group_name_H-M	'P1'
_symmetry_Int_Tables_number	1
_symmetry_cell_setting	triclinic
loop_
_symmetry_equiv_pos_as_xyz
  x,y,z
_cell_length_a	17.038272
_cell_length_b	9.065218
_cell_length_c	8.140239
_cell_angle_alpha	89.998670
_cell_angle_beta	89.995864
_cell_angle_gamma	91.936279
loop_
_atom_site_label
_atom_site_type_symbol
_atom_site_fract_x
_atom_site_fract_y
_atom_site_fract_z
O1	O	1.039679	-0.320647	0.136397
O2	O	1.539679	0.179353	0.636397
O3	O	0.812011	-0.315556	0.136445
O4	O	1.312011	0.184444	0.636445
O5	O	0.930551	-0.103931	0.136417
O6	O	1.430551	0.396069	0.636417
O7	O	0.921139	-0.532272	0.136425
O8	O	1.421139	-0.032272	0.636425
O9	O	0.930547	-0.103929	-0.136810
O10	O	1.430547	0.396071	0.363190
O11	O	0.812007	-0.315554	-0.136782
O12	O	1.312007	0.184446	0.363218
O13	O	1.039675	-0.320645	-0.136830
O14	O	1.539675	0.179355	0.363170
Zn15	Zn	0.925841	-0.318099	-0.180187
Zn16	Zn	1.425841	0.181901	0.319813
Zn17	Zn	0.925846	-0.318102	0.179802
Zn18	Zn	1.425846	0.181898	0.679802
O19	O	0.921135	-0.532270	-0.136802
O20	O	1.421135	-0.032270	0.363198
C21	C	0.782848	-0.310924	-0.000162
C22	C	1.282848	0.189076	0.499838
C23	C	0.695955	-0.297108	-0.000143
C24	C	1.195955	0.202892	0.499857
C25	C	0.646757	-0.423956	-0.000142
C26	C	1.146757	0.076044	0.499858
C27	C	0.565112	-0.410965	-0.000165
C28	C	1.065112	0.089035	0.499835
C29	C	0.532668	-0.271125	-0.000177
C30	C	1.032668	0.228875	0.499823
C31	C	0.581873	-0.144268	-0.000184
C32	C	1.081873	0.355732	0.499816
C33	C	0.663515	-0.157260	-0.000172
C34	C	1.163515	0.342740	0.499828
C35	C	0.286579	-0.225228	-0.000222
C36	C	0.786579	0.274772	0.499778
C37	C	0.204929	-0.212245	-0.000229
C38	C	0.704929	0.287755	0.499771
C39	C	0.188175	-0.478944	-0.000213
C40	C	0.688175	0.021056	0.499787
C41	C	0.269820	-0.491923	-0.000192
C42	C	0.769820	0.008077	0.499808
C43	C	0.319017	-0.365066	-0.000207
C44	C	0.819017	0.134934	0.499793
C45	C	0.449214	-0.257844	-0.000196
C46	C	0.949214	0.242156	0.499804
C47	C	0.402469	-0.378349	-0.000200
C48	C	0.902469	0.121651	0.499800
C49	C	1.068838	-0.325277	-0.000219
C50	C	1.568838	0.174723	0.499781
C51	C	1.155731	-0.339093	-0.000227
C52	C	1.655731	0.160907	0.499773
C53	C	0.929644	-0.048853	-0.000194
C54	C	1.429644	0.451147	0.499806
C55	C	0.926940	0.115262	-0.000186
C56	C	1.426940	0.615262	0.499814
N57	N	0.925843	-0.318097	-0.425869
N58	N	1.425843	0.181903	0.074131
C59	C	0.922042	-0.587348	-0.000187
C60	C	1.422042	-0.087348	0.499813
C61	C	0.924746	-0.751462	-0.000185
C62	C	1.424746	-0.251462	0.499815
N63	N	0.925849	-0.318093	0.425484
N64	N	1.425849	0.181907	0.925484
H65	H	0.555450	-0.030407	-0.000217
H66	H	1.055450	0.469593	0.499783
H67	H	0.422789	-0.143985	-0.000252
H68	H	0.922789	0.356015	0.499748
F69	F	0.338928	-0.090213	-0.000238
F70	F	0.838928	0.409787	0.499762
H71	H	0.673166	-0.537828	-0.000131
H72	H	1.173166	-0.037828	0.499869
H73	H	0.148110	-0.582223	-0.000204
H74	H	0.648110	-0.082223	0.499796
H75	H	0.703572	-0.053966	-0.000173
H76	H	1.203572	0.446034	0.499827
F77	F	0.512755	-0.545975	-0.000156
F78	F	1.012755	-0.045975	0.499844
F79	F	0.304343	-0.640760	-0.000170
F80	F	0.804343	-0.140760	0.499830
H81	H	0.178517	-0.098365	-0.000237
H82	H	0.678517	0.401635	0.499763
H83	H	0.428889	-0.492206	-0.000199
H84	H	0.928889	0.007794	0.499801
