data_functionalizedCrystal
_audit_creation_method	'MofGen! by Chris Wilmer'
_symmetry_space_group_name_H-M	'P1'
_symmetry_Int_Tables_number	1
_symmetry_cell_setting	triclinic
loop_
_symmetry_equiv_pos_as_xyz
  x,y,z
_cell_length_a	12.759401
_cell_length_b	21.295417
_cell_length_c	12.759393
_cell_angle_alpha	89.961905
_cell_angle_beta	89.980324
_cell_angle_gamma	90.030933
loop_
_atom_site_label
_atom_site_type_symbol
_atom_site_fract_x
_atom_site_fract_y
_atom_site_fract_z
Zn1	Zn	1.606151	-0.250572	-0.593929
Zn2	Zn	1.605994	-0.355854	-0.418226
Zn3	Zn	1.430450	-0.250603	-0.418268
Zn4	Zn	1.430393	-0.355808	-0.593867
O5	O	1.518247	-0.303209	-0.506073
O6	O	1.753151	-0.264544	-0.570630
O7	O	1.582665	-0.341924	-0.271210
O8	O	1.453846	-0.162509	-0.441614
O9	O	1.753035	-0.341894	-0.441542
O10	O	1.582933	-0.162486	-0.570671
O11	O	1.453694	-0.264597	-0.271242
O12	O	1.283421	-0.264553	-0.441553
O13	O	1.453750	-0.341815	-0.740896
O14	O	1.283380	-0.341846	-0.570565
O15	O	1.582878	-0.264499	-0.740942
O16	O	1.582610	-0.443937	-0.441482
O17	O	1.453597	-0.443903	-0.570524
C18	C	1.245279	-0.303198	-0.506058
C19	C	1.128503	-0.303209	-0.506076
C20	C	1.073702	-0.263005	-0.573396
C21	C	0.963978	-0.263012	-0.573403
C22	C	0.963866	-0.343430	-0.438767
C23	C	1.073588	-0.343420	-0.438756
C24	C	1.518109	-0.466761	-0.506014
C25	C	1.518146	-0.536729	-0.506025
C26	C	1.585383	-0.569592	-0.438901
C27	C	1.585432	-0.635335	-0.438925
C28	C	1.518226	-0.668211	-0.506061
C29	C	1.450985	-0.635340	-0.573198
C30	C	1.450945	-0.569599	-0.573180
N31	N	1.426319	-0.771477	-0.514065
N32	N	1.426360	-0.833928	-0.514076
C33	C	1.518344	-0.866286	-0.506121
N34	N	1.610287	-0.833833	-0.498134
N35	N	1.610245	-0.771376	-0.498117
C36	C	1.518262	-0.739497	-0.506089
C37	C	1.585639	-0.970435	-0.439019
C38	C	1.585690	-1.036178	-0.439050
C39	C	1.451233	-1.036183	-0.573318
C40	C	1.451192	-0.970440	-0.573293
C41	C	1.518393	-0.937570	-0.506138
C42	C	1.792280	-0.303220	-0.506088
C43	C	1.909057	-0.303225	-0.506095
C44	C	1.518325	-0.303149	-0.780106
C45	C	1.518359	-0.303123	-0.896883
C46	C	1.518414	-0.139019	-0.506154
C47	C	1.518485	-0.069051	-0.506189
C48	C	1.585601	-0.262858	-0.951770
C49	C	1.585619	-0.262831	-1.061494
C50	C	1.451149	-0.343339	-1.061434
C51	C	1.451127	-0.343363	-0.951712
C52	C	1.518229	-0.303224	-0.233105
C53	C	1.518399	-0.303072	-0.116329
H54	H	1.118208	-0.376160	-0.383930
C55	C	1.659313	-0.533439	-0.365046
H56	H	1.699372	-0.562430	-0.325079
H57	H	1.619138	-0.507835	-0.319227
H58	H	1.705059	-0.507752	-0.405277
H59	H	1.396414	-0.376102	-1.106089
C60	C	1.659387	-0.671492	-0.365078
H61	H	1.699398	-0.642500	-0.325076
H62	H	1.705161	-0.697096	-0.405304
H63	H	1.619218	-0.697178	-0.319276
C64	C	1.659568	-0.934275	-0.365165
H65	H	1.699632	-0.963266	-0.325202
H66	H	1.619389	-0.908675	-0.319343
H67	H	1.705308	-0.908584	-0.405396
C68	C	0.903696	-0.218791	-0.647457
H69	H	0.830484	-0.224550	-0.637817
H70	H	0.921702	-0.228054	-0.718016
H71	H	0.921702	-0.176481	-0.632207
C72	C	1.376980	-0.533445	-0.647013
H73	H	1.386585	-0.489584	-0.637390
H74	H	1.306403	-0.544265	-0.631585
H75	H	1.392336	-0.544173	-0.717624
C76	C	1.659543	-0.218593	-0.891457
H77	H	1.649909	-0.224376	-0.818248
H78	H	1.644215	-0.176293	-0.909458
H79	H	1.730131	-0.227809	-0.909445
C80	C	1.377158	-0.387655	-0.891327
H81	H	1.386767	-0.381900	-0.818128
H82	H	1.392488	-0.429948	-0.909284
H83	H	1.306578	-0.378429	-0.909303
H84	H	1.118410	-0.230260	-0.628210
H85	H	0.919140	-0.376170	-0.383959
H86	H	1.640373	-0.230042	-1.106179
C87	C	1.377058	-0.671501	-0.647043
H88	H	1.386703	-0.715362	-0.637434
H89	H	1.392389	-0.660686	-0.717645
H90	H	1.306465	-0.660772	-0.631597
C91	C	1.659640	-1.072331	-0.365200
H92	H	1.650046	-1.116193	-0.374832
H93	H	1.644277	-1.061599	-0.294598
H94	H	1.730225	-1.061513	-0.380621
C95	C	1.377313	-1.072339	-0.647172
H96	H	1.386963	-1.116199	-0.637568
H97	H	1.392646	-1.061519	-0.717771
H98	H	1.306718	-1.061613	-0.631727
C99	C	1.377217	-0.934289	-0.647116
H100	H	1.337191	-0.963283	-0.687098
H101	H	1.417362	-0.908596	-0.692921
H102	H	1.331443	-0.908691	-0.606868
