data_functionalizedCrystal
_audit_creation_method	'MofGen! by Chris Wilmer'
_symmetry_space_group_name_H-M	'P1'
_symmetry_Int_Tables_number	1
_symmetry_cell_setting	triclinic
loop_
_symmetry_equiv_pos_as_xyz
  x,y,z
_cell_length_a	11.169417
_cell_length_b	12.594516
_cell_length_c	11.169409
_cell_angle_alpha	89.968704
_cell_angle_beta	89.979747
_cell_angle_gamma	90.017302
loop_
_atom_site_label
_atom_site_type_symbol
_atom_site_fract_x
_atom_site_fract_y
_atom_site_fract_z
Zn1	Zn	1.834923	-0.423621	-0.678541
Zn2	Zn	2.334923	0.076379	-0.178541
Zn3	Zn	1.834790	-0.601647	-0.477861
Zn4	Zn	2.334790	-0.101647	0.022139
Zn5	Zn	1.634207	-0.423687	-0.477876
Zn6	Zn	2.134207	0.076313	0.022124
Zn7	Zn	1.634197	-0.601562	-0.678507
Zn8	Zn	2.134197	-0.101562	-0.178507
O9	O	1.734529	-0.512629	-0.578196
O10	O	2.234529	-0.012629	-0.078196
O11	O	2.002855	-0.447245	-0.651928
O12	O	2.502855	0.052755	-0.151928
O13	O	1.808131	-0.578104	-0.309913
O14	O	2.308131	-0.078104	0.190087
O15	O	1.660892	-0.274732	-0.504515
O16	O	2.160892	0.225268	-0.004515
O17	O	2.002758	-0.578040	-0.504490
O18	O	2.502758	-0.078040	-0.004490
O19	O	1.808358	-0.274684	-0.651943
O20	O	2.308358	0.225316	-0.151943
O21	O	1.660763	-0.447357	-0.309925
O22	O	2.160763	0.052643	0.190075
O23	O	1.466256	-0.447274	-0.504483
O24	O	1.966256	0.052726	-0.004483
O25	O	1.660875	-0.577894	-0.846462
O26	O	2.160875	-0.077894	-0.346462
O27	O	1.466248	-0.577958	-0.651885
O28	O	1.966248	-0.077958	-0.151885
O29	O	1.808348	-0.447162	-0.846486
O30	O	2.308348	0.052838	-0.346486
O31	O	1.808121	-0.750582	-0.504457
O32	O	2.308121	-0.250582	-0.004457
O33	O	1.660746	-0.750519	-0.651871
O34	O	2.160746	-0.250519	-0.151871
C35	C	1.422705	-0.512615	-0.578183
C36	C	1.922705	-0.012615	-0.078183
C37	C	1.289305	-0.512634	-0.578205
C38	C	1.789305	-0.012634	-0.078205
C39	C	1.734451	-0.789170	-0.578185
C40	C	2.234451	-0.289170	-0.078185
C41	C	1.734527	-0.907476	-0.578220
C42	C	2.234527	-0.407476	-0.078220
C43	C	1.654362	-0.976733	-0.658342
C44	C	2.154362	-0.476733	-0.158342
C45	C	1.625114	-1.047608	-0.548829
C46	C	2.125114	-0.547608	-0.048829
C47	C	1.763884	-1.047400	-0.687752
C48	C	2.263884	-0.547400	-0.187752
C49	C	1.705221	-0.976792	-0.468649
C50	C	2.205221	-0.476792	0.031351
C51	C	1.844042	-0.976578	-0.607646
C52	C	2.344042	-0.476578	-0.107646
C53	C	1.814836	-1.047420	-0.498057
C54	C	2.314836	-0.547420	0.001943
C55	C	2.047572	-0.512644	-0.578211
C56	C	2.547572	-0.012644	-0.078211
C57	C	2.180972	-0.512651	-0.578217
C58	C	2.680972	-0.012651	-0.078217
C59	C	1.734625	-0.512511	-0.891239
C60	C	2.234625	-0.012511	-0.391239
C61	C	1.734666	-0.512461	-1.024639
C62	C	2.234666	-0.012461	-0.524639
C63	C	1.734641	-0.235008	-0.578235
C64	C	2.234641	0.264992	-0.078235
C65	C	1.734689	-0.116703	-0.578251
C66	C	2.234689	0.383297	-0.078251
C67	C	1.734503	-0.512670	-0.266372
C68	C	2.234503	-0.012670	0.233628
C69	C	1.734694	-0.512420	-0.132972
C70	C	2.234694	-0.012420	0.367028
H71	H	1.586447	-0.945695	-0.726000
H72	H	2.086447	-0.445695	-0.226000
F73	F	1.672715	-0.936424	-0.347556
F74	F	2.172715	-0.436424	0.152444
H75	H	1.532574	-1.078831	-0.523966
H76	H	2.032574	-0.578831	-0.023966
F77	F	1.903540	-1.087734	-0.409413
F78	F	2.403540	-0.587734	0.090587
F79	F	1.964972	-0.935768	-0.640211
F80	F	2.464972	-0.435768	-0.140211
F81	F	1.796253	-1.087945	-0.808807
F82	F	2.296253	-0.587945	-0.308807
