data_functionalizedCrystal
_audit_creation_method	'MofGen! by Chris Wilmer'
_symmetry_space_group_name_H-M	'P1'
_symmetry_Int_Tables_number	1
_symmetry_cell_setting	triclinic
loop_
_symmetry_equiv_pos_as_xyz
  x,y,z
_cell_length_a	14.519731
_cell_length_b	15.944551
_cell_length_c	13.596369
_cell_angle_alpha	89.993059
_cell_angle_beta	89.994584
_cell_angle_gamma	83.593795
loop_
_atom_site_label
_atom_site_type_symbol
_atom_site_fract_x
_atom_site_fract_y
_atom_site_fract_z
O1	O	1.223664	0.110194	-0.081796
O2	O	1.556997	0.443527	0.251538
O3	O	1.890330	0.776861	0.584871
O4	O	0.955167	0.123142	-0.081797
O5	O	1.288500	0.456475	0.251536
O6	O	1.621833	0.789809	0.584869
O7	O	1.096747	-0.005596	-0.081788
O8	O	1.430081	0.327738	0.251546
O9	O	1.763414	0.661071	0.584879
O10	O	1.082083	0.238932	-0.081805
O11	O	1.415416	0.572265	0.251528
O12	O	1.748750	0.905598	0.584861
O13	O	1.096733	-0.005602	0.081795
O14	O	1.430066	0.327731	0.415129
O15	O	1.763400	0.661064	0.748462
O16	O	0.955153	0.123135	0.081785
O17	O	1.288486	0.456469	0.415119
O18	O	1.621819	0.789802	0.748452
O19	O	1.223650	0.110187	0.081787
O20	O	1.556983	0.443521	0.415121
O21	O	1.890316	0.776854	0.748454
Zn22	Zn	1.089399	0.116660	0.107759
Zn23	Zn	1.422732	0.449994	0.441092
Zn24	Zn	1.756065	0.783327	0.774425
Zn25	Zn	1.089417	0.116669	-0.107769
Zn26	Zn	1.422751	0.450003	0.225564
Zn27	Zn	1.756084	0.783336	0.558898
O28	O	1.082069	0.238925	0.081777
O29	O	1.415402	0.572258	0.415111
O30	O	1.748736	0.905592	0.748444
C31	C	0.920801	0.122532	-0.000006
C32	C	1.254135	0.455865	0.333327
C33	C	1.587468	0.789199	0.666661
C34	C	0.818424	0.120714	-0.000007
C35	C	1.151758	0.454047	0.333327
C36	C	1.485091	0.787381	0.666660
C37	C	0.735283	0.119237	-0.000010
C38	C	1.068616	0.452570	0.333323
C39	C	1.401949	0.785903	0.666656
C40	C	0.630977	0.117391	-0.000011
C41	C	0.964310	0.450724	0.333323
C42	C	1.297644	0.784058	0.666656
C43	C	0.547841	0.115926	-0.000010
C44	C	0.881174	0.449259	0.333323
C45	C	1.214507	0.782593	0.666656
C46	C	0.443528	0.114080	-0.000012
C47	C	0.776862	0.447414	0.333321
C48	C	1.110195	0.780747	0.666654
C49	C	1.096131	-0.036894	0.000004
C50	C	1.429465	0.296439	0.333337
C51	C	1.762798	0.629773	0.666671
C52	C	1.094306	-0.130143	0.000005
C53	C	1.427640	0.203191	0.333338
C54	C	1.760973	0.536524	0.666671
C55	C	1.002186	-0.345139	-0.000010
C56	C	1.335519	-0.011806	0.333324
C57	C	1.668852	0.321527	0.666657
C58	C	1.044957	-0.406095	0.080647
C59	C	1.378290	-0.072762	0.413980
C60	C	1.711623	0.260572	0.747314
C61	C	1.091005	-0.300874	-0.000003
C62	C	1.424338	0.032460	0.333330
C63	C	1.757671	0.365793	0.666664
C64	C	1.044991	-0.406072	-0.080633
C65	C	1.378325	-0.072738	0.252700
C66	C	1.711658	0.260595	0.586034
C67	C	1.087809	-0.465791	-0.000015
C68	C	1.421142	-0.132458	0.333319
C69	C	1.754475	0.200876	0.666652
C70	C	1.133800	-0.360601	0.080720
C71	C	1.467133	-0.027268	0.414053
C72	C	1.800466	0.306066	0.747387
C73	C	1.133822	-0.360571	-0.080632
C74	C	1.467155	-0.027238	0.252701
C75	C	1.800489	0.306095	0.586034
C76	C	1.176658	-0.421509	0.000044
C77	C	1.509991	-0.088176	0.333377
C78	C	1.843324	0.245158	0.666711
C79	C	1.092843	-0.205868	0.000004
C80	C	1.426176	0.127465	0.333338
C81	C	1.759510	0.460798	0.666671
C82	C	1.085977	-0.560795	-0.000015
C83	C	1.419310	-0.227462	0.333318
C84	C	1.752644	0.105872	0.666652
C85	C	1.258015	0.110797	-0.000006
C86	C	1.591348	0.444131	0.333327
C87	C	1.924682	0.777464	0.666660
C88	C	1.360392	0.112615	-0.000012
C89	C	1.693725	0.445949	0.333321
C90	C	2.027059	0.779282	0.666654
C91	C	1.082685	0.270223	-0.000016
C92	C	1.416018	0.603557	0.333317
C93	C	1.749351	0.936890	0.666650
C94	C	1.084510	0.363472	-0.000023
C95	C	1.417843	0.696805	0.333310
C96	C	1.751177	1.030139	0.666643
N97	N	1.089393	0.116654	0.254851
N98	N	1.422726	0.449987	0.588184
N99	N	1.756060	0.783320	0.921517
N100	N	1.089431	0.116669	-0.254861
N101	N	1.422764	0.450003	0.078473
N102	N	1.756097	0.783336	0.411806
C103	C	1.089416	0.116670	0.656141
C104	C	1.422749	0.450003	0.989475
C105	C	1.756083	0.783337	1.322808
C106	C	1.089407	0.116668	0.544490
C107	C	1.422740	0.450002	0.877823
C108	C	1.756074	0.783335	1.211157
C109	C	1.089405	0.116662	0.455500
C110	C	1.422738	0.449996	0.788833
C111	C	1.756072	0.783329	1.122166
C112	C	1.089395	0.116659	0.343841
C113	C	1.422728	0.449993	0.677174
C114	C	1.756062	0.783326	1.010508
H115	H	0.928462	-0.311944	0.000070
H116	H	1.261795	0.021389	0.333404
H117	H	1.595129	0.354723	0.666737
C118	C	1.184533	-0.333286	-0.172750
C119	C	1.517867	0.000048	0.160583
C120	C	1.851200	0.333381	0.493917
H121	H	1.152890	-0.348674	-0.230005
H122	H	1.486224	-0.015341	0.103328
H123	H	1.819557	0.317992	0.436662
H124	H	1.246165	-0.360487	-0.173330
H125	H	1.579498	-0.027154	0.160003
H126	H	1.912832	0.306179	0.493337
H127	H	1.185807	-0.273851	-0.171757
H128	H	1.519141	0.059482	0.161576
H129	H	1.852474	0.392816	0.494909
C130	C	1.276333	-0.466161	0.000105
C131	C	1.609666	-0.132828	0.333438
C132	C	1.942999	0.200505	0.666772
H133	H	1.307725	-0.450604	0.057451
H134	H	1.641059	-0.117271	0.390784
H135	H	1.974392	0.216063	0.724117
H136	H	1.308122	-0.449887	-0.056646
H137	H	1.641455	-0.116554	0.276688
H138	H	1.974789	0.216780	0.610021
H139	H	1.274639	-0.525549	-0.000430
H140	H	1.607972	-0.192216	0.332903
H141	H	1.941305	0.141117	0.666236
C142	C	0.994236	-0.433278	-0.172749
C143	C	1.327569	-0.099944	0.160584
C144	C	1.660903	0.233389	0.493917
H145	H	0.932264	-0.406855	-0.172644
H146	H	1.265597	-0.073522	0.160689
H147	H	1.598931	0.259812	0.494023
H148	H	0.993931	-0.492822	-0.172413
H149	H	1.327264	-0.159489	0.160921
H150	H	1.660597	0.173844	0.494254
H151	H	1.025192	-0.416920	-0.230023
H152	H	1.358525	-0.083586	0.103310
H153	H	1.691859	0.249747	0.436643
C154	C	1.184498	-0.333533	0.172941
C155	C	1.517831	-0.000200	0.506274
C156	C	1.851164	0.333133	0.839608
H157	H	1.204526	-0.381895	0.211406
H158	H	1.537859	-0.048561	0.544739
H159	H	1.871192	0.284772	0.878073
H160	H	1.143560	-0.295561	0.210643
H161	H	1.476893	0.037773	0.543976
H162	H	1.810227	0.371106	0.877310
H163	H	1.236697	-0.306456	0.153663
H164	H	1.570030	0.026878	0.486997
H165	H	1.903364	0.360211	0.820330
C166	C	0.994203	-0.433347	0.172760
C167	C	1.327536	-0.100013	0.506093
C168	C	1.660870	0.233320	0.839426
H169	H	0.932224	-0.406940	0.172663
H170	H	1.265558	-0.073607	0.505996
H171	H	1.598891	0.259726	0.839330
H172	H	1.025153	-0.417019	0.230035
H173	H	1.358487	-0.083686	0.563368
H174	H	1.691820	0.249648	0.896701
H175	H	0.993902	-0.492896	0.172395
H176	H	1.327236	-0.159563	0.505728
H177	H	1.660569	0.173770	0.839062
