data_functionalizedCrystal
_audit_creation_method	'MofGen! by Chris Wilmer'
_symmetry_space_group_name_H-M	'P1'
_symmetry_Int_Tables_number	1
_symmetry_cell_setting	triclinic
loop_
_symmetry_equiv_pos_as_xyz
  x,y,z
_cell_length_a	8.497365
_cell_length_b	17.077402
_cell_length_c	17.077404
_cell_angle_alpha	89.976892
_cell_angle_beta	90.034295
_cell_angle_gamma	89.944783
loop_
_atom_site_label
_atom_site_type_symbol
_atom_site_fract_x
_atom_site_fract_y
_atom_site_fract_z
Zn1	Zn	-0.891989	-0.312306	-1.200169
Zn2	Zn	-0.628174	-0.443640	-1.200042
Zn3	Zn	-0.628208	-0.312392	-1.068867
Zn4	Zn	-0.891898	-0.443535	-1.068869
O5	O	-0.760068	-0.377968	-1.134487
O6	O	-0.857018	-0.329736	-1.309999
O7	O	-0.407416	-0.426309	-1.182588
O8	O	-0.663252	-0.202534	-1.086337
O9	O	-0.663194	-0.426226	-1.309906
O10	O	-0.857051	-0.202471	-1.182804
O11	O	-0.407441	-0.329882	-1.086214
O12	O	-0.663163	-0.329781	-0.959021
O13	O	-1.112673	-0.426047	-1.086340
O14	O	-0.856895	-0.426130	-0.959022
O15	O	-1.112740	-0.329634	-1.182806
O16	O	-0.663105	-0.553473	-1.182590
O17	O	-0.856862	-0.553396	-1.086217
C18	C	-0.760024	-0.377954	-0.930539
C19	C	-0.760043	-0.377967	-0.843289
C20	C	-0.760005	-0.581916	-1.134411
C21	C	-0.760030	-0.669166	-1.134451
C22	C	-0.659250	-0.710170	-1.184683
C23	C	-0.659290	-0.792150	-1.184722
C24	C	-0.760104	-0.833125	-1.134523
C25	C	-0.860896	-0.792115	-1.084288
C26	C	-0.860863	-0.710136	-1.084254
C27	C	-0.860956	-0.962985	-1.084361
C28	C	-0.860988	-1.044970	-1.084394
C29	C	-0.659383	-1.044999	-1.184828
C30	C	-0.659350	-0.963020	-1.184794
C31	C	-0.760140	-0.922016	-1.134558
C32	C	-0.350187	-0.378054	-1.134430
C33	C	-0.171544	-0.377893	-1.134542
C34	C	-0.760112	-0.377983	-1.339231
C35	C	-0.760131	-0.377989	-1.426481
C36	C	-0.760165	-0.173224	-1.134584
C37	C	-0.760207	-0.085974	-1.134626
C38	C	-0.860757	-0.428212	-0.802320
C39	C	-0.860782	-0.428214	-0.720340
C40	C	-0.760084	-0.377974	-0.679330
C41	C	-0.659365	-0.327723	-0.720305
C42	C	-0.659349	-0.327718	-0.802284
C43	C	-0.659403	-0.327738	-0.549435
C44	C	-0.659417	-0.327744	-0.467450
C45	C	-0.860836	-0.428234	-0.467491
C46	C	-0.860820	-0.428229	-0.549470
C47	C	-0.760099	-0.377979	-0.590439
H48	H	-0.577223	-0.825532	-1.225625
H49	H	-0.577438	-0.286825	-0.434062
H50	H	-0.943109	-1.078329	-1.043532
H51	H	-0.577382	-0.286813	-0.686908
O52	O	-0.969661	-0.918763	-1.030172
H53	H	-1.049990	-0.881342	-1.065272
O54	O	-0.969622	-0.836314	-1.030144
H55	H	-1.093460	-0.820508	-1.043583
O56	O	-0.550520	-0.665986	-1.238837
H57	H	-0.621203	-0.628564	-1.278742
O58	O	-0.969542	-0.665904	-1.030067
H59	H	-1.039636	-0.708167	-0.995158
O60	O	-0.969394	-0.482395	-0.846542
H61	H	-1.049765	-0.447283	-0.883929
H62	H	-0.577251	-0.929659	-1.225666
O63	O	-0.969106	-0.482556	-0.676149
H64	H	-1.039000	-0.517551	-0.718438
H65	H	-0.577346	-0.286799	-0.835639
O66	O	-0.969432	-0.482412	-0.593708
H67	H	-1.039486	-0.517348	-0.551448
H68	H	-0.942852	-0.469147	-0.434130
O69	O	-0.550757	-0.273549	-0.593627
H70	H	-0.480719	-0.238623	-0.551340
H71	H	-0.577321	-1.078389	-1.225735
