data_functionalizedCrystal
_audit_creation_method	'MofGen! by Chris Wilmer'
_symmetry_space_group_name_H-M	'P1'
_symmetry_Int_Tables_number	1
_symmetry_cell_setting	triclinic
loop_
_symmetry_equiv_pos_as_xyz
  x,y,z
_cell_length_a	23.532361
_cell_length_b	27.732048
_cell_length_c	22.610064
_cell_angle_alpha	89.999096
_cell_angle_beta	89.996103
_cell_angle_gamma	82.736162
loop_
_atom_site_label
_atom_site_type_symbol
_atom_site_fract_x
_atom_site_fract_y
_atom_site_fract_z
O1	O	0.755156	0.058565	-0.049132
O2	O	1.255156	0.558565	0.450868
O3	O	0.589270	0.067079	-0.049147
O4	O	1.089270	0.567079	0.450853
O5	O	0.677365	-0.007568	-0.049127
O6	O	1.177365	0.492432	0.450873
O7	O	0.667061	0.133211	-0.049151
O8	O	1.167061	0.633211	0.450849
O9	O	0.677349	-0.007557	0.049242
O10	O	1.177349	0.492443	0.549242
O11	O	0.589255	0.067090	0.049223
O12	O	1.089255	0.567090	0.549223
O13	O	0.755140	0.058576	0.049238
O14	O	1.255140	0.558576	0.549238
Zn15	Zn	0.672195	0.062834	0.064848
Zn16	Zn	1.172195	0.562834	0.564848
Zn17	Zn	0.672215	0.062820	-0.064757
Zn18	Zn	1.172215	0.562820	0.435243
O19	O	0.667045	0.133222	0.049218
O20	O	1.167045	0.633222	0.549218
C21	C	0.568046	0.066871	0.000036
C22	C	1.068046	0.566871	0.500036
C23	C	0.504829	0.066230	0.000031
C24	C	1.004829	0.566230	0.500031
C25	C	0.231600	0.063420	-0.053586
C26	C	0.731600	0.563420	0.446414
C27	C	0.290999	0.064027	-0.053588
C28	C	0.790999	0.564027	0.446412
O29	O	0.321731	0.064319	-0.099189
O30	O	0.821731	0.564319	0.400811
N31	N	0.320695	0.064339	0.000034
N32	N	0.820695	0.564339	0.500034
C33	C	0.290991	0.064040	0.053660
C34	C	0.790991	0.564040	0.553660
O35	O	0.321704	0.064361	0.099269
O36	O	0.821704	0.564361	0.599269
C37	C	0.231594	0.063430	0.053661
C38	C	0.731594	0.563430	0.553661
C39	C	0.201900	0.063122	0.000036
C40	C	0.701900	0.563122	0.500036
C41	C	0.201906	0.063112	-0.107206
C42	C	0.701906	0.563112	0.392794
C43	C	0.142511	0.062506	-0.107205
C44	C	0.642511	0.562506	0.392795
C45	C	0.112811	0.062208	-0.053583
C46	C	0.612811	0.562208	0.446417
C47	C	0.142505	0.062516	0.000038
C48	C	0.642505	0.562516	0.500038
C49	C	0.201892	0.063127	0.107286
C50	C	0.701892	0.563127	0.607286
C51	C	0.142491	0.062516	0.107283
C52	C	0.642491	0.562516	0.607283
C53	C	0.112796	0.062209	0.053658
C54	C	0.612796	0.562209	0.553658
C55	C	0.053410	0.061613	0.053662
C56	C	0.553410	0.561613	0.553662
N57	N	0.023714	0.061300	0.000041
N58	N	0.523714	0.561300	0.500041
C59	C	0.053414	0.061598	-0.053582
C60	C	0.553414	0.561598	0.446418
C61	C	0.415728	0.065321	0.053654
C62	C	0.915728	0.565321	0.553654
C63	C	0.475123	0.065935	0.053653
C64	C	0.975123	0.565935	0.553653
C65	C	0.475127	0.065920	-0.053594
C66	C	0.975127	0.565920	0.446406
C67	C	0.415730	0.065310	-0.053593
C68	C	0.915730	0.565310	0.446407
C69	C	0.386032	0.065008	0.000033
C70	C	0.886032	0.565008	0.500033
C71	C	-0.071319	0.060326	-0.053574
C72	C	0.428681	0.560326	0.446426
C73	C	-0.130719	0.059722	-0.053567
C74	C	0.369281	0.559722	0.446433
C75	C	-0.130717	0.059734	0.053680
C76	C	0.369283	0.559734	0.553680
C77	C	-0.071322	0.060340	0.053674
C78	C	0.428678	0.560340	0.553674
C79	C	-0.041624	0.060635	0.000042
C80	C	0.458376	0.560635	0.500042
O81	O	0.022641	0.061318	0.099240
O82	O	0.522641	0.561318	0.599240
O83	O	0.022695	0.061271	-0.099183
O84	O	0.522695	0.561271	0.400817
C85	C	0.677141	-0.025570	0.000059
C86	C	1.177141	0.474430	0.500059
C87	C	0.676490	-0.079225	0.000064
C88	C	1.176490	0.420775	0.500064
C89	C	0.724448	-0.417973	0.000038
C90	C	1.224448	0.082027	0.500038
C91	C	0.722031	-0.619636	0.000029
C92	C	1.222031	-0.119636	0.500029
O93	O	0.765885	-0.650831	0.000007
O94	O	1.265885	-0.150831	0.500007
N95	N	0.669795	-0.638833	0.000025
N96	N	1.169795	-0.138833	0.500025
C97	C	0.618158	-0.607611	0.000019
C98	C	1.118158	-0.107611	0.500019
O99	O	0.573673	-0.628566	0.000009
O100	O	1.073673	-0.128566	0.500009
C101	C	0.620576	-0.405949	0.000023
C102	C	1.120576	0.094051	0.500023
C103	C	0.672815	-0.386755	0.000033
C104	C	1.172815	0.113245	0.500033
C105	C	0.776683	-0.398779	0.000047
C106	C	1.276683	0.101221	0.500047
C107	C	0.777287	-0.348366	0.000052
C108	C	1.277287	0.151634	0.500052
C109	C	0.725655	-0.317148	0.000048
C110	C	1.225655	0.182852	0.500048
C111	C	0.673419	-0.336342	0.000039
C112	C	1.173419	0.163658	0.500039
C113	C	0.568940	-0.374727	0.000013
C114	C	1.068940	0.125273	0.500013
C115	C	0.569549	-0.324309	0.000013
C116	C	1.069549	0.175691	0.500013
C117	C	0.621789	-0.305115	0.000023
C118	C	1.121789	0.194885	0.500023
C119	C	0.622391	-0.254711	0.000040
C120	C	1.122391	0.245289	0.500040
N121	N	0.674627	-0.235514	0.000044
N122	N	1.174627	0.264486	0.500044
C123	C	0.726259	-0.266733	0.000048
C124	C	1.226259	0.233267	0.500048
C125	C	0.616893	-0.713486	0.000018
C126	C	1.116893	-0.213486	0.500018
C127	C	0.616289	-0.763902	0.000018
C128	C	1.116289	-0.263902	0.500018
C129	C	0.720162	-0.775924	0.000027
C130	C	1.220162	-0.275924	0.500027
C131	C	0.720765	-0.725508	0.000031
C132	C	1.220765	-0.225508	0.500031
C133	C	0.669130	-0.694290	0.000022
C134	C	1.169130	-0.194290	0.500022
C135	C	0.727523	-0.160862	0.000060
C136	C	1.227523	0.339138	0.500060
C137	C	0.728122	-0.110444	0.000068
C138	C	1.228122	0.389556	0.500068
C139	C	0.624249	-0.098426	0.000056
C140	C	1.124249	0.401574	0.500056
C141	C	0.623650	-0.148839	0.000051
C142	C	1.123650	0.351161	0.500051
C143	C	0.675291	-0.180056	0.000051
C144	C	1.175291	0.319944	0.500051
O145	O	0.578560	-0.223488	0.000055
O146	O	1.078560	0.276512	0.500055
O147	O	0.770738	-0.245768	0.000045
O148	O	1.270738	0.254232	0.500045
C149	C	0.723844	-0.468386	0.000032
C150	C	1.223844	0.031614	0.500032
C151	C	0.671608	-0.487580	0.000023
C152	C	1.171608	0.012420	0.500023
C153	C	0.619976	-0.456362	0.000019
C154	C	1.119976	0.043638	0.500019
C155	C	0.671004	-0.537996	0.000023
C156	C	1.171004	-0.037996	0.500023
C157	C	0.722636	-0.569214	0.000027
C158	C	1.222636	-0.069214	0.500027
C159	C	0.774873	-0.550018	0.000031
C160	C	1.274873	-0.050018	0.500031
C161	C	0.775476	-0.499605	0.000036
C162	C	1.275476	0.000395	0.500036
C163	C	0.567740	-0.475559	0.000014
C164	C	1.067740	0.024441	0.500014
C165	C	0.567140	-0.525972	0.000010
C166	C	1.067140	-0.025972	0.500010
C167	C	0.618772	-0.557190	0.000014
C168	C	1.118772	-0.057190	0.500014
C169	C	0.776364	0.058784	0.000053
C170	C	1.276364	0.558784	0.500053
C171	C	0.839581	0.059425	0.000055
C172	C	1.339581	0.559425	0.500055
N173	N	0.672185	0.062844	0.153301
N174	N	1.172185	0.562844	0.653301
C175	C	0.667269	0.151224	0.000031
C176	C	1.167269	0.651224	0.500031
C177	C	0.667921	0.204880	0.000022
C178	C	1.167921	0.704880	0.500022
N179	N	0.672230	0.062807	-0.153210
N180	N	1.172230	0.562807	0.346790
C181	C	0.711225	0.029772	0.561951
C182	C	1.211225	0.529772	1.061951
C183	C	0.711228	0.029768	0.623871
C184	C	1.211228	0.529768	1.123871
O185	O	0.744398	0.001656	0.655897
O186	O	1.244398	0.501656	1.155897
N187	N	0.672215	0.062810	0.654838
N188	N	1.172215	0.562810	1.154838
C189	C	0.633192	0.095854	0.623882
C190	C	1.133192	0.595854	1.123882
O191	O	0.600008	0.123958	0.655908
O192	O	1.100008	0.623958	1.155908
C193	C	0.633187	0.095855	0.561963
C194	C	1.133187	0.595855	1.061963
C195	C	0.672207	0.062814	0.530999
C196	C	1.172207	0.562814	1.030999
C197	C	0.750242	-0.003267	0.530987
C198	C	1.250242	0.496733	1.030987
C199	C	0.750239	-0.003263	0.469071
C200	C	1.250239	0.496737	0.969071
C201	C	0.711221	0.029780	0.438119
C202	C	1.211221	0.529780	0.938119
C203	C	0.672205	0.062819	0.469084
C204	C	1.172205	0.562819	0.969084
C205	C	0.594162	0.128897	0.531009
C206	C	1.094162	0.628897	1.031009
C207	C	0.594160	0.128895	0.469086
C208	C	1.094160	0.628895	0.969086
C209	C	0.633180	0.095854	0.438122
C210	C	1.133180	0.595854	0.938122
C211	C	0.633184	0.095866	0.376216
C212	C	1.133184	0.595866	0.876216
N213	N	0.672197	0.062824	0.345249
N214	N	1.172197	0.562824	0.845249
C215	C	0.711216	0.029781	0.376201
C216	C	1.211216	0.529781	0.876201
C217	C	0.633206	0.095850	0.753916
C218	C	1.133206	0.595850	1.253916
C219	C	0.633213	0.095851	0.815833
C220	C	1.133213	0.595851	1.315833
C221	C	0.711248	0.029764	0.815818
C222	C	1.211248	0.529764	1.315818
C223	C	0.711243	0.029765	0.753899
C224	C	1.211243	0.529765	1.253899
C225	C	0.672219	0.062808	0.722948
C226	C	1.172219	0.562808	1.222948
C227	C	0.711208	0.029793	0.246173
C228	C	1.211208	0.529793	0.746173
C229	C	0.711204	0.029801	0.184252
C230	C	1.211204	0.529801	0.684252
C231	C	0.633166	0.095886	0.184273
C232	C	1.133166	0.595886	0.684273
C233	C	0.633172	0.095880	0.246189
C234	C	1.133172	0.595880	0.746189
C235	C	0.672195	0.062829	0.277138
C236	C	1.172195	0.562829	0.777138
O237	O	0.600030	0.123962	0.344151
O238	O	1.100030	0.623962	0.844151
O239	O	0.744389	0.001677	0.344167
O240	O	1.244389	0.501677	0.844167
H241	H	0.391557	0.065060	-0.097259
H242	H	0.891557	0.565060	0.402741
H243	H	0.499294	0.066193	0.097320
H244	H	0.999294	0.566193	0.597320
F245	F	0.831642	-0.431998	0.000051
F246	F	1.331642	0.068002	0.500051
F247	F	0.560688	-0.784323	0.000018
F248	F	1.060688	-0.284323	0.500018
F249	F	0.752772	-0.005402	0.720950
F250	F	1.252772	0.494598	1.220950
H251	H	0.742983	0.002879	0.271365
H252	H	1.242983	0.502879	0.771365
F253	F	0.569302	-0.065192	0.000051
F254	F	1.069302	0.434808	0.500051
F255	F	0.752775	-0.005403	0.848770
F256	F	1.252775	0.494597	1.348770
F257	F	0.552632	0.164063	0.563952
F258	F	1.052632	0.664063	1.063952
H259	H	0.762202	-0.801351	0.000031
H260	H	1.262202	-0.301351	0.500031
H261	H	0.118340	0.062254	-0.150872
H262	H	0.618340	0.562254	0.349128
F263	F	0.561931	-0.680267	0.000008
F264	F	1.061931	-0.180267	0.500008
H265	H	-0.047146	0.060600	0.097339
H266	H	0.452854	0.560600	0.597339
F267	F	-0.162337	0.059419	0.110746
F268	F	0.337663	0.559419	0.610746
F269	F	0.591672	0.131023	0.720981
F270	F	1.091672	0.631023	1.220981
H271	H	0.499320	0.066163	-0.097256
H272	H	0.999320	0.566163	0.402744
F273	F	0.782485	-0.194078	0.000060
F274	F	1.282485	0.305922	0.500060
H275	H	0.770664	-0.094820	0.000078
H276	H	1.270664	0.405180	0.500078
H277	H	0.391550	0.065081	0.097325
H278	H	0.891550	0.565081	0.597325
F279	F	0.591690	0.131024	0.848782
F280	F	1.091690	0.631024	1.348782
F281	F	0.552622	0.164063	0.436150
F282	F	1.052622	0.664063	0.936150
F283	F	0.591649	0.131051	0.279142
F284	F	1.091649	0.631051	0.779142
F285	F	0.832888	-0.327946	0.000051
F286	F	1.332888	0.172054	0.500051
H287	H	0.818015	-0.483982	0.000045
H288	H	1.318015	0.016018	0.500045
H289	H	0.601400	0.122791	0.159063
H290	H	1.101400	0.622791	0.659063
H291	H	0.526401	-0.390345	0.000001
H292	H	1.026401	0.109655	0.500001
F293	F	0.776365	-0.705085	0.000042
F294	F	1.276365	-0.205085	0.500042
F295	F	0.233482	0.063454	0.164362
F296	F	0.733482	0.563454	0.664362
H297	H	0.118313	0.062275	0.150952
H298	H	0.618313	0.562275	0.650952
H299	H	0.581112	-0.164467	0.000059
H300	H	1.081112	0.335533	0.500059
F301	F	-0.162318	0.059396	-0.110645
F302	F	0.337682	0.559396	0.389355
F303	F	0.233506	0.063428	-0.164284
F304	F	0.733506	0.563428	0.335716
F305	F	0.514589	-0.291087	0.000002
F306	F	1.014589	0.208913	0.500002
F307	F	0.511535	-0.546393	0.000003
F308	F	1.011535	-0.046393	0.500003
F309	F	-0.039720	0.060640	-0.110655
F310	F	0.460280	0.560640	0.389345
F311	F	0.829823	-0.583252	0.000039
F312	F	1.329823	-0.083252	0.500039
F313	F	0.512783	-0.442339	0.000008
F314	F	1.012783	0.057661	0.500008
H315	H	0.782011	-0.030169	0.443863
H316	H	1.282011	0.469831	0.943863
F317	F	0.752736	-0.005366	0.151301
F318	F	1.252736	0.494634	0.651301
F319	F	0.791773	-0.038439	0.563919
F320	F	1.291773	0.461561	1.063919
