data_functionalizedCrystal
_audit_creation_method	'MofGen! by Chris Wilmer'
_symmetry_space_group_name_H-M	'P1'
_symmetry_Int_Tables_number	1
_symmetry_cell_setting	triclinic
loop_
_symmetry_equiv_pos_as_xyz
  x,y,z
_cell_length_a	15.297475
_cell_length_b	15.299816
_cell_length_c	15.296720
_cell_angle_alpha	110.757046
_cell_angle_beta	91.617114
_cell_angle_gamma	72.651123
loop_
_atom_site_label
_atom_site_type_symbol
_atom_site_fract_x
_atom_site_fract_y
_atom_site_fract_z
Zn1	Zn	1.356907	-0.745292	-0.873593
Zn2	Zn	1.401320	-0.883184	-0.754304
Zn3	Zn	1.228314	-0.691495	-0.691223
Zn4	Zn	1.228239	-0.873771	-0.873576
O5	O	1.303695	-0.798436	-0.798174
O6	O	1.489051	-0.790038	-0.884175
O7	O	1.396989	-0.839181	-0.619698
O8	O	1.226816	-0.564640	-0.689021
O9	O	1.521681	-0.891346	-0.796535
O10	O	1.321293	-0.604165	-0.823008
O11	O	1.269882	-0.698348	-0.573353
O12	O	1.102052	-0.689221	-0.689006
O13	O	1.226689	-0.875303	-0.999817
O14	O	1.101997	-0.823138	-0.822980
O15	O	1.321221	-0.780910	-0.999828
O16	O	1.396917	-1.015926	-0.796519
O17	O	1.269755	-1.009011	-0.884148
C18	C	1.338168	-1.047219	-0.847202
C19	C	1.352994	-1.153671	-0.868224
C20	C	1.069289	-0.749321	-0.749147
C21	C	0.969009	-0.728336	-0.728199
C22	C	1.198278	-1.371756	-0.648359
C23	C	1.184344	-1.271739	-0.628609
C24	C	1.226505	-1.242217	-0.688511
C25	C	1.282604	-1.312723	-0.768166
C26	C	1.296534	-1.412750	-0.787922
C27	C	1.324761	-1.283210	-0.828074
C28	C	1.380859	-1.353716	-0.907729
C29	C	1.394788	-1.453733	-0.927481
C30	C	1.352626	-1.483255	-0.867579
C31	C	1.310831	-1.183183	-0.808318
C32	C	1.409086	-1.224177	-0.947881
C33	C	1.423021	-1.324194	-0.967631
C34	C	0.686429	-0.948428	-0.947897
C35	C	0.780649	-0.968151	-0.967578
C36	C	0.827743	-0.908199	-0.907735
C37	C	0.780609	-0.828520	-0.828208
C38	C	0.686382	-0.808799	-0.808521
C39	C	0.827696	-0.768570	-0.768359
C40	C	0.780562	-0.688891	-0.688831
C41	C	0.686344	-0.669174	-0.669149
C42	C	0.639250	-0.729126	-0.728992
C43	C	0.921923	-0.788291	-0.788045
C44	C	0.921876	-0.648663	-0.648669
C45	C	0.827657	-0.628939	-0.628988
C46	C	1.539017	-0.847743	-0.847394
C47	C	1.639297	-0.868755	-0.868368
C48	C	1.268993	-0.833057	-1.033470
C49	C	1.254204	-0.847811	-1.133739
C50	C	1.269109	-0.548689	-0.748980
C51	C	1.254370	-0.442262	-0.728016
C52	C	1.409399	-0.692828	-1.416409
C53	C	1.423299	-0.678969	-1.322202
C54	C	1.381026	-0.721178	-1.275082
C55	C	1.324851	-0.777249	-1.322177
C56	C	1.310956	-0.791116	-1.416395
C57	C	1.282583	-0.819466	-1.275068
C58	C	1.226409	-0.875537	-1.322163
C59	C	1.212515	-0.889401	-1.416371
C60	C	1.254788	-0.847192	-1.463492
C61	C	1.296479	-0.805599	-1.180850
C62	C	1.198036	-0.903887	-1.180836
C63	C	1.184136	-0.917746	-1.275042
C64	C	1.338305	-0.763890	-0.563791
C65	C	1.353230	-0.748903	-0.463506
H66	H	1.265155	-1.125785	-0.743462
H67	H	1.469039	-0.633318	-1.283865
C68	C	0.973758	-0.875933	-0.875527
N69	N	1.012799	-0.941948	-0.941425
C70	C	1.455887	-0.646399	-1.468245
N71	N	1.490902	-0.611423	-1.507289
H72	H	1.243473	-0.858473	-1.540202
H73	H	0.647973	-0.604302	-0.604385
C74	C	1.211180	-1.132193	-0.666779
N75	N	1.199638	-1.049319	-0.650405
H76	H	1.468696	-1.381614	-1.032487
C77	C	1.150726	-0.951086	-1.468175
N78	N	1.104184	-0.997545	-1.507191
H79	H	1.138668	-1.214336	-0.563755
C80	C	1.151979	-1.404243	-0.582427
N81	N	1.117131	-1.428714	-0.532744
H82	H	1.138398	-0.963399	-1.313400
C83	C	1.367951	-1.593280	-0.889300
N84	N	1.379491	-1.676152	-0.905658
H85	H	1.342216	-0.759944	-1.142514
H86	H	1.440462	-1.511138	-0.992344
C87	C	1.151531	-0.950318	-1.129007
N88	N	1.116507	-0.985287	-1.089963
C89	C	1.455470	-1.191708	-1.013776
N90	N	1.490402	-1.167245	-1.063404
H91	H	0.648078	-0.997237	-0.996609
H92	H	0.904461	-0.924262	-0.923764
C93	C	0.832489	-1.055797	-1.055054
N94	N	0.871536	-1.121816	-1.120946
C95	C	1.396310	-0.705921	-1.171449
N96	N	1.407819	-0.694421	-1.093387
H97	H	0.562528	-0.713070	-0.712973
H98	H	0.960221	-0.599846	-0.599939
C99	C	0.775799	-0.541297	-0.541507
N100	N	0.736738	-0.475286	-0.475616
