data_functionalizedCrystal
_audit_creation_method	'MofGen! by Chris Wilmer'
_symmetry_space_group_name_H-M	'P1'
_symmetry_Int_Tables_number	1
_symmetry_cell_setting	triclinic
loop_
_symmetry_equiv_pos_as_xyz
  x,y,z
_cell_length_a	16.959455
_cell_length_b	16.625545
_cell_length_c	16.959447
_cell_angle_alpha	90.029927
_cell_angle_beta	90.014322
_cell_angle_gamma	90.022505
loop_
_atom_site_label
_atom_site_type_symbol
_atom_site_fract_x
_atom_site_fract_y
_atom_site_fract_z
Zn1	Zn	1.208354	-0.321051	0.446911
Zn2	Zn	1.208263	-0.455899	0.314733
Zn3	Zn	1.076182	-0.321077	0.314748
Zn4	Zn	1.076134	-0.455839	0.446872
O5	O	1.142233	-0.388466	0.380816
O6	O	1.318953	-0.338954	0.429387
O7	O	1.190725	-0.438050	0.204124
O8	O	1.093773	-0.208241	0.332303
O9	O	1.318886	-0.438026	0.332277
O10	O	1.190879	-0.208222	0.429402
O11	O	1.093685	-0.338997	0.204135
O12	O	0.965565	-0.338939	0.332265
O13	O	1.093691	-0.437923	0.557488
O14	O	0.965530	-0.437947	0.429335
O15	O	1.190832	-0.338895	0.557517
O16	O	1.190678	-0.568723	0.332239
O17	O	1.093604	-0.568679	0.429321
C18	C	0.936867	-0.388440	0.380798
C19	C	0.849010	-0.388448	0.380809
C20	C	0.477529	-0.336870	0.330377
C21	C	0.477541	-0.440129	0.431300
C22	C	0.560087	-0.440117	0.431295
C23	C	0.601358	-0.388482	0.380830
C24	C	0.560082	-0.336859	0.330369
C25	C	0.601368	-0.491746	0.481750
C26	C	0.683919	-0.491737	0.481746
C27	C	0.725191	-0.440097	0.431284
C28	C	0.683911	-0.388471	0.380822
C29	C	0.725182	-0.336836	0.330356
C30	C	0.683903	-0.285205	0.279897
C31	C	0.601355	-0.285219	0.279907
C32	C	0.807740	-0.440083	0.431275
C33	C	0.807735	-0.336824	0.330348
C34	C	1.142147	-0.597957	0.380791
C35	C	1.142183	-0.687578	0.380807
C36	C	1.142214	-0.760361	0.380823
C37	C	1.142260	-0.851669	0.380840
C38	C	1.142301	-0.924446	0.380850
C39	C	1.142346	-1.015760	0.380866
C40	C	1.348402	-0.388494	0.380835
C41	C	1.436258	-0.388505	0.380843
C42	C	1.142266	-0.388400	0.586984
C43	C	1.142280	-0.388371	0.674841
C44	C	1.142341	-0.178157	0.380858
C45	C	1.142387	-0.088536	0.380876
C46	C	1.142246	-0.388475	0.175450
C47	C	1.142385	-0.388276	0.087594
C48	C	1.091798	-0.439845	1.046304
C49	C	1.192952	-0.336727	1.046329
C50	C	1.192931	-0.336744	0.963783
C51	C	1.142343	-0.388313	0.922494
C52	C	1.091777	-0.439866	0.963751
C53	C	1.243502	-0.285199	0.922521
C54	C	1.243483	-0.285214	0.839970
C55	C	1.192891	-0.336780	0.798679
C56	C	1.142322	-0.388334	0.839941
C57	C	1.091735	-0.439903	0.798651
C58	C	1.041161	-0.491453	0.839911
C59	C	1.041185	-0.491431	0.922460
C60	C	1.192868	-0.336802	0.716130
C61	C	1.091714	-0.439923	0.716098
H62	H	0.567738	-0.243185	0.238825
H63	H	1.284692	-0.243219	0.956144
H64	H	0.841345	-0.482122	0.472355
H65	H	1.000013	-0.533403	0.956061
O66	O	0.437314	-0.286794	0.281389
C67	C	0.355604	-0.297853	0.292231
H68	H	0.344317	-0.360112	0.318010
H69	H	0.332209	-0.250082	0.334410
C70	C	0.327058	-0.213894	0.180610
C71	C	0.313195	-0.290365	0.212267
H72	H	0.300897	-0.209272	0.131286
H73	H	0.382108	-0.206440	0.173307
H74	H	0.307563	-0.174094	0.215768
H75	H	0.332699	-0.330163	0.177114
H76	H	0.258147	-0.297825	0.219562
H77	H	0.443933	-0.482173	0.472382
O78	O	1.042747	-0.489893	1.086501
C79	C	1.053591	-0.478804	1.168216
H80	H	1.114608	-0.452403	1.179502
H81	H	1.006734	-0.435853	1.191649
C82	C	0.971371	-0.592801	1.196712
C83	C	1.046315	-0.560381	1.210575
H84	H	0.966879	-0.643120	1.222843
H85	H	0.964062	-0.600270	1.141660
H86	H	0.932331	-0.557000	1.216240
H87	H	1.085352	-0.596176	1.191039
H88	H	1.053630	-0.552919	1.265626
H89	H	1.050512	-0.481911	0.682486
H90	H	0.567760	-0.533790	0.522831
H91	H	0.717521	-0.533777	0.522834
O92	O	0.992136	-0.541587	0.799708
C93	C	1.037113	-0.593691	0.751966
H94	H	1.097028	-0.565262	0.739624
H95	H	1.045768	-0.653439	0.783760
C96	C	0.920026	-0.643215	0.688695
C97	C	0.993613	-0.608295	0.673531
H98	H	0.893193	-0.652227	0.640314
H99	H	0.889723	-0.608114	0.720862
H100	H	0.927249	-0.693001	0.715192
H101	H	0.986388	-0.558504	0.647043
H102	H	1.023913	-0.643387	0.641357
O103	O	1.292629	-0.235061	0.800016
C104	C	1.337297	-0.189557	0.854161
H105	H	1.304940	-0.186752	0.913008
H106	H	1.397317	-0.219088	0.862928
C107	C	1.388462	-0.107194	0.749697
C108	C	1.348718	-0.103743	0.821971
H109	H	1.395511	-0.054261	0.729840
H110	H	1.358371	-0.137852	0.713217
H111	H	1.438475	-0.131807	0.757012
H112	H	1.298702	-0.079140	0.814653
H113	H	1.378801	-0.073078	0.858449
O114	O	1.241905	-0.286619	0.676085
C115	C	1.224697	-0.206249	0.696295
H116	H	1.161561	-0.202159	0.718992
H117	H	1.267102	-0.185171	0.744215
C118	C	1.311452	-0.157481	0.595102
C119	C	1.233904	-0.152456	0.622973
H120	H	1.317135	-0.124297	0.549876
H121	H	1.323048	-0.211627	0.581488
H122	H	1.346781	-0.139917	0.635043
H123	H	1.198578	-0.170029	0.583036
H124	H	1.222303	-0.098311	0.636579
H125	H	0.717516	-0.243167	0.238805
O126	O	0.847788	-0.286752	0.281210
C127	C	0.827565	-0.304262	0.202404
H128	H	0.804851	-0.368673	0.198305
H129	H	0.779654	-0.261011	0.181824
C130	C	0.928776	-0.215696	0.154691
C131	C	0.900884	-0.294809	0.149655
H132	H	0.974000	-0.209862	0.122152
H133	H	0.942399	-0.203896	0.207784
H134	H	0.888843	-0.179662	0.137542
H135	H	0.940813	-0.330840	0.166813
H136	H	0.887269	-0.306615	0.096564
H137	H	1.234142	-0.294746	1.079952
