data_functionalizedCrystal
_audit_creation_method	'MofGen! by Chris Wilmer'
_symmetry_space_group_name_H-M	'P1'
_symmetry_Int_Tables_number	1
_symmetry_cell_setting	triclinic
loop_
_symmetry_equiv_pos_as_xyz
  x,y,z
_cell_length_a	14.853567
_cell_length_b	9.016244
_cell_length_c	14.853567
_cell_angle_alpha	89.997024
_cell_angle_beta	96.365070
_cell_angle_gamma	89.999410
loop_
_atom_site_label
_atom_site_type_symbol
_atom_site_fract_x
_atom_site_fract_y
_atom_site_fract_z
O1	O	1.196362	0.123225	-0.117707
O2	O	0.933902	0.123249	-0.131729
O3	O	1.072143	0.123241	0.006512
O4	O	1.058121	0.123233	-0.255948
O5	O	1.072137	-0.123440	0.006522
O6	O	0.933896	-0.123432	-0.131718
O7	O	1.196356	-0.123456	-0.117697
Cu8	Cu	1.065126	-0.145968	-0.124707
Cu9	Cu	1.065132	0.145761	-0.124719
O10	O	1.058115	-0.123447	-0.255937
C11	C	0.900311	-0.000088	-0.131088
C12	C	0.800227	-0.000078	-0.129184
N13	N	1.065127	-0.351154	-0.124698
C14	C	0.387693	-0.000109	-0.039019
C15	C	0.366412	-0.000112	-0.203251
C16	C	0.460446	-0.000108	-0.205041
C17	C	0.518108	-0.000101	-0.123819
C18	C	0.481736	-0.000100	-0.040806
C19	C	0.496825	-0.000094	-0.288053
C20	C	0.590864	-0.000088	-0.289846
C21	C	0.648528	-0.000092	-0.208623
C22	C	0.612150	-0.000092	-0.125607
C23	C	0.669812	-0.000086	-0.044384
C24	C	0.633437	-0.000097	0.038633
C25	C	0.539399	-0.000104	0.040417
C26	C	0.742565	-0.000085	-0.210407
C27	C	0.763855	-0.000077	-0.046172
C28	C	1.139349	-0.586144	-0.050999
C29	C	1.139153	-0.414254	-0.050722
C30	C	0.971044	-0.413569	-0.104034
C31	C	0.971486	-0.585514	-0.103518
C32	C	1.084161	-0.585663	-0.219321
C33	C	1.086293	-0.413707	-0.218685
C34	C	1.229947	-0.000115	-0.118337
C35	C	1.330031	-0.000115	-0.120241
C36	C	1.071504	-0.000095	0.040106
C37	C	1.069601	-0.000082	0.140189
N38	N	1.065138	0.350947	-0.124721
C39	C	1.058754	-0.000108	-0.289531
C40	C	1.060657	-0.000111	-0.389615
C41	C	0.979435	-0.000102	0.552723
C42	C	1.143668	-0.000117	0.574004
C43	C	1.145458	-0.000108	0.479971
C44	C	1.064235	-0.000099	0.422309
C45	C	0.981223	-0.000098	0.458680
C46	C	1.228469	-0.000124	0.443591
C47	C	1.230262	-0.000117	0.349552
C48	C	1.149039	-0.000097	0.291889
C49	C	1.066023	-0.000095	0.328266
C50	C	0.984800	-0.000085	0.270604
C51	C	0.901783	-0.000072	0.306979
C52	C	0.899999	-0.000078	0.401017
C53	C	1.150823	-0.000091	0.197851
C54	C	0.986588	-0.000081	0.176561
H55	H	0.680397	-0.000081	0.104764
C56	C	0.449707	0.126730	-0.427479
C57	C	0.433439	-0.000090	-0.377325
H58	H	0.410566	0.126734	-0.482591
H59	H	0.510908	0.126730	-0.440431
H60	H	0.438665	0.212737	-0.393433
H61	H	0.444488	-0.086097	-0.411369
H62	H	0.372224	-0.000103	-0.364376
H63	H	0.832411	-0.000069	0.430643
H64	H	0.920445	-0.000067	0.129618
H65	H	0.772178	-0.000078	-0.277998
H66	H	0.835652	-0.000075	0.260019
C67	C	0.725561	-0.000036	-0.365516
C68	C	0.630845	-0.000055	-0.381095
H69	H	0.750243	-0.000001	-0.421850
H70	H	0.745346	-0.086062	-0.332083
H71	H	0.745330	0.085985	-0.332060
H72	H	0.611076	-0.086082	-0.414545
H73	H	0.611052	0.085980	-0.414541
H74	H	1.127360	-0.629368	0.018804
H75	H	0.911844	-0.000085	0.582345
H76	H	1.218414	-0.000112	0.168238
H77	H	1.209517	-0.627491	-0.063126
H78	H	0.509774	-0.000148	0.108005
C79	C	1.232736	-0.524632	-0.257200
C80	C	1.174809	-0.644174	-0.246100
H81	H	1.288698	-0.560758	-0.273730
H82	H	1.243197	-0.471104	-0.201957
H83	H	1.205603	-0.460976	-0.303453
H84	H	1.201940	-0.707825	-0.199843
H85	H	1.164351	-0.697727	-0.301351
C86	C	0.376885	0.126696	0.101516
C87	C	0.347716	-0.000115	0.052232
H88	H	0.352208	0.126685	0.157852
H89	H	0.357088	0.212699	0.068067
H90	H	0.441144	0.126691	0.112065
H91	H	0.283458	-0.000105	0.041677
H92	H	0.367508	-0.086140	0.085689
C93	C	1.305932	-0.000104	0.214855
C94	C	1.321511	-0.000116	0.309571
H95	H	1.362266	-0.000108	0.190174
H96	H	1.272491	0.085917	0.195080
H97	H	1.272485	-0.086130	0.195077
H98	H	1.354952	0.085916	0.329350
H99	H	1.354966	-0.086146	0.329355
H100	H	0.914598	-0.627130	-0.155165
H101	H	0.810798	-0.000077	0.019971
H102	H	0.319459	-0.000105	-0.269379
H103	H	1.209795	-0.000136	0.620958
H104	H	1.209085	-0.372053	-0.063044
H105	H	1.126985	-0.373131	0.019482
C106	C	0.935067	-0.517247	0.044434
C107	C	0.948880	-0.639682	-0.010378
H108	H	0.921116	-0.550686	0.101937
H109	H	0.886234	-0.459460	0.016581
H110	H	0.988490	-0.458573	0.051967
H111	H	0.895454	-0.698350	-0.017916
H112	H	0.997717	-0.697493	0.017481
H113	H	1.294596	-0.000146	0.490546
C114	C	0.931325	-0.267369	-0.237653
C115	C	0.894683	-0.358390	-0.174571
H116	H	0.884181	-0.233296	-0.281196
H117	H	0.974047	-0.322248	-0.267218
H118	H	0.960584	-0.184820	-0.207326
H119	H	0.865430	-0.440946	-0.204898
H120	H	0.851945	-0.303510	-0.145004
C121	C	0.965474	-0.518697	-0.335271
C122	C	1.011111	-0.640584	-0.293389
H123	H	0.920372	-0.552612	-0.380988
H124	H	1.007391	-0.457444	-0.361788
H125	H	0.937696	-0.463385	-0.291440
H126	H	1.038895	-0.695890	-0.337218
H127	H	0.969187	-0.701862	-0.266872
H128	H	0.953886	-0.370517	-0.035822
H129	H	1.155505	-0.372914	-0.234362
H130	H	1.035752	-0.370751	-0.276122
