data_functionalizedCrystal
_audit_creation_method	'MofGen! by Chris Wilmer'
_symmetry_space_group_name_H-M	'P1'
_symmetry_Int_Tables_number	1
_symmetry_cell_setting	triclinic
loop_
_symmetry_equiv_pos_as_xyz
  x,y,z
_cell_length_a	19.077105
_cell_length_b	25.639239
_cell_length_c	19.077237
_cell_angle_alpha	92.269360
_cell_angle_beta	85.486555
_cell_angle_gamma	87.734929
loop_
_atom_site_label
_atom_site_type_symbol
_atom_site_fract_x
_atom_site_fract_y
_atom_site_fract_z
Zn1	Zn	1.093599	-0.254028	-0.441820
Zn2	Zn	1.593599	0.245972	0.058180
Zn3	Zn	1.088762	-0.337802	-0.323927
Zn4	Zn	1.588762	0.162198	0.176073
Zn5	Zn	0.970992	-0.246722	-0.319220
Zn6	Zn	1.470992	0.253278	0.180780
Zn7	Zn	0.975650	-0.337766	-0.437044
Zn8	Zn	1.475650	0.162234	0.062956
O9	O	1.032251	-0.294079	-0.380503
O10	O	1.532251	0.205921	0.119497
O11	O	1.191606	-0.268214	-0.430151
O12	O	1.691606	0.231786	0.069849
O13	O	1.069166	-0.322678	-0.224654
O14	O	1.569166	0.177322	0.275346
O15	O	0.987332	-0.174529	-0.335511
O16	O	1.487332	0.325471	0.164489
O17	O	1.188052	-0.329762	-0.343535
O18	O	1.688052	0.170238	0.156465
O19	O	1.077410	-0.179897	-0.425586
O20	O	1.577410	0.320103	0.074414
O21	O	0.982641	-0.255761	-0.221195
O22	O	1.482641	0.244239	0.278805
O23	O	0.872961	-0.255726	-0.330880
O24	O	1.372961	0.244274	0.169120
O25	O	0.995269	-0.329700	-0.536327
O26	O	1.495269	0.170300	-0.036327
O27	O	0.876383	-0.322616	-0.417445
O28	O	1.376383	0.177384	0.082555
O29	O	1.081926	-0.268178	-0.539836
O30	O	1.581926	0.231822	-0.039836
O31	O	1.073682	-0.410959	-0.338904
O32	O	1.573682	0.089041	0.161096
O33	O	0.990579	-0.410933	-0.422010
O34	O	1.490579	0.089067	0.077990
C35	C	0.849094	-0.288374	-0.373134
C36	C	1.349094	0.211626	0.126866
C37	C	0.770739	-0.285947	-0.369998
C38	C	1.270739	0.214053	0.130002
C39	C	0.735725	-0.319680	-0.413524
C40	C	1.235725	0.180320	0.086476
C41	C	0.662102	-0.317393	-0.410581
C42	C	1.162102	0.182607	0.089419
C43	C	0.623495	-0.281374	-0.364109
C44	C	1.123495	0.218626	0.135891
C45	C	0.658514	-0.247636	-0.320581
C46	C	1.158514	0.252364	0.179419
C47	C	0.732136	-0.249922	-0.323528
C48	C	1.232136	0.250078	0.176472
C49	C	0.403119	-0.270796	-0.350473
C50	C	0.903119	0.229204	0.149527
C51	C	0.329492	-0.268514	-0.347528
C52	C	0.829492	0.231486	0.152472
C53	C	0.333085	-0.338270	-0.437529
C54	C	0.833085	0.161730	0.062471
C55	C	0.406708	-0.340555	-0.440469
C56	C	0.906708	0.159445	0.059531
C57	C	0.441721	-0.306816	-0.396944
C58	C	0.941721	0.193184	0.103056
N59	N	0.548241	-0.279036	-0.361098
N60	N	1.048241	0.220964	0.138902
N61	N	0.516973	-0.309152	-0.399959
N62	N	1.016973	0.190848	0.100041
C63	C	1.032131	-0.429917	-0.380466
C64	C	1.532131	0.070083	0.119534
C65	C	1.032145	-0.488032	-0.380476
C66	C	1.532145	0.011968	0.119524
C67	C	1.075643	-0.848406	-0.337311
C68	C	1.575643	-0.348406	0.162689
C69	C	1.075671	-0.903012	-0.337321
C70	C	1.575671	-0.403012	0.162679
O71	O	1.112530	-0.931253	-0.300580
O72	O	1.612530	-0.431253	0.199420
N73	N	1.032376	-0.930324	-0.380555
N74	N	1.532376	-0.430324	0.119445
C75	C	0.989057	-0.903028	-0.423785
C76	C	1.489057	-0.403028	0.076215
O77	O	0.952235	-0.931272	-0.460560
O78	O	1.452235	-0.431272	0.039440
C79	C	0.989033	-0.848423	-0.423778
C80	C	1.489033	-0.348423	0.076222
C81	C	1.032325	-0.821114	-0.380537
C82	C	1.532325	-0.321114	0.119463
C83	C	1.118932	-0.821097	-0.294074
C84	C	1.618932	-0.321097	0.205926
C85	C	1.118903	-0.766495	-0.294062
C86	C	1.618903	-0.266495	0.205938
C87	C	1.075585	-0.739203	-0.337288
C88	C	1.575585	-0.239203	0.162712
C89	C	1.032296	-0.766512	-0.380525
C90	C	1.532296	-0.266512	0.119475
C91	C	0.945718	-0.821128	-0.467012
C92	C	1.445718	-0.321128	0.032988
C93	C	0.945699	-0.766520	-0.467001
C94	C	1.445699	-0.266520	0.032999
C95	C	0.988991	-0.739211	-0.423760
C96	C	1.488991	-0.239211	0.076240
C97	C	0.988950	-0.684618	-0.423740
C98	C	1.488950	-0.184618	0.076260
N99	N	1.032244	-0.657306	-0.380507
N100	N	1.532244	-0.157306	0.119493
C101	C	1.075562	-0.684599	-0.337281
C102	C	1.575562	-0.184599	0.162719
C103	C	0.989110	-1.017700	-0.423798
C104	C	1.489110	-0.517700	0.076202
C105	C	0.989130	-1.072303	-0.423802
C106	C	1.489130	-0.572303	0.076198
C107	C	1.075745	-1.072284	-0.337339
C108	C	1.575745	-0.572284	0.162661
C109	C	1.075721	-1.017680	-0.337332
C110	C	1.575721	-0.517680	0.162668
C111	C	1.032405	-0.990388	-0.380565
C112	C	1.532405	-0.490388	0.119435
C113	C	1.075497	-0.569931	-0.337260
C114	C	1.575497	-0.069931	0.162740
C115	C	1.075463	-0.515324	-0.337250
C116	C	1.575463	-0.015324	0.162750
C117	C	0.988851	-0.515349	-0.423716
C118	C	1.488851	-0.015349	0.076284
C119	C	0.988883	-0.569950	-0.423723
C120	C	1.488883	-0.069950	0.076277
C121	C	1.032212	-0.597240	-0.380493
C122	C	1.532212	-0.097240	0.119507
O123	O	0.952112	-0.656342	-0.460464
O124	O	1.452112	-0.156342	0.039536
O125	O	1.112384	-0.656348	-0.300519
O126	O	1.612384	-0.156348	0.199481
C127	C	1.216123	-0.299807	-0.387901
C128	C	1.716123	0.200193	0.112099
C129	C	1.294478	-0.302248	-0.391053
C130	C	1.794478	0.197752	0.108947
C131	C	1.039657	-0.299750	-0.564375
C132	C	1.539657	0.200250	-0.064375
C133	C	1.042813	-0.302167	-0.642730
C134	C	1.542813	0.197833	-0.142730
C135	C	1.032391	-0.157712	-0.380556
C136	C	1.532391	0.342288	0.119444
C137	C	1.032450	-0.099600	-0.380579
C138	C	1.532450	0.400400	0.119421
C139	C	1.065454	-0.319537	-1.083981
C140	C	1.565454	0.180463	-0.583981
C141	C	1.062478	-0.317263	-1.010358
C142	C	1.562478	0.182737	-0.510358
C143	C	1.015946	-0.281284	-0.971753
C144	C	1.515946	0.218716	-0.471753
C145	C	0.972381	-0.247580	-1.006776
C146	C	1.472381	0.252420	-0.506776
C147	C	0.975354	-0.249857	-1.080398
C148	C	1.475354	0.250143	-0.580398
C149	C	1.002221	-0.270740	-0.751374
C150	C	1.502221	0.229260	-0.251374
C151	C	0.999253	-0.268464	-0.677747
C152	C	1.499253	0.231536	-0.177747
C153	C	1.089350	-0.338148	-0.681335
C154	C	1.589350	0.161852	-0.181335
C155	C	1.092321	-0.340420	-0.754958
C156	C	1.592321	0.159580	-0.254958
C157	C	1.048754	-0.306718	-0.789974
C158	C	1.548754	0.193282	-0.289974
N159	N	1.012904	-0.278957	-0.896498
N160	N	1.512904	0.221043	-0.396498
N161	N	1.051792	-0.309048	-0.865227
N162	N	1.551792	0.190952	-0.365227
C163	C	1.024914	-0.288394	-0.197348
C164	C	1.524914	0.211606	0.302652
C165	C	1.021894	-0.285835	-0.118999
C166	C	1.521894	0.214165	0.381001
H167	H	1.110716	-0.493091	-0.302036
H168	H	1.610716	0.006909	0.197964
H169	H	0.760643	-0.222450	-0.288088
H170	H	1.260643	0.277550	0.211912
N171	N	1.122471	-1.101731	-0.290723
N172	N	1.622471	-0.601731	0.209277
H173	H	1.173269	-1.094094	-0.303739
H174	H	1.673269	-0.594094	0.196261
H175	H	1.109474	-1.090350	-0.239920
H176	H	1.609474	-0.590350	0.260080
H177	H	1.110973	-0.995447	-0.302122
H178	H	1.610973	-0.495447	0.197878
H179	H	1.097941	-0.344713	-0.981850
H180	H	1.597941	0.155287	-0.481850
N181	N	0.295325	-0.374654	-0.484480
N182	N	0.795325	0.125346	0.015520
H183	H	0.307660	-0.412054	-0.473952
H184	H	0.807660	0.087946	0.026048
H185	H	0.242840	-0.367698	-0.475544
H186	H	0.742840	0.132302	0.024456
N187	N	0.922197	-0.208770	-0.965139
N188	N	1.422197	0.291230	-0.465139
H189	H	0.895053	-0.187766	-0.998496
H190	H	1.395053	0.312234	-0.498496
H191	H	0.888317	-0.228088	-0.933270
H192	H	1.388317	0.271912	-0.433270
H193	H	0.953870	-1.094533	-0.459007
H194	H	1.453870	-0.594533	0.040993
H195	H	0.298060	-0.239177	-0.309688
H196	H	0.798060	0.260823	0.190312
H197	H	0.953580	-0.493119	-0.458908
H198	H	1.453580	0.006881	0.041092
H199	H	1.130212	-0.369718	-0.786385
H200	H	1.630212	0.130282	-0.286385
H201	H	0.939884	-0.222412	-1.108908
H202	H	1.439884	0.277588	-0.608908
N203	N	0.440878	-0.234400	-0.303541
N204	N	0.940878	0.265600	0.196459
H205	H	0.405247	-0.211235	-0.273657
H206	H	0.905247	0.288765	0.226343
H207	H	0.470091	-0.255574	-0.272083
H208	H	0.970091	0.244426	0.227917
H209	H	0.627075	-0.218307	-0.282745
H210	H	1.127075	0.281693	0.217255
N211	N	1.115647	-0.358341	-1.125617
N212	N	1.615647	0.141659	-0.625617
H213	H	1.142789	-0.379346	-1.092259
H214	H	1.642789	0.120654	-0.592259
H215	H	1.088159	-0.382585	-1.154999
H216	H	1.588159	0.117415	-0.654999
N217	N	0.955257	-0.234382	-0.789148
N218	N	1.455257	0.265618	-0.289148
H219	H	0.923795	-0.255547	-0.818376
H220	H	1.423795	0.244453	-0.318376
H221	H	0.925377	-0.211244	-0.753485
H222	H	1.425377	0.288756	-0.253485
N223	N	0.942375	-0.988264	-0.470417
N224	N	1.442375	-0.488264	0.029583
H225	H	0.972297	-0.967476	-0.504262
H226	H	1.472297	-0.467476	-0.004262
H227	H	0.914960	-1.013885	-0.497755
H228	H	1.414960	-0.513885	0.002245
H229	H	0.910426	-0.744303	-0.502209
H230	H	1.410426	-0.244303	-0.002209
H231	H	1.124819	-0.365587	-0.652817
H232	H	1.624819	0.134413	-0.152817
H233	H	0.910462	-0.843354	-0.502220
H234	H	1.410462	-0.343354	-0.002220
N235	N	1.122230	-0.599361	-0.290635
N236	N	1.622230	-0.099361	0.209365
H237	H	1.149644	-0.573768	-0.263246
H238	H	1.649644	-0.073768	0.236754
H239	H	1.092259	-0.620149	-0.256837
H240	H	1.592259	-0.120149	0.243163
N241	N	0.942183	-0.599409	-0.470352
N242	N	1.442183	-0.099409	0.029648
H243	H	0.914735	-0.573831	-0.497731
H244	H	1.414735	-0.073831	0.002269
H245	H	0.972180	-0.623928	-0.504159
H246	H	1.472180	-0.123928	-0.004159
N247	N	1.165607	-0.737045	-0.247435
N248	N	1.665607	-0.237045	0.252565
H249	H	1.193054	-0.762627	-0.220061
H250	H	1.693054	-0.262627	0.279939
H251	H	1.199354	-0.716261	-0.277472
H252	H	1.699354	-0.216261	0.222528
H253	H	1.154210	-0.843313	-0.258874
H254	H	1.654210	-0.343313	0.241126
N255	N	0.949060	-0.229658	-0.636107
N256	N	1.449060	0.270342	-0.136107
H257	H	0.921910	-0.208655	-0.669460
H258	H	1.421910	0.291345	-0.169460
H259	H	0.915186	-0.248982	-0.604238
H260	H	1.415186	0.251018	-0.104238
H261	H	0.633597	-0.344863	-0.446024
H262	H	1.133597	0.155137	0.053976
N263	N	0.777363	-0.358534	-0.463644
N264	N	1.277363	0.141466	0.036356
H265	H	0.744007	-0.379556	-0.490771
H266	H	1.244007	0.120444	0.009229
H267	H	0.809250	-0.339246	-0.497544
H268	H	1.309250	0.160754	0.002456
H269	H	0.438137	-0.369886	-0.478311
H270	H	0.938137	0.130114	0.021689
