data_functionalizedCrystal
_audit_creation_method	'MofGen! by Chris Wilmer'
_symmetry_space_group_name_H-M	'P1'
_symmetry_Int_Tables_number	1
_symmetry_cell_setting	triclinic
loop_
_symmetry_equiv_pos_as_xyz
  x,y,z
_cell_length_a	6.817900
_cell_length_b	7.076105
_cell_length_c	17.078472
_cell_angle_alpha	92.980518
_cell_angle_beta	99.306020
_cell_angle_gamma	117.701832
loop_
_atom_site_label
_atom_site_type_symbol
_atom_site_fract_x
_atom_site_fract_y
_atom_site_fract_z
V1	V	-4.179009	-0.664800	-0.108528
O2	O	-4.185117	-0.652365	0.006491
O3	O	-4.108813	-0.660041	-0.216419
O4	O	-4.206439	-0.954839	-0.106299
O5	O	-4.086815	-0.355527	-0.104392
V6	V	-4.655635	-0.627834	-0.094836
O7	O	-4.455396	-0.745888	-0.138561
O8	O	-4.829445	-0.546747	-0.064803
O9	O	-4.502624	-0.632593	0.013055
O10	O	-4.766923	-0.640269	-0.209855
O11	O	-4.865225	-0.937107	-0.098972
O12	O	-4.404998	-0.337795	-0.097066
C13	C	-3.946058	-0.649499	-0.242739
C14	C	-3.970457	-0.647542	-0.330938
C15	C	-4.166028	-0.657253	-0.376395
C16	C	-4.188947	-0.655426	-0.459268
C17	C	-4.016286	-0.643873	-0.496681
C18	C	-3.820702	-0.634167	-0.451218
C19	C	-3.797793	-0.636009	-0.368348
C20	C	-4.065068	-0.637237	-0.744098
C21	C	-4.087991	-0.635389	-0.826974
C22	C	-4.456237	-0.656653	-0.835018
C23	C	-4.433303	-0.658481	-0.752145
C24	C	-4.237728	-0.648787	-0.706690
N25	N	-4.039706	-0.641999	-0.581390
N26	N	-4.214318	-0.650676	-0.621983
C27	C	-4.077543	-0.025539	-0.102263
C28	C	-4.204204	-0.267094	-0.101113
C29	C	-4.328719	-0.643129	0.039370
C30	C	-4.283562	-0.645101	0.127569
H31	H	-3.947401	-0.626031	-0.857436
Cl32	Cl	-3.551927	-0.623813	-0.311202
H33	H	-3.905816	-0.629331	-0.707097
H34	H	-3.680126	-0.624773	-0.481688
Cl35	Cl	-4.383101	-0.671770	-0.329369
Cl36	Cl	-4.434816	-0.667631	-0.516411
H37	H	-4.615468	-0.664545	-0.872036
H38	H	-4.573914	-0.667904	-0.721690
