data_functionalizedCrystal
_audit_creation_method	'MofGen! by Chris Wilmer'
_symmetry_space_group_name_H-M	'P1'
_symmetry_Int_Tables_number	1
_symmetry_cell_setting	triclinic
loop_
_symmetry_equiv_pos_as_xyz
  x,y,z
_cell_length_a	18.215407
_cell_length_b	15.297327
_cell_length_c	18.215399
_cell_angle_alpha	99.648308
_cell_angle_beta	89.980167
_cell_angle_gamma	99.707397
loop_
_atom_site_label
_atom_site_type_symbol
_atom_site_fract_x
_atom_site_fract_y
_atom_site_fract_z
Zn1	Zn	1.074360	-0.359166	-0.466794
Zn2	Zn	1.052966	-0.510038	-0.365016
Zn3	Zn	0.951288	-0.359195	-0.343746
Zn4	Zn	0.929963	-0.509988	-0.488034
O5	O	1.002144	-0.434597	-0.415897
O6	O	1.174505	-0.379188	-0.453306
O7	O	1.039449	-0.490062	-0.259215
O8	O	0.985492	-0.232944	-0.342278
O9	O	1.158787	-0.490033	-0.378530
O10	O	1.075912	-0.232922	-0.432681
O11	O	0.964747	-0.379238	-0.243588
O12	O	0.845476	-0.379190	-0.362873
O13	O	0.949146	-0.489948	-0.588196
O14	O	0.829808	-0.489976	-0.468881
O15	O	1.055234	-0.379139	-0.572591
O16	O	1.018771	-0.636279	-0.399125
O17	O	0.928401	-0.636242	-0.489506
C18	C	0.810940	-0.434581	-0.415874
C19	C	0.729139	-0.434597	-0.415885
C20	C	0.532793	-0.492374	-0.471037
C21	C	0.455934	-0.492377	-0.471046
C22	C	0.472244	-0.376836	-0.360776
C23	C	0.549103	-0.376830	-0.360771
C24	C	0.579374	-0.434603	-0.415900
C25	C	0.425657	-0.434613	-0.415916
C26	C	0.342323	-0.434616	-0.415926
C27	C	0.662714	-0.434600	-0.415891
C28	C	0.968970	-0.668995	-0.448944
C29	C	0.954846	-0.769272	-0.463106
C30	C	1.103397	-1.051887	-0.314929
C31	C	1.116667	-0.957672	-0.301619
C32	C	1.076213	-0.910567	-0.341990
C33	C	1.022486	-0.957687	-0.395673
C34	C	1.009211	-1.051911	-0.408980
C35	C	0.982027	-0.910591	-0.436041
C36	C	0.928300	-0.957711	-0.489723
C37	C	0.915027	-1.051926	-0.503028
C38	C	0.955481	-1.099031	-0.462658
C39	C	0.995303	-0.816367	-0.422734
C40	C	0.901116	-0.816392	-0.516784
C41	C	0.887846	-0.910606	-0.530094
C42	C	1.194095	-0.434613	-0.415921
C43	C	1.275892	-0.434620	-0.415931
C44	C	1.002198	-0.434535	-0.607842
C45	C	1.002220	-0.434508	-0.689637
C46	C	1.035467	-0.199283	-0.382738
C47	C	1.049667	-0.099006	-0.368607
C48	C	1.057485	-0.376756	-0.869699
C49	C	1.057497	-0.376730	-0.946554
C50	C	0.947028	-0.492120	-0.962793
C51	C	0.947013	-0.492141	-0.885938
C52	C	1.002245	-0.434461	-0.839394
C53	C	1.002273	-0.434413	-0.993103
C54	C	1.002286	-0.434385	-1.076433
C55	C	1.002232	-0.434487	-0.756058
C56	C	1.002142	-0.434594	-0.224691
C57	C	1.002298	-0.434366	-0.142860
H58	H	0.447587	-0.329800	-0.315891
C59	C	1.106514	-0.325548	-0.744676
C60	C	1.118188	-0.313346	-0.818534
H61	H	1.143993	-0.286401	-0.713092
H62	H	1.058939	-0.312350	-0.730216
H63	H	1.108706	-0.386170	-0.740628
H64	H	1.115991	-0.252726	-0.822583
H65	H	1.165776	-0.326538	-0.832998
C66	C	0.801087	-1.157976	-0.528144
C67	C	0.855967	-1.103723	-0.562033
H68	H	0.764626	-1.189948	-0.564572
H69	H	0.823282	-1.199504	-0.506010
H70	H	0.778127	-1.121264	-0.490875
H71	H	0.878932	-1.140436	-0.599299
H72	H	0.833770	-1.062190	-0.584179
C73	C	0.955215	-1.233915	-0.551739
C74	C	0.940903	-1.202597	-0.477289
H75	H	0.946223	-1.297853	-0.560768
H76	H	0.923425	-1.212618	-0.583455
H77	H	1.005710	-1.212523	-0.561479
H78	H	0.890407	-1.223983	-0.467550
H79	H	0.972694	-1.223903	-0.445563
H80	H	0.557438	-0.539415	-0.515928
H81	H	1.102478	-0.329740	-0.971224
H82	H	0.418010	-0.539418	-0.515945
C83	C	0.862652	-1.016506	-0.644027
C84	C	0.828787	-0.962410	-0.589097
H85	H	0.826189	-1.048491	-0.680449
H86	H	0.899877	-0.979694	-0.667008
H87	H	0.884846	-1.058032	-0.621876
H88	H	0.806597	-0.920879	-0.611246
H89	H	0.791549	-0.999225	-0.566114
C90	C	0.879649	-0.671975	-0.538156
C91	C	0.856647	-0.764624	-0.561168
H92	H	0.852200	-0.640013	-0.565558
H93	H	0.871072	-0.656588	-0.486533
H94	H	0.931275	-0.656488	-0.546785
H95	H	0.805022	-0.780111	-0.552534
H96	H	0.865219	-0.780016	-0.612803
C97	C	0.557510	-0.262626	-0.251764
C98	C	0.600311	-0.313326	-0.300158
H99	H	0.589125	-0.223427	-0.214346
H100	H	0.532424	-0.228168	-0.279015
H101	H	0.521963	-0.301901	-0.229102
H102	H	0.635855	-0.274051	-0.322824
H103	H	0.625410	-0.347787	-0.272903
C104	C	0.898002	-0.543329	-1.087817
C105	C	0.886323	-0.555528	-1.013958
H106	H	0.860527	-0.582481	-1.119402
H107	H	0.895813	-0.482717	-1.091868
H108	H	0.945584	-0.556532	-1.102273
H109	H	0.838743	-0.542318	-0.999500
H110	H	0.888505	-0.616154	-1.009904
H111	H	1.136324	-1.090248	-0.282060
C112	C	0.837821	-0.606212	-0.909705
C113	C	0.886291	-0.555579	-0.852622
H114	H	0.800339	-0.645375	-0.889135
H115	H	0.815240	-0.566898	-0.934136
H116	H	0.865012	-0.640713	-0.944551
H117	H	0.859100	-0.521073	-0.817779
H118	H	0.908873	-0.594898	-0.828179
H119	H	1.039047	-0.778011	-0.379024
H120	H	1.087021	-0.833853	-0.331149
C121	C	1.208437	-0.967119	-0.210001
C122	C	1.175728	-0.905881	-0.242622
H123	H	1.244905	-0.935143	-0.173582
H124	H	1.171206	-1.003918	-0.187017
H125	H	1.231395	-1.003818	-0.247283
H126	H	1.152766	-0.869186	-0.205340
H127	H	1.212966	-0.869066	-0.265605
