data_functionalizedCrystal
_audit_creation_method	'MofGen! by Chris Wilmer'
_symmetry_space_group_name_H-M	'P1'
_symmetry_Int_Tables_number	1
_symmetry_cell_setting	triclinic
loop_
_symmetry_equiv_pos_as_xyz
  x,y,z
_cell_length_a	8.497374
_cell_length_b	8.497365
_cell_length_c	21.295418
_cell_angle_alpha	89.946421
_cell_angle_beta	90.011230
_cell_angle_gamma	89.956729
loop_
_atom_site_label
_atom_site_type_symbol
_atom_site_fract_x
_atom_site_fract_y
_atom_site_fract_z
Zn1	Zn	-0.626993	-0.892933	0.962570
Zn2	Zn	-0.890937	-0.629173	0.962519
Zn3	Zn	-0.627238	-0.629063	0.857276
Zn4	Zn	-0.890798	-0.892808	0.857327
O5	O	-0.758991	-0.760994	0.909923
O6	O	-0.661962	-0.858043	1.050653
O7	O	-0.856117	-0.408395	0.948515
O8	O	-0.406443	-0.664072	0.871243
O9	O	-0.855880	-0.664259	1.050615
O10	O	-0.406263	-0.857936	0.948603
O11	O	-0.662378	-0.408315	0.871193
O12	O	-0.662244	-0.663951	0.769193
O13	O	-0.855643	-1.113587	0.871331
O14	O	-0.855880	-0.857723	0.769231
O15	O	-0.661827	-1.113679	0.948653
O16	O	-1.111681	-0.664138	0.948566
O17	O	-1.111579	-0.857830	0.871282
C18	C	-0.759075	-0.760812	0.746372
C19	C	-0.759148	-0.760772	0.676403
C20	C	-0.347511	-0.761002	0.909918
C21	C	-0.168867	-0.761006	0.909918
C22	C	-0.759163	-0.351114	0.909878
C23	C	-0.758840	-0.172471	0.909967
C24	C	-0.860108	-0.861519	0.643573
C25	C	-0.860070	-0.861590	0.577831
C26	C	-0.759087	-0.760886	0.544921
C27	C	-0.658107	-0.660132	0.577759
C28	C	-0.658138	-0.660075	0.643500
N29	N	-0.746828	-0.622901	0.441632
N30	N	-0.746808	-0.622960	0.379181
C31	C	-0.758986	-0.761053	0.346846
N32	N	-0.771215	-0.899089	0.379322
N33	N	-0.771244	-0.899028	0.441779
C34	C	-0.759042	-0.760937	0.473636
C35	C	-0.859910	-0.861885	0.242730
C36	C	-0.859860	-0.861958	0.176987
C37	C	-0.657905	-0.660487	0.176917
C38	C	-0.657947	-0.660428	0.242659
C39	C	-0.758958	-0.761124	0.275562
C40	C	-0.758909	-0.761177	1.074113
C41	C	-0.758874	-0.761255	1.144082
H42	H	-0.942283	-0.943635	0.551095
O43	O	-0.560245	-0.562130	0.545767
C44	C	-0.649965	-0.460151	0.507666
H45	H	-0.774215	-0.450202	0.527456
H46	H	-0.592812	-0.338831	0.506871
H47	H	-0.655417	-0.508952	0.457865
O48	O	-0.559996	-0.562674	0.144859
C49	C	-0.581603	-0.584337	0.079793
H50	H	-0.703368	-0.635872	0.070826
H51	H	-0.570859	-0.466192	0.054757
H52	H	-0.488058	-0.668460	0.061182
O53	O	-0.560018	-0.562048	0.675297
C54	C	-0.470842	-0.473209	0.632157
H55	H	-0.535423	-0.467689	0.585280
H56	H	-0.453924	-0.348921	0.651090
H57	H	-0.351070	-0.531175	0.625218
H58	H	-0.942150	-0.943886	0.269522
O59	O	-0.559940	-0.562693	0.274651
C60	C	-0.581651	-0.584205	0.339732
H61	H	-0.633418	-0.705864	0.348766
H62	H	-0.463489	-0.573663	0.364732
H63	H	-0.665599	-0.490484	0.358326
O64	O	-0.957864	-0.960048	0.145164
C65	C	-0.923520	-1.117326	0.161305
H66	H	-0.862901	-1.120653	0.209048
H67	H	-1.037445	-1.187866	0.163574
H68	H	-0.842446	-1.170637	0.124345
O69	O	-0.958267	-0.959491	0.675437
C70	C	-1.047398	-1.048400	0.632357
H71	H	-0.982763	-1.054002	0.585507
H72	H	-1.064342	-1.172655	0.651410
H73	H	-1.167160	-0.990441	0.625318
