data_functionalizedCrystal
_audit_creation_method	'MofGen! by Chris Wilmer'
_symmetry_space_group_name_H-M	'P1'
_symmetry_Int_Tables_number	1
_symmetry_cell_setting	triclinic
loop_
_symmetry_equiv_pos_as_xyz
  x,y,z
_cell_length_a	19.188930
_cell_length_b	19.188930
_cell_length_c	18.266242
_cell_angle_alpha	90.011475
_cell_angle_beta	89.977082
_cell_angle_gamma	96.855221
loop_
_atom_site_label
_atom_site_type_symbol
_atom_site_fract_x
_atom_site_fract_y
_atom_site_fract_z
O1	O	0.926149	-0.087169	-0.061124
O2	O	0.722838	-0.098903	-0.061075
O3	O	0.830361	0.008620	-0.061087
O4	O	0.818627	-0.194691	-0.061113
O5	O	0.830343	0.008625	0.060675
O6	O	0.722820	-0.098897	0.060687
O7	O	0.926131	-0.087163	0.060638
Zn8	Zn	0.824473	-0.093029	0.079994
Zn9	Zn	0.824497	-0.093037	-0.080432
O10	O	0.818608	-0.194686	0.060649
C11	C	0.696818	-0.098520	-0.000188
C12	C	0.619313	-0.097380	-0.000169
C13	C	0.574389	-0.160470	-0.000188
C14	C	0.501566	-0.159399	-0.000196
C15	C	0.473669	-0.095233	-0.000199
C16	C	0.518603	-0.032133	-0.000175
C17	C	0.591425	-0.033207	-0.000160
N18	N	0.365695	-0.046188	-0.041663
N19	N	0.296516	-0.045172	-0.041679
C20	C	0.254260	-0.091994	-0.000243
N21	N	0.283795	-0.139881	0.041200
N22	N	0.352980	-0.140899	0.041213
C23	C	0.394707	-0.094062	-0.000215
C24	C	0.130372	-0.153928	-0.000270
C25	C	0.057547	-0.152853	-0.000274
C26	C	0.074586	-0.025586	-0.000261
C27	C	0.147409	-0.026662	-0.000250
C28	C	0.175298	-0.090835	-0.000258
C29	C	0.829972	0.034634	-0.000204
C30	C	0.828831	0.112138	-0.000197
C31	C	0.952151	-0.087546	-0.000252
C32	C	1.029656	-0.088687	-0.000276
C33	C	0.818997	-0.220700	-0.000236
C34	C	0.820138	-0.298204	-0.000247
N35	N	0.824461	-0.093024	0.189481
C36	C	0.891922	0.157062	-0.000209
C37	C	0.890850	0.229886	-0.000220
C38	C	0.826684	0.257782	-0.000206
C39	C	0.763585	0.212849	-0.000198
C40	C	0.764658	0.140026	-0.000194
N41	N	0.777631	0.365789	0.041244
N42	N	0.776615	0.434968	0.041242
C43	C	0.823446	0.477191	-0.000220
N44	N	0.871341	0.447624	-0.041669
N45	N	0.872359	0.378439	-0.041664
C46	C	0.825513	0.336745	-0.000210
C47	C	0.885379	0.601079	-0.000245
C48	C	0.884305	0.673904	-0.000261
C49	C	0.757038	0.656865	-0.000231
C50	C	0.758114	0.584042	-0.000222
C51	C	0.822287	0.556154	-0.000226
N52	N	0.824513	-0.093037	-0.189919
C53	C	0.872088	-0.045436	0.227785
C54	C	0.872092	-0.045433	0.304430
C55	C	0.824477	-0.093030	0.342768
C56	C	0.776841	-0.140621	0.304455
C57	C	0.776834	-0.140618	0.227812
N58	N	0.815401	-0.154837	0.463094
N59	N	0.815413	-0.154838	0.535902
C60	C	0.824496	-0.093040	0.573691
N61	N	0.833582	-0.031239	0.535920
N62	N	0.833574	-0.031240	0.463106
C63	C	0.824480	-0.093038	0.425875
C64	C	0.872131	-0.045444	0.695101
C65	C	0.872130	-0.045440	0.771748
C66	C	0.776882	-0.140634	0.771772
C67	C	0.776879	-0.140632	0.695127
C68	C	0.824507	-0.093038	0.656796
H69	H	0.944176	0.134360	-0.000214
H70	H	0.942228	0.266470	-0.000233
H71	H	0.464982	-0.210776	-0.000210
C72	C	0.048025	-0.278757	-0.000304
C73	C	0.008163	-0.222209	-0.000296
H74	H	0.017535	-0.321574	-0.000322
H75	H	0.076758	-0.276532	0.042160
H76	H	0.076807	-0.276521	-0.042763
H77	H	-0.020616	-0.224442	0.042166
H78	H	-0.020582	-0.224435	-0.042764
H79	H	0.706738	0.547464	-0.000208
C80	C	0.939168	0.793098	-0.000293
C81	C	0.953660	0.723289	-0.000281
H82	H	0.981987	0.823586	-0.000311
H83	H	0.912846	0.801543	0.042169
H84	H	0.912854	0.801511	-0.042753
H85	H	0.979970	0.714875	0.042183
H86	H	0.979994	0.714841	-0.042747
H87	H	0.711340	0.235567	-0.000187
H88	H	0.704792	0.679578	-0.000222
H89	H	0.910868	-0.006681	0.196579
C90	C	0.002620	0.049451	-0.062869
C91	C	0.043934	0.044949	-0.000267
H92	H	-0.016300	0.093000	-0.062872
H93	H	-0.034558	0.012035	-0.062872
H94	H	0.030706	0.046381	-0.105319
H95	H	0.015847	0.048014	0.042184
H96	H	0.081117	0.082376	-0.000256
C97	C	0.156934	0.099239	-0.000247
C98	C	0.196795	0.042690	-0.000240
H99	H	0.187424	0.142055	-0.000244
H100	H	0.128155	0.097015	0.042206
H101	H	0.128197	0.097002	-0.042717
H102	H	0.225528	0.044924	0.042233
H103	H	0.225586	0.044916	-0.042697
H104	H	0.713281	0.103448	-0.000184
H105	H	0.628003	0.018171	-0.000145
H106	H	0.937632	0.578372	-0.000251
H107	H	0.910877	-0.006680	0.335623
C108	C	0.734570	-0.182899	0.421956
C109	C	0.724503	-0.192943	0.346594
H110	H	0.702259	-0.215204	0.447968
H111	H	0.727133	-0.136326	0.434531
H112	H	0.781146	-0.190370	0.434480
H113	H	0.677929	-0.185467	0.334069
H114	H	0.731935	-0.239527	0.334014
H115	H	0.738049	-0.179371	0.196624
H116	H	0.910910	-0.006688	0.663892
H117	H	0.910911	-0.006685	0.802935
C118	C	0.550227	-0.286159	-0.000200
C119	C	0.605043	-0.231008	-0.000185
H120	H	0.569154	-0.329705	-0.000192
H121	H	0.522206	-0.283096	-0.042666
H122	H	0.522151	-0.283084	0.042257
H123	H	0.633116	-0.234080	-0.042645
H124	H	0.633076	-0.234073	0.042285
C125	C	0.681830	-0.156023	0.858005
C126	C	0.724540	-0.192953	0.813905
H127	H	0.649517	-0.188323	0.884021
H128	H	0.656807	-0.127027	0.828124
H129	H	0.710202	-0.127681	0.891787
H130	H	0.696168	-0.221291	0.780119
H131	H	0.749565	-0.221961	0.843788
C132	C	0.682741	-0.234731	0.702851
C133	C	0.724534	-0.192951	0.653018
H134	H	0.650426	-0.267033	0.676854
H135	H	0.657720	-0.205731	0.732763
H136	H	0.711736	-0.259772	0.732726
H137	H	0.695539	-0.167905	0.623147
H138	H	0.749556	-0.221955	0.623094
C139	C	0.414536	0.026019	-0.000206
C140	C	0.487942	0.038399	-0.000183
H141	H	0.395609	0.069566	-0.000213
H142	H	0.399080	0.000058	0.042247
H143	H	0.399135	0.000047	-0.042676
H144	H	0.503343	0.064368	0.042290
H145	H	0.503404	0.064372	-0.042640
C146	C	0.202417	-0.228975	-0.062854
C147	C	0.161034	-0.224463	-0.000267
H148	H	0.221341	-0.272522	-0.062851
H149	H	0.239592	-0.191556	-0.062842
H150	H	0.174377	-0.225917	-0.105315
H151	H	0.189076	-0.227516	0.042194
H152	H	0.123854	-0.261892	-0.000273
