data_functionalizedCrystal
_audit_creation_method	'MofGen! by Chris Wilmer'
_symmetry_space_group_name_H-M	'P1'
_symmetry_Int_Tables_number	1
_symmetry_cell_setting	triclinic
loop_
_symmetry_equiv_pos_as_xyz
  x,y,z
_cell_length_a	27.732048
_cell_length_b	11.792241
_cell_length_c	10.868271
_cell_angle_alpha	89.998441
_cell_angle_beta	90.001181
_cell_angle_gamma	83.418035
loop_
_atom_site_label
_atom_site_type_symbol
_atom_site_fract_x
_atom_site_fract_y
_atom_site_fract_z
O1	O	-0.641711	-0.135035	0.102164
O2	O	-0.141711	0.364965	0.602164
O3	O	-0.501036	-0.155568	0.102202
O4	O	-0.001036	0.344432	0.602202
O5	O	-0.574787	0.019979	0.102174
O6	O	-0.074787	0.519979	0.602174
O7	O	-0.567960	-0.310581	0.102193
O8	O	-0.067960	0.189419	0.602193
O9	O	-0.574781	0.019973	-0.102471
O10	O	-0.074781	0.519973	0.397529
O11	O	-0.501030	-0.155573	-0.102443
O12	O	-0.001030	0.344427	0.397557
O13	O	-0.641704	-0.135040	-0.102480
O14	O	-0.141704	0.364960	0.397520
Zn15	Zn	-0.571366	-0.145308	-0.134953
Zn16	Zn	-0.071366	0.354692	0.365047
Zn17	Zn	-0.571375	-0.145300	0.134675
Zn18	Zn	-0.071375	0.354700	0.634675
O19	O	-0.567953	-0.310587	-0.102452
O20	O	-0.067953	0.189413	0.397548
C21	C	-0.483024	-0.155140	-0.000116
C22	C	0.016976	0.344860	0.499884
C23	C	-0.429361	-0.153842	-0.000102
C24	C	0.070639	0.346158	0.499898
C25	C	-0.574355	0.062253	-0.000148
C26	C	-0.074355	0.562253	0.499852
C27	C	-0.573071	0.188226	-0.000147
C28	C	-0.073071	0.688226	0.499853
C29	C	-0.659717	-0.135469	-0.000160
C30	C	-0.159717	0.364531	0.499840
C31	C	-0.713379	-0.136766	-0.000166
C32	C	-0.213379	0.363234	0.499834
C33	C	-0.091101	-0.249407	-0.000150
C34	C	0.408899	0.250593	0.499850
C35	C	0.110587	-0.244592	-0.000161
C36	C	0.610587	0.255408	0.499839
O37	O	0.141335	-0.331980	-0.000209
O38	O	0.641335	0.168020	0.499791
N39	N	0.130315	-0.140500	-0.000165
N40	N	0.630315	0.359500	0.499835
C41	C	0.099617	-0.037605	-0.000174
C42	C	0.599617	0.462395	0.499826
O43	O	0.121024	0.051042	-0.000190
O44	O	0.621024	0.551042	0.499810
C45	C	-0.102070	-0.042422	-0.000171
C46	C	0.397930	0.457578	0.499829
C47	C	-0.121794	-0.146520	-0.000155
C48	C	0.378206	0.353480	0.499845
C49	C	-0.110826	-0.353497	-0.000135
C50	C	0.389174	0.146503	0.499865
C51	C	-0.161245	-0.354700	-0.000125
C52	C	0.338755	0.145300	0.499875
C53	C	-0.191939	-0.251813	-0.000131
C54	C	0.308061	0.248187	0.499869
C55	C	-0.172213	-0.147723	-0.000146
C56	C	0.327787	0.352277	0.499854
C57	C	-0.132766	0.060472	-0.000189
C58	C	0.367234	0.560472	0.499811
C59	C	-0.183191	0.059259	-0.000192
C60	C	0.316809	0.559259	0.499808
C61	C	-0.202915	-0.044840	-0.000176
C62	C	0.297085	0.455160	0.499824
C63	C	-0.253326	-0.046038	-0.000141
C64	C	0.246674	0.453962	0.499859
N65	N	-0.273054	-0.150130	-0.000138
N66	N	0.226946	0.349870	0.499862
C67	C	-0.242360	-0.253017	-0.000132
C68	C	0.257640	0.246983	0.499868
C69	C	0.205506	-0.035084	-0.000173
C70	C	0.705506	0.464916	0.499827
C71	C	0.255927	-0.033879	-0.000171
C72	C	0.755927	0.466121	0.499829
C73	C	0.266894	-0.240867	-0.000161
C74	C	0.766894	0.259133	0.499839
C75	C	0.216471	-0.242070	-0.000153
C76	C	0.716471	0.257930	0.499847
C77	C	0.185778	-0.139175	-0.000169
C78	C	0.685778	0.360825	0.499831
C79	C	-0.348244	-0.255535	-0.000111
C80	C	0.151756	0.244465	0.499889
C81	C	-0.398668	-0.256729	-0.000097
C82	C	0.101332	0.243271	0.499903
C83	C	-0.409630	-0.049742	-0.000114
C84	C	0.090370	0.450258	0.499886
C85	C	-0.359210	-0.048548	-0.000122
C86	C	0.140790	0.451452	0.499878
C87	C	-0.328518	-0.151454	-0.000125
C88	C	0.171482	0.348546	0.499875
O89	O	-0.284103	0.041303	-0.000107
O90	O	0.215897	0.541303	0.499893
O91	O	-0.263777	-0.341651	-0.000143
O92	O	0.236223	0.158349	0.499857
C93	C	-0.040682	-0.248205	-0.000159
C94	C	0.459318	0.251795	0.499841
C95	C	-0.020957	-0.144115	-0.000174
C96	C	0.479043	0.355885	0.499826
C97	C	-0.051650	-0.041227	-0.000180
C98	C	0.448350	0.458773	0.499820
C99	C	0.029465	-0.142910	-0.000173
C100	C	0.529465	0.357090	0.499827
C101	C	0.060159	-0.245797	-0.000167
C102	C	0.560159	0.254203	0.499833
C103	C	0.040431	-0.349889	-0.000163
C104	C	0.540431	0.150111	0.499837
C105	C	-0.009988	-0.351092	-0.000154
C106	C	0.490012	0.148908	0.499846
C107	C	-0.031923	0.062864	-0.000183
C108	C	0.468077	0.562864	0.499817
C109	C	0.018497	0.064058	-0.000192
C110	C	0.518497	0.564058	0.499808
C111	C	0.049191	-0.038829	-0.000186
C112	C	0.549191	0.461171	0.499814
C113	C	-0.568385	-0.352861	-0.000128
C114	C	-0.068385	0.147139	0.499872
C115	C	-0.569669	-0.478834	-0.000121
C116	C	-0.069669	0.021166	0.499879
N117	N	-0.571363	-0.145312	-0.318967
N118	N	-0.071363	0.354688	0.181033
C119	C	-0.570711	0.418862	-0.000126
C120	C	-0.070711	0.918862	0.499874
C121	C	-0.572023	0.290519	-0.000137
C122	C	-0.072023	0.790519	0.499863
C123	C	-0.571367	-0.145313	-0.430305
C124	C	-0.071367	0.354687	0.069695
C125	C	-0.571373	-0.145302	-0.569983
C126	C	-0.071373	0.354698	-0.069983
N127	N	-0.571381	-0.145287	0.318689
N128	N	-0.071381	0.354713	0.818689
H129	H	-0.414724	-0.341502	-0.000083
H130	H	0.085276	0.158498	0.499917
H131	H	0.180519	0.048710	-0.000185
H132	H	0.680519	0.548710	0.499815
H133	H	-0.056909	0.146649	-0.000191
H134	H	0.443091	0.646649	0.499809
H135	H	-0.323260	-0.339331	-0.000117
H136	H	0.176740	0.160669	0.499883
F137	F	-0.338217	0.062244	-0.000140
F138	F	0.161783	0.562244	0.499860
F139	F	-0.442305	0.059752	-0.000121
F140	F	0.057695	0.559752	0.499879
H141	H	-0.085840	-0.437285	-0.000135
H142	H	0.414160	0.062715	0.499865
F143	F	0.073106	-0.459389	-0.000151
F144	F	0.573106	0.040611	0.499849
F145	F	0.039483	0.174862	-0.000193
F146	F	0.539483	0.674862	0.499807
F147	F	-0.182231	-0.465497	-0.000114
F148	F	0.317769	0.034503	0.499886
H149	H	0.200415	-0.326836	-0.000147
H150	H	0.700415	0.173164	0.499853
H151	H	0.291893	-0.324641	-0.000156
H152	H	0.791893	0.175359	0.499844
H153	H	0.271982	0.050888	-0.000165
H154	H	0.771982	0.550888	0.499835
F155	F	-0.030974	-0.461888	-0.000137
F156	F	0.469026	0.038112	0.499863
H157	H	-0.116716	0.145240	-0.000204
H158	H	0.383284	0.645240	0.499796
H159	H	-0.208179	0.143050	-0.000205
H160	H	0.291821	0.643050	0.499795
