data_functionalizedCrystal
_audit_creation_method	'MofGen! by Chris Wilmer'
_symmetry_space_group_name_H-M	'P1'
_symmetry_Int_Tables_number	1
_symmetry_cell_setting	triclinic
loop_
_symmetry_equiv_pos_as_xyz
  x,y,z
_cell_length_a	17.699097
_cell_length_b	16.176319
_cell_length_c	16.109301
_cell_angle_alpha	89.991775
_cell_angle_beta	96.625044
_cell_angle_gamma	90.011012
loop_
_atom_site_label
_atom_site_type_symbol
_atom_site_fract_x
_atom_site_fract_y
_atom_site_fract_z
O1	O	1.004223	0.068818	-0.105192
O2	O	1.504223	0.568818	0.394808
O3	O	0.783865	0.068805	-0.118859
O4	O	1.283865	0.568805	0.381141
O5	O	0.900097	0.068803	0.009015
O6	O	1.400097	0.568803	0.509015
O7	O	0.887990	0.068819	-0.233067
O8	O	1.387990	0.568819	0.266933
O9	O	0.900081	-0.068690	0.009023
O10	O	1.400081	0.431310	0.509023
O11	O	0.783849	-0.068688	-0.118851
O12	O	1.283849	0.431312	0.381149
O13	O	1.004207	-0.068675	-0.105184
O14	O	1.504207	0.431325	0.394816
Cu15	Cu	0.894026	-0.081236	-0.112017
Cu16	Cu	1.394026	0.418764	0.387983
Cu17	Cu	0.894045	0.081366	-0.112027
Cu18	Cu	1.394045	0.581366	0.387973
O19	O	0.887974	-0.068674	-0.233059
O20	O	1.387974	0.431326	0.266941
C21	C	0.755660	0.000056	-0.118364
C22	C	1.255660	0.500056	0.381636
C23	C	0.671640	0.000051	-0.116889
C24	C	1.171640	0.500051	0.383111
N25	N	0.894019	-0.195601	-0.112010
N26	N	1.394019	0.304399	0.387990
C27	C	0.155917	0.075031	-0.107854
C28	C	0.655917	0.575031	0.392146
C29	C	0.234864	0.075027	-0.109234
C30	C	0.734864	0.575027	0.390766
C31	C	0.274322	0.000077	-0.109921
C32	C	0.774322	0.500077	0.390079
C33	C	0.234831	-0.074875	-0.109219
C34	C	0.734831	0.425125	0.390781
C35	C	0.155887	-0.074870	-0.107833
C36	C	0.655887	0.425130	0.392167
C37	C	0.553203	-0.074897	-0.114807
C38	C	1.053203	0.425103	0.385193
C39	C	0.632152	-0.074896	-0.116196
C40	C	1.132152	0.425104	0.383804
C41	C	0.632180	0.075001	-0.116208
C42	C	1.132180	0.575001	0.383792
C43	C	0.553236	0.075006	-0.114822
C44	C	1.053236	0.575006	0.385178
C45	C	0.513752	0.000055	-0.114116
C46	C	1.013752	0.500055	0.385884
C47	C	0.428150	0.000060	-0.112618
C48	C	0.928150	0.500060	0.387382
C49	C	0.359922	0.000070	-0.111424
C50	C	0.859922	0.500070	0.388576
C51	C	0.945502	-0.238866	-0.055410
C52	C	1.445502	0.261134	0.444590
C53	C	0.945506	-0.325413	-0.055409
C54	C	1.445506	0.174587	0.444591
C55	C	0.894029	-0.368694	-0.112013
C56	C	1.394029	0.131306	0.387987
C57	C	0.842541	-0.325423	-0.168615
C58	C	1.342541	0.174577	0.331385
C59	C	0.842534	-0.238878	-0.168611
C60	C	1.342534	0.261122	0.331389
C61	C	0.842567	-0.674451	-0.168631
C62	C	1.342567	-0.174451	0.331369
C63	C	0.842579	-0.761003	-0.168632
C64	C	1.342579	-0.261003	0.331368
C65	C	0.945538	-0.760987	-0.055428
C66	C	1.445538	-0.260987	0.444572
C67	C	0.945531	-0.674442	-0.055425
C68	C	1.445531	-0.174442	0.444575
C69	C	0.894041	-0.631178	-0.112024
C70	C	1.394041	-0.131178	0.387976
C71	C	0.894036	-0.537334	-0.112023
C72	C	1.394036	-0.037334	0.387977
C73	C	0.894037	-0.462537	-0.112018
C74	C	1.394037	0.037463	0.387982
C75	C	1.032412	0.000075	-0.105680
C76	C	1.532412	0.500075	0.394320
C77	C	1.116432	0.000086	-0.107155
C78	C	1.616432	0.500086	0.392845
C79	C	0.899599	0.000056	0.039993
C80	C	1.399599	0.500056	0.539993
C81	C	0.898129	0.000055	0.132286
C82	C	1.398129	0.500055	0.632286
N83	N	0.894059	0.195731	-0.112027
N84	N	1.394059	0.695731	0.387973
C85	C	0.888473	0.000075	-0.264037
C86	C	1.388473	0.500075	0.235963
C87	C	0.889943	0.000082	-0.356330
C88	C	1.389943	0.500082	0.143670
C89	C	0.963680	0.000072	0.354668
C90	C	1.463680	0.500072	0.854668
C91	C	0.962292	0.000079	0.441386
C92	C	1.462292	0.500079	0.941386
C93	C	0.824387	0.000067	0.421282
C94	C	1.324387	0.500067	0.921282
C95	C	0.825775	0.000066	0.334565
C96	C	1.325775	0.500066	0.834565
C97	C	0.895424	0.000065	0.301261
C98	C	1.395424	0.500065	0.801261
C99	C	0.892648	0.000072	0.474695
C100	C	1.392648	0.500072	0.974695
C101	C	0.891143	0.000079	0.568719
C102	C	1.391143	0.500079	1.068719
C103	C	0.896929	0.000059	0.207232
C104	C	1.396929	0.500059	0.707232
H105	H	0.267010	0.136056	-0.109798
H106	H	0.767010	0.636056	0.390202
O107	O	0.670580	-0.147655	-0.116746
O108	O	1.170580	0.352345	0.383254
C109	C	0.724822	-0.152143	-0.045560
C110	C	1.224822	0.347857	0.454440
H111	H	0.739521	-0.087067	-0.021784
H112	H	1.239521	0.412933	0.478216
H113	H	0.778399	-0.183864	-0.062718
H114	H	1.278399	0.316136	0.437282
H115	H	0.700408	-0.189127	0.005383
H116	H	1.200408	0.310873	0.505383
H117	H	0.521066	-0.135927	-0.114220
H118	H	1.021066	0.364073	0.385780
O119	O	1.031315	-0.000067	0.322276
O120	O	1.531315	0.499933	0.822276
C121	C	1.036237	-0.071265	0.272712
C122	C	1.536237	0.428735	0.772712
H123	H	0.996688	-0.121043	0.293145
H124	H	1.496688	0.378957	0.793145
H125	H	1.097236	-0.095157	0.280625
H126	H	1.597236	0.404843	0.780625
H127	H	1.018767	-0.055168	0.204287
H128	H	1.518767	0.444832	0.704287
H129	H	0.800610	-0.203652	-0.214700
H130	H	1.300610	0.296348	0.285300
H131	H	0.987426	-0.360639	-0.009321
H132	H	1.487426	0.139361	0.490679
O133	O	0.515028	0.147887	-0.114119
O134	O	1.015028	0.647887	0.385881
C135	C	0.566807	0.214038	-0.115051
C136	C	1.066807	0.714038	0.384949
H137	H	0.626216	0.192061	-0.089729
H138	H	1.126216	0.692061	0.410271
H139	H	0.548823	0.266454	-0.074304
H140	H	1.048823	0.766454	0.425696
H141	H	0.567250	0.237089	-0.181873
H142	H	1.067250	0.737089	0.318127
O143	O	0.995518	-0.802925	-0.000324
O144	O	1.495518	-0.302925	0.499676
C145	C	0.983225	-0.781807	0.081963
C146	C	1.483225	-0.281807	0.581963
H147	H	0.954050	-0.718977	0.081820
H148	H	1.454050	-0.218977	0.581820
H149	H	1.040125	-0.778837	0.122984
H150	H	1.540125	-0.278837	0.622984
H151	H	0.945563	-0.830529	0.107624
H152	H	1.445563	-0.330529	0.607624
H153	H	0.987423	-0.203633	-0.009320
H154	H	1.487423	0.296367	0.490680
H155	H	1.017873	0.000086	0.484867
H156	H	1.517873	0.500086	0.984867
O157	O	0.756800	0.000025	0.453774
O158	O	1.256800	0.500025	0.953774
C159	C	0.770209	0.000045	0.541764
C160	C	1.270209	0.500045	1.041764
H161	H	0.829276	-0.025979	0.562250
H162	H	1.329276	0.474021	1.062250
H163	H	0.725643	-0.039879	0.568306
H164	H	1.225643	0.460121	1.068306
H165	H	0.766550	0.066006	0.565889
H166	H	1.266550	0.566006	1.065889
O167	O	0.995375	-0.632377	-0.000284
O168	O	1.495375	-0.132377	0.499716
C169	C	0.954749	-0.582453	0.050956
C170	C	1.454749	-0.082453	0.550956
H171	H	0.895572	-0.569436	0.017651
H172	H	1.395572	-0.069436	0.517651
H173	H	0.986330	-0.521612	0.064348
H174	H	1.486330	-0.021612	0.564348
H175	H	0.949493	-0.615939	0.112301
H176	H	1.449493	-0.115939	0.612301
O177	O	0.759537	0.000096	0.282561
O178	O	1.259537	0.500096	0.782561
C179	C	0.775699	0.000078	0.198882
C180	C	1.275699	0.500078	0.698882
H181	H	0.835151	0.026112	0.195679
H182	H	1.335151	0.526112	0.695679
H183	H	0.732198	0.039995	0.159499
H184	H	1.232198	0.539995	0.659499
H185	H	0.772819	-0.065884	0.173804
H186	H	1.272819	0.434116	0.673804
H187	H	0.266965	-0.135902	-0.109773
H188	H	0.766965	0.364098	0.390227
H189	H	0.664337	0.136030	-0.116779
H190	H	1.164337	0.636030	0.383221
O191	O	0.792609	-0.367591	-0.223569
O192	O	1.292609	0.132409	0.276431
C193	C	0.803642	-0.453257	-0.211425
C194	C	1.303642	0.046743	0.288575
H195	H	0.863823	-0.465064	-0.180272
H196	H	1.363823	0.034936	0.319728
H197	H	0.795207	-0.486137	-0.274402
H198	H	1.295207	0.013863	0.225598
H199	H	0.760820	-0.477840	-0.169783
H200	H	1.260820	0.022160	0.330217
H201	H	0.123738	-0.135899	-0.107272
H202	H	0.623738	0.364101	0.392728
H203	H	0.123796	0.136065	-0.107300
H204	H	0.623796	0.636065	0.392700
H205	H	0.800658	-0.796241	-0.214727
H206	H	1.300658	-0.296241	0.285273
H207	H	0.800642	-0.639233	-0.214717
H208	H	1.300642	-0.139233	0.285283
