data_functionalizedCrystal
_audit_creation_method	'MofGen! by Chris Wilmer'
_symmetry_space_group_name_H-M	'P1'
_symmetry_Int_Tables_number	1
_symmetry_cell_setting	triclinic
loop_
_symmetry_equiv_pos_as_xyz
  x,y,z
_cell_length_a	19.288864
_cell_length_b	11.792241
_cell_length_c	18.366186
_cell_angle_alpha	89.993644
_cell_angle_beta	89.977106
_cell_angle_gamma	83.664831
loop_
_atom_site_label
_atom_site_type_symbol
_atom_site_fract_x
_atom_site_fract_y
_atom_site_fract_z
O1	O	0.922157	0.141582	-0.060784
O2	O	0.720005	0.160681	-0.060734
O3	O	0.825987	-0.014113	-0.060755
O4	O	0.816175	0.316377	-0.060763
O5	O	0.825968	-0.014122	0.060345
O6	O	0.719987	0.160673	0.060365
O7	O	0.922139	0.141574	0.060316
Zn8	Zn	0.821060	0.151122	0.079568
Zn9	Zn	0.821084	0.151133	-0.079986
O10	O	0.816157	0.316368	0.060337
C11	C	0.694116	0.160063	-0.000178
C12	C	0.617002	0.158218	-0.000159
C13	C	0.572888	0.260779	-0.000173
C14	C	0.500431	0.259046	-0.000181
C15	C	0.472091	0.154746	-0.000189
C16	C	0.516215	0.052171	-0.000171
C17	C	0.588670	0.053907	-0.000156
C18	C	0.363370	0.072757	-0.042638
C19	C	0.290915	0.071025	-0.042658
C20	C	0.248615	0.149387	-0.000233
C21	C	0.278777	0.229500	0.042202
C22	C	0.351232	0.231236	0.042217
C23	C	0.393526	0.152852	-0.000205
C24	C	0.125935	0.250076	-0.000255
C25	C	0.053477	0.248339	-0.000258
C26	C	0.069262	0.041460	-0.000256
C27	C	0.141718	0.043201	-0.000246
C28	C	0.170050	0.147512	-0.000248
C29	C	0.825361	-0.056399	-0.000205
C30	C	0.823517	-0.182385	-0.000206
C31	C	0.820125	-0.413045	-0.000217
C32	C	0.822009	-0.284689	-0.000211
C33	C	0.948028	0.142192	-0.000242
C34	C	1.025142	0.144037	-0.000266
C35	C	0.816783	0.358654	-0.000214
C36	C	0.818627	0.484640	-0.000219
N37	N	0.821049	0.151113	0.188459
N38	N	0.821101	0.151133	-0.188877
C39	C	0.867993	0.073752	0.226550
C40	C	0.867997	0.073747	0.302778
C41	C	0.821064	0.151123	0.340912
C42	C	0.774111	0.228490	0.302811
C43	C	0.774103	0.228485	0.226585
C44	C	0.812353	0.254534	0.461671
C45	C	0.812366	0.254540	0.537896
C46	C	0.821084	0.151137	0.576019
C47	C	0.829804	0.047723	0.537908
C48	C	0.829796	0.047719	0.461682
C49	C	0.821067	0.151136	0.423566
C50	C	0.868036	0.073764	0.696765
C51	C	0.868035	0.073757	0.772994
C52	C	0.774152	0.228510	0.773026
C53	C	0.774149	0.228507	0.696799
C54	C	0.821095	0.151135	0.658673
H55	H	0.397806	0.008943	-0.077190
H56	H	0.805270	0.338745	0.568920
H57	H	0.836895	-0.036484	0.430655
C58	C	0.839392	-0.066032	0.579833
C59	C	0.848981	-0.179777	0.537915
C60	C	0.858571	-0.293527	0.579843
C61	C	0.858572	-0.293532	0.663689
C62	C	0.848983	-0.179782	0.705611
C63	C	0.839393	-0.066032	0.663683
H64	H	0.848980	-0.179777	0.475843
H65	H	0.865669	-0.377731	0.548808
H66	H	0.865671	-0.377736	0.694726
H67	H	0.848984	-0.179782	0.767684
H68	H	0.832295	0.018172	0.694718
C69	C	0.919643	-0.011350	0.344688
C70	C	0.971300	-0.096419	0.302749
C71	C	1.022947	-0.181514	0.344656
C72	C	1.022937	-0.181541	0.428502
C73	C	0.971279	-0.096469	0.470446
C74	C	0.919632	-0.011374	0.428539
H75	H	0.971309	-0.096402	0.240677
H76	H	1.061188	-0.244490	0.313606
H77	H	1.061169	-0.244534	0.459524
H78	H	0.971270	-0.096486	0.532518
H79	H	0.881391	0.051602	0.459589
C80	C	0.157106	0.364813	-0.000247
C81	C	0.108578	0.477634	-0.000250
C82	C	0.139746	0.592371	-0.000241
C83	C	0.219444	0.594287	-0.000230
C84	C	0.267977	0.481461	-0.000228
C85	C	0.236809	0.366724	-0.000236
H86	H	0.049576	0.476220	-0.000258
H87	H	0.103818	0.675892	-0.000243
H88	H	0.242517	0.679222	-0.000224
H89	H	0.326979	0.482875	-0.000220
H90	H	0.272737	0.283203	-0.000235
H91	H	0.464507	0.342567	-0.000190
C92	C	0.384411	0.319342	0.088900
C93	C	0.464110	0.321246	0.088917
C94	C	0.497290	0.409349	0.135603
C95	C	0.450771	0.495549	0.182274
C96	C	0.371068	0.493649	0.182259
C97	C	0.337888	0.405545	0.135573
H98	H	0.498550	0.257433	0.054367
H99	H	0.556292	0.410755	0.135614
H100	H	0.475333	0.560768	0.216834
H101	H	0.336628	0.557462	0.216809
H102	H	0.278886	0.404139	0.135562
C103	C	0.722523	0.313623	0.814966
C104	C	0.722576	0.313704	0.898811
C105	C	0.670943	0.398815	0.940755
C106	C	0.619259	0.483846	0.898853
C107	C	0.619204	0.483768	0.815002
C108	C	0.670837	0.398657	0.773059
H109	H	0.760837	0.250756	0.929834
H110	H	0.670984	0.398872	1.002827
H111	H	0.581037	0.546851	0.929902
H112	H	0.580943	0.546716	0.783980
H113	H	0.670796	0.398600	0.710987
H114	H	0.595951	0.345717	-0.000176
H115	H	0.906259	0.010760	0.665722
H116	H	0.244337	0.293309	0.076749
H117	H	0.906261	0.010755	0.804009
H118	H	0.624588	-0.029614	-0.000145
H119	H	0.735896	0.291488	0.333864
H120	H	0.017560	0.331860	-0.000265
H121	H	0.805242	0.338743	0.430637
H122	H	0.046188	-0.043463	-0.000309
H123	H	0.266364	0.005797	-0.077214
C124	C	0.485044	-0.062561	-0.000182
C125	C	0.437363	-0.092204	0.062688
C126	C	0.406193	-0.206940	0.062681
C127	C	0.422704	-0.292033	-0.000197
C128	C	0.470387	-0.262393	-0.063072
C129	C	0.501557	-0.147657	-0.063065
H130	H	0.425138	-0.029211	0.109239
H131	H	0.370895	-0.228882	0.109226
H132	H	0.399630	-0.376968	-0.000202
H133	H	0.482611	-0.325386	-0.109623
H134	H	0.536855	-0.125715	-0.109610
C135	C	0.919624	-0.011362	0.184609
C136	C	0.917978	-0.140601	0.195105
C137	C	0.969608	-0.225717	0.153161
C138	C	1.022883	-0.181595	0.100722
C139	C	1.024531	-0.052350	0.090224
C140	C	0.972902	0.032766	0.132168
H141	H	0.878539	-0.173269	0.233925
H142	H	0.968387	-0.321393	0.160932
H143	H	1.061102	-0.244603	0.069672
H144	H	1.063971	-0.019682	0.051404
H145	H	0.974122	0.128442	0.124397
H146	H	0.177637	-0.040316	-0.000238
H147	H	0.735925	0.291506	0.665783
H148	H	0.735875	0.291483	0.195571
