data_functionalizedCrystal
_audit_creation_method	'MofGen! by Chris Wilmer'
_symmetry_space_group_name_H-M	'P1'
_symmetry_Int_Tables_number	1
_symmetry_cell_setting	triclinic
loop_
_symmetry_equiv_pos_as_xyz
  x,y,z
_cell_length_a	16.776229
_cell_length_b	17.699083
_cell_length_c	11.792254
_cell_angle_alpha	96.259194
_cell_angle_beta	90.005713
_cell_angle_gamma	90.003036
loop_
_atom_site_label
_atom_site_type_symbol
_atom_site_fract_x
_atom_site_fract_y
_atom_site_fract_z
O1	O	-0.066275	0.103780	-1.505659
O2	O	0.433725	0.603780	-1.005659
O3	O	-0.066276	0.114461	-1.175191
O4	O	0.433724	0.614461	-0.675191
O5	O	-0.066283	-0.001018	-1.349762
O6	O	0.433717	0.498982	-0.849762
O7	O	-0.066268	0.219260	-1.331089
O8	O	0.433732	0.719260	-0.831089
O9	O	0.066293	-0.001019	-1.349742
O10	O	0.566293	0.498981	-0.849742
O11	O	0.066301	0.114461	-1.175172
O12	O	0.566301	0.614461	-0.675172
O13	O	0.066301	0.103780	-1.505639
O14	O	0.566301	0.603780	-1.005639
Zn15	Zn	0.087350	0.109120	-1.340402
Zn16	Zn	0.587350	0.609120	-0.840402
Zn17	Zn	-0.087325	0.109121	-1.340428
Zn18	Zn	0.412675	0.609121	-0.840428
O19	O	0.066309	0.219259	-1.331069
O20	O	0.566309	0.719259	-0.831069
C21	C	0.000012	0.113788	-1.132899
C22	C	0.500012	0.613788	-0.632899
C23	C	0.000012	0.111774	-1.006910
C24	C	0.500012	0.611774	-0.506910
N25	N	0.206562	0.109119	-1.340393
N26	N	0.706562	0.609119	-0.840393
N27	N	-0.206536	0.109116	-1.340447
N28	N	0.293464	0.609116	-0.840447
C29	C	0.000001	-0.029219	-1.349083
C30	C	0.500001	0.470781	-0.849083
C31	C	-0.000010	-0.113248	-1.347075
C32	C	0.499990	0.386752	-0.847075
C33	C	0.248279	0.155336	-1.409094
C34	C	0.748279	0.655336	-0.909094
C35	C	0.331731	0.155334	-1.409107
C36	C	0.831731	0.655334	-0.909107
C37	C	0.373465	0.109117	-1.340411
C38	C	0.873465	0.609117	-0.840411
C39	C	0.331742	0.062895	-1.271707
C40	C	0.831742	0.562895	-0.771707
C41	C	0.248291	0.062894	-1.271701
C42	C	0.748291	0.562894	-0.771701
C43	C	0.668289	0.062896	-1.271730
C44	C	1.168289	0.562896	-0.771730
C45	C	0.751745	0.062902	-1.271738
C46	C	1.251745	0.562902	-0.771738
C47	C	0.751729	0.155335	-1.409136
C48	C	1.251729	0.655335	-0.909136
C49	C	0.668278	0.155335	-1.409130
C50	C	1.168278	0.655335	-0.909130
C51	C	0.626563	0.109110	-1.340431
C52	C	1.126563	0.609110	-0.840431
C53	C	0.536074	0.109112	-1.340419
C54	C	1.036074	0.609112	-0.840419
C55	C	0.463951	0.109118	-1.340416
C56	C	0.963951	0.609118	-0.840416
C57	C	0.000023	0.247460	-1.331748
C58	C	0.500023	0.747460	-0.831748
C59	C	0.000028	0.331489	-1.333755
C60	C	0.500028	0.831489	-0.833755
C61	C	0.000028	0.379561	-1.231286
C62	C	0.500028	0.879561	-0.731286
C63	C	0.000019	0.458514	-1.233179
C64	C	0.500019	0.958514	-0.733179
C65	C	0.000015	0.489394	-1.337542
C66	C	0.500015	0.989394	-0.837542
C67	C	0.000013	0.441317	-1.440019
C68	C	0.500013	0.941317	-0.940019
C69	C	0.000017	0.362365	-1.438125
C70	C	0.500017	0.862365	-0.938125
C71	C	-0.000003	0.759721	-1.447659
C72	C	0.499997	1.259721	-0.947659
C73	C	-0.000004	0.838679	-1.449545
C74	C	0.499996	1.338679	-0.949545
C75	C	-0.000001	0.855870	-1.242713
C76	C	0.499999	1.355870	-0.742713
C77	C	0.000003	0.776918	-1.240819
C78	C	0.500003	1.276918	-0.740819
C79	C	-0.000003	0.728847	-1.343296
C80	C	0.499997	1.228847	-0.843296
C81	C	0.000005	0.643237	-1.341242
C82	C	0.500005	1.143237	-0.841242
C83	C	0.000012	0.575003	-1.339597
C84	C	0.500012	1.075003	-0.839597
C85	C	0.000012	0.104453	-1.547931
C86	C	0.500012	0.604453	-1.047931
C87	C	0.000007	0.106467	-1.673920
C88	C	0.500007	0.606467	-1.173920
C89	C	0.000008	0.110138	-0.904593
C90	C	0.500008	0.610138	-0.404593
C91	C	0.000007	0.108092	-0.776231
C92	C	0.500007	0.608092	-0.276231
H93	H	0.214305	0.192976	-1.465028
H94	H	0.714305	0.692976	-0.965028
F95	F	0.000003	0.474184	-1.551090
F96	F	0.500003	0.974184	-1.051090
H97	H	0.000016	0.497652	-1.149738
H98	H	0.500016	0.997652	-0.649738
F99	F	0.376160	0.013706	-1.198598
F100	F	0.876160	0.513706	-0.698598
F101	F	0.376126	0.204525	-1.482227
F102	F	0.876126	0.704525	-0.982227
H103	H	0.000014	0.323225	-1.521566
H104	H	0.500014	0.823225	-1.021566
F105	F	0.623902	0.013723	-1.198579
F106	F	1.123902	0.513723	-0.698579
F107	F	0.203893	0.013698	-1.198589
F108	F	0.703893	0.513698	-0.698589
F109	F	-0.000010	0.871541	-1.560628
F110	F	0.499990	1.371541	-1.060628
F111	F	0.000038	0.346703	-1.120207
F112	F	0.500038	0.846703	-0.620207
H113	H	0.000010	0.751780	-1.155837
H114	H	0.500010	1.251780	-0.655837
H115	H	0.634303	0.192971	-1.465065
H116	H	1.134303	0.692971	-0.965065
H117	H	0.785722	0.025265	-1.215795
H118	H	1.285722	0.525265	-0.715795
H119	H	-0.000003	0.720590	-1.531102
H120	H	0.499997	1.220590	-1.031102
H121	H	0.785704	0.192972	-1.465077
H122	H	1.285704	0.692972	-0.965077
F123	F	0.000002	0.907037	-1.133648
F124	F	0.500002	1.407037	-0.633648
