data_functionalizedCrystal
_audit_creation_method	'MofGen! by Chris Wilmer'
_symmetry_space_group_name_H-M	'P1'
_symmetry_Int_Tables_number	1
_symmetry_cell_setting	triclinic
loop_
_symmetry_equiv_pos_as_xyz
  x,y,z
_cell_length_a	29.019771
_cell_length_b	29.019011
_cell_length_c	29.015668
_cell_angle_alpha	60.004890
_cell_angle_beta	60.009825
_cell_angle_gamma	59.993818
loop_
_atom_site_label
_atom_site_type_symbol
_atom_site_fract_x
_atom_site_fract_y
_atom_site_fract_z
O1	O	0.063866	-0.673289	0.563007
O2	O	0.563866	-0.173289	1.063007
O3	O	0.024059	-0.524205	0.453633
O4	O	0.524059	-0.024205	0.953633
O5	O	0.118464	-0.618532	0.453552
O6	O	0.618464	-0.118532	0.953552
O7	O	-0.030540	-0.578962	0.563088
O8	O	0.469460	-0.078962	1.063088
O9	O	0.149785	-0.587215	0.484789
O10	O	0.649785	-0.087215	0.984789
O11	O	0.055379	-0.492888	0.484869
O12	O	0.555379	0.007112	0.984869
O13	O	0.095186	-0.641972	0.594244
O14	O	0.595186	-0.141972	1.094244
Cu15	Cu	0.078143	-0.564571	0.542409
Cu16	Cu	0.578143	-0.064571	1.042409
Cu17	Cu	0.041102	-0.601606	0.505468
Cu18	Cu	0.541102	-0.101606	1.005468
O19	O	0.000781	-0.547645	0.594325
O20	O	0.500781	-0.047645	1.094325
N21	N	0.104196	-0.538525	0.568394
N22	N	0.604196	-0.038525	1.068394
N23	N	0.015054	-0.627656	0.479483
N24	N	0.515054	-0.127656	0.979483
C25	C	0.143783	-0.499167	0.850823
C26	C	0.643783	0.000833	1.350823
C27	C	0.386758	-0.499111	0.607645
C28	C	0.886758	0.000889	1.107645
C29	C	0.143618	-0.499136	0.607763
C30	C	0.643618	0.000864	1.107763
C31	C	0.143598	-0.256029	0.607770
C32	C	0.643598	0.243971	1.107770
C33	C	0.182748	-0.373362	0.646852
C34	C	0.682748	0.126638	1.146852
C35	C	0.182758	-0.460025	0.646847
C36	C	0.682758	0.039975	1.146847
C37	C	0.204440	-0.438361	0.668500
C38	C	0.704440	0.061639	1.168500
C39	C	0.298958	-0.422064	0.618723
C40	C	0.798958	0.077936	1.118723
C41	C	0.358043	-0.441753	0.599006
C42	C	0.858043	0.058247	1.099006
C43	C	0.358069	-0.537354	0.635461
C44	C	0.858069	-0.037354	1.135461
C45	C	0.298985	-0.517664	0.655180
C46	C	0.798985	-0.017664	1.155180
C47	C	0.196983	-0.343808	0.588767
C48	C	0.696983	0.156192	1.088767
C49	C	0.177262	-0.284720	0.569090
C50	C	0.677262	0.215280	1.069090
C51	C	0.129075	-0.284743	0.665586
C52	C	0.629075	0.215257	1.165586
C53	C	0.148797	-0.343831	0.685263
C54	C	0.648797	0.156169	1.185263
C55	C	0.124666	-0.445760	0.661149
C56	C	0.624666	0.054240	1.161149
C57	C	0.104961	-0.465454	0.641458
C58	C	0.604961	0.034546	1.141458
C59	C	0.201435	-0.513678	0.593176
C60	C	0.701435	-0.013678	1.093176
C61	C	0.221143	-0.493984	0.612860
C62	C	0.721143	0.006016	1.112860
C63	C	0.124738	-0.445777	0.763064
C64	C	0.624738	0.054223	1.263064
C65	C	0.105085	-0.465488	0.822151
C66	C	0.605085	0.034512	1.322151
C67	C	0.201594	-0.513722	0.822097
C68	C	0.701594	-0.013722	1.322097
C69	C	0.221247	-0.494012	0.763009
C70	C	0.721247	0.005988	1.263009
C71	C	0.182817	-0.460038	0.733494
C72	C	0.682817	0.039962	1.233494
C73	C	0.269432	-0.460018	0.646809
C74	C	0.769432	0.039982	1.146809
C75	C	0.121399	-0.520450	0.915812
C76	C	0.621399	-0.020450	1.415812
C77	C	0.451745	-0.520012	0.585655
C78	C	0.951745	-0.020012	1.085655
C79	C	0.121177	-0.520429	0.586502
C80	C	0.621177	-0.020429	1.086502
C81	C	0.121544	-0.191035	0.586883
C82	C	0.621544	0.308965	1.086883
C83	C	-0.110592	-0.666601	0.440035
C84	C	0.389408	-0.166601	0.940035
C85	C	-0.023978	-0.666709	0.440231
C86	C	0.476022	-0.166709	0.940231
C87	C	-0.045598	-0.688342	0.418486
C88	C	0.454402	-0.188342	0.918486
C89	C	-0.061967	-0.782825	0.468184
C90	C	0.438033	-0.282825	0.968184
C91	C	-0.042323	-0.841914	0.487907
C92	C	0.457677	-0.341914	0.987907
C93	C	0.053280	-0.842025	0.451623
C94	C	0.553280	-0.342025	0.951623
C95	C	0.033634	-0.782937	0.431899
C96	C	0.533634	-0.282937	0.931899
C97	C	-0.140218	-0.680832	0.498102
C98	C	0.359782	-0.180832	0.998102
C99	C	-0.199302	-0.661065	0.517690
C100	C	0.300698	-0.161065	1.017690
C101	C	-0.199129	-0.612843	0.421140
C102	C	0.300871	-0.112843	0.921140
C103	C	-0.140045	-0.632610	0.401552
C104	C	0.359955	-0.132610	0.901552
C105	C	-0.038209	-0.608622	0.425941
C106	C	0.461791	-0.108622	0.925941
C107	C	-0.018555	-0.588961	0.445716
C108	C	0.481445	-0.088961	0.945716
C109	C	0.029562	-0.685470	0.494059
C110	C	0.529562	-0.185470	0.994059
C111	C	0.009908	-0.705133	0.474291
C112	C	0.509908	-0.205133	0.974291
C113	C	-0.038037	-0.608631	0.323917
C114	C	0.461963	-0.108631	0.823917
C115	C	-0.018247	-0.588973	0.264830
C116	C	0.481753	-0.088973	0.764830
C117	C	0.029955	-0.685489	0.264893
C118	C	0.529955	-0.185489	0.764893
C119	C	0.010165	-0.705145	0.323981
C120	C	0.510165	-0.205145	0.823981
C121	C	-0.023833	-0.666715	0.353492
C122	C	0.476167	-0.166715	0.853492
C123	C	-0.023990	-0.753339	0.440182
C124	C	0.476010	-0.253339	0.940182
N125	N	0.504925	-0.538487	0.568205
N126	N	1.004925	-0.038487	1.068205
O127	O	0.685342	-0.543679	0.433426
O128	O	1.185342	-0.043679	0.933426
O129	O	0.685533	-0.653395	0.582361
O130	O	1.185533	-0.153395	1.082361
O131	O	0.685457	-0.653145	0.487904
O132	O	1.185457	-0.153145	0.987904
O133	O	0.685418	-0.543929	0.527882
O134	O	1.185418	-0.043929	1.027882
O135	O	0.591592	-0.621921	0.519268
O136	O	1.091592	-0.121921	1.019268
O137	O	0.591667	-0.622171	0.613725
O138	O	1.091667	-0.122171	1.113725
O139	O	0.591477	-0.512455	0.464790
O140	O	1.091477	-0.012455	0.964790
Cu141	Cu	0.583001	-0.564462	0.542121
Cu142	Cu	1.083001	-0.064462	1.042121
Cu143	Cu	0.694008	-0.601388	0.505029
Cu144	Cu	1.194008	-0.101388	1.005029
O145	O	0.591553	-0.512705	0.559246
O146	O	1.091553	-0.012705	1.059246
N147	N	0.772084	-0.627363	0.478939
N148	N	1.272084	-0.127363	0.978939
N149	N	0.104168	-0.137853	0.568408
N150	N	0.604168	0.362147	1.068408
O151	O	-0.030538	0.042663	0.563097
O152	O	0.469462	0.542663	1.063097
O153	O	0.118403	0.042683	0.453379
O154	O	0.618403	0.542683	0.953379
O155	O	0.023918	0.042657	0.453664
O156	O	0.523918	0.542657	0.953664
O157	O	0.063947	0.042689	0.562813
O158	O	0.563947	0.542689	1.062813
O159	O	0.055242	-0.051215	0.484950
O160	O	0.555242	0.448785	0.984950
O161	O	0.149727	-0.051189	0.484666
O162	O	0.649727	0.448811	0.984666
O163	O	0.000787	-0.051210	0.594384
O164	O	0.500787	0.448790	1.094384
Cu165	Cu	0.078117	-0.059771	0.542381
Cu166	Cu	0.578117	0.440229	1.042381
Cu167	Cu	0.041072	0.051244	0.505382
Cu168	Cu	0.541072	0.551244	1.005382
O169	O	0.095272	-0.051184	0.594099
O170	O	0.595272	0.448816	1.094099
N171	N	0.015015	0.129326	0.479356
N172	N	0.515015	0.629326	0.979356
N173	N	0.104469	-0.538576	0.968995
N174	N	0.604469	-0.038576	1.468995
O175	O	0.099171	-0.673268	1.149499
O176	O	0.599171	-0.173268	1.649499
O177	O	-0.010519	-0.524279	1.149527
O178	O	0.489481	-0.024279	1.649527
O179	O	-0.010265	-0.618748	1.149494
O180	O	0.489735	-0.118748	1.649494
O181	O	0.098916	-0.578799	1.149533
O182	O	0.598916	-0.078799	1.649533
O183	O	0.021008	-0.587443	1.055625
O184	O	0.521008	-0.087443	1.555625
O185	O	0.020753	-0.492974	1.055659
O186	O	0.520753	0.007026	1.555659
O187	O	0.130444	-0.641963	1.055630
O188	O	0.630444	-0.141963	1.555630
Cu189	Cu	0.078454	-0.564610	1.047074
Cu190	Cu	0.578454	-0.064610	1.547074
Cu191	Cu	0.041470	-0.601632	1.158084
Cu192	Cu	0.541470	-0.101632	1.658084
O193	O	0.130189	-0.547494	1.055664
O194	O	0.630189	-0.047494	1.555664
N195	N	0.015455	-0.627672	1.236163
N196	N	0.515455	-0.127672	1.736163
C197	C	0.035988	-0.489761	0.454182
C198	C	0.535988	0.010239	0.954182
C199	C	0.152897	-0.606574	0.454082
C200	C	0.652897	-0.106574	0.954082
C201	C	0.083257	-0.676417	0.593694
C202	C	0.583257	-0.176417	1.093694
C203	C	-0.033653	-0.559604	0.593794
C204	C	0.466347	-0.059604	1.093794
C205	C	0.638623	-0.652892	0.616806
C206	C	1.138623	-0.152892	1.116806
C207	C	0.638531	-0.652583	0.499833
C208	C	1.138531	-0.152583	0.999833
C209	C	0.638384	-0.512957	0.430345
C210	C	1.138384	-0.012957	0.930345
C211	C	0.638480	-0.513267	0.547317
C212	C	1.138480	-0.013267	1.047317
C213	C	0.152789	-0.004135	0.453875
C214	C	0.652789	0.495865	0.953875
C215	C	0.035820	-0.004282	0.454266
C216	C	0.535820	0.495718	0.954266
C217	C	-0.033639	-0.004275	0.593849
C218	C	0.466361	0.495725	1.093849
C219	C	0.083370	-0.004245	0.593498
C220	C	0.583370	0.495755	1.093498
C221	C	-0.009989	-0.489856	1.102597
C222	C	0.490011	0.010144	1.602597
C223	C	-0.009667	-0.606839	1.102536
C224	C	0.490333	-0.106839	1.602536
C225	C	0.129914	-0.676386	1.102561
C226	C	0.629914	-0.176386	1.602561
C227	C	0.129599	-0.559396	1.102601
C228	C	0.629599	-0.059396	1.602601
H229	H	0.093440	-0.418108	0.739036
H230	H	0.593440	0.081892	1.239036
C231	C	0.210707	-0.617961	0.407610
C232	C	0.710707	-0.117961	0.907610
H233	H	0.210797	-0.585286	0.374810
H234	H	0.710797	-0.085286	0.874810
H235	H	0.239420	-0.626891	0.420562
H236	H	0.739420	-0.126891	0.920562
H237	H	0.217564	-0.648730	0.398780
H238	H	0.717564	-0.148730	0.898780
C239	C	-0.034630	-0.525068	0.430423
C240	C	0.465370	-0.025068	0.930423
H241	H	-0.057750	-0.505000	0.407432
H242	H	0.442250	-0.005000	0.907432
H243	H	-0.054755	-0.515738	0.464043
H244	H	0.445245	-0.015738	0.964043
H245	H	-0.001424	-0.515050	0.410476
H246	H	0.498576	-0.015050	0.910476
H247	H	0.638547	-0.686893	0.491276
H248	H	1.138547	-0.186893	0.991276
H249	H	0.164353	-0.719173	1.102545
H250	H	0.664353	-0.219173	1.602545
C251	C	0.638460	-0.466916	0.558871
C252	C	1.138460	0.033084	1.058871
H253	H	0.638496	-0.480712	0.596238
H254	H	1.138496	0.019288	1.096238
H255	H	0.671166	-0.456609	0.532816
H256	H	1.171166	0.043391	1.032816
H257	H	0.605696	-0.434833	0.554695
H258	H	1.105696	0.065167	1.054695
C259	C	0.638692	-0.699426	0.674589
C260	C	1.138692	-0.199426	1.174589
H261	H	0.638709	-0.732197	0.674637
H262	H	1.138709	-0.232197	1.174637
H263	H	0.671436	-0.708287	0.681455
H264	H	1.171436	-0.208287	1.181455
H265	H	0.605966	-0.686504	0.703322
H266	H	1.105966	-0.186504	1.203322
C267	C	0.210451	-0.003770	0.407223
C268	C	0.710451	0.496230	0.907223
H269	H	0.234151	-0.003684	0.420818
H270	H	0.734151	0.496316	0.920818
H271	H	0.227472	-0.036432	0.396816
H272	H	0.727472	0.463568	0.896816
H273	H	0.205302	0.029042	0.375255
H274	H	0.705302	0.529042	0.875255
H275	H	0.057627	-0.716785	0.240872
H276	H	0.557627	-0.216785	0.740872
H277	H	-0.116238	-0.708516	0.529438
H278	H	0.383762	-0.208516	1.029438
C279	C	-0.091466	-0.548219	0.640263
C280	C	0.408534	-0.048219	1.140263
H281	H	-0.091559	-0.580897	0.673060
H282	H	0.408441	-0.080897	1.173060
H283	H	-0.098333	-0.517449	0.649094
H284	H	0.401667	-0.017449	1.149094
H285	H	-0.120173	-0.539296	0.627304
H286	H	0.379827	-0.039296	1.127304
H287	H	0.091941	-0.004235	0.627787
H288	H	0.591941	0.495765	1.127787
H289	H	0.638322	-0.478510	0.387573
H290	H	1.138322	0.021490	0.887573
H291	H	-0.223425	-0.672650	0.564976
H292	H	0.276575	-0.172650	1.064976
H293	H	0.163899	-0.550848	1.102605
H294	H	0.663899	-0.050848	1.602605
C295	C	-0.091420	-0.004283	0.640385
C296	C	0.408580	0.495717	1.140385
H297	H	-0.091454	-0.004281	0.673143
H298	H	0.408546	0.495719	1.173143
H299	H	-0.120149	0.028446	0.627453
H300	H	0.379851	0.528446	1.127453
H301	H	-0.098297	-0.037029	0.649275
H302	H	0.401703	0.462971	1.149275
C303	C	0.024247	-0.004298	0.407942
C304	C	0.524247	0.495702	0.907942
H305	H	-0.013125	-0.004310	0.421748
H306	H	0.486875	0.495690	0.921748
H307	H	0.028437	0.028436	0.375839
H308	H	0.528437	0.528436	0.875839
H309	H	0.050285	-0.037039	0.397669
H310	H	0.550285	0.462961	0.897669
C311	C	-0.055985	-0.618361	1.102467
C312	C	0.444015	-0.118361	1.602467
H313	H	-0.042185	-0.655732	1.102441
H314	H	0.457815	-0.155732	1.602441
H315	H	-0.088097	-0.614153	1.135189
H316	H	0.411903	-0.114153	1.635189
H317	H	-0.066242	-0.592310	1.069717
H318	H	0.433758	-0.092310	1.569717
C319	C	-0.056512	-0.432051	1.102599
C320	C	0.443488	0.067949	1.602599
H321	H	-0.089272	-0.431992	1.102586
H322	H	0.410728	0.068008	1.602586
H323	H	-0.065393	-0.425160	1.135336
H324	H	0.434607	0.074840	1.635336
H325	H	-0.043572	-0.403339	1.069864
H326	H	0.456428	0.096661	1.569864
H327	H	0.057789	-0.453866	0.846219
H328	H	0.557789	0.046134	1.346219
H329	H	0.268542	-0.505632	0.738936
H330	H	0.768542	-0.005632	1.238936
C331	C	0.243868	-0.551086	0.854557
C332	C	0.743868	-0.051086	1.354557
H333	H	0.281272	-0.556758	0.828481
H334	H	0.781272	-0.056758	1.328481
H335	H	0.238207	-0.533053	0.877609
H336	H	0.738207	-0.033053	1.377609
H337	H	0.238212	-0.586509	0.877601
H338	H	0.738212	-0.086509	1.377601
H339	H	0.091761	-0.719242	0.628046
H340	H	0.591761	-0.219242	1.128046
H341	H	0.057658	-0.453826	0.653091
H342	H	0.557658	0.046174	1.153091
C343	C	0.243660	-0.551033	0.555796
C344	C	0.743660	-0.051033	1.055796
H345	H	0.281078	-0.556704	0.550099
H346	H	0.781078	-0.056704	1.050099
H347	H	0.237999	-0.586451	0.573832
H348	H	0.737999	-0.086451	1.073832
H349	H	0.237959	-0.532981	0.520387
H350	H	0.737959	-0.032981	1.020387
C351	C	0.285043	-0.509667	0.597126
C352	C	0.785043	-0.009667	1.097126
H353	H	0.305082	-0.532714	0.574067
H354	H	0.805082	-0.032714	1.074067
H355	H	0.294709	-0.476250	0.577082
H356	H	0.794709	0.023750	1.077082
H357	H	0.294760	-0.529722	0.630525
H358	H	0.794760	-0.029722	1.130525
C359	C	0.266504	-0.559413	0.686074
C360	C	0.766504	-0.059413	1.186074
H361	H	0.227083	-0.539432	0.696625
H362	H	0.727083	-0.039432	1.196625
H363	H	0.276173	-0.578090	0.661763
H364	H	0.776173	-0.078090	1.161763
H365	H	0.276213	-0.586471	0.718904
H366	H	0.776213	-0.086471	1.218904
C367	C	0.390582	-0.600763	0.644663
C368	C	0.890582	-0.100763	1.144663
H369	H	0.429999	-0.607053	0.628893
H370	H	0.929999	-0.107053	1.128893
H371	H	0.380925	-0.621369	0.683953
H372	H	0.880925	-0.121369	1.183953
H373	H	0.380887	-0.612985	0.626810
H374	H	0.880887	-0.112985	1.126810
C375	C	0.390522	-0.400004	0.568110
C376	C	0.890522	0.099996	1.068110
H377	H	0.364458	-0.362851	0.565944
H378	H	0.864458	0.137149	1.065944
H379	H	0.413589	-0.409887	0.588229
H380	H	0.913589	0.090113	1.088229
H381	H	0.413550	-0.401510	0.531089
H382	H	0.913550	0.098490	1.031089
H383	H	0.093408	-0.418110	0.688821
H384	H	0.593408	0.081890	1.188821
C385	C	0.266455	-0.358655	0.609516
C386	C	0.766455	0.141345	1.109516
H387	H	0.292505	-0.338873	0.589968
H388	H	0.792505	0.161127	1.089968
H389	H	0.243385	-0.344795	0.587882
H390	H	0.743385	0.155205	1.087882
H391	H	0.243426	-0.353178	0.645023
H392	H	0.743426	0.146822	1.145023
H393	H	0.188851	-0.260656	0.521790
H394	H	0.688851	0.239344	1.021790
C395	C	0.234329	-0.376294	0.546520
C396	C	0.734329	0.123706	1.046520
H397	H	0.244041	-0.415718	0.566558
H398	H	0.744041	0.084282	1.066558
H399	H	0.214265	-0.366612	0.523485
H400	H	0.714265	0.133388	1.023485
H401	H	0.267729	-0.366600	0.523458
H402	H	0.767729	0.133400	1.023458
C403	C	0.091731	-0.252257	0.707835
C404	C	0.591731	0.247743	1.207835
H405	H	0.086080	-0.278321	0.745249
H406	H	0.586080	0.221679	1.245249
H407	H	0.109764	-0.229197	0.702147
H408	H	0.609764	0.270803	1.202147
H409	H	0.056301	-0.229216	0.702180
H410	H	0.556301	0.270784	1.202180
H411	H	-0.029822	-0.541673	0.240758
H412	H	0.470178	-0.041673	0.740758
C413	C	0.133072	-0.376343	0.749159
C414	C	0.633072	0.123657	1.249159
H415	H	0.110009	-0.350292	0.769216
H416	H	0.610009	0.149708	1.269216
H417	H	0.113028	-0.399367	0.758791
H418	H	0.613028	0.100633	1.258791
H419	H	0.166462	-0.399419	0.758889
H420	H	0.666462	0.100581	1.258889
H421	H	-0.065723	-0.577332	0.347941
H422	H	0.434277	-0.077332	0.847941
H423	H	0.021738	-0.752445	0.348058
H424	H	0.521738	-0.252445	0.848058
H425	H	-0.065797	-0.577331	0.398207
H426	H	0.434203	-0.077331	0.898207
H427	H	0.057158	-0.716762	0.521784
H428	H	0.557158	-0.216762	1.021784
H429	H	0.064563	-0.758931	0.409098
H430	H	0.564563	-0.258931	0.909098
C431	C	0.025563	-0.769028	0.490003
C432	C	0.525563	-0.269028	0.990003
H433	H	0.048563	-0.789098	0.513115
H434	H	0.548563	-0.289098	1.013115
H435	H	-0.007862	-0.778672	0.509985
H436	H	0.492138	-0.278672	1.009985
H437	H	0.045658	-0.778735	0.456599
H438	H	0.545658	-0.278735	0.956599
H439	H	0.100203	-0.866125	0.444882
H440	H	0.600203	-0.366125	0.944882
H441	H	-0.073247	-0.865920	0.510699
H442	H	0.426753	-0.365920	1.010699
H443	H	-0.223112	-0.585171	0.389803
H444	H	0.276888	-0.085171	0.889803
C445	C	-0.125351	-0.750272	0.477286
C446	C	0.374649	-0.250272	0.977286
H447	H	-0.145153	-0.776298	0.496783
H448	H	0.354847	-0.276298	0.996783
H449	H	-0.139241	-0.727208	0.498935
H450	H	0.360759	-0.227208	0.998935
H451	H	-0.130763	-0.727230	0.441749
H452	H	0.369237	-0.227230	0.941749
H453	H	-0.115923	-0.621016	0.354266
H454	H	0.384077	-0.121016	0.854266
H455	H	0.027485	-0.446933	0.419832
H456	H	0.527485	0.053067	0.919832
