data_functionalizedCrystal
_audit_creation_method	'MofGen! by Chris Wilmer'
_symmetry_space_group_name_H-M	'P1'
_symmetry_Int_Tables_number	1
_symmetry_cell_setting	triclinic
loop_
_symmetry_equiv_pos_as_xyz
  x,y,z
_cell_length_a	12.784905
_cell_length_b	14.044220
_cell_length_c	11.295500
_cell_angle_alpha	85.764688
_cell_angle_beta	85.047140
_cell_angle_gamma	83.148098
loop_
_atom_site_label
_atom_site_type_symbol
_atom_site_fract_x
_atom_site_fract_y
_atom_site_fract_z
O1	O	1.417748	0.011021	-0.099033
O2	O	1.112112	0.051300	-0.099035
O3	O	1.260341	-0.106447	-0.099022
O4	O	1.269518	0.168767	-0.099046
O5	O	1.246580	-0.116706	0.099030
O6	O	1.098350	0.041041	0.099017
O7	O	1.403986	0.000762	0.099019
Cu8	Cu	1.249911	0.019965	0.117101
Cu9	Cu	1.266186	0.032097	-0.117118
O10	O	1.255756	0.158509	0.099006
C11	C	1.065880	0.048790	-0.000009
C12	C	0.948625	0.056584	-0.000010
C13	C	0.737185	-0.102217	-0.000017
C14	C	0.627014	-0.094898	-0.000018
C15	C	0.618111	0.078541	-0.000019
C16	C	0.728282	0.071222	-0.000019
C17	C	0.787815	-0.019160	-0.000016
C18	C	0.897988	-0.026479	-0.000007
C19	C	0.889083	0.146960	-0.000017
C20	C	0.778912	0.154279	-0.000018
C21	C	1.249444	-0.146560	0.000004
C22	C	1.237464	-0.250798	0.000006
C23	C	1.215564	-0.441653	-0.000012
C24	C	1.300530	-0.506290	-0.000015
C25	C	1.288344	-0.612488	-0.000024
C26	C	1.227748	-0.335445	-0.000002
C27	C	1.450218	0.003272	-0.000010
C28	C	1.567473	-0.004522	-0.000017
C29	C	1.266654	0.198621	-0.000023
C30	C	1.278634	0.302860	-0.000032
N31	N	1.238472	0.011431	0.281838
C32	C	1.359958	0.102121	0.531121
C33	C	1.351321	0.095663	0.655785
C34	C	1.212566	-0.007948	0.655833
C35	C	1.221203	-0.001490	0.531169
C36	C	1.294901	0.053547	0.468817
C37	C	1.303532	0.060010	0.344151
C38	C	1.164783	-0.043606	0.344201
C39	C	1.156146	-0.050063	0.468865
N40	N	1.277626	0.040632	0.718146
H41	H	0.946458	-0.100073	-0.000003
O42	O	1.431481	0.155717	0.470675
C43	C	1.490265	0.312634	0.432436
C44	C	1.409214	0.252043	0.500984
H45	H	1.472278	0.390528	0.456896
H46	H	1.573201	0.283381	0.456949
H47	H	1.485278	0.308852	0.332640
H48	H	1.414105	0.255799	0.600796
H49	H	1.326312	0.281313	0.476372
H50	H	1.133676	-0.466073	-0.000015
O51	O	1.084581	-0.103447	0.529620
C52	C	1.009753	-0.159299	0.721687
C53	C	1.090832	-0.098793	0.653038
H54	H	1.014795	-0.155573	0.821483
H55	H	0.926817	-0.129999	0.697221
H56	H	1.027676	-0.237183	0.697167
H57	H	1.073008	-0.020897	0.677522
H58	H	1.173743	-0.128171	0.677511
O59	O	0.577668	-0.175480	-0.000068
C60	C	0.411886	-0.241077	0.000003
C61	C	0.467637	-0.149736	0.000036
H62	H	0.322915	-0.220297	0.000112
H63	H	0.441426	-0.280989	-0.082901
H64	H	0.430049	-0.289581	0.082868
H65	H	0.449498	-0.101161	-0.082773
H66	H	0.438092	-0.109900	0.082994
H67	H	1.363536	0.104828	0.293386
H68	H	0.569621	0.152126	-0.000037
O69	O	1.101421	-0.090675	0.283743
C70	C	0.923060	-0.110912	0.245748
C71	C	0.994702	-0.057527	0.314262
H72	H	0.836763	-0.084148	0.270415
H73	H	0.941784	-0.096832	0.145918
H74	H	0.937603	-0.191340	0.270250
H75	H	0.980199	0.022915	0.289859
H76	H	0.975963	-0.071688	0.414074
H77	H	0.785658	-0.175811	-0.000007
O78	O	0.720915	0.241994	0.000035
C79	C	0.547250	0.330140	-0.000034
C80	C	0.612798	0.230741	-0.000072
H81	H	0.459827	0.321078	-0.000147
H82	H	0.560875	0.367180	0.082873
H83	H	0.572538	0.375761	-0.082896
H84	H	0.587550	0.185045	0.082733
H85	H	0.599168	0.193777	-0.083035
H86	H	0.930317	0.214591	-0.000010
H87	H	1.152575	-0.052767	0.706622
O88	O	1.398151	-0.477004	0.000050
C89	C	1.499465	-0.342904	0.000007
C90	C	1.388853	-0.375945	-0.000044
H91	H	1.491987	-0.261194	-0.000094
H92	H	1.538402	-0.375772	0.082914
H93	H	1.549907	-0.367290	-0.082854
H94	H	1.338327	-0.351568	0.082762
H95	H	1.350000	-0.343085	-0.083005
O96	O	1.414669	0.142790	0.716176
C97	C	1.593013	0.162959	0.754321
C98	C	1.521389	0.109532	0.685835
H99	H	1.679309	0.136077	0.729835
H100	H	1.578610	0.243392	0.729781
H101	H	1.574130	0.148916	0.854127
H102	H	1.540229	0.123498	0.586013
H103	H	1.535804	0.029117	0.710474
