data_functionalizedCrystal
_audit_creation_method	'MofGen! by Chris Wilmer'
_symmetry_space_group_name_H-M	'P1'
_symmetry_Int_Tables_number	1
_symmetry_cell_setting	triclinic
loop_
_symmetry_equiv_pos_as_xyz
  x,y,z
_cell_length_a	9.065218
_cell_length_b	10.654550
_cell_length_c	9.730223
_cell_angle_alpha	89.997176
_cell_angle_beta	89.996436
_cell_angle_gamma	84.750408
loop_
_atom_site_label
_atom_site_type_symbol
_atom_site_fract_x
_atom_site_fract_y
_atom_site_fract_z
O1	O	-1.959393	-0.184156	0.114293
O2	O	-1.459393	0.315844	0.614293
O3	O	-1.530026	-0.199262	0.114295
O4	O	-1.030026	0.300738	0.614295
O5	O	-1.754581	-0.009009	0.114285
O6	O	-1.254581	0.490991	0.614285
O7	O	-1.734837	-0.374409	0.114303
O8	O	-1.234837	0.125591	0.614303
O9	O	-1.754565	-0.009009	-0.114294
O10	O	-1.254565	0.490991	0.385706
O11	O	-1.530010	-0.199262	-0.114285
O12	O	-1.030010	0.300738	0.385715
O13	O	-1.959377	-0.184156	-0.114287
O14	O	-1.459377	0.315844	0.385713
Zn15	Zn	-1.744691	-0.191709	-0.150578
Zn16	Zn	-1.244691	0.308291	0.349422
Zn17	Zn	-1.744712	-0.191709	0.150586
Zn18	Zn	-1.244712	0.308291	0.650586
O19	O	-1.734821	-0.374409	-0.114277
O20	O	-1.234821	0.125591	0.385723
C21	C	-1.475039	-0.197810	0.000005
C22	C	-0.975039	0.302190	0.500005
C23	C	-1.311220	-0.193469	0.000006
C24	C	-0.811220	0.306531	0.500006
C25	C	-1.753124	0.037795	-0.000004
C26	C	-1.253124	0.537795	0.499996
C27	C	-1.748786	0.177255	-0.000002
C28	C	-1.248786	0.677255	0.499998
C29	C	-2.014364	-0.185608	0.000006
C30	C	-1.514364	0.314392	0.500006
C31	C	-2.178183	-0.189949	0.000015
C32	C	-1.678183	0.310051	0.500015
C33	C	-1.736279	-0.421213	0.000015
C34	C	-1.236279	0.078787	0.500015
C35	C	-1.740616	-0.560673	0.000022
C36	C	-1.240616	-0.060673	0.500022
N37	N	-1.744687	-0.191708	-0.356114
N38	N	-1.244687	0.308292	0.143886
C39	C	-1.881001	0.256217	-0.000002
C40	C	-1.381001	0.756217	0.499998
C41	C	-1.876917	0.387254	0.000015
C42	C	-1.376917	0.887254	0.500015
C43	C	-1.608391	0.360354	0.000026
C44	C	-1.108391	0.860354	0.500026
C45	C	-1.612477	0.229320	0.000019
C46	C	-1.112477	0.729320	0.500019
C47	C	-1.834949	-0.268948	-0.428032
C48	C	-1.334949	0.231052	0.071968
C49	C	-1.834974	-0.268941	-0.571915
C50	C	-1.334974	0.231059	-0.071915
C51	C	-1.654461	-0.114452	-0.571950
C52	C	-1.154461	0.385548	-0.071950
C53	C	-1.654446	-0.114453	-0.428070
C54	C	-1.154446	0.385547	0.071930
N55	N	-1.744727	-0.191700	0.356123
N56	N	-1.244727	0.308300	0.856123
H57	H	-1.991993	0.213831	-0.000016
H58	H	-1.491993	0.713831	0.499984
F59	F	-1.463329	0.415777	0.000049
F60	F	-0.963329	0.915777	0.500049
H61	H	-1.908476	-0.331836	-0.630464
H62	H	-1.408476	0.168164	-0.130464
H63	H	-1.580988	-0.051555	-0.630553
H64	H	-1.080988	0.448445	-0.130553
H65	H	-1.504805	0.165025	0.000023
H66	H	-1.004805	0.665025	0.500023
H67	H	-1.984580	0.451541	0.000018
H68	H	-1.484580	0.951541	0.500018
F69	F	-1.931001	-0.351163	-0.351456
F70	F	-1.431001	0.148837	0.148544
H71	H	-1.580942	-0.051549	-0.369513
H72	H	-1.080942	0.448451	0.130487
