data_functionalizedCrystal
_audit_creation_method	'MofGen! by Chris Wilmer'
_symmetry_space_group_name_H-M	'P1'
_symmetry_Int_Tables_number	1
_symmetry_cell_setting	triclinic
loop_
_symmetry_equiv_pos_as_xyz
  x,y,z
_cell_length_a	6.394989
_cell_length_b	16.992694
_cell_length_c	16.053802
_cell_angle_alpha	92.750953
_cell_angle_beta	87.356563
_cell_angle_gamma	88.582967
loop_
_atom_site_label
_atom_site_type_symbol
_atom_site_fract_x
_atom_site_fract_y
_atom_site_fract_z
O1	O	-0.435392	-1.047996	-0.069315
O2	O	-0.430522	-0.819664	-0.069340
O3	O	-0.129434	-0.937071	-0.069328
O4	O	-0.736480	-0.930589	-0.069327
O5	O	-0.145934	-0.930608	0.069530
O6	O	-0.447022	-0.813201	0.069518
O7	O	-0.451892	-1.041533	0.069543
Zn8	Zn	-0.452077	-0.926341	0.091577
Zn9	Zn	-0.430337	-0.934856	-0.091374
O10	O	-0.752980	-0.924126	0.069531
C11	C	-0.432511	-0.787158	0.000086
C12	C	-0.413828	-0.699930	0.000076
C13	C	-0.449903	-1.074039	0.000115
C14	C	-0.468585	-1.161268	0.000119
N15	N	-0.466913	-0.920535	0.216437
C16	C	-0.059648	-0.932558	0.000098
C17	C	0.177241	-0.928641	0.000097
N18	N	-0.415486	-0.940668	-0.216234
C19	C	-0.594076	-0.651471	0.000077
C20	C	-0.576512	-0.569510	0.000089
C21	C	-0.378698	-0.536010	0.000093
C22	C	-0.198436	-0.584476	0.000095
C23	C	-0.216003	-0.666435	0.000089
C24	C	-0.305891	-0.291692	0.000116
C25	C	-0.288337	-0.209727	0.000119
C26	C	-0.666415	-0.194766	0.000114
C27	C	-0.683964	-0.276728	0.000103
C28	C	-0.503703	-0.325186	0.000109
N29	N	-0.360739	-0.452234	0.000102
N30	N	-0.521664	-0.408961	0.000106
C31	C	-0.338851	-0.970511	0.260136
C32	C	-0.349250	-0.966457	0.347542
C33	C	-0.487723	-0.912431	0.391248
C34	C	-0.615790	-0.862449	0.347543
C35	C	-0.605379	-0.866500	0.260138
C36	C	-0.533141	-0.894737	0.652656
C37	C	-0.543548	-0.890692	0.740067
C38	C	-0.277004	-0.994700	0.740060
C39	C	-0.266614	-0.998749	0.652654
C40	C	-0.394673	-0.948764	0.608956
N41	N	-0.498361	-0.908288	0.480591
N42	N	-0.384023	-0.952904	0.519615
H43	H	-0.723290	-0.530057	0.000088
H44	H	-0.728530	-0.818456	0.383133
H45	H	-0.755158	-0.678739	0.000073
O46	O	-0.743511	-0.812602	0.212999
H47	H	-0.841566	-0.774358	0.258072
H48	H	-0.127244	-0.182455	0.000122
H49	H	-0.813173	-0.155303	0.000110
H50	H	-0.845044	-0.303997	0.000090
O51	O	-0.111471	-0.343950	0.000124
H52	H	-0.010729	-0.334438	-0.056473
O53	O	0.014929	-0.548350	0.000103
H54	H	-0.003132	-0.483218	0.000099
O55	O	-0.671282	-0.840833	0.605536
H56	H	-0.640777	-0.852716	0.537415
H57	H	-0.069225	-0.705890	0.000088
O58	O	-0.211129	-1.020371	0.394665
H59	H	-0.108578	-0.984472	0.434488
H60	H	-0.172742	-1.035394	0.775647
O61	O	-0.189489	-1.028780	0.212997
H62	H	-0.102171	-1.062843	0.258072
H63	H	-0.153858	-1.042741	0.617070
O64	O	-0.692880	-0.832409	0.787212
H65	H	-0.780160	-0.798324	0.742143
