data_functionalizedCrystal
_audit_creation_method	'MofGen! by Chris Wilmer'
_symmetry_space_group_name_H-M	'P1'
_symmetry_Int_Tables_number	1
_symmetry_cell_setting	triclinic
loop_
_symmetry_equiv_pos_as_xyz
  x,y,z
_cell_length_a	16.120530
_cell_length_b	18.101395
_cell_length_c	18.101389
_cell_angle_alpha	90.016841
_cell_angle_beta	92.915477
_cell_angle_gamma	87.126665
loop_
_atom_site_label
_atom_site_type_symbol
_atom_site_fract_x
_atom_site_fract_y
_atom_site_fract_z
Zn1	Zn	1.274487	-0.352401	0.476079
Zn2	Zn	1.774487	0.147599	0.976079
Zn3	Zn	1.274370	-0.476222	0.352236
Zn4	Zn	1.774370	0.023778	0.852236
Zn5	Zn	1.135073	-0.346115	0.345980
Zn6	Zn	1.635073	0.153885	0.845980
Zn7	Zn	1.135017	-0.469914	0.469767
Zn8	Zn	1.635017	0.030086	0.969767
O9	O	1.204737	-0.411163	0.411016
O10	O	1.704737	0.088837	0.911016
O11	O	1.391137	-0.374097	0.464911
O12	O	1.891137	0.125903	0.964911
O13	O	1.255866	-0.458972	0.247772
O14	O	1.755866	0.041028	0.747772
O15	O	1.153639	-0.243319	0.363262
O16	O	1.653639	0.256681	0.863262
O17	O	1.391050	-0.465068	0.373924
O18	O	1.891050	0.034932	0.873924
O19	O	1.256066	-0.247938	0.458845
O20	O	1.756066	0.252062	0.958845
O21	O	1.153525	-0.363383	0.243176
O22	O	1.653525	0.136617	0.743176
O23	O	1.018401	-0.357266	0.357141
O24	O	1.518401	0.142734	0.857141
O25	O	1.153544	-0.454317	0.574238
O26	O	1.653544	0.045683	1.074238
O27	O	1.018360	-0.448221	0.448086
O28	O	1.518360	0.051779	0.948086
O29	O	1.256012	-0.367981	0.578876
O30	O	1.756012	0.132019	1.078876
O31	O	1.255812	-0.579015	0.367803
O32	O	1.755812	-0.079015	0.867803
O33	O	1.153431	-0.574380	0.454152
O34	O	1.653431	-0.074380	0.954152
C35	C	0.988130	-0.401377	0.401250
C36	C	1.488130	0.098623	0.901250
C37	C	0.895465	-0.397209	0.397090
C38	C	1.395465	0.102791	0.897090
C39	C	0.725805	-0.389581	0.389501
C40	C	1.225805	0.110419	0.889501
C41	C	0.684509	-0.432799	0.432585
C42	C	1.184509	0.067201	0.932585
C43	C	0.590105	-0.428555	0.428362
C44	C	1.090105	0.071445	0.928362
C45	C	0.820218	-0.393824	0.393722
C46	C	1.320218	0.106176	0.893722
C47	C	1.204625	-0.603568	0.410989
C48	C	1.704625	-0.103568	0.910989
C49	C	1.204654	-0.685884	0.411005
C50	C	1.704654	-0.185884	0.911005
C51	C	1.204837	-0.984983	0.411054
C52	C	1.704837	-0.484983	0.911054
C53	C	1.140570	-0.950780	0.465531
C54	C	1.640570	-0.450780	0.965531
C55	C	1.140265	-0.865148	0.465338
C56	C	1.640265	-0.365148	0.965338
C57	C	1.204746	-0.836596	0.411030
C58	C	1.704746	-0.336596	0.911030
C59	C	1.180960	-0.866660	0.331911
C60	C	1.680960	-0.366660	0.831911
C61	C	1.180546	-0.952287	0.332235
C62	C	1.680546	-0.452287	0.832235
C63	C	1.293030	-0.957309	0.435015
C64	C	1.793030	-0.457309	0.935015
C65	C	1.292512	-0.871635	0.436703
C66	C	1.792512	-0.371635	0.936703
C67	C	1.204696	-0.752735	0.411013
C68	C	1.704696	-0.252735	0.911013
C69	C	1.204885	-1.068845	0.411066
C70	C	1.704885	-0.568845	0.911066
C71	C	1.422189	-0.420987	0.420820
C72	C	1.922189	0.079013	0.920820
C73	C	1.514854	-0.425174	0.424998
C74	C	2.014854	0.074826	0.924998
C75	C	1.204785	-0.411146	0.604180
C76	C	1.704785	0.088854	1.104180
C77	C	1.204806	-0.411139	0.686495
C78	C	1.704806	0.088861	1.186495
C79	C	1.204872	-0.218007	0.411060
C80	C	1.704872	0.281993	0.911060
C81	C	1.204929	-0.135696	0.411078
C82	C	1.704929	0.364304	0.911078
C83	C	1.204737	-0.411128	0.218605
C84	C	1.704737	0.088872	0.718605
C85	C	1.204878	-0.410934	0.136298
C86	C	1.704878	0.089066	0.636298
C87	C	1.204854	-0.411003	0.985588
C88	C	1.704854	0.088997	1.485588
C89	C	1.140162	-0.465131	0.951335
C90	C	1.640162	0.034869	1.451335
C91	C	1.140337	-0.465403	0.865724
C92	C	1.640337	0.034597	1.365724
C93	C	1.204829	-0.411070	0.837204
C94	C	1.704829	0.088930	1.337204
C95	C	1.292667	-0.436217	0.872255
C96	C	1.792667	0.063783	1.372255
C97	C	1.292306	-0.436575	0.957884
C98	C	1.792306	0.063425	1.457884
C99	C	1.182473	-0.331635	0.953005
C100	C	1.682473	0.168365	1.453005
C101	C	1.180518	-0.332000	0.867266
C102	C	1.680518	0.168000	1.367266
C103	C	1.204821	-0.411108	0.753344
C104	C	1.704821	0.088892	1.253344
C105	C	1.204869	-0.410968	1.069448
C106	C	1.704869	0.089032	1.569448
H107	H	0.690261	-0.349397	0.349447
H108	H	1.190261	0.150603	0.849447
H109	H	1.155147	-0.844766	0.523880
H110	H	1.655147	-0.344766	1.023880
N111	N	1.054058	-0.443961	0.833985
N112	N	1.554058	0.056039	1.333985
H113	H	1.054006	-0.444103	0.778186
H114	H	1.554006	0.055897	1.278186
H115	H	1.036746	-0.392848	0.851718
H116	H	1.536746	0.107152	1.351718
H117	H	1.116077	-0.969419	0.312398
H118	H	1.616077	-0.469419	0.812398
N119	N	1.159541	-0.542473	0.980710
N120	N	1.659541	-0.042473	1.480710
H121	H	1.117699	-0.576892	0.958430
H122	H	1.617699	-0.076892	1.458430
H123	H	1.156662	-0.542390	1.036316
H124	H	1.656662	-0.042390	1.536316
N125	N	0.731586	-0.486035	0.485646
N126	N	1.231586	0.013965	0.985646
H127	H	0.793330	-0.481561	0.481178
H128	H	1.293330	0.018439	0.981178
H129	H	0.716381	-0.538238	0.473355
H130	H	1.216381	-0.038238	0.973355
H131	H	1.155304	-0.972003	0.524254
H132	H	1.655304	-0.472003	1.024254
N133	N	1.054502	-0.975481	0.444343
N134	N	1.554502	-0.475481	0.944343
H135	H	1.056960	-1.008731	0.399609
H136	H	1.556960	-0.508731	0.899609
H137	H	1.016229	-0.930746	0.432335
H138	H	1.516229	-0.430746	0.932335
N139	N	1.053616	-0.443841	0.974694
N140	N	1.553616	0.056159	1.474694
H141	H	1.055500	-0.398904	1.007710
H142	H	1.555500	0.101096	1.507710
H143	H	1.031376	-0.486307	1.002555
H144	H	1.531376	0.013693	1.502555
N145	N	1.239853	-0.982402	0.276354
N146	N	1.739853	-0.482402	0.776354
H147	H	1.266147	-0.940047	0.251617
H148	H	1.766147	-0.440047	0.751617
H149	H	1.208398	-1.011961	0.237857
H150	H	1.708398	-0.511961	0.737857
N151	N	1.053679	-0.834175	0.443892
N152	N	1.553679	-0.334175	0.943892
H153	H	1.013580	-0.851129	0.480711
H154	H	1.513580	-0.351129	0.980711
H155	H	1.036398	-0.852300	0.392901
H156	H	1.536398	-0.352300	0.892901
H157	H	1.155113	-0.524151	0.845907
H158	H	1.655113	-0.024151	1.345907
N159	N	1.359291	-0.846272	0.388394
N160	N	1.859291	-0.346272	0.888394
H161	H	1.346362	-0.861514	0.335544
H162	H	1.846362	-0.361514	0.835544
H163	H	1.414900	-0.869664	0.406259
H164	H	1.914900	-0.369664	0.906259
H165	H	1.226296	-0.848327	0.290041
H166	H	1.726296	-0.348327	0.790041
H167	H	1.117174	-0.842395	0.311801
H168	H	1.617174	-0.342395	0.811801
H169	H	1.314716	-0.979845	0.491934
H170	H	1.814716	-0.479845	0.991934
H171	H	1.310449	-0.852091	0.494951
H172	H	1.810449	-0.352091	0.994951
H173	H	1.340911	-0.979711	0.395385
H174	H	1.840911	-0.479711	0.895385
N175	N	1.317438	-0.513580	0.985493
N176	N	1.817438	-0.013580	1.485493
H177	H	1.328645	-0.546973	0.942034
H178	H	1.828645	-0.046973	1.442034
H179	H	1.271060	-0.533345	1.014030
H180	H	1.771060	-0.033345	1.514030
N181	N	1.358325	-0.386920	0.988328
N182	N	1.858325	0.113080	1.488328
H183	H	1.387535	-0.364897	0.946115
H184	H	1.887535	0.135103	1.446115
H185	H	1.400028	-0.416776	1.021144
H186	H	1.900028	0.083224	1.521144
H187	H	1.115878	-0.313109	0.844031
H188	H	1.615878	0.186891	1.344031
N189	N	1.358232	-0.385864	0.848263
N190	N	1.858232	0.114136	1.348263
H191	H	1.331564	-0.346174	0.814358
H192	H	1.831564	0.153826	1.314358
H193	H	1.401740	-0.415673	0.821194
H194	H	1.901740	0.084327	1.321194
H195	H	1.311968	-0.493759	0.851681
H196	H	1.811968	0.006241	1.351681
N197	N	1.099105	-0.302304	0.977849
N198	N	1.599105	0.197696	1.477849
H199	H	1.075001	-0.340172	1.010482
H200	H	1.575001	0.159828	1.510482
H201	H	1.060175	-0.292089	0.933132
H202	H	1.560175	0.207911	1.433132
H203	H	1.224199	-0.289211	0.847843
H204	H	1.724199	0.210789	1.347843
N205	N	1.244882	-0.278147	0.982659
N206	N	1.744882	0.221853	1.482659
H207	H	1.287451	-0.305153	1.017031
H208	H	1.787451	0.194847	1.517031
H209	H	1.215233	-0.237288	1.010590
H210	H	1.715233	0.262712	1.510590
