data_functionalizedCrystal
_audit_creation_method	'MofGen! by Chris Wilmer'
_symmetry_space_group_name_H-M	'P1'
_symmetry_Int_Tables_number	1
_symmetry_cell_setting	triclinic
loop_
_symmetry_equiv_pos_as_xyz
  x,y,z
_cell_length_a	15.995350
_cell_length_b	12.837942
_cell_length_c	11.295483
_cell_angle_alpha	85.469583
_cell_angle_beta	94.101747
_cell_angle_gamma	89.160658
loop_
_atom_site_label
_atom_site_type_symbol
_atom_site_fract_x
_atom_site_fract_y
_atom_site_fract_z
O1	O	-1.126724	-0.126645	-0.098922
O2	O	-0.884267	-0.143143	-0.098946
O3	O	-1.000119	0.016009	-0.098927
O4	O	-1.010872	-0.285796	-0.098941
O5	O	-0.989941	0.002051	0.099122
O6	O	-0.874089	-0.157100	0.099103
O7	O	-1.116547	-0.140602	0.099127
Cu8	Cu	-0.994389	-0.150125	0.117198
Cu9	Cu	-1.006425	-0.133619	-0.117018
O10	O	-1.000695	-0.299753	0.099108
C11	C	-0.847929	-0.149439	0.000075
C12	C	-0.754816	-0.147393	0.000066
C13	C	-1.152885	-0.134305	0.000103
C14	C	-1.245998	-0.136350	0.000104
C15	C	-0.991398	0.047651	0.000096
C16	C	-0.980565	0.162728	0.000093
C17	C	-0.416481	-0.140051	0.000091
C18	C	-0.454849	-0.026737	0.000538
C19	C	-0.551725	-0.028750	0.000083
C20	C	-0.584333	-0.143693	0.000079
C21	C	-0.553518	-0.191629	-0.113014
C22	C	-0.456659	-0.188775	-0.113101
C23	C	-0.444934	-0.206989	0.112118
C24	C	-0.541801	-0.207067	0.113605
C25	C	-0.679196	-0.145757	0.000069
C26	C	-0.321619	-0.137990	0.000094
C27	C	-1.009416	-0.331395	0.000082
C28	C	-1.020249	-0.446472	0.000077
N29	N	-0.985930	-0.161734	0.281933
C30	C	-1.110803	0.403687	0.000081
C31	C	-1.100628	0.511813	0.000078
C32	C	-0.950041	0.487109	0.000075
C33	C	-0.960216	0.378983	0.000078
C34	C	-1.040599	0.337276	0.000083
C35	C	-1.050773	0.229147	0.000095
C36	C	-0.900187	0.204446	0.000083
C37	C	-0.890012	0.312572	0.000080
N38	N	-1.014890	-0.122002	-0.281753
C39	C	-1.075780	-0.038379	0.531237
C40	C	-1.069394	-0.047159	0.655900
C41	C	-0.966767	-0.188069	0.655923
C42	C	-0.973153	-0.179289	0.531261
C43	C	-1.027662	-0.104442	0.468922
C44	C	-1.034052	-0.095668	0.344257
C45	C	-0.931422	-0.236572	0.344283
C46	C	-0.925036	-0.245352	0.468945
H47	H	-0.428544	0.012855	0.081642
H48	H	-0.824566	0.346545	0.000072
H49	H	-1.157795	0.565882	0.000073
N50	N	-0.824460	0.132816	0.000092
H51	H	-0.843100	0.057989	0.000097
H52	H	-0.793572	0.151489	-0.073328
N53	N	-0.907983	-0.268801	0.723157
H54	H	-0.848714	-0.255302	0.701474
H55	H	-0.911306	-0.264303	0.811566
N56	N	-0.866242	-0.326071	0.536185
H57	H	-0.869495	-0.321608	0.624614
H58	H	-0.882901	-0.398082	0.514394
H59	H	-0.892244	-0.290368	0.293532
H60	H	-1.078439	-0.034727	0.293502
N61	N	-0.863349	0.532103	0.000057
H62	H	-0.867560	0.610678	0.000050
H63	H	-0.828475	0.502647	0.073477
N64	N	-1.121299	0.024088	0.723110
H65	H	-1.158881	-0.019198	0.774822
H66	H	-1.082938	0.066353	0.774775
N67	N	-0.411649	-0.317758	0.113135
H68	H	-0.378299	-0.324596	0.041422
H69	H	-0.374342	-0.335430	0.188215
H70	H	-0.435801	0.024046	-0.080115
N71	N	-0.423083	-0.298517	-0.119932
H72	H	-0.359962	-0.297520	-0.120045
H73	H	-0.439552	-0.344315	-0.048846
N74	N	-1.134565	0.042335	0.463973
H75	H	-1.193836	0.028833	0.485643
H76	H	-1.117873	0.114355	0.485688
N77	N	-0.579229	0.021884	0.107470
H78	H	-0.528384	0.045718	0.155530
H79	H	-0.617168	0.084074	0.080374
H80	H	-0.580226	0.021215	-0.081124
H81	H	-0.574597	-0.275778	-0.117222
N82	N	-0.433839	-0.126876	-0.225068
H83	H	-0.457787	-0.161345	-0.297008
H84	H	-0.457629	-0.053414	-0.226865
N85	N	-0.592722	-0.132346	-0.224506
H86	H	-0.630448	-0.074431	-0.202014
H87	H	-0.547143	-0.101417	-0.272964
N88	N	-0.407997	-0.165898	0.225670
H89	H	-0.427059	-0.209964	0.296417
H90	H	-0.344802	-0.169110	0.227158
H91	H	-0.563503	-0.291368	0.120433
N92	N	-0.567970	-0.160826	0.224437
H93	H	-0.607213	-0.099084	0.201220
H94	H	-0.597468	-0.215419	0.274596
H95	H	-1.116225	0.195192	0.000103
H96	H	-1.176253	0.369728	0.000097
