data_functionalizedCrystal
_audit_creation_method	'MofGen! by Chris Wilmer'
_symmetry_space_group_name_H-M	'P1'
_symmetry_Int_Tables_number	1
_symmetry_cell_setting	triclinic
loop_
_symmetry_equiv_pos_as_xyz
  x,y,z
_cell_length_a	13.897449
_cell_length_b	12.827892
_cell_length_c	12.827885
_cell_angle_alpha	90.029786
_cell_angle_beta	89.979901
_cell_angle_gamma	89.983328
loop_
_atom_site_label
_atom_site_type_symbol
_atom_site_fract_x
_atom_site_fract_y
_atom_site_fract_z
Zn1	Zn	1.474712	0.415947	-0.590872
Zn2	Zn	1.808045	0.749280	-0.257538
Zn3	Zn	2.141379	1.082613	0.075795
Zn4	Zn	1.474614	0.590724	-0.416132
Zn5	Zn	1.807948	0.924057	-0.082799
Zn6	Zn	2.141281	1.257391	0.250535
Zn7	Zn	1.313403	0.416002	-0.416143
Zn8	Zn	1.646736	0.749335	-0.082810
Zn9	Zn	1.980070	1.082668	0.250524
Zn10	Zn	1.313389	0.590650	-0.590830
Zn11	Zn	1.646723	0.923984	-0.257496
Zn12	Zn	1.980056	1.257317	0.075837
O13	O	1.394030	0.503331	-0.503494
O14	O	1.727363	0.836664	-0.170161
O15	O	2.060696	1.169997	0.163173
O16	O	1.609681	0.439139	-0.567705
O17	O	1.943014	0.772473	-0.234372
O18	O	2.276347	1.105806	0.098961
O19	O	1.453194	0.567601	-0.269897
O20	O	1.786527	0.900934	0.063436
O21	O	2.119861	1.234267	0.396769
O22	O	1.334848	0.269758	-0.439343
O23	O	1.668181	0.603092	-0.106010
O24	O	2.001514	0.936425	0.227323
O25	O	1.609609	0.567547	-0.439325
O26	O	1.942942	0.900881	-0.105991
O27	O	2.276275	1.234214	0.227342
O28	O	1.453361	0.269718	-0.567716
O29	O	1.786694	0.603051	-0.234382
O30	O	2.120027	0.936385	0.098951
O31	O	1.334753	0.439233	-0.269905
O32	O	1.668086	0.772566	0.063428
O33	O	2.001419	1.105899	0.396761
O34	O	1.178420	0.439161	-0.439302
O35	O	1.511753	0.772495	-0.105969
O36	O	1.845086	1.105828	0.227364
O37	O	1.334824	0.567422	-0.737071
O38	O	1.668158	0.900755	-0.403738
O39	O	2.001491	1.234088	-0.070405
O40	O	1.178410	0.567475	-0.567644
O41	O	1.511743	0.900808	-0.234310
O42	O	1.845076	1.234142	0.099023
O43	O	1.453347	0.439068	-0.737102
O44	O	1.786681	0.772401	-0.403769
O45	O	2.120014	1.105734	-0.070436
O46	O	1.453181	0.736950	-0.439284
O47	O	1.786514	1.070284	-0.105951
O48	O	2.119847	1.403617	0.227383
O49	O	1.334730	0.736896	-0.567633
O50	O	1.668063	1.070230	-0.234300
O51	O	2.001396	1.403563	0.099033
C52	C	1.393969	0.774841	-0.503476
C53	C	1.727303	1.108174	-0.170142
C54	C	2.060636	1.441507	0.163191
C55	C	1.394032	0.890994	-0.503503
C56	C	1.727365	1.224327	-0.170169
C57	C	2.060698	1.557660	0.163164
C58	C	1.143415	0.503317	-0.503470
C59	C	1.476749	0.836650	-0.170137
C60	C	1.810082	1.169983	0.163196
C61	C	1.036201	0.503336	-0.503485
C62	C	1.369535	0.836669	-0.170151
C63	C	1.702868	1.170003	0.163182
C64	C	1.394095	0.503230	-0.776064
C65	C	1.727429	0.836564	-0.442731
C66	C	2.060762	1.169897	-0.109398
C67	C	1.394123	0.503188	-0.892218
C68	C	1.727457	0.836521	-0.558884
C69	C	2.060790	1.169854	-0.225551
C70	C	0.839906	0.503340	-0.503512
C71	C	1.173240	0.836673	-0.170179
C72	C	1.506573	1.170006	0.163154
C73	C	0.949139	0.503334	-0.503494
C74	C	1.282472	0.836668	-0.170161
C75	C	1.615805	1.170001	0.163173
C76	C	1.645623	0.503345	-0.503519
C77	C	1.978956	0.836679	-0.170185
C78	C	2.312289	1.170012	0.163148
C79	C	1.752836	0.503352	-0.503529
C80	C	2.086170	0.836685	-0.170196
C81	C	2.419503	1.170018	0.163138
C82	C	1.394116	0.230761	-0.503535
C83	C	1.727450	0.564094	-0.170202
C84	C	2.060783	0.897427	0.163131
C85	C	1.394153	0.114607	-0.503553
C86	C	1.727487	0.447941	-0.170220
C87	C	2.060820	0.781274	0.163114
C88	C	1.452715	0.942771	-0.440062
C89	C	1.786048	1.276104	-0.106728
C90	C	2.119381	1.609437	0.226605
C91	C	1.452781	1.062821	-0.440088
C92	C	1.786114	1.396154	-0.106755
C93	C	2.119447	1.729488	0.226578
C94	C	1.335523	0.566630	-1.064031
C95	C	1.668857	0.899963	-0.730698
C96	C	2.002190	1.233296	-0.397365
C97	C	1.335493	0.566675	-0.943981
C98	C	1.668826	0.900009	-0.610648
C99	C	2.002160	1.233342	-0.277314
C100	C	1.394020	0.503355	-0.231984
C101	C	1.727353	0.836689	0.101349
C102	C	2.060686	1.170022	0.434683
C103	C	1.394179	0.503104	-0.115832
C104	C	1.727512	0.836437	0.217502
C105	C	2.060845	1.169770	0.550835
H106	H	1.502911	0.898225	-0.385731
H107	H	1.836244	1.231558	-0.052398
H108	H	2.169578	1.564891	0.280935
H109	H	1.285280	0.621066	-0.899434
H110	H	1.618613	0.954400	-0.566101
H111	H	1.951946	1.287733	-0.232768
H112	H	1.444346	0.448801	-0.936758
H113	H	1.777679	0.782135	-0.603424
H114	H	2.111013	1.115468	-0.270091
H115	H	1.444369	0.448746	-1.071303
H116	H	1.777702	0.782079	-0.737969
H117	H	2.111035	1.115412	-0.404636
H118	H	1.503019	1.107348	-0.385771
H119	H	1.836352	1.440681	-0.052438
H120	H	2.169685	1.774015	0.280895
H121	H	1.343844	0.935542	-0.557840
H122	H	1.677177	1.268876	-0.224507
H123	H	2.010510	1.602209	0.108826
F124	F	1.328475	1.056418	-0.574546
F125	F	1.661808	1.389751	-0.241212
F126	F	1.995142	1.723085	0.092121
H127	H	1.285326	0.620980	-1.108560
H128	H	1.618659	0.954313	-0.775227
H129	H	1.951993	1.287646	-0.441894
