data_functionalizedCrystal
_audit_creation_method	'MofGen! by Chris Wilmer'
_symmetry_space_group_name_H-M	'P1'
_symmetry_Int_Tables_number	1
_symmetry_cell_setting	triclinic
loop_
_symmetry_equiv_pos_as_xyz
  x,y,z
_cell_length_a	16.959447
_cell_length_b	16.959455
_cell_length_c	16.959454
_cell_angle_alpha	90.017022
_cell_angle_beta	90.026736
_cell_angle_gamma	90.014322
loop_
_atom_site_label
_atom_site_type_symbol
_atom_site_fract_x
_atom_site_fract_y
_atom_site_fract_z
Zn1	Zn	-0.446928	-1.208384	0.314730
Zn2	Zn	-0.314758	-1.208306	0.446923
Zn3	Zn	-0.314766	-1.076212	0.314755
Zn4	Zn	-0.446897	-1.076177	0.446864
O5	O	-0.380837	-1.142270	0.380818
O6	O	-0.429406	-1.318984	0.332280
O7	O	-0.204148	-1.190766	0.429426
O8	O	-0.332314	-1.093792	0.204141
O9	O	-0.332301	-1.318927	0.429402
O10	O	-0.429413	-1.190898	0.204123
O11	O	-0.204154	-1.093717	0.332323
O12	O	-0.332283	-0.965597	0.332265
O13	O	-0.557512	-1.093732	0.429301
O14	O	-0.429359	-0.965571	0.429325
O15	O	-0.557535	-1.190864	0.332223
O16	O	-0.332270	-1.190732	0.557526
O17	O	-0.429352	-1.093657	0.557482
C18	C	-0.380819	-0.936904	0.380792
C19	C	-0.380830	-0.849047	0.380800
C20	C	-0.380824	-1.142204	0.586184
C21	C	-0.380844	-1.142248	0.674041
C22	C	-0.587006	-1.142303	0.380753
C23	C	-0.674862	-1.142317	0.380725
C24	C	-1.046328	-1.091839	0.431185
C25	C	-1.046348	-1.192983	0.330097
C26	C	-0.963802	-1.192962	0.330114
C27	C	-0.922515	-1.142380	0.380668
C28	C	-0.963775	-1.091818	0.431205
C29	C	-0.922536	-1.243529	0.279584
C30	C	-0.839985	-1.243510	0.279599
C31	C	-0.798697	-1.192923	0.330149
C32	C	-0.839962	-1.142359	0.380688
C33	C	-0.798675	-1.091776	0.431242
C34	C	-0.839938	-1.041207	0.481777
C35	C	-0.922487	-1.041231	0.481756
C36	C	-0.716149	-1.192899	0.330171
C37	C	-0.716122	-1.091755	0.431262
C38	C	-0.175471	-1.142283	0.380826
C39	C	-0.087615	-1.142422	0.380631
C40	C	-0.380856	-1.348438	0.380845
C41	C	-0.380864	-1.436295	0.380856
C42	C	-0.330395	-0.477560	0.330238
C43	C	-0.431324	-0.477582	0.431463
C44	C	-0.431320	-0.560128	0.431452
C45	C	-0.380851	-0.601394	0.380834
C46	C	-0.330387	-0.560114	0.330226
C47	C	-0.481777	-0.601414	0.482064
C48	C	-0.481773	-0.683965	0.482055
C49	C	-0.431308	-0.725233	0.431432
C50	C	-0.380843	-0.683948	0.380822
C51	C	-0.330374	-0.725213	0.330204
C52	C	-0.279913	-0.683930	0.279589
C53	C	-0.279922	-0.601381	0.279603
C54	C	-0.431299	-0.807781	0.431418
C55	C	-0.330366	-0.807767	0.330193
C56	C	-0.380868	-1.142358	0.174650
C57	C	-0.380881	-1.142395	0.086793
C58	C	-0.431382	-1.091796	1.045524
C59	C	-0.330373	-1.192963	1.045509
C60	C	-0.330365	-1.192936	0.962963
C61	C	-0.380867	-1.142337	0.921694
C62	C	-0.431375	-1.091765	0.962970
C63	C	-0.279852	-1.243501	0.921680
C64	C	-0.279842	-1.243475	0.839130
C65	C	-0.330348	-1.192879	0.797859
C66	C	-0.380859	-1.142306	0.839140
C67	C	-0.431360	-1.091707	0.797871
C68	C	-0.481876	-1.041137	0.839151
C69	C	-0.481881	-1.041170	0.921699
C70	C	-0.330343	-1.192847	0.715310
C71	C	-0.431353	-1.091676	0.715317
H72	H	-0.806312	-1.000026	0.522942
H73	H	-0.238838	-0.567761	0.238397
H74	H	-0.522860	-0.567810	0.523280
H75	H	-0.806396	-1.284686	0.238450
O76	O	-0.966989	-0.986691	0.536258
H77	H	-1.031326	-0.995211	0.527755
O78	O	-0.275879	-1.247399	0.670790
H79	H	-0.284361	-1.238881	0.606455
H80	H	-0.472480	-1.050475	0.681721
O81	O	-0.225479	-0.728439	0.224993
H82	H	-0.233957	-0.792775	0.233491
H83	H	-0.238731	-1.284690	0.955288
O84	O	-0.225371	-1.298023	0.794607
H85	H	-0.190262	-1.333216	0.837173
H86	H	-0.289313	-0.443944	0.289026
O87	O	-0.485759	-0.433080	0.486056
H88	H	-0.477289	-0.368743	0.477559
H89	H	-0.522863	-0.717571	0.523268
H90	H	-1.079928	-1.050665	0.472327
H91	H	-0.956158	-1.284715	0.238430
O92	O	-0.671591	-1.037180	0.485771
H93	H	-0.714154	-1.002020	0.520901
H94	H	-0.682556	-1.234074	0.289028
H95	H	-0.289252	-1.234154	1.079115
O96	O	-1.090872	-1.247517	0.275551
H97	H	-1.155205	-1.239026	0.284016
O98	O	-0.485720	-0.852311	0.485999
H99	H	-0.520816	-0.809748	0.521197
H100	H	-0.522991	-0.999936	0.805540
H101	H	-0.289273	-0.841360	0.288968
H102	H	-0.523007	-0.999998	0.955317
H103	H	-0.472513	-1.050626	1.079138
