data_functionalizedCrystal
_audit_creation_method	'MofGen! by Chris Wilmer'
_symmetry_space_group_name_H-M	'P1'
_symmetry_Int_Tables_number	1
_symmetry_cell_setting	triclinic
loop_
_symmetry_equiv_pos_as_xyz
  x,y,z
_cell_length_a	21.295417
_cell_length_b	21.295420
_cell_length_c	12.645323
_cell_angle_alpha	89.976296
_cell_angle_beta	90.033992
_cell_angle_gamma	89.975452
loop_
_atom_site_label
_atom_site_type_symbol
_atom_site_fract_x
_atom_site_fract_y
_atom_site_fract_z
Zn1	Zn	-0.250704	-0.962343	0.599408
Zn2	Zn	0.249296	-0.462343	1.099408
Zn3	Zn	-0.355979	-0.962249	0.422120
Zn4	Zn	0.144021	-0.462249	0.922120
Zn5	Zn	-0.250717	-0.857070	0.422149
Zn6	Zn	0.249283	-0.357070	0.922149
Zn7	Zn	-0.355929	-0.857035	0.599332
Zn8	Zn	0.144071	-0.357035	1.099332
O9	O	-0.303332	-0.909674	0.510752
O10	O	0.196668	-0.409674	1.010752
O11	O	-0.264685	-1.050419	0.575910
O12	O	0.235315	-0.550419	1.075910
O13	O	-0.342042	-0.948272	0.273776
O14	O	0.157958	-0.448272	0.773776
O15	O	-0.162625	-0.871088	0.445707
O16	O	0.337375	-0.371088	0.945707
O17	O	-0.342030	-1.050351	0.445657
O18	O	0.157970	-0.550351	0.945657
O19	O	-0.162617	-0.948432	0.575938
O20	O	0.337383	-0.448432	1.075938
O21	O	-0.264706	-0.870997	0.273798
O22	O	0.235294	-0.370997	0.773798
O23	O	-0.264657	-0.768976	0.445633
O24	O	0.235343	-0.268976	0.945633
O25	O	-0.341944	-0.871029	0.747690
O26	O	0.158056	-0.371029	1.247690
O27	O	-0.341956	-0.768950	0.575809
O28	O	0.158044	-0.268950	1.075809
O29	O	-0.264636	-0.948398	0.747745
O30	O	0.235364	-0.448398	1.247745
O31	O	-0.444062	-0.948238	0.445583
O32	O	0.055938	-0.448238	0.945583
O33	O	-0.444025	-0.870938	0.575780
O34	O	0.055975	-0.370938	1.075780
C35	C	-0.303303	-0.746122	0.510717
C36	C	0.196697	-0.246122	1.010717
C37	C	-0.303306	-0.676154	0.510727
C38	C	0.196694	-0.176154	1.010727
C39	C	-0.263131	-0.176732	0.578676
C40	C	0.236869	0.323268	1.078676
C41	C	-0.263129	-0.242474	0.578678
C42	C	0.236871	0.257526	1.078678
C43	C	-0.303332	-0.275315	0.510755
C44	C	0.196668	0.224685	1.010755
C45	C	-0.343552	-0.242408	0.442844
C46	C	0.156448	0.257592	0.942844
C47	C	-0.343558	-0.176666	0.442852
C48	C	0.156442	0.323334	0.942852
N49	N	-0.308083	-0.378507	0.417934
N50	N	0.191917	0.121493	0.917934
N51	N	-0.308073	-0.440958	0.417930
N52	N	0.191927	0.059042	0.917930
C53	C	-0.303317	-0.473390	0.510731
C54	C	0.196683	0.026610	1.010731
N55	N	-0.298559	-0.441010	0.603537
N56	N	0.201441	0.058990	1.103537
N57	N	-0.298565	-0.378553	0.603540
N58	N	0.201435	0.121447	1.103540
C59	C	-0.303330	-0.346600	0.510740
C60	C	0.196670	0.153400	1.010740
C61	C	-0.263100	-0.577574	0.578645
C62	C	0.236900	-0.077574	1.078645
C63	C	-0.263101	-0.643318	0.578649
C64	C	0.236899	-0.143318	1.078649
C65	C	-0.343522	-0.643250	0.442806
C66	C	0.156478	-0.143250	0.942806
C67	C	-0.343523	-0.577508	0.442811
C68	C	0.156477	-0.077508	0.942811
C69	C	-0.303309	-0.544674	0.510729
C70	C	0.196691	-0.044674	1.010729
C71	C	-0.466884	-0.909591	0.510694
C72	C	0.033116	-0.409591	1.010694
C73	C	-0.536852	-0.909614	0.510704
C74	C	-0.036852	-0.409614	1.010704
C75	C	-0.569717	-0.949900	0.442980
C76	C	-0.069717	-0.449900	0.942980
C77	C	-0.635459	-0.949929	0.443004
C78	C	-0.135459	-0.449929	0.943004
C79	C	-0.668334	-0.909662	0.510740
C80	C	-0.168334	-0.409662	1.010740
C81	C	-0.635461	-0.869373	0.578478
C82	C	-0.135461	-0.369373	1.078478
C83	C	-0.569720	-0.869349	0.578460
C84	C	-0.069720	-0.369349	1.078460
N85	N	-0.771594	-0.854594	0.518810
N86	N	-0.271594	-0.354594	1.018810
N87	N	-0.834046	-0.854619	0.518821
N88	N	-0.334046	-0.354619	1.018821
C89	C	-0.866409	-0.909732	0.510801
C90	C	-0.366409	-0.409732	1.010801
N91	N	-0.833962	-0.964821	0.502749
N92	N	-0.333962	-0.464821	1.002749
N93	N	-0.771504	-0.964796	0.502732
N94	N	-0.271504	-0.464796	1.002732
C95	C	-0.739620	-0.909683	0.510768
C96	C	-0.239620	-0.409683	1.010768
C97	C	-0.970559	-0.950053	0.443099
C98	C	-0.470559	-0.450053	0.943099
C99	C	-1.036303	-0.950084	0.443131
C100	C	-0.536303	-0.450084	0.943131
C101	C	-1.036304	-0.869522	0.578599
C102	C	-0.536304	-0.369522	1.078599
C103	C	-0.970562	-0.869497	0.578574
C104	C	-0.470562	-0.369497	1.078574
C105	C	-0.937693	-0.909762	0.510818
C106	C	-0.437693	-0.409762	1.010818
C107	C	-0.139142	-0.909774	0.510834
C108	C	0.360858	-0.409774	1.010834
C109	C	-0.069174	-0.909817	0.510869
C110	C	0.430826	-0.409817	1.010869
C111	C	-0.303283	-0.909720	0.787258
C112	C	0.196717	-0.409720	1.287258
C113	C	-0.303263	-0.909740	0.905088
C114	C	0.196737	-0.409740	1.405088
C115	C	-0.303354	-0.073864	0.510780
C116	C	0.196646	0.426136	1.010780
C117	C	-0.303344	-0.143832	0.510770
C118	C	0.196656	0.356168	1.010770
C119	C	-0.303335	-0.909664	0.235323
C120	C	0.196665	-0.409664	0.735323
C121	C	-0.303179	-0.909766	0.117493
C122	C	0.196821	-0.409766	0.617493
C123	C	-0.351668	-0.860917	1.072617
C124	C	0.148332	-0.360917	1.572617
C125	C	-0.351907	-0.861045	0.950057
C126	C	0.148093	-0.361045	1.450057
C127	C	-0.321273	-0.976064	0.949605
C128	C	0.178727	-0.476064	1.449605
C129	C	-0.321576	-0.975796	1.072203
C130	C	0.178424	-0.475796	1.572203
C131	C	-0.236577	-0.892866	1.072303
C132	C	0.263423	-0.392866	1.572303
C133	C	-0.236976	-0.891387	0.949696
C134	C	0.263024	-0.391387	1.449696
H135	H	-0.230357	-0.670104	0.633954
H136	H	0.269643	-0.170104	1.133954
H137	H	-0.662223	-0.982737	0.387855
H138	H	-0.162223	-0.482737	0.887855
H139	H	-1.063070	-0.836738	0.633757
H140	H	-0.563070	-0.336738	1.133757
C141	C	-0.533564	-0.825032	0.652954
C142	C	-0.033564	-0.325032	1.152954
H143	H	-0.489704	-0.830787	0.643244
H144	H	0.010296	-0.330787	1.143244
H145	H	-0.544380	-0.782745	0.637381
H146	H	-0.044380	-0.282745	1.137381
H147	H	-0.544297	-0.834232	0.724203
H148	H	-0.044297	-0.334232	1.224203
H149	H	-0.376288	-0.269151	0.387544
H150	H	0.123712	0.230849	0.887544
H151	H	-0.943797	-0.982841	0.387932
H152	H	-0.443797	-0.482841	0.887932
C153	C	-0.275078	-1.026555	0.910265
C154	C	0.224922	-0.526555	1.410265
H155	H	-0.286833	-1.066283	0.938122
H156	H	0.213167	-0.566283	1.438122
H157	H	-0.276076	-1.028105	0.835208
H158	H	0.223924	-0.528105	1.335208
H159	H	-0.233822	-1.016428	0.933215
H160	H	0.266178	-0.516428	1.433215
H161	H	-0.200450	-0.928446	1.101327
H162	H	0.299550	-0.428446	1.601327
H163	H	-0.943801	-0.836690	0.633716
H164	H	-0.443801	-0.336690	1.133716
C165	C	-0.533565	-0.994196	0.368464
C166	C	-0.033565	-0.494196	0.868464
H167	H	-0.562558	-1.018198	0.328140
H168	H	-0.062558	-0.518198	0.828140
H169	H	-0.507956	-0.970125	0.322229
H170	H	-0.007956	-0.470125	0.822229
H171	H	-0.507883	-1.021605	0.409062
H172	H	-0.007883	-0.521605	0.909062
H173	H	-0.401282	-0.872200	0.920730
H174	H	0.098718	-0.372200	1.420730
C175	C	-0.218891	-0.278671	0.653373
C176	C	0.281109	0.221329	1.153373
H177	H	-0.194939	-0.249700	0.693819
H178	H	0.305061	0.250300	1.193819
H179	H	-0.242998	-0.304324	0.699488
H180	H	0.257002	0.195676	1.199488
H181	H	-0.191432	-0.304312	0.612886
H182	H	0.308568	0.195688	1.112886
C183	C	-0.387346	-0.995148	1.110848
C184	C	0.112654	-0.495148	1.610848
H185	H	-0.388110	-0.995159	1.185966
H186	H	0.111890	-0.495159	1.685966
H187	H	-0.417601	-0.966191	1.084888
H188	H	0.082399	-0.466191	1.584888
H189	H	-0.396898	-1.036042	1.085540
H190	H	0.103102	-0.536042	1.585540
H191	H	-0.340636	-0.811863	0.919957
H192	H	0.159364	-0.311863	1.419957
C193	C	-0.387746	-0.679367	0.368093
C194	C	0.112254	-0.179367	0.868093
H195	H	-0.381981	-0.723233	0.377810
H196	H	0.118019	-0.223233	0.877810
H197	H	-0.430052	-0.668582	0.383479
H198	H	0.069948	-0.168582	0.883479
H199	H	-0.378478	-0.668577	0.296891
H200	H	0.121522	-0.168577	0.796891
H201	H	-0.662232	-0.836588	0.633631
H202	H	-0.162232	-0.336588	1.133631
H203	H	-0.230355	-0.550839	0.633948
H204	H	0.269645	-0.050839	1.133948
C205	C	-0.336588	-0.794277	1.112423
C206	C	0.163412	-0.294277	1.612423
H207	H	-0.300588	-0.795646	1.156774
H208	H	0.199412	-0.295646	1.656774
H209	H	-0.328554	-0.767597	1.053754
H210	H	0.171446	-0.267597	1.553754
H211	H	-0.371318	-0.778479	1.151323
H212	H	0.128682	-0.278479	1.651323
C213	C	-0.387750	-0.541317	0.368101
C214	C	0.112250	-0.041317	0.868101
H215	H	-0.411690	-0.570290	0.327641
H216	H	0.088310	-0.070290	0.827641
H217	H	-0.415210	-0.515671	0.408568
H218	H	0.084790	-0.015671	0.908568
H219	H	-0.363633	-0.515669	0.321984
H220	H	0.136367	-0.015669	0.821984
H221	H	-0.198938	-0.924368	0.919086
H222	H	0.301062	-0.424368	1.419086
C223	C	-1.072455	-0.994400	0.368629
C224	C	-0.572455	-0.494400	0.868629
H225	H	-1.043462	-1.018371	0.328270
H226	H	-0.543462	-0.518371	0.828270
H227	H	-1.098060	-1.021828	0.409226
H228	H	-0.598060	-0.521828	0.909226
H229	H	-1.098141	-0.970337	0.322410
H230	H	-0.598141	-0.470337	0.822410
C231	C	-0.417951	-0.875831	1.114241
C232	C	0.082049	-0.375831	1.614241
H233	H	-0.416203	-0.911700	1.158844
H234	H	0.083797	-0.411700	1.658844
H235	H	-0.433376	-0.840973	1.153236
H236	H	0.066624	-0.340973	1.653236
H237	H	-0.445164	-0.884031	1.056318
H238	H	0.054836	-0.384031	1.556318
C239	C	-0.275951	-1.026638	1.112316
C240	C	0.224049	-0.526638	1.612316
H241	H	-0.257316	-1.047367	1.053682
H242	H	0.242684	-0.547367	1.553682
H243	H	-0.244099	-1.007637	1.154054
H244	H	0.255901	-0.507637	1.654054
H245	H	-0.298300	-1.056285	1.153944
H246	H	0.201700	-0.556285	1.653944
H247	H	-0.369450	-0.990636	0.918904
H248	H	0.130550	-0.490636	1.418904
H249	H	-0.220161	-0.845346	1.103210
H250	H	0.279839	-0.345346	1.603210
C251	C	-0.218622	-0.825452	0.910397
C252	C	0.281378	-0.325452	1.410397
H253	H	-0.178483	-0.814615	0.937654
H254	H	0.321517	-0.314615	1.437654
H255	H	-0.217236	-0.825297	0.835314
H256	H	0.282764	-0.325297	1.335314
H257	H	-0.248823	-0.795761	0.933997
H258	H	0.251177	-0.295761	1.433997
C259	C	-0.218906	-0.140615	0.653393
C260	C	0.281094	0.359385	1.153393
H261	H	-0.224665	-0.096749	0.643670
H262	H	0.275335	0.403251	1.143670
H263	H	-0.228169	-0.151409	0.724589
H264	H	0.271831	0.348591	1.224589
H265	H	-0.176596	-0.151397	0.637999
H266	H	0.323404	0.348603	1.137999
C267	C	-0.387790	-0.140476	0.368145
C268	C	0.112210	0.359524	0.868145
H269	H	-0.411732	-0.169448	0.327687
H270	H	0.088268	0.330552	0.827687
H271	H	-0.415247	-0.114829	0.408613
H272	H	0.084753	0.385171	0.908613
H273	H	-0.363672	-0.114829	0.322026
H274	H	0.136328	0.385171	0.822026
