data_functionalizedCrystal
_audit_creation_method	'MofGen! by Chris Wilmer'
_symmetry_space_group_name_H-M	'P1'
_symmetry_Int_Tables_number	1
_symmetry_cell_setting	triclinic
loop_
_symmetry_equiv_pos_as_xyz
  x,y,z
_cell_length_a	19.288859
_cell_length_b	19.288865
_cell_length_c	17.766277
_cell_angle_alpha	89.989546
_cell_angle_beta	90.010268
_cell_angle_gamma	96.865014
loop_
_atom_site_label
_atom_site_type_symbol
_atom_site_fract_x
_atom_site_fract_y
_atom_site_fract_z
O1	O	0.921356	-0.086627	0.062618
O2	O	1.171356	0.163373	0.312618
O3	O	1.421356	0.413373	0.562618
O4	O	1.671356	0.663373	0.812618
O5	O	0.719095	-0.098320	0.062617
O6	O	0.969095	0.151680	0.312617
O7	O	1.219095	0.401680	0.562617
O8	O	1.469095	0.651680	0.812617
O9	O	0.826070	0.008657	0.062602
O10	O	1.076070	0.258657	0.312602
O11	O	1.326070	0.508657	0.562602
O12	O	1.576070	0.758657	0.812602
O13	O	0.814381	-0.193604	0.062632
O14	O	1.064381	0.056396	0.312632
O15	O	1.314381	0.306396	0.562632
O16	O	1.564381	0.556396	0.812632
O17	O	0.826051	0.008660	-0.062586
O18	O	1.076051	0.258660	0.187414
O19	O	1.326051	0.508660	0.437414
O20	O	1.576051	0.758660	0.687414
O21	O	0.719076	-0.098317	-0.062571
O22	O	0.969076	0.151683	0.187429
O23	O	1.219076	0.401683	0.437429
O24	O	1.469076	0.651683	0.687429
O25	O	0.921337	-0.086624	-0.062571
O26	O	1.171337	0.163376	0.187429
O27	O	1.421337	0.413376	0.437429
O28	O	1.671337	0.663376	0.687429
Cu29	Cu	0.820204	-0.092470	-0.074002
Cu30	Cu	1.070204	0.157530	0.175998
Cu31	Cu	1.320204	0.407530	0.425998
Cu32	Cu	1.570204	0.657530	0.675998
Cu33	Cu	0.820227	-0.092474	0.074048
Cu34	Cu	1.070227	0.157526	0.324048
Cu35	Cu	1.320227	0.407526	0.574048
Cu36	Cu	1.570227	0.657526	0.824048
O37	O	0.814362	-0.193601	-0.062556
O38	O	1.064362	0.056399	0.187444
O39	O	1.314362	0.306399	0.437444
O40	O	1.564362	0.556399	0.687444
C41	C	0.693209	-0.097943	0.000022
C42	C	0.943209	0.152057	0.250022
C43	C	1.193209	0.402057	0.500022
C44	C	1.443209	0.652057	0.750022
C45	C	0.616105	-0.096816	0.000022
C46	C	0.866105	0.153184	0.250022
C47	C	1.116105	0.403184	0.500022
C48	C	1.366105	0.653184	0.750022
C49	C	0.052064	-0.151959	0.000031
C50	C	0.302064	0.098041	0.250031
C51	C	0.552064	0.348041	0.500031
C52	C	0.802064	0.598041	0.750031
C53	C	0.124511	-0.153025	0.000035
C54	C	0.374511	0.096975	0.250035
C55	C	0.624511	0.346975	0.500035
C56	C	0.874511	0.596975	0.750035
C57	C	0.169217	-0.090255	0.000024
C58	C	0.419217	0.159745	0.250024
C59	C	0.669217	0.409745	0.500024
C60	C	0.919217	0.659745	0.750024
C61	C	0.141472	-0.026416	0.000029
C62	C	0.391472	0.223584	0.250029
C63	C	0.641472	0.473584	0.500029
C64	C	0.891472	0.723584	0.750029
C65	C	0.069027	-0.025353	0.000032
C66	C	0.319027	0.224647	0.250032
C67	C	0.569027	0.474647	0.500032
C68	C	0.819027	0.724647	0.750032
C69	C	0.290481	-0.043441	-0.043845
C70	C	0.540481	0.206559	0.206155
C71	C	0.790481	0.456559	0.456155
C72	C	1.040481	0.706559	0.706155
C73	C	0.362925	-0.044507	-0.043853
C74	C	0.612925	0.205493	0.206147
C75	C	0.862925	0.455493	0.456147
C76	C	1.112925	0.705493	0.706147
C77	C	0.392663	-0.093533	0.000017
C78	C	0.642663	0.156467	0.250017
C79	C	0.892663	0.406467	0.500017
C80	C	1.142663	0.656467	0.750017
C81	C	0.349948	-0.141504	0.043885
C82	C	0.599948	0.108496	0.293885
C83	C	0.849948	0.358496	0.543885
C84	C	1.099948	0.608496	0.793885
C85	C	0.277502	-0.140440	0.043888
C86	C	0.527502	0.109560	0.293888
C87	C	0.777502	0.359560	0.543888
C88	C	1.027502	0.609560	0.793888
C89	C	0.247773	-0.091401	0.000021
C90	C	0.497773	0.158599	0.250021
C91	C	0.747773	0.408599	0.500021
C92	C	0.997773	0.658599	0.750021
C93	C	0.498955	-0.158523	0.000022
C94	C	0.748955	0.091477	0.250022
C95	C	0.998955	0.341477	0.500022
C96	C	1.248955	0.591477	0.750022
C97	C	0.571403	-0.159586	0.000031
C98	C	0.821403	0.090414	0.250031
C99	C	1.071403	0.340414	0.500031
C100	C	1.321403	0.590414	0.750031
C101	C	0.588364	-0.032976	0.000017
C102	C	0.838364	0.217024	0.250017
C103	C	1.088364	0.467024	0.500017
C104	C	1.338364	0.717024	0.750017
C105	C	0.515917	-0.031915	0.000016
C106	C	0.765917	0.218085	0.250016
C107	C	1.015917	0.468085	0.500016
C108	C	1.265917	0.718085	0.750016
C109	C	0.471216	-0.094691	0.000015
C110	C	0.721216	0.155309	0.250015
C111	C	0.971216	0.405309	0.500015
C112	C	1.221216	0.655309	0.750015
C113	C	0.825684	0.034535	0.000006
C114	C	1.075684	0.284535	0.250006
C115	C	1.325684	0.534535	0.500006
C116	C	1.575684	0.784535	0.750006
C117	C	0.824555	0.111638	-0.000001
C118	C	1.074555	0.361638	0.249999
C119	C	1.324555	0.611638	0.499999
C120	C	1.574555	0.861638	0.749999
C121	C	0.947223	-0.087001	0.000025
C122	C	1.197223	0.162999	0.250025
C123	C	1.447223	0.412999	0.500025
C124	C	1.697223	0.662999	0.750025
C125	C	1.024327	-0.088128	0.000031
C126	C	1.274327	0.161872	0.250031
C127	C	1.524327	0.411872	0.500031
C128	C	1.774327	0.661872	0.750031
N129	N	0.820194	-0.092467	-0.178132
N130	N	1.070194	0.157533	0.071868
N131	N	1.320194	0.407533	0.321868
N132	N	1.570194	0.657533	0.571868
C133	C	0.814747	-0.219479	0.000042
C134	C	1.064747	0.030521	0.250042
C135	C	1.314747	0.280521	0.500042
C136	C	1.564747	0.530521	0.750042
C137	C	0.815876	-0.296583	0.000053
C138	C	1.065876	-0.046583	0.250053
C139	C	1.315876	0.203417	0.500053
C140	C	1.565876	0.453417	0.750053
C141	C	0.887323	0.156336	-0.000004
C142	C	1.137323	0.406336	0.249996
C143	C	1.387323	0.656336	0.499996
C144	C	1.637323	0.906336	0.749996
C145	C	0.886262	0.228783	0.000008
C146	C	1.136262	0.478783	0.250008
C147	C	1.386262	0.728783	0.500008
C148	C	1.636262	0.978783	0.750008
C149	C	0.822430	0.256529	0.000008
C150	C	1.072430	0.506529	0.250008
C151	C	1.322430	0.756529	0.500008
C152	C	1.572430	1.006529	0.750008
C153	C	0.759654	0.211822	0.000016
C154	C	1.009654	0.461822	0.250016
C155	C	1.259654	0.711822	0.500016
C156	C	1.509654	0.961822	0.750016
C157	C	0.760716	0.139376	0.000011
C158	C	1.010716	0.389376	0.250011
C159	C	1.260716	0.639376	0.500011
C160	C	1.510716	0.889376	0.750011
C161	C	0.772244	0.364816	-0.043843
C162	C	1.022244	0.614816	0.206157
C163	C	1.272244	0.864816	0.456157
C164	C	1.522244	1.114816	0.706157
C165	C	0.771184	0.437261	-0.043843
C166	C	1.021184	0.687261	0.206157
C167	C	1.271184	0.937261	0.456157
C168	C	1.521184	1.187261	0.706157
C169	C	0.819150	0.479975	0.000025
C170	C	1.069150	0.729975	0.250025
C171	C	1.319150	0.979975	0.500025
C172	C	1.569150	1.229975	0.750025
C173	C	0.868189	0.450237	0.043883
C174	C	1.118189	0.700237	0.293883
C175	C	1.368189	0.950237	0.543883
C176	C	1.618189	1.200237	0.793883
C177	C	0.869251	0.377791	0.043879
C178	C	1.119251	0.627791	0.293879
C179	C	1.369251	0.877791	0.543879
C180	C	1.619251	1.127791	0.793879
C181	C	0.821271	0.335083	0.000013
C182	C	1.071271	0.585083	0.250013
C183	C	1.321271	0.835083	0.500013
C184	C	1.571271	1.085083	0.750013
C185	C	0.880773	0.603228	0.000035
C186	C	1.130773	0.853228	0.250035
C187	C	1.380773	1.103228	0.500035
C188	C	1.630773	1.353228	0.750035
C189	C	0.879709	0.675676	0.000052
C190	C	1.129709	0.925676	0.250052
C191	C	1.379709	1.175676	0.500052
C192	C	1.629709	1.425676	0.750052
C193	C	0.753099	0.658713	0.000052
C194	C	1.003099	0.908713	0.250052
C195	C	1.253099	1.158713	0.500052
C196	C	1.503099	1.408713	0.750052
C197	C	0.754164	0.586267	0.000043
C198	C	1.004164	0.836267	0.250043
C199	C	1.254164	1.086267	0.500043
C200	C	1.504164	1.336267	0.750043
C201	C	0.818003	0.558529	0.000031
C202	C	1.068003	0.808529	0.250031
C203	C	1.318003	1.058529	0.500031
C204	C	1.568003	1.308529	0.750031
C205	C	0.862181	-0.134490	-0.217506
C206	C	1.112181	0.115510	0.032494
C207	C	1.362181	0.365510	0.282494
C208	C	1.612181	0.615510	0.532494
C209	C	0.862192	-0.134488	-0.296308
C210	C	1.112192	0.115512	-0.046308
C211	C	1.362192	0.365512	0.203692
C212	C	1.612192	0.615512	0.453692
C213	C	0.820203	-0.092472	-0.335733
C214	C	1.070203	0.157528	-0.085733
C215	C	1.320203	0.407528	0.164267
C216	C	1.570203	0.657528	0.414267
C217	C	0.778212	-0.050440	-0.296349
C218	C	1.028212	0.199560	-0.046349
C219	C	1.278212	0.449560	0.203651
C220	C	1.528212	0.699560	0.453651
C221	C	0.778208	-0.050438	-0.217549
C222	C	1.028208	0.199562	0.032451
C223	C	1.278208	0.449562	0.282451
C224	C	1.528208	0.699562	0.532451
C225	C	0.757590	-0.090716	-0.460593
C226	C	1.007590	0.159284	-0.210593
C227	C	1.257590	0.409284	0.039407
C228	C	1.507590	0.659284	0.289407
C229	C	0.757593	-0.090723	-0.539392
C230	C	1.007593	0.159277	-0.289392
C231	C	1.257593	0.409277	-0.039392
C232	C	1.507593	0.659277	0.210608
C233	C	0.820217	-0.092474	-0.578779
C234	C	1.070217	0.157526	-0.328779
C235	C	1.320217	0.407526	-0.078779
C236	C	1.570217	0.657526	0.171221
C237	C	0.882839	-0.094232	-0.539358
C238	C	1.132839	0.155768	-0.289358
C239	C	1.382839	0.405768	-0.039358
C240	C	1.632839	0.655768	0.210642
C241	C	0.882835	-0.094230	-0.460558
C242	C	1.132835	0.155770	-0.210558
C243	C	1.382835	0.405770	0.039442
C244	C	1.632835	0.655770	0.289442
C245	C	0.820203	-0.092469	-0.421179
C246	C	1.070203	0.157531	-0.171179
C247	C	1.320203	0.407531	0.078821
C248	C	1.570203	0.657531	0.328821
C249	C	0.862220	-0.134497	-0.703599
C250	C	1.112220	0.115503	-0.453599
C251	C	1.362220	0.365503	-0.203599
C252	C	1.612220	0.615503	0.046401
C253	C	0.862232	-0.134490	-0.782402
C254	C	1.112232	0.115510	-0.532402
C255	C	1.362232	0.365510	-0.282402
C256	C	1.612232	0.615510	-0.032402
C257	C	0.778246	-0.050445	-0.782442
C258	C	1.028246	0.199555	-0.532442
C259	C	1.278246	0.449555	-0.282442
C260	C	1.528246	0.699555	-0.032442
C261	C	0.778240	-0.050448	-0.703640
C262	C	1.028240	0.199552	-0.453640
C263	C	1.278240	0.449552	-0.203640
C264	C	1.528240	0.699552	0.046360
C265	C	0.820226	-0.092478	-0.664224
C266	C	1.070226	0.157522	-0.414224
C267	C	1.320226	0.407522	-0.164224
C268	C	1.570226	0.657522	0.085776
N269	N	0.820243	-0.092471	0.178178
N270	N	1.070243	0.157529	0.428178
N271	N	1.320243	0.407529	0.678178
N272	N	1.570243	0.657529	0.928178
H273	H	0.593984	-0.211567	0.000037
H274	H	0.843984	0.038433	0.250037
H275	H	1.093984	0.288433	0.500037
H276	H	1.343984	0.538433	0.750037
Br277	Br	0.672606	-0.088347	-0.592884
Br278	Br	0.922606	0.161653	-0.342884
Br279	Br	1.172606	0.411653	-0.092884
Br280	Br	1.422606	0.661653	0.157116
Br281	Br	0.971454	0.289456	0.000006
Br282	Br	1.221454	0.539456	0.250006
Br283	Br	1.471454	0.789456	0.500006
Br284	Br	1.721454	1.039456	0.750006
Br285	Br	0.721270	0.006590	-0.835939
Br286	Br	0.971270	0.256590	-0.585939
Br287	Br	1.221270	0.506590	-0.335939
Br288	Br	1.471270	0.756590	-0.085939
H289	H	0.744047	-0.016232	-0.671582
H290	H	0.994047	0.233768	-0.421582
H291	H	1.244047	0.483768	-0.171582
H292	H	1.494047	0.733768	0.078418
Br293	Br	0.649029	0.052213	0.000019
Br294	Br	0.899029	0.302213	0.250019
Br295	Br	1.149029	0.552213	0.500019
Br296	Br	1.399029	0.802213	0.750019
Br297	Br	0.672602	-0.088274	-0.407147
Br298	Br	0.922602	0.161726	-0.157147
Br299	Br	1.172602	0.411726	0.092853
Br300	Br	1.422602	0.661726	0.342853
H301	H	0.744025	-0.016229	-0.328454
H302	H	0.994025	0.233771	-0.078454
H303	H	1.244025	0.483771	0.171546
H304	H	1.494025	0.733771	0.421546
Br305	Br	0.438286	-0.243716	0.000021
Br306	Br	0.688286	0.006284	0.250021
Br307	Br	0.938286	0.256284	0.500021
Br308	Br	1.188286	0.506284	0.750021
Br309	Br	0.967816	-0.096616	-0.407059
Br310	Br	1.217816	0.153384	-0.157059
Br311	Br	1.467816	0.403384	0.092941
Br312	Br	1.717816	0.653384	0.342941
H313	H	0.703051	0.549873	0.000042
H314	H	0.953051	0.799873	0.250042
H315	H	1.203051	1.049873	0.500042
H316	H	1.453051	1.299873	0.750042
H317	H	0.015673	-0.203077	0.000034
H318	H	0.265673	0.046923	0.250034
H319	H	0.515673	0.296923	0.500034
H320	H	0.765673	0.546923	0.750034
Br321	Br	0.721217	0.006594	-0.164109
Br322	Br	0.971217	0.256594	0.085891
Br323	Br	1.221217	0.506594	0.335891
Br324	Br	1.471217	0.756594	0.585891
H325	H	0.731251	0.461467	-0.079551
H326	H	0.981251	0.711467	0.170449
H327	H	1.231251	0.961467	0.420449
H328	H	1.481251	1.211467	0.670449
Br329	Br	0.707140	0.306855	-0.103384
Br330	Br	0.957140	0.556855	0.146616
Br331	Br	1.207140	0.806855	0.396616
Br332	Br	1.457140	1.056855	0.646616
H333	H	0.907247	0.485013	0.079606
H334	H	1.157247	0.735013	0.329606
H335	H	1.407247	0.985013	0.579606
H336	H	1.657247	1.235013	0.829606
Br337	Br	0.967835	-0.096610	-0.592801
Br338	Br	1.217835	0.153390	-0.342801
Br339	Br	1.467835	0.403390	-0.092801
Br340	Br	1.717835	0.653390	0.157199
Br341	Br	0.919182	-0.191521	-0.349756
Br342	Br	1.169182	0.058479	-0.099756
Br343	Br	1.419182	0.308479	0.150244
Br344	Br	1.669182	0.558479	0.400244
Br345	Br	0.935796	0.337433	0.103402
Br346	Br	1.185796	0.587433	0.353402
Br347	Br	1.435796	0.837433	0.603402
Br348	Br	1.685796	1.087433	0.853402
H349	H	0.896408	-0.168719	-0.671504
H350	H	1.146408	0.081281	-0.421504
H351	H	1.396408	0.331281	-0.171504
H352	H	1.646408	0.581281	0.078496
H353	H	0.896429	-0.168708	-0.814459
H354	H	1.146429	0.081292	-0.564459
H355	H	1.396429	0.331292	-0.314459
H356	H	1.646429	0.581292	-0.064459
Br357	Br	0.031381	0.061282	0.000037
Br358	Br	0.281381	0.311282	0.250037
Br359	Br	0.531381	0.561282	0.500037
Br360	Br	0.781381	0.811282	0.750037
H361	H	0.147099	-0.205005	0.000028
H362	H	0.397099	0.044995	0.250028
H363	H	0.647099	0.294995	0.500028
H364	H	0.897099	0.544995	0.750028
Br365	Br	0.478270	0.054718	0.000023
Br366	Br	0.728270	0.304718	0.250023
Br367	Br	0.978270	0.554718	0.500023
Br368	Br	1.228270	0.804718	0.750023
H369	H	0.932754	0.580643	0.000029
H370	H	1.182754	0.830643	0.250029
H371	H	1.432754	1.080643	0.500029
H372	H	1.682754	1.330643	0.750029
H373	H	0.930825	0.712069	0.000053
H374	H	1.180825	0.962069	0.250053
H375	H	1.430825	1.212069	0.500053
H376	H	1.680825	1.462069	0.750053
H377	H	0.701125	0.681303	0.000056
H378	H	0.951125	0.931303	0.250056
H379	H	1.201125	1.181303	0.500056
H380	H	1.451125	1.431303	0.750056
Br381	Br	0.219534	-0.205537	0.103424
Br382	Br	0.469534	0.044463	0.353424
Br383	Br	0.719534	0.294463	0.603424
Br384	Br	0.969534	0.544463	0.853424
Br385	Br	0.673023	0.249475	0.000026
Br386	Br	0.923023	0.499475	0.250026
Br387	Br	1.173023	0.749475	0.500026
Br388	Br	1.423023	0.999475	0.750026
H389	H	0.374158	-0.181427	0.079606
H390	H	0.624158	0.068573	0.329606
H391	H	0.874158	0.318573	0.579606
H392	H	1.124158	0.568573	0.829606
Br393	Br	0.919145	-0.191547	-0.164015
Br394	Br	1.169145	0.058453	0.085985
Br395	Br	1.419145	0.308453	0.335985
Br396	Br	1.669145	0.558453	0.585985
H397	H	0.709601	0.102982	0.000014
H398	H	0.959601	0.352982	0.250014
H399	H	1.209601	0.602982	0.500014
H400	H	1.459601	0.852982	0.750014
Br401	Br	0.973961	0.118695	0.000000
Br402	Br	1.223961	0.368695	0.250000
Br403	Br	1.473961	0.618695	0.500000
Br404	Br	1.723961	0.868695	0.750000
Br405	Br	0.420887	0.020587	-0.103396
Br406	Br	0.670887	0.270587	0.146604
Br407	Br	0.920887	0.520587	0.396604
Br408	Br	1.170887	0.770587	0.646604
H409	H	0.266275	-0.003515	-0.079570
H410	H	0.516275	0.246485	0.170430
H411	H	0.766275	0.496485	0.420430
H412	H	1.016275	0.746485	0.670430
H413	H	0.177877	0.024691	0.000022
H414	H	0.427877	0.274691	0.250022
H415	H	0.677877	0.524691	0.500022
H416	H	0.927877	0.774691	0.750022
