data_functionalizedCrystal
_audit_creation_method	'MofGen! by Chris Wilmer'
_symmetry_space_group_name_H-M	'P1'
_symmetry_Int_Tables_number	1
_symmetry_cell_setting	triclinic
loop_
_symmetry_equiv_pos_as_xyz
  x,y,z
_cell_length_a	10.654550
_cell_length_b	14.519709
_cell_length_c	9.130313
_cell_angle_alpha	89.994534
_cell_angle_beta	89.999724
_cell_angle_gamma	84.082538
loop_
_atom_site_label
_atom_site_type_symbol
_atom_site_fract_x
_atom_site_fract_y
_atom_site_fract_z
O1	O	1.666594	0.129532	-0.121694
O2	O	2.166594	0.629532	0.378306
O3	O	1.300997	0.141873	-0.121721
O4	O	1.800997	0.641873	0.378279
O5	O	1.493489	0.001515	-0.121693
O6	O	1.993489	0.501515	0.378307
O7	O	1.474102	0.269891	-0.121721
O8	O	1.974102	0.769891	0.378279
O9	O	1.493476	0.001510	0.121906
O10	O	1.993476	0.501510	0.621906
O11	O	1.300984	0.141869	0.121878
O12	O	1.800984	0.641869	0.621878
O13	O	1.666581	0.129528	0.121905
O14	O	2.166581	0.629528	0.621905
Cu15	Cu	1.483781	0.135698	0.144134
Cu16	Cu	1.983781	0.635698	0.644134
Cu17	Cu	1.483797	0.135703	-0.143950
Cu18	Cu	1.983797	0.635703	0.356050
O19	O	1.474089	0.269887	0.121878
O20	O	1.974089	0.769887	0.621878
C21	C	1.254201	0.140965	0.000075
C22	C	1.754201	0.640965	0.500075
C23	C	1.114784	0.138254	0.000065
C24	C	1.614784	0.638254	0.500065
C25	C	1.034504	0.220895	0.000061
C26	C	1.534504	0.720895	0.500061
C27	C	0.903507	0.218342	0.000087
C28	C	1.403507	0.718342	0.500087
C29	C	0.933084	0.050500	0.000115
C30	C	1.433084	0.550500	0.500115
C31	C	1.064078	0.053054	0.000100
C32	C	1.564078	0.553054	0.500100
C33	C	1.492579	-0.032852	0.000106
C34	C	1.992579	0.467148	0.500106
C35	C	1.489871	-0.135247	0.000107
C36	C	1.989871	0.364753	0.500107
C37	C	1.479904	-0.510195	0.000068
C38	C	1.979904	-0.010195	0.500068
C39	C	1.482672	-0.405872	0.000079
C40	C	1.982672	0.094128	0.500079
C41	C	1.484887	-0.322724	0.000089
C42	C	1.984887	0.177276	0.500089
C43	C	1.487656	-0.218395	0.000097
C44	C	1.987656	0.281605	0.500097
C45	C	1.713377	0.130436	0.000106
C46	C	2.213377	0.630436	0.500106
C47	C	1.852794	0.133147	0.000106
C48	C	2.352794	0.633147	0.500106
C49	C	1.474999	0.304253	0.000075
C50	C	1.974999	0.804253	0.500075
C51	C	1.477706	0.406649	0.000065
C52	C	1.977706	0.906649	0.500065
N53	N	1.483779	0.135694	0.346757
N54	N	1.983779	0.635694	0.846757
N55	N	1.483808	0.135700	-0.346572
N56	N	1.983808	0.635700	0.153428
C57	C	1.569043	0.073570	0.423421
C58	C	2.069043	0.573570	0.923421
C59	C	1.569055	0.073570	0.576758
C60	C	2.069055	0.573570	1.076758
C61	C	1.398535	0.197827	0.576753
C62	C	1.898535	0.697827	1.076753
C63	C	1.398518	0.197822	0.423419
C64	C	1.898518	0.697822	0.923419
H65	H	0.891783	-0.018867	0.000152
H66	H	1.391783	0.481133	0.500152
N67	N	1.311455	0.261279	0.655087
N68	N	1.811455	0.761279	1.155087
N69	N	1.311481	0.261277	0.791991
N70	N	1.811481	0.761277	1.291991
H71	H	1.249980	0.306092	0.847315
H72	H	1.749980	0.806092	1.347315
N73	N	1.146110	-0.031358	0.000088
N74	N	1.646110	0.468642	0.500088
N75	N	1.263065	-0.029062	0.000075
N76	N	1.763065	0.470938	0.500075
H77	H	1.321002	-0.088675	0.000072
H78	H	1.821002	0.411325	0.500072
N79	N	1.656136	0.010092	0.655053
N80	N	2.156136	0.510092	1.155053
N81	N	1.654220	-0.075162	0.637924
N82	N	2.154220	0.424838	1.137924
H83	H	1.715721	-0.120001	0.693215
H84	H	2.215721	0.379999	1.193215
N85	N	1.656105	0.010103	0.345089
N86	N	2.156105	0.510103	0.845089
N87	N	1.656079	0.010103	0.208185
N88	N	2.156079	0.510103	0.708185
H89	H	1.717565	-0.034724	0.152863
H90	H	2.217565	0.465276	0.652863
H91	H	1.329080	0.248411	0.360995
H92	H	1.829080	0.748411	0.860995
H93	H	0.838147	0.285637	0.000086
H94	H	1.338147	0.785637	0.500086
N95	N	1.086279	0.307929	0.000028
N96	N	1.586279	0.807929	0.500028
N97	N	1.014579	0.381708	0.000027
N98	N	1.514579	0.881708	0.500027
H99	H	1.051141	0.443180	0.000007
H100	H	1.551141	0.943180	0.500007
