data_functionalizedCrystal
_audit_creation_method	'MofGen! by Chris Wilmer'
_symmetry_space_group_name_H-M	'P1'
_symmetry_Int_Tables_number	1
_symmetry_cell_setting	triclinic
loop_
_symmetry_equiv_pos_as_xyz
  x,y,z
_cell_length_a	18.050591
_cell_length_b	18.050588
_cell_length_c	17.640968
_cell_angle_alpha	101.229504
_cell_angle_beta	101.220701
_cell_angle_gamma	90.028402
loop_
_atom_site_label
_atom_site_type_symbol
_atom_site_fract_x
_atom_site_fract_y
_atom_site_fract_z
Zn1	Zn	1.220230	-0.210797	0.446857
Zn2	Zn	1.195012	-0.360103	0.314676
Zn3	Zn	1.070927	-0.235925	0.314698
Zn4	Zn	1.095989	-0.334953	0.446826
O5	O	1.145540	-0.285444	0.380764
O6	O	1.320810	-0.230612	0.429327
O7	O	1.157509	-0.364672	0.204065
O8	O	1.090798	-0.128663	0.332251
O9	O	1.302282	-0.340307	0.332214
O10	O	1.200491	-0.110201	0.429348
O11	O	1.066344	-0.273439	0.204081
O12	O	0.970326	-0.249052	0.332222
O13	O	1.133513	-0.297441	0.557444
O14	O	0.988739	-0.321807	0.429295
O15	O	1.224792	-0.206224	0.557467
O16	O	1.181810	-0.460696	0.332184
O17	O	1.109059	-0.442218	0.429274
C18	C	0.952586	-0.285427	0.380758
C19	C	0.870043	-0.285435	0.380774
C20	C	0.631239	-0.325115	0.433491
C21	C	0.666893	-0.356899	0.361342
C22	C	0.572923	-0.285458	0.380772
C23	C	0.684349	-0.253698	0.452918
C24	C	0.718909	-0.285448	0.380777
C25	C	0.607483	-0.317285	0.308586
C26	C	0.624944	-0.214043	0.400210
C27	C	0.660567	-0.245811	0.328011
C28	C	0.488824	-0.285466	0.380771
C29	C	0.803004	-0.285441	0.380770
C30	C	1.145441	-0.478401	0.380741
C31	C	1.145472	-0.560944	0.380757
C32	C	1.105988	-0.799748	0.433555
C33	C	1.177390	-0.746595	0.452947
C34	C	1.145634	-0.858056	0.380801
C35	C	1.074162	-0.764124	0.361425
C36	C	1.145551	-0.712074	0.380781
C37	C	1.217080	-0.805983	0.400230
C38	C	1.113800	-0.823523	0.308675
C39	C	1.185244	-0.770397	0.328039
C40	C	1.145681	-0.942151	0.380814
C41	C	1.145511	-0.627980	0.380768
C42	C	1.339246	-0.285462	0.380771
C43	C	1.421793	-0.285469	0.380774
C44	C	1.184761	-0.246224	0.586939
C45	C	1.201475	-0.229511	0.674798
C46	C	1.145662	-0.091731	0.380805
C47	C	1.145714	-0.009182	0.380823
C48	C	1.106513	-0.324458	0.175392
C49	C	1.089943	-0.340962	0.087534
C50	C	1.018851	-0.412009	0.963696
C51	C	1.034572	-0.396295	1.046253
C52	C	1.129613	-0.301319	1.046267
C53	C	1.113898	-0.317022	0.963708
C54	C	1.058516	-0.372369	0.922429
C55	C	1.153563	-0.277382	0.922441
C56	C	1.137852	-0.293087	0.839889
C57	C	1.082474	-0.348433	0.798605
C58	C	1.042805	-0.388074	0.839878
C59	C	1.208948	-0.222040	0.963721
C60	C	1.248614	-0.182399	0.922454
C61	C	1.232898	-0.198101	0.839901
C62	C	1.177521	-0.253446	0.798616
C63	C	1.272568	-0.158459	0.798628
C64	C	1.256856	-0.174165	0.716076
C65	C	1.161810	-0.269151	0.716065
H66	H	0.673626	-0.212279	0.283380
Cl67	Cl	0.610828	-0.376962	0.502233
Cl68	Cl	0.556195	-0.358859	0.214362
H69	H	0.997690	-0.433125	0.806266
H70	H	1.204283	-0.713259	0.513934
H71	H	1.013754	-0.745606	0.345045
H72	H	1.116695	-0.314202	0.682453
H73	H	1.069686	-0.361222	0.731386
H74	H	1.221740	-0.209256	1.030940
H75	H	1.072553	-0.812951	0.478209
Cl76	Cl	1.318235	-0.112826	0.974354
Cl77	Cl	1.342195	-0.088892	0.850531
Cl78	Cl	1.310394	-0.834404	0.425629
H79	H	1.086890	-0.856872	0.247705
Cl80	Cl	1.237026	-0.750206	0.259149
Cl81	Cl	0.695533	-0.450137	0.335954
Cl82	Cl	0.984697	-0.446132	1.098130
Cl83	Cl	0.596285	-0.120822	0.425631
Cl84	Cl	0.735778	-0.212233	0.547111
H85	H	0.973736	-0.457059	0.930085
H86	H	1.174707	-0.256258	1.079887
H87	H	1.289155	-0.141885	0.682476
