data_functionalizedCrystal
_audit_creation_method	'MofGen! by Chris Wilmer'
_symmetry_space_group_name_H-M	'P1'
_symmetry_Int_Tables_number	1
_symmetry_cell_setting	triclinic
loop_
_symmetry_equiv_pos_as_xyz
  x,y,z
_cell_length_a	17.641144
_cell_length_b	12.759401
_cell_length_c	12.759393
_cell_angle_alpha	90.022497
_cell_angle_beta	101.185181
_cell_angle_gamma	101.173198
loop_
_atom_site_label
_atom_site_type_symbol
_atom_site_fract_x
_atom_site_fract_y
_atom_site_fract_z
Zn1	Zn	-0.314527	-1.690679	-0.678675
Zn2	Zn	-0.446684	-1.726038	-0.538547
Zn3	Zn	-0.314567	-1.514988	-0.503016
Zn4	Zn	-0.446627	-1.550423	-0.714164
O5	O	-0.380601	-1.620532	-0.608600
O6	O	-0.332064	-1.842392	-0.660104
O7	O	-0.429199	-1.698011	-0.386823
O8	O	-0.203986	-1.508667	-0.496596
O9	O	-0.429160	-1.868371	-0.557152
O10	O	-0.203956	-1.637746	-0.625651
O11	O	-0.332133	-1.542953	-0.360719
O12	O	-0.332078	-1.372666	-0.531008
O13	O	-0.429063	-1.569059	-0.856466
O14	O	-0.429102	-1.398699	-0.686137
O15	O	-0.332009	-1.672105	-0.830393
O16	O	-0.557252	-1.732370	-0.591565
O17	O	-0.557211	-1.603346	-0.720590
C18	C	-0.380589	-1.347561	-0.608569
C19	C	-0.380603	-1.230789	-0.608585
C20	C	-0.431200	-1.189530	-0.689275
C21	C	-0.431202	-1.079807	-0.689293
C22	C	-0.330008	-1.052609	-0.527923
C23	C	-0.330002	-1.162330	-0.527910
C24	C	-0.459553	-0.937520	-0.820776
C25	C	-0.510163	-0.896261	-0.901460
C26	C	-0.587277	-0.952555	-0.938153
C27	C	-0.613799	-1.050110	-0.894152
C28	C	-0.563194	-1.091364	-0.813462
C29	C	-0.486068	-1.035069	-0.776786
C30	C	-0.301659	-1.304621	-0.396427
C31	C	-0.251057	-1.345878	-0.315732
C32	C	-0.173941	-1.289586	-0.279028
C33	C	-0.147422	-1.192028	-0.323011
C34	C	-0.198024	-1.150771	-0.403706
C35	C	-0.275139	-1.207070	-0.440412
C36	C	-0.585902	-1.675568	-0.663807
C37	C	-0.673731	-1.699209	-0.687459
C38	C	-0.962961	-1.441315	-0.429044
C39	C	-1.045489	-1.463546	-0.451272
C40	C	-1.045330	-1.597803	-0.585724
C41	C	-0.962800	-1.575580	-0.563511
C42	C	-0.921622	-1.497335	-0.485170
C43	C	-0.921461	-1.631600	-0.619637
C44	C	-0.838938	-1.609381	-0.597422
C45	C	-0.797754	-1.531143	-0.519082
C46	C	-0.839099	-1.475117	-0.462955
C47	C	-0.962641	-1.709849	-0.697973
C48	C	-0.921302	-1.765870	-0.754098
C49	C	-0.838777	-1.743646	-0.731889
C50	C	-0.797593	-1.665408	-0.653549
C51	C	-0.797433	-1.799672	-0.788016
C52	C	-0.714910	-1.777454	-0.765801
C53	C	-0.715070	-1.643189	-0.631334
C54	C	-0.174498	-1.565309	-0.553201
C55	C	-0.086669	-1.541777	-0.529594
C56	C	-0.380525	-1.620590	-0.882613
C57	C	-0.380493	-1.620615	-0.999381
C58	C	-0.380612	-0.894568	-0.608625
C59	C	-0.380610	-1.011344	-0.608617
C60	C	-0.329949	-1.674274	-1.040666
C61	C	-0.329915	-1.674283	-1.150381
C62	C	-0.430976	-1.566973	-1.177519
C63	C	-0.431005	-1.566958	-1.067804
C64	C	-0.236686	-1.686874	-1.275281
C65	C	-0.186149	-1.740551	-1.316572
C66	C	-0.174033	-1.839812	-1.277724
C67	C	-0.212466	-1.885420	-1.197590
C68	C	-0.263009	-1.831750	-1.156307
C69	C	-0.275110	-1.732471	-1.195149
C70	C	-0.524235	-1.554378	-0.942903
C71	C	-0.574782	-1.500714	-0.901619
C72	C	-0.586906	-1.401453	-0.940467
C73	C	-0.548487	-1.355853	-1.020608
C74	C	-0.497940	-1.409517	-1.061892
C75	C	-0.485815	-1.508776	-1.023036
C76	C	-0.380620	-1.620519	-0.335638
C77	C	-0.380429	-1.620638	-0.218811
H78	H	-0.628483	-0.918954	-1.003848
H79	H	-0.488561	-0.816830	-0.937284
H80	H	-0.466658	-1.372380	-1.127147
H81	H	-0.681541	-1.579466	-0.567548
C82	C	-0.250001	-1.577672	-1.318011
N83	N	-0.260031	-1.495421	-1.350201
C84	C	-0.669434	-1.839072	-0.827549
N85	N	-0.635182	-1.885484	-0.874060
H86	H	-0.805570	-1.411394	-0.399169
H87	H	-0.954840	-1.829579	-0.817881
C88	C	-0.561823	-1.246659	-1.063343
N89	N	-0.571870	-1.164413	-1.095530
H90	H	-0.830972	-1.863386	-0.851794
H91	H	-0.606072	-1.537857	-0.836373
C92	C	-0.274377	-1.733287	-0.965403
N93	N	-0.232516	-1.777733	-0.908716
C94	C	-0.118436	-1.898850	-1.323141
N95	N	-0.076556	-1.943310	-1.357349
H96	H	-0.730558	-1.513058	-0.500992
H97	H	-0.628073	-1.357767	-0.906852
H98	H	-0.294303	-1.868886	-1.091067
H99	H	-0.202602	-1.966253	-1.165973
H100	H	-1.029836	-1.727939	-0.716055
H101	H	-0.514361	-1.635202	-0.911258
H102	H	-0.288812	-0.996857	-0.462239
H103	H	-0.364451	-1.350470	-0.426318
H104	H	-0.929432	-1.377592	-0.365258
H105	H	-0.584787	-1.170791	-0.777637
C106	C	-0.486855	-1.264830	-0.778026
N107	N	-0.528775	-1.321543	-0.844878
H108	H	-0.396758	-0.891681	-0.790915
H109	H	-0.176424	-1.071337	-0.439525
C110	C	-0.062590	-1.130103	-0.282636
N111	N	0.001308	-1.083463	-0.252221
H112	H	-0.676597	-1.095933	-0.924028
H113	H	-0.132744	-1.323183	-0.213312
C114	C	-1.090636	-1.683869	-0.671899
N115	N	-1.124759	-1.748692	-0.736810
C116	C	-0.280227	-1.453204	-0.267362
N117	N	-0.302196	-1.534046	-0.230938
C118	C	-0.143868	-1.690373	-1.404708
N119	N	-0.112022	-1.652583	-1.471092
C120	C	-1.090959	-1.401909	-0.389526
N121	N	-1.125207	-1.355486	-0.343019
H122	H	-0.472102	-1.523290	-1.233242
