data_functionalizedCrystal
_audit_creation_method	'MofGen! by Chris Wilmer'
_symmetry_space_group_name_H-M	'P1'
_symmetry_Int_Tables_number	1
_symmetry_cell_setting	triclinic
loop_
_symmetry_equiv_pos_as_xyz
  x,y,z
_cell_length_a	8.497374
_cell_length_b	8.497374
_cell_length_c	16.959455
_cell_angle_alpha	90.002432
_cell_angle_beta	90.001960
_cell_angle_gamma	90.005237
loop_
_atom_site_label
_atom_site_type_symbol
_atom_site_fract_x
_atom_site_fract_y
_atom_site_fract_z
Zn1	Zn	0.628458	0.892136	1.208395
Zn2	Zn	0.892204	0.628402	1.208389
Zn3	Zn	0.628417	0.628360	1.076251
Zn4	Zn	0.892176	0.892130	1.076232
O5	O	0.760314	0.760257	1.142317
O6	O	0.663473	0.857171	1.319005
O7	O	0.857207	0.407634	1.190866
O8	O	0.407660	0.663336	1.093791
O9	O	0.857246	0.663407	1.319001
O10	O	0.407690	0.857131	1.190877
O11	O	0.663404	0.407603	1.093785
O12	O	0.663377	0.663330	0.965638
O13	O	0.857198	1.112893	1.093759
O14	O	0.857159	0.857120	0.965624
O15	O	0.663446	1.112898	1.190858
O16	O	1.112962	0.663401	1.190848
O17	O	1.112942	0.857161	1.093753
C18	C	0.760262	0.760221	0.936951
C19	C	0.760277	0.760243	0.849094
C20	C	1.170194	0.760280	1.142307
C21	C	1.348838	0.760254	1.142328
C22	C	0.760316	1.171737	1.142311
C23	C	0.760333	1.350381	1.142313
C24	C	0.659329	0.659561	0.477601
C25	C	0.861429	0.861043	0.477636
C26	C	0.861406	0.861034	0.560182
C27	C	0.760345	0.760284	0.601441
C28	C	0.659306	0.659545	0.560155
C29	C	0.962454	0.961760	0.601474
C30	C	0.962437	0.961753	0.684025
C31	C	0.861366	0.861011	0.725286
C32	C	0.760322	0.760268	0.683995
C33	C	0.659261	0.659519	0.725254
C34	C	0.558208	0.558783	0.683964
C35	C	0.558236	0.558802	0.601416
C36	C	0.861339	0.860992	0.807834
C37	C	0.659239	0.659503	0.807808
C38	C	0.760367	0.760294	1.348485
C39	C	0.760390	0.760310	1.436342
H40	H	0.576932	0.577469	0.841396
Cl41	Cl	0.988503	0.987659	0.425766
Cl42	Cl	0.431175	0.432123	0.735843
Cl43	Cl	0.431213	0.432174	0.549504
Cl44	Cl	0.532289	0.532936	0.425697
H45	H	1.044743	1.043773	0.567874
H46	H	1.044719	1.043779	0.717636
Cl47	Cl	0.988375	0.987611	0.859738
