data_functionalizedCrystal
_audit_creation_method	'MofGen! by Chris Wilmer'
_symmetry_space_group_name_H-M	'P1'
_symmetry_Int_Tables_number	1
_symmetry_cell_setting	triclinic
loop_
_symmetry_equiv_pos_as_xyz
  x,y,z
_cell_length_a	19.121102
_cell_length_b	19.121063
_cell_length_c	19.121278
_cell_angle_alpha	89.864274
_cell_angle_beta	89.881378
_cell_angle_gamma	90.126902
loop_
_atom_site_label
_atom_site_type_symbol
_atom_site_fract_x
_atom_site_fract_y
_atom_site_fract_z
Zn1	Zn	1.041308	-0.304728	-0.454471
Zn2	Zn	1.541308	0.195272	0.045529
Zn3	Zn	1.040794	-0.426950	-0.342206
Zn4	Zn	1.540794	0.073050	0.157794
Zn5	Zn	0.929056	-0.305167	-0.332271
Zn6	Zn	1.429056	0.194833	0.167729
Zn7	Zn	0.919052	-0.416939	-0.454003
Zn8	Zn	1.419052	0.083061	0.045997
O9	O	0.982553	-0.363446	-0.395738
O10	O	1.482553	0.136554	0.104262
O11	O	1.139167	-0.324947	-0.443933
O12	O	1.639167	0.175053	0.056067
O13	O	1.029944	-0.415169	-0.242959
O14	O	1.529944	0.084831	0.257041
O15	O	0.948348	-0.207181	-0.344519
O16	O	1.448348	0.292819	0.155481
O17	O	1.138790	-0.414743	-0.361452
O18	O	1.638790	0.085257	0.138548
O19	O	1.030819	-0.206859	-0.434299
O20	O	1.530819	0.293141	0.065701
O21	O	0.947850	-0.325695	-0.235659
O22	O	1.447850	0.174305	0.264341
O23	O	0.829801	-0.315988	-0.344065
O24	O	1.329801	0.184012	0.155935
O25	O	0.931298	-0.397681	-0.551994
O26	O	1.431298	0.102319	-0.051994
O27	O	0.822452	-0.398106	-0.433501
O28	O	1.322452	0.101894	0.066499
O29	O	1.021119	-0.315240	-0.552338
O30	O	1.521119	0.184760	-0.052338
O31	O	1.020243	-0.523550	-0.360998
O32	O	1.520243	-0.023550	0.139002
O33	O	0.930800	-0.516195	-0.443135
O34	O	1.430800	-0.016195	0.056865
C35	C	0.800735	-0.356009	-0.387654
C36	C	1.300735	0.143991	0.112346
C37	C	0.722951	-0.352843	-0.384214
C38	C	1.222951	0.147157	0.115786
C39	C	0.682600	-0.394181	-0.429094
C40	C	1.182600	0.105819	0.070906
C41	C	0.609514	-0.391197	-0.425864
C42	C	1.109514	0.108803	0.074136
C43	C	0.576781	-0.346879	-0.377750
C44	C	1.076781	0.153121	0.122250
C45	C	0.617138	-0.305536	-0.332867
C46	C	1.117138	0.194464	0.167133
C47	C	0.690222	-0.308516	-0.336101
C48	C	1.190222	0.191484	0.163899
C49	C	0.356304	-0.335733	-0.365663
C50	C	0.856304	0.164267	0.134337
C51	C	0.283214	-0.332757	-0.362431
C52	C	0.783214	0.167243	0.137569
C53	C	0.275595	-0.418418	-0.455429
C54	C	0.775595	0.081582	0.044571
C55	C	0.348681	-0.421398	-0.458656
C56	C	0.848681	0.078602	0.041344
C57	C	0.389032	-0.380052	-0.413776
C58	C	0.889032	0.119948	0.086224
C59	C	0.502076	-0.343829	-0.374446
C60	C	1.002076	0.156171	0.125554
C61	C	0.463736	-0.383099	-0.417084
C62	C	0.963736	0.116901	0.082916
C63	C	0.974399	-0.545264	-0.403110
C64	C	1.474399	-0.045264	0.096890
C65	C	0.970973	-0.623048	-0.406290
C66	C	1.470973	-0.123048	0.093710
C67	C	1.015966	-0.663397	-0.365058
C68	C	1.515966	-0.163397	0.134942
C69	C	1.012748	-0.736483	-0.368053
C70	C	1.512748	-0.236483	0.131947
C71	C	0.964535	-0.769219	-0.412277
C72	C	1.464535	-0.269219	0.087723
C73	C	0.919540	-0.728864	-0.453513
C74	C	1.419540	-0.228864	0.046487
C75	C	0.922761	-0.655780	-0.450521
C76	C	1.422761	-0.155780	0.049479
C77	C	0.952480	-0.989697	-0.423451
C78	C	1.452480	-0.489697	0.076549
C79	C	0.949260	-1.062787	-0.426438
C80	C	1.449260	-0.562787	0.073562
C81	C	1.042470	-1.070401	-0.340979
C82	C	1.542470	-0.570401	0.159021
C83	C	1.045684	-0.997314	-0.337988
C84	C	1.545684	-0.497314	0.162012
C85	C	1.000692	-0.956966	-0.379227
C86	C	1.500692	-0.456966	0.120773
C87	C	0.961243	-0.843924	-0.415337
C88	C	1.461243	-0.343924	0.084663
C89	C	1.003988	-0.882262	-0.376169
C90	C	1.503988	-0.382262	0.123831
C91	C	1.165080	-0.370913	-0.403853
C92	C	1.665080	0.129087	0.096147
C93	C	1.242862	-0.374095	-0.407311
C94	C	1.742862	0.125905	0.092689
C95	C	0.975150	-0.355295	-0.578268
C96	C	1.475150	0.144705	-0.078268
C97	C	0.971995	-0.351821	-0.656052
C98	C	1.471995	0.148179	-0.156052
C99	C	0.990757	-0.180918	-0.388353
C100	C	1.490757	0.319082	0.111647
C101	C	0.994253	-0.103136	-0.385206
C102	C	1.494253	0.396864	0.114794
C103	C	0.952011	-0.329846	-1.095791
C104	C	1.452011	0.170154	-0.595791
C105	C	0.954979	-0.333107	-1.022705
C106	C	1.454979	0.166893	-0.522705
C107	C	0.999200	-0.381325	-0.989961
C108	C	1.499200	0.118675	-0.489961
C109	C	1.040462	-0.426280	-1.030308
C110	C	1.540462	0.073720	-0.530308
C111	C	1.037498	-0.423015	-1.103392
C112	C	1.537498	0.076985	-0.603392
C113	C	1.010292	-0.393511	-0.769483
C114	C	1.510292	0.106489	-0.269483
C115	C	1.013252	-0.396775	-0.696393
C116	C	1.513252	0.103225	-0.196393
C117	C	0.927769	-0.303600	-0.688795
C118	C	1.427769	0.196400	-0.188795
C119	C	0.924806	-0.300342	-0.761881
C120	C	1.424806	0.199658	-0.261881
C121	C	0.966070	-0.345294	-0.802221
C122	C	1.466070	0.154706	-0.302221
C123	C	1.002233	-0.384661	-0.915256
C124	C	1.502233	0.115339	-0.415256
C125	C	0.963041	-0.341954	-0.876926
C126	C	1.463041	0.158046	-0.376926
C127	C	0.989969	-0.371517	-0.213917
C128	C	1.489969	0.128483	0.286083
C129	C	0.993268	-0.374799	-0.136132
C130	C	1.493268	0.125201	0.363868
H131	H	0.256565	-0.296659	-0.323254
H132	H	0.756565	0.203341	0.176746
H133	H	0.709245	-0.430273	-0.468272
H134	H	1.209245	0.069727	0.031728
H135	H	0.880286	-0.755524	-0.489524
H136	H	1.380286	-0.255524	0.010476
H137	H	0.576663	-0.424860	-0.462410
H138	H	1.076663	0.075140	0.037590
H139	H	1.071095	-0.459620	-1.136238
H140	H	1.571095	0.040380	-0.636238
Cl141	Cl	1.106308	-0.956166	-0.282400
Cl142	Cl	1.606308	-0.456166	0.217600
H143	H	1.049386	-0.769332	-0.334477
H144	H	1.549386	-0.269332	0.165523
Cl145	Cl	1.096061	-0.486893	-0.989145
Cl146	Cl	1.596061	0.013107	-0.489145
Cl147	Cl	0.224865	-0.470393	-0.511845
Cl148	Cl	0.724865	0.029607	-0.011845
Cl149	Cl	0.389826	-0.477117	-0.519143
Cl150	Cl	0.889826	0.022883	-0.019143
Cl151	Cl	0.407020	-0.283753	-0.309243
Cl152	Cl	0.907020	0.216247	0.190757
H153	H	1.055224	-0.636749	-0.329043
H154	H	1.555224	-0.136749	0.170957
Cl155	Cl	1.099032	-1.121128	-0.289143
Cl156	Cl	1.599032	-0.621128	0.210857
H157	H	1.043246	-0.855606	-0.340165
H158	H	1.543246	-0.355606	0.159835
Cl159	Cl	0.900632	-0.885084	-0.470930
Cl160	Cl	1.400632	-0.385084	0.029070
H161	H	0.910007	-1.089438	-0.462463
H162	H	1.410007	-0.589438	0.037537
Cl163	Cl	0.866199	-0.605055	-0.502360
Cl164	Cl	1.366199	-0.105055	-0.002360
H165	H	0.475416	-0.307746	-0.335269
H166	H	0.975416	0.192254	0.164731
Cl167	Cl	0.907452	-0.281337	-0.918090
Cl168	Cl	1.407452	0.218663	-0.418090
H169	H	0.915844	-0.956851	-0.457028
H170	H	1.415844	-0.456851	0.042972
H171	H	0.915999	-0.290583	-1.122445
H172	H	1.415999	0.209417	-0.622445
Cl173	Cl	0.575988	-0.249815	-0.272384
Cl174	Cl	1.075988	0.250185	0.227616
Cl175	Cl	1.062159	-0.450032	-0.820187
Cl176	Cl	1.562159	0.049968	-0.320187
H177	H	1.038237	-0.423922	-0.888588
H178	H	1.538237	0.076078	-0.388588
H179	H	0.888793	-0.261080	-0.788536
H180	H	1.388793	0.238920	-0.288536
Cl181	Cl	0.740950	-0.256544	-0.279679
Cl182	Cl	1.240950	0.243456	0.220321
H183	H	0.490390	-0.419180	-0.456261
H184	H	0.990390	0.080820	0.043739
Cl185	Cl	0.903111	-0.276590	-0.971993
Cl186	Cl	1.403111	0.223410	-0.471993
Cl187	Cl	0.875907	-0.247082	-0.638078
Cl188	Cl	1.375907	0.252918	-0.138078
H189	H	1.049279	-0.436028	-0.669736
H190	H	1.549279	0.063972	-0.169736
