data_functionalizedCrystal
_audit_creation_method	'MofGen! by Chris Wilmer'
_symmetry_space_group_name_H-M	'P1'
_symmetry_Int_Tables_number	1
_symmetry_cell_setting	triclinic
loop_
_symmetry_equiv_pos_as_xyz
  x,y,z
_cell_length_a	19.077105
_cell_length_b	19.077068
_cell_length_c	19.077174
_cell_angle_alpha	94.657148
_cell_angle_beta	85.483752
_cell_angle_gamma	90.115316
loop_
_atom_site_label
_atom_site_type_symbol
_atom_site_fract_x
_atom_site_fract_y
_atom_site_fract_z
Zn1	Zn	1.080478	-0.341972	-0.455027
Zn2	Zn	1.071301	-0.454742	-0.341487
Zn3	Zn	0.958244	-0.332134	-0.332045
Zn4	Zn	0.958197	-0.454696	-0.454603
O5	O	1.017055	-0.395886	-0.395791
O6	O	1.177751	-0.361068	-0.444095
O7	O	1.052483	-0.434380	-0.241427
O8	O	0.978319	-0.234951	-0.344585
O9	O	1.171009	-0.443920	-0.360677
O10	O	1.068124	-0.242180	-0.434939
O11	O	0.969420	-0.344300	-0.234490
O12	O	0.859748	-0.344255	-0.344174
O13	O	0.978239	-0.443841	-0.553467
O14	O	0.859713	-0.434301	-0.434217
O15	O	1.068079	-0.361024	-0.553779
O16	O	1.052438	-0.553224	-0.360266
O17	O	0.969340	-0.553190	-0.443372
C18	C	0.834193	-0.388206	-0.388125
C19	C	0.755964	-0.384938	-0.384863
C20	C	0.719207	-0.430350	-0.430143
C21	C	0.645702	-0.427270	-0.427081
C22	C	0.608956	-0.378782	-0.378736
C23	C	0.645719	-0.333365	-0.333454
C24	C	0.719222	-0.336442	-0.336520
C25	C	0.389126	-0.364542	-0.364550
C26	C	0.315618	-0.361471	-0.361486
C27	C	0.315607	-0.455375	-0.455114
C28	C	0.389111	-0.458451	-0.458173
C29	C	0.425867	-0.413032	-0.412894
N30	N	0.533823	-0.375634	-0.375603
N31	N	0.500999	-0.416176	-0.416030
C32	C	1.009908	-0.578745	-0.402813
C33	C	1.006916	-0.656976	-0.405844
C34	C	1.048810	-0.693727	-0.364038
C35	C	1.046000	-0.767234	-0.366893
C36	C	1.001291	-0.803989	-0.411551
C37	C	0.959395	-0.767233	-0.453361
C38	C	0.962209	-0.693728	-0.450510
C39	C	0.988234	-1.023827	-0.424718
C40	C	0.985422	-1.097337	-0.427565
C41	C	1.072029	-1.097333	-0.341097
C42	C	1.074836	-1.023826	-0.338247
C43	C	1.032942	-0.987077	-0.380060
N44	N	0.998416	-0.879124	-0.414468
N45	N	1.035821	-0.911943	-0.377146
C46	C	1.200631	-0.403597	-0.403486
C47	C	1.278861	-0.406882	-0.406766
C48	C	1.024177	-0.403525	-0.579959
C49	C	1.027212	-0.406780	-0.658440
C50	C	1.024250	-0.212315	-0.388757
C51	C	1.027316	-0.134088	-0.385759
C52	C	0.985394	-0.361410	-0.691699
C53	C	0.988242	-0.364475	-0.765441
C54	C	1.032914	-0.412906	-0.805923
C55	C	1.074734	-0.458280	-0.772659
C56	C	1.071881	-0.455219	-0.698918
C57	C	1.046080	-0.427094	-1.026851
C58	C	1.048931	-0.430150	-1.100597
C59	C	0.962438	-0.336345	-1.093373
C60	C	0.959592	-0.333285	-1.019632
C61	C	1.001410	-0.378662	-0.986374
N62	N	1.035828	-0.416037	-0.881299
N63	N	0.998491	-0.375533	-0.911000
C64	C	1.010004	-0.388228	-0.212338
C65	C	1.007113	-0.384781	-0.133855
H66	H	0.615795	-0.293882	-0.294093
O67	O	0.280032	-0.314301	-0.314502
C68	C	0.328234	-0.274884	-0.275183
H69	H	0.381848	-0.275881	-0.306201
H70	H	0.332963	-0.298671	-0.222825
C71	C	0.236225	-0.197123	-0.222963
C72	C	0.302073	-0.198342	-0.261062
H73	H	0.220087	-0.149909	-0.214249
H74	H	0.203750	-0.223680	-0.249451
H75	H	0.240175	-0.216949	-0.179336
H76	H	0.298120	-0.178524	-0.304692
H77	H	0.334547	-0.171779	-0.234581
O78	O	1.118144	-0.505388	-0.811875
C79	C	1.154456	-0.544765	-0.766705
H80	H	1.123497	-0.543811	-0.713026
H81	H	1.208615	-0.520910	-0.760113
C82	C	1.200804	-0.622462	-0.864707
C83	C	1.162777	-0.621295	-0.798780
H84	H	1.205940	-0.669668	-0.884493
H85	H	1.176343	-0.595932	-0.895140
H86	H	1.245933	-0.602579	-0.859205
H87	H	1.117646	-0.641168	-0.804284
H88	H	1.187231	-0.647830	-0.768348
O89	O	0.424776	-0.505480	-0.505237
C90	C	0.410133	-0.492387	-0.574298
H91	H	0.392267	-0.435472	-0.574954
H92	H	0.366705	-0.529124	-0.592362
C93	C	0.498877	-0.575245	-0.623647
C94	C	0.476940	-0.505340	-0.624453
H95	H	0.540085	-0.583238	-0.654586
H96	H	0.508741	-0.584068	-0.577119
H97	H	0.462681	-0.605851	-0.638698
H98	H	0.513132	-0.474735	-0.609393
H99	H	0.467084	-0.496511	-0.670980
O100	O	0.947515	-0.320427	-0.797661
C101	C	0.876070	-0.332125	-0.777294
H102	H	0.871488	-0.356901	-0.724731
H103	H	0.852543	-0.369032	-0.819186
C104	C	0.841623	-0.231150	-0.834020
C105	C	0.835996	-0.261575	-0.769458
H106	H	0.816902	-0.187633	-0.829189
H107	H	0.889757	-0.223270	-0.847745
H108	H	0.822019	-0.261913	-0.868924
H109	H	0.855608	-0.230816	-0.734558
H110	H	0.787864	-0.269449	-0.755727
H111	H	1.105940	-0.492158	-0.671840
H112	H	0.922995	-0.797165	-0.489726
O113	O	1.086872	-0.802925	-0.326441
C114	C	1.132221	-0.848900	-0.370308
H115	H	1.139377	-0.829202	-0.425247
H116	H	1.108511	-0.903855	-0.373928
C117	C	1.195333	-0.875691	-0.271644
C118	C	1.204126	-0.851493	-0.339120
H119	H	1.239687	-0.877294	-0.252405
H120	H	1.164779	-0.844718	-0.242089
H121	H	1.175572	-0.921484	-0.274670
H122	H	1.223878	-0.805698	-0.336092
H123	H	1.234686	-0.882458	-0.368674
H124	H	0.419044	-0.327564	-0.327676
H125	H	1.085214	-0.663806	-0.327670
H126	H	0.928095	-0.663806	-0.484553
H127	H	1.080123	-0.464050	-0.999782
O128	O	0.754981	-0.477359	-0.477141
C129	C	0.800823	-0.441033	-0.523059
H130	H	0.812956	-0.387090	-0.496651
H131	H	0.774828	-0.434364	-0.573922
C132	C	0.854723	-0.549480	-0.572617
C133	C	0.869629	-0.483229	-0.540181
H134	H	0.897165	-0.575509	-0.583182
H135	H	0.823837	-0.573955	-0.541684
H136	H	0.833059	-0.543913	-0.614999
H137	H	0.891284	-0.488796	-0.497796
H138	H	0.900521	-0.458756	-0.571108
O139	O	0.754819	-0.292303	-0.292459
C140	C	0.706628	-0.248836	-0.249141
H141	H	0.653009	-0.275362	-0.245572
H142	H	0.701906	-0.196171	-0.272706
C143	C	0.798649	-0.204083	-0.179193
C144	C	0.732795	-0.236666	-0.174805
H145	H	0.814791	-0.196573	-0.133341
H146	H	0.831118	-0.233366	-0.208379
H147	H	0.794706	-0.160199	-0.198834
H148	H	0.736741	-0.280552	-0.155174
H149	H	0.700327	-0.207390	-0.145614
H150	H	0.615778	-0.464250	-0.463952
O151	O	1.118232	-0.988200	-0.294773
C152	C	1.099488	-1.002630	-0.224441
H153	H	1.070329	-1.054824	-0.223892
H154	H	1.063988	-0.958794	-0.197508
C155	C	1.202173	-0.942994	-0.185415
C156	C	1.166364	-1.007103	-0.184739
H157	H	1.243424	-0.945750	-0.160923
H158	H	1.214800	-0.933270	-0.232798
H159	H	1.172582	-0.906471	-0.162971
H160	H	1.195951	-1.043623	-0.207190
H161	H	1.153743	-1.016834	-0.137359
O162	O	1.092342	-0.477263	-1.139816
C163	C	1.128653	-0.516646	-1.094651
H164	H	1.097696	-0.515695	-1.040972
H165	H	1.182814	-0.492796	-1.088060
C166	C	1.174992	-0.594338	-1.192661
C167	C	1.136968	-0.593174	-1.126733
H168	H	1.180125	-0.641544	-1.212451
H169	H	1.150532	-0.567804	-1.223091
H170	H	1.220123	-0.574460	-1.187159
H171	H	1.091835	-0.613044	-1.132237
H172	H	1.161421	-0.619714	-1.096305
H173	H	0.949023	-1.127262	-0.463943
O174	O	0.279794	-0.499416	-0.499070
C175	C	0.207038	-0.486318	-0.485988
H176	H	0.198224	-0.430593	-0.460445
H177	H	0.183086	-0.525573	-0.449052
C178	C	0.182650	-0.562703	-0.587473
C179	C	0.171824	-0.494258	-0.556105
H180	H	0.160927	-0.567604	-0.630724
H181	H	0.231667	-0.571530	-0.596286
H182	H	0.162690	-0.595408	-0.556686
H183	H	0.191792	-0.461556	-0.586889
H184	H	0.122810	-0.485426	-0.547300
H185	H	1.106137	-1.127262	-0.307056
O186	O	0.947565	-0.988221	-0.465429
C187	C	0.964930	-1.009692	-0.537154
H188	H	0.990007	-1.064231	-0.541842
H189	H	1.003592	-0.970782	-0.560883
C190	C	0.866994	-0.945046	-0.571354
C191	C	0.897789	-1.012035	-0.577113
H192	H	0.825580	-0.946489	-0.596005
H193	H	0.855296	-0.930578	-0.523032
H194	H	0.899220	-0.912629	-0.591128
H195	H	0.865567	-1.044449	-0.557332
H196	H	0.909480	-1.026508	-0.625433
O197	O	0.941957	-0.314457	-0.652302
C198	C	0.893268	-0.350849	-0.609290
H199	H	0.915575	-0.404768	-0.601324
H200	H	0.841907	-0.357573	-0.635820
C201	C	0.851933	-0.242458	-0.547012
C202	C	0.879333	-0.308680	-0.537223
H203	H	0.843335	-0.216446	-0.502558
H204	H	0.884734	-0.217940	-0.575991
H205	H	0.809136	-0.248071	-0.569122
H206	H	0.922134	-0.303067	-0.515121
H207	H	0.846539	-0.333197	-0.508238
O208	O	0.916094	-0.286311	-0.980343
C209	C	0.846042	-0.299479	-0.996024
H210	H	0.841065	-0.356397	-1.018295
H211	H	0.830783	-0.262752	-1.036615
C212	C	0.802970	-0.216682	-0.900884
C213	C	0.796856	-0.286591	-0.928232
H214	H	0.772629	-0.208729	-0.859068
H215	H	0.850165	-0.207807	-0.890321
H216	H	0.790255	-0.186084	-0.934716
H217	H	0.809579	-0.317187	-0.894403
H218	H	0.749662	-0.295470	-0.938788
H219	H	0.928392	-0.299403	-1.120460
