data_functionalizedCrystal
_audit_creation_method	'MofGen! by Chris Wilmer'
_symmetry_space_group_name_H-M	'P1'
_symmetry_Int_Tables_number	1
_symmetry_cell_setting	triclinic
loop_
_symmetry_equiv_pos_as_xyz
  x,y,z
_cell_length_a	15.944551
_cell_length_b	15.944493
_cell_length_c	9.130313
_cell_angle_alpha	90.004626
_cell_angle_beta	90.004256
_cell_angle_gamma	83.486891
loop_
_atom_site_label
_atom_site_type_symbol
_atom_site_fract_x
_atom_site_fract_y
_atom_site_fract_z
O1	O	1.114497	0.108331	-0.121627
O2	O	0.869944	0.121688	-0.121661
O3	O	0.998924	-0.007269	-0.121655
O4	O	0.985517	0.237288	-0.121633
O5	O	0.998923	-0.007265	0.121943
O6	O	0.869943	0.121691	0.121938
O7	O	1.114495	0.108335	0.121972
Cu8	Cu	0.992219	0.115013	0.144197
Cu9	Cu	0.992221	0.115009	-0.143887
O10	O	0.985515	0.237291	0.121966
C11	C	0.838650	0.121135	0.000133
C12	C	0.745404	0.119473	0.000119
C13	C	0.530565	0.035566	0.000140
C14	C	0.469537	0.074528	-0.119963
C15	C	0.574679	0.116465	0.000136
C16	C	0.469558	0.074550	0.120206
C17	C	0.409767	0.113555	0.000159
C18	C	0.514880	0.155449	-0.120066
C19	C	0.514907	0.155461	0.120211
C20	C	0.453897	0.194481	0.000078
C21	C	0.669681	0.118140	0.000122
C22	C	0.314766	0.111886	0.000163
C23	C	0.998375	-0.038562	0.000138
C24	C	0.996733	-0.131810	0.000119
C25	C	1.072653	-0.367570	0.000157
C26	C	1.031713	-0.418140	-0.119955
C27	C	0.993688	-0.302531	0.000136
C28	C	1.031693	-0.418113	0.120215
C29	C	0.990754	-0.467441	0.000160
C30	C	0.952770	-0.351873	-0.120075
C31	C	0.952761	-0.351842	0.120202
C32	C	0.911763	-0.402379	0.000061
C33	C	0.995381	-0.207531	0.000122
C34	C	0.989055	-0.562438	0.000164
C35	C	1.145790	0.108888	0.000174
C36	C	1.239036	0.110550	0.000178
C37	C	0.986064	0.268584	0.000170
C38	C	0.987707	0.361833	0.000179
N39	N	0.992224	0.115016	0.346820
N40	N	0.992223	0.115000	-0.346509
C41	C	1.049350	0.057933	0.423474
C42	C	1.049348	0.057923	0.576811
C43	C	0.935090	0.172086	0.576825
C44	C	0.935089	0.172091	0.423491
C45	C	1.115319	-0.007975	0.423467
C46	C	1.115317	-0.007986	0.576804
H47	H	0.535030	0.189651	0.221761
C48	C	1.193242	0.017645	0.206101
C49	C	1.197386	0.018972	0.359262
H50	H	1.243899	0.034301	0.166466
H51	H	1.186413	-0.037829	0.173949
H52	H	1.146609	0.055574	0.174017
H53	H	1.244016	-0.018962	0.391347
H54	H	1.204224	0.074454	0.391427
H55	H	1.065056	-0.447042	0.221753
C56	C	0.822145	0.284928	0.438914
C57	C	0.872288	0.234833	0.339231
H58	H	0.783377	0.323666	0.386892
H59	H	0.791947	0.249936	0.498704
H60	H	0.857106	0.315167	0.498734
H61	H	0.837327	0.204589	0.279418
H62	H	0.902488	0.269829	0.279416
H63	H	1.101549	-0.072419	0.381839
C64	C	1.070939	-0.144065	0.526760
C65	C	1.088534	-0.090129	0.640994
H66	H	1.054417	-0.194779	0.566393
H67	H	1.026502	-0.117202	0.468231
H68	H	1.119971	-0.156802	0.468196
H69	H	1.039499	-0.077386	0.699552
H70	H	1.132974	-0.116997	0.699548
H71	H	0.888571	0.218554	0.639268
C72	C	0.626690	-0.067266	-0.124622
C73	C	0.575564	-0.055077	-0.000021
H74	H	0.654476	-0.123221	-0.124718
H75	H	0.592752	-0.058580	-0.209968
H76	H	0.667523	-0.028270	-0.123666
H77	H	0.534726	-0.094068	-0.000982
H78	H	0.609505	-0.063771	0.085347
H79	H	0.843692	-0.417845	-0.000014
H80	H	1.140671	-0.351942	0.000046
C81	C	0.386862	0.083533	-0.340388
C82	C	0.442401	0.028343	-0.257056
H83	H	0.370121	0.055018	-0.425026
H84	H	0.338490	0.102263	-0.283444
H85	H	0.414319	0.130742	-0.369230
H86	H	0.414943	-0.018863	-0.228205
H87	H	0.490782	0.009601	-0.314011
C88	C	0.949272	-0.346336	0.382941
C89	C	0.907784	-0.312734	0.257277
H90	H	0.921512	-0.322187	0.467572
H91	H	0.948327	-0.405786	0.384415
H92	H	1.006113	-0.333811	0.382070
H93	H	0.850944	-0.325265	0.258143
H94	H	0.908720	-0.253271	0.255804
H95	H	0.534861	0.189639	-0.221715
C96	C	1.238099	-0.057146	0.718194
C97	C	1.202283	0.010688	0.633019
H98	H	1.291787	-0.045618	0.752891
H99	H	1.202307	-0.064835	0.799086
H100	H	1.244505	-0.106989	0.660355
H101	H	1.195871	0.060530	0.690861
H102	H	1.238084	0.018387	0.552115
H103	H	0.420724	0.261690	0.000017
H104	H	0.449478	0.040320	0.221740
C105	C	1.160926	-0.440054	-0.256796
C106	C	1.076729	-0.457227	-0.257022
H107	H	1.188720	-0.464189	-0.341408
H108	H	1.162758	-0.380720	-0.257341
H109	H	1.188406	-0.463621	-0.171495
H110	H	1.049247	-0.433655	-0.342318
H111	H	1.074893	-0.516573	-0.256490
H112	H	0.919441	-0.323054	-0.221728
