data_functionalizedCrystal
_audit_creation_method	'MofGen! by Chris Wilmer'
_symmetry_space_group_name_H-M	'P1'
_symmetry_Int_Tables_number	1
_symmetry_cell_setting	triclinic
loop_
_symmetry_equiv_pos_as_xyz
  x,y,z
_cell_length_a	18.215407
_cell_length_b	14.908178
_cell_length_c	18.215399
_cell_angle_alpha	86.674032
_cell_angle_beta	89.983115
_cell_angle_gamma	93.311467
loop_
_atom_site_label
_atom_site_type_symbol
_atom_site_fract_x
_atom_site_fract_y
_atom_site_fract_z
Zn1	Zn	1.108194	-0.359253	-0.399149
Zn2	Zn	1.101016	-0.510134	-0.268977
Zn3	Zn	0.985126	-0.359276	-0.276101
Zn4	Zn	0.978008	-0.510075	-0.392010
O5	O	1.043086	-0.434684	-0.334059
O6	O	1.210225	-0.379283	-0.381888
O7	O	1.085618	-0.490157	-0.166936
O8	O	1.007434	-0.233018	-0.298392
O9	O	1.204951	-0.490135	-0.286251
O10	O	1.097851	-0.233002	-0.388795
O11	O	1.000474	-0.379322	-0.172170
O12	O	0.881198	-0.379264	-0.291470
O13	O	0.995302	-0.490034	-0.495943
O14	O	0.875968	-0.490056	-0.376628
O15	O	1.090949	-0.379226	-0.501188
O16	O	1.078715	-0.636380	-0.279329
O17	O	0.988342	-0.636337	-0.369721
C18	C	0.851881	-0.434657	-0.334048
C19	C	0.770081	-0.434667	-0.334059
C20	C	0.584627	-0.377065	-0.383926
C21	C	0.507768	-0.377073	-0.383928
C22	C	0.502296	-0.492329	-0.284205
C23	C	0.579153	-0.492316	-0.284200
C24	C	0.620317	-0.434685	-0.334064
C25	C	0.466600	-0.434706	-0.334072
C26	C	0.383266	-0.434715	-0.334073
C27	C	0.703657	-0.434675	-0.334062
C28	C	1.031997	-0.669095	-0.322994
C29	C	1.027321	-0.769377	-0.318284
C30	C	1.112614	-0.957650	-0.403673
C31	C	1.108222	-1.051873	-0.399250
C32	C	1.014144	-1.052050	-0.305021
C33	C	1.018535	-0.957826	-0.309444
C34	C	1.067772	-0.910629	-0.358770
C35	C	1.072167	-0.816404	-0.363188
C36	C	0.978085	-0.816582	-0.268964
C37	C	0.973694	-0.910805	-0.264541
C38	C	1.235037	-0.434713	-0.334071
C39	C	1.316836	-0.434725	-0.334077
C40	C	1.043132	-0.434620	-0.526015
C41	C	1.043152	-0.434593	-0.607816
C42	C	1.054238	-0.199358	-0.345185
C43	C	1.058990	-0.099077	-0.349925
C44	C	1.092986	-0.376818	-0.875609
C45	C	1.092976	-0.376842	-0.798749
C46	C	0.993383	-0.492238	-0.793277
C47	C	0.993397	-0.492218	-0.870135
C48	C	1.043198	-0.434502	-0.911300
C49	C	1.043174	-0.434547	-0.757581
C50	C	1.043163	-0.434574	-0.674246
C51	C	1.043210	-0.434476	-0.994640
C52	C	1.043085	-0.434683	-0.142853
C53	C	1.043220	-0.434456	-0.061065
H54	H	0.478712	-0.330151	-0.424530
H55	H	0.608213	-0.539239	-0.243592
N56	N	1.165712	-0.906741	-0.456876
H57	H	1.161688	-0.839915	-0.452865
H58	H	1.217515	-0.923163	-0.444700
N59	N	0.457898	-0.554483	-0.230422
H60	H	0.403792	-0.545750	-0.237991
H61	H	0.468295	-0.618935	-0.238746
H62	H	0.974054	-1.090493	-0.264865
N63	N	0.629023	-0.314909	-0.437708
H64	H	0.683129	-0.323647	-0.430145
H65	H	0.614935	-0.329044	-0.489579
H66	H	0.952837	-0.539227	-0.759752
H67	H	0.933605	-0.949246	-0.224383
N68	N	0.939686	-0.554429	-0.908634
H69	H	0.947253	-0.545657	-0.963570
H70	H	0.948083	-0.618871	-0.892155
N71	N	1.125267	-0.765489	-0.416387
H72	H	1.177095	-0.781842	-0.404244
H73	H	1.112973	-0.781873	-0.468169
H74	H	1.133536	-0.329821	-0.909123
H75	H	1.144733	-1.090154	-0.435818
H76	H	0.941575	-0.778287	-0.232399
N77	N	1.146679	-0.314629	-0.760253
H78	H	1.178227	-0.278067	-0.797996
H79	H	1.118694	-0.272884	-0.730333
