data_functionalizedCrystal
_audit_creation_method	'MofGen! by Chris Wilmer'
_symmetry_space_group_name_H-M	'P1'
_symmetry_Int_Tables_number	1
_symmetry_cell_setting	triclinic
loop_
_symmetry_equiv_pos_as_xyz
  x,y,z
_cell_length_a	10.723024
_cell_length_b	26.809956
_cell_length_c	10.723024
_cell_angle_alpha	90.005564
_cell_angle_beta	95.532131
_cell_angle_gamma	90.008603
loop_
_atom_site_label
_atom_site_type_symbol
_atom_site_fract_x
_atom_site_fract_y
_atom_site_fract_z
O1	O	1.657198	0.041475	-0.175010
O2	O	1.294046	0.041477	-0.191763
O3	O	1.483999	0.041474	-0.001810
O4	O	1.467245	0.041478	-0.364963
O5	O	1.483963	-0.041485	-0.001839
O6	O	1.294010	-0.041483	-0.191792
O7	O	1.657162	-0.041484	-0.175039
Zn8	Zn	1.475580	-0.054655	-0.183420
Zn9	Zn	1.475628	0.054647	-0.183382
O10	O	1.467209	-0.041482	-0.364991
C11	C	1.247528	-0.000003	-0.190558
C12	C	1.108974	-0.000002	-0.186911
N13	N	1.475557	-0.129251	-0.183445
C14	C	1.033991	-0.000001	-0.293198
C15	C	0.890788	-0.000000	-0.289431
C16	C	1.559728	-0.473878	-0.099292
C17	C	1.559757	-0.682756	-0.099273
O18	O	1.631272	-0.709761	-0.027729
N19	N	1.475634	-0.708878	-0.183354
C20	C	1.391492	-0.682778	-0.267441
O21	O	1.319932	-0.709789	-0.338948
C22	C	1.391458	-0.473901	-0.267453
C23	C	1.475595	-0.447781	-0.183374
C24	C	1.643858	-0.447759	-0.015219
C25	C	1.643854	-0.395542	-0.015229
C26	C	1.559721	-0.369446	-0.099312
C27	C	1.475591	-0.395565	-0.183384
C28	C	1.307310	-0.447801	-0.351532
C29	C	1.307307	-0.395579	-0.351526
C30	C	1.391444	-0.369459	-0.267447
C31	C	1.391455	-0.317252	-0.267477
N32	N	1.475578	-0.291130	-0.183396
C33	C	1.559711	-0.317227	-0.099313
C34	C	1.391518	-0.792441	-0.267431
C35	C	1.391528	-0.844660	-0.267429
C36	C	1.559792	-0.844635	-0.099259
C37	C	1.559787	-0.792415	-0.099267
C38	C	1.475641	-0.766319	-0.183349
C39	C	1.559698	-0.207569	-0.099341
C40	C	1.559690	-0.155348	-0.099362
C41	C	1.391422	-0.155378	-0.267528
C42	C	1.391434	-0.207594	-0.267512
C43	C	1.475576	-0.233688	-0.183408
O44	O	1.319968	-0.290215	-0.338974
O45	O	1.631242	-0.290206	-0.027798
C46	C	1.559732	-0.526095	-0.099281
C47	C	1.475602	-0.552214	-0.183354
C48	C	1.391469	-0.526117	-0.267437
C49	C	1.475612	-0.604433	-0.183353
C50	C	1.559745	-0.630530	-0.099270
C51	C	1.643868	-0.604408	-0.015189
C52	C	1.643865	-0.552191	-0.015199
C53	C	1.307346	-0.552239	-0.351518
C54	C	1.307357	-0.604456	-0.351502
C55	C	1.391490	-0.630553	-0.267420
C56	C	1.703680	-0.000004	-0.176243
C57	C	1.842234	-0.000001	-0.179891
C58	C	1.482762	-0.000005	0.044675
C59	C	1.479114	-0.000003	0.183229
N60	N	1.475661	0.129243	-0.183347
C61	C	1.468447	-0.000001	-0.411477
C62	C	1.472094	0.000000	-0.550031
C63	C	1.585401	-0.000003	0.258212
C64	C	1.581634	-0.000001	0.401415
H65	H	0.826355	0.000003	-0.380421
O66	O	1.225739	-0.370175	-0.433262
C67	C	1.293213	-0.339980	-0.510896
H68	H	1.390436	-0.332144	-0.462093
H69	H	1.241288	-0.303266	-0.530171
H70	H	1.302476	-0.360112	-0.603200
O71	O	1.690225	-0.000089	0.478221
C72	C	1.760183	-0.043047	0.454928
H73	H	1.694720	-0.073079	0.410922
H74	H	1.809323	-0.057468	0.546896
H75	H	1.833076	-0.033334	0.388133
O76	O	1.641385	-0.767081	-0.017383
C77	C	1.620028	-0.779874	0.106309
H78	H	1.520103	-0.794227	0.107786
H79	H	1.633856	-0.745545	0.168862
H80	H	1.688853	-0.810194	0.142302
O81	O	1.725622	-0.370251	0.066576
C82	C	1.799888	-0.404491	0.140762
H83	H	1.748711	-0.441717	0.142623
H84	H	1.818071	-0.389404	0.240255
H85	H	1.892935	-0.410040	0.099401
H86	H	1.322925	-0.134122	-0.335991
H87	H	1.679187	-0.000007	0.216390
O88	O	0.919212	0.000064	-0.071412
C89	C	0.995338	0.043036	-0.066665
H90	H	1.002649	0.057362	-0.165789
H91	H	1.092810	0.033373	-0.021136
H92	H	0.952116	0.073121	-0.009233
H93	H	1.322994	-0.771197	-0.335903
H94	H	1.712377	-0.530929	0.053266
H95	H	1.075814	-0.000003	-0.386984
O96	O	1.363565	0.000089	0.373067
C97	C	1.358884	0.043046	0.296921
H98	H	1.422254	0.073077	0.344122
H99	H	1.258500	0.057470	0.283026
H100	H	1.392109	0.033330	0.202044
H101	H	1.067152	0.000010	-0.093125
H102	H	1.238798	-0.469061	-0.419996
O103	O	1.225792	-0.629848	-0.433308
C104	C	1.293254	-0.660066	-0.510895
H105	H	1.391685	-0.644329	-0.513918
H106	H	1.243172	-0.660665	-0.609615
H107	H	1.299455	-0.699640	-0.471895
H108	H	1.628209	-0.134083	-0.030896
H109	H	1.628213	-0.228809	-0.030855
H110	H	1.322934	-0.228861	-0.335988
H111	H	1.323028	-0.865923	-0.335907
H112	H	1.712369	-0.469002	0.053257
O113	O	1.641395	-0.870067	-0.017620
C114	C	1.623372	-0.921756	-0.035681
H115	H	1.524564	-0.928893	-0.081432
H116	H	1.636432	-0.941601	0.058696
H117	H	1.694543	-0.936573	-0.098907
H118	H	1.238833	-0.530995	-0.419987
O119	O	1.725420	-0.629786	0.066617
C120	C	1.657921	-0.660001	0.144186
H121	H	1.559497	-0.644265	0.147188
H122	H	1.707982	-0.660592	0.242914
H123	H	1.651703	-0.699577	0.105181
O124	O	1.367145	-0.000068	0.232963
C125	C	1.298849	-0.043039	0.192798
H126	H	1.333497	-0.057367	0.102170
H127	H	1.195077	-0.033375	0.175761
H128	H	1.312744	-0.073124	0.267982
