data_functionalizedCrystal
_audit_creation_method	'MofGen! by Chris Wilmer'
_symmetry_space_group_name_H-M	'P1'
_symmetry_Int_Tables_number	1
_symmetry_cell_setting	triclinic
loop_
_symmetry_equiv_pos_as_xyz
  x,y,z
_cell_length_a	15.298206
_cell_length_b	15.297327
_cell_length_c	15.298259
_cell_angle_alpha	88.343348
_cell_angle_beta	107.352615
_cell_angle_gamma	88.422996
loop_
_atom_site_label
_atom_site_type_symbol
_atom_site_fract_x
_atom_site_fract_y
_atom_site_fract_z
Zn1	Zn	1.225119	-0.504309	-0.384900
Zn2	Zn	1.725119	-0.004309	0.115100
Zn3	Zn	1.216309	-0.674422	-0.264988
Zn4	Zn	1.716309	-0.174422	0.235012
Zn5	Zn	1.096503	-0.504361	-0.256363
Zn6	Zn	1.596503	-0.004361	0.243637
Zn7	Zn	1.046307	-0.615527	-0.435093
Zn8	Zn	1.546307	-0.115527	0.064907
O9	O	1.146060	-0.574655	-0.335336
O10	O	1.646060	-0.074655	0.164664
O11	O	1.348923	-0.551500	-0.351596
O12	O	1.848923	-0.051500	0.148404
O13	O	1.217737	-0.676532	-0.138861
O14	O	1.717737	-0.176532	0.361139
O15	O	1.138259	-0.386638	-0.248799
O16	O	1.638259	0.113362	0.251201
O17	O	1.342451	-0.676481	-0.263497
O18	O	1.842451	-0.176481	0.236503
O19	O	1.232752	-0.386599	-0.343234
O20	O	1.732752	0.113401	0.156766
O21	O	1.129716	-0.551589	-0.132525
O22	O	1.629716	-0.051589	0.367475
O23	O	0.964872	-0.494482	-0.297469
O24	O	1.464872	0.005518	0.202531
O25	O	1.052706	-0.576104	-0.553418
O26	O	1.552706	-0.076104	-0.053418
O27	O	0.927992	-0.576155	-0.428781
O28	O	1.427992	-0.076155	0.071219
O29	O	1.184079	-0.494392	-0.516541
O30	O	1.684079	0.005608	-0.016541
O31	O	1.169064	-0.784325	-0.312168
O32	O	1.669064	-0.284325	0.187832
O33	O	1.044163	-0.741056	-0.437144
O34	O	1.544163	-0.241056	0.062856
C35	C	0.914028	-0.528934	-0.367637
C36	C	1.414028	-0.028934	0.132363
C37	C	0.814756	-0.509390	-0.381480
C38	C	1.314756	-0.009390	0.118520
C39	C	0.771464	-0.435202	-0.433963
C40	C	1.271464	0.064798	0.066037
C41	C	0.678195	-0.416832	-0.446971
C42	C	1.178195	0.083168	0.053029
C43	C	0.628207	-0.472651	-0.407502
C44	C	1.128207	0.027349	0.092498
C45	C	0.671497	-0.546844	-0.355024
C46	C	1.171497	-0.046844	0.144976
C47	C	0.764777	-0.565212	-0.342009
C48	C	1.264777	-0.065212	0.157991
C49	C	0.621520	-0.602661	-0.315548
C50	C	1.121520	-0.102661	0.184452
C51	C	0.664810	-0.676854	-0.263070
C52	C	1.164810	-0.176854	0.236930
C53	C	0.758081	-0.695219	-0.250058
C54	C	1.258081	-0.195219	0.249942
C55	C	0.808069	-0.639400	-0.289526
C56	C	1.308069	-0.139400	0.210474
C57	C	0.528240	-0.584292	-0.328563
C58	C	1.028240	-0.084292	0.171437
C59	C	0.521553	-0.714302	-0.236609
C60	C	1.021553	-0.214302	0.263391
C61	C	0.614822	-0.732673	-0.223601
C62	C	1.114822	-0.232673	0.276399
C63	C	1.100232	-0.793214	-0.381054
C64	C	1.600232	-0.293214	0.118946
C65	C	1.080705	-0.886725	-0.400631
C66	C	1.580705	-0.386725	0.099369
C67	C	1.285952	-1.240313	-0.195669
C68	C	1.785952	-0.740313	0.304331
C69	C	1.304299	-1.152455	-0.177271
C70	C	1.804299	-0.652455	0.322729
C71	C	1.248403	-1.086019	-0.233110
C72	C	1.748403	-0.586019	0.266890
C73	C	1.174155	-1.107448	-0.307349
C74	C	1.674155	-0.607448	0.192651
C75	C	1.155801	-1.195313	-0.325745
C76	C	1.655801	-0.695313	0.174255
C77	C	1.118252	-1.041020	-0.363185
C78	C	1.618252	-0.541020	0.136815
C79	C	1.044004	-1.062448	-0.437425
C80	C	1.544004	-0.562448	0.062575
C81	C	1.025654	-1.150306	-0.455818
C82	C	1.525654	-0.650306	0.044182
C83	C	1.081551	-1.216743	-0.399979
C84	C	1.581551	-0.716743	0.100021
C85	C	1.136605	-0.953154	-0.344790
C86	C	1.636605	-0.453154	0.155210
C87	C	1.006454	-0.908154	-0.474865
C88	C	1.506454	-0.408154	0.025135
C89	C	0.988107	-0.996012	-0.493263
C90	C	1.488107	-0.496012	0.006737
C91	C	1.378997	-0.620554	-0.302910
C92	C	1.878997	-0.120554	0.197090
C93	C	1.478261	-0.640114	-0.289092
C94	C	1.978261	-0.140114	0.210908
C95	C	1.113775	-0.528673	-0.568292
C96	C	1.613775	-0.028673	-0.068292
C97	C	1.100018	-0.509078	-0.667564
C98	C	1.600018	-0.009078	-0.167564
C99	C	1.192087	-0.355242	-0.289455
C100	C	1.692087	0.144758	0.210545
C101	C	1.211702	-0.261742	-0.269903
C102	C	1.711702	0.238258	0.230097
C103	C	1.244551	-0.714058	-0.960584
C104	C	1.744551	-0.214058	-0.460584
C105	C	1.257472	-0.732472	-0.867315
C106	C	1.757472	-0.232472	-0.367315
C107	C	1.218110	-0.676625	-0.817372
C108	C	1.718110	-0.176625	-0.317372
C109	C	1.165825	-0.602361	-0.860708
C110	C	1.665825	-0.102361	-0.360708
C111	C	1.152897	-0.583948	-0.953988
C112	C	1.652897	-0.083948	-0.453988
C113	C	1.126455	-0.546516	-0.810777
C114	C	1.626455	-0.046516	-0.310777
C115	C	1.074170	-0.472251	-0.854113
C116	C	1.574170	0.027749	-0.354113
C117	C	1.061246	-0.453842	-0.947383
C118	C	1.561246	0.046158	-0.447383
C119	C	1.100608	-0.509689	-0.997326
C120	C	1.600608	-0.009689	-0.497326
C121	C	1.139383	-0.564928	-0.717497
C122	C	1.639383	-0.064928	-0.217497
C123	C	1.047729	-0.434819	-0.710901
C124	C	1.547729	0.065181	-0.210901
C125	C	1.034809	-0.416404	-0.804170
C126	C	1.534809	0.083596	-0.304170
C127	C	1.178282	-0.620407	-0.103266
C128	C	1.678282	-0.120407	0.396734
C129	C	1.192262	-0.639798	-0.003921
C130	C	1.692262	-0.139798	0.496079
H131	H	0.812174	-0.389759	-0.466087
H132	H	1.312174	0.110241	0.033913
H133	H	0.965188	-1.167749	-0.516259
H134	H	1.465188	-0.667749	-0.016259
Cl135	Cl	1.084370	-0.486540	-1.114583
Cl136	Cl	1.584370	0.013460	-0.614583
H137	H	0.960937	-0.854061	-0.520333
H138	H	1.460937	-0.354061	-0.020333
Cl139	Cl	0.669256	-0.825939	-0.157629
Cl140	Cl	1.169256	-0.325939	0.342371
Cl141	Cl	0.623779	-0.323567	-0.512944
Cl142	Cl	1.123779	0.176433	-0.012944
H143	H	0.884013	-0.654362	-0.278952
H144	H	1.384013	-0.154362	0.221048
H145	H	0.793328	-0.755626	-0.207317
H146	H	1.293328	-0.255626	0.292683
H147	H	1.181960	-0.625391	-0.682220
H148	H	1.681960	-0.125391	-0.182220
Cl149	Cl	0.510952	-0.449557	-0.423859
Cl150	Cl	1.010952	0.050443	0.076141
H151	H	0.480853	-0.759755	-0.204471
H152	H	0.980853	-0.259755	0.295529
Cl153	Cl	1.229942	-0.926225	-0.251464
Cl154	Cl	1.729942	-0.426225	0.248536
H155	H	1.263345	-1.014483	-0.218125
H156	H	1.763345	-0.514483	0.281875
H157	H	1.018662	-0.393377	-0.982668
H158	H	1.518662	0.106623	-0.482668
H159	H	1.364750	-1.135011	-0.116826
H160	H	1.864750	-0.635011	0.383174
Cl161	Cl	0.969080	-0.323047	-0.858661
Cl162	Cl	1.469080	0.176953	-0.358661
H163	H	1.228631	-0.691624	-0.741429
H164	H	1.728631	-0.191624	-0.241429
Cl165	Cl	1.356211	-1.323833	-0.125480
Cl166	Cl	1.856211	-0.823833	0.374520
Cl167	Cl	0.998228	-0.364616	-0.648127
Cl168	Cl	1.498228	0.135384	-0.148127
H169	H	1.066619	-1.288286	-0.414957
H170	H	1.566619	-0.788286	0.085043
Cl171	Cl	0.894770	-1.022963	-0.586590
Cl172	Cl	1.394770	-0.522963	-0.086590
Cl173	Cl	1.323201	-0.825827	-0.812841
Cl174	Cl	1.823201	-0.325827	-0.312841
H175	H	0.493003	-0.523882	-0.371290
H176	H	0.993003	-0.023882	0.128710
Cl177	Cl	1.294017	-0.784263	-1.023375
Cl178	Cl	1.794017	-0.284263	-0.523375
