data_functionalizedCrystal
_audit_creation_method	'MofGen! by Chris Wilmer'
_symmetry_space_group_name_H-M	'P1'
_symmetry_Int_Tables_number	1
_symmetry_cell_setting	triclinic
loop_
_symmetry_equiv_pos_as_xyz
  x,y,z
_cell_length_a	19.288864
_cell_length_b	14.472310
_cell_length_c	19.288865
_cell_angle_alpha	89.993676
_cell_angle_beta	96.863755
_cell_angle_gamma	90.026857
loop_
_atom_site_label
_atom_site_type_symbol
_atom_site_fract_x
_atom_site_fract_y
_atom_site_fract_z
O1	O	0.921357	0.077148	-0.086643
O2	O	1.421357	0.577148	0.413357
O3	O	0.719097	0.077086	-0.098332
O4	O	1.219097	0.577086	0.401668
O5	O	0.826072	0.077100	0.008643
O6	O	1.326072	0.577100	0.508643
O7	O	0.814383	0.077133	-0.193618
O8	O	1.314383	0.577133	0.306382
O9	O	0.826044	-0.076582	0.008637
O10	O	1.326044	0.423418	0.508637
O11	O	0.719069	-0.076596	-0.098338
O12	O	1.219069	0.423404	0.401662
O13	O	0.921330	-0.076534	-0.086649
O14	O	1.421330	0.423466	0.413351
Cu15	Cu	0.820197	-0.090598	-0.092494
Cu16	Cu	1.320197	0.409402	0.407506
Cu17	Cu	0.820230	0.091149	-0.092487
Cu18	Cu	1.320230	0.591149	0.407513
O19	O	0.814355	-0.076549	-0.193624
O20	O	1.314355	0.423451	0.306376
C21	C	0.693207	0.000237	-0.097959
C22	C	1.193207	0.500237	0.402041
C23	C	0.616103	0.000212	-0.096830
C24	C	1.116103	0.500212	0.403170
N25	N	0.820179	-0.218428	-0.092499
N26	N	1.320179	0.281572	0.407501
C27	C	0.571407	0.000237	-0.159598
C28	C	1.071407	0.500237	0.340402
C29	C	0.498960	0.000247	-0.158537
C30	C	0.998960	0.500247	0.341463
C31	C	0.471212	0.000251	-0.094705
C32	C	0.971212	0.500251	0.405295
C33	C	0.515918	0.000221	-0.031929
C34	C	1.015918	0.500221	0.468071
C35	C	0.588364	0.000202	-0.032991
C36	C	1.088364	0.500202	0.467009
C37	C	0.362960	0.054116	-0.044523
C38	C	0.862960	0.554116	0.455477
C39	C	0.290515	0.054141	-0.043464
C40	C	0.790515	0.554141	0.456536
C41	C	0.247767	0.000306	-0.091425
C42	C	0.747767	0.500306	0.408575
C43	C	0.277470	-0.053541	-0.140458
C44	C	0.777470	0.446459	0.359542
C45	C	0.349915	-0.053560	-0.141521
C46	C	0.849915	0.446440	0.358479
C47	C	0.392658	0.000271	-0.093546
C48	C	0.892658	0.500271	0.406454
C49	C	0.124514	0.000341	-0.153047
C50	C	0.624514	0.500341	0.346953
C51	C	0.052066	0.000345	-0.151984
C52	C	0.552066	0.500345	0.348016
C53	C	0.069026	0.000328	-0.025374
C54	C	0.569026	0.500328	0.474626
C55	C	0.141473	0.000315	-0.026439
C56	C	0.641473	0.500315	0.473561
C57	C	0.169212	0.000325	-0.090278
C58	C	0.669212	0.500325	0.409722
C59	C	0.820229	-0.592520	-0.092484
C60	C	1.320229	-0.092520	0.407516
C61	C	0.762798	-0.553362	-0.149533
C62	C	1.262798	-0.053362	0.350467
C63	C	0.762929	-0.446273	-0.149740
C64	C	1.262929	0.053727	0.350260
C65	C	0.820204	-0.406929	-0.092491
C66	C	1.320204	0.093071	0.407509
C67	C	0.892628	-0.445740	-0.108094
C68	C	1.392628	0.054260	0.391906
C69	C	0.892305	-0.552862	-0.108499
C70	C	1.392305	-0.052862	0.391501
C71	C	0.805882	-0.553067	-0.019661
C72	C	1.305882	-0.053067	0.480339
C73	C	0.804218	-0.445940	-0.020152
C74	C	1.304218	0.054060	0.479848
C75	C	0.820194	-0.302040	-0.092494
C76	C	1.320194	0.197960	0.407506
C77	C	0.820243	-0.697408	-0.092483
C78	C	1.320243	-0.197408	0.407517
C79	C	0.947220	0.000317	-0.087022
C80	C	1.447220	0.500317	0.412978
C81	C	1.024324	0.000347	-0.088151
C82	C	1.524324	0.500347	0.411849
C83	C	0.825682	0.000257	0.034516
C84	C	1.325682	0.500257	0.534516
C85	C	0.824553	0.000248	0.111620
C86	C	1.324553	0.500248	0.611620
N87	N	0.820253	0.218980	-0.092476
N88	N	1.320253	0.718980	0.407524
C89	C	0.814745	0.000297	-0.219497
C90	C	1.314745	0.500297	0.280503
C91	C	0.815874	0.000312	-0.296601
C92	C	1.315874	0.500312	0.203399
C93	C	0.887321	0.000263	0.156316
C94	C	1.387321	0.500263	0.656316
C95	C	0.886260	0.000277	0.228763
C96	C	1.386260	0.500277	0.728763
C97	C	0.822428	0.000258	0.256511
C98	C	1.322428	0.500258	0.756511
C99	C	0.759652	0.000249	0.211805
C100	C	1.259652	0.500249	0.711805
C101	C	0.760714	0.000244	0.139359
C102	C	1.260714	0.500244	0.639359
C103	C	0.772239	-0.053589	0.364796
C104	C	1.272239	0.446411	0.864796
C105	C	0.771179	-0.053589	0.437241
C106	C	1.271179	0.446411	0.937241
C107	C	0.819148	0.000278	0.479956
C108	C	1.319148	0.500278	0.979956
C109	C	0.868189	0.054134	0.450221
C110	C	1.368189	0.554134	0.950221
C111	C	0.869252	0.054129	0.377775
C112	C	1.369252	0.554129	0.877775
C113	C	0.821269	0.000264	0.335065
C114	C	1.321269	0.500264	0.835065
C115	C	0.880770	0.000309	0.603209
C116	C	1.380770	0.500309	1.103209
C117	C	0.879707	0.000329	0.675657
C118	C	1.379707	0.500329	1.175657
C119	C	0.753097	0.000292	0.658697
C120	C	1.253097	0.500292	1.158697
C121	C	0.754162	0.000281	0.586250
C122	C	1.254162	0.500281	1.086250
C123	C	0.818001	0.000285	0.558511
C124	C	1.318001	0.500285	1.058511
H125	H	0.593987	0.000248	-0.211580
H126	H	1.093987	0.500248	0.288420
C127	C	0.923187	0.113367	0.345063
C128	C	1.423187	0.613367	0.845063
H129	H	0.916951	0.105641	0.295801
H130	H	1.416951	0.605641	0.795801
H131	H	0.916923	0.176547	0.356110
H132	H	1.416923	0.676547	0.856110
H133	H	0.968967	0.094445	0.363092
H134	H	1.468967	0.594445	0.863092
H135	H	0.936364	-0.578761	-0.068574
H136	H	1.436364	-0.078761	0.431426
C137	C	0.449785	0.000289	-0.227584
C138	C	0.949785	0.500289	0.272416
H139	H	0.476682	0.000300	-0.265755
H140	H	0.976682	0.500300	0.234245
H141	H	0.421138	-0.053290	-0.229811
H142	H	0.921138	0.446710	0.270189
H143	H	0.421206	0.053901	-0.229787
H144	H	0.921206	0.553901	0.270213
H145	H	0.731244	-0.097437	0.461445
H146	H	1.231244	0.402563	0.961445
C147	C	0.719472	-0.112847	0.317812
C148	C	1.219472	0.387153	0.817812
H149	H	0.727123	-0.105132	0.270407
H150	H	1.227123	0.394868	0.770407
H151	H	0.725392	-0.176024	0.330510
H152	H	1.225392	0.323976	0.830510
H153	H	0.673343	-0.093927	0.323526
H154	H	1.173343	0.406073	0.823526
C155	C	0.689438	0.000224	0.242324
C156	C	1.189438	0.500224	0.742324
H157	H	0.697795	0.000220	0.291872
H158	H	1.197795	0.500220	0.791872
H159	H	0.663611	0.053808	0.226964
H160	H	1.163611	0.553808	0.726964
H161	H	0.663594	-0.053383	0.226971
H162	H	1.163594	0.446617	0.726971
H163	H	0.709599	0.000231	0.102967
H164	H	1.209599	0.500231	0.602967
H165	H	0.937375	0.000293	0.265162
H166	H	1.437375	0.500293	0.765162
H167	H	0.397761	0.097959	-0.005466
H168	H	0.897761	0.597959	0.494534
C169	C	0.382591	-0.112791	-0.195446
C170	C	0.882591	0.387209	0.304554
H171	H	0.431858	-0.105085	-0.189210
H172	H	0.931858	0.394915	0.310790
H173	H	0.371505	-0.175970	-0.189171
H174	H	0.871505	0.324030	0.310829
H175	H	0.364575	-0.093847	-0.241230
H176	H	0.864575	0.406153	0.258770
H177	H	0.771808	-0.580258	-0.203274
H178	H	1.271808	-0.080258	0.296726
H179	H	0.177866	0.000300	0.024674
H180	H	0.677866	0.500300	0.524674
C181	C	0.910178	-0.409475	-0.179009
C182	C	1.410178	0.090525	0.320991
H183	H	0.954105	-0.433344	-0.187983
H184	H	1.454105	0.066656	0.312017
H185	H	0.875100	-0.428808	-0.214862
H186	H	1.375100	0.071192	0.285138
H187	H	0.912165	-0.343894	-0.177927
H188	H	1.412165	0.156106	0.322073
H189	H	0.754229	-0.580153	-0.004602
H190	H	1.254229	-0.080153	0.495398
H191	H	0.242665	-0.097378	-0.179513
H192	H	0.742665	0.402622	0.320487
H193	H	0.936376	-0.420250	-0.067638
H194	H	1.436376	0.079750	0.432362
H195	H	0.015674	0.000360	-0.203099
H196	H	0.515674	0.500360	0.296901
H197	H	0.046435	0.000389	0.026600
H198	H	0.546435	0.500389	0.526600
H199	H	0.147101	0.000336	-0.205028
H200	H	0.647101	0.500336	0.294972
H201	H	0.266337	0.097990	-0.003541
H202	H	0.766337	0.597990	0.496459
C203	C	0.732248	-0.411682	-0.004147
C204	C	1.232248	0.088318	0.495853
H205	H	0.712023	-0.373758	-0.041387
H206	H	1.212023	0.126242	0.458613
H207	H	0.702718	-0.463194	0.000878
H208	H	1.202718	0.036806	0.500878
H209	H	0.737606	-0.376941	0.037940
H210	H	1.237606	0.123059	0.537940
C211	C	0.862453	-0.587279	0.037692
C212	C	1.362453	-0.087279	0.537692
H213	H	0.853507	-0.563208	0.081572
H214	H	1.353507	-0.063208	0.581572
H215	H	0.861777	-0.652874	0.039272
H216	H	1.361777	-0.152874	0.539272
H217	H	0.906980	-0.566848	0.027615
H218	H	1.406980	-0.066848	0.527615
H219	H	0.907250	0.097998	0.484999
H220	H	1.407250	0.597998	0.984999
C221	C	0.485399	0.000231	0.038285
C222	C	0.985399	0.500231	0.538285
H223	H	0.435851	0.000256	0.029928
H224	H	0.935851	0.500256	0.529928
H225	H	0.500726	-0.053368	0.064121
H226	H	1.000726	0.446632	0.564121
H227	H	0.500785	0.053824	0.064120
H228	H	1.000785	0.553824	0.564120
H229	H	0.930822	0.000346	0.712049
H230	H	1.430822	0.500346	1.212049
C231	C	0.637532	0.000185	0.036057
C232	C	1.137532	0.500185	0.536057
H233	H	0.610633	0.000194	0.074226
H234	H	1.110633	0.500194	0.574226
H235	H	0.666123	-0.053410	0.038273
H236	H	1.166123	0.446590	0.538273
H237	H	0.666167	0.053781	0.038272
H238	H	1.166167	0.553781	0.538272
H239	H	0.772067	-0.420626	-0.203785
H240	H	1.272067	0.079374	0.296215
H241	H	0.709088	-0.420036	-0.140477
H242	H	1.209088	0.079964	0.359523
H243	H	0.708781	-0.579168	-0.140426
H244	H	1.208781	-0.079168	0.359574
C245	C	0.909422	-0.586588	-0.180236
C246	C	1.409422	-0.086588	0.319764
H247	H	0.916503	-0.534822	-0.208858
H248	H	1.416503	-0.034822	0.291142
H249	H	0.950609	-0.623114	-0.174255
H250	H	1.450609	-0.123114	0.325745
H251	H	0.871700	-0.622622	-0.201861
H252	H	1.371700	-0.122622	0.298139
H253	H	0.843349	-0.419161	0.024272
H254	H	1.343349	0.080839	0.524272
H255	H	0.939303	0.000269	0.133736
H256	H	1.439303	0.500269	0.633736
H257	H	0.932751	0.000317	0.580622
H258	H	1.432751	0.500317	1.080622
C259	C	0.682883	0.000274	0.689210
C260	C	1.182883	0.500274	1.189210
H261	H	0.691238	0.000275	0.738758
H262	H	1.191238	0.500275	1.238758
H263	H	0.657056	0.053857	0.673846
H264	H	1.157056	0.553857	1.173846
H265	H	0.657038	-0.053334	0.673861
H266	H	1.157038	0.446666	1.173861
C267	C	0.685116	0.000249	0.537082
C268	C	1.185116	0.500249	1.037082
H269	H	0.646947	0.000232	0.563981
H270	H	1.146947	0.500232	1.063981
H271	H	0.682906	0.053836	0.508460
H272	H	1.182906	0.553836	1.008460
H273	H	0.682893	-0.053355	0.508478
H274	H	1.182893	0.446645	1.008478
