data_functionalizedCrystal
_audit_creation_method	'MofGen! by Chris Wilmer'
_symmetry_space_group_name_H-M	'P1'
_symmetry_Int_Tables_number	1
_symmetry_cell_setting	triclinic
loop_
_symmetry_equiv_pos_as_xyz
  x,y,z
_cell_length_a	14.971486
_cell_length_b	27.732048
_cell_length_c	14.048226
_cell_angle_alpha	89.988614
_cell_angle_beta	89.998499
_cell_angle_gamma	83.128392
loop_
_atom_site_label
_atom_site_type_symbol
_atom_site_fract_x
_atom_site_fract_y
_atom_site_fract_z
O1	O	1.185952	0.062991	-0.079062
O2	O	1.685952	0.562991	0.420938
O3	O	0.925432	0.070534	-0.079089
O4	O	1.425432	0.570534	0.420911
O5	O	1.063783	-0.003597	-0.079057
O6	O	1.563783	0.496403	0.420943
O7	O	1.047601	0.137122	-0.079094
O8	O	1.547601	0.637122	0.420906
O9	O	1.063767	-0.003601	0.079265
O10	O	1.563767	0.496399	0.579265
O11	O	0.925416	0.070530	0.079232
O12	O	1.425416	0.570530	0.579232
O13	O	1.185935	0.062986	0.079259
O14	O	1.685935	0.562986	0.579259
Zn15	Zn	1.055673	0.066757	0.104383
Zn16	Zn	1.555673	0.566757	0.604383
Zn17	Zn	1.055695	0.066763	-0.104212
Zn18	Zn	1.555695	0.566763	0.395788
O19	O	1.047584	0.137117	0.079227
O20	O	1.547584	0.637117	0.579227
C21	C	0.892105	0.070195	0.000068
C22	C	1.392105	0.570195	0.500068
C23	C	0.792824	0.069184	0.000059
C24	C	1.292824	0.569184	0.500059
C25	C	0.734910	0.112734	0.000048
C26	C	1.234910	0.612734	0.500048
C27	C	0.641626	0.111781	0.000063
C28	C	1.141626	0.611781	0.500063
C29	C	0.606257	0.067278	0.000081
C30	C	1.106257	0.567278	0.500081
C31	C	0.664178	0.023724	0.000094
C32	C	1.164178	0.523724	0.500094
C33	C	0.757460	0.024678	0.000086
C34	C	1.257460	0.524678	0.500086
C35	C	0.469746	0.021740	0.000108
C36	C	0.969746	0.521740	0.500108
C37	C	0.376457	0.020787	0.000114
C38	C	0.876457	0.520787	0.500114
C39	C	0.353912	0.108844	0.000084
C40	C	0.853912	0.608844	0.500084
C41	C	0.447195	0.109797	0.000076
C42	C	0.947195	0.609797	0.500076
C43	C	0.505109	0.066243	0.000088
C44	C	1.005109	0.566243	0.500088
C45	C	1.063435	-0.021608	0.000107
C46	C	1.563435	0.478392	0.500107
C47	C	1.062412	-0.075267	0.000114
C48	C	1.562412	0.424733	0.500114
C49	C	1.137729	-0.413735	0.000073
C50	C	1.637729	0.086265	0.500073
C51	C	1.133934	-0.615412	0.000060
C52	C	1.633934	-0.115412	0.500060
O53	O	1.202806	-0.646350	0.000025
O54	O	1.702806	-0.146350	0.500025
N55	N	1.051898	-0.634914	0.000052
N56	N	1.551898	-0.134914	0.500052
C57	C	0.970804	-0.603994	0.000042
C58	C	1.470804	-0.103994	0.500042
O59	O	0.900940	-0.625209	0.000025
O60	O	1.400940	-0.125209	0.500025
C61	C	0.974601	-0.402318	0.000048
C62	C	1.474601	0.097682	0.500048
C63	C	1.056642	-0.382818	0.000066
C64	C	1.556642	0.117182	0.500066
C65	C	1.219764	-0.394235	0.000090
C66	C	1.719764	0.105765	0.500090
C67	C	1.220712	-0.343819	0.000098
C68	C	1.720712	0.156181	0.500098
C69	C	1.139625	-0.312902	0.000091
C70	C	1.639625	0.187098	0.500091
C71	C	1.057590	-0.332402	0.000074
C72	C	1.557590	0.167598	0.500074
C73	C	0.893508	-0.371398	0.000031
C74	C	1.393508	0.128602	0.500031
C75	C	0.894464	-0.320976	0.000030
C76	C	1.394464	0.179024	0.500030
C77	C	0.976506	-0.301477	0.000048
C78	C	1.476506	0.198523	0.500048
C79	C	0.977451	-0.251069	0.000075
C80	C	1.477451	0.248931	0.500075
N81	N	1.059487	-0.231567	0.000083
N82	N	1.559487	0.268433	0.500083
C83	C	1.140574	-0.262483	0.000091
C84	C	1.640574	0.237517	0.500091
C85	C	0.968817	-0.709877	0.000040
C86	C	1.468817	-0.209877	0.500040
C87	C	0.967868	-0.760296	0.000040
C88	C	1.467868	-0.260296	0.500040
C89	C	1.130998	-0.771710	0.000056
C90	C	1.630998	-0.271710	0.500056
C91	C	1.131946	-0.721291	0.000063
C92	C	1.631946	-0.221291	0.500063
C93	C	1.050854	-0.690375	0.000048
C94	C	1.550854	-0.190375	0.500048
C95	C	1.142559	-0.156605	0.000110
C96	C	1.642559	0.343395	0.500110
C97	C	1.143500	-0.106184	0.000122
C98	C	1.643500	0.393816	0.500122
C99	C	0.980370	-0.094773	0.000101
C100	C	1.480370	0.405227	0.500101
C101	C	0.979429	-0.145190	0.000093
C102	C	1.479429	0.354810	0.500093
C103	C	1.060530	-0.176105	0.000094
C104	C	1.560530	0.323895	0.500094
O105	O	0.908616	-0.220103	0.000099
O106	O	1.408616	0.279897	0.500099
O107	O	1.210428	-0.241258	0.000086
O108	O	1.710428	0.258742	0.500086
C109	C	1.136781	-0.464151	0.000065
C110	C	1.636781	0.035849	0.500065
C111	C	1.054746	-0.483651	0.000049
C112	C	1.554746	0.016349	0.500049
C113	C	0.973659	-0.452734	0.000041
C114	C	1.473659	0.047266	0.500041
C115	C	1.053797	-0.534070	0.000049
C116	C	1.553797	-0.034070	0.500049
C117	C	1.134884	-0.564986	0.000056
C118	C	1.634884	-0.064986	0.500056
C119	C	1.216921	-0.545484	0.000064
C120	C	1.716921	-0.045484	0.500064
C121	C	1.217868	-0.495067	0.000072
C122	C	1.717868	0.004933	0.500072
C123	C	0.891623	-0.472237	0.000033
C124	C	1.391623	0.027763	0.500033
C125	C	0.890682	-0.522654	0.000026
C126	C	1.390682	-0.022654	0.500026
C127	C	0.971769	-0.553570	0.000033
C128	C	1.471769	-0.053570	0.500033
C129	C	1.219263	0.063326	0.000100
C130	C	1.719263	0.563326	0.500100
C131	C	1.318544	0.064337	0.000103
C132	C	1.818544	0.564337	0.500103
C133	C	1.047932	0.155128	0.000062
C134	C	1.547932	0.655128	0.500062
C135	C	1.048955	0.208788	0.000048
C136	C	1.548955	0.708788	0.500048
N137	N	1.055665	0.066753	0.246743
N138	N	1.555665	0.566753	0.746743
N139	N	1.055710	0.066764	-0.246573
N140	N	1.555710	0.566764	0.253427
C141	C	1.116945	0.033942	0.296576
C142	C	1.616945	0.533942	0.796576
C143	C	1.116951	0.033941	0.396234
C144	C	1.616951	0.533941	0.896234
C145	C	1.055680	0.066755	0.446057
C146	C	1.555680	0.566755	0.946057
C147	C	0.994393	0.099569	0.396217
C148	C	1.494393	0.599569	0.896217
C149	C	0.994384	0.099566	0.296562
C150	C	1.494384	0.599566	0.796562
C151	C	0.994419	0.099572	0.603932
C152	C	1.494419	0.599572	1.103932
C153	C	0.994429	0.099575	0.703594
C154	C	1.494429	0.599575	1.203594
C155	C	1.116987	0.033947	0.703604
C156	C	1.616987	0.533947	1.203604
C157	C	1.116977	0.033945	0.603948
C158	C	1.616977	0.533945	1.103948
C159	C	1.055691	0.066759	0.554115
C160	C	1.555691	0.566759	1.054115
H161	H	0.804613	-0.010785	0.000094
H162	H	1.304613	0.489215	0.500094
H163	H	0.944510	0.126291	0.563361
H164	H	1.444510	0.626291	1.063361
C165	C	0.927031	0.135666	0.758403
C166	C	1.427031	0.635666	1.258403
H167	H	0.935824	0.130971	0.824891
H168	H	1.435824	0.630971	1.324891
H169	H	0.867411	0.130361	0.742088
H170	H	1.367411	0.630361	1.242088
H171	H	0.936292	0.167938	0.742054
H172	H	1.436292	0.667938	1.242054
C173	C	1.310956	-0.322373	0.000112
C174	C	1.810956	0.177627	0.500112
H175	H	1.299920	-0.287917	0.000121
H176	H	1.799920	0.212083	0.500121
H177	H	1.344318	-0.332978	-0.055094
H178	H	1.844318	0.167022	0.444906
H179	H	1.344303	-0.332991	0.055333
H180	H	1.844303	0.167009	0.555333
H181	H	1.166850	0.007223	0.436807
H182	H	1.666850	0.507223	0.936807
C183	C	0.891181	-0.060759	0.000087
C184	C	1.391181	0.439241	0.500087
H185	H	0.903503	-0.027940	0.000082
H186	H	1.403503	0.472060	0.500082
H187	H	0.857497	-0.066679	0.055287
H188	H	1.357497	0.433321	0.555287
H189	H	0.857526	-0.066669	-0.055140
H190	H	1.357526	0.433331	0.444860
H191	H	0.306753	0.144307	0.000079
H192	H	0.806753	0.644307	0.500079
C193	C	0.889186	-0.166641	0.000072
C194	C	1.389186	0.333359	0.500072
H195	H	0.841030	-0.141005	0.000062
H196	H	1.341030	0.358995	0.500062
H197	H	0.885410	-0.186084	0.055271
H198	H	1.385410	0.313916	0.555271
H199	H	0.885438	-0.186059	-0.055156
H200	H	1.385438	0.313941	0.444844
H201	H	1.284675	-0.479196	0.000086
H202	H	1.784675	0.020804	0.500086
H203	H	0.826701	-0.387265	0.000011
H204	H	1.326701	0.112735	0.500011
C205	C	1.233749	-0.084737	0.000136
C206	C	1.733749	0.415263	0.500136
H207	H	1.281903	-0.110374	0.000129
H208	H	1.781903	0.389626	0.500129
H209	H	1.237509	-0.065313	0.055348
H210	H	1.737509	0.434687	0.555348
H211	H	1.237515	-0.065300	-0.055079
H212	H	1.737515	0.434700	0.444921
C213	C	0.926979	0.135659	0.241741
C214	C	1.426979	0.635659	0.741741
H215	H	0.935742	0.130955	0.175255
H216	H	1.435742	0.630955	0.675255
H217	H	0.936241	0.167928	0.258054
H218	H	1.436241	0.667928	0.758054
H219	H	0.867360	0.130352	0.258086
H220	H	1.367360	0.630352	0.758086
C221	C	1.306114	-0.579498	0.000065
C222	C	1.806114	-0.079498	0.500065
H223	H	1.293790	-0.612317	0.000050
H224	H	1.793790	-0.112317	0.500050
H225	H	1.339787	-0.573593	0.055276
H226	H	1.839787	-0.073593	0.555276
H227	H	1.339782	-0.573575	-0.055151
H228	H	1.839782	-0.073575	0.444849
C229	C	0.800430	-0.544097	0.000004
C230	C	1.300430	-0.044097	0.500004
H231	H	0.752278	-0.518459	-0.000010
H232	H	1.252278	-0.018459	0.499990
H233	H	0.796650	-0.563537	0.055205
H234	H	1.296650	-0.063537	0.555205
H235	H	0.796679	-0.563517	-0.055222
H236	H	1.296679	-0.063517	0.444778
H237	H	0.825590	-0.447069	0.000025
H238	H	1.325590	0.052931	0.500025
C239	C	0.773808	0.161688	0.000028
C240	C	1.273808	0.661688	0.500028
H241	H	0.725953	0.187488	0.000033
H242	H	1.225953	0.687488	0.500033
H243	H	0.809726	0.163893	-0.055185
H244	H	1.309726	0.663893	0.444815
H245	H	0.809730	0.163888	0.055242
H246	H	1.309730	0.663888	0.555242
C247	C	0.577925	0.159686	0.000048
C248	C	1.077925	0.659686	0.500048
H249	H	0.612349	0.186326	0.000025
H250	H	1.112349	0.686326	0.500025
H251	H	0.541070	0.161146	0.055262
H252	H	1.041070	0.661146	0.555262
H253	H	0.541063	0.161144	-0.055166
H254	H	1.041063	0.661144	0.444834
C255	C	0.337552	-0.028165	0.000139
C256	C	0.837552	0.471835	0.500139
H257	H	0.385402	-0.053968	0.000158
H258	H	0.885402	0.446032	0.500158
H259	H	0.301630	-0.030367	-0.055068
H260	H	0.801630	0.469633	0.444932
H261	H	0.301632	-0.030364	0.055359
H262	H	0.801632	0.469636	0.555359
H263	H	1.166843	0.007223	0.256016
H264	H	1.666843	0.507223	0.756016
H265	H	0.944501	0.126285	0.436789
H266	H	1.444501	0.626285	0.936789
C267	C	1.184402	-0.002148	0.758410
C268	C	1.684402	0.497852	1.258410
H269	H	1.220899	-0.021687	0.714465
H270	H	1.720899	0.478313	1.214465
H271	H	1.152519	-0.022300	0.797302
H272	H	1.652519	0.477700	1.297302
H273	H	1.221394	0.015279	0.797271
H274	H	1.721394	0.515279	1.297271
C275	C	0.533450	-0.026167	0.000109
C276	C	1.033450	0.473833	0.500109
H277	H	0.499027	-0.052809	0.000108
H278	H	0.999027	0.447191	0.500108
H279	H	0.570318	-0.027632	0.055312
H280	H	1.070318	0.472368	0.555312
H281	H	0.570299	-0.027620	-0.055115
H282	H	1.070299	0.472380	0.444885
H283	H	1.197022	-0.796891	0.000063
H284	H	1.697022	-0.296891	0.500063
C285	C	1.231768	-0.190604	0.000119
C286	C	1.731768	0.309396	0.500119
H287	H	1.280755	-0.171764	0.000139
H288	H	1.780755	0.328236	0.500139
H289	H	1.234808	-0.210505	-0.055091
H290	H	1.734808	0.289495	0.444909
H291	H	1.234784	-0.210515	0.055336
H292	H	1.734784	0.289485	0.555336
C293	C	1.308968	-0.428236	0.000106
C294	C	1.808968	0.071764	0.500106
H295	H	1.357953	-0.409394	0.000123
H296	H	1.857953	0.090606	0.500123
H297	H	1.312011	-0.448140	-0.055100
H298	H	1.812011	0.051860	0.444900
H299	H	1.311983	-0.448143	0.055327
H300	H	1.811983	0.051857	0.555327
H301	H	1.166873	0.007228	0.563382
H302	H	1.666873	0.507228	1.063382
C303	C	1.222191	-0.699846	0.000073
C304	C	1.722191	-0.199846	0.500073
H305	H	1.270343	-0.725484	0.000073
H306	H	1.770343	-0.225484	0.500073
H307	H	1.225952	-0.680419	0.055281
H308	H	1.725952	-0.180419	0.555281
H309	H	1.225961	-0.680412	-0.055146
H310	H	1.725961	-0.180412	0.444854
H311	H	0.635373	-0.012511	0.000122
H312	H	1.135373	0.487489	0.500122
H313	H	0.475989	0.146035	0.000053
H314	H	0.975989	0.646035	0.500053
C315	C	0.877623	-0.781740	0.000029
C316	C	1.377623	-0.281740	0.500029
H317	H	0.829471	-0.756102	0.000014
H318	H	1.329471	-0.256102	0.500014
H319	H	0.873847	-0.801177	0.055235
H320	H	1.373847	-0.301177	0.555235
H321	H	0.873868	-0.801163	-0.055192
H322	H	1.373868	-0.301163	0.444808
C323	C	0.879609	-0.675875	0.000036
C324	C	1.379609	-0.175875	0.500036
H325	H	0.830623	-0.694716	0.000042
H326	H	1.330623	-0.194716	0.500042
H327	H	0.876581	-0.655962	-0.055172
H328	H	1.376581	-0.155962	0.444828
H329	H	0.876583	-0.655977	0.055255
H330	H	1.376583	-0.155977	0.555255
C331	C	0.805262	-0.286969	0.000014
C332	C	1.305262	0.213031	0.500014
H333	H	0.817571	-0.254148	0.000013
H334	H	1.317571	0.245852	0.500013
H335	H	0.771584	-0.292894	0.055216
H336	H	1.271584	0.207106	0.555216
H337	H	0.771608	-0.292882	-0.055211
H338	H	1.271608	0.207118	0.444789
