data_functionalizedCrystal
_audit_creation_method	'MofGen! by Chris Wilmer'
_symmetry_space_group_name_H-M	'P1'
_symmetry_Int_Tables_number	1
_symmetry_cell_setting	triclinic
loop_
_symmetry_equiv_pos_as_xyz
  x,y,z
_cell_length_a	17.019282
_cell_length_b	17.000383
_cell_length_c	10.868271
_cell_angle_alpha	89.995652
_cell_angle_beta	93.876905
_cell_angle_gamma	79.503712
loop_
_atom_site_label
_atom_site_type_symbol
_atom_site_fract_x
_atom_site_fract_y
_atom_site_fract_z
O1	O	1.039651	0.101355	0.007881
O2	O	0.809088	0.114299	-0.016560
O3	O	0.938685	-0.008056	-0.002817
O4	O	0.910055	0.223711	-0.005862
O5	O	0.938675	-0.008060	0.201826
O6	O	0.809079	0.114295	0.188083
O7	O	1.039642	0.101351	0.212525
Zn8	Zn	0.924359	0.107822	0.232796
Zn9	Zn	0.924371	0.107828	-0.036831
O10	O	0.910045	0.223706	0.198782
C11	C	0.779728	0.113808	0.082650
C12	C	0.692259	0.112342	0.073378
C13	C	0.651166	0.111649	0.180576
C14	C	0.568983	0.110259	0.171867
C15	C	0.527893	0.109568	0.055959
C16	C	0.568992	0.110259	-0.051247
C17	C	0.651175	0.111643	-0.042537
C18	C	0.279753	0.105383	0.024080
C19	C	0.197564	0.104001	0.015378
C20	C	0.197560	0.104000	0.238493
C21	C	0.279744	0.105389	0.247193
C22	C	0.320837	0.106075	0.139987
C23	C	0.443887	0.108150	0.047055
C24	C	0.404842	0.107488	0.148893
C25	C	0.940218	-0.037714	0.099666
C26	C	0.944790	-0.126077	0.100147
C27	C	0.974314	-0.626330	0.103272
C28	C	0.970011	-0.543302	0.102823
C29	C	0.895335	-0.492218	0.094901
C30	C	0.824956	-0.524166	0.087440
C31	C	0.829259	-0.607192	0.087897
C32	C	0.878714	-0.241052	0.093143
C33	C	0.874416	-0.158020	0.092682
C34	C	1.019472	-0.177162	0.108068
C35	C	1.023769	-0.260189	0.108517
C36	C	0.953390	-0.292130	0.101062
C37	C	0.890935	-0.407350	0.094438
C38	C	0.957790	-0.376997	0.101534
C39	C	1.069002	0.101842	0.113312
C40	C	1.156471	0.103308	0.122576
C41	C	0.908512	0.253364	0.096296
C42	C	0.903940	0.341728	0.095807
N43	N	0.924356	0.107817	0.416809
N44	N	0.924381	0.107827	-0.220844
C45	C	0.924367	0.107826	0.667817
C46	C	0.924358	0.107824	0.528138
H47	H	0.535531	0.109690	-0.145622
C48	C	0.152367	0.103240	-0.112135
N49	N	0.118324	0.102668	-0.208173
C50	C	0.450040	0.108270	0.276387
N51	N	0.484087	0.108871	0.372417
H52	H	0.684632	0.112209	-0.129829
C53	C	0.801295	-0.276176	0.084932
N54	N	0.742979	-0.302633	0.078745
C55	C	0.398679	0.107394	-0.080442
N56	N	0.364626	0.106823	-0.176472
H57	H	0.830134	-0.365748	0.087983
H58	H	1.027317	-0.517298	0.108903
H59	H	1.035123	-0.667917	0.109712
C60	C	1.039932	-0.433191	0.110247
N61	N	1.101802	-0.475524	0.116804
C62	C	0.324938	0.106145	0.374700
N63	N	0.358978	0.106715	0.470741
H64	H	1.084578	-0.301777	0.114973
H65	H	0.164094	0.103439	0.325774
C66	C	1.096884	-0.142020	0.116286
N67	N	1.155193	-0.115551	0.122484
C68	C	0.792263	-0.101829	0.083984
N69	N	0.730388	-0.059505	0.077437
H70	H	0.313202	0.105939	-0.063215
C71	C	0.742811	-0.467970	0.078722
N72	N	0.680937	-0.425645	0.072150
H73	H	0.771953	-0.633198	0.081829
H74	H	0.535531	0.109681	0.259159
C75	C	0.696358	0.112409	0.308084
N76	N	0.730394	0.112977	0.404128
