data_functionalizedCrystal
_audit_creation_method	'MofGen! by Chris Wilmer'
_symmetry_space_group_name_H-M	'P1'
_symmetry_Int_Tables_number	1
_symmetry_cell_setting	triclinic
loop_
_symmetry_equiv_pos_as_xyz
  x,y,z
_cell_length_a	11.792254
_cell_length_b	10.967926
_cell_length_c	10.065875
_cell_angle_alpha	93.120479
_cell_angle_beta	81.145539
_cell_angle_gamma	95.540404
loop_
_atom_site_label
_atom_site_type_symbol
_atom_site_fract_x
_atom_site_fract_y
_atom_site_fract_z
O1	O	-0.197975	1.614187	0.266172
O2	O	-0.201217	1.264164	0.183846
O3	O	-0.034735	1.447663	0.226999
O4	O	-0.364456	1.430689	0.223019
O5	O	-0.066614	1.412673	0.445759
O6	O	-0.233096	1.229175	0.402606
O7	O	-0.229854	1.579197	0.484932
Zn8	Zn	-0.236536	1.398631	0.478502
Zn9	Zn	-0.194534	1.444731	0.190276
O10	O	-0.396335	1.395699	0.441779
C11	C	-0.214511	1.201859	0.282686
C12	C	-0.206618	1.068337	0.251281
C13	C	-0.219612	0.990683	0.350604
C14	C	-0.211454	0.852680	0.318148
C15	C	-0.422726	1.414263	0.332652
C16	C	-0.548856	1.417462	0.333409
C17	C	-0.651287	1.420063	0.334013
C18	C	-0.779790	1.423317	0.334763
C19	C	-0.008344	1.429100	0.336123
C20	C	0.117787	1.425902	0.335357
C21	C	-0.216559	1.641504	0.386089
C22	C	-0.224451	1.775027	0.417485
N23	N	-0.265201	1.367177	0.675211
N24	N	-0.165861	1.476194	-0.006431
C25	C	-0.204500	1.433780	0.758652
C26	C	-0.226571	1.409582	0.910129
H27	H	-0.241614	0.810704	0.526555
H28	H	-0.333505	1.292237	0.715914
Cl29	Cl	-0.060643	1.592157	0.930808
H30	H	-0.189449	1.032653	0.142219
Cl31	Cl	-0.184942	0.797605	0.149752
H32	H	-0.136187	1.508712	0.717950
H33	H	-0.236771	1.026368	0.459667
H34	H	-0.294879	1.334636	0.950825
