data_functionalizedCrystal
_audit_creation_method	'MofGen! by Chris Wilmer'
_symmetry_space_group_name_H-M	'P1'
_symmetry_Int_Tables_number	1
_symmetry_cell_setting	triclinic
loop_
_symmetry_equiv_pos_as_xyz
  x,y,z
_cell_length_a	21.295420
_cell_length_b	21.295417
_cell_length_c	16.959447
_cell_angle_alpha	89.969420
_cell_angle_beta	89.981229
_cell_angle_gamma	90.027953
loop_
_atom_site_label
_atom_site_type_symbol
_atom_site_fract_x
_atom_site_fract_y
_atom_site_fract_z
Zn1	Zn	0.962322	-0.250648	-0.446915
Zn2	Zn	0.962237	-0.355918	-0.314727
Zn3	Zn	0.857056	-0.250664	-0.314749
Zn4	Zn	0.857016	-0.355880	-0.446863
O5	O	0.909658	-0.303278	-0.380813
O6	O	1.050400	-0.264622	-0.429392
O7	O	0.948265	-0.341979	-0.204119
O8	O	0.871072	-0.162572	-0.332312
O9	O	1.050338	-0.341964	-0.332275
O10	O	0.948411	-0.162561	-0.429413
O11	O	0.870990	-0.264649	-0.204135
O12	O	0.768962	-0.264612	-0.332262
O13	O	0.871004	-0.341899	-0.557481
O14	O	0.768932	-0.341914	-0.429325
O15	O	0.948372	-0.264585	-0.557519
O16	O	0.948227	-0.444003	-0.332224
O17	O	0.870922	-0.443975	-0.429304
C18	C	0.746106	-0.303261	-0.380791
C19	C	0.676138	-0.303269	-0.380800
C20	C	0.176681	-0.343603	-0.431305
C21	C	0.242424	-0.343603	-0.431297
C22	C	0.275299	-0.303292	-0.380838
C23	C	0.242426	-0.262989	-0.330370
C24	C	0.176684	-0.262994	-0.330374
N25	N	0.378539	-0.248175	-0.374894
N26	N	0.440991	-0.248172	-0.374895
C27	C	0.473373	-0.303274	-0.380821
N28	N	0.440946	-0.358381	-0.386763
N29	N	0.378488	-0.358384	-0.386766
C30	C	0.346584	-0.303282	-0.380828
C31	C	0.577524	-0.343578	-0.431274
C32	C	0.643268	-0.343580	-0.431260
C33	C	0.643268	-0.262960	-0.330337
C34	C	0.577526	-0.262964	-0.330347
C35	C	0.544658	-0.303272	-0.380819
C36	C	0.909578	-0.466829	-0.380773
C37	C	0.909601	-0.536797	-0.380783
C38	C	0.949848	-0.569601	-0.431380
C39	C	0.949870	-0.635344	-0.431399
C40	C	0.909652	-0.668280	-0.380808
C41	C	0.869397	-0.635469	-0.330207
C42	C	0.869371	-0.569727	-0.330195
N43	N	0.904898	-0.771542	-0.311632
N44	N	0.904926	-0.833993	-0.311646
C45	C	0.909725	-0.866355	-0.380843
N46	N	0.914508	-0.833905	-0.450028
N47	N	0.914483	-0.771448	-0.450013
C48	C	0.909675	-0.739565	-0.380816
C49	C	0.949999	-0.970444	-0.431466
C50	C	0.950017	-1.036187	-0.431486
C51	C	0.869547	-1.036311	-0.330288
C52	C	0.869526	-0.970569	-0.330274
C53	C	0.909755	-0.937639	-0.380862
C54	C	1.073848	-0.303295	-0.380837
C55	C	1.143816	-0.303303	-0.380847
C56	C	0.909693	-0.303236	-0.586982
C57	C	0.909708	-0.303218	-0.674838
C58	C	0.909756	-0.139087	-0.380871
C59	C	0.909797	-0.069119	-0.380895
C60	C	0.869434	-0.343464	-0.716094
C61	C	0.949993	-0.262951	-0.716136
C62	C	0.950006	-0.262931	-0.798682
C63	C	0.909732	-0.303177	-0.839938
C64	C	0.869445	-0.343443	-0.798648
C65	C	0.990288	-0.222661	-0.839979
C66	C	0.990302	-0.222638	-0.922530
C67	C	0.950030	-0.262887	-0.963787
C68	C	0.909742	-0.303156	-0.922492
C69	C	0.869468	-0.343402	-0.963747
C70	C	0.829183	-0.383674	-0.922453
C71	C	0.829173	-0.383693	-0.839905
C72	C	0.950040	-0.262869	-1.046335
C73	C	0.869479	-0.343381	-1.046301
C74	C	0.909659	-0.303274	-0.175447
C75	C	0.909766	-0.303115	-0.087591
H76	H	0.550767	-0.230145	-0.289260
H77	H	0.269196	-0.230168	-0.289285
Cl78	Cl	0.536201	-0.394254	-0.494720
H79	H	0.836597	-0.543018	-0.288992
Cl80	Cl	1.000666	-0.212231	-1.098244
H81	H	0.670026	-0.376401	-0.472347
H82	H	0.670034	-0.230139	-0.289250
Cl83	Cl	0.818793	-0.394090	-0.664185
Cl84	Cl	1.000475	-0.676591	-0.495006
Cl85	Cl	0.778551	-0.434263	-0.974328
H86	H	0.149924	-0.376428	-0.472401
H87	H	0.982603	-0.542791	-0.472573
H88	H	0.796375	-0.416480	-0.806276
Cl89	Cl	1.000598	-0.212338	-0.664271
H90	H	1.023074	-0.189892	-0.806382
H91	H	0.269188	-0.376421	-0.472389
H92	H	0.836685	-0.376157	-1.079886
H93	H	0.982754	-0.943631	-0.472660
H94	H	0.149926	-0.230175	-0.289284
H95	H	1.023106	-0.189847	-0.956144
H96	H	0.836650	-0.662290	-0.289017
H97	H	0.836796	-1.063127	-0.289100
Cl98	Cl	0.818926	-0.929328	-0.266662
Cl99	Cl	1.000610	-1.077427	-0.495110
