data_functionalizedCrystal
_audit_creation_method	'MofGen! by Chris Wilmer'
_symmetry_space_group_name_H-M	'P1'
_symmetry_Int_Tables_number	1
_symmetry_cell_setting	triclinic
loop_
_symmetry_equiv_pos_as_xyz
  x,y,z
_cell_length_a	19.077269
_cell_length_b	18.101397
_cell_length_c	19.076919
_cell_angle_alpha	92.268541
_cell_angle_beta	94.669058
_cell_angle_gamma	87.723702
loop_
_atom_site_label
_atom_site_type_symbol
_atom_site_fract_x
_atom_site_fract_y
_atom_site_fract_z
Zn1	Zn	1.061679	-0.354727	-0.355251
Zn2	Zn	1.066342	-0.473784	-0.237364
Zn3	Zn	0.948536	-0.345184	-0.242119
Zn4	Zn	0.943773	-0.473747	-0.359946
O5	O	1.005083	-0.411861	-0.298670
O6	O	1.160945	-0.374529	-0.335658
O7	O	1.054660	-0.452747	-0.139347
O8	O	0.963586	-0.242820	-0.257151
O9	O	1.164370	-0.462000	-0.249046
O10	O	1.046712	-0.249831	-0.340269
O11	O	0.968108	-0.358265	-0.142841
O12	O	0.849258	-0.358229	-0.261704
O13	O	0.955469	-0.461937	-0.457971
O14	O	0.845759	-0.452684	-0.348272
O15	O	1.042094	-0.374493	-0.454521
O16	O	1.050042	-0.577410	-0.253599
O17	O	0.959991	-0.577382	-0.343661
C18	C	0.821930	-0.404417	-0.306014
C19	C	0.743576	-0.401252	-0.309172
C20	C	1.005024	-0.604267	-0.298638
C21	C	1.005062	-0.686583	-0.298646
C22	C	0.708548	-0.445226	-0.265495
C23	C	0.634926	-0.442252	-0.268472
C24	C	0.596332	-0.395299	-0.315123
C25	C	0.631365	-0.351323	-0.358805
C26	C	0.704986	-0.354301	-0.355831
C27	C	0.375958	-0.381520	-0.328864
C28	C	0.302332	-0.378544	-0.331833
C29	C	0.305898	-0.469474	-0.241501
C30	C	0.379520	-0.472445	-0.238528
C31	C	0.414546	-0.428472	-0.282212
N32	N	0.521078	-0.392257	-0.318166
N33	N	0.489799	-0.431519	-0.279173
C34	C	1.005150	-0.985681	-0.298706
C35	C	1.061661	-0.954330	-0.241902
C36	C	1.061844	-0.868724	-0.242036
C37	C	1.005106	-0.837295	-0.298676
C38	C	1.022257	-0.872135	-0.372172
C39	C	1.022689	-0.957785	-0.371858
C40	C	0.931317	-0.950391	-0.282663
C41	C	0.931752	-0.864689	-0.280989
C42	C	1.005080	-0.753434	-0.298663
C43	C	1.005177	-1.069542	-0.298724
C44	C	1.188951	-0.419333	-0.291298
C45	C	1.267304	-0.422518	-0.288156
C46	C	0.997730	-0.419275	-0.482539
C47	C	0.994597	-0.422435	-0.560894
C48	C	1.005161	-0.218704	-0.298716
C49	C	1.005194	-0.136392	-0.298736
C50	C	1.038224	-0.378394	-0.595910
C51	C	1.035272	-0.381360	-0.669532
C52	C	0.988695	-0.428371	-0.708137
C53	C	0.945064	-0.472414	-0.673116
C54	C	0.948013	-0.469443	-0.599495
C55	C	0.975035	-0.442132	-0.928513
C56	C	0.972090	-0.445101	-1.002139
C57	C	1.062297	-0.354046	-0.998550
C58	C	1.065246	-0.351083	-0.924927
C59	C	1.021611	-0.395123	-0.889913
N60	N	0.985678	-0.431405	-0.783391
N61	N	1.024626	-0.392084	-0.814661
C62	C	1.012447	-0.404423	-0.115514
C63	C	1.015717	-0.401060	-0.037155
H64	H	0.739966	-0.483457	-0.227504
H65	H	0.606410	-0.478061	-0.232906
H66	H	0.918766	-0.841595	-0.226916
F67	F	1.091869	-0.847754	-0.390781
F68	F	0.895491	-0.522443	-0.714204
F69	F	0.971008	-0.985105	-0.428847
H70	H	0.915137	-0.969147	-0.230155
H71	H	0.982225	-0.851917	-0.415504
F72	F	1.132840	-0.985961	-0.255293
F73	F	0.876329	-0.976846	-0.336785
H74	H	0.939515	-0.478004	-0.900013
F75	F	0.742264	-0.307499	-0.402320
F76	F	0.413226	-0.334720	-0.375358
H77	H	0.599936	-0.313097	-0.396793
F78	F	0.901578	-0.516316	-0.562229
F79	F	1.093113	-0.987569	-0.390075
H80	H	1.097821	-0.318191	-1.027067
H81	H	0.887624	-0.843071	-0.319573
F82	F	1.087801	-0.328362	-0.554830
H83	H	1.070799	-0.345499	-0.698039
H84	H	1.103175	-0.312804	-0.893500
H85	H	0.934160	-0.483384	-1.033569
H86	H	0.410938	-0.510678	-0.200539
H87	H	0.270911	-0.340303	-0.369820
F88	F	0.268615	-0.516272	-0.195014
H89	H	1.051460	-0.845015	-0.187446
F90	F	1.048302	-0.977723	-0.170324
F91	F	1.133407	-0.845467	-0.255604
