data_functionalizedCrystal
_audit_creation_method	'MofGen! by Chris Wilmer'
_symmetry_space_group_name_H-M	'P1'
_symmetry_Int_Tables_number	1
_symmetry_cell_setting	triclinic
loop_
_symmetry_equiv_pos_as_xyz
  x,y,z
_cell_length_a	13.033304
_cell_length_b	12.645330
_cell_length_c	13.032268
_cell_angle_alpha	97.155998
_cell_angle_beta	89.077769
_cell_angle_gamma	97.167543
loop_
_atom_site_label
_atom_site_type_symbol
_atom_site_fract_x
_atom_site_fract_y
_atom_site_fract_z
Zn1	Zn	-1.498562	0.329843	0.781567
Zn2	Zn	-1.520353	0.482183	0.609614
Zn3	Zn	-1.348421	0.324241	0.587737
Zn4	Zn	-1.326618	0.526369	0.759654
O5	O	-1.423488	0.415659	0.684643
O6	O	-1.645365	0.333904	0.777082
O7	O	-1.515790	0.440395	0.462801
O8	O	-1.368342	0.176638	0.613464
O9	O	-1.661375	0.445827	0.650750
O10	O	-1.478650	0.180754	0.755870
O11	O	-1.389472	0.324356	0.446729
O12	O	-1.201615	0.367202	0.592217
O13	O	-1.331183	0.521136	0.906472
O14	O	-1.185597	0.515704	0.718523
O15	O	-1.457509	0.376749	0.922571
O16	O	-1.494649	0.636390	0.629502
O17	O	-1.352313	0.668854	0.739736
C18	C	-1.156291	0.445641	0.650619
C19	C	-1.041980	0.458496	0.636088
C20	C	-0.983083	0.408964	0.692213
C21	C	-0.864936	0.422249	0.677196
C22	C	-1.423497	0.139156	0.684671
C23	C	-1.423501	0.021327	0.684683
C24	C	-1.354487	-0.148906	0.594853
C25	C	-1.354087	-0.026270	0.595045
C26	C	-1.380352	-0.004204	0.789297
C27	C	-1.379893	-0.126812	0.788764
C28	C	-1.535920	-0.162076	0.670878
C29	C	-1.535592	-0.039745	0.668410
C30	C	-0.691730	0.385555	0.718794
C31	C	-0.806040	0.372710	0.733329
C32	C	-1.423505	0.691087	0.684641
C33	C	-1.423601	0.808910	0.684687
C34	C	-1.389483	0.454496	0.952879
C35	C	-1.374992	0.471046	1.067185
C36	C	-1.457420	0.376890	0.417458
C37	C	-1.472110	0.360019	0.303178
C38	C	-1.431035	0.406985	1.126112
C39	C	-1.416059	0.424089	1.244253
H40	H	-1.382682	-0.009867	0.517038
H41	H	-1.531177	0.292501	1.266169
O42	O	-0.815886	0.491447	0.598805
H43	H	-0.834247	0.574913	0.618897
H44	H	-1.272031	-0.168127	0.602733
O45	O	-0.855085	0.303504	0.811716
H46	H	-0.940184	0.303934	0.811219
H47	H	-1.004937	0.510735	0.576917
O48	O	-1.392147	-0.206100	0.491147
H49	H	-1.460523	-0.265211	0.502518
H50	H	-1.271116	0.014728	0.603082
H51	H	-1.297378	-0.143118	0.802082
O52	O	-1.442648	-0.162532	0.879476
H53	H	-1.473184	-0.092237	0.923532
O54	O	-1.337806	0.513513	1.293270
H55	H	-1.299025	0.557832	1.232133
H56	H	-1.428504	0.027511	0.857440
O57	O	-1.032135	0.339758	0.770592
H58	H	-1.117234	0.340188	0.770091
O59	O	-1.272093	0.052679	0.807635
H60	H	-1.248831	0.099166	0.742401
H61	H	-1.572564	-0.207230	0.596634
H62	H	-1.567881	-0.024681	0.591490
O63	O	-1.608892	0.001903	0.750232
H64	H	-1.566384	0.067068	0.804018
O65	O	-1.604366	-0.198129	0.757758
H66	H	-1.558675	-0.236533	0.810529
H67	H	-1.490099	0.339474	1.089097
H68	H	-1.315918	0.538548	1.104198
