data_functionalizedCrystal
_audit_creation_method	'MofGen! by Chris Wilmer'
_symmetry_space_group_name_H-M	'P1'
_symmetry_Int_Tables_number	1
_symmetry_cell_setting	triclinic
loop_
_symmetry_equiv_pos_as_xyz
  x,y,z
_cell_length_a	12.759400
_cell_length_b	12.759401
_cell_length_c	12.759393
_cell_angle_alpha	89.978823
_cell_angle_beta	90.030490
_cell_angle_gamma	89.989346
loop_
_atom_site_label
_atom_site_type_symbol
_atom_site_fract_x
_atom_site_fract_y
_atom_site_fract_z
Zn1	Zn	-0.418328	-1.606266	0.594027
Zn2	Zn	-0.594044	-1.606158	0.418347
Zn3	Zn	-0.418367	-1.430565	0.418361
Zn4	Zn	-0.593954	-1.430557	0.593983
O5	O	-0.506173	-1.518387	0.506180
O6	O	-0.441659	-1.753273	0.570735
O7	O	-0.570794	-1.582823	0.271328
O8	O	-0.271341	-1.453921	0.441688
O9	O	-0.570757	-1.753193	0.441663
O10	O	-0.271313	-1.583008	0.570749
O11	O	-0.441725	-1.453816	0.271338
O12	O	-0.441638	-1.283543	0.441646
O13	O	-0.570602	-1.453908	0.741010
O14	O	-0.570640	-1.283537	0.570675
O15	O	-0.441571	-1.583000	0.741042
O16	O	-0.741053	-1.582815	0.441621
O17	O	-0.740987	-1.453802	0.570661
C18	C	-0.506134	-1.245419	0.506158
C19	C	-0.506142	-1.128643	0.506173
C20	C	-0.439045	-1.073815	0.573483
C21	C	-0.439060	-0.964091	0.573487
C22	C	-0.573277	-0.964031	0.438867
C23	C	-0.573257	-1.073754	0.438859
C24	C	-0.361559	-1.073849	0.651208
C25	C	-0.361573	-0.964125	0.651212
C26	C	-0.779141	-1.518324	0.506158
C27	C	-0.895917	-1.518394	0.506183
C28	C	-0.950779	-1.585645	0.439067
C29	C	-1.060503	-1.585710	0.439099
C30	C	-1.060494	-1.451262	0.573368
C31	C	-0.950772	-1.451204	0.573340
C32	C	-0.950785	-1.663264	0.361545
C33	C	-1.060509	-1.663329	0.361577
C34	C	-0.232140	-1.518478	0.506225
C35	C	-0.115363	-1.518517	0.506244
C36	C	-0.506072	-1.518465	0.780213
C37	C	-0.506029	-1.518499	0.896990
C38	C	-0.506200	-0.792420	0.506195
C39	C	-0.506177	-0.909196	0.506185
C40	C	-0.506198	-1.518369	0.233212
C41	C	-0.505945	-1.518539	0.116436
C42	C	-0.438832	-1.585722	0.951870
C43	C	-0.438787	-1.585740	1.061594
C44	C	-0.573145	-1.451308	1.061548
C45	C	-0.573184	-1.451285	0.951826
H46	H	-0.383468	-0.934381	0.732547
O47	O	-0.638525	-1.126851	0.373432
C48	C	-0.771589	-1.115208	0.239846
C49	C	-0.697744	-1.054946	0.313912
H50	H	-0.819472	-1.057099	0.191689
H51	H	-0.826651	-1.166572	0.287921
H52	H	-0.723251	-1.166579	0.185042
H53	H	-0.745998	-1.003518	0.368730
H54	H	-0.642680	-1.003648	0.265772
O55	O	-0.638439	-0.910548	0.373586
C56	C	-0.697906	-0.741489	0.313886
C57	C	-0.624071	-0.801925	0.387888
H58	H	-0.686299	-0.653657	0.325407
H59	H	-0.782664	-0.762989	0.332188
H60	H	-0.679362	-0.763092	0.229212
H61	H	-0.642521	-0.780355	0.472586
H62	H	-0.539335	-0.780420	0.369495
H63	H	-0.390795	-1.107916	0.728447
H64	H	-0.384148	-1.640449	0.907226
O65	O	-0.269401	-0.923421	0.616508
C66	C	-0.183431	-0.815022	0.487977
C67	C	-0.287885	-0.861092	0.527115
H68	H	-0.198342	-0.764601	0.415711
H69	H	-0.127529	-0.881474	0.466968
H70	H	-0.147097	-0.764823	0.552338
H71	H	-0.324309	-0.911279	0.462801
H72	H	-0.343714	-0.794590	0.548155
H73	H	-0.627823	-1.396587	1.106209
H74	H	-0.906104	-1.396452	0.628001
H75	H	-1.094460	-1.740633	0.390791
O76	O	-1.096092	-1.637207	0.264528
C77	C	-1.099597	-1.507153	0.127584
C78	C	-1.059248	-1.536593	0.237503
H79	H	-1.069807	-1.425815	0.105691
H80	H	-1.188946	-1.507128	0.127567
H81	H	-1.069850	-1.566767	0.068082
H82	H	-1.088918	-1.477009	0.297066
H83	H	-0.969900	-1.536651	0.237433
O84	O	-1.113944	-1.386028	0.638498
C85	C	-1.282972	-1.326583	0.698100
C86	C	-1.222575	-1.400499	0.624270
H87	H	-1.370810	-1.338273	0.686638
H88	H	-1.261557	-1.241840	0.679571
H89	H	-1.261251	-1.344968	0.782814
H90	H	-1.244263	-1.382208	0.539531
H91	H	-1.243995	-1.485220	0.642890
O92	O	-0.373543	-1.650940	1.115067
C93	C	-0.313962	-1.710587	1.284117
C94	C	-0.387895	-1.636680	1.223692
H95	H	-0.325556	-1.699099	1.371951
H96	H	-0.229230	-1.692159	1.262626
H97	H	-0.332421	-1.795283	1.262498
H98	H	-0.369531	-1.551959	1.245279
H99	H	-0.472605	-1.655198	1.245188
O100	O	-0.264406	-1.109193	0.625306
C101	C	-0.087374	-1.063354	0.578252
C102	C	-0.197349	-1.023185	0.607554
H103	H	-0.033122	-0.993838	0.563913
H104	H	-0.092524	-1.112916	0.504104
H105	H	-0.055040	-1.113061	0.645126
H106	H	-0.229747	-0.973436	0.540748
H107	H	-0.192132	-0.973680	0.681735
O108	O	-0.915339	-1.760349	0.387680
C109	C	-0.960993	-1.937340	0.435191
C110	C	-1.001277	-1.827439	0.405630
H111	H	-1.030453	-1.991618	0.449690
H112	H	-0.911340	-1.932037	0.509307
H113	H	-0.911349	-1.969744	0.368378
H114	H	-1.050964	-1.794971	0.472374
H115	H	-1.050873	-1.832808	0.331481
H116	H	-0.627904	-1.396536	0.907141
O117	O	-0.910224	-1.628356	0.269381
C118	C	-0.802135	-1.499525	0.183482
C119	C	-0.848020	-1.538935	0.287924
H120	H	-0.751815	-1.427236	0.198441
H121	H	-0.868687	-1.478468	0.127660
H122	H	-0.751874	-1.563754	0.147027
H123	H	-0.898269	-1.474754	0.324470
H124	H	-0.781419	-1.560024	0.343674
