data_functionalizedCrystal
_audit_creation_method	'MofGen! by Chris Wilmer'
_symmetry_space_group_name_H-M	'P1'
_symmetry_Int_Tables_number	1
_symmetry_cell_setting	triclinic
loop_
_symmetry_equiv_pos_as_xyz
  x,y,z
_cell_length_a	10.540539
_cell_length_b	10.540539
_cell_length_c	9.616153
_cell_angle_alpha	89.999906
_cell_angle_beta	89.995174
_cell_angle_gamma	84.525492
loop_
_atom_site_label
_atom_site_type_symbol
_atom_site_fract_x
_atom_site_fract_y
_atom_site_fract_z
O1	O	1.685892	0.178895	-0.115573
O2	O	1.316479	0.195751	-0.115589
O3	O	1.509614	0.002617	-0.115579
O4	O	1.492758	0.372030	-0.115583
O5	O	1.509587	0.002621	0.115712
O6	O	1.316452	0.195755	0.115702
O7	O	1.685865	0.178899	0.115718
Zn8	Zn	1.501155	0.187328	0.152433
Zn9	Zn	1.501190	0.187323	-0.152304
O10	O	1.492731	0.372034	0.115708
C11	C	1.269163	0.194489	0.000054
C12	C	1.128215	0.190707	0.000048
C13	C	0.944788	0.045790	0.000589
C14	C	1.091406	0.049624	0.000054
C15	C	1.066557	0.258600	-0.132027
C16	C	0.920013	0.253785	-0.132123
C17	C	0.919494	0.256660	0.130899
C18	C	1.066476	0.257959	0.132630
C19	C	1.508336	-0.044684	0.000064
C20	C	1.504554	-0.185632	0.000056
C21	C	1.359637	-0.369059	-0.000469
C22	C	1.363471	-0.222441	0.000052
C23	C	1.572435	-0.247288	0.132138
C24	C	1.567620	-0.393832	0.132249
C25	C	1.570519	-0.394355	-0.130772
C26	C	1.571819	-0.247373	-0.132518
C27	C	1.733182	0.180161	0.000072
C28	C	1.874130	0.183943	0.000069
C29	C	1.494008	0.419335	0.000062
C30	C	1.497790	0.560283	0.000060
N31	N	1.501140	0.187331	0.360407
N32	N	1.501215	0.187310	-0.360278
C33	C	1.397510	0.290298	0.580772
C34	C	1.397739	0.290684	0.419604
C35	C	1.633864	0.217464	0.418862
C36	C	1.633299	0.218193	0.580080
C37	C	1.473368	0.053892	0.580319
C38	C	1.470321	0.054757	0.419092
H39	H	0.872044	0.355250	-0.138119
H40	H	1.676042	-0.224933	0.137054
O41	O	1.420908	0.420674	0.634411
H42	H	1.347181	0.492651	0.592182
H43	H	1.298585	0.272445	0.619578
O44	O	1.510054	-0.436135	-0.263388
H45	H	1.427480	-0.489704	-0.237522
O46	O	1.421455	0.421793	0.368480
H47	H	1.432818	0.485165	0.458908
O48	O	1.573454	-0.047665	0.630917
H49	H	1.553121	-0.141570	0.588567
H50	H	1.299122	0.272553	0.380085
H51	H	0.891814	0.203603	-0.230849
H52	H	1.310058	-0.179839	-0.094630
O53	O	1.563763	-0.051633	0.365748
H54	H	1.558922	-0.054763	0.250511
O55	O	1.665558	0.347123	0.629889
H56	H	1.681406	0.408367	0.538827
O57	O	1.096169	0.395839	-0.138564
H58	H	1.155292	0.417161	-0.047532
H59	H	1.517430	-0.422030	0.230979
H60	H	1.712941	0.146204	0.619073
O61	O	1.708077	-0.215307	-0.143088
H62	H	1.730085	-0.154600	-0.053609
O63	O	1.285826	-0.406961	-0.125928
H64	H	1.256841	-0.321128	-0.189425
O65	O	1.347854	0.015929	0.634233
H66	H	1.364471	-0.074823	0.692896
O67	O	1.509960	-0.190866	0.262341
H68	H	1.430574	-0.118932	0.233315
O69	O	1.738594	0.120826	0.368075
H70	H	1.697059	0.050130	0.300463
H71	H	1.304122	-0.399265	0.093714
H72	H	1.669084	-0.441801	0.138246
O73	O	1.506134	-0.193154	-0.261962
H74	H	1.425917	-0.122520	-0.232018
H75	H	1.658761	0.313702	0.378472
O76	O	1.705508	-0.456895	-0.131953
H77	H	1.721628	-0.514161	-0.228298
O78	O	1.340981	0.024496	0.368514
H79	H	1.298815	0.103533	0.301846
H80	H	1.109157	0.211434	-0.230318
O81	O	0.877720	0.196167	0.263510
H82	H	0.772170	0.199440	0.265418
O83	O	1.147853	-0.021121	0.125469
H84	H	1.070434	-0.058394	0.187045
O85	O	1.146729	-0.021636	-0.125573
H86	H	1.197012	0.043953	-0.191610
H87	H	0.914592	-0.009712	-0.093600
O88	O	0.906912	-0.028047	0.126051
H89	H	0.837313	0.032924	0.189376
H90	H	1.090701	0.360819	0.140603
H91	H	0.872267	0.358563	0.131790
O92	O	1.120712	0.192274	0.262068
H93	H	1.191350	0.112065	0.232114
H94	H	1.309662	-0.180683	0.094886
