data_functionalizedCrystal
_audit_creation_method	'MofGen! by Chris Wilmer'
_symmetry_space_group_name_H-M	'P1'
_symmetry_Int_Tables_number	1
_symmetry_cell_setting	triclinic
loop_
_symmetry_equiv_pos_as_xyz
  x,y,z
_cell_length_a	16.109302
_cell_length_b	8.559649
_cell_length_c	14.586319
_cell_angle_alpha	89.989015
_cell_angle_beta	89.989806
_cell_angle_gamma	76.620223
loop_
_atom_site_label
_atom_site_type_symbol
_atom_site_fract_x
_atom_site_fract_y
_atom_site_fract_z
O1	O	1.090048	0.205414	-0.076277
O2	O	1.590048	0.705414	0.423723
O3	O	0.846358	0.230973	-0.076269
O4	O	1.346358	0.730973	0.423731
O5	O	0.989672	-0.014420	-0.076272
O6	O	1.489672	0.485580	0.423728
O7	O	0.946734	0.450806	-0.076273
O8	O	1.446734	0.950806	0.423727
O9	O	0.989657	-0.014461	0.076208
O10	O	1.489657	0.485539	0.576208
O11	O	0.846343	0.230931	0.076212
O12	O	1.346343	0.730931	0.576212
O13	O	1.090033	0.205372	0.076204
O14	O	1.590033	0.705372	0.576204
Cu15	Cu	0.968186	0.218148	0.090131
Cu16	Cu	1.468186	0.718148	0.590131
Cu17	Cu	0.968205	0.218197	-0.090195
Cu18	Cu	1.468205	0.718197	0.409805
O19	O	0.946718	0.450765	0.076208
O20	O	1.446718	0.950765	0.576208
C21	C	0.815441	0.229917	-0.000027
C22	C	1.315441	0.729917	0.499973
C23	C	0.723344	0.226812	-0.000025
C24	C	1.223344	0.726812	0.499975
C25	C	0.511452	0.219611	0.083084
C26	C	1.011452	0.719611	0.583084
C27	C	0.424919	0.216676	0.083080
C28	C	0.924919	0.716676	0.583080
C29	C	0.424946	0.216730	-0.083163
C30	C	0.924946	0.716730	0.416837
C31	C	0.511479	0.219652	-0.083158
C32	C	1.011479	0.719652	0.416842
C33	C	0.554728	0.221101	-0.000033
C34	C	1.054728	0.721101	0.499967
C35	C	0.381662	0.215244	-0.000040
C36	C	0.881662	0.715244	0.499960
C37	C	0.287839	0.212063	-0.000044
C38	C	0.787839	0.712063	0.499956
C39	C	0.648558	0.224280	-0.000028
C40	C	1.148558	0.724280	0.499972
C41	C	0.992919	-0.073972	-0.000034
C42	C	1.492919	0.426028	0.499966
C43	C	1.002605	-0.251357	-0.000039
C44	C	1.502605	0.248643	0.499961
C45	C	1.120949	0.206428	-0.000039
C46	C	1.620949	0.706428	0.499961
C47	C	1.213047	0.209533	-0.000048
C48	C	1.713047	0.709533	0.499952
C49	C	0.943472	0.510317	-0.000033
C50	C	1.443472	1.010317	0.499967
C51	C	0.933786	0.687702	-0.000033
C52	C	1.433786	1.187702	0.499967
N53	N	0.968180	0.218113	0.216963
N54	N	1.468180	0.718113	0.716963
N55	N	0.968219	0.218220	-0.217027
N56	N	1.468219	0.718220	0.282973
C57	C	0.923969	0.121238	0.547993
C58	C	1.423969	0.621238	1.047993
C59	C	0.923964	0.121216	0.452012
C60	C	1.423964	0.621216	0.952012
C61	C	1.012435	0.315098	0.451949
C62	C	1.512435	0.815098	0.951949
C63	C	1.012444	0.315111	0.547928
C64	C	1.512444	0.815111	1.047928
C65	C	0.968207	0.218183	0.595948
C66	C	1.468207	0.718183	1.095948
C67	C	0.968192	0.218149	0.403987
C68	C	1.468192	0.718149	0.903987
C69	C	0.968186	0.218126	0.299920
C70	C	1.468186	0.718126	0.799920
C71	C	0.968213	0.218204	0.700022
C72	C	1.468213	0.718204	1.200022
H73	H	0.389687	0.215463	0.150762
H74	H	0.889687	0.715463	0.650762
H75	H	0.887948	0.042313	0.587088
H76	H	1.387948	0.542313	1.087088
N77	N	0.845923	-0.201660	-0.000043
N78	N	1.345923	0.298340	0.499957
H79	H	0.801375	-0.267524	-0.000039
H80	H	1.301375	0.232476	0.499961
H81	H	0.838833	-0.131688	0.056481
H82	H	1.338833	0.368312	0.556481
H83	H	0.887942	0.042272	0.412972
H84	H	1.387942	0.542272	0.912972
H85	H	0.389721	0.215552	-0.150841
H86	H	0.889721	0.715552	0.349159
H87	H	1.048450	0.394015	0.412839
H88	H	1.548450	0.894015	0.912839
H89	H	1.068938	-0.334897	-0.000034
H90	H	1.568938	0.165103	0.499966
H91	H	1.048472	0.394056	0.586974
H92	H	1.548472	0.894056	1.086974
H93	H	0.546716	0.220862	-0.150846
H94	H	1.046716	0.720862	0.349154
N95	N	0.558102	0.221172	0.172736
N96	N	1.058102	0.721172	0.672736
H97	H	0.517553	0.219781	0.225388
H98	H	1.017553	0.719781	0.725388
H99	H	0.607068	0.123388	0.176357
H100	H	1.107068	0.623388	0.676357
