data_functionalizedCrystal
_audit_creation_method	'MofGen! by Chris Wilmer'
_symmetry_space_group_name_H-M	'P1'
_symmetry_Int_Tables_number	1
_symmetry_cell_setting	triclinic
loop_
_symmetry_equiv_pos_as_xyz
  x,y,z
_cell_length_a	12.594517
_cell_length_b	14.908520
_cell_length_c	14.908308
_cell_angle_alpha	83.639235
_cell_angle_beta	93.277708
_cell_angle_gamma	86.679463
loop_
_atom_site_label
_atom_site_type_symbol
_atom_site_fract_x
_atom_site_fract_y
_atom_site_fract_z
Zn1	Zn	1.564384	0.389881	-0.532581
Zn2	Zn	2.064384	0.889881	-0.032581
Zn3	Zn	1.564263	0.532526	-0.389952
Zn4	Zn	2.064263	1.032526	0.110048
Zn5	Zn	1.397293	0.381183	-0.381238
Zn6	Zn	1.897293	0.881183	0.118762
Zn7	Zn	1.375457	0.541199	-0.541259
Zn8	Zn	1.875457	1.041199	-0.041259
O9	O	1.475349	0.461197	-0.461257
O10	O	1.975349	0.961197	0.038743
O11	O	1.713311	0.408814	-0.513676
O12	O	2.213311	0.908814	-0.013676
O13	O	1.551202	0.505181	-0.262135
O14	O	2.051202	1.005181	0.237865
O15	O	1.428647	0.255672	-0.394035
O16	O	1.928647	0.755672	0.105965
O17	O	1.713223	0.513615	-0.408887
O18	O	2.213223	1.013615	0.091113
O19	O	1.551408	0.262063	-0.505227
O20	O	2.051408	0.762063	-0.005227
O21	O	1.428530	0.393989	-0.255733
O22	O	1.928530	0.893989	0.244267
O23	O	1.245452	0.402398	-0.402450
O24	O	1.745452	0.902398	0.097550
O25	O	1.391430	0.528396	-0.666768
O26	O	1.891430	1.028396	-0.166768
O27	O	1.229409	0.519961	-0.520017
O28	O	1.729409	1.019961	-0.020017
O29	O	1.530234	0.417223	-0.660393
O30	O	2.030234	0.917223	-0.160393
O31	O	1.530028	0.660341	-0.417301
O32	O	2.030028	1.160341	0.082699
O33	O	1.391313	0.666713	-0.528466
O34	O	1.891313	1.166713	-0.028466
C35	C	1.458315	0.696371	-0.474791
C36	C	1.958315	1.196371	0.025209
C37	C	1.451123	0.796981	-0.480611
C38	C	1.951123	1.296981	0.019389
C39	C	1.198811	0.461178	-0.461230
C40	C	1.698811	0.961178	0.038770
C41	C	1.080504	0.461192	-0.461241
C42	C	1.580504	0.961192	0.038759
C43	C	1.458410	0.474747	-0.697340
C44	C	1.958410	0.974747	-0.197340
C45	C	1.451191	0.480521	-0.797945
C46	C	1.951191	0.980521	-0.297945
C47	C	1.019943	0.397174	-0.397406
C48	C	1.519943	0.897174	0.102594
C49	C	0.944781	0.478454	-0.379900
C50	C	1.444781	0.978454	0.120100
C51	C	0.944863	0.379953	-0.478764
C52	C	1.444863	0.879953	0.021236
C53	C	1.006900	0.542514	-0.443694
C54	C	1.506900	1.042514	0.056306
C55	C	1.006990	0.443959	-0.542593
C56	C	1.506990	0.943959	-0.042593
C57	C	0.931853	0.525298	-0.525122
C58	C	1.431853	1.025298	-0.025122
C59	C	1.752966	0.461218	-0.461286
C60	C	2.252966	0.961218	0.038714
C61	C	1.871270	0.461226	-0.461298
C62	C	2.371270	0.961226	0.038702
C63	C	1.492477	0.225106	-0.447691
C64	C	1.992477	0.725106	0.052309
C65	C	1.499775	0.124498	-0.441910
C66	C	1.999775	0.624498	0.058090
C67	C	1.582186	0.979348	-0.375884
C68	C	2.082186	1.479348	0.124116
C69	C	1.575433	1.073880	-0.381350
C70	C	2.075433	1.573880	0.118650
C71	C	1.430869	1.080579	-0.497011
C72	C	1.930869	1.580579	0.002989
C73	C	1.437622	0.986047	-0.491545
C74	C	1.937622	1.486047	0.008455
C75	C	1.513283	0.935435	-0.430979
C76	C	2.013283	1.435435	0.069021
C77	C	1.520030	0.840901	-0.425510
C78	C	2.020030	1.340901	0.074490
C79	C	1.375472	0.847602	-0.541175
C80	C	1.875472	1.347602	-0.041175
C81	C	1.368718	0.942134	-0.546640
C82	C	1.868718	1.442134	-0.046640
C83	C	1.582162	0.375587	-0.980354
C84	C	2.082162	0.875587	-0.480354
C85	C	1.575383	0.381009	-1.074880
C86	C	2.075383	0.881009	-0.574880
C87	C	1.430851	0.496783	-1.081527
C88	C	1.930851	0.996783	-0.581527
C89	C	1.437629	0.491360	-0.987000
C90	C	1.937629	0.991360	-0.487000
C91	C	1.513289	0.430761	-0.936417
C92	C	2.013289	0.930761	-0.436417
C93	C	1.520072	0.425344	-0.841888
C94	C	2.020072	0.925344	-0.341888
C95	C	1.375535	0.541113	-0.848536
C96	C	1.875535	1.041113	-0.348536
C97	C	1.368756	0.546535	-0.943063
C98	C	1.868756	1.046535	-0.443063
C99	C	1.492288	0.447635	-0.226089
C100	C	1.992288	0.947635	0.273911
C101	C	1.499731	0.441606	-0.125470
C102	C	1.999731	0.941606	0.374530
H103	H	1.058336	0.343082	-0.343364
H104	H	1.558336	0.843082	0.156636
C105	C	1.651152	0.320315	-1.123207
C106	C	2.151152	0.820315	-0.623207
N107	N	1.708225	0.274597	-1.159607
N108	N	2.208225	0.774597	-0.659607
H109	H	1.307121	0.983355	-0.595954
H110	H	1.807121	1.483355	-0.095954
C111	C	1.347608	0.563413	-1.137183
C112	C	1.847608	1.063413	-0.637183
N113	N	1.284901	0.613594	-1.179104
N114	N	1.784901	1.113594	-0.679104
C115	C	1.665391	0.308932	-0.924710
C116	C	2.165391	0.808932	-0.424710
N117	N	1.728080	0.258726	-0.882800
N118	N	2.228080	0.758726	-0.382800
H119	H	0.917417	0.311243	-0.493532
H120	H	1.417417	0.811243	0.006468
H121	H	1.034166	0.611247	-0.428819
H122	H	1.534166	1.111247	0.071181
C123	C	1.347647	1.136268	-0.563627
C124	C	1.847647	1.636268	-0.063627
N125	N	1.284961	1.178215	-0.613800
N126	N	1.784961	1.678215	-0.113800
H127	H	1.319363	0.811837	-0.586034
H128	H	1.819363	1.311837	-0.086034
C129	C	1.285528	0.613184	-0.998715
C130	C	1.785528	1.113184	-0.498715
N131	N	1.222839	0.663385	-1.040631
N132	N	1.722839	1.163385	-0.540631
H133	H	0.893649	0.579510	-0.579132
H134	H	1.393649	1.079510	-0.079132
C135	C	1.651229	1.122181	-0.320737
C136	C	2.151229	1.622181	0.179263
N137	N	1.708321	1.158561	-0.275081
N138	N	2.208321	1.658561	0.224919
C139	C	0.907663	0.498172	-0.286993
C140	C	1.407663	0.998172	0.213007
N141	N	0.879707	0.513015	-0.217013
N142	N	1.379707	1.013015	0.282987
H143	H	1.319456	0.586043	-0.812753
H144	H	1.819456	1.086043	-0.312753
C145	C	1.044150	0.424198	-0.635469
C146	C	1.544150	0.924198	-0.135469
N147	N	1.072144	0.409303	-0.705422
N148	N	1.572144	0.909303	-0.205422
C149	C	1.603258	0.785228	-0.358886
C150	C	2.103258	1.285228	0.141114
N151	N	1.665949	0.743299	-0.308705
N152	N	2.165949	1.243299	0.191295
C153	C	1.603295	0.358682	-0.786248
C154	C	2.103295	0.858682	-0.286248
N155	N	1.665977	0.308466	-0.744342
N156	N	2.165977	0.808466	-0.244342
H157	H	1.643785	0.938138	-0.326562
H158	H	2.143785	1.438138	0.173438
