data_functionalizedCrystal
_audit_creation_method	'MofGen! by Chris Wilmer'
_symmetry_space_group_name_H-M	'P1'
_symmetry_Int_Tables_number	1
_symmetry_cell_setting	triclinic
loop_
_symmetry_equiv_pos_as_xyz
  x,y,z
_cell_length_a	18.050591
_cell_length_b	19.805405
_cell_length_c	19.805380
_cell_angle_alpha	90.106198
_cell_angle_beta	89.924412
_cell_angle_gamma	89.976267
loop_
_atom_site_label
_atom_site_type_symbol
_atom_site_fract_x
_atom_site_fract_y
_atom_site_fract_z
Zn1	Zn	1.135696	0.269025	-0.382813
Zn2	Zn	1.469029	0.602358	-0.049479
Zn3	Zn	1.802363	0.935692	0.283854
Zn4	Zn	1.135489	0.382369	-0.269624
Zn5	Zn	1.468823	0.715702	0.063709
Zn6	Zn	1.802156	1.049035	0.397042
Zn7	Zn	1.011397	0.269191	-0.269627
Zn8	Zn	1.344730	0.602525	0.063706
Zn9	Zn	1.678063	0.935858	0.397040
Zn10	Zn	1.011464	0.382169	-0.382761
Zn11	Zn	1.344798	0.715503	-0.049428
Zn12	Zn	1.678131	1.048836	0.283905
O13	O	1.073512	0.325689	-0.326206
O14	O	1.406845	0.659022	0.007127
O15	O	1.740178	0.992355	0.340460
O16	O	1.239593	0.284074	-0.367818
O17	O	1.572927	0.617407	-0.034485
O18	O	1.906260	0.950741	0.298848
O19	O	1.118913	0.367509	-0.174908
O20	O	1.452247	0.700842	0.158426
O21	O	1.785580	1.034175	0.491759
O22	O	1.027944	0.174453	-0.284664
O23	O	1.361277	0.507786	0.048669
O24	O	1.694610	0.841119	0.382003
O25	O	1.239441	0.367347	-0.284659
O26	O	1.572775	0.700681	0.048674
O27	O	1.906108	1.034014	0.382007
O28	O	1.119266	0.174330	-0.367821
O29	O	1.452599	0.507664	-0.034488
O30	O	1.785932	0.840997	0.298846
O31	O	1.027743	0.284358	-0.174910
O32	O	1.361076	0.617691	0.158424
O33	O	1.694410	0.951024	0.491757
O34	O	0.907481	0.284164	-0.284614
O35	O	1.240814	0.617498	0.048719
O36	O	1.574148	0.950831	0.382052
O37	O	1.028059	0.367008	-0.477485
O38	O	1.361392	0.700341	-0.144152
O39	O	1.694725	1.033674	0.189181
O40	O	0.907531	0.367169	-0.367734
O41	O	1.240864	0.700502	-0.034400
O42	O	1.574197	1.033836	0.298933
O43	O	1.119331	0.283881	-0.477523
O44	O	1.452665	0.617214	-0.144190
O45	O	1.785998	0.950547	0.189144
O46	O	1.118979	0.477059	-0.284610
O47	O	1.452312	0.810392	0.048724
O48	O	1.785645	1.143726	0.382057
O49	O	1.027858	0.476913	-0.367731
O50	O	1.361192	0.810246	-0.034398
O51	O	1.694525	1.143579	0.298936
C52	C	1.073424	0.501545	-0.326179
C53	C	1.406757	0.834878	0.007154
C54	C	1.740090	1.168211	0.340487
C55	C	1.073454	0.576777	-0.326190
C56	C	1.406787	0.910110	0.007143
C57	C	1.740121	1.243443	0.340476
C58	C	0.880559	0.325663	-0.326169
C59	C	1.213893	0.658997	0.007164
C60	C	1.547226	0.992330	0.340498
C61	C	0.798014	0.325669	-0.326169
C62	C	1.131347	0.659002	0.007164
C63	C	1.464680	0.992336	0.340498
C64	C	1.120946	0.612175	-0.282955
C65	C	1.454279	0.945508	0.050378
C66	C	1.787612	1.278841	0.383711
C67	C	1.120975	0.682863	-0.282973
C68	C	1.454309	1.016196	0.050361
C69	C	1.787642	1.349530	0.383694
C70	C	1.073509	0.718152	-0.326222
C71	C	1.406842	1.051486	0.007112
C72	C	1.740176	1.384819	0.340445
C73	C	1.026015	0.682749	-0.369461
C74	C	1.359349	1.016083	-0.036128
C75	C	1.692682	1.349416	0.297205
C76	C	1.025990	0.612062	-0.369447
C77	C	1.359323	0.945396	-0.036114
C78	C	1.692656	1.278729	0.297220
C79	C	1.026118	0.967823	-0.369521
C80	C	1.359451	1.301156	-0.036187
C81	C	1.692784	1.634489	0.297146
C82	C	1.026145	1.038515	-0.369530
C83	C	1.359479	1.371848	-0.036197
C84	C	1.692812	1.705181	0.297137
C85	C	1.121103	1.038623	-0.283046
C86	C	1.454437	1.371957	0.050287
C87	C	1.787770	1.705290	0.383621
C88	C	1.121078	0.967936	-0.283032
C89	C	1.454411	1.301269	0.050302
C90	C	1.787744	1.634603	0.383635
C91	C	1.073587	0.932539	-0.326274
C92	C	1.406920	1.265873	0.007060
C93	C	1.740254	1.599206	0.340393
C94	C	1.073556	0.855891	-0.326255
C95	C	1.406890	1.189224	0.007078
C96	C	1.740223	1.522558	0.340411
C97	C	1.073536	0.794799	-0.326237
C98	C	1.406869	1.128133	0.007096
C99	C	1.740202	1.461466	0.340430
C100	C	0.598515	0.280478	-0.281073
C101	C	0.931848	0.613812	0.052261
C102	C	1.265181	0.947145	0.385594
C103	C	0.549078	0.342237	-0.264415
C104	C	0.882411	0.675570	0.068918
C105	C	1.215745	1.008904	0.402252
C106	C	0.646883	0.325689	-0.326200
C107	C	0.980217	0.659023	0.007134
C108	C	1.313550	0.992356	0.340467
C109	C	0.549238	0.263953	-0.342856
C110	C	0.882572	0.597286	-0.009522
C111	C	1.215905	0.930619	0.323811
C112	C	0.500898	0.325704	-0.326228
C113	C	0.834232	0.659037	0.007105
C114	C	1.167565	0.992370	0.340439
C115	C	0.598534	0.387480	-0.309510
C116	C	0.931867	0.720814	0.023824
C117	C	1.265201	1.054147	0.357157
C118	C	0.598698	0.309154	-0.387979
C119	C	0.932032	0.642488	-0.054646
C120	C	1.265365	0.975821	0.278688
C121	C	0.549284	0.370955	-0.371345
C122	C	0.882618	0.704289	-0.038011
C123	C	1.215951	1.037622	0.295322
C124	C	0.730982	0.325680	-0.326182
C125	C	1.064315	0.659014	0.007152
C126	C	1.397648	0.992347	0.340485
C127	C	0.416802	0.325720	-0.326246
C128	C	0.750135	0.659053	0.007087
C129	C	1.083468	0.992387	0.340421
C130	C	1.267217	0.325714	-0.326244
C131	C	1.600551	0.659048	0.007089
C132	C	1.933884	0.992381	0.340422
C133	C	1.349763	0.325725	-0.326261
C134	C	1.683096	0.659059	0.007073
C135	C	2.016430	0.992392	0.340406
C136	C	1.073726	0.325403	-0.502750
C137	C	1.407059	0.658737	-0.169416
C138	C	1.740392	0.992070	0.163917
C139	C	1.073817	0.325282	-0.577982
C140	C	1.407150	0.658615	-0.244649
C141	C	1.740483	0.991949	0.088685
C142	C	1.073614	1.149146	-0.326256
C143	C	1.406947	1.482479	0.007077
C144	C	1.740281	1.815812	0.340410
C145	C	1.073641	1.073914	-0.326298
C146	C	1.406975	1.407247	0.007035
C147	C	1.740308	1.740580	0.340369
C148	C	1.073341	0.325924	-0.150350
C149	C	1.406674	0.659257	0.182983
C150	C	1.740008	0.992591	0.516317
C151	C	1.073394	0.325855	-0.075118
C152	C	1.406727	0.659188	0.258215
C153	C	1.740061	0.992521	0.591549
C154	C	1.025977	0.282345	0.386639
C155	C	1.359311	0.615678	0.719972
C156	C	1.692644	0.949011	1.053306
C157	C	1.025914	0.282428	0.315951
C158	C	1.359248	0.615761	0.649284
C159	C	1.692581	0.949095	0.982617
C160	C	1.073695	0.325446	0.280643
C161	C	1.407028	0.658779	0.613976
C162	C	1.740361	0.992112	0.947309
C163	C	1.121536	0.368388	0.316027
C164	C	1.454869	0.701721	0.649360
C165	C	1.788203	1.035054	0.982693
C166	C	1.121595	0.368307	0.386714
C167	C	1.454928	0.701641	0.720047
C168	C	1.788262	1.034974	1.053380
C169	C	1.121299	0.368713	0.030954
C170	C	1.454632	0.702047	0.364287
C171	C	1.787965	1.035380	0.697621
C172	C	1.121237	0.368789	-0.039738
C173	C	1.454571	0.702122	0.293596
C174	C	1.787904	1.035456	0.626929
C175	C	1.025618	0.282834	-0.039809
C176	C	1.358951	0.616168	0.293525
C177	C	1.692284	0.949501	0.626858
C178	C	1.025677	0.282754	0.030878
C179	C	1.359010	0.616087	0.364212
C180	C	1.692343	0.949420	0.697545
C181	C	1.073515	0.325698	0.066256
C182	C	1.406848	0.659031	0.399589
C183	C	1.740182	0.992365	0.732923
C184	C	1.073582	0.325608	0.142904
C185	C	1.406915	0.658941	0.476238
C186	C	1.740249	0.992275	0.809571
C187	C	1.073632	0.325533	0.203996
C188	C	1.406965	0.658866	0.537329
C189	C	1.740299	0.992199	0.870662
H190	H	1.159595	0.583447	-0.247734
H191	H	1.492928	0.916780	0.085599
H192	H	1.826262	1.250113	0.418933
C193	C	0.627725	0.228885	-0.229463
C194	C	0.961058	0.562218	0.103871
C195	C	1.294392	0.895551	0.437204
N196	N	0.649728	0.190028	-0.190588
N197	N	0.983061	0.523361	0.142745
N198	N	1.316394	0.856695	0.476078
C199	C	0.628171	0.290218	-0.458521
C200	C	0.961504	0.623551	-0.125187
C201	C	1.294838	0.956884	0.208146
N202	N	0.650373	0.275946	-0.511652
N203	N	0.983707	0.609279	-0.178319
N204	N	1.317040	0.942613	0.155014
H205	H	0.987371	0.711487	-0.404678
H206	H	1.320704	1.044821	-0.071345
H207	H	1.654037	1.378154	0.261988
H208	H	1.159647	0.711681	-0.247766
H209	H	1.492981	1.045014	0.085567
H210	H	1.826314	1.378347	0.418901
H211	H	1.159727	0.939206	-0.247812
H212	H	1.493060	1.272539	0.085521
H213	H	1.826393	1.605872	0.418855
C214	C	0.973914	0.928895	-0.417122
C215	C	1.307248	1.262229	-0.083789
C216	C	1.640581	1.595562	0.249544
N217	N	0.934606	0.899573	-0.452991
N218	N	1.267939	1.232906	-0.119658
N219	N	1.601273	1.566240	0.213675
H220	H	0.527803	0.409239	-0.409519
H221	H	0.861136	0.742572	-0.076186
H222	H	1.194470	1.075906	0.257148
H223	H	0.987318	0.583242	-0.404654
H224	H	1.320651	0.916575	-0.071321
H225	H	1.653985	1.249909	0.262013
C226	C	0.973295	0.235187	0.277037
C227	C	1.306628	0.568520	0.610370
C228	C	1.639961	0.901853	0.943704
N229	N	0.933661	0.199600	0.247728
N230	N	1.266994	0.532934	0.581061
N231	N	1.600328	0.866267	0.914394
C232	C	0.519631	0.361142	-0.193852
C233	C	0.852964	0.694476	0.139482
C234	C	1.186298	1.027809	0.472815
N235	N	0.497452	0.375377	-0.140702
N236	N	0.830786	0.708710	0.192631
N237	N	1.164119	1.042044	0.525965
H238	H	0.620098	0.439712	-0.295376
H239	H	0.953431	0.773045	0.037957
H240	H	1.286765	1.106379	0.371291
H241	H	1.160436	0.403417	0.287273
H242	H	1.493769	0.736750	0.620607
H243	H	1.827103	1.070083	0.953940
H244	H	0.527545	0.211743	-0.356908
H245	H	0.860878	0.545077	-0.023575
H246	H	1.194211	0.878410	0.309759
H247	H	1.159775	1.067452	-0.247839
H248	H	1.493109	1.400785	0.085494
H249	H	1.826442	1.734118	0.418828
H250	H	1.160556	0.403266	0.415518
H251	H	1.493889	0.736600	0.748852
H252	H	1.827223	1.069933	1.082185
C253	C	0.973414	0.235021	0.425471
C254	C	1.306747	0.568354	0.758805
C255	C	1.640081	0.901688	1.092138
N256	N	0.933819	0.199378	0.454718
N257	N	1.267153	0.532711	0.788051
N258	N	1.600486	0.866044	1.121384
H259	H	0.987493	1.067245	-0.404754
H260	H	1.320827	1.400578	-0.071420
H261	H	1.654160	1.733912	0.261913
H262	H	0.986772	0.247722	0.059622
H263	H	1.320105	0.581055	0.392956
H264	H	1.653438	0.914389	0.726289
C265	C	1.173963	0.415916	0.069860
C266	C	1.507296	0.749249	0.403194
C267	C	1.840630	1.082582	0.736527
N268	N	1.213647	0.451458	0.099167
N269	N	1.546980	0.784791	0.432500
N270	N	1.880313	1.118124	0.765833
H271	H	0.986663	0.247869	-0.068622
H272	H	1.319997	0.581202	0.264712
H273	H	1.653330	0.914536	0.598045
H274	H	1.160148	0.403822	-0.068484
H275	H	1.493481	0.737155	0.264850
H276	H	1.826814	1.070489	0.598183
