data_functionalizedCrystal
_audit_creation_method	'MofGen! by Chris Wilmer'
_symmetry_space_group_name_H-M	'P1'
_symmetry_Int_Tables_number	1
_symmetry_cell_setting	triclinic
loop_
_symmetry_equiv_pos_as_xyz
  x,y,z
_cell_length_a	10.654544
_cell_length_b	10.908937
_cell_length_c	10.065875
_cell_angle_alpha	96.607309
_cell_angle_beta	81.166111
_cell_angle_gamma	72.285404
loop_
_atom_site_label
_atom_site_type_symbol
_atom_site_fract_x
_atom_site_fract_y
_atom_site_fract_z
O1	O	1.650992	0.161341	-0.113523
O2	O	1.281784	0.178494	-0.113518
O3	O	1.515328	-0.016577	-0.113517
O4	O	1.417448	0.356411	-0.113524
O5	O	1.470763	0.020771	0.113471
O6	O	1.237219	0.215841	0.113470
O7	O	1.606427	0.198689	0.113465
Zn8	Zn	1.414747	0.213195	0.149507
Zn9	Zn	1.473463	0.163988	-0.149560
O10	O	1.372882	0.393759	0.113464
C11	C	1.212977	0.195908	-0.000023
C12	C	1.074352	0.192141	-0.000021
C13	C	1.502193	-0.045663	-0.000025
C14	C	1.529436	-0.187972	-0.000031
C15	C	1.458179	-0.384950	-0.000034
C16	C	1.430020	-0.237865	-0.000031
C17	C	1.025738	0.232874	0.247449
C18	C	0.936305	0.251473	0.371179
C19	C	0.806058	0.247929	0.371173
C20	C	0.765244	0.225781	0.247423
C21	C	0.854676	0.207182	0.123693
C22	C	0.984922	0.210731	0.123712
C23	C	0.903293	0.166441	-0.123774
C24	C	1.033538	0.169992	-0.123771
C25	C	0.862479	0.144292	-0.247524
C26	C	0.951908	0.125702	-0.371258
C27	C	1.082162	0.129247	-0.371247
C28	C	1.122970	0.151393	-0.247502
C29	C	1.675234	0.181274	-0.000033
C30	C	1.813861	0.185040	-0.000044
C31	C	1.386018	0.422845	-0.000031
C32	C	1.358777	0.565153	-0.000034
N33	N	1.374684	0.246777	0.353613
N34	N	1.513539	0.130395	-0.353666
C35	C	1.459518	0.175664	0.421392
C36	C	1.428692	0.201519	0.578559
H37	H	1.564125	-0.451120	-0.000029
Cl38	Cl	0.601504	0.221320	0.247420
H39	H	1.554966	0.095634	0.363068
Cl40	Cl	0.987621	0.279316	0.526742
H41	H	1.279229	0.326797	0.411938
H42	H	1.324063	-0.171696	-0.000019
H43	H	1.154974	0.114098	-0.472003
H44	H	1.333231	0.281544	0.636879
H45	H	1.635391	-0.254138	-0.000029
H46	H	1.252827	-0.368674	-0.000023
Cl47	Cl	1.189469	0.237350	0.247466
Cl48	Cl	0.693630	0.271296	0.526721
H49	H	0.756426	0.141399	-0.247520
H50	H	1.229018	0.154290	-0.247481
Cl51	Cl	0.900602	0.097827	-0.526811
Cl52	Cl	1.661130	0.007109	0.556303
