data_functionalizedCrystal
_audit_creation_method	'MofGen! by Chris Wilmer'
_symmetry_space_group_name_H-M	'P1'
_symmetry_Int_Tables_number	1
_symmetry_cell_setting	triclinic
loop_
_symmetry_equiv_pos_as_xyz
  x,y,z
_cell_length_a	10.654543
_cell_length_b	18.266242
_cell_length_c	19.188940
_cell_angle_alpha	90.006796
_cell_angle_beta	96.184556
_cell_angle_gamma	89.995641
loop_
_atom_site_label
_atom_site_type_symbol
_atom_site_fract_x
_atom_site_fract_y
_atom_site_fract_z
O1	O	-1.665786	0.060803	0.098040
O2	O	-1.300109	0.060822	0.107388
O3	O	-1.493494	0.060806	0.001128
O4	O	-1.472401	0.060819	0.204301
O5	O	-1.493461	-0.060956	0.001122
O6	O	-1.300076	-0.060940	0.107382
O7	O	-1.665753	-0.060959	0.098035
Zn8	Zn	-1.482909	-0.080282	0.102708
Zn9	Zn	-1.482952	0.080145	0.102715
O10	O	-1.472368	-0.060943	0.204295
C11	C	-1.253309	-0.000057	0.106700
C12	C	-1.113909	-0.000050	0.104649
C13	C	-1.033103	-0.000047	0.167213
C14	C	-0.902122	-0.000058	0.165282
C15	C	-0.932766	-0.000071	0.038218
C16	C	-1.063744	-0.000066	0.040150
N17	N	-1.482889	-0.189769	0.102702
C18	C	-1.568548	-0.228084	0.055674
C19	C	-1.568556	-0.304729	0.055670
C20	C	-1.482917	-0.343056	0.102708
C21	C	-1.397242	-0.304731	0.149740
C22	C	-1.397228	-0.228087	0.149737
N23	N	-1.466597	-0.463384	0.164408
N24	N	-1.466618	-0.536192	0.164409
C25	C	-1.482952	-0.573978	0.102718
N26	N	-1.499289	-0.536206	0.041025
N27	N	-1.499275	-0.463391	0.041025
C28	C	-1.482922	-0.426163	0.102716
C29	C	-1.568624	-0.695401	0.055682
C30	C	-1.568624	-0.772047	0.055678
C31	C	-1.397316	-0.772047	0.149754
C32	C	-1.397311	-0.695402	0.149752
C33	C	-1.482972	-0.657084	0.102717
C34	C	-0.712552	-0.000075	0.098726
C35	C	-0.851950	-0.000066	0.100787
C36	C	-1.492792	-0.000074	-0.024890
C37	C	-1.490736	-0.000074	-0.102408
N38	N	-1.482983	0.189632	0.102715
C39	C	-1.476087	-0.066428	-0.655766
C40	C	-1.478006	-0.066433	-0.582929
C41	C	-1.478989	-0.000061	-0.546500
C42	C	-1.478021	0.066320	-0.582912
C43	C	-1.476089	0.066322	-0.655746
N44	N	-1.553493	0.049337	-0.436987
N45	N	-1.555331	0.049330	-0.367798
C46	C	-1.484805	-0.000064	-0.327053
N47	N	-1.412388	-0.049462	-0.358112
N48	N	-1.410556	-0.049458	-0.427309
C49	C	-1.481082	-0.000056	-0.467523
C50	C	-1.487844	-0.066445	-0.211671
C51	C	-1.489755	-0.066446	-0.138832
C52	C	-1.489783	0.066308	-0.138817
C53	C	-1.487859	0.066307	-0.211654
C54	C	-1.486896	-0.000071	-0.248077
C55	C	-1.473070	-0.000061	0.230313
C56	C	-1.475126	-0.000057	0.307831
H57	H	-1.073942	-0.000040	0.219733
C58	C	-1.303169	-0.653253	0.201538
N59	N	-1.232284	-0.621507	0.240562
C60	C	-1.490806	-0.139465	-0.098788
N61	N	-1.491598	-0.194464	-0.068626
C62	C	-1.475079	0.139339	-0.695795
N63	N	-1.474335	0.194337	-0.725961
H64	H	-1.490568	0.120349	-0.109156
C65	C	-1.479110	0.139329	-0.542839
N66	N	-1.479929	0.194321	-0.512656
C67	C	-1.486880	0.139323	-0.251704
N68	N	-1.486162	0.194321	-0.281872
H69	H	-1.475301	-0.120479	-0.685417
H70	H	-1.638371	-0.664201	0.017381
H71	H	-1.478764	-0.120482	-0.553282
H72	H	-1.638312	-0.335932	0.017373
H73	H	-1.487049	-0.120494	-0.241327
H74	H	-1.129540	-0.000070	-0.010800
C75	C	-1.303034	-0.346891	0.201478
N76	N	-1.232069	-0.378646	0.240447
C77	C	-0.813241	-0.000058	0.234108
N78	N	-0.746295	-0.000061	0.285950
C79	C	-1.662766	-0.185939	0.003927
N80	N	-1.733727	-0.154193	-0.035052
C81	C	-1.303047	-0.185939	0.201505
N82	N	-1.232129	-0.154191	0.240509
H83	H	-1.327583	-0.803252	0.188050
C84	C	-0.877572	-0.000082	-0.032728
N85	N	-0.836002	-0.000087	-0.086165
C86	C	-1.662839	-0.814194	0.003928
N87	N	-1.733798	-0.845940	-0.035054
