data_functionalizedCrystal
_audit_creation_method	'MofGen! by Chris Wilmer'
_symmetry_space_group_name_H-M	'P1'
_symmetry_Int_Tables_number	1
_symmetry_cell_setting	triclinic
loop_
_symmetry_equiv_pos_as_xyz
  x,y,z
_cell_length_a	10.723023
_cell_length_b	10.723024
_cell_length_c	15.455425
_cell_angle_alpha	87.037129
_cell_angle_beta	87.024105
_cell_angle_gamma	84.467709
loop_
_atom_site_label
_atom_site_type_symbol
_atom_site_fract_x
_atom_site_fract_y
_atom_site_fract_z
O1	O	1.662107	0.179915	-0.072119
O2	O	2.162107	0.679915	0.427881
O3	O	1.298954	0.196669	-0.072122
O4	O	1.798954	0.696669	0.427878
O5	O	1.488907	0.006716	-0.072117
O6	O	1.988907	0.506716	0.427883
O7	O	1.472154	0.369869	-0.072124
O8	O	1.972154	0.869869	0.427876
O9	O	1.479054	-0.003077	0.072143
O10	O	1.979054	0.496923	0.572143
O11	O	1.289101	0.186877	0.072138
O12	O	1.789101	0.686877	0.572138
O13	O	1.652253	0.170123	0.072141
O14	O	2.152253	0.670123	0.572141
Cu15	Cu	1.469778	0.177606	0.085312
Cu16	Cu	1.969778	0.677606	0.585312
Cu17	Cu	1.481430	0.189186	-0.085292
Cu18	Cu	1.981430	0.689186	0.414708
O19	O	1.462301	0.360076	0.072136
O20	O	1.962301	0.860076	0.572136
C21	C	1.247528	0.190554	0.000007
C22	C	1.747528	0.690554	0.500007
C23	C	1.108974	0.186907	0.000006
C24	C	1.608974	0.686907	0.500006
C25	C	1.042098	0.180208	0.074736
C26	C	1.542098	0.680208	0.574736
C27	C	0.898895	0.176439	0.074737
C28	C	1.398895	0.676439	0.574737
C29	C	1.482761	-0.044680	0.000012
C30	C	1.982761	0.455320	0.500012
C31	C	1.479114	-0.183234	0.000009
C32	C	1.979114	0.316766	0.500009
C33	C	1.585401	-0.258217	0.000009
C34	C	2.085401	0.241783	0.500009
C35	C	1.581634	-0.401420	0.000005
C36	C	2.081634	0.098580	0.500005
C37	C	1.703680	0.176238	0.000010
C38	C	2.203680	0.676238	0.500010
C39	C	1.842234	0.179886	0.000005
C40	C	2.342234	0.679886	0.500005
C41	C	1.468447	0.411472	0.000005
C42	C	1.968447	0.911472	0.500005
C43	C	1.472095	0.550027	0.000003
C44	C	1.972095	1.050027	0.500003
N45	N	1.461591	0.169460	0.205305
N46	N	1.961591	0.669460	0.705305
N47	N	1.489627	0.197322	-0.205286
N48	N	1.989627	0.697322	0.294714
C49	C	1.416394	0.124048	0.749303
C50	C	1.916394	0.624048	1.249303
C51	C	1.422578	0.130256	0.658497
C52	C	1.922578	0.630256	1.158497
C53	C	1.501988	0.209747	0.613103
C54	C	2.001988	0.709747	1.113103
C55	C	1.575229	0.283024	0.658520
C56	C	2.075229	0.783024	1.158520
C57	C	1.569051	0.276808	0.749325
C58	C	2.069051	0.776808	1.249325
C59	C	1.528654	0.236522	0.341527
C60	C	2.028654	0.736522	0.841527
C61	C	1.534824	0.242735	0.250716
C62	C	2.034824	0.742735	0.750716
C63	C	1.382173	0.089964	0.250699
C64	C	1.882173	0.589964	0.750699
C65	C	1.375997	0.083761	0.341506
C66	C	1.875997	0.583761	0.841506
C67	C	1.449243	0.157033	0.386915
C68	C	1.949243	0.657033	0.886915
N69	N	1.508307	0.216098	0.520284
N70	N	2.008307	0.716098	1.020284
N71	N	1.442929	0.150675	0.479732
N72	N	1.942929	0.650675	0.979732
H73	H	0.899718	0.185634	-0.063977
H74	H	1.399718	0.685634	0.436023
H75	H	1.322542	0.030309	0.213717
H76	H	1.822542	0.530309	0.713717
C77	C	1.649608	0.357422	0.799276
C78	C	2.149608	0.857422	1.299276
N79	N	1.710287	0.418141	0.836899
N80	N	2.210287	0.918141	1.336899
H81	H	1.679187	-0.216395	0.000015
H82	H	2.179187	0.283605	0.500015
C83	C	1.352408	-0.239727	0.000009
C84	C	1.852408	0.260273	0.500009
N85	N	1.256970	-0.282275	0.000011
N86	N	1.756970	0.217725	0.500011
C87	C	1.329035	0.036602	0.799228
C88	C	1.829035	0.536602	1.299228
N89	N	1.263238	-0.029269	0.836829
N90	N	1.763238	0.470731	1.336829
H91	H	0.841401	0.170704	0.138716
H92	H	1.341401	0.670704	0.638716
C93	C	1.622189	0.330180	0.200785
C94	C	2.122189	0.830180	0.700785
N95	N	1.687988	0.396042	0.163176
N96	N	2.187988	0.896042	0.663176
C97	C	1.662592	0.370455	0.608583
C98	C	2.162592	0.870455	1.108583
N99	N	1.728395	0.436309	0.570972
N100	N	2.228395	0.936309	1.070972
C101	C	1.107960	0.176284	0.161173
C102	C	1.607960	0.676284	0.661173
N103	N	1.157564	0.173350	0.226279
N104	N	1.657564	0.673350	0.726279
H105	H	1.060212	0.189848	-0.063973
H106	H	1.560212	0.689848	0.436027
H107	H	1.362947	0.070584	0.621527
H108	H	1.862947	0.570584	1.121527
C109	C	1.704563	-0.488463	0.000006
C110	C	2.204563	0.011537	0.500006
N111	N	1.797157	-0.554027	0.000005
N112	N	2.297157	-0.054027	0.500005
C113	C	1.288631	-0.003676	0.391432
C114	C	1.788631	0.496324	0.891432
N115	N	1.222819	-0.069529	0.429037
N116	N	1.722819	0.430471	0.929037
H117	H	1.381099	-0.385548	0.000009
H118	H	1.881099	0.114452	0.500009
C119	C	1.609170	0.317182	0.391466
C120	C	2.109170	0.817182	0.891466
N121	N	1.669799	0.377959	0.429083
N122	N	2.169799	0.877959	0.929083
