data_functionalizedCrystal
_audit_creation_method	'MofGen! by Chris Wilmer'
_symmetry_space_group_name_H-M	'P1'
_symmetry_Int_Tables_number	1
_symmetry_cell_setting	triclinic
loop_
_symmetry_equiv_pos_as_xyz
  x,y,z
_cell_length_a	14.044220
_cell_length_b	16.109302
_cell_length_c	12.503552
_cell_angle_alpha	93.524132
_cell_angle_beta	86.160057
_cell_angle_gamma	88.325329
loop_
_atom_site_label
_atom_site_type_symbol
_atom_site_fract_x
_atom_site_fract_y
_atom_site_fract_z
O1	O	0.116355	1.116592	0.089373
O2	O	0.131517	0.875658	0.089365
O3	O	-0.014047	0.992508	0.089358
O4	O	0.261919	0.999742	0.089379
O5	O	-0.003090	0.983710	-0.089284
O6	O	0.142474	0.866860	-0.089277
O7	O	0.127312	1.107794	-0.089269
Cu8	Cu	0.135893	0.986524	-0.105585
Cu9	Cu	0.122936	0.996929	0.105680
O10	O	0.272876	0.990944	-0.089263
C11	C	-0.043882	0.984943	0.000036
C12	C	-0.149104	0.975499	0.000035
C13	C	0.136381	0.840238	0.000042
C14	C	0.134540	0.747806	0.000039
C15	C	-0.341761	0.958235	0.000050
C16	C	-0.399415	1.025214	0.000055
C17	C	-0.506617	1.015608	0.000063
C18	C	-0.234550	0.967840	0.000041
C19	C	0.136254	0.530353	-0.097328
C20	C	0.134513	0.443503	-0.097325
C21	C	0.122572	0.453107	0.097441
C22	C	0.124306	0.539955	0.097436
C23	C	0.131152	0.578575	0.000048
C24	C	0.127677	0.404878	0.000056
C25	C	0.125789	0.310712	0.000061
C26	C	0.133038	0.672747	0.000043
C27	C	0.302711	0.998509	0.000061
C28	C	0.407933	1.007953	0.000070
N29	N	0.145007	0.979212	-0.254177
C30	C	0.122448	1.143214	0.000055
C31	C	0.124289	1.235647	0.000066
C32	C	0.100406	1.014999	-0.526612
C33	C	0.158412	0.968462	-0.473286
C34	C	0.150952	0.974445	-0.351362
C35	C	0.107866	1.009017	-0.648547
N36	N	0.113815	1.004247	0.254272
H37	H	-0.368269	1.089776	0.000129
C38	C	-0.383837	0.871025	0.000049
C39	C	-0.492609	0.861418	0.000055
C40	C	-0.534698	0.774210	0.000053
C41	C	-0.468015	0.696608	0.000044
C42	C	-0.359236	0.706212	0.000038
C43	C	-0.317147	0.793420	0.000040
H44	H	-0.541978	0.918866	0.000061
H45	H	-0.615224	0.767100	0.000057
H46	H	-0.499171	0.632051	0.000042
H47	H	-0.309867	0.648764	0.000031
H48	H	-0.236621	0.800530	0.000035
C49	C	0.143780	0.572837	-0.204452
C50	C	0.149391	0.519789	-0.311564
C51	C	0.156917	0.562270	-0.418690
C52	C	0.158832	0.657799	-0.418704
C53	C	0.153222	0.710852	-0.311588
C54	C	0.145695	0.668371	-0.204462
H55	H	0.147973	0.449068	-0.311557
H56	H	0.161070	0.522996	-0.497984
H57	H	0.164404	0.689246	-0.498006
H58	H	0.154639	0.781573	-0.311595
H59	H	0.141542	0.707645	-0.125167
C60	C	0.025757	1.074896	-0.464598
C61	C	0.018302	1.080869	-0.340912
C62	C	-0.056343	1.140768	-0.278883
C63	C	-0.123534	1.194696	-0.340542
C64	C	-0.116082	1.188725	-0.464236
C65	C	-0.041436	1.128825	-0.526264
H66	H	0.068043	1.040947	-0.295262
H67	H	-0.061859	1.145188	-0.187317
H68	H	-0.178791	1.239037	-0.294625
H69	H	-0.165822	1.228647	-0.509886
H70	H	-0.035920	1.124406	-0.617831
H71	H	0.138667	0.404244	-0.176619
C72	C	0.115053	0.410619	0.204561
C73	C	0.029965	0.355571	0.231345
C74	C	0.022449	0.313085	0.338468
C75	C	0.100021	0.325647	0.418808
C76	C	0.185115	0.380698	0.392027
C77	C	0.192630	0.423184	0.284903
H78	H	-0.027464	0.346270	0.171870
H79	H	-0.040543	0.272333	0.358292
H80	H	0.094457	0.294197	0.498107
H81	H	0.242543	0.390000	0.451501
H82	H	0.255623	0.463936	0.265079
H83	H	0.213677	0.924128	-0.519199
H84	H	0.120149	0.579219	0.176736
