data_functionalizedCrystal
_audit_creation_method	'MofGen! by Chris Wilmer'
_symmetry_space_group_name_H-M	'P1'
_symmetry_Int_Tables_number	1
_symmetry_cell_setting	triclinic
loop_
_symmetry_equiv_pos_as_xyz
  x,y,z
_cell_length_a	9.065218
_cell_length_b	10.268362
_cell_length_c	9.065218
_cell_angle_alpha	89.996569
_cell_angle_beta	94.984115
_cell_angle_gamma	90.004643
loop_
_atom_site_label
_atom_site_type_symbol
_atom_site_fract_x
_atom_site_fract_y
_atom_site_fract_z
O1	O	1.960402	0.108298	-0.216358
O2	O	2.460402	0.608298	0.283642
O3	O	1.531117	0.108299	-0.234104
O4	O	2.031117	0.608299	0.265896
O5	O	1.754632	0.108296	-0.010589
O6	O	2.254632	0.608296	0.489411
O7	O	1.736886	0.108301	-0.439874
O8	O	2.236886	0.608301	0.060126
O9	O	1.754613	-0.108305	-0.010579
O10	O	2.254613	0.391695	0.489421
O11	O	1.531097	-0.108301	-0.234095
O12	O	2.031097	0.391699	0.265905
O13	O	1.960382	-0.108303	-0.216348
O14	O	2.460382	0.391697	0.283652
Cu15	Cu	1.745738	-0.128080	-0.225221
Cu16	Cu	2.245738	0.371920	0.274779
Cu17	Cu	1.745761	0.128076	-0.225232
Cu18	Cu	2.245761	0.628076	0.274768
O19	O	1.736866	-0.108300	-0.439864
O20	O	2.236866	0.391700	0.060136
C21	C	1.476120	-0.000001	-0.232394
C22	C	1.976120	0.499999	0.267606
C23	C	1.312277	-0.000000	-0.227294
C24	C	1.812277	0.500000	0.272706
N25	N	1.745732	-0.308245	-0.225212
N26	N	2.245732	0.191755	0.274788
C27	C	1.745754	-0.573916	-0.225229
C28	C	2.245754	-0.073916	0.274771
C29	C	1.745737	-0.426078	-0.225224
C30	C	2.245737	0.073922	0.274776
C31	C	2.015378	0.000000	-0.218059
C32	C	2.515378	0.500000	0.281941
C33	C	2.179221	0.000008	-0.223158
C34	C	2.679221	0.500008	0.276842
N35	N	1.745778	0.308242	-0.225229
N36	N	2.245778	0.808242	0.274771
C37	C	1.752917	-0.000002	0.044403
C38	C	2.252917	0.499998	0.544403
C39	C	1.747817	0.000004	0.208245
C40	C	2.247817	0.500004	0.708245
C41	C	1.738582	0.000002	-0.494855
C42	C	2.238582	0.500002	0.005145
C43	C	1.743681	0.000004	-0.658698
C44	C	2.243681	0.500004	-0.158698
