data_functionalizedCrystal
_audit_creation_method	'MofGen! by Chris Wilmer'
_symmetry_space_group_name_H-M	'P1'
_symmetry_Int_Tables_number	1
_symmetry_cell_setting	triclinic
loop_
_symmetry_equiv_pos_as_xyz
  x,y,z
_cell_length_a	18.215407
_cell_length_b	18.101397
_cell_length_c	18.215399
_cell_angle_alpha	89.969366
_cell_angle_beta	89.982632
_cell_angle_gamma	90.017909
loop_
_atom_site_label
_atom_site_type_symbol
_atom_site_fract_x
_atom_site_fract_y
_atom_site_fract_z
Zn1	Zn	1.125095	-0.294888	-0.416054
Zn2	Zn	1.125012	-0.418734	-0.292982
Zn3	Zn	1.002027	-0.294905	-0.293006
Zn4	Zn	1.002002	-0.418686	-0.416012
O5	O	1.063534	-0.356803	-0.354513
O6	O	1.228068	-0.311329	-0.399735
O7	O	1.108674	-0.402335	-0.190001
O8	O	1.018397	-0.191270	-0.309357
O9	O	1.228008	-0.402318	-0.309315
O10	O	1.108814	-0.191257	-0.399759
O11	O	1.018317	-0.311359	-0.190019
O12	O	0.899040	-0.311313	-0.309316
O13	O	1.018355	-0.402237	-0.519002
O14	O	0.899021	-0.402254	-0.399688
O15	O	1.108790	-0.311282	-0.519032
O16	O	1.108650	-0.522361	-0.309274
O17	O	1.018275	-0.522326	-0.399664
C18	C	0.872328	-0.356781	-0.354501
C19	C	0.790529	-0.356789	-0.354512
C20	C	0.602365	-0.309508	-0.401669
C21	C	0.525507	-0.309514	-0.401671
C22	C	0.525455	-0.404120	-0.307371
C23	C	0.602312	-0.404109	-0.307365
C24	C	0.640765	-0.356804	-0.354518
C25	C	0.487049	-0.356821	-0.354527
C26	C	0.403716	-0.356828	-0.354529
C27	C	0.724104	-0.356796	-0.354515
C28	C	1.063471	-0.549214	-0.354478
C29	C	1.063512	-0.631528	-0.354487
C30	C	1.063605	-0.930619	-0.354554
C31	C	1.120308	-0.899285	-0.297531
C32	C	1.120505	-0.813666	-0.297679
C33	C	1.063559	-0.782236	-0.354520
C34	C	1.084583	-0.813245	-0.432092
C35	C	1.085022	-0.898890	-0.431781
C36	C	0.985727	-0.899124	-0.334677
C37	C	0.986112	-0.813475	-0.332946
C38	C	1.063531	-0.698377	-0.354506
C39	C	1.063635	-1.014478	-0.354574
C40	C	1.255487	-0.356827	-0.354527
C41	C	1.337286	-0.356837	-0.354532
C42	C	1.063579	-0.356752	-0.546466
C43	C	1.063598	-0.356731	-0.628265
C44	C	1.063617	-0.163641	-0.354565
C45	C	1.063653	-0.081327	-0.354587
C46	C	1.110705	-0.309326	-0.816477
C47	C	1.110713	-0.309305	-0.893335
C48	C	1.016544	-0.404020	-0.893292
C49	C	1.016532	-0.404038	-0.816435
C50	C	1.063616	-0.356692	-0.778029
C51	C	1.063637	-0.356653	-0.931745
C52	C	1.063646	-0.356630	-1.015079
C53	C	1.063606	-0.356714	-0.694690
C54	C	1.063532	-0.356801	-0.163307
C55	C	1.063655	-0.356614	-0.081509
H56	H	1.107351	-0.792704	-0.240161
H57	H	0.633672	-0.270987	-0.440062
H58	H	0.978181	-0.442608	-0.785130
C59	C	1.102770	-0.927184	-0.219594
C60	C	1.036748	-0.978761	-0.206771
C61	C	1.019210	-1.006667	-0.128832
C62	C	1.067694	-0.982995	-0.063716
C63	C	1.133720	-0.931416	-0.076537
C64	C	1.151259	-0.903510	-0.154476
H65	H	1.000854	-0.996286	-0.254976
H66	H	0.970332	-1.044850	-0.119342
H67	H	1.054711	-1.003653	-0.006021
H68	H	1.169615	-0.913890	-0.028332
H69	H	1.200136	-0.865327	-0.163966
C70	C	1.162514	-0.257205	-0.935628
C71	C	1.162528	-0.257178	-1.020168
C72	C	1.214331	-0.205075	-1.062460
C73	C	1.266119	-0.152998	-1.020212
C74	C	1.266107	-0.153023	-0.935667
C75	C	1.214305	-0.205126	-0.893375
H76	H	1.124190	-0.295729	-1.051447
H77	H	1.214340	-0.205056	-1.125046
H78	H	1.304467	-0.114428	-1.051519
H79	H	1.304446	-0.114471	-0.904389
H80	H	1.214296	-0.205145	-0.830789
C81	C	1.197819	-0.928279	-0.315092
C82	C	1.209800	-0.980234	-0.380928
C83	C	1.287310	-1.009228	-0.398493
C84	C	1.352840	-0.986268	-0.350221
C85	C	1.340861	-0.934311	-0.284381
C86	C	1.263351	-0.905316	-0.266817
H87	H	1.161289	-0.997233	-0.416665
H88	H	1.296177	-1.047691	-0.447232
H89	H	1.410218	-1.007732	-0.363224
H90	H	1.389372	-0.917312	-0.248644
H91	H	1.254484	-0.866854	-0.218077
H92	H	0.633578	-0.442624	-0.268966
H93	H	0.966600	-0.920784	-0.279094
H94	H	0.494245	-0.271000	-0.440065
H95	H	1.178193	-0.793126	-0.310830
C96	C	0.483154	-0.456160	-0.255512
C97	C	0.398614	-0.456178	-0.255519
C98	C	0.356316	-0.508222	-0.203660
C99	C	0.398557	-0.560247	-0.151795
C100	C	0.483102	-0.560230	-0.151786
C101	C	0.525400	-0.508186	-0.203644
H102	H	0.367340	-0.417665	-0.293914
H103	H	0.293730	-0.508234	-0.203667
H104	H	0.367245	-0.598773	-0.113406
H105	H	0.514376	-0.598744	-0.113390
H106	H	0.587986	-0.508174	-0.203637
H107	H	1.044546	-0.792883	-0.475721
H108	H	1.141948	-0.918811	-0.448618
C109	C	1.031658	-0.926894	-0.491137
C110	C	0.988782	-0.871326	-0.538671
C111	C	0.935423	-0.899327	-0.598030
C112	C	0.924940	-0.982896	-0.609855
C113	C	0.967817	-1.038470	-0.562320
C114	C	1.021176	-1.010469	-0.502961
H115	H	0.996541	-0.809458	-0.529918
H116	H	0.903683	-0.858187	-0.633218
H117	H	0.885441	-1.003624	-0.653796
H118	H	0.960058	-1.100338	-0.571072
H119	H	1.052916	-1.051609	-0.467773
C120	C	0.964758	-0.456105	-0.935540
C121	C	0.964772	-0.456092	-1.020080
C122	C	0.912987	-0.508179	-1.062327
C123	C	0.861189	-0.560279	-1.020033
C124	C	0.861173	-0.560294	-0.935488
C125	C	0.912958	-0.508207	-0.893242
H126	H	1.003117	-0.417522	-1.051393
H127	H	0.912998	-0.508168	-1.124913
H128	H	0.822854	-0.598838	-1.051306
H129	H	0.822827	-0.598864	-0.904176
H130	H	0.912946	-0.508218	-0.830656
C131	C	1.160628	-0.784203	-0.455225
C132	C	1.203712	-0.732393	-0.403871
C133	C	1.279758	-0.703353	-0.427000
C134	C	1.312721	-0.726123	-0.501483
C135	C	1.269637	-0.777936	-0.552842
C136	C	1.193590	-0.806976	-0.529713
H137	H	1.179312	-0.715535	-0.348730
H138	H	1.311652	-0.664998	-0.388980
H139	H	1.369015	-0.704626	-0.518605
H140	H	1.294037	-0.794794	-0.607983
H141	H	1.161696	-0.845331	-0.567733
H142	H	0.970259	-0.793216	-0.275860
C143	C	0.925962	-0.784587	-0.384944
C144	C	0.946207	-0.731892	-0.448190
C145	C	0.886060	-0.703005	-0.500195
C146	C	0.805668	-0.726813	-0.488954
C147	C	0.785419	-0.779511	-0.425706
C148	C	0.845566	-0.808398	-0.373700
H149	H	1.005722	-0.714265	-0.456513
H150	H	0.901050	-0.663995	-0.547016
H151	H	0.761143	-0.705430	-0.527452
H152	H	0.725904	-0.797138	-0.417382
H153	H	0.830576	-0.847408	-0.326880
H154	H	0.943479	-0.919388	-0.376210
H155	H	1.149042	-0.270772	-0.785209
