data_functionalizedCrystal
_audit_creation_method	'MofGen! by Chris Wilmer'
_symmetry_space_group_name_H-M	'P1'
_symmetry_Int_Tables_number	1
_symmetry_cell_setting	triclinic
loop_
_symmetry_equiv_pos_as_xyz
  x,y,z
_cell_length_a	15.625110
_cell_length_b	15.538191
_cell_length_c	9.482900
_cell_angle_alpha	95.622696
_cell_angle_beta	98.477792
_cell_angle_gamma	66.740235
loop_
_atom_site_label
_atom_site_type_symbol
_atom_site_fract_x
_atom_site_fract_y
_atom_site_fract_z
O1	O	1.085506	0.177939	0.451474
O2	O	0.838563	0.176721	0.321267
O3	O	1.010105	0.043355	0.411710
O4	O	0.913964	0.311304	0.361031
O5	O	0.975225	0.070560	0.635113
O6	O	0.803684	0.203926	0.544670
O7	O	1.050626	0.205144	0.674877
Cu8	Cu	0.923970	0.207019	0.630172
Cu9	Cu	0.965219	0.174846	0.365972
O10	O	0.879084	0.338509	0.584434
C11	C	0.790291	0.187679	0.416711
C12	C	0.698422	0.179789	0.368270
C13	C	0.587947	0.153842	0.178227
C14	C	0.674270	0.161257	0.223759
C15	C	0.636252	0.190919	0.467306
C16	C	0.549922	0.183511	0.421794
C17	C	0.525778	0.164971	0.277253
C18	C	0.487753	0.194641	0.520820
C19	C	0.401434	0.187229	0.475312
C20	C	0.377283	0.168687	0.330777
C21	C	0.439459	0.157559	0.231745
C22	C	0.511902	0.213174	0.665362
C23	C	0.449733	0.224304	0.764388
C24	C	0.363408	0.216898	0.718879
C25	C	0.339258	0.198356	0.574345
C26	C	0.301233	0.228026	0.817912
C27	C	0.214913	0.220613	0.772404
C28	C	0.252938	0.190944	0.528836
C29	C	1.002724	0.022522	0.528711
C30	C	1.032688	-0.080086	0.544496
C31	C	0.735025	-0.387415	0.387576
C32	C	0.763199	-0.483831	0.402435
C33	C	0.921672	-0.495870	0.485993
C34	C	0.893513	-0.399454	0.471135
C35	C	0.800188	-0.345234	0.421927
C36	C	0.958676	-0.357273	0.505487
C37	C	0.930517	-0.260864	0.490637
C38	C	0.837195	-0.206637	0.441435
C39	C	0.772029	-0.248825	0.407077
C40	C	1.051999	-0.411493	0.554704
C41	C	1.117162	-0.369312	0.589056
C42	C	1.089005	-0.272903	0.574196
C43	C	0.995684	-0.218676	0.524994
C44	C	1.154172	-0.230715	0.608554
C45	C	1.126013	-0.134307	0.593703
C46	C	0.967525	-0.122268	0.510144
C47	C	1.098899	0.194185	0.579430
C48	C	1.190769	0.202073	0.627862
C49	C	0.886465	0.359342	0.467431
C50	C	0.856503	0.461949	0.451637
N51	N	0.894964	0.229647	0.815999
N52	N	0.994234	0.152210	0.180150
C53	C	0.956659	0.181515	0.920726
C54	C	0.932530	0.200350	1.075422
H55	H	0.306995	0.162653	0.293727
H56	H	0.568284	0.138756	0.060524
O57	O	0.154644	0.231323	0.868751
C58	C	0.129782	0.175056	1.080915
C59	C	0.198135	0.162843	0.971922
H60	H	0.164911	0.119688	1.164338
H61	H	0.109864	0.247874	1.135510
H62	H	0.063932	0.166612	1.023513
H63	H	0.264028	0.171241	1.029214
H64	H	0.217976	0.090030	0.917330
H65	H	0.419795	0.142473	0.114042
O66	O	1.244797	-0.283319	0.656600
C67	C	1.370816	-0.308968	0.848269
C68	C	1.268166	-0.249335	0.794045
H69	H	1.389748	-0.281502	0.959386
H70	H	1.379789	-0.385123	0.853105
H71	H	1.418929	-0.304388	0.772397
H72	H	1.219989	-0.253836	0.869866
H73	H	1.259268	-0.173206	0.789173
O74	O	0.324538	0.246152	0.958324
C75	C	0.284415	0.353115	1.162445
C76	C	0.257904	0.332694	1.003431
H77	H	0.230567	0.423092	1.198955
H78	H	0.285542	0.294949	1.228135
H79	H	0.356812	0.356445	1.177939
H80	H	0.185501	0.329381	0.987803
H81	H	0.256840	0.390865	0.937820
H82	H	0.469405	0.239395	0.882075
H83	H	0.659032	-0.343267	0.347496
H84	H	0.814269	-0.128135	0.429352
O85	O	1.040934	0.115606	0.891084
C86	C	1.145640	-0.047064	0.899376
C87	C	1.050161	0.027471	0.933005
H88	H	1.153140	-0.118334	0.933282
H89	H	1.150078	-0.050587	0.779889
H90	H	1.204422	-0.027427	0.960156
H91	H	0.991325	0.007889	0.872318
H92	H	1.045805	0.030981	1.052514
O93	O	0.848120	0.266044	1.104956
C94	C	0.679925	0.316267	1.063115
C95	C	0.775453	0.241793	1.029567
H96	H	0.621149	0.296697	1.002157
H97	H	0.675414	0.319731	1.182572
H98	H	0.672495	0.387552	1.029378
H99	H	0.782947	0.170468	1.063216
H100	H	0.779922	0.238411	0.910108
H101	H	0.724886	0.152198	0.143107
H102	H	0.710125	-0.518168	0.374477
H103	H	0.655924	0.206011	0.584993
H104	H	0.233275	0.175858	0.411134
O105	O	0.810654	0.295555	0.845495
C106	C	0.706024	0.458252	0.837279
C107	C	0.801526	0.383702	0.803777
H108	H	0.698621	0.529539	0.803593
H109	H	0.647186	0.438741	0.776405
H110	H	0.701590	0.461670	0.956753
H111	H	0.806052	0.380246	0.684333
H112	H	0.860318	0.403243	0.864749
O113	O	0.595836	0.220219	0.709446
C114	C	0.764220	0.143351	0.726007
C115	C	0.669229	0.135262	0.675973
H116	H	0.823584	0.074666	0.698990
H117	H	0.768645	0.202817	0.669864
H118	H	0.770753	0.158545	0.846315
H119	H	0.662633	0.120035	0.555681
H120	H	0.664846	0.075816	0.732220
H121	H	1.064921	0.097050	1.155294
H122	H	0.891532	-0.078119	0.470064
O123	O	1.012351	-0.548612	0.533545
C124	C	1.154171	-0.678584	0.483094
C125	C	1.051494	-0.618917	0.429059
H126	H	1.185842	-0.735451	0.398657
H127	H	1.195969	-0.631929	0.505030
H128	H	1.156691	-0.712584	0.585662
H129	H	1.048885	-0.584907	0.326462
H130	H	1.009740	-0.665616	0.407223
O131	O	0.681328	-0.196279	0.359301
C132	C	0.527115	-0.194514	0.277868
C133	C	0.629791	-0.254127	0.331990
H134	H	0.485422	-0.241263	0.255743
H135	H	0.495311	-0.137704	0.362308
H136	H	0.524618	-0.160444	0.175380
H137	H	0.632372	-0.288259	0.434453
H138	H	0.661551	-0.310883	0.247459
H139	H	1.193147	-0.413470	0.629126
O140	O	1.079361	-0.505119	0.569390
C141	C	1.145226	-0.632685	0.729343
C142	C	1.114257	-0.526637	0.712922
H143	H	1.173465	-0.650118	0.845376
H144	H	1.082641	-0.653565	0.696429
H145	H	1.202563	-0.672895	0.658343
H146	H	1.056942	-0.486354	0.783916
H147	H	1.176892	-0.505830	0.745787
H148	H	1.179075	-0.099962	0.621678
