data_functionalizedCrystal
_audit_creation_method	'MofGen! by Chris Wilmer'
_symmetry_space_group_name_H-M	'P1'
_symmetry_Int_Tables_number	1
_symmetry_cell_setting	triclinic
loop_
_symmetry_equiv_pos_as_xyz
  x,y,z
_cell_length_a	14.971486
_cell_length_b	14.044220
_cell_length_c	13.448316
_cell_angle_alpha	89.992660
_cell_angle_beta	89.998199
_cell_angle_gamma	88.401503
loop_
_atom_site_label
_atom_site_type_symbol
_atom_site_fract_x
_atom_site_fract_y
_atom_site_fract_z
O1	O	1.196679	0.123538	-0.082579
O2	O	0.937445	0.138332	-0.082607
O3	O	1.063171	-0.007054	-0.082584
O4	O	1.070953	0.268924	-0.082602
O5	O	1.063153	-0.007063	0.082800
O6	O	0.937427	0.138323	0.082777
O7	O	1.196661	0.123529	0.082804
Cu8	Cu	1.067042	0.130925	0.097892
Cu9	Cu	1.067064	0.130936	-0.097694
O10	O	1.070935	0.268915	0.082781
C11	C	0.904059	0.137666	0.000082
C12	C	0.804606	0.135683	0.000072
C13	C	0.754109	0.221093	0.000067
C14	C	0.660662	0.219225	0.000082
C15	C	0.617714	0.131945	0.000094
C16	C	0.668218	0.046528	0.000102
C17	C	0.761663	0.048398	0.000094
C18	C	0.473449	0.042638	0.000116
C19	C	0.379997	0.040767	0.000122
C20	C	0.372448	0.213465	0.000104
C21	C	0.465893	0.215334	0.000096
C22	C	0.516390	0.129917	0.000102
C23	C	1.059755	-0.042377	0.000108
C24	C	1.049594	-0.147614	0.000108
C25	C	1.031018	-0.340297	0.000092
C26	C	1.103085	-0.397848	0.000097
C27	C	1.092748	-0.505063	0.000088
C28	C	1.041353	-0.233071	0.000101
C29	C	1.230047	0.124195	0.000114
C30	C	1.329501	0.126178	0.000117
C31	C	1.074351	0.304238	0.000087
C32	C	1.084512	0.409475	0.000080
N33	N	1.067034	0.130917	0.235456
N34	N	1.067079	0.130936	-0.235258
C35	C	1.122727	0.066567	0.287506
C36	C	1.122732	0.066566	0.391610
C37	C	1.067049	0.130921	0.443660
C38	C	1.011350	0.195274	0.391603
C39	C	1.011341	0.195270	0.287501
C40	C	1.011376	0.195281	0.608583
C41	C	1.011386	0.195287	0.712691
C42	C	1.122767	0.066577	0.712691
C43	C	1.122757	0.066572	0.608590
C44	C	1.067060	0.130927	0.556539
H45	H	0.331329	0.283015	0.000104
O46	O	0.507723	0.300053	0.000200
C47	C	0.561545	0.306313	0.085853
H48	H	0.578812	0.231624	0.114429
H49	H	0.523684	0.348221	0.145826
C50	C	0.626948	0.449164	0.024704
C51	C	0.648162	0.357430	0.059796
H52	H	0.680376	0.480699	0.008634
H53	H	0.590685	0.444950	-0.033001
H54	H	0.595396	0.484076	0.074687
H55	H	0.679704	0.322516	0.009809
H56	H	0.684433	0.361640	0.117492
O57	O	0.338418	-0.044097	0.000180
C58	C	0.403023	-0.119088	0.000165
H59	H	0.468528	-0.092448	0.031472
H60	H	0.414122	-0.145440	-0.079174
C61	C	0.289660	-0.234113	0.026583
C62	C	0.370112	-0.201395	0.065042
H63	H	0.269359	-0.284886	0.066598
H64	H	0.246133	-0.183591	0.026589
H65	H	0.298920	-0.256066	-0.039533
H66	H	0.360849	-0.179432	0.131151
H67	H	0.413637	-0.251915	0.065048
H68	H	0.961562	-0.371545	0.000082
O69	O	1.176926	0.004031	0.442017
C70	C	1.226064	-0.052777	0.373753
H71	H	1.230154	-0.013912	0.299537
H72	H	1.191418	-0.123261	0.362704
C73	C	1.315993	-0.119855	0.505518
C74	C	1.321022	-0.072116	0.414367
H75	H	1.374566	-0.131788	0.530571
H76	H	1.282886	-0.081585	0.551510
H77	H	1.287117	-0.178586	0.496298
H78	H	1.349887	-0.013382	0.423591
H79	H	1.354136	-0.110377	0.368377
H80	H	0.966042	0.247690	0.755066
H81	H	1.168074	0.014166	0.245134
H82	H	1.168118	0.014177	0.755077
H83	H	0.514561	-0.026919	0.000122
O84	O	0.957247	0.257888	0.558173
C85	C	0.908088	0.314678	0.626435
H86	H	0.944853	0.315814	0.700637
H87	H	0.839181	0.283785	0.637520
C88	C	0.852651	0.415517	0.494653
C89	C	0.897811	0.416918	0.585788
H90	H	0.846308	0.478583	0.469580
H91	H	0.885768	0.377255	0.448663
H92	H	0.795233	0.389769	0.503903
H93	H	0.955232	0.442655	0.576535
H94	H	0.864704	0.455187	0.631776
H95	H	0.789070	0.292167	0.000056
H96	H	0.619551	0.288775	0.000077
O97	O	0.957217	0.257874	0.237090
C98	C	0.908056	0.314662	0.305351
H99	H	0.944824	0.315803	0.379552
H100	H	0.839152	0.283763	0.316440
C101	C	0.852607	0.415492	0.173569
C102	C	0.897770	0.416900	0.264702
H103	H	0.846258	0.478556	0.148494
H104	H	0.885725	0.377231	0.127579
H105	H	0.795192	0.389738	0.182822
H106	H	0.955188	0.442642	0.255445
H107	H	0.864661	0.455168	0.310689
H108	H	0.633242	-0.024537	0.000126
H109	H	0.802776	-0.021152	0.000097
H110	H	1.172546	-0.366598	0.000037
H111	H	1.168103	0.014175	0.566210
H112	H	0.966007	0.247670	0.433988
