data_functionalizedCrystal
_audit_creation_method	'MofGen! by Chris Wilmer'
_symmetry_space_group_name_H-M	'P1'
_symmetry_Int_Tables_number	1
_symmetry_cell_setting	triclinic
loop_
_symmetry_equiv_pos_as_xyz
  x,y,z
_cell_length_a	15.944551
_cell_length_b	15.944551
_cell_length_c	15.021413
_cell_angle_alpha	90.002826
_cell_angle_beta	90.003065
_cell_angle_gamma	96.501262
loop_
_atom_site_label
_atom_site_type_symbol
_atom_site_fract_x
_atom_site_fract_y
_atom_site_fract_z
O1	O	0.108321	-1.114529	-0.073941
O2	O	0.121677	-0.869979	-0.073964
O3	O	-0.007276	-0.998932	-0.073944
O4	O	0.237274	-0.985576	-0.073961
O5	O	-0.007257	-0.998912	0.074121
O6	O	0.121695	-0.869959	0.074101
O7	O	0.108339	-1.114508	0.074123
Zn8	Zn	0.115020	-0.992230	0.097620
Zn9	Zn	0.114996	-0.992257	-0.097461
O10	O	0.237292	-0.985555	0.074103
C11	C	0.121132	-0.838675	0.000066
C12	C	0.119470	-0.745429	0.000057
C13	C	-0.038561	-0.998367	0.000089
C14	C	-0.131807	-0.996705	0.000089
C15	C	0.108885	-1.145813	0.000092
C16	C	0.110547	-1.239059	0.000094
C17	C	-0.346663	-0.912801	0.000069
C18	C	-0.407672	-0.951753	0.073077
C19	C	-0.302533	-0.993698	0.000082
C20	C	-0.407673	-0.951792	-0.072903
C21	C	-0.467445	-0.990787	0.000071
C22	C	-0.362313	-1.032672	0.073150
C23	C	-0.362308	-1.032700	-0.072895
C24	C	-0.423298	-1.071711	0.000131
C25	C	-0.207530	-0.995372	0.000089
C26	C	-0.562446	-0.989119	0.000070
C27	C	0.268577	-0.986120	0.000069
C28	C	0.361823	-0.987782	0.000063
N29	N	0.115036	-0.992218	0.230758
C30	C	0.035565	-0.530572	0.000081
C31	C	0.074518	-0.469562	-0.072926
C32	C	0.116462	-0.574703	0.000068
C33	C	0.074556	-0.469564	0.073054
C34	C	0.113551	-0.409790	0.000083
C35	C	0.155438	-0.514921	-0.072998
C36	C	0.155464	-0.514930	0.073047
C37	C	0.194476	-0.453937	0.000023
C38	C	0.118137	-0.669705	0.000059
C39	C	0.111883	-0.314789	0.000085
N40	N	0.114973	-0.992276	-0.230598
C41	C	0.174636	-0.932581	0.470432
C42	C	0.190943	-1.008481	0.529772
C43	C	0.115015	-0.992239	0.412365
C44	C	0.098727	-0.916360	0.529766
C45	C	0.114997	-0.992253	0.587789
C46	C	0.131360	-1.068178	0.470398
C47	C	0.039111	-0.976006	0.470387
C48	C	0.055386	-1.051962	0.529701
C49	C	0.115028	-0.992230	0.311307
C50	C	0.114984	-0.992271	0.688844
H51	H	-0.313356	-0.845652	0.000136
F52	F	0.029826	-0.443300	0.153727
F53	F	0.274833	-1.026445	0.563867
F54	F	0.240589	-0.866705	0.436413
H55	H	-0.031573	-0.563905	-0.000005
H56	H	0.145206	-1.132368	0.444430
H57	H	0.004956	-1.102474	0.555561
F58	F	0.029788	-0.443289	-0.153596
H59	H	-0.342314	-1.066851	0.134941
F60	F	0.200160	-0.541234	0.153719
F61	F	-0.433943	-0.907062	-0.153573
H62	H	-0.025051	-0.962240	0.444283
H63	H	-0.427772	-0.917528	0.134794
F64	F	-0.466641	-1.159555	0.000190
H65	H	0.084959	-0.852184	0.555847
H66	H	-0.342185	-1.066896	-0.134615
F67	F	0.200117	-0.541054	-0.153761
F68	F	0.282319	-0.410594	-0.000034
