data_functionalizedCrystal
_audit_creation_method	'MofGen! by Chris Wilmer'
_symmetry_space_group_name_H-M	'P1'
_symmetry_Int_Tables_number	1
_symmetry_cell_setting	triclinic
loop_
_symmetry_equiv_pos_as_xyz
  x,y,z
_cell_length_a	10.540491
_cell_length_b	10.540514
_cell_length_c	9.730223
_cell_angle_alpha	90.001248
_cell_angle_beta	90.002849
_cell_angle_gamma	84.510414
loop_
_atom_site_label
_atom_site_type_symbol
_atom_site_fract_x
_atom_site_fract_y
_atom_site_fract_z
O1	O	-1.685905	-0.178609	-0.114266
O2	O	-1.316482	-0.195529	-0.114271
O3	O	-1.509638	-0.002359	-0.114270
O4	O	-1.492749	-0.371779	-0.114267
O5	O	-1.509626	-0.002354	0.114310
O6	O	-1.316470	-0.195524	0.114309
O7	O	-1.685892	-0.178604	0.114314
Zn8	Zn	-1.501179	-0.187063	0.150603
Zn9	Zn	-1.501195	-0.187070	-0.150561
O10	O	-1.492736	-0.371774	0.114313
C11	C	-1.269172	-0.194271	0.000018
C12	C	-1.128221	-0.190513	0.000016
C13	C	-1.508372	0.044947	0.000016
C14	C	-1.504603	0.185896	0.000006
C15	C	-0.910752	-0.324714	-0.000510
C16	C	-1.057348	-0.328722	0.000015
C17	C	-1.083460	-0.119766	0.130542
C18	C	-0.936699	-0.116737	0.130641
C19	C	-0.936907	-0.113865	-0.129297
C20	C	-1.083249	-0.120410	-0.131012
C21	C	-0.733200	-0.179879	0.000018
C22	C	-0.874145	-0.183687	0.000002
C23	C	-1.494002	-0.419080	0.000024
C24	C	-1.497771	-0.560029	0.000025
C25	C	-1.642746	0.256625	0.000011
C26	C	-1.638871	0.403238	0.000539
C27	C	-1.429467	0.378221	0.130292
C28	C	-1.434321	0.231683	0.130393
C29	C	-1.432291	0.231278	-0.129555
C30	C	-1.430958	0.378257	-0.131258
N31	N	-1.501177	-0.187057	0.356140
N32	N	-1.501207	-0.187066	-0.356097
C33	C	-1.586736	-0.101558	0.428066
C34	C	-1.586749	-0.101559	0.571949
C35	C	-1.415639	-0.272569	0.571967
C36	C	-1.415622	-0.272561	0.428086
H37	H	-1.086695	-0.384069	-0.093555
F38	F	-1.324592	-0.363567	0.648547
H39	H	-1.332845	0.183659	0.135947
H40	H	-0.896472	-0.165086	0.228212
H41	H	-1.325833	0.400518	0.134768
F42	F	-1.490697	0.433865	0.257497
F43	F	-1.296568	0.409953	-0.142127
H44	H	-1.345943	-0.342186	0.369520
F45	F	-1.120700	-0.187660	-0.257230
H46	H	-0.868798	-0.378561	-0.094119
H47	H	-0.867235	-0.378247	0.092567
H48	H	-1.130860	-0.018020	0.135396
H49	H	-1.484196	0.203468	0.228144
F50	F	-1.123773	-0.183978	0.257513
H51	H	-1.478279	0.199788	-0.228325
H52	H	-1.656399	-0.031934	0.369490
H53	H	-1.480875	0.419260	-0.227632
F54	F	-1.299107	0.169489	-0.131202
H55	H	-1.656417	-0.031936	0.630507
H56	H	-1.085742	-0.384401	0.093740
H57	H	-0.894360	-0.157453	-0.228230
H58	H	-0.913712	-0.013371	0.136569
H59	H	-0.914762	-0.010103	-0.130181
F60	F	-1.147389	0.011481	-0.141314
F61	F	-1.716003	0.219342	-0.122078
H62	H	-1.697999	0.226319	0.093223
F63	F	-1.709086	0.459025	-0.121489
H64	H	-1.692355	0.444979	0.094473
