data_functionalizedCrystal
_audit_creation_method	'MofGen! by Chris Wilmer'
_symmetry_space_group_name_H-M	'P1'
_symmetry_Int_Tables_number	1
_symmetry_cell_setting	triclinic
loop_
_symmetry_equiv_pos_as_xyz
  x,y,z
_cell_length_a	7.076090
_cell_length_b	13.635800
_cell_length_c	7.076028
_cell_angle_alpha	117.700652
_cell_angle_beta	70.928329
_cell_angle_gamma	117.701400
loop_
_atom_site_label
_atom_site_type_symbol
_atom_site_fract_x
_atom_site_fract_y
_atom_site_fract_z
V1	V	0.291705	-1.996836	-0.663512
V2	V	0.791705	-1.496836	-0.163512
O3	O	-0.017514	-2.098107	-0.652433
O4	O	0.482486	-1.598107	-0.152433
O5	O	0.581764	-1.869608	-0.657482
O6	O	1.081764	-1.369608	-0.157482
O7	O	0.285683	-2.012457	-0.953573
O8	O	0.785683	-1.512457	-0.453573
O9	O	0.280616	-1.954268	-0.354292
O10	O	0.780616	-1.454268	0.145708
V11	V	0.254900	-2.246840	-0.626708
V12	V	0.754900	-1.746840	-0.126708
O13	O	0.372439	-2.109384	-0.744245
O14	O	0.872439	-1.609384	-0.244245
O15	O	0.174165	-2.359391	-0.545976
O16	O	0.674165	-1.859391	-0.045976
O17	O	-0.035159	-2.262465	-0.632738
O18	O	0.464841	-1.762465	-0.132738
O19	O	0.564118	-2.204268	-0.637787
O20	O	1.064118	-1.704268	-0.137787
O21	O	0.265988	-2.348106	-0.935928
O22	O	0.765988	-1.848106	-0.435928
O23	O	0.260921	-2.119616	-0.336647
O24	O	0.760921	-1.619616	0.163353
V25	V	0.291705	-1.496836	-0.663512
V26	V	0.791705	-0.996836	-0.163512
O27	O	-0.017514	-1.598107	-0.652433
O28	O	0.482486	-1.098107	-0.152433
O29	O	0.581764	-1.369608	-0.657482
O30	O	1.081764	-0.869608	-0.157482
O31	O	0.285683	-1.512457	-0.953573
O32	O	0.785683	-1.012457	-0.453573
O33	O	0.280616	-1.454268	-0.354292
O34	O	0.780616	-0.954268	0.145708
V35	V	0.254900	-1.746840	-0.626708
V36	V	0.754900	-1.246840	-0.126708
O37	O	0.372439	-1.609384	-0.744245
O38	O	0.872439	-1.109384	-0.244245
O39	O	0.174165	-1.859391	-0.545976
O40	O	0.674165	-1.359391	-0.045976
O41	O	-0.035159	-1.762465	-0.632738
O42	O	0.464841	-1.262465	-0.132738
O43	O	0.564118	-1.704268	-0.637787
O44	O	1.064118	-1.204268	-0.137787
O45	O	0.265988	-1.848106	-0.935928
O46	O	0.765988	-1.348106	-0.435928
O47	O	0.260921	-1.619616	-0.336647
O48	O	0.760921	-1.119616	0.163353
C49	C	0.652525	-1.765764	-0.646640
C50	C	1.152525	-1.265764	-0.146640
C51	C	0.894100	-1.701463	-0.643592
C52	C	1.394100	-1.201463	-0.143592
C53	C	-0.105907	-2.197991	-0.643587
C54	C	0.394093	-1.697991	-0.143587
C55	C	-0.347474	-2.251725	-0.646685
C56	C	0.152526	-1.751725	-0.146685
C57	C	0.271768	-2.015759	-0.265888
C58	C	0.771768	-1.515759	0.234112
C59	C	0.274826	-1.951463	-0.024313
C60	C	0.774826	-1.451463	0.475687
C61	C	0.274832	-1.447983	-1.024321
C62	C	0.774832	-0.947983	-0.524321
C63	C	0.271768	-1.501707	-1.265894
C64	C	0.771768	-1.001707	-0.765894
