data_functionalizedCrystal
_audit_creation_method	'MofGen! by Chris Wilmer'
_symmetry_space_group_name_H-M	'P1'
_symmetry_Int_Tables_number	1
_symmetry_cell_setting	triclinic
loop_
_symmetry_equiv_pos_as_xyz
  x,y,z
_cell_length_a	7.190334
_cell_length_b	6.817900
_cell_length_c	16.255699
_cell_angle_alpha	103.489404
_cell_angle_beta	89.349550
_cell_angle_gamma	60.611776
loop_
_atom_site_label
_atom_site_type_symbol
_atom_site_fract_x
_atom_site_fract_y
_atom_site_fract_z
V1	V	0.665700	-4.223188	-0.115738
O2	O	0.652300	-4.206716	0.006951
O3	O	0.661847	-4.173598	-0.230825
O4	O	0.955715	-4.260347	-0.113349
O5	O	0.356397	-4.119366	-0.111339
V6	V	0.628620	-4.695883	-0.101135
O7	O	0.747038	-4.508197	-0.147771
O8	O	0.547282	-4.861071	-0.069102
O9	O	0.632473	-4.522266	0.013952
O10	O	0.642020	-4.829752	-0.223824
O11	O	0.937923	-4.917102	-0.105534
O12	O	0.338605	-4.435517	-0.103525
C13	C	0.651526	-4.015541	-0.258900
C14	C	0.650309	-4.056853	-0.352981
C15	C	1.026381	-4.126209	-0.109043
C16	C	1.267931	-4.239964	-0.107827
C17	C	0.636366	-3.963318	-0.575836
C18	C	0.464499	-3.996249	-0.623804
C19	C	0.648185	-4.132627	-0.525240
C20	C	0.817905	-4.173338	-0.644909
C21	C	0.646141	-4.205810	-0.691633
C22	C	0.476188	-4.164940	-0.571959
C23	C	0.829751	-4.342079	-0.593069
C24	C	0.657850	-4.375118	-0.641012
C25	C	0.649360	-4.090461	-0.429384
C26	C	0.644951	-4.247983	-0.787486
C27	C	0.642788	-4.343664	0.042022
C28	C	0.644019	-4.281594	0.136103
H29	H	0.627074	-3.788750	-0.547352
H30	H	0.310059	-3.850477	-0.637724
H31	H	0.331623	-4.160908	-0.540286
H32	H	0.984190	-4.487775	-0.579127
H33	H	0.666877	-4.549616	-0.669327
H34	H	0.962277	-4.177222	-0.676683
