data_functionalizedCrystal
_audit_creation_method	'MofGen! by Chris Wilmer'
_symmetry_space_group_name_H-M	'P1'
_symmetry_Int_Tables_number	1
_symmetry_cell_setting	triclinic
loop_
_symmetry_equiv_pos_as_xyz
  x,y,z
_cell_length_a	15.995350
_cell_length_b	17.699083
_cell_length_c	16.176319
_cell_angle_alpha	90.007566
_cell_angle_beta	90.004199
_cell_angle_gamma	83.387695
loop_
_atom_site_label
_atom_site_type_symbol
_atom_site_fract_x
_atom_site_fract_y
_atom_site_fract_z
O1	O	-1.110791	-0.097560	-0.068678
O2	O	-0.866991	-0.109607	-0.068695
O3	O	-0.995779	0.006595	-0.068679
O4	O	-0.982003	-0.213761	-0.068695
O5	O	-0.995760	0.006602	0.068814
O6	O	-0.866972	-0.109600	0.068798
O7	O	-1.110772	-0.097553	0.068815
Cu8	Cu	-0.988871	-0.103576	0.081361
Cu9	Cu	-0.988893	-0.103584	-0.081241
O10	O	-0.981984	-0.213754	0.068799
C11	C	-0.835788	-0.109105	0.000049
C12	C	-0.742841	-0.107612	0.000043
C13	C	-1.141975	-0.098054	0.000069
C14	C	-1.234923	-0.099547	0.000070
C15	C	-0.995276	0.034796	0.000068
C16	C	-0.993795	0.118816	0.000068
C17	C	-0.405104	-0.102250	0.000060
C18	C	-0.452706	-0.019493	0.000373
C19	C	-0.549394	-0.020987	0.000057
C20	C	-0.572659	-0.104910	0.000052
C21	C	-0.531500	-0.145732	-0.078463
C22	C	-0.434868	-0.143653	-0.078523
C23	C	-0.434504	-0.145355	0.077833
C24	C	-0.531450	-0.145335	0.078865
C25	C	-0.667354	-0.106417	0.000045
C26	C	-0.310409	-0.100745	0.000062
C27	C	-0.982487	-0.241955	0.000050
C28	C	-0.983968	-0.325976	0.000044
N29	N	-0.988861	-0.103569	0.195726
C30	C	-1.069391	0.167312	0.000074
C31	C	-1.067994	0.246257	0.000067
C32	C	-0.991001	0.276706	0.000059
C33	C	-0.915400	0.228205	0.000050
C34	C	-0.916797	0.149261	0.000051
C35	C	-0.909763	0.546577	0.000043
C36	C	-0.908372	0.625527	0.000044
C37	C	-1.060960	0.643574	0.000058
C38	C	-1.062358	0.564630	0.000060
C39	C	-0.986757	0.516135	0.000047
C40	C	-0.988272	0.430533	0.000053
C41	C	-0.989485	0.362306	0.000058
C42	C	-1.045905	-0.052136	0.238997
C43	C	-1.045909	-0.052136	0.325544
C44	C	-0.988871	-0.103572	0.368818
C45	C	-0.931821	-0.155008	0.325541
C46	C	-0.931814	-0.155004	0.238995
C47	C	-0.931847	-0.155023	0.674569
C48	C	-0.931860	-0.155024	0.761121
C49	C	-1.045941	-0.052155	0.761118
C50	C	-1.045934	-0.052151	0.674573
C51	C	-0.988882	-0.103583	0.631303
C52	C	-0.988878	-0.103582	0.537459
C53	C	-0.988879	-0.103578	0.462661
N54	N	-0.988901	-0.103587	0.804394
H55	H	-0.577880	0.011101	0.056340
H56	H	-0.416628	-0.113889	-0.137211
H57	H	-0.433187	0.013431	-0.055618
H58	H	-0.414016	-0.118297	0.137345
C59	C	-1.108678	0.004434	0.626976
N60	N	-1.155934	0.047059	0.591127
C61	C	-1.108694	0.004429	0.808723
N62	N	-1.155958	0.047046	0.844577
H63	H	-0.885411	-0.196911	0.796353
H64	H	-1.129552	0.285740	0.000074
H65	H	-0.885362	-0.196885	0.203765
H66	H	-1.092355	-0.010254	0.203769
C67	C	-0.427756	0.025201	0.076439
N68	N	-0.408956	0.058866	0.133733
H69	H	-0.577325	0.011312	-0.056319
C70	C	-0.869196	-0.211698	0.626984
N71	N	-0.822043	-0.254424	0.591139
H72	H	-0.546690	-0.206534	0.083603
H73	H	-0.402497	-0.204412	-0.082089
C74	C	-0.550417	-0.229026	-0.082418
N75	N	-0.564668	-0.291763	-0.085396
H76	H	-1.125053	0.539843	0.000070
C77	C	-0.869072	-0.211581	0.373146
N78	N	-0.821807	-0.254194	0.409001
H79	H	-0.848204	0.507102	0.000032
C80	C	-0.569913	-0.107432	-0.157399
N81	N	-0.598845	-0.078580	-0.216853
H82	H	-1.122518	0.683068	0.000065
H83	H	-0.558819	-0.115535	0.136950
C84	C	-0.823669	0.659018	0.000028
N85	N	-0.759875	0.684244	0.000016
H86	H	-0.855239	0.109776	0.000046
H87	H	-1.132087	0.142527	0.000086
C88	C	-0.391425	-0.227783	0.078548
N89	N	-0.358973	-0.289865	0.079081
C90	C	-0.830706	0.261701	0.000048
N91	N	-0.766914	0.286930	0.000053
H92	H	-1.092357	-0.010255	0.360776
