data_functionalizedCrystal
_audit_creation_method	'MofGen! by Chris Wilmer'
_symmetry_space_group_name_H-M	'P1'
_symmetry_Int_Tables_number	1
_symmetry_cell_setting	triclinic
loop_
_symmetry_equiv_pos_as_xyz
  x,y,z
_cell_length_a	27.732048
_cell_length_b	10.065875
_cell_length_c	11.026607
_cell_angle_alpha	100.731764
_cell_angle_beta	95.614336
_cell_angle_gamma	81.332037
loop_
_atom_site_label
_atom_site_type_symbol
_atom_site_fract_x
_atom_site_fract_y
_atom_site_fract_z
O1	O	0.659402	-0.113310	0.126245
O2	O	0.520583	-0.113350	0.148157
O3	O	0.578488	-0.113328	-0.039236
O4	O	0.601498	-0.113332	0.313638
O5	O	0.567458	0.113656	-0.003360
O6	O	0.509554	0.113635	0.184033
O7	O	0.648373	0.113675	0.162120
Zn8	Zn	0.577213	0.149693	0.178773
Zn9	Zn	0.591744	-0.149369	0.131505
O10	O	0.590469	0.113653	0.349514
C11	C	0.497021	0.000137	0.165634
C12	C	0.443242	0.000121	0.164246
C13	C	0.568728	0.000161	-0.066430
C14	C	0.556074	0.000153	-0.200908
N15	N	0.567299	0.353795	0.211031
C16	C	0.113605	0.000180	0.266272
C17	C	-0.088518	0.000192	0.261134
O18	O	-0.111381	0.000250	0.354430
N19	N	-0.117641	0.000190	0.150015
C20	C	-0.096232	0.000195	0.040175
O21	O	-0.125642	0.000208	-0.054454
C22	C	0.105890	0.000192	0.045316
C23	C	0.135011	0.000180	0.156440
C24	C	0.142726	0.000169	0.377388
C25	C	0.193254	0.000158	0.378670
C26	C	0.214661	0.000159	0.268837
C27	C	0.185539	0.000169	0.157722
C28	C	0.127298	0.000207	-0.064522
C29	C	0.177831	0.000210	-0.063226
C30	C	0.206953	0.000197	0.047898
C31	C	0.257474	0.000159	0.049172
N32	N	0.286597	0.000161	0.160290
C33	C	0.265191	0.000160	0.270123
C34	C	-0.202348	0.000194	0.037483
C35	C	-0.252878	0.000192	0.036197
C36	C	-0.245161	0.000191	0.257157
C37	C	-0.194629	0.000183	0.258440
C38	C	-0.173225	0.000195	0.148601
C39	C	0.371303	0.000137	0.272807
C40	C	0.421836	0.000121	0.274079
C41	C	0.414113	0.000129	0.053121
C42	C	0.363586	0.000138	0.051847
C43	C	0.342182	0.000147	0.161701
O44	O	0.280369	0.000117	-0.044073
O45	O	0.294608	0.000178	0.364743
C46	C	0.063077	0.000190	0.264990
C47	C	0.033955	0.000201	0.153875
C48	C	0.055362	0.000201	0.044042
C49	C	-0.016575	0.000199	0.152589
C50	C	-0.037981	0.000199	0.262422
C51	C	-0.008858	0.000200	0.373541
C52	C	0.041670	0.000190	0.374823
C53	C	0.026238	0.000200	-0.067076
C54	C	-0.024289	0.000209	-0.068350
C55	C	-0.045696	0.000209	0.041483
C56	C	0.671936	0.000185	0.144643
C57	C	0.725715	0.000191	0.146029
N58	N	0.601661	-0.353471	0.099237
C59	C	0.588291	0.421582	0.142721
C60	C	0.580666	0.578746	0.167557
C61	C	0.591015	0.000161	-0.275368
C62	C	0.577937	0.000152	-0.414358
C63	C	0.600229	0.000161	0.376707
C64	C	0.612884	0.000160	0.511184
H65	H	0.353882	0.000149	0.362262
H66	H	0.652488	0.000069	-0.449689
H67	H	-0.170922	0.000181	0.348928
H68	H	-0.026295	0.000194	0.462970
O69	O	0.549389	0.655967	0.269412
H70	H	0.511735	0.628645	0.250617
H71	H	0.630611	0.000181	-0.236216
O72	O	0.536016	0.431024	0.312863
H73	H	0.534939	0.542348	0.316397
H74	H	0.125303	0.000173	0.466833
H75	H	0.516478	0.000132	-0.240060
H76	H	-0.276584	0.000180	-0.054295
H77	H	0.043662	0.000204	-0.156517
O78	O	0.453246	0.000129	0.393941
H79	H	0.429867	0.000152	0.470099
O80	O	0.224660	0.000186	0.498531
H81	H	0.201277	0.000209	0.574682
H82	H	0.625278	0.588217	0.022358
H83	H	-0.047996	0.000208	-0.158849
O84	O	-0.268254	0.000211	0.375628
H85	H	-0.308283	0.000227	0.356056
O86	O	-0.179265	0.000206	-0.080994
H87	H	-0.186320	-0.092315	-0.148832
O88	O	0.095893	0.000249	-0.184373
H89	H	0.119275	0.000275	-0.260513
O90	O	0.200919	0.000217	-0.181698
H91	H	0.172177	0.000215	-0.259177
O92	O	0.619560	0.344331	0.040868
H93	H	0.650646	0.279207	0.081021
O94	O	0.332171	0.000146	-0.068003
H95	H	0.355548	0.000151	-0.144159
O96	O	0.437205	0.000149	-0.065337
H97	H	0.477233	0.000162	-0.045762
H98	H	0.065377	0.000181	0.465312
H99	H	0.538338	0.000132	-0.453504
