data_functionalizedCrystal
_audit_creation_method	'MofGen! by Chris Wilmer'
_symmetry_space_group_name_H-M	'P1'
_symmetry_Int_Tables_number	1
_symmetry_cell_setting	triclinic
loop_
_symmetry_equiv_pos_as_xyz
  x,y,z
_cell_length_a	13.635800
_cell_length_b	27.953605
_cell_length_c	11.102264
_cell_angle_alpha	101.382668
_cell_angle_beta	71.394496
_cell_angle_gamma	99.347240
loop_
_atom_site_label
_atom_site_type_symbol
_atom_site_fract_x
_atom_site_fract_y
_atom_site_fract_z
V1	V	1.911367	0.151269	0.177651
O2	O	1.987639	0.148389	-0.006673
O3	O	1.810330	0.150235	0.350459
O4	O	1.878029	0.217243	0.175736
O5	O	1.919472	0.080918	0.169260
V6	V	2.164321	0.142854	0.155507
O7	O	2.017444	0.169727	0.226225
O8	O	2.283343	0.124396	0.106932
O9	O	2.153754	0.143888	-0.017302
O10	O	2.146747	0.145735	0.339831
O11	O	2.214915	0.213206	0.163898
O12	O	2.086056	0.076881	0.157422
V13	V	2.411367	0.151269	0.177651
O14	O	2.487639	0.148389	-0.006673
O15	O	2.310330	0.150235	0.350459
O16	O	2.378029	0.217243	0.175736
O17	O	2.419472	0.080918	0.169260
V18	V	2.664321	0.142854	0.155507
O19	O	2.517444	0.169727	0.226225
O20	O	2.783343	0.124396	0.106932
O21	O	2.653754	0.143888	-0.017302
O22	O	2.646747	0.145735	0.339831
O23	O	2.714915	0.213206	0.163898
O24	O	2.586056	0.076881	0.157422
C25	C	1.714434	0.147849	0.392560
C26	C	1.672408	0.147444	0.533839
C27	C	1.800791	0.233323	0.169682
C28	C	1.813667	0.287256	0.169259
C29	C	1.860755	0.628643	0.283263
C30	C	1.909169	0.831352	0.281751
O31	O	1.887566	0.863458	0.380609
N32	N	1.948032	0.849768	0.165091
C33	C	1.974799	0.817503	0.048801
O34	O	2.008975	0.837818	-0.050459
C35	C	1.926392	0.614795	0.050314
C36	C	1.887518	0.596382	0.166981
C37	C	1.821885	0.610229	0.399920
C38	C	1.809778	0.559555	0.400296
C39	C	1.836540	0.527294	0.284015
C40	C	1.875410	0.545708	0.167358
C41	C	1.953165	0.582531	-0.065974
C42	C	1.941062	0.531852	-0.065585
C43	C	1.902189	0.513439	0.051082
C44	C	1.890065	0.462772	0.051453
N45	N	1.851202	0.444357	0.168113
C46	C	1.824440	0.476617	0.284394
C47	C	2.000209	0.923928	0.048015
C48	C	2.012309	0.974604	0.047636
C49	C	1.946681	0.988450	0.280587
C50	C	1.934574	0.937772	0.280964
C51	C	1.961347	0.905512	0.164675
C52	C	1.799014	0.370197	0.285175
C53	C	1.786905	0.319517	0.285541
C54	C	1.852539	0.305676	0.052591
C55	C	1.864643	0.356351	0.052224
C56	C	1.837881	0.388611	0.168527
O57	O	1.911657	0.430638	-0.047352
O58	O	1.790288	0.456293	0.383641
C59	C	1.872863	0.679317	0.282886
C60	C	1.911733	0.697731	0.166229
C61	C	1.938496	0.665470	0.049948
C62	C	1.923833	0.748407	0.165850
C63	C	1.897071	0.780668	0.282131
C64	C	1.858209	0.762253	0.398792
C65	C	1.846101	0.711578	0.399168
C66	C	1.977358	0.683886	-0.066712
C67	C	1.989462	0.734561	-0.067079
C68	C	1.962700	0.766822	0.049202
C69	C	2.081318	0.146273	-0.059396
C70	C	2.112963	0.146682	-0.200673
C71	C	1.998440	1.060798	0.163485
C72	C	1.985547	1.006865	0.163918
C73	C	2.292096	0.141846	-0.213696
C74	C	2.396525	0.139621	-0.286577
C75	C	2.426251	0.140004	-0.419319
C76	C	2.351539	0.142611	-0.479182
C77	C	2.247110	0.144836	-0.406301
C78	C	2.217393	0.144454	-0.273556
C79	C	2.067979	0.149668	-0.393280
C80	C	2.038251	0.149289	-0.260537
C81	C	1.993267	0.152275	-0.453144
C82	C	1.888837	0.154503	-0.380261
C83	C	1.859112	0.154121	-0.247511
C84	C	1.933822	0.151513	-0.187656
C85	C	2.214434	0.147849	0.392560
C86	C	2.172408	0.147444	0.533839
C87	C	1.583279	0.057814	0.761947
C88	C	1.597946	0.013574	0.676887
C89	C	1.637434	0.013957	0.544145
C90	C	1.662254	0.058583	0.496461
C91	C	1.647587	0.102822	0.581521
C92	C	1.608100	0.102435	0.714265
C93	C	1.657741	0.191683	0.618899
C94	C	1.618260	0.191302	0.751642
C95	C	1.682560	0.236309	0.571215
C96	C	1.667900	0.280550	0.656276
C97	C	1.628411	0.280166	0.789026
C98	C	1.603593	0.235542	0.836702
C99	C	2.300791	0.233323	0.169682
C100	C	2.313667	0.287256	0.169259
C101	C	2.581318	0.146273	-0.059396
C102	C	2.612963	0.146682	-0.200673
C103	C	2.494963	0.060798	0.163480
C104	C	2.471709	0.006864	0.163895
C105	C	2.407568	0.315057	0.175427
C106	C	2.419685	0.365733	0.175014
C107	C	2.337897	0.388607	0.168442
C108	C	2.243989	0.360803	0.162270
C109	C	2.231876	0.310127	0.162674
C110	C	2.371272	-0.015998	0.170453
C111	C	2.349411	-0.066675	0.170829
C112	C	2.427988	-0.094489	0.164656
C113	C	2.528435	-0.071624	0.158093
C114	C	2.550296	-0.020948	0.157709
H115	H	1.755246	0.304529	0.380549
H116	H	1.551135	0.057498	0.870032
N117	N	2.491132	0.291706	0.182140
N118	N	2.574966	0.316541	0.187634
H119	H	2.633991	0.300053	0.192368
N120	N	2.405663	-0.146252	0.165071
N121	N	2.475820	-0.171084	0.159569
H122	H	2.460049	-0.207642	0.159867
H123	H	2.017477	0.152584	-0.561230
H124	H	1.774079	0.155938	-0.188176
N125	N	2.515608	0.394134	0.181312
N126	N	2.567354	0.417597	0.092441
H127	H	2.635100	0.437655	0.096886
H128	H	1.962868	0.505587	-0.160284
N129	N	2.532915	0.137728	-0.493794
N130	N	2.558039	0.103045	-0.583772
H131	H	2.633370	0.101437	-0.636373
H132	H	2.347774	0.429871	0.168114
H133	H	2.177402	0.379435	0.156919
N134	N	2.135949	0.281728	0.156413
N135	N	2.125125	0.236483	0.156792
H136	H	2.057372	0.216427	0.152374
N137	N	2.290991	0.012398	0.176731
N138	N	2.201328	-0.008031	0.182555
H139	H	2.144626	0.012019	0.186970
H140	H	1.828015	0.156623	-0.429014
H141	H	1.777219	0.396458	0.379880
N142	N	2.246801	-0.090017	0.177532
N143	N	2.176656	-0.065173	0.183057
H144	H	2.104186	-0.081656	0.187792
N145	N	1.903465	0.151133	-0.052060
N146	N	1.941625	0.184243	0.018729
H147	H	1.920188	0.183974	0.114495
H148	H	2.592408	-0.094278	0.153064
H149	H	2.267902	0.141539	-0.105609
H150	H	2.632082	-0.002338	0.152376
N151	N	2.029180	0.753374	-0.186249
N152	N	2.039998	0.798621	-0.186587
H153	H	2.068055	0.811907	-0.270747
N154	N	1.722885	0.236692	0.435619
N155	N	1.735977	0.197191	0.359684
H156	H	1.764458	0.197462	0.263917
N157	N	1.770238	0.540764	0.519494
N158	N	1.746467	0.569585	0.623306
H159	H	1.718608	0.556319	0.707502
N160	N	2.004710	0.650943	-0.185509
N161	N	2.039410	0.667398	-0.289652
H162	H	2.058727	0.644134	-0.373561
H163	H	1.984811	0.597514	-0.160977
N164	N	1.794545	0.643172	0.518722
N165	N	1.759845	0.626714	0.622861
H166	H	1.740527	0.649977	0.706773
H167	H	1.902920	0.922784	0.375964
H168	H	1.924888	1.014726	0.375268
H169	H	1.874323	0.279400	-0.042082
N170	N	2.051996	0.993401	-0.071549
N171	N	2.075884	0.964585	-0.175357
H172	H	2.103917	0.977858	-0.259538
H173	H	2.022014	0.897665	-0.046687
H174	H	1.896302	0.371344	-0.042775
H175	H	1.814447	0.696592	0.494170
H176	H	1.577732	-0.022759	0.715726
H177	H	1.836414	0.788528	0.493472
N178	N	2.472823	0.136965	-0.225400
N179	N	2.487654	0.170571	-0.138330
H180	H	2.541539	0.168696	-0.095124
H181	H	1.649367	-0.022067	0.474887
N182	N	1.702569	0.058964	0.360864
N183	N	1.715648	0.019462	0.284931
H184	H	1.744120	0.019731	0.189163
N185	N	2.381898	0.142973	-0.614786
N186	N	2.343730	0.109850	-0.685538
H187	H	2.365174	0.110097	-0.781315
N188	N	1.693244	0.326125	0.607546
N189	N	1.728488	0.326459	0.489023
H190	H	1.746389	0.358647	0.454601
H191	H	1.616465	0.316191	0.858276
H192	H	1.571443	0.235225	0.944786
