data_functionalizedCrystal
_audit_creation_method	'MofGen! by Chris Wilmer'
_symmetry_space_group_name_H-M	'P1'
_symmetry_Int_Tables_number	1
_symmetry_cell_setting	triclinic
loop_
_symmetry_equiv_pos_as_xyz
  x,y,z
_cell_length_a	19.288864
_cell_length_b	19.288857
_cell_length_c	17.766277
_cell_angle_alpha	89.991474
_cell_angle_beta	89.976791
_cell_angle_gamma	83.134677
loop_
_atom_site_label
_atom_site_type_symbol
_atom_site_fract_x
_atom_site_fract_y
_atom_site_fract_z
O1	O	0.921351	0.086649	-0.062839
O2	O	1.254684	0.419982	0.270494
O3	O	1.588017	0.753316	0.603828
O4	O	0.719090	0.098338	-0.062788
O5	O	1.052423	0.431671	0.270545
O6	O	1.385756	0.765005	0.603879
O7	O	0.826067	-0.008637	-0.062806
O8	O	1.159401	0.324696	0.270527
O9	O	1.492734	0.658029	0.603861
O10	O	0.814373	0.193624	-0.062821
O11	O	1.147706	0.526957	0.270512
O12	O	1.481040	0.860291	0.603846
O13	O	0.826049	-0.008643	0.062382
O14	O	1.159382	0.324691	0.395716
O15	O	1.492715	0.658024	0.729049
O16	O	0.719071	0.098332	0.062400
O17	O	1.052404	0.431666	0.395734
O18	O	1.385738	0.764999	0.729067
O19	O	0.921332	0.086644	0.062349
O20	O	1.254665	0.419977	0.395683
O21	O	1.587999	0.753310	0.729016
Cu22	Cu	0.820200	0.092488	0.073806
Cu23	Cu	1.153533	0.425821	0.407139
Cu24	Cu	1.486866	0.759154	0.740472
Cu25	Cu	0.820222	0.092494	-0.074244
Cu26	Cu	1.153555	0.425827	0.259089
Cu27	Cu	1.486889	0.759161	0.592422
O28	O	0.814354	0.193619	0.062367
O29	O	1.147688	0.526952	0.395701
O30	O	1.481021	0.860285	0.729034
C31	C	0.693204	0.097959	-0.000187
C32	C	1.026537	0.431292	0.333146
C33	C	1.359871	0.764626	0.666479
C34	C	0.616100	0.096830	-0.000167
C35	C	0.949434	0.430163	0.333166
C36	C	1.282767	0.763497	0.666499
C37	C	0.825683	-0.034516	-0.000211
C38	C	1.159016	0.298817	0.333122
C39	C	1.492349	0.632150	0.666456
C40	C	0.824556	-0.111620	-0.000209
C41	C	1.157889	0.221713	0.333125
C42	C	1.491222	0.555046	0.666458
C43	C	0.571402	0.159598	-0.000184
C44	C	0.904736	0.492931	0.333149
C45	C	1.238069	0.826265	0.666483
C46	C	0.498955	0.158537	-0.000192
C47	C	0.832289	0.491871	0.333141
C48	C	1.165622	0.825204	0.666474
C49	C	0.471210	0.094705	-0.000199
C50	C	0.804543	0.428038	0.333134
C51	C	1.137876	0.761372	0.666468
C52	C	0.515917	0.031929	-0.000178
C53	C	0.849251	0.365262	0.333155
C54	C	1.182584	0.698595	0.666488
C55	C	0.588363	0.032991	-0.000162
C56	C	0.921696	0.366325	0.333171
C57	C	1.255029	0.699658	0.666504
C58	C	0.362955	0.044528	-0.044080
C59	C	0.696289	0.377861	0.289254
C60	C	1.029622	0.711194	0.622587
C61	C	0.290511	0.043468	-0.044100
C62	C	0.623844	0.376801	0.289233
C63	C	0.957178	0.710134	0.622567
C64	C	0.247764	0.091425	-0.000244
C65	C	0.581097	0.424759	0.333089
C66	C	0.914431	0.758092	0.666422
C67	C	0.277469	0.140455	0.043622
C68	C	0.610802	0.473788	0.376955
C69	C	0.944135	0.807121	0.710289
C70	C	0.349914	0.141517	0.043638
C71	C	0.683248	0.474851	0.376971
C72	C	1.016581	0.808184	0.710305
C73	C	0.392656	0.093546	-0.000216
C74	C	0.725989	0.426879	0.333118
C75	C	1.059322	0.760213	0.666451
C76	C	0.124510	0.153048	-0.000269
C77	C	0.457843	0.486381	0.333065
C78	C	0.791177	0.819714	0.666398
C79	C	0.052062	0.151984	-0.000272
C80	C	0.385395	0.485318	0.333061
C81	C	0.718729	0.818651	0.666394
C82	C	0.069026	0.025374	-0.000266
C83	C	0.402359	0.358707	0.333067
C84	C	0.735692	0.692041	0.666401
C85	C	0.141472	0.026439	-0.000255
C86	C	0.474805	0.359772	0.333079
C87	C	0.808139	0.693106	0.666412
C88	C	0.169210	0.090278	-0.000260
C89	C	0.502543	0.423611	0.333074
C90	C	0.835876	0.756945	0.666407
C91	C	0.824040	-0.147828	-0.068449
C92	C	1.157373	0.185505	0.264885
C93	C	1.490707	0.518839	0.598218
C94	C	0.822971	-0.220274	-0.068454
C95	C	1.156305	0.113059	0.264879
C96	C	1.489638	0.446393	0.598213
C97	C	0.822432	-0.256511	-0.000215
C98	C	1.155766	0.076822	0.333118
C99	C	1.489099	0.410155	0.666451
C100	C	0.822944	-0.220295	0.068034
C101	C	1.156278	0.113039	0.401367
C102	C	1.489611	0.446372	0.734701
C103	C	0.824006	-0.147849	0.068037
C104	C	1.157339	0.185484	0.401371
C105	C	1.490673	0.518818	0.734704
C106	C	0.861426	-0.376745	0.052050
C107	C	1.194759	-0.043412	0.385383
C108	C	1.528093	0.289921	0.718716
C109	C	0.860369	-0.449190	0.052044
C110	C	1.193702	-0.115857	0.385377
C111	C	1.527035	0.217477	0.718710
C112	C	0.819155	-0.479957	-0.000223
C113	C	1.152488	-0.146624	0.333110
C114	C	1.485821	0.186709	0.666444
C115	C	0.779007	-0.438272	-0.052496
C116	C	1.112340	-0.104939	0.280837
C117	C	1.445674	0.228395	0.614171
C118	C	0.780069	-0.365827	-0.052493
C119	C	1.113402	-0.032493	0.280841
C120	C	1.446735	0.300840	0.614174
C121	C	0.821281	-0.335066	-0.000211
C122	C	1.154614	-0.001733	0.333122
C123	C	1.487947	0.331600	0.666455
C124	C	0.817479	-0.594719	-0.068474
C125	C	1.150812	-0.261386	0.264860
C126	C	1.484146	0.071948	0.598193
C127	C	0.816406	-0.667166	-0.068476
C128	C	1.149739	-0.333833	0.264857
C129	C	1.483073	-0.000499	0.598190
C130	C	0.816386	-0.667186	0.068014
C131	C	1.149719	-0.333853	0.401347
C132	C	1.483053	-0.000519	0.734680
C133	C	0.817452	-0.594740	0.068014
C134	C	1.150785	-0.261406	0.401348
C135	C	1.484119	0.071927	0.734681
C136	C	0.818002	-0.558511	-0.000232
C137	C	1.151335	-0.225178	0.333102
C138	C	1.484668	0.108156	0.666435
C139	C	0.947218	0.087022	-0.000253
C140	C	1.280551	0.420356	0.333080
C141	C	1.613884	0.753689	0.666414
C142	C	1.024321	0.088151	-0.000278
C143	C	1.357655	0.421485	0.333055
C144	C	1.690988	0.754818	0.666389
C145	C	0.814739	0.219498	-0.000229
C146	C	1.148072	0.552831	0.333104
C147	C	1.481406	0.886165	0.666437
C148	C	0.815866	0.296602	-0.000237
C149	C	1.149199	0.629935	0.333097
C150	C	1.482533	0.963269	0.666430
N151	N	0.820189	0.092483	0.177936
N152	N	1.153523	0.425816	0.511269
N153	N	1.486856	0.759149	0.844603
N154	N	0.820238	0.092493	-0.178375
N155	N	1.153571	0.425827	0.154959
N156	N	1.486905	0.759160	0.488292
C157	C	0.867574	0.045137	0.217315
C158	C	1.200908	0.378471	0.550648
C159	C	1.534241	0.711804	0.883982
C160	C	0.867578	0.045134	0.296117
C161	C	1.200912	0.378467	0.629450
C162	C	1.534245	0.711801	0.962783
C163	C	0.820204	0.092488	0.335537
C164	C	1.153537	0.425821	0.668870
C165	C	1.486871	0.759155	1.002203
C166	C	0.772810	0.139837	0.296148
C167	C	1.106143	0.473171	0.629481
C168	C	1.439477	0.806504	0.962815
C169	C	0.772803	0.139834	0.217348
C170	C	1.106136	0.473168	0.550681
C171	C	1.439469	0.806501	0.884014
C172	C	0.810903	0.155776	0.460371
C173	C	1.144237	0.489109	0.793705
C174	C	1.477570	0.822443	1.127038
C175	C	0.810915	0.155780	0.539170
C176	C	1.144249	0.489113	0.872503
C177	C	1.477582	0.822446	1.205837
C178	C	0.820222	0.092496	0.578583
C179	C	1.153556	0.425830	0.911916
C180	C	1.486889	0.759163	1.245250
C181	C	0.829532	0.029207	0.539187
C182	C	1.162865	0.362540	0.872520
C183	C	1.496199	0.695873	1.205854
C184	C	0.829525	0.029204	0.460387
C185	C	1.162858	0.362537	0.793720
C186	C	1.496191	0.695871	1.127054
C187	C	0.820206	0.092496	0.420982
C188	C	1.153540	0.425829	0.754316
C189	C	1.486873	0.759163	1.087649
C190	C	0.867614	0.045144	0.703408
C191	C	1.200948	0.378477	1.036741
C192	C	1.534281	0.711810	1.370074
C193	C	0.867614	0.045139	0.782211
C194	C	1.200947	0.378473	1.115544
C195	C	1.534280	0.711806	1.448878
C196	C	0.772849	0.139849	0.782241
C197	C	1.106182	0.473182	1.115574
C198	C	1.439515	0.806515	1.448907
C199	C	0.772846	0.139847	0.703439
C200	C	1.106180	0.473180	1.036772
C201	C	1.439513	0.806514	1.370106
C202	C	0.820233	0.092495	0.664027
C203	C	1.153566	0.425828	0.997361
C204	C	1.486899	0.759162	1.330694
H205	H	0.593981	0.211581	-0.000189
H206	H	0.927314	0.544914	0.333144
H207	H	1.260648	0.878247	0.666477
O208	O	0.721698	0.190907	0.174867
O209	O	1.055032	0.524240	0.508200
O210	O	1.388365	0.857573	0.841534
H211	H	0.688757	0.223839	0.215513
H212	H	1.022091	0.557172	0.548846
H213	H	1.355424	0.890505	0.882180
O214	O	0.636575	-0.034714	-0.000149
O215	O	0.969909	0.298619	0.333184
O216	O	1.303242	0.631953	0.666518
H217	H	0.669956	-0.037261	0.050886
H218	H	1.003289	0.296073	0.384219
H219	H	1.336623	0.629406	0.717552
H220	H	0.815942	-0.696689	0.123575
H221	H	1.149275	-0.363356	0.456909
H222	H	1.482608	-0.030022	0.790242
H223	H	0.894987	-0.351701	0.094617
H224	H	1.228320	-0.018368	0.427951
H225	H	1.561654	0.314966	0.761284
O226	O	0.824572	-0.108798	0.141646
O227	O	1.157905	0.224536	0.474980
O228	O	1.491238	0.557869	0.808313
H229	H	0.777723	-0.069452	0.144930
H230	H	1.111056	0.263881	0.478263
H231	H	1.444390	0.597214	0.811596
O232	O	0.918697	-0.005930	0.338598
O233	O	1.252030	0.327404	0.671931
O234	O	1.585363	0.660737	1.005264
H235	H	0.889578	-0.039621	0.374521
H236	H	1.222912	0.293712	0.707855
H237	H	1.556245	0.627045	1.041188
H238	H	0.147095	0.205029	-0.000262
H239	H	0.480428	0.538362	0.333072
H240	H	0.813762	0.871696	0.666405
O241	O	0.734546	-0.471449	-0.108867
O242	O	1.067879	-0.138116	0.224466
O243	O	1.401212	0.195218	0.557799
H244	H	0.678981	-0.450065	-0.101121
H245	H	1.012315	-0.116732	0.232212
H246	H	1.345648	0.216602	0.565545
H247	H	0.893062	-0.483125	0.094605
H248	H	1.226395	-0.149792	0.427938
H249	H	1.559729	0.183541	0.761271
O250	O	0.822375	-0.259374	0.141637
O251	O	1.155709	0.073959	0.474970
O252	O	1.489042	0.407292	0.808304
H253	H	0.821562	-0.315836	0.130171
H254	H	1.154895	0.017498	0.463504
H255	H	1.488229	0.350831	0.796838
H256	H	0.734264	0.178403	0.671375
H257	H	1.067597	0.511736	1.004708
H258	H	1.400930	0.845069	1.338041
O259	O	0.918706	-0.005952	0.660906
O260	O	1.252039	0.327381	0.994240
O261	O	1.585372	0.660714	1.327573
H262	H	0.889559	-0.039630	0.625034
H263	H	1.222892	0.293703	0.958367
H264	H	1.556226	0.627037	1.291700
O265	O	0.409062	-0.007206	-0.091377
O266	O	0.742395	0.326128	0.241956
O267	O	1.075728	0.659461	0.575289
H268	H	0.438332	0.021383	-0.132552
H269	H	0.771666	0.354717	0.200781
H270	H	1.104999	0.688050	0.534114
O271	O	0.839552	-0.039051	0.417892
O272	O	1.172886	0.294282	0.751225
O273	O	1.506219	0.627615	1.084559
H274	H	0.846020	-0.083059	0.458530
H275	H	1.179353	0.250274	0.791864
H276	H	1.512687	0.583607	1.125197
H277	H	0.906157	0.006579	0.185228
H278	H	1.239491	0.339912	0.518561
H279	H	1.572824	0.673246	0.851895
O280	O	0.003846	0.219687	-0.000287
O281	O	0.337179	0.553021	0.333046
O282	O	0.670512	0.886354	0.666379
H283	H	0.035308	0.264253	-0.000294
H284	H	0.368641	0.597587	0.333039
H285	H	0.701975	0.930920	0.666372
O286	O	0.039112	-0.043477	-0.000273
O287	O	0.372446	0.289856	0.333060
O288	O	0.705779	0.623189	0.666393
H289	H	-0.018773	-0.033672	-0.000291
H290	H	0.314560	0.299661	0.333042
H291	H	0.647893	0.632994	0.666376
H292	H	0.177867	-0.024674	-0.000245
H293	H	0.511200	0.308660	0.333088
H294	H	0.844533	0.641993	0.666421
O295	O	0.839565	-0.039057	0.581682
O296	O	1.172899	0.294276	0.915015
O297	O	1.506232	0.627610	1.248349
H298	H	0.837997	-0.028426	0.643095
H299	H	1.171330	0.304907	0.976428
H300	H	1.504663	0.638240	1.309762
O301	O	0.485998	-0.036922	-0.000186
O302	O	0.819332	0.296412	0.333147
O303	O	1.152665	0.629745	0.666481
H304	H	0.428113	-0.027116	-0.000207
H305	H	0.761446	0.306217	0.333126
H306	H	1.094779	0.639551	0.666460
H307	H	0.803340	0.207314	0.571240
H308	H	1.136673	0.540647	0.904573
H309	H	1.470006	0.873980	1.237907
O310	O	0.918731	-0.005921	0.824690
O311	O	1.252064	0.327412	1.158024
O312	O	1.585398	0.660746	1.491357
H313	H	0.951685	-0.038838	0.784043
H314	H	1.285018	0.294495	1.117376
H315	H	1.618352	0.627828	1.450709
O316	O	0.450731	0.226239	-0.000218
O317	O	0.784064	0.559572	0.333115
O318	O	1.117398	0.892906	0.666449
H319	H	0.482190	0.270808	-0.000224
H320	H	0.815523	0.604141	0.333109
H321	H	1.148857	0.937474	0.666442
H322	H	0.374097	0.181436	0.079358
H323	H	0.707430	0.514770	0.412691
H324	H	1.040764	0.848103	0.746025
O325	O	0.721770	0.190934	0.824761
O326	O	1.055103	0.524267	1.158095
O327	O	1.388437	0.857600	1.491428
H328	H	0.730459	0.245054	0.809613
H329	H	1.063792	0.578387	1.142947
H330	H	1.397125	0.911720	1.476280
O331	O	0.800862	0.224031	0.417855
O332	O	1.134195	0.557365	0.751189
O333	O	1.467529	0.890698	1.084522
H334	H	0.843226	0.255690	0.432938
H335	H	1.176560	0.589023	0.766271
H336	H	1.509893	0.922356	1.099605
H337	H	0.824486	-0.118335	-0.124020
H338	H	1.157819	0.214998	0.209313
H339	H	1.491152	0.548332	0.542647
O340	O	0.818026	-0.555682	0.141616
O341	O	1.151359	-0.222348	0.474950
O342	O	1.484692	0.110985	0.808283
H343	H	0.817480	-0.593050	0.189068
H344	H	1.150813	-0.259716	0.522401
H345	H	1.484147	0.073617	0.855735
O346	O	0.721718	0.190923	0.338655
O347	O	1.055051	0.524256	0.671988
O348	O	1.388384	0.857589	1.005322
H349	H	0.688059	0.161779	0.374591
H350	H	1.021392	0.495112	0.707924
H351	H	1.354725	0.828445	1.041258
O352	O	0.231376	0.192183	0.090934
O353	O	0.564710	0.525517	0.424267
O354	O	0.898043	0.858850	0.757601
H355	H	0.176011	0.183204	0.083564
H356	H	0.509344	0.516537	0.416898
H357	H	0.842677	0.849870	0.750231
H358	H	0.822547	-0.249759	-0.124025
H359	H	1.155880	0.083574	0.209308
H360	H	1.489214	0.416907	0.542641
O361	O	0.258474	-0.009417	-0.091400
O362	O	0.591807	0.323916	0.241933
O363	O	0.925140	0.657249	0.575266
H364	H	0.300369	-0.042599	-0.121878
H365	H	0.633702	0.290734	0.211455
H366	H	0.967035	0.624068	0.544789
O367	O	0.736759	-0.320862	-0.108856
O368	O	1.070093	0.012472	0.224478
O369	O	1.403426	0.345805	0.557811
H370	H	0.707914	-0.354420	-0.145198
H371	H	1.041248	-0.021087	0.188135
H372	H	1.374581	0.312246	0.521468
H373	H	0.817923	-0.565220	-0.124044
H374	H	1.151256	-0.231886	0.209290
H375	H	1.484589	0.101447	0.542623
O376	O	0.815823	-0.706221	-0.142081
O377	O	1.149156	-0.372887	0.191252
O378	O	1.482489	-0.039554	0.524585
H379	H	0.816380	-0.668854	-0.189533
H380	H	1.149714	-0.335521	0.143801
H381	H	1.483047	-0.002187	0.477134
