data_functionalizedCrystal
_audit_creation_method	'MofGen! by Chris Wilmer'
_symmetry_space_group_name_H-M	'P1'
_symmetry_Int_Tables_number	1
_symmetry_cell_setting	triclinic
loop_
_symmetry_equiv_pos_as_xyz
  x,y,z
_cell_length_a	8.597213
_cell_length_b	7.088929
_cell_length_c	16.109301
_cell_angle_alpha	83.776684
_cell_angle_beta	95.597737
_cell_angle_gamma	91.336194
loop_
_atom_site_label
_atom_site_type_symbol
_atom_site_fract_x
_atom_site_fract_y
_atom_site_fract_z
O1	O	2.032358	0.493768	-0.150230
O2	O	1.582915	0.419740	-0.155831
O3	O	1.819985	0.458769	-0.032210
O4	O	1.795288	0.454740	-0.273851
O5	O	1.851667	0.146009	-0.015651
O6	O	1.614597	0.106981	-0.139272
O7	O	2.064040	0.181009	-0.133671
Cu8	Cu	1.842211	0.115437	-0.134959
Cu9	Cu	1.804744	0.485312	-0.154543
O10	O	1.826970	0.141980	-0.257292
C11	C	1.541245	0.253887	-0.146028
C12	C	1.369878	0.225661	-0.141477
N13	N	1.868575	-0.144710	-0.121185
C14	C	2.105710	0.346866	-0.143475
C15	C	2.277076	0.375105	-0.148026
C16	C	1.834826	0.302223	0.007061
C17	C	1.831827	0.301727	0.099408
N18	N	1.778392	0.745461	-0.168310
C19	C	1.812129	0.298530	-0.296564
C20	C	1.815126	0.299039	-0.388911
C21	C	1.965523	0.323778	0.319389
C22	C	1.962692	0.323327	0.406157
C23	C	1.681419	0.276991	0.391101
C24	C	1.684251	0.277456	0.304334
C25	C	1.826308	0.300840	0.268481
C26	C	1.820645	0.299925	0.442016
C27	C	1.817574	0.299436	0.536094
C28	C	1.829380	0.301333	0.174397
H29	H	1.328724	0.524638	-0.157121
O30	O	1.308303	0.047209	-0.130777
C31	C	1.270798	-0.255236	-0.185688
C32	C	1.340577	-0.053191	-0.197919
H33	H	1.296893	-0.336480	-0.239953
H34	H	1.138912	-0.247094	-0.183873
H35	H	1.325028	-0.331756	-0.124142
H36	H	1.286469	0.023445	-0.259464
H37	H	1.472465	-0.061467	-0.199684
O38	O	2.103505	0.346174	0.284539
C39	C	2.286328	0.211631	0.203859
C40	C	2.130049	0.185994	0.243297
H41	H	2.307822	0.082166	0.170491
H42	H	2.385413	0.227843	0.255125
H43	H	2.281390	0.343953	0.156711
H44	H	2.134833	0.053671	0.290437
H45	H	2.031028	0.169893	0.191985
H46	H	1.565762	0.257949	0.420304
O47	O	1.667042	-0.175566	-0.226682
C48	C	1.570710	-0.129900	-0.372914
C49	C	1.696935	-0.219415	-0.306897
H50	H	1.594816	-0.165351	-0.437780
H51	H	1.572856	0.030685	-0.371856
H52	H	1.450934	-0.188879	-0.357963
H53	H	1.816772	-0.160587	-0.321802
H54	H	1.694651	-0.379995	-0.307968
O55	O	1.980005	-0.223558	-0.062818
C56	C	2.076215	-0.269427	0.083427
C57	C	1.949951	-0.179991	0.017413
H58	H	2.051942	-0.234270	0.148312
H59	H	2.196034	-0.210380	0.068591
H60	H	2.074086	-0.429976	0.082252
H61	H	1.951936	-0.019440	0.018553
H62	H	1.830189	-0.239187	0.032273
H63	H	2.076054	0.342010	0.447603
H64	H	1.570878	0.258781	0.262882
