data_functionalizedCrystal
_audit_creation_method	'MofGen! by Chris Wilmer'
_symmetry_space_group_name_H-M	'P1'
_symmetry_Int_Tables_number	1
_symmetry_cell_setting	triclinic
loop_
_symmetry_equiv_pos_as_xyz
  x,y,z
_cell_length_a	12.594517
_cell_length_b	14.908520
_cell_length_c	14.908308
_cell_angle_alpha	83.639235
_cell_angle_beta	93.277708
_cell_angle_gamma	86.679463
loop_
_atom_site_label
_atom_site_type_symbol
_atom_site_fract_x
_atom_site_fract_y
_atom_site_fract_z
Zn1	Zn	1.564384	0.389881	-0.532581
Zn2	Zn	1.564263	0.532526	-0.389952
Zn3	Zn	1.397293	0.381183	-0.381238
Zn4	Zn	1.375457	0.541199	-0.541259
O5	O	1.475349	0.461197	-0.461257
O6	O	1.713311	0.408814	-0.513676
O7	O	1.551202	0.505181	-0.262135
O8	O	1.428647	0.255672	-0.394035
O9	O	1.713223	0.513615	-0.408887
O10	O	1.551408	0.262063	-0.505227
O11	O	1.428530	0.393989	-0.255733
O12	O	1.245452	0.402398	-0.402450
O13	O	1.391430	0.528396	-0.666768
O14	O	1.229409	0.519961	-0.520017
O15	O	1.530234	0.417223	-0.660393
O16	O	1.530028	0.660341	-0.417301
O17	O	1.391313	0.666713	-0.528466
C18	C	1.458315	0.696371	-0.474791
C19	C	1.451123	0.796981	-0.480611
C20	C	1.198811	0.461178	-0.461230
C21	C	1.080504	0.461192	-0.461241
C22	C	1.458410	0.474747	-0.697340
C23	C	1.451191	0.480521	-0.797945
C24	C	1.019943	0.397174	-0.397406
C25	C	0.944781	0.478454	-0.379900
C26	C	0.944863	0.379953	-0.478764
C27	C	1.006900	0.542514	-0.443694
C28	C	1.006990	0.443959	-0.542593
C29	C	0.931853	0.525298	-0.525122
C30	C	1.752966	0.461218	-0.461286
C31	C	1.871270	0.461226	-0.461298
C32	C	1.492477	0.225106	-0.447691
C33	C	1.499775	0.124498	-0.441910
C34	C	1.582186	0.979348	-0.375884
C35	C	1.575433	1.073880	-0.381350
C36	C	1.430869	1.080579	-0.497011
C37	C	1.437622	0.986047	-0.491545
C38	C	1.513283	0.935435	-0.430979
C39	C	1.520030	0.840901	-0.425510
C40	C	1.375472	0.847602	-0.541175
C41	C	1.368718	0.942134	-0.546640
C42	C	1.582162	0.375587	-0.980354
C43	C	1.575383	0.381009	-1.074880
C44	C	1.430851	0.496783	-1.081527
C45	C	1.437629	0.491360	-0.987000
C46	C	1.513289	0.430761	-0.936417
C47	C	1.520072	0.425344	-0.841888
C48	C	1.375535	0.541113	-0.848536
C49	C	1.368756	0.546535	-0.943063
C50	C	1.492288	0.447635	-0.226089
C51	C	1.499731	0.441606	-0.125470
H52	H	1.058336	0.343082	-0.343364
C53	C	1.651152	0.320315	-1.123207
N54	N	1.708225	0.274597	-1.159607
H55	H	1.307121	0.983355	-0.595954
C56	C	1.347608	0.563413	-1.137183
N57	N	1.284901	0.613594	-1.179104
C58	C	1.665391	0.308932	-0.924710
N59	N	1.728080	0.258726	-0.882800
H60	H	0.917417	0.311243	-0.493532
H61	H	1.034166	0.611247	-0.428819
C62	C	1.347647	1.136268	-0.563627
N63	N	1.284961	1.178215	-0.613800
H64	H	1.319363	0.811837	-0.586034
C65	C	1.285528	0.613184	-0.998715
N66	N	1.222839	0.663385	-1.040631
H67	H	0.893649	0.579510	-0.579132
C68	C	1.651229	1.122181	-0.320737
N69	N	1.708321	1.158561	-0.275081
C70	C	0.907663	0.498172	-0.286993
N71	N	0.879707	0.513015	-0.217013
H72	H	1.319456	0.586043	-0.812753
C73	C	1.044150	0.424198	-0.635469
N74	N	1.072144	0.409303	-0.705422
C75	C	1.603258	0.785228	-0.358886
N76	N	1.665949	0.743299	-0.308705
C77	C	1.603295	0.358682	-0.786248
N78	N	1.665977	0.308466	-0.744342
H79	H	1.643785	0.938138	-0.326562
