data_functionalizedCrystal
_audit_creation_method	'MofGen! by Chris Wilmer'
_symmetry_space_group_name_H-M	'P1'
_symmetry_Int_Tables_number	1
_symmetry_cell_setting	triclinic
loop_
_symmetry_equiv_pos_as_xyz
  x,y,z
_cell_length_a	17.699083
_cell_length_b	10.654559
_cell_length_c	16.776229
_cell_angle_alpha	89.999122
_cell_angle_beta	89.993587
_cell_angle_gamma	96.114331
loop_
_atom_site_label
_atom_site_type_symbol
_atom_site_fract_x
_atom_site_fract_y
_atom_site_fract_z
O1	O	-1.005092	0.158792	0.066272
O2	O	-0.784846	0.179454	0.066276
O3	O	-0.900029	-0.013704	0.066272
O4	O	-0.889909	0.351950	0.066277
O5	O	-0.900012	-0.013694	-0.066305
O6	O	-0.784829	0.179465	-0.066300
O7	O	-1.005075	0.158802	-0.066304
Zn8	Zn	-0.894949	0.169135	-0.087352
Zn9	Zn	-0.894972	0.169122	0.087324
O10	O	-0.889892	0.351961	-0.066300
C11	C	-0.756635	0.178719	-0.000011
C12	C	-0.672603	0.176499	-0.000010
C13	C	-0.633120	0.175458	-0.072278
C14	C	-0.554164	0.173351	-0.072279
C15	C	-0.514692	0.172295	-0.000010
C16	C	-0.554181	0.173332	0.072264
C17	C	-0.633136	0.175429	0.072263
C18	C	-0.235765	0.164871	0.072266
C19	C	-0.156804	0.162777	0.072261
C20	C	-0.156793	0.162793	-0.072276
C21	C	-0.235748	0.164891	-0.072276
C22	C	-0.275230	0.165921	-0.000003
C23	C	-0.360843	0.168203	-0.000003
C24	C	-0.429080	0.170022	-0.000009
C25	C	-0.899276	-0.060483	-0.000015
C26	C	-0.897049	-0.199887	-0.000012
C27	C	-0.827137	-0.250203	-0.000007
C28	C	-0.825048	-0.381188	-0.000008
C29	C	-0.962790	-0.411532	-0.000017
C30	C	-0.964878	-0.280549	-0.000021
C31	C	-0.739448	-0.541969	-0.046448
C32	C	-0.669533	-0.592288	-0.046429
C33	C	-0.609412	-0.536380	0.000029
C34	C	-0.619204	-0.430155	0.046489
C35	C	-0.689121	-0.379842	0.046477
C36	C	-0.749239	-0.435748	-0.000000
C37	C	-1.050472	-0.119765	0.046425
C38	C	-1.120390	-0.069451	0.046419
C39	C	-1.180517	-0.125357	-0.000034
C40	C	-1.170733	-0.231589	-0.046481
C41	C	-1.100815	-0.281903	-0.046476
C42	C	-1.040688	-0.225988	-0.000023
C43	C	-0.033286	0.159530	-0.000014
C44	C	-0.117320	0.161727	-0.000008
C45	C	-0.890645	0.398740	-0.000011
C46	C	-0.892872	0.538144	-0.000009
N47	N	-0.894940	0.169144	-0.206563
C48	C	-0.945997	0.083604	-0.751730
C49	C	-0.945993	0.083613	-0.668277
C50	C	-0.894976	0.169116	-0.626562
C51	C	-0.843964	0.254625	-0.668304
C52	C	-0.843971	0.254621	-0.751754
C53	C	-0.843931	0.254643	-0.331757
C54	C	-0.843926	0.254638	-0.248300
C55	C	-0.945953	0.083635	-0.248280
C56	C	-0.945961	0.083631	-0.331730
C57	C	-0.894952	0.169144	-0.373464
C58	C	-0.894958	0.169135	-0.463953
C59	C	-0.894966	0.169120	-0.536075
N60	N	-0.894987	0.169103	0.206535
H61	H	-0.665252	0.176329	-0.131127
F62	F	-1.254933	-0.071812	-0.000031
H63	H	-0.788396	-0.587490	-0.084290
F64	F	-0.986476	-0.060248	0.095863
H65	H	-0.802397	0.324268	-0.365730
F66	F	-0.789624	0.345648	-0.203905
H67	H	-0.124637	0.161948	-0.131125
F68	F	-1.000245	-0.007372	-0.203857
H69	H	-0.802427	0.324250	-0.634334
F70	F	-1.130804	0.043608	0.095858
H71	H	-0.802435	0.324245	-0.785735
H72	H	-0.522022	0.172483	-0.131127
F73	F	-1.090404	-0.394972	-0.095906
F74	F	-0.277752	0.166023	-0.149194
F75	F	-1.000294	-0.007409	-0.796118
F76	F	-0.114797	0.161651	0.149182
F77	F	-0.754947	-0.164360	-0.000001
F78	F	-1.000284	-0.007384	-0.623859
F79	F	-1.234728	-0.291099	-0.095919
F80	F	-0.277775	0.165969	0.149186
F81	F	-0.512173	0.172169	0.149177
H82	H	-0.665282	0.176279	0.131112
F83	F	-0.699545	-0.266798	0.095918
H84	H	-0.987502	0.014002	-0.365692
F85	F	-0.555216	-0.370672	0.095946
F86	F	-0.535005	-0.589945	0.000054
F87	F	-0.659113	-0.705334	-0.095878
H88	H	-1.018014	-0.477223	-0.000022
