data_functionalizedCrystal
_audit_creation_method	'MofGen! by Chris Wilmer'
_symmetry_space_group_name_H-M	'P1'
_symmetry_Int_Tables_number	1
_symmetry_cell_setting	triclinic
loop_
_symmetry_equiv_pos_as_xyz
  x,y,z
_cell_length_a	29.839131
_cell_length_b	12.759395
_cell_length_c	12.759387
_cell_angle_alpha	89.980569
_cell_angle_beta	89.962744
_cell_angle_gamma	90.041266
loop_
_atom_site_label
_atom_site_type_symbol
_atom_site_fract_x
_atom_site_fract_y
_atom_site_fract_z
Zn1	Zn	-0.178832	1.606074	-0.593928
Zn2	Zn	-0.253969	1.605882	-0.418228
Zn3	Zn	-0.178854	1.430372	-0.418268
Zn4	Zn	-0.253935	1.430282	-0.593871
O5	O	-0.216397	1.518152	-0.506074
O6	O	-0.188804	1.753069	-0.570628
O7	O	-0.244029	1.582558	-0.271212
O8	O	-0.115984	1.453797	-0.441610
O9	O	-0.244007	1.752929	-0.441543
O10	O	-0.115967	1.582884	-0.570666
O11	O	-0.188842	1.453611	-0.271241
O12	O	-0.188809	1.283339	-0.441555
O13	O	-0.243949	1.453644	-0.740899
O14	O	-0.243970	1.283273	-0.570569
O15	O	-0.188771	1.582797	-0.740941
O16	O	-0.316832	1.582471	-0.441487
O17	O	-0.316807	1.453458	-0.570531
C18	C	-0.216388	1.245185	-0.506061
C19	C	-0.216395	1.128408	-0.506080
C20	C	-0.159005	1.128535	-0.640714
C21	C	-0.130315	1.073738	-0.708039
C22	C	-0.130323	0.964016	-0.708053
C23	C	-0.159023	0.909090	-0.640731
C24	C	-0.187713	0.963887	-0.573405
C25	C	-0.187703	1.073611	-0.573402
C26	C	-0.245100	0.963760	-0.438768
C27	C	-0.245095	1.073481	-0.438758
C28	C	-0.273800	0.908833	-0.371446
C29	C	-0.302493	0.963630	-0.304124
C30	C	-0.302484	1.073359	-0.304115
C31	C	-0.273785	1.128279	-0.371433
C32	C	-0.333120	1.517963	-0.506022
C33	C	-0.383054	1.517978	-0.506034
C34	C	-0.692698	1.585451	-0.438979
C35	C	-0.880371	1.585581	-0.439020
O36	O	-0.904636	1.642799	-0.381966
N37	N	-0.903839	1.518370	-0.506153
C38	C	-0.880386	1.451127	-0.573286
O39	O	-0.904654	1.393971	-0.630395
C40	C	-0.692714	1.451004	-0.573249
C41	C	-0.669249	1.518211	-0.506104
C42	C	-0.669232	1.652655	-0.371840
C43	C	-0.622317	1.652617	-0.371826
C44	C	-0.598867	1.585377	-0.438952
C45	C	-0.622333	1.518174	-0.506091
C46	C	-0.669262	1.383766	-0.640387
C47	C	-0.622341	1.383743	-0.640374
C48	C	-0.598875	1.450951	-0.573228
C49	C	-0.551968	1.450897	-0.573202
N50	N	-0.528500	1.518108	-0.506069
C51	C	-0.551949	1.585348	-0.438944
C52	C	-0.978917	1.451195	-0.573298
C53	C	-1.025835	1.451225	-0.573306
C54	C	-1.025816	1.585680	-0.439041
C55	C	-0.978898	1.585645	-0.439029
C56	C	-0.955449	1.518406	-0.506165
C57	C	-0.453424	1.585264	-0.438920
C58	C	-0.406504	1.585218	-0.438909
C59	C	-0.406527	1.450767	-0.573177
C60	C	-0.453442	1.450808	-0.573185
C61	C	-0.476889	1.518066	-0.506052
O62	O	-0.527674	1.393717	-0.630234
O63	O	-0.527674	1.642512	-0.381859
C64	C	-0.739614	1.585489	-0.438992
C65	C	-0.763079	1.518286	-0.506131
C66	C	-0.739630	1.451045	-0.573257
C67	C	-0.809997	1.518315	-0.506139
C68	C	-0.833447	1.585555	-0.439014
C69	C	-0.809979	1.652766	-0.371880
C70	C	-0.763063	1.652729	-0.371867
C71	C	-0.763098	1.383834	-0.640390
C72	C	-0.810013	1.383876	-0.640397
C73	C	-0.833463	1.451116	-0.573272
C74	C	-0.099219	1.518372	-0.506149
C75	C	-0.049285	1.518465	-0.506181
C76	C	-0.216353	1.518232	-0.780107
C77	C	-0.216335	1.518266	-0.896884
C78	C	-0.216407	1.792186	-0.506087
C79	C	-0.216411	1.908963	-0.506093
C80	C	-0.158881	1.652762	-0.896947
C81	C	-0.130148	1.720025	-0.951840
C82	C	-0.130132	1.720050	-1.061562
C83	C	-0.158851	1.652804	-1.116393
C84	C	-0.187584	1.585541	-1.061501
C85	C	-0.187598	1.585525	-0.951777
C86	C	-0.245034	1.451041	-1.061437
C87	C	-0.245054	1.451019	-0.951716
C88	C	-0.273754	1.383794	-1.116269
C89	C	-0.302490	1.316535	-1.061377
C90	C	-0.302505	1.316513	-0.951648
C91	C	-0.273787	1.383756	-0.896823
C92	C	-0.216409	1.518134	-0.233106
C93	C	-0.216301	1.518304	-0.116330
H94	H	-0.159024	0.819748	-0.640739
H95	H	-1.044937	1.396488	-0.627973
O96	O	-0.956212	1.385768	-0.638545
C97	C	-0.961194	1.252443	-0.771748
C98	C	-0.986960	1.326474	-0.697900
H99	H	-0.986043	1.204500	-0.819771
H100	H	-0.939280	1.197445	-0.723510
H101	H	-0.939177	1.300638	-0.826686
H102	H	-1.009001	1.278364	-0.642946
H103	H	-1.008846	1.381474	-0.746203
O104	O	-0.102398	1.126932	-0.773474
C105	C	-0.045502	1.115476	-0.907079
C106	C	-0.077087	1.055110	-0.833012
H107	H	-0.025036	1.057434	-0.955251
H108	H	-0.021949	1.166830	-0.859005
H109	H	-0.066164	1.166867	-0.961869
H110	H	-0.056461	1.003662	-0.778207
H111	H	-0.100641	1.003822	-0.881152
H112	H	-0.158994	1.217876	-0.640706
O113	O	-0.273821	1.383822	-1.222852
C114	C	-0.316867	1.410817	-1.380275
C115	C	-0.316853	1.410799	-1.259570
H116	H	-0.351652	1.432646	-1.409998
H117	H	-0.307563	1.329480	-1.410121
H118	H	-0.291381	1.470414	-1.410065
H119	H	-0.342340	1.351253	-1.229691
H120	H	-0.326137	1.492173	-1.229795
H121	H	-0.829080	1.707513	-0.317222
H122	H	-0.106959	0.919401	-0.762869
O123	O	-0.476249	1.650456	-0.373669
C124	C	-0.529243	1.664734	-0.231816
C125	C	-0.503427	1.590790	-0.305656
H126	H	-0.551215	1.616523	-0.176794
H127	H	-0.551195	1.719642	-0.280058
H128	H	-0.504402	1.712787	-0.183880
H129	H	-0.528236	1.542668	-0.353608
H130	H	-0.481468	1.535951	-0.257354
H131	H	-0.743961	1.707456	-0.317191
O132	O	-0.832785	1.318696	-0.705778
C133	C	-0.847071	1.267591	-0.884459
C134	C	-0.821265	1.341476	-0.810530
H135	H	-0.837759	1.285968	-0.969165
H136	H	-0.884638	1.279164	-0.873043
H137	H	-0.837894	1.182883	-0.865886
H138	H	-0.830404	1.426212	-0.829057
H139	H	-0.783703	1.329813	-0.821960
H140	H	-0.688360	1.329034	-0.695059
O141	O	-0.330354	0.910114	-0.238833
C142	C	-0.355776	0.741019	-0.179128
C143	C	-0.324207	0.801500	-0.253140
H144	H	-0.350810	0.653194	-0.190654
H145	H	-0.392020	0.762467	-0.197417
H146	H	-0.347845	0.762634	-0.094457
H147	H	-0.332096	0.779918	-0.337836
H148	H	-0.287972	0.780047	-0.234761
H149	H	-0.273803	0.819492	-0.371458
H150	H	-0.273799	1.383749	-0.807482
O151	O	-0.330397	1.126423	-0.238681
C152	C	-0.387300	1.114703	-0.105090
C153	C	-0.355719	1.054483	-0.179157
H154	H	-0.407774	1.056566	-0.056930
H155	H	-0.410845	1.166030	-0.153164
H156	H	-0.366635	1.166107	-0.050289
H157	H	-0.376348	1.003023	-0.233973
H158	H	-0.332172	1.003222	-0.131018
H159	H	-0.959795	1.640372	-0.384354
H160	H	-0.273773	1.217620	-0.371427
H161	H	-0.387427	1.396017	-0.627827
O162	O	-0.599595	1.718014	-0.306578
C163	C	-0.604546	1.851348	-0.173380
C164	C	-0.630330	1.777348	-0.247235
H165	H	-0.629384	1.899323	-0.125365
H166	H	-0.582556	1.906316	-0.221611
H167	H	-0.582605	1.803125	-0.118433
H168	H	-0.652296	1.825486	-0.302196
H169	H	-0.652292	1.722377	-0.198938
H170	H	-1.044917	1.640430	-0.384385
H171	H	-0.603251	1.328991	-0.695047
H172	H	-0.387400	1.639946	-0.384228
O173	O	-0.330376	1.251206	-0.898167
C174	C	-0.355886	1.191602	-0.729111
C175	C	-0.324292	1.265599	-0.789543
H176	H	-0.350985	1.203228	-0.641279
H177	H	-0.347984	1.106885	-0.750600
H178	H	-0.392104	1.209966	-0.750729
H179	H	-0.288064	1.247329	-0.767957
H180	H	-0.332232	1.350294	-0.768049
O181	O	-0.692012	1.718148	-0.306810
C182	C	-0.744893	1.860114	-0.292882
C183	C	-0.719129	1.785987	-0.366639
H184	H	-0.766830	1.914966	-0.341223
H185	H	-0.720058	1.908208	-0.244966
H186	H	-0.766888	1.811988	-0.237838
H187	H	-0.697133	1.834033	-0.421747
H188	H	-0.743989	1.737890	-0.414480
H189	H	-0.472549	1.396086	-0.627863
H190	H	-0.744009	1.329081	-0.695053
H191	H	-0.158896	1.652758	-0.807606
H192	H	-0.106765	1.774774	-0.907184
H193	H	-0.106732	1.774815	-1.106255
O194	O	-0.158789	1.652986	-1.222976
C195	C	-0.127218	1.726759	-1.380467
C196	C	-0.127249	1.726680	-1.259762
H197	H	-0.101713	1.786318	-1.410245
H198	H	-0.161991	1.748555	-1.410298
H199	H	-0.117905	1.645394	-1.410218
H200	H	-0.136542	1.808019	-1.229922
H201	H	-0.092472	1.704825	-1.230003
H202	H	-0.325868	1.261783	-1.106029
