data_functionalizedCrystal
_audit_creation_method	'MofGen! by Chris Wilmer'
_symmetry_space_group_name_H-M	'P1'
_symmetry_Int_Tables_number	1
_symmetry_cell_setting	triclinic
loop_
_symmetry_equiv_pos_as_xyz
  x,y,z
_cell_length_a	19.805407
_cell_length_b	12.759400
_cell_length_c	19.805399
_cell_angle_alpha	90.022119
_cell_angle_beta	90.019573
_cell_angle_gamma	90.013166
loop_
_atom_site_label
_atom_site_type_symbol
_atom_site_fract_x
_atom_site_fract_y
_atom_site_fract_z
Zn1	Zn	1.034798	-0.418291	0.382745
Zn2	Zn	1.034739	-0.593984	0.269568
Zn3	Zn	0.921613	-0.418320	0.269570
Zn4	Zn	0.921602	-0.593928	0.382715
O5	O	0.978188	-0.506131	0.326149
O6	O	1.129507	-0.441608	0.367744
O7	O	1.019712	-0.570717	0.174852
O8	O	0.936656	-0.271295	0.284597
O9	O	1.129463	-0.570689	0.284593
O10	O	1.019813	-0.271273	0.367746
O11	O	0.936599	-0.441657	0.174853
O12	O	0.826895	-0.441603	0.284567
O13	O	0.936638	-0.570594	0.477435
O14	O	0.826887	-0.570622	0.367694
O15	O	1.019803	-0.441554	0.477458
O16	O	1.019702	-0.740998	0.284563
O17	O	0.936581	-0.740957	0.367692
C18	C	0.802332	-0.506110	0.326128
C19	C	0.727100	-0.506127	0.326134
C20	C	0.691770	-0.573408	0.369348
C21	C	0.621081	-0.573410	0.369358
C22	C	0.585724	-0.506135	0.326149
C23	C	0.621060	-0.438847	0.282933
C24	C	0.691747	-0.438840	0.282928
C25	C	0.335986	-0.438870	0.282956
C26	C	0.265294	-0.438884	0.282963
C27	C	0.265321	-0.573440	0.369386
C28	C	0.336008	-0.573433	0.369380
C29	C	0.371337	-0.506141	0.326167
C30	C	0.447985	-0.506139	0.326158
C31	C	0.509077	-0.506142	0.326154
C32	C	0.978152	-0.779098	0.326139
C33	C	0.978199	-0.895875	0.326157
C34	C	1.021477	-0.950646	0.369488
C35	C	1.021509	-1.060370	0.369505
C36	C	0.934982	-1.060542	0.282853
C37	C	0.934948	-0.950820	0.282840
C38	C	1.064729	-0.895701	0.412805
C39	C	1.108011	-0.950472	0.456139
C40	C	1.108042	-1.060196	0.456156
C41	C	1.064792	-1.115149	0.412838
C42	C	1.154731	-0.506152	0.326172
C43	C	1.229963	-0.506160	0.326181
C44	C	0.978226	-0.506064	0.502692
C45	C	0.978242	-0.506036	0.577924
C46	C	0.978242	-0.232097	0.326175
C47	C	0.978265	-0.115321	0.326186
C48	C	0.978189	-0.506121	0.150293
C49	C	0.978304	-0.505853	0.075062
C50	C	1.021547	-0.438842	0.613281
C51	C	1.021554	-0.438811	0.683970
C52	C	0.978259	-0.505981	0.719300
C53	C	0.934949	-0.573179	0.683938
C54	C	0.934940	-0.573203	0.613251
C55	C	0.934988	-0.573081	0.969011
C56	C	0.935002	-0.573054	1.039704
C57	C	1.021602	-0.438689	1.039730
C58	C	1.021592	-0.438713	0.969043
C59	C	0.978280	-0.505906	0.933687
C60	C	0.978272	-0.505937	0.857039
C61	C	0.978270	-0.505957	0.795947
H62	H	0.364743	-0.384085	0.247764
N63	N	1.064702	-0.777357	0.412779
H64	H	1.098669	-0.750858	0.446792
H65	H	1.018235	-0.751038	0.425154
H66	H	0.236547	-0.628228	0.404575
H67	H	0.364792	-0.628219	0.404563
H68	H	0.592267	-0.384066	0.247755
N69	N	0.888273	-0.891727	0.236107
H70	H	0.839912	-0.910864	0.246576
H71	H	0.898875	-0.910868	0.187775
N72	N	1.154659	-0.891215	0.502860
H73	H	1.144123	-0.910276	0.551213
H74	H	1.148055	-0.813413	0.496219
H75	H	0.236509	-0.384094	0.247778
N76	N	1.154711	-1.119253	0.502913
H77	H	1.203074	-1.100118	0.492450
H78	H	1.148116	-1.197084	0.496343
N79	N	1.068317	-0.366210	1.077864
H80	H	1.061754	-0.376380	1.128005
H81	H	1.057798	-0.291179	1.065511
N82	N	1.068292	-0.366272	0.930937
H83	H	1.095726	-0.323697	0.964062
H84	H	1.040745	-0.317660	0.901608
H85	H	1.056818	-0.384097	0.712754
N86	N	1.064817	-1.233494	0.412861
H87	H	1.098794	-1.259856	0.446887
H88	H	1.077272	-1.259874	0.366422
N89	N	0.888341	-1.119806	0.236129
H90	H	0.894932	-1.197626	0.242710
H91	H	0.898901	-1.100655	0.187798
H92	H	1.056805	-0.384147	0.584520
H93	H	0.899696	-0.627866	0.712709
N94	N	0.888304	-0.645504	1.077812
H95	H	0.860863	-0.688073	1.044689
H96	H	0.856999	-0.602719	1.107141
H97	H	0.899731	-0.627809	0.940233
N98	N	0.888226	-0.645667	0.575112
H99	H	0.860800	-0.688215	0.608218
H100	H	0.915758	-0.694303	0.545780
H101	H	0.592318	-0.628198	0.404547
N102	N	0.729902	-0.645977	0.415948
H103	H	0.696791	-0.688598	0.443325
H104	H	0.759250	-0.603274	0.447316
N105	N	0.729857	-0.366266	0.236323
H106	H	0.696734	-0.323648	0.208951
H107	H	0.759170	-0.408959	0.204950
