data_functionalizedCrystal
_audit_creation_method	'MofGen! by Chris Wilmer'
_symmetry_space_group_name_H-M	'P1'
_symmetry_Int_Tables_number	1
_symmetry_cell_setting	triclinic
loop_
_symmetry_equiv_pos_as_xyz
  x,y,z
_cell_length_a	18.050589
_cell_length_b	19.077142
_cell_length_c	19.076919
_cell_angle_alpha	89.925643
_cell_angle_beta	92.275255
_cell_angle_gamma	92.276109
loop_
_atom_site_label
_atom_site_type_symbol
_atom_site_fract_x
_atom_site_fract_y
_atom_site_fract_z
Zn1	Zn	-0.359299	-1.058246	-0.440474
Zn2	Zn	-0.478707	-1.062878	-0.322974
Zn3	Zn	-0.349349	-0.945464	-0.318263
Zn4	Zn	-0.478257	-0.940700	-0.435722
O5	O	-0.416403	-1.001822	-0.379358
O6	O	-0.379491	-1.157192	-0.428847
O7	O	-0.457572	-1.051235	-0.224017
O8	O	-0.246747	-0.960480	-0.334491
O9	O	-0.467220	-1.160595	-0.342520
O10	O	-0.254058	-1.043340	-0.424279
O11	O	-0.362532	-0.964972	-0.220556
O12	O	-0.362096	-0.846501	-0.329884
O13	O	-0.466453	-0.952360	-0.534684
O14	O	-0.456805	-0.843000	-0.416181
O15	O	-0.379055	-1.038720	-0.538175
O16	O	-0.582569	-1.046615	-0.337913
O17	O	-0.582239	-0.956852	-0.420749
C18	C	-0.408322	-0.819254	-0.372006
C19	C	-0.404884	-0.741151	-0.368877
C20	C	-0.452647	-0.702656	-0.412267
C21	C	-0.449407	-0.629269	-0.409331
C22	C	-0.398406	-0.594378	-0.363001
C23	C	-0.350638	-0.632878	-0.319609
C24	C	-0.353875	-0.706263	-0.322550
C25	C	-0.383425	-0.375092	-0.349400
C26	C	-0.380193	-0.301701	-0.346462
C27	C	-0.478961	-0.298097	-0.436185
C28	C	-0.482197	-0.371485	-0.439118
C29	C	-0.434426	-0.409978	-0.395729
N30	N	-0.395094	-0.519365	-0.359997
N31	N	-0.437735	-0.484990	-0.398737
C32	C	-0.609351	-1.001738	-0.379343
C33	C	-0.691899	-1.001765	-0.379363
C34	C	-0.891198	-0.952998	-0.424394
C35	C	-0.937272	-0.938448	-0.359587
C36	C	-0.843032	-1.001834	-0.379375
C37	C	-0.944042	-1.016418	-0.444191
C38	C	-0.989021	-1.001898	-0.379392
C39	C	-0.888016	-0.987251	-0.314532
C40	C	-0.894786	-1.065249	-0.399180
C41	C	-0.940836	-1.050725	-0.334330
C42	C	-0.758932	-1.001794	-0.379366
C43	C	-1.073119	-1.001938	-0.379393
C44	C	-0.222703	-1.001925	-0.379389
C45	C	-0.140160	-1.001969	-0.379403
C46	C	-0.423814	-0.994492	-0.562638
C47	C	-0.426972	-0.991368	-0.640742
C48	C	-0.424512	-0.185103	-0.386731
C49	C	-0.427956	-0.263207	-0.389851
C50	C	-0.382954	-1.034862	-0.679253
C51	C	-0.385918	-1.031918	-0.752639
C52	C	-0.432905	-0.985485	-0.787512
C53	C	-0.476924	-0.941986	-0.748995
C54	C	-0.473956	-0.944927	-0.675611
C55	C	-0.446659	-0.971866	-1.006794
C56	C	-0.449626	-0.968930	-1.080184
C57	C	-0.358618	-1.058862	-1.083822
C58	C	-0.355657	-1.061801	-1.010436
C59	C	-0.399674	-1.018300	-0.971926
N60	N	-0.435938	-0.982476	-0.862524
N61	N	-0.396637	-1.021305	-0.896915
C62	C	-0.408969	-1.009164	-0.196792
C63	C	-0.405608	-1.012424	-0.118695
H64	H	-0.344532	-0.406425	-0.314064
Br65	Br	-0.281415	-0.585527	-0.256738
H66	H	-0.494179	-0.731059	-0.449992
Br67	Br	-0.289047	-0.758507	-0.263665
H68	H	-0.869403	-0.911643	-0.462407
H69	H	-0.875993	-1.118833	-0.415947
Br70	Br	-0.543792	-0.245853	-0.495064
Br71	Br	-0.298884	-1.117894	-1.136090
H72	H	-0.487889	-0.931116	-1.108575
H73	H	-0.488301	-0.597930	-0.444663
Br74	Br	-0.319190	-1.097888	-0.631933
Br75	Br	-0.976927	-1.119612	-0.270815
Br76	Br	-0.968566	-0.849111	-0.331668
H77	H	-0.863604	-0.974879	-0.259707
H78	H	-0.968540	-1.028727	-0.498998
H79	H	-0.350076	-1.067337	-0.783992
H80	H	-0.317398	-1.099614	-0.982048
H81	H	-0.482511	-0.936454	-0.975447
Br82	Br	-0.540688	-0.878964	-0.796322
Br83	Br	-0.533692	-0.885893	-0.623344
H84	H	-0.523729	-0.399888	-0.476843
Br85	Br	-0.310981	-0.254350	-0.283573
