data_functionalizedCrystal
_audit_creation_method	'MofGen! by Chris Wilmer'
_symmetry_space_group_name_H-M	'P1'
_symmetry_Int_Tables_number	1
_symmetry_cell_setting	triclinic
loop_
_symmetry_equiv_pos_as_xyz
  x,y,z
_cell_length_a	13.897449
_cell_length_b	19.805404
_cell_length_c	19.805399
_cell_angle_alpha	90.029797
_cell_angle_beta	90.020133
_cell_angle_gamma	90.030177
loop_
_atom_site_label
_atom_site_type_symbol
_atom_site_fract_x
_atom_site_fract_y
_atom_site_fract_z
Zn1	Zn	1.474593	-0.269464	0.382719
Zn2	Zn	1.974593	0.230536	0.882719
Zn3	Zn	1.474464	-0.382652	0.269527
Zn4	Zn	1.974464	0.117348	0.769527
Zn5	Zn	1.313292	-0.269484	0.269543
Zn6	Zn	1.813292	0.230516	0.769543
Zn7	Zn	1.313231	-0.382618	0.382672
Zn8	Zn	1.813231	0.117382	0.882672
O9	O	1.393895	-0.326055	0.326115
O10	O	1.893895	0.173945	0.826115
O11	O	1.609558	-0.284485	0.367717
O12	O	2.109558	0.215515	0.867717
O13	O	1.453055	-0.367663	0.174812
O14	O	1.953055	0.132337	0.674812
O15	O	1.334768	-0.174765	0.284582
O16	O	1.834768	0.325235	0.784582
O17	O	1.609463	-0.367644	0.284555
O18	O	2.109463	0.132356	0.784555
O19	O	1.453276	-0.174750	0.367733
O20	O	1.953276	0.325250	0.867733
O21	O	1.334643	-0.284519	0.174824
O22	O	1.834643	0.215481	0.674824
O23	O	1.178302	-0.284486	0.284537
O24	O	1.678302	0.215514	0.784537
O25	O	1.334666	-0.367585	0.477395
O26	O	1.834666	0.132415	0.977395
O27	O	1.178258	-0.367605	0.367653
O28	O	1.678258	0.132395	0.867653
O29	O	1.453217	-0.284451	0.477430
O30	O	1.953217	0.215549	0.977430
O31	O	1.452996	-0.477364	0.284509
O32	O	1.952996	0.022636	0.784509
O33	O	1.334540	-0.477339	0.367637
O34	O	1.834540	0.022661	0.867637
C35	C	1.393774	-0.501911	0.326081
C36	C	1.893774	-0.001911	0.826081
C37	C	1.393810	-0.577143	0.326089
C38	C	1.893810	-0.077143	0.826089
C39	C	1.143281	-0.326044	0.326092
C40	C	1.643281	0.173956	0.826092
C41	C	1.036067	-0.326056	0.326098
C42	C	1.536067	0.173944	0.826098
C43	C	1.455733	-1.038867	0.369507
C44	C	1.955733	-0.538867	0.869507
C45	C	1.455695	-0.968178	0.369491
C46	C	1.955695	-0.468178	0.869491
C47	C	1.394025	-0.932904	0.326157
C48	C	1.894025	-0.432904	0.826157
C49	C	1.332395	-0.968322	0.282831
C50	C	1.832395	-0.468322	0.782831
C51	C	1.332439	-1.039009	0.282844
C52	C	1.832439	-0.539009	0.782844
C53	C	1.332219	-0.683249	0.282778
C54	C	1.832219	-0.183249	0.782778
C55	C	1.332178	-0.612557	0.282771
C56	C	1.832178	-0.112557	0.782771
C57	C	1.455475	-0.612418	0.369426
C58	C	1.955475	-0.112418	0.869426
C59	C	1.455518	-0.683105	0.369439
C60	C	1.955518	-0.183105	0.869439
C61	C	1.393893	-0.718517	0.326110
C62	C	1.893893	-0.218517	0.826110
C63	C	1.393936	-0.795165	0.326127
C64	C	1.893936	-0.295165	0.826127
C65	C	1.393976	-0.856257	0.326144
C66	C	1.893976	-0.356257	0.826144
C67	C	0.948997	-0.326058	0.326109
C68	C	1.448997	0.173942	0.826109
C69	C	0.839765	-0.326063	0.326130
C70	C	1.339765	0.173937	0.826130
C71	C	1.645488	-0.326066	0.326139
C72	C	2.145488	0.173934	0.826139
C73	C	1.752702	-0.326070	0.326150
C74	C	2.252702	0.173930	0.826150
C75	C	1.393949	-0.326012	0.502658
C76	C	1.893949	0.173988	1.002658
C77	C	1.393972	-0.325994	0.577890
C78	C	1.893972	0.174006	1.077890
C79	C	1.394043	-0.149512	0.326165
C80	C	1.894043	0.350488	0.826165
C81	C	1.394106	-0.074280	0.326185
C82	C	1.894106	0.425720	0.826185
C83	C	1.393897	-0.326048	0.150259
C84	C	1.893897	0.173952	0.650259
C85	C	1.394061	-0.325876	0.075028
C86	C	1.894061	0.174124	0.575028
C87	C	1.455704	-0.282704	0.613253
C88	C	1.955704	0.217296	1.113253
C89	C	1.455714	-0.282684	0.683942
C90	C	1.955714	0.217316	1.183942
C91	C	1.393996	-0.325958	0.719266
C92	C	1.893996	0.174042	1.219266
C93	C	1.332258	-0.369250	0.683898
C94	C	1.832258	0.130750	1.183898
C95	C	1.332244	-0.369266	0.613210
C96	C	1.832244	0.130734	1.113210
C97	C	1.332312	-0.369187	0.968971
C98	C	1.832312	0.130813	1.468971
C99	C	1.332333	-0.369170	1.039663
C100	C	1.832333	0.130830	1.539663
C101	C	1.455782	-0.282605	1.039702
C102	C	1.955782	0.217395	1.539702
C103	C	1.455768	-0.282621	0.969015
C104	C	1.955768	0.217379	1.469015
C105	C	1.394027	-0.325910	0.933653
C106	C	1.894027	0.174090	1.433653
C107	C	1.394015	-0.325930	0.857005
C108	C	1.894015	0.174070	1.357005
C109	C	1.394012	-0.325943	0.795913
C110	C	1.894012	0.174057	1.295913
H111	H	1.505943	-1.067582	0.404801
H112	H	2.005943	-0.567582	0.904801
O113	O	1.515578	-0.240542	0.934633
O114	O	2.015578	0.259458	1.434633
C115	C	1.460673	-0.196823	0.893770
C116	C	1.960673	0.303177	1.393770
H117	H	1.387559	-0.220704	0.883160
H118	H	1.887559	0.279296	1.383160
H119	H	1.499956	-0.187750	0.844072
H120	H	1.999956	0.312250	1.344072
H121	H	1.450107	-0.146664	0.921035
H122	H	1.950107	0.353336	1.421035
H123	H	1.505733	-0.711822	0.404728
H124	H	2.005733	-0.211822	0.904728
H125	H	1.281957	-0.583838	0.247480
H126	H	1.781957	-0.083838	0.747480
O127	O	1.515554	-0.240569	0.578974
O128	O	2.015554	0.259431	1.078974
C129	C	1.494545	-0.173107	0.596280
C130	C	1.994545	0.326893	1.096280
H131	H	1.417492	-0.169684	0.615699
H132	H	1.917492	0.330316	1.115699
H133	H	1.502874	-0.139676	0.549806
H134	H	2.002874	0.360324	1.049806
H135	H	1.546280	-0.155408	0.637326
H136	H	2.046280	0.344592	1.137326
O137	O	1.515316	-0.577913	0.411448
O138	O	2.015316	-0.077913	0.911448
C139	C	1.502044	-0.507959	0.402158
C140	C	2.002044	-0.007959	0.902158
H141	H	1.470497	-0.498360	0.349900
H142	H	1.970497	0.001640	0.849900
H143	H	1.574278	-0.481045	0.406796
H144	H	2.074278	0.018955	0.906796
H145	H	1.450629	-0.487905	0.442266
H146	H	1.950629	0.012095	0.942266
O147	O	1.272467	-0.411186	1.074083
O148	O	1.772467	0.088814	1.574083
C149	C	1.285710	-0.401878	1.144055
C150	C	1.785710	0.098122	1.644055
H151	H	1.360174	-0.379714	1.153721
H152	H	1.860174	0.120286	1.653721
H153	H	1.279132	-0.452571	1.170905
H154	H	1.779132	0.047429	1.670905
H155	H	1.228535	-0.365825	1.164122
H156	H	1.728535	0.134175	1.664122
H157	H	1.282039	-0.712073	0.247498
H158	H	1.782039	-0.212073	0.747498
O159	O	1.272519	-0.933954	0.240799
O160	O	1.772519	-0.433954	0.740799
C161	C	1.285709	-0.863970	0.250066
C162	C	1.785709	-0.363970	0.750066
H163	H	1.317248	-0.854258	0.302320
H164	H	1.817248	-0.354258	0.802320
H165	H	1.213444	-0.837158	0.245422
H166	H	1.713444	-0.337158	0.745422
H167	H	1.337098	-0.843902	0.209950
H168	H	1.837098	-0.343902	0.709950
H169	H	1.282256	-1.067842	0.247567
H170	H	1.782256	-0.567842	0.747567
H171	H	1.281966	-0.404510	0.584419
H172	H	1.781966	0.095490	1.084419
O173	O	1.272394	-0.411264	0.718314
O174	O	1.772394	0.088736	1.218314
C175	C	1.285626	-0.401958	0.788288
C176	C	1.785626	0.098042	1.288288
H177	H	1.360088	-0.379793	0.797960
H178	H	1.860088	0.120207	1.297960
H179	H	1.279044	-0.452651	0.815136
H180	H	1.779044	0.047349	1.315136
H181	H	1.228447	-0.365905	0.808350
H182	H	1.728447	0.134095	1.308350
H183	H	1.505877	-0.939346	0.404766
H184	H	2.005877	-0.439346	0.904766
H185	H	1.506052	-0.247355	1.068503
H186	H	2.006052	0.252645	1.568503
H187	H	1.505984	-0.247435	0.712731
H188	H	2.005984	0.252565	1.212731
H189	H	1.282053	-0.404446	0.940188
H190	H	1.782053	0.095554	1.440188
