data_functionalizedCrystal
_audit_creation_method	'MofGen! by Chris Wilmer'
_symmetry_space_group_name_H-M	'P1'
_symmetry_Int_Tables_number	1
_symmetry_cell_setting	triclinic
loop_
_symmetry_equiv_pos_as_xyz
  x,y,z
_cell_length_a	10.489741
_cell_length_b	14.519709
_cell_length_c	12.996460
_cell_angle_alpha	90.007090
_cell_angle_beta	89.992450
_cell_angle_gamma	95.890341
loop_
_atom_site_label
_atom_site_type_symbol
_atom_site_fract_x
_atom_site_fract_y
_atom_site_fract_z
O1	O	1.692699	-0.130116	-0.085617
O2	O	1.321376	-0.142329	-0.085609
O3	O	1.516883	-0.002038	-0.085604
O4	O	1.497193	-0.270408	-0.085622
O5	O	1.516862	-0.002030	0.085530
O6	O	1.321356	-0.142322	0.085525
O7	O	1.692679	-0.130108	0.085517
Cu8	Cu	1.507015	-0.136214	0.101147
Cu9	Cu	1.507040	-0.136224	-0.101239
O10	O	1.497172	-0.270400	0.085512
C11	C	1.273844	-0.141403	-0.000041
C12	C	1.132243	-0.138643	-0.000038
C13	C	1.515955	0.032331	-0.000037
C14	C	1.513205	0.134727	-0.000036
C15	C	1.740211	-0.131035	-0.000054
C16	C	1.881812	-0.133794	-0.000064
C17	C	1.949021	-0.223058	-0.000059
C18	C	2.041598	-0.180895	-0.084430
C19	C	2.041544	-0.180865	0.084294
C20	C	1.972523	-0.091595	-0.084505
C21	C	1.972460	-0.091578	0.084295
C22	C	2.065009	-0.049350	-0.000097
C23	C	1.498100	-0.304768	-0.000058
C24	C	1.500850	-0.407165	-0.000065
N25	N	1.507008	-0.136207	0.243494
C26	C	1.503082	0.509678	-0.000063
C27	C	1.505893	0.405355	-0.000055
C28	C	1.508143	0.322206	-0.000049
C29	C	1.510955	0.217876	-0.000043
N30	N	1.507057	-0.136223	-0.243586
C31	C	1.507038	-0.136224	0.663308
C32	C	1.507026	-0.136223	0.546503
C33	C	1.507023	-0.136216	0.453405
C34	C	1.507010	-0.136213	0.336592
H35	H	2.072233	-0.218669	-0.155764
H36	H	2.115191	0.024110	-0.000133
C37	C	1.798304	-0.038577	-0.180082
C38	C	1.931459	-0.040663	-0.180919
H39	H	1.772952	-0.007142	-0.239608
H40	H	1.774096	-0.007073	-0.120246
H41	H	1.757559	-0.100104	-0.179841
H42	H	1.972204	0.020865	-0.181152
H43	H	1.955679	-0.072165	-0.240770
C44	C	1.974557	-0.261467	0.239526
C45	C	2.082817	-0.231860	0.180596
H46	H	2.000037	-0.292947	0.298977
H47	H	1.917474	-0.302177	0.199778
H48	H	1.932752	-0.209350	0.259801
H49	H	2.124618	-0.283977	0.160314
H50	H	2.139922	-0.191147	0.220351
H51	H	1.941796	-0.053837	0.155635
H52	H	1.898608	-0.296450	-0.000149
