data_functionalizedCrystal
_audit_creation_method	'MofGen! by Chris Wilmer'
_symmetry_space_group_name_H-M	'P1'
_symmetry_Int_Tables_number	1
_symmetry_cell_setting	triclinic
loop_
_symmetry_equiv_pos_as_xyz
  x,y,z
_cell_length_a	12.759401
_cell_length_b	12.759400
_cell_length_c	12.759393
_cell_angle_alpha	89.974659
_cell_angle_beta	90.020011
_cell_angle_gamma	90.000875
loop_
_atom_site_label
_atom_site_type_symbol
_atom_site_fract_x
_atom_site_fract_y
_atom_site_fract_z
Zn1	Zn	-1.606340	-0.418314	-0.594069
Zn2	Zn	-1.606271	-0.594033	-0.418408
Zn3	Zn	-1.430642	-0.418357	-0.418404
Zn4	Zn	-1.430667	-0.593940	-0.594045
O5	O	-1.518480	-0.506161	-0.506232
O6	O	-1.753352	-0.441645	-0.570779
O7	O	-1.582934	-0.570786	-0.271387
O8	O	-1.453968	-0.271330	-0.441715
O9	O	-1.753301	-0.570745	-0.441722
O10	O	-1.583053	-0.271299	-0.570775
O11	O	-1.453900	-0.441717	-0.271383
O12	O	-1.283625	-0.441627	-0.441691
O13	O	-1.454010	-0.570586	-0.741070
O14	O	-1.283643	-0.570627	-0.570734
O15	O	-1.583076	-0.441554	-0.741087
O16	O	-1.582957	-0.741042	-0.441699
O17	O	-1.453942	-0.740973	-0.570739
C18	C	-1.245513	-0.506122	-0.506210
C19	C	-1.128736	-0.506131	-0.506226
C20	C	-1.073894	-0.439033	-0.573529
C21	C	-0.964170	-0.439047	-0.573533
C22	C	-0.964140	-0.573267	-0.438928
C23	C	-1.073862	-0.573246	-0.438920
C24	C	-1.128768	-0.371917	-0.640835
C25	C	-1.073926	-0.304814	-0.708144
C26	C	-0.964202	-0.304828	-0.708148
C27	C	-0.909320	-0.371946	-0.640843
C28	C	-1.518473	-0.779128	-0.506239
C29	C	-1.518566	-0.895905	-0.506278
C30	C	-1.518554	-0.506055	-0.780265
C31	C	-1.518585	-0.506010	-0.897042
C32	C	-0.792513	-0.506188	-0.506248
C33	C	-0.909290	-0.506166	-0.506238
C34	C	-1.518516	-0.232128	-0.506247
C35	C	-1.518531	-0.115351	-0.506253
C36	C	-1.451336	-0.060504	-0.439062
C37	C	-1.451351	0.049221	-0.439077
C38	C	-1.585764	0.049240	-0.573477
C39	C	-1.585743	-0.060482	-0.573467
C40	C	-1.384124	-0.115372	-0.371849
C41	C	-1.316925	-0.060525	-0.304651
C42	C	-1.316940	0.049199	-0.304666
C43	C	-1.384154	0.104076	-0.371878
C44	C	-1.585799	-0.438817	-0.951915
C45	C	-1.585824	-0.438779	-1.061639
C46	C	-1.451418	-0.573136	-1.061608
C47	C	-1.451388	-0.573168	-0.951885
C48	C	-1.652996	-0.371659	-0.897071
C49	C	-1.720217	-0.304461	-0.951944
C50	C	-1.720242	-0.304423	-1.061668
C51	C	-1.653046	-0.371583	-1.116520
C52	C	-1.518467	-0.506191	-0.233264
C53	C	-1.518639	-0.505940	-0.116488
H54	H	-1.118618	-0.250163	-0.762935
C55	C	-1.134197	-0.647054	-0.364887
C56	C	-1.073842	-0.720887	-0.290860
C57	C	-1.134178	-0.794690	-0.216820
C58	C	-1.254868	-0.794661	-0.216808
C59	C	-1.315229	-0.720826	-0.290837
C60	C	-1.254894	-0.647022	-0.364877
H61	H	-0.984494	-0.720911	-0.290867
H62	H	-1.089494	-0.849348	-0.162019
H63	H	-1.299532	-0.849295	-0.161999
H64	H	-1.404577	-0.720802	-0.290830
H65	H	-1.299578	-0.592364	-0.419678
H66	H	-1.396710	-0.627814	-1.106276
C67	C	-1.794126	-0.230586	-0.891614
C68	C	-1.794106	-0.230625	-0.770924
C69	C	-1.868018	-0.156748	-0.710596
C70	C	-1.941949	-0.082832	-0.770958
C71	C	-1.941971	-0.082791	-0.891655
C72	C	-1.868060	-0.156668	-0.951983
H73	H	-1.739376	-0.285345	-0.726234
H74	H	-1.868000	-0.156779	-0.621248
H75	H	-1.996662	-0.028144	-0.726300
H76	H	-1.996702	-0.028071	-0.936345
H77	H	-1.868077	-0.156637	-1.041331
H78	H	-1.262196	-0.105213	-0.249936
H79	H	-0.919552	-0.250182	-0.762947
H80	H	-1.262217	0.093855	-0.249958
H81	H	-1.218111	-0.371897	-0.640839
H82	H	-1.640446	-0.105140	-0.628192
H83	H	-1.396640	-0.627866	-0.907207
C84	C	-1.659702	0.109601	-0.647398
C85	C	-1.659731	0.230291	-0.647407
C86	C	-1.733674	0.290651	-0.721326
C87	C	-1.807588	0.230320	-0.795238
C88	C	-1.807563	0.109623	-0.795232
C89	C	-1.733620	0.049264	-0.721313
H90	H	-1.605012	0.274957	-0.592690
H91	H	-1.733692	0.379999	-0.721330
H92	H	-1.862325	0.275002	-0.849958
H93	H	-1.862281	0.064957	-0.849949
H94	H	-1.733601	-0.040084	-0.721309
C95	C	-0.903772	-0.647100	-0.364905
C96	C	-0.828291	-0.601494	-0.282504
C97	C	-0.767925	-0.675331	-0.208483
C98	C	-0.783040	-0.794774	-0.216862
C99	C	-0.858524	-0.840386	-0.299266
C100	C	-0.918891	-0.766549	-0.373287
H101	H	-0.817099	-0.513070	-0.276298
H102	H	-0.712046	-0.641566	-0.147482
H103	H	-0.738353	-0.849433	-0.162067
H104	H	-0.869716	-0.928811	-0.305472
H105	H	-0.974770	-0.800315	-0.434288
H106	H	-1.384158	0.193420	-0.371887
C107	C	-1.794178	-0.230506	-1.122029
C108	C	-1.876671	-0.276023	-1.197465
C109	C	-1.950615	-0.202107	-1.257823
C110	C	-1.942065	-0.082675	-1.242745
C111	C	-1.859568	-0.037152	-1.167306
C112	C	-1.785624	-0.111067	-1.106948
H113	H	-1.883004	-0.364440	-1.208629
H114	H	-2.011685	-0.235807	-1.313668
H115	H	-1.996802	-0.027958	-1.287426
H116	H	-1.853236	0.051265	-1.156142
H117	H	-1.724555	-0.077368	-1.051104
H118	H	-0.819975	-0.371930	-0.640829
H119	H	-1.384107	-0.204715	-0.371827
H120	H	-1.653059	-0.371534	-1.205864
H121	H	-1.652985	-0.371684	-0.807728
