data_functionalizedCrystal
_audit_creation_method	'MofGen! by Chris Wilmer'
_symmetry_space_group_name_H-M	'P1'
_symmetry_Int_Tables_number	1
_symmetry_cell_setting	triclinic
loop_
_symmetry_equiv_pos_as_xyz
  x,y,z
_cell_length_a	27.731994
_cell_length_b	10.654550
_cell_length_c	9.730223
_cell_angle_alpha	89.995747
_cell_angle_beta	90.002801
_cell_angle_gamma	83.552732
loop_
_atom_site_label
_atom_site_type_symbol
_atom_site_fract_x
_atom_site_fract_y
_atom_site_fract_z
O1	O	0.641872	0.149091	-0.114094
O2	O	1.141872	0.649091	0.385906
O3	O	0.501217	0.171881	-0.114139
O4	O	1.001217	0.671881	0.385861
O5	O	0.574778	-0.022390	-0.114107
O6	O	1.074778	0.477610	0.385893
O7	O	0.568310	0.343363	-0.114126
O8	O	1.068310	0.843363	0.385874
O9	O	0.574774	-0.022395	0.114473
O10	O	1.074774	0.477605	0.614473
O11	O	0.501212	0.171876	0.114440
O12	O	1.001212	0.671876	0.614440
O13	O	0.641867	0.149086	0.114486
O14	O	1.141867	0.649086	0.614486
Zn15	Zn	0.571539	0.160481	0.150755
Zn16	Zn	1.071539	0.660481	0.650755
Zn17	Zn	0.571545	0.160487	-0.150409
Zn18	Zn	1.071545	0.660487	0.349591
O19	O	0.568306	0.343358	0.114454
O20	O	1.068306	0.843358	0.614454
C21	C	0.483204	0.171411	0.000145
C22	C	0.983204	0.671411	0.500145
C23	C	0.429539	0.170002	0.000128
C24	C	0.929539	0.670002	0.500128
C25	C	0.574301	-0.069171	0.000182
C26	C	1.074301	0.430829	0.500182
C27	C	0.572880	-0.208553	0.000180
C28	C	1.072880	0.291447	0.500180
C29	C	0.616192	-0.289882	0.000193
C30	C	1.116192	0.210118	0.500193
C31	C	0.614854	-0.420846	0.000176
C32	C	1.114854	0.079154	0.500176
C33	C	0.526889	-0.389140	0.000137
C34	C	1.026889	0.110860	0.500137
C35	C	0.528227	-0.258179	0.000145
C36	C	1.028227	0.241821	0.500145
C37	C	0.096763	0.161126	0.124780
C38	C	0.596763	0.661126	0.624780
C39	C	-0.104929	0.155771	0.124796
C40	C	0.395071	0.655771	0.624796
O41	O	-0.131008	0.155022	0.230762
O42	O	0.368992	0.655022	0.730762
N43	N	-0.130145	0.155108	0.000197
N44	N	0.369855	0.655108	0.500197
C45	C	-0.104935	0.155777	-0.124415
C46	C	0.395065	0.655777	0.375585
O47	O	-0.131011	0.155077	-0.230393
O48	O	0.368989	0.655077	0.269607
C49	C	0.096756	0.161123	-0.124429
C50	C	0.596756	0.661123	0.375571
C51	C	0.121969	0.161798	0.000178
C52	C	0.621969	0.661798	0.500178
C53	C	0.121976	0.161800	0.249377
C54	C	0.621976	0.661800	0.749377
C55	C	0.172395	0.163146	0.249371
C56	C	0.672395	0.663146	0.749371
C57	C	0.197602	0.163818	0.124769
C58	C	0.697602	0.663818	0.624769
C59	C	0.172388	0.163144	0.000173
C60	C	0.672388	0.663144	0.500173
C61	C	0.121965	0.161782	-0.249039
C62	C	0.621965	0.661782	0.250961
C63	C	0.172391	0.163116	-0.249032
C64	C	0.672391	0.663116	0.250968
C65	C	0.197604	0.163791	-0.124425
C66	C	0.697604	0.663791	0.375575
C67	C	0.248014	0.165162	-0.124435
C68	C	0.748014	0.665162	0.375565
N69	N	0.273231	0.165824	0.000164
N70	N	0.773231	0.665824	0.500164
C71	C	0.248024	0.165152	0.124766
C72	C	0.748024	0.665152	0.624766
C73	C	-0.210826	0.152972	-0.124398
C74	C	0.289174	0.652972	0.375602
C75	C	-0.261249	0.151638	-0.124395
C76	C	0.238751	0.651638	0.375605
C77	C	-0.261239	0.151629	0.124816
C78	C	0.238761	0.651629	0.624816
C79	C	-0.210816	0.152973	0.124811
C80	C	0.289184	0.652973	0.624811
C81	C	-0.185610	0.153634	0.000201
C82	C	0.314390	0.653634	0.500201
C83	C	0.353909	0.167979	0.124746
C84	C	0.853909	0.667979	0.624746
C85	C	0.404333	0.169330	0.124730
C86	C	0.904333	0.669330	0.624730
C87	C	0.404319	0.169332	-0.124480
C88	C	0.904319	0.669332	0.375520
C89	C	0.353899	0.167987	-0.124465
C90	C	0.853899	0.667987	0.375535
C91	C	0.328696	0.167307	0.000159
C92	C	0.828696	0.667307	0.500159
O93	O	0.274125	0.165897	-0.230345
O94	O	0.774125	0.665897	0.269655
O95	O	0.274110	0.165823	0.230729
O96	O	0.774110	0.665823	0.730729
C97	C	0.046343	0.159780	0.124785
C98	C	0.546343	0.659780	0.624785
C99	C	0.021130	0.159107	0.000188
C100	C	0.521130	0.659107	0.500188
C101	C	0.046336	0.159779	-0.124414
C102	C	0.546336	0.659779	0.375586
C103	C	-0.029293	0.157772	0.000192
C104	C	0.470707	0.657772	0.500192
C105	C	-0.054499	0.157100	0.124794
C106	C	0.445501	0.657100	0.624794
C107	C	-0.029283	0.157763	0.249392
C108	C	0.470717	0.657763	0.749392
C109	C	0.021137	0.159108	0.249387
C110	C	0.521137	0.659108	0.749387
C111	C	0.021120	0.159116	-0.249012
C112	C	0.521120	0.659116	0.250988
C113	C	-0.029300	0.157772	-0.248997
C114	C	0.470700	0.657772	0.251003
C115	C	-0.054506	0.157100	-0.124395
C116	C	0.445494	0.657100	0.375605
C117	C	0.659880	0.149557	0.000199
C118	C	1.159880	0.649557	0.500199
C119	C	0.713545	0.150966	0.000207
C120	C	1.213545	0.650966	0.500207
C121	C	0.568783	0.390139	0.000161
C122	C	1.068783	0.890139	0.500161
C123	C	0.570204	0.529521	0.000155
C124	C	1.070204	1.029521	0.500155
N125	N	0.571538	0.160475	0.356292
N126	N	1.071538	0.660475	0.856292
N127	N	0.571550	0.160483	-0.355945
N128	N	1.071550	0.660483	0.144055
C129	C	0.604122	0.074487	0.428232
C130	C	1.104122	0.574487	0.928232
C131	C	0.604127	0.074487	0.572115
C132	C	1.104127	0.574487	1.072115
C133	C	0.538962	0.246475	0.572105
C134	C	1.038962	0.746475	1.072105
C135	C	0.538955	0.246468	0.428224
C136	C	1.038955	0.746468	0.928224
H137	H	0.652551	-0.249482	0.000218
H138	H	1.152551	0.250518	0.500218
H139	H	0.650123	-0.487059	0.000184
H140	H	1.150123	0.012941	0.500184
C141	C	0.477773	-0.443741	0.000126
C142	C	0.977773	0.056259	0.500126
N143	N	0.440777	-0.484865	0.000128
N144	N	0.940777	0.015135	0.500128
C145	C	0.639969	-0.020116	0.651243
C146	C	1.139969	0.479884	1.151243
N147	N	0.666964	-0.091381	0.710841
N148	N	1.166964	0.408619	1.210841
H149	H	0.512434	0.316490	0.630686
H150	H	1.012434	0.816490	1.130686
C151	C	-0.288978	0.150905	-0.261472
C152	C	0.211022	0.650905	0.238528
N153	N	-0.309861	0.150344	-0.364724
N154	N	0.190139	0.650344	0.135276
H155	H	0.041638	0.159660	-0.350481
H156	H	0.541638	0.659660	0.149519
C157	C	0.200124	0.163869	0.386450
C158	C	0.700124	0.663869	0.886450
N159	N	0.221007	0.164407	0.489706
N160	N	0.721007	0.664407	0.989706
H161	H	0.512419	0.316490	0.369646
H162	H	1.012419	0.816490	0.869646
H163	H	0.492955	-0.191957	0.000130
H164	H	0.992955	0.308043	0.500130
H165	H	0.041661	0.159658	0.350855
H166	H	0.541661	0.659658	0.850855
H167	H	0.424859	0.169884	0.226204
H168	H	0.924859	0.669884	0.726204
H169	H	0.101458	0.161250	0.350848
H170	H	0.601458	0.661250	0.850848
C171	C	-0.183085	0.153703	0.261887
C172	C	0.316915	0.653703	0.761887
N173	N	-0.162201	0.154248	0.365139
N174	N	0.337799	0.654248	0.865139
C175	C	0.326192	0.167243	0.261839
C176	C	0.826192	0.667243	0.761839
N177	N	0.305315	0.166700	0.365098
N178	N	0.805315	0.666700	0.865098
H179	H	-0.281770	0.151085	0.226272
H180	H	0.218230	0.651085	0.726272
H181	H	0.101445	0.161231	-0.350508
H182	H	0.601445	0.661231	0.149492
C183	C	-0.183106	0.153699	-0.261489
C184	C	0.316894	0.653699	0.238511
N185	N	-0.162229	0.154249	-0.364748
N186	N	0.337771	0.654249	0.135252
H187	H	0.630653	0.004465	0.369668
H188	H	1.130653	0.504465	0.869668
C189	C	0.326163	0.167259	-0.261538
C190	C	0.826163	0.667259	0.238462
N191	N	0.305276	0.166699	-0.364784
N192	N	0.805276	0.666699	0.135216
C193	C	0.432056	0.170063	-0.261536
C194	C	0.932056	0.670063	0.238464
N195	N	0.452949	0.170601	-0.364767
N196	N	0.952949	0.670601	0.135233
H197	H	0.192911	0.163655	-0.350507
H198	H	0.692911	0.663655	0.149493
C199	C	-0.057019	0.157020	0.386455
C200	C	0.442981	0.657020	0.886455
N201	N	-0.077912	0.156453	0.489685
N202	N	0.422088	0.656453	0.989685
H203	H	-0.049825	0.157233	-0.350475
H204	H	0.450175	0.657233	0.149525
