data_functionalizedCrystal
_audit_creation_method	'MofGen! by Chris Wilmer'
_symmetry_space_group_name_H-M	'P1'
_symmetry_Int_Tables_number	1
_symmetry_cell_setting	triclinic
loop_
_symmetry_equiv_pos_as_xyz
  x,y,z
_cell_length_a	14.853567
_cell_length_b	15.944551
_cell_length_c	13.930277
_cell_angle_alpha	89.994493
_cell_angle_beta	89.995755
_cell_angle_gamma	83.566834
loop_
_atom_site_label
_atom_site_type_symbol
_atom_site_fract_x
_atom_site_fract_y
_atom_site_fract_z
O1	O	1.196228	0.109664	-0.079767
O2	O	0.933751	0.122728	-0.079783
O3	O	1.072157	-0.006071	-0.079766
O4	O	1.057822	0.238463	-0.079784
O5	O	1.072138	-0.006073	0.079896
O6	O	0.933732	0.122725	0.079878
O7	O	1.196208	0.109662	0.079895
Zn8	Zn	1.064967	0.116193	0.105236
Zn9	Zn	1.064993	0.116197	-0.105125
O10	O	1.057803	0.238460	0.079878
C11	C	0.900154	0.122135	0.000045
C12	C	0.800072	0.120361	0.000039
C13	C	0.387646	0.036354	0.000067
C14	C	0.366169	0.189369	0.000055
C15	C	0.460201	0.191037	0.000051
C16	C	0.517960	0.115362	0.000055
C17	C	0.481687	0.038019	0.000061
C18	C	0.496480	0.268379	0.000035
C19	C	0.590517	0.270050	0.000031
C20	C	0.648278	0.194374	0.000041
C21	C	0.612000	0.117028	0.000049
C22	C	0.669759	0.041353	0.000052
C23	C	0.633483	-0.035994	0.000066
C24	C	0.539448	-0.037657	0.000071
C25	C	0.742313	0.196036	0.000036
C26	C	0.763800	0.043018	0.000046
C27	C	1.071552	-0.037367	0.000065
C28	C	1.069768	-0.130615	0.000065
C29	C	0.979713	-0.345572	0.000047
C30	C	1.021522	-0.406544	0.078772
C31	C	1.066541	-0.301344	0.000058
C32	C	1.021562	-0.406524	-0.078642
C33	C	1.063416	-0.466260	0.000046
C34	C	1.108373	-0.361088	0.078848
C35	C	1.108401	-0.361062	-0.078636
C36	C	1.150273	-0.422017	0.000109
C37	C	1.068338	-0.206340	0.000065
C38	C	1.061626	-0.561263	0.000046
C39	C	1.229806	0.110255	0.000064
C40	C	1.329887	0.112029	0.000064
C41	C	1.058407	0.269756	0.000044
C42	C	1.060191	0.363004	0.000038
N43	N	1.064957	0.116190	0.248803
N44	N	1.065010	0.116193	-0.248691
C45	C	1.003704	0.173206	0.701064
C46	C	1.126306	0.059181	0.701049
C47	C	1.126295	0.059178	0.600553
C48	C	1.064989	0.116191	0.550308
C49	C	1.003693	0.173207	0.600559
C50	C	1.187596	0.002169	0.550295
C51	C	1.187588	0.002164	0.449793
C52	C	1.126277	0.059174	0.399546
C53	C	1.064978	0.116192	0.449803
C54	C	1.003672	0.173205	0.399558
C55	C	0.942368	0.230220	0.449814
C56	C	0.942382	0.230217	0.550312
C57	C	1.126263	0.059177	0.299047
C58	C	1.003661	0.173206	0.299053
H59	H	0.509903	-0.100629	0.000105
H60	H	1.222407	-0.455095	0.000158
O61	O	0.440282	0.341827	-0.000095
C62	C	0.321669	0.428763	-0.082832
C63	C	0.385255	0.345541	-0.082796
H64	H	0.277177	0.431800	-0.149699
H65	H	0.277049	0.431813	-0.016053
H66	H	0.363761	0.484318	-0.082798
H67	H	0.343234	0.289939	-0.082864
H68	H	0.429879	0.342564	-0.149569
O69	O	0.309973	0.262819	-0.000077
C70	C	0.191375	0.349765	-0.082824
C71	C	0.254955	0.266540	-0.082785
H72	H	0.146890	0.352808	-0.149696
H73	H	0.146747	0.352816	-0.016051
H74	H	0.233471	0.405317	-0.082781
H75	H	0.212931	0.210941	-0.082862
H76	H	0.299586	0.263563	-0.149553
H77	H	0.892471	0.276637	0.591236
O78	O	0.777658	0.271109	0.000150
C79	C	0.871308	0.361822	0.082881
C80	C	0.831360	0.276759	0.082858
H81	H	0.914719	0.366425	0.149753
H82	H	0.914859	0.366439	0.016107
H83	H	0.813857	0.415607	0.082827
H84	H	0.888753	0.222925	0.082945
H85	H	0.787785	0.272216	0.149626
H86	H	0.620045	0.333030	0.000019
O87	O	1.247164	-0.053302	0.401129
C88	C	1.368804	-0.166371	0.411729
C89	C	1.301372	-0.103612	0.466962
H90	H	1.412661	-0.207051	0.464930
H91	H	1.329921	-0.208459	0.364722
H92	H	1.413793	-0.130016	0.364633
H93	H	1.256366	-0.139898	0.514110
H94	H	1.340311	-0.061524	0.513908
H95	H	0.358106	-0.026620	0.000082
H96	H	0.907643	-0.312344	0.000121
O97	O	1.152224	-0.337110	0.158240
C98	C	1.277564	-0.269928	0.220232
C99	C	1.227984	-0.297022	0.130242
H100	H	1.338837	-0.237528	0.197627
H101	H	1.229587	-0.224289	0.264396
H102	H	1.301005	-0.327973	0.265301
H103	H	1.204539	-0.239029	0.085099
H104	H	1.275994	-0.342690	0.086150
O105	O	0.977560	-0.430533	0.158096
C106	C	0.837999	-0.418422	0.247815
C107	C	0.887677	-0.391207	0.157934
H108	H	0.765325	-0.386625	0.247724
H109	H	0.837573	-0.489876	0.247414
H110	H	0.874351	-0.398867	0.314889
H111	H	0.851364	-0.410704	0.090813
H112	H	0.888110	-0.319755	0.158419
O113	O	1.152054	-0.337012	-0.158131
C114	C	1.155677	-0.332665	-0.330986
C115	C	1.106150	-0.359933	-0.241029
H116	H	1.118595	-0.351201	-0.398032
H117	H	1.157158	-0.261338	-0.329903
H118	H	1.227992	-0.365322	-0.331612
H119	H	1.033814	-0.327335	-0.240344
H120	H	1.104743	-0.431267	-0.242146
O121	O	0.977626	-0.430421	-0.158016
C122	C	0.838038	-0.418344	-0.247666
C123	C	0.887700	-0.391202	-0.157754
H124	H	0.765318	-0.386661	-0.247475
H125	H	0.874287	-0.398712	-0.314784
H126	H	0.837731	-0.489809	-0.247270
H127	H	0.888021	-0.319741	-0.158058
H128	H	0.851434	-0.410896	-0.090677
H129	H	0.953734	0.219631	0.258150
H130	H	0.892456	0.276644	0.408893
H131	H	0.953789	0.219625	0.741984
O132	O	1.185810	0.003683	0.749753
C133	C	1.238571	-0.142287	0.780571
C134	C	1.171151	-0.079522	0.725330
H135	H	1.226730	-0.209572	0.760861
H136	H	1.310799	-0.131301	0.760785
H137	H	1.228056	-0.132446	0.861026
H138	H	1.181583	-0.089326	0.644862
H139	H	1.098947	-0.090524	0.745196
H140	H	1.237514	-0.044246	0.591208
H141	H	0.810822	-0.018607	0.000052
O142	O	0.689723	-0.109425	0.000109
C143	C	0.844116	-0.174658	0.000034
C144	C	0.780526	-0.091439	0.000009
H145	H	0.917544	-0.160145	-0.000067
H146	H	0.831003	-0.212727	0.066875
H147	H	0.830871	-0.212717	-0.066762
H148	H	0.793734	-0.053313	0.066759
H149	H	0.793652	-0.053434	-0.066876
O150	O	1.185840	0.003721	0.250379
C151	C	1.307493	-0.109336	0.260975
C152	C	1.240054	-0.046586	0.316210
H153	H	1.351355	-0.150014	0.314175
H154	H	1.268617	-0.151428	0.213965
H155	H	1.352477	-0.072974	0.213882
H156	H	1.195053	-0.082880	0.363356
H157	H	1.278986	-0.004495	0.363159
