data_functionalizedCrystal
_audit_creation_method	'MofGen! by Chris Wilmer'
_symmetry_space_group_name_H-M	'P1'
_symmetry_Int_Tables_number	1
_symmetry_cell_setting	triclinic
loop_
_symmetry_equiv_pos_as_xyz
  x,y,z
_cell_length_a	16.992694
_cell_length_b	14.421503
_cell_length_c	16.992695
_cell_angle_alpha	90.005252
_cell_angle_beta	90.668223
_cell_angle_gamma	89.996610
loop_
_atom_site_label
_atom_site_type_symbol
_atom_site_fract_x
_atom_site_fract_y
_atom_site_fract_z
O1	O	1.050856	-0.076996	0.166905
O2	O	1.384189	0.256337	0.500238
O3	O	1.717522	0.589670	0.833572
O4	O	0.822456	-0.077024	0.165074
O5	O	1.155789	0.256310	0.498407
O6	O	1.489122	0.589643	0.831740
O7	O	0.935740	-0.077003	0.051789
O8	O	1.269073	0.256331	0.385123
O9	O	1.602407	0.589664	0.718456
O10	O	0.937571	-0.077017	0.280189
O11	O	1.270905	0.256316	0.613523
O12	O	1.604238	0.589649	0.946856
O13	O	0.935719	0.077221	0.051808
O14	O	1.269053	0.410554	0.385142
O15	O	1.602386	0.743887	0.718475
O16	O	0.822435	0.077200	0.165093
O17	O	1.155768	0.410533	0.498426
O18	O	1.489101	0.743866	0.831759
O19	O	1.050835	0.077227	0.166924
O20	O	1.384168	0.410560	0.500257
O21	O	1.717501	0.743894	0.833591
Cu22	Cu	0.936633	0.091295	0.166010
Cu23	Cu	1.269966	0.424629	0.499343
Cu24	Cu	1.603300	0.757962	0.832677
Cu25	Cu	0.936658	-0.091092	0.165988
Cu26	Cu	1.269991	0.242242	0.499321
Cu27	Cu	1.603324	0.575575	0.832654
O28	O	0.937550	0.077206	0.280208
O29	O	1.270884	0.410540	0.613542
O30	O	1.604217	0.743873	0.946875
C31	C	0.793085	0.000085	0.162727
C32	C	1.126418	0.333418	0.496061
C33	C	1.459752	0.666751	0.829394
C34	C	0.705600	0.000074	0.155699
C35	C	1.038934	0.333408	0.489032
C36	C	1.372267	0.666741	0.822365
C37	C	0.659610	0.000071	0.223517
C38	C	0.992943	0.333404	0.556850
C39	C	1.326276	0.666738	0.890183
C40	C	0.577409	0.000084	0.216908
C41	C	0.910742	0.333417	0.550241
C42	C	1.244075	0.666751	0.883574
C43	C	0.541201	0.000094	0.142480
C44	C	0.874534	0.333428	0.475813
C45	C	1.207867	0.666761	0.809147
C46	C	0.587198	0.000101	0.074657
C47	C	0.920531	0.333434	0.407990
C48	C	1.253864	0.666767	0.741324
C49	C	0.669397	0.000094	0.081267
C50	C	1.002730	0.333427	0.414600
C51	C	1.336063	0.666761	0.747933
C52	C	0.295886	0.000121	0.115086
C53	C	0.629220	0.333454	0.448419
C54	C	0.962553	0.666787	0.781752
C55	C	0.213681	0.000125	0.108481
C56	C	0.547014	0.333458	0.441814
C57	C	0.880348	0.666791	0.775148
C58	C	0.203898	0.000110	0.250732
C59	C	0.537231	0.333443	0.584066
C60	C	0.870565	0.666776	0.917399
C61	C	0.286099	0.000098	0.257336
C62	C	0.619432	0.333431	0.590669
C63	C	0.952766	0.666764	0.924002
C64	C	0.332089	0.000109	0.189512
C65	C	0.665422	0.333442	0.522846
C66	C	0.998756	0.666776	0.856179
N67	N	0.457178	0.000105	0.135723
N68	N	0.790512	0.333438	0.469056
N69	N	1.123845	0.666771	0.802390
N70	N	0.416110	0.000105	0.196270
N71	N	0.749443	0.333438	0.529604
N72	N	1.082776	0.666772	0.862937
N73	N	0.936621	0.219577	0.166026
N74	N	1.269955	0.552910	0.499359
N75	N	1.603288	0.886243	0.832692
C76	C	0.884224	0.469221	0.218386
C77	C	1.217557	0.802554	0.551719
C78	C	1.550891	1.135887	0.885053
C79	C	0.956311	0.531031	0.238123
C80	C	1.289644	0.864364	0.571456
C81	C	1.622978	1.197697	0.904790
C82	C	0.936637	0.408738	0.166011
C83	C	1.269970	0.742071	0.499344
C84	C	1.603304	1.075405	0.832677
C85	C	0.864567	0.531022	0.146296
C86	C	1.197900	0.864355	0.479629
C87	C	1.531234	1.197688	0.812963
C88	C	0.936646	0.591459	0.165998
C89	C	1.269979	0.924793	0.499331
C90	C	1.603312	1.258126	0.832664
C91	C	1.008762	0.469187	0.185785
C92	C	1.342095	0.802521	0.519118
C93	C	1.675429	1.135854	0.852452
C94	C	0.916969	0.469173	0.093924
C95	C	1.250303	0.802506	0.427258
C96	C	1.583636	1.135840	0.760591
C97	C	0.989106	0.530955	0.113634
C98	C	1.322439	0.864288	0.446968
C99	C	1.655772	1.197622	0.780301
C100	C	0.936631	0.303477	0.166020
C101	C	1.269964	0.636810	0.499353
C102	C	1.603297	0.970144	0.832687
C103	C	0.936660	0.696718	0.165988
C104	C	1.269993	1.030052	0.499321
C105	C	1.603327	1.363385	0.832655
C106	C	1.080205	0.000117	0.169270
C107	C	1.413539	0.333450	0.502603
C108	C	1.746872	0.666783	0.835937
C109	C	1.167690	0.000121	0.176299
C110	C	1.501023	0.333454	0.509632
C111	C	1.834357	0.666788	0.842966
N112	N	0.936662	0.780627	0.165980
N113	N	1.269996	1.113960	0.499314
N114	N	1.603329	1.447294	0.832647
C115	C	0.933374	0.000109	0.022439
C116	C	1.266707	0.333442	0.355772
C117	C	1.600041	0.666775	0.689105
C118	C	0.926345	0.000108	-0.065046
C119	C	1.259678	0.333441	0.268287
C120	C	1.593012	0.666774	0.601621
C121	C	0.994163	0.000117	-0.111037
C122	C	1.327496	0.333450	0.222296
C123	C	1.660830	0.666783	0.555630
C124	C	0.987554	0.000107	-0.193238
C125	C	1.320887	0.333440	0.140096
C126	C	1.654221	0.666774	0.473429
C127	C	0.913127	0.000095	-0.229446
C128	C	1.246460	0.333428	0.103887
C129	C	1.579793	0.666762	0.437221
C130	C	0.845303	0.000083	-0.183449
C131	C	1.178637	0.333416	0.149884
C132	C	1.511970	0.666750	0.483218
C133	C	0.851913	0.000086	-0.101250
C134	C	1.185246	0.333419	0.232084
C135	C	1.518580	0.666753	0.565417
C136	C	0.885732	0.000079	-0.474760
C137	C	1.219065	0.333412	-0.141427
C138	C	1.552399	0.666746	0.191906
C139	C	0.879127	0.000079	-0.556966
C140	C	1.212461	0.333412	-0.223632
C141	C	1.545794	0.666745	0.109701
C142	C	1.021379	0.000101	-0.566749
C143	C	1.354712	0.333434	-0.233415
C144	C	1.688045	0.666768	0.099918
C145	C	1.027982	0.000109	-0.484547
C146	C	1.361315	0.333443	-0.151214
C147	C	1.694649	0.666776	0.182119
C148	C	0.960159	0.000093	-0.438558
C149	C	1.293492	0.333426	-0.105224
C150	C	1.626826	0.666759	0.228109
N151	N	0.906369	0.000088	-0.313468
N152	N	1.239703	0.333421	0.019865
N153	N	1.573036	0.666755	0.353199
N154	N	0.966917	0.000093	-0.354537
N155	N	1.300250	0.333426	-0.021204
N156	N	1.633583	0.666760	0.312130
C157	C	0.939917	0.000093	0.309559
C158	C	1.273250	0.333426	0.642892
C159	C	1.606583	0.666760	0.976226
C160	C	0.946945	0.000088	0.397044
C161	C	1.280279	0.333421	0.730377
C162	C	1.613612	0.666755	1.063710
H163	H	0.184203	0.000132	0.047870
H164	H	0.517536	0.333465	0.381203
H165	H	0.850870	0.666799	0.714537
C166	C	0.894460	0.432427	0.011605
C167	C	1.227793	0.765760	0.344938
C168	C	1.561127	1.099093	0.678272
H169	H	0.936451	0.396181	-0.008321
H170	H	1.269784	0.729515	0.325013
H171	H	1.603118	1.062848	0.658346
H172	H	0.848485	0.395255	0.015090
H173	H	1.181818	0.728588	0.348423
H174	H	1.515151	1.061921	0.681756
H175	H	0.884565	0.483180	-0.022746
H176	H	1.217898	0.816513	0.310587
H177	H	1.551232	1.149847	0.643921
H178	H	0.830505	0.000066	-0.437325
H179	H	1.163839	0.333399	-0.103992
H180	H	1.497172	0.666732	0.229342
C181	C	0.699432	0.000059	0.305388
C182	C	1.032765	0.333392	0.638721
C183	C	1.366098	0.666726	0.972054
H184	H	0.660265	0.000067	0.344830
H185	H	0.993598	0.333401	0.678164
H186	H	1.326932	0.666734	1.011497
H187	H	0.731294	-0.053724	0.310918
H188	H	1.064628	0.279609	0.644251
H189	H	1.397961	0.612943	0.977585
H190	H	0.731293	0.053845	0.310929
H191	H	1.064626	0.387178	0.644263
H192	H	1.397960	0.720512	0.977596
H193	H	0.803615	0.558186	0.129628
H194	H	1.136949	0.891519	0.462961
H195	H	1.470282	1.224852	0.796295
H196	H	1.054770	0.000132	-0.081563
H197	H	1.388103	0.333465	0.251771
H198	H	1.721437	0.666799	0.585104
C199	C	1.049054	0.567354	0.053795
C200	C	1.382387	0.900688	0.387129
C201	C	1.715720	1.234021	0.720462
H202	H	1.100207	0.546067	0.067924
H203	H	1.433540	0.879400	0.401258
H204	H	1.766873	1.212734	0.734591
H205	H	1.035517	0.545238	0.002749
H206	H	1.368850	0.878571	0.336082
H207	H	1.702184	1.211905	0.669415
H208	H	1.048431	0.633224	0.053812
H209	H	1.381764	0.966558	0.387145
H210	H	1.715098	1.299891	0.720479
C211	C	0.763433	0.000063	-0.223272
C212	C	1.096766	0.333396	0.110061
C213	C	1.430100	0.666729	0.443395
H214	H	0.723990	0.000047	-0.184106
H215	H	1.057323	0.333381	0.149227
H216	H	1.390656	0.666714	0.482560
H217	H	0.757885	0.053841	-0.255133
H218	H	1.091218	0.387174	0.078201
H219	H	1.424552	0.720507	0.411534
H220	H	0.757910	-0.053728	-0.255136
H221	H	1.091244	0.279605	0.078198
H222	H	1.424577	0.612938	0.411531
C223	C	0.346465	0.000127	0.040483
C224	C	0.679798	0.333460	0.373816
C225	C	1.013131	0.666793	0.707150
H226	H	0.313125	0.000124	-0.004788
H227	H	0.646458	0.333457	0.328546
H228	H	0.979792	0.666791	0.661879
H229	H	0.378733	0.053906	0.040109
H230	H	0.712066	0.387240	0.373442
H231	H	1.045400	0.720573	0.706776
H232	H	0.378734	-0.053663	0.040095
H233	H	0.712067	0.279671	0.373428
H234	H	1.045401	0.613004	0.706762
H235	H	0.557710	0.000122	0.014056
H236	H	0.891044	0.333455	0.347390
H237	H	1.224377	0.666789	0.680723
C238	C	0.526822	0.000077	0.291508
C239	C	0.860155	0.333410	0.624841
C240	C	1.193489	0.666744	0.958174
H241	H	0.560159	0.000059	0.336780
H242	H	0.893493	0.333392	0.670113
H243	H	1.226826	0.666725	1.003447
H244	H	0.494554	0.053861	0.291898
H245	H	0.827887	0.387195	0.625231
H246	H	1.161221	0.720528	0.958565
H247	H	0.494552	-0.053708	0.291876
H248	H	0.827886	0.279626	0.625209
H249	H	1.161219	0.612959	0.958543
H250	H	0.315574	0.000079	0.317942
H251	H	0.648907	0.333412	0.651276
H252	H	0.982240	0.666745	0.984609
C253	C	0.824421	0.432589	0.278270
C254	C	1.157754	0.765922	0.611604
C255	C	1.491088	1.099255	0.944937
H256	H	0.838531	0.453770	0.329461
H257	H	1.171864	0.787103	0.662795
H258	H	1.505197	1.120436	0.996128
H259	H	0.773353	0.454667	0.264775
H260	H	1.106686	0.788000	0.598108
H261	H	1.440019	1.121334	0.931441
H262	H	0.824501	0.366721	0.277529
H263	H	1.157834	0.700054	0.610863
H264	H	1.491168	1.033387	0.944196
C265	C	1.062154	0.000126	-0.243824
C266	C	1.395487	0.333460	0.089509
C267	C	1.728821	0.666793	0.422842
H268	H	1.107427	0.000148	-0.210487
H269	H	1.440760	0.333481	0.122846
H270	H	1.774093	0.666814	0.456179
H271	H	1.062548	-0.053654	-0.276098
H272	H	1.395881	0.279679	0.057235
H273	H	1.729215	0.613012	0.390569
H274	H	1.062519	0.053915	-0.276089
H275	H	1.395852	0.387248	0.057245
H276	H	1.729185	0.720581	0.390578
H277	H	1.088589	0.000119	-0.455073
H278	H	1.421922	0.333453	-0.121739
H279	H	1.755255	0.666786	0.211594
C280	C	1.095977	0.000106	-0.617338
C281	C	1.429310	0.333439	-0.284005
C282	C	1.762644	0.666773	0.049329
H283	H	1.081384	0.000094	-0.671479
H284	H	1.414717	0.333427	-0.338146
H285	H	1.748051	0.666761	-0.004812
H286	H	1.126280	0.053888	-0.605876
H287	H	1.459614	0.387222	-0.272542
H288	H	1.792947	0.720555	0.060791
H289	H	1.126286	-0.053681	-0.605878
H290	H	1.459619	0.279653	-0.272544
H291	H	1.792952	0.612986	0.060789
C292	C	0.978792	0.567750	0.320464
C293	C	1.312125	0.901084	0.653797
C294	C	1.645458	1.234417	0.987131
H295	H	0.941497	0.546621	0.357623
H296	H	1.274830	0.879954	0.690956
H297	H	1.608164	1.213288	1.024289
H298	H	1.029632	0.545673	0.334829
H299	H	1.362965	0.879007	0.668163
H300	H	1.696299	1.212340	1.001496
H301	H	0.979095	0.633618	0.319740
H302	H	1.312429	0.966951	0.653074
H303	H	1.645762	1.300284	0.986407
C304	C	0.797255	0.000065	-0.596797
C305	C	1.130589	0.333399	-0.263464
C306	C	1.463922	0.666732	0.069870
H307	H	0.803036	0.000078	-0.652339
H308	H	1.136369	0.333412	-0.319005
H309	H	1.469702	0.666745	0.014328
H310	H	0.769120	-0.053720	-0.581325
H311	H	1.102454	0.279613	-0.247991
H312	H	1.435787	0.612947	0.085342
H313	H	0.769107	0.053849	-0.581310
H314	H	1.102441	0.387182	-0.247977
H315	H	1.435774	0.720516	0.085356
C316	C	0.153312	0.000102	0.325333
C317	C	0.486645	0.333435	0.658666
C318	C	0.819978	0.666769	0.991999
H319	H	0.186649	0.000088	0.370605
H320	H	0.519983	0.333422	0.703938
H321	H	0.853316	0.666755	1.037271
H322	H	0.121040	0.053884	0.325722
H323	H	0.454374	0.387217	0.659055
H324	H	0.787707	0.720550	0.992388
H325	H	0.121045	-0.053685	0.325703
H326	H	0.454378	0.279648	0.659037
H327	H	0.787712	0.612981	0.992370
C328	C	0.719987	0.000089	0.006667
C329	C	1.053320	0.333422	0.340000
C330	C	1.386653	0.666755	0.673334
H331	H	0.686651	0.000086	-0.038606
H332	H	1.019984	0.333419	0.294727
H333	H	1.353318	0.666752	0.628060
H334	H	0.752258	0.053866	0.006293
H335	H	1.085592	0.387199	0.339627
H336	H	1.418925	0.720532	0.672960
H337	H	0.752253	-0.053703	0.006285
H338	H	1.085586	0.279630	0.339618
H339	H	1.418920	0.612963	0.672951
H340	H	0.796688	0.000079	-0.063804
H341	H	1.130022	0.333412	0.269529
H342	H	1.463355	0.666745	0.602862
H343	H	1.069732	0.442140	0.202526
H344	H	1.403065	0.775473	0.535860
H345	H	1.736398	1.108807	0.869193
