data_functionalizedCrystal
_audit_creation_method	'MofGen! by Chris Wilmer'
_symmetry_space_group_name_H-M	'P1'
_symmetry_Int_Tables_number	1
_symmetry_cell_setting	triclinic
loop_
_symmetry_equiv_pos_as_xyz
  x,y,z
_cell_length_a	12.784890
_cell_length_b	10.540510
_cell_length_c	11.892110
_cell_angle_alpha	93.930927
_cell_angle_beta	86.512894
_cell_angle_gamma	78.809934
loop_
_atom_site_label
_atom_site_type_symbol
_atom_site_fract_x
_atom_site_fract_y
_atom_site_fract_z
O1	O	1.417106	-0.000921	-0.093968
O2	O	1.108058	0.053398	-0.093976
O3	O	1.269649	-0.159327	-0.093972
O4	O	1.255515	0.211804	-0.093973
O5	O	1.256174	-0.141614	0.094035
O6	O	1.094583	0.071111	0.094031
O7	O	1.403631	0.016793	0.094039
Zn8	Zn	1.246968	0.046764	0.123885
Zn9	Zn	1.264721	0.023426	-0.123823
O10	O	1.242040	0.229518	0.094034
C11	C	1.061748	0.065787	0.000026
C12	C	0.943833	0.076299	0.000023
C13	C	1.261859	-0.197646	0.000029
C14	C	1.258708	-0.338215	0.000023
C15	C	0.765845	0.208041	0.000021
C16	C	0.876636	0.198173	0.000021
C17	C	0.900232	-0.035715	0.000021
C18	C	0.789441	-0.025846	0.000021
C19	C	0.722251	0.096036	0.000023
C20	C	0.611457	0.105904	0.000031
C21	C	0.635057	-0.127983	0.000023
C22	C	0.745847	-0.137851	0.000023
C23	C	1.370934	-0.569238	0.000456
C24	C	1.374326	-0.423090	0.000027
C25	C	1.207217	-0.385914	-0.107338
C26	C	1.204681	-0.532375	-0.107422
C27	C	1.186949	-0.511748	0.106377
C28	C	1.192332	-0.365939	0.107790
C29	C	1.449941	0.004403	0.000034
C30	C	1.567857	-0.006110	0.000029
C31	C	1.249831	0.267837	0.000030
C32	C	1.252982	0.408405	0.000030
N33	N	1.234859	0.062691	0.292939
C34	C	1.361079	-0.103384	0.529590
C35	C	1.352623	-0.092244	0.647932
C36	C	1.209486	0.096106	0.647966
C37	C	1.217942	0.084966	0.529624
C38	C	1.293742	-0.014782	0.470440
C39	C	1.302203	-0.025916	0.352097
C40	C	1.159061	0.162428	0.352133
C41	C	1.150605	0.173568	0.470474
N42	N	1.276830	0.007500	0.707124
H43	H	0.556752	0.205148	0.000038
H44	H	1.217859	-0.550716	0.187757
Br45	Br	1.463962	-0.238737	0.449266
H46	H	0.711136	0.307284	0.000036
H47	H	1.254046	-0.367568	-0.187233
H48	H	0.912124	0.289379	0.000022
Br49	Br	0.991436	-0.201113	0.000013
Br50	Br	1.047733	0.308929	0.550802
Br51	Br	1.067681	0.282690	0.271848
H52	H	1.229705	-0.335064	0.187215
H53	H	1.100091	-0.523307	0.107098
H54	H	1.407454	-0.164394	0.696088
Br55	Br	0.837043	-0.303254	0.000020
H56	H	1.363926	-0.107132	0.303910
H57	H	1.107457	-0.306029	0.114271
Br58	Br	1.106605	0.231455	0.728297
H59	H	0.599558	-0.219194	-0.000065
H60	H	1.415119	-0.392109	0.076985
H61	H	1.410459	-0.609399	0.077450
H62	H	1.426429	-0.407594	-0.077064
Br63	Br	1.454729	-0.662819	-0.127139
Br64	Br	1.281688	-0.620187	-0.241175
Br65	Br	1.061137	-0.554006	-0.115553
Br66	Br	1.065829	-0.290361	-0.114007
