data_functionalizedCrystal
_audit_creation_method	'MofGen! by Chris Wilmer'
_symmetry_space_group_name_H-M	'P1'
_symmetry_Int_Tables_number	1
_symmetry_cell_setting	triclinic
loop_
_symmetry_equiv_pos_as_xyz
  x,y,z
_cell_length_a	13.032721
_cell_length_b	12.759401
_cell_length_c	13.032268
_cell_angle_alpha	82.836092
_cell_angle_beta	103.289627
_cell_angle_gamma	82.794169
loop_
_atom_site_label
_atom_site_type_symbol
_atom_site_fract_x
_atom_site_fract_y
_atom_site_fract_z
Zn1	Zn	-0.499040	-1.458905	-0.654168
Zn2	Zn	0.000960	-0.958905	-0.154168
Zn3	Zn	-0.654124	-1.458791	-0.499116
Zn4	Zn	-0.154124	-0.958791	0.000884
Zn5	Zn	-0.476539	-1.308770	-0.476591
Zn6	Zn	0.023461	-0.808770	0.023409
Zn7	Zn	-0.676604	-1.257631	-0.676662
Zn8	Zn	-0.176604	-0.757631	-0.176662
O9	O	-0.576577	-1.371024	-0.576634
O10	O	-0.076577	-0.871024	-0.076634
O11	O	-0.519621	-1.605908	-0.633612
O12	O	-0.019621	-1.105908	-0.133612
O13	O	-0.611743	-1.460244	-0.347507
O14	O	-0.111743	-0.960244	0.152493
O15	O	-0.330893	-1.350136	-0.481306
O16	O	0.169107	-0.850136	0.018694
O17	O	-0.633561	-1.605824	-0.519696
O18	O	-0.133561	-1.105824	-0.019696
O19	O	-0.347424	-1.460440	-0.611771
O20	O	0.152576	-0.960440	-0.111771
O21	O	-0.481272	-1.350025	-0.330959
O22	O	0.018728	-0.850025	0.169041
O23	O	-0.503069	-1.154968	-0.503118
O24	O	-0.003069	-0.654968	-0.003118
O25	O	-0.671874	-1.262976	-0.822299
O26	O	-0.171874	-0.762976	-0.322299
O27	O	-0.650056	-1.117396	-0.650110
O28	O	-0.150056	-0.617396	-0.150110
O29	O	-0.541419	-1.410852	-0.805772
O30	O	-0.041419	-0.910852	-0.305772
O31	O	-0.805737	-1.410656	-0.541508
O32	O	-0.305737	-0.910656	-0.041508
O33	O	-0.822253	-1.262865	-0.671951
O34	O	-0.322253	-0.762865	-0.171951
C35	C	-0.576561	-1.098062	-0.576611
C36	C	-0.076561	-0.598062	-0.076611
C37	C	-0.576583	-0.981280	-0.576630
C38	C	-0.076583	-0.481280	-0.076630
C39	C	-0.852536	-1.331224	-0.611638
C40	C	-0.352536	-0.831224	-0.111638
C41	C	-0.970598	-1.314289	-0.626648
C42	C	-0.470598	-0.814289	-0.126648
C43	C	-0.611664	-1.331223	-0.853649
C44	C	-0.111664	-0.831223	-0.353649
C45	C	-0.626616	-1.314261	-0.971696
C46	C	-0.126616	-0.814261	-0.471696
C47	C	-1.015033	-1.379912	-0.568848
C48	C	-0.515033	-0.879912	-0.068848
C49	C	-1.137055	-1.362410	-0.584360
C50	C	-0.637055	-0.862410	-0.084360
C51	C	-0.299542	-1.411005	-0.541517
C52	C	0.200458	-0.911005	-0.041517
C53	C	-0.181487	-1.428042	-0.526552
C54	C	0.318513	-0.928042	-0.026552
C55	C	-0.576593	-1.645052	-0.576658
C56	C	-0.076593	-1.145052	-0.076658
C57	C	-0.576600	-1.761827	-0.576668
C58	C	-0.076600	-1.261827	-0.076668
C59	C	-0.653209	-0.906882	-0.653075
C60	C	-0.153209	-0.406882	-0.153075
C61	C	-0.653216	-0.797155	-0.653096
C62	C	-0.153216	-0.297155	-0.153096
C63	C	-0.499967	-0.836234	-0.500219
C64	C	0.000033	-0.336234	-0.000219
C65	C	-0.499956	-0.945959	-0.500203
C66	C	0.000044	-0.445959	-0.000203
C67	C	-0.568735	-1.379866	-1.016148
C68	C	-0.068735	-0.879866	-0.516148
C69	C	-0.584187	-1.362337	-1.138155
C70	C	-0.084187	-0.862337	-0.638155
C71	C	-0.541550	-1.410743	-0.300688
C72	C	-0.041550	-0.910743	0.199312
C73	C	-0.526299	-1.427950	-0.182603
C74	C	-0.026299	-0.927950	0.317397
H75	H	-0.962742	-1.449056	-0.507882
H76	H	-0.462742	-0.949056	-0.007882
H77	H	-1.129198	-1.497191	-0.465583
H78	H	-0.629198	-0.997191	0.034417
H79	H	-1.022892	-1.245152	-0.687621
H80	H	-0.522892	-0.745152	-0.187621
N81	N	-0.664993	-1.270747	-1.207379
N82	N	-0.164993	-0.770747	-0.707379
H83	H	-0.701498	-1.229375	-1.160952
H84	H	-0.201498	-0.729375	-0.660952
H85	H	-0.627544	-1.221801	-1.247914
H86	H	-0.127544	-0.721801	-0.747914
H87	H	-0.715601	-0.935636	-0.715309
H88	H	-0.215601	-0.435636	-0.215309
H89	H	-1.189346	-1.293269	-0.645338
H90	H	-0.689346	-0.793269	-0.145338
H91	H	-0.715611	-0.736583	-0.715347
H92	H	-0.215611	-0.236583	-0.215347
N93	N	-0.445506	-1.519552	-1.113384
N94	N	0.054494	-1.019552	-0.613384
H95	H	-0.409004	-1.560924	-1.159813
H96	H	0.090996	-1.060924	-0.659813
H97	H	-0.390560	-1.490449	-1.061129
H98	H	0.109440	-0.990449	-0.561129
N99	N	-0.417347	-0.798136	-0.417766
N100	N	0.082653	-0.298136	0.082234
H101	H	-0.428989	-0.717336	-0.429365
H102	H	0.071011	-0.217336	0.070635
H103	H	-0.424175	-0.825847	-0.343981
H104	H	0.075825	-0.325847	0.156019
H105	H	-0.437552	-1.006538	-0.437952
H106	H	0.062448	-0.506538	0.062048
N107	N	-0.487963	-1.471477	-0.946928
N108	N	0.012037	-0.971477	-0.446928
H109	H	-0.488386	-1.471024	-0.869583
H110	H	0.011614	-0.971024	-0.369583
H111	H	-0.506963	-1.541349	-0.968380
H112	H	-0.006963	-1.041349	-0.468380
H113	H	-0.687602	-1.245113	-1.023963
H114	H	-0.187602	-0.745113	-0.523963
