data_functionalizedCrystal
_audit_creation_method	'MofGen! by Chris Wilmer'
_symmetry_space_group_name_H-M	'P1'
_symmetry_Int_Tables_number	1
_symmetry_cell_setting	triclinic
loop_
_symmetry_equiv_pos_as_xyz
  x,y,z
_cell_length_a	18.215407
_cell_length_b	18.215406
_cell_length_c	18.215399
_cell_angle_alpha	90.015166
_cell_angle_beta	89.979405
_cell_angle_gamma	89.999279
loop_
_atom_site_label
_atom_site_type_symbol
_atom_site_fract_x
_atom_site_fract_y
_atom_site_fract_z
Zn1	Zn	-1.125195	-0.292993	0.416196
Zn2	Zn	-0.625195	0.207007	0.916196
Zn3	Zn	-1.125155	-0.416065	0.293157
Zn4	Zn	-0.625155	0.083935	0.793157
Zn5	Zn	-1.002128	-0.293016	0.293142
Zn6	Zn	-0.502128	0.206984	0.793142
Zn7	Zn	-1.002145	-0.416022	0.416181
Zn8	Zn	-0.502145	0.083978	0.916181
O9	O	-1.063656	-0.354524	0.354669
O10	O	-0.563656	0.145476	0.854669
O11	O	-1.228174	-0.309327	0.399888
O12	O	-0.728174	0.190673	0.899888
O13	O	-1.108811	-0.399769	0.190171
O14	O	-0.608811	0.100231	0.690171
O15	O	-1.018462	-0.190029	0.309465
O16	O	-0.518462	0.309971	0.809465
O17	O	-1.228145	-0.399747	0.309492
O18	O	-0.728145	0.100253	0.809492
O19	O	-1.108879	-0.190012	0.399873
O20	O	-0.608879	0.309988	0.899873
O21	O	-1.018424	-0.309366	0.190160
O22	O	-0.518424	0.190634	0.690160
O23	O	-0.899146	-0.309325	0.309450
O24	O	-0.399146	0.190675	0.809450
O25	O	-1.018492	-0.399675	0.519167
O26	O	-0.518492	0.100325	1.019167
O27	O	-0.899159	-0.399697	0.399846
O28	O	-0.399159	0.100303	0.899846
O29	O	-1.108896	-0.309286	0.519178
O30	O	-0.608896	0.190714	1.019178
O31	O	-1.108828	-0.519043	0.309477
O32	O	-0.608828	-0.019043	0.809477
O33	O	-1.018454	-0.519012	0.399861
O34	O	-0.518454	-0.019012	0.899861
C35	C	-0.872450	-0.354510	0.354645
C36	C	-0.372450	0.145490	0.854645
C37	C	-0.790651	-0.354521	0.354653
C38	C	-0.290651	0.145479	0.854653
C39	C	-1.063659	-0.545730	0.354685
C40	C	-0.563659	-0.045730	0.854685
C41	C	-1.063727	-0.627529	0.354717
C42	C	-0.563727	-0.127529	0.854717
C43	C	-0.602483	-0.401650	0.401660
C44	C	-0.102483	0.098350	0.901660
C45	C	-0.525624	-0.401652	0.401669
C46	C	-0.025624	0.098348	0.901669
C47	C	-0.525581	-0.307402	0.307681
C48	C	-0.025581	0.192598	0.807681
C49	C	-0.602438	-0.307397	0.307677
C50	C	-0.102438	0.192603	0.807677
C51	C	-0.640887	-0.354526	0.354665
C52	C	-0.140887	0.145474	0.854665
C53	C	-0.487171	-0.354532	0.354678
C54	C	0.012829	0.145468	0.854678
C55	C	-0.403837	-0.354533	0.354686
C56	C	0.096163	0.145467	0.854686
C57	C	-0.724226	-0.354523	0.354658
C58	C	-0.224226	0.145477	0.854658
C59	C	-1.063701	-0.354473	0.546622
C60	C	-0.563701	0.145527	1.046622
C61	C	-1.063720	-0.354452	0.628421
C62	C	-0.563720	0.145548	1.128421
C63	C	-0.255609	-0.354537	0.354690
C64	C	0.244391	0.145463	0.854690
C65	C	-0.337408	-0.354536	0.354690
C66	C	0.162592	0.145464	0.854690
C67	C	-1.063673	-0.162571	0.354669
C68	C	-0.563673	0.337429	0.854669
C69	C	-1.063681	-0.080772	0.354669
C70	C	-0.563681	0.419228	0.854669
C71	C	-1.016624	0.107414	0.307621
C72	C	-0.516624	0.607414	0.807621
C73	C	-1.016630	0.184273	0.307629
C74	C	-0.516630	0.684273	0.807629
C75	C	-1.110786	0.184279	0.401770
C76	C	-0.610786	0.684279	0.901770
C77	C	-1.110776	0.107422	0.401765
C78	C	-0.610776	0.607422	0.901765
C79	C	-1.063696	0.068991	0.354685
C80	C	-0.563696	0.568991	0.854685
C81	C	-1.063712	0.222707	0.354700
C82	C	-0.563712	0.722707	0.854700
C83	C	-1.063719	0.306041	0.354710
C84	C	-0.563719	0.806041	0.854710
C85	C	-1.063687	-0.014348	0.354676
C86	C	-0.563687	0.485652	0.854676
C87	C	-1.063654	-0.354522	0.163463
C88	C	-0.563654	0.145478	0.663463
C89	C	-1.063777	-0.354336	0.081664
C90	C	-0.563777	0.145664	0.581664
C91	C	-1.110810	-0.307342	0.816622
C92	C	-0.610810	0.192658	1.316622
C93	C	-1.110819	-0.307321	0.893481
C94	C	-0.610819	0.192679	1.393481
C95	C	-1.016681	-0.401447	0.893458
C96	C	-0.516681	0.098553	1.393458
C97	C	-1.016669	-0.401465	0.816600
C98	C	-0.516669	0.098535	1.316600
C99	C	-1.063738	-0.354413	0.778185
C100	C	-0.563738	0.145587	1.278185
C101	C	-1.063759	-0.354374	0.931901
C102	C	-0.563759	0.145626	1.431901
C103	C	-1.063768	-0.354352	1.015234
C104	C	-0.563768	0.145648	1.515234
C105	C	-1.063728	-0.354435	0.694846
C106	C	-0.563728	0.145565	1.194846
H107	H	-0.633786	-0.440023	0.439924
H108	H	-0.133786	0.059977	0.939924
F109	F	-1.160874	0.066527	0.451865
F110	F	-0.660874	0.566527	0.951865
H111	H	-1.149134	-0.269028	0.785346
H112	H	-0.649134	0.230972	1.285346
H113	H	-1.149118	0.215577	0.440100
H114	H	-0.649118	0.715577	0.940100
H115	H	-1.149149	-0.268990	0.924773
H116	H	-0.649149	0.231010	1.424773
F117	F	-0.966526	0.225162	0.257540
F118	F	-0.466526	0.725162	0.757540
H119	H	-0.978362	-0.439757	0.924745
H120	H	-0.478362	0.060243	1.424745
F121	F	-0.966563	-0.451563	0.775690
F122	F	-0.466563	0.048437	1.275690
H123	H	-0.494359	-0.440025	0.439938
H124	H	0.005641	0.059975	0.939938
H125	H	-0.633708	-0.269018	0.269408
H126	H	-0.133708	0.230982	0.769408
F127	F	-0.484654	-0.257249	0.257674
F128	F	0.015346	0.242751	0.757674
F129	F	-0.966515	0.066516	0.257517
F130	F	-0.466515	0.566516	0.757517
