data_functionalizedCrystal
_audit_creation_method	'MofGen! by Chris Wilmer'
_symmetry_space_group_name_H-M	'P1'
_symmetry_Int_Tables_number	1
_symmetry_cell_setting	triclinic
loop_
_symmetry_equiv_pos_as_xyz
  x,y,z
_cell_length_a	19.188930
_cell_length_b	19.188930
_cell_length_c	15.455313
_cell_angle_alpha	92.650876
_cell_angle_beta	87.313934
_cell_angle_gamma	83.144779
loop_
_atom_site_label
_atom_site_type_symbol
_atom_site_fract_x
_atom_site_fract_y
_atom_site_fract_z
O1	O	0.929227	0.084092	-0.072420
O2	O	0.725913	0.095829	-0.072362
O3	O	0.833436	-0.011695	-0.072376
O4	O	0.821703	0.191615	-0.072406
O5	O	0.827288	-0.005571	0.071887
O6	O	0.719764	0.101952	0.071901
O7	O	0.923078	0.090215	0.071843
Cu8	Cu	0.820860	0.096643	0.085044
Cu9	Cu	0.828131	0.089401	-0.085563
O10	O	0.815555	0.197739	0.071857
C11	C	0.696827	0.098511	-0.000223
C12	C	0.619322	0.097371	-0.000200
C13	C	0.574399	0.160461	-0.000223
C14	C	0.501576	0.159389	-0.000232
C15	C	0.473679	0.095223	-0.000236
C16	C	0.518612	0.032125	-0.000208
C17	C	0.591433	0.033199	-0.000190
N18	N	0.367793	0.044090	-0.049362
N19	N	0.298615	0.043074	-0.049381
C20	C	0.254273	0.091982	-0.000288
N21	N	0.281721	0.141955	0.048813
N22	N	0.350905	0.142973	0.048829
C23	C	0.394717	0.094051	-0.000255
C24	C	0.130386	0.153914	-0.000320
C25	C	0.057561	0.152840	-0.000324
C26	C	0.074599	0.025573	-0.000309
C27	C	0.147422	0.026650	-0.000296
C28	C	0.175311	0.090822	-0.000306
C29	C	0.829982	-0.034644	-0.000242
C30	C	0.828841	-0.112148	-0.000234
C31	C	0.891932	-0.157072	-0.000248
C32	C	0.890861	-0.229897	-0.000261
C33	C	0.826694	-0.257793	-0.000243
C34	C	0.763595	-0.212859	-0.000234
C35	C	0.764668	-0.140036	-0.000230
N36	N	0.775554	-0.363713	0.048866
N37	N	0.774539	-0.432892	0.048863
C38	C	0.823457	-0.477202	-0.000260
N39	N	0.873439	-0.449721	-0.049370
N40	N	0.874456	-0.380536	-0.049363
C41	C	0.825524	-0.336755	-0.000249
C42	C	0.885391	-0.601092	-0.000290
C43	C	0.884318	-0.673917	-0.000309
C44	C	0.757049	-0.656877	-0.000273
C45	C	0.758125	-0.584053	-0.000263
C46	C	0.822298	-0.556165	-0.000267
C47	C	0.952164	0.087533	-0.000298
C48	C	1.029670	0.088673	-0.000327
C49	C	0.819009	0.220688	-0.000279
C50	C	0.820151	0.298192	-0.000293
N51	N	0.815751	0.101736	0.205041
N52	N	0.833246	0.084303	-0.205559
C53	C	0.861446	0.056073	0.250429
C54	C	0.857589	0.059931	0.341237
C55	C	0.808039	0.109456	0.386656
C56	C	0.762338	0.155121	0.341261
C57	C	0.766193	0.151259	0.250454
C58	C	0.791400	0.126106	0.658239
C59	C	0.787551	0.129966	0.749052
C60	C	0.882801	0.034775	0.749022
C61	C	0.886654	0.030920	0.658214
C62	C	0.840951	0.076582	0.612827
N63	N	0.804096	0.113402	0.479476
N64	N	0.844891	0.072633	0.520008
H65	H	0.153093	0.206167	-0.000316
H66	H	0.754189	0.163288	0.621293
Br67	Br	0.440596	0.245017	-0.000258
H68	H	0.927001	-0.009407	0.621236
Br69	Br	0.036747	-0.061511	-0.000299
H70	H	0.721990	0.195443	0.378246
H71	H	0.728982	0.188442	0.213500
H72	H	0.935697	-0.710495	-0.000325
H73	H	0.706749	-0.547474	-0.000247
H74	H	0.184000	-0.024725	-0.000282
Br75	Br	0.480754	-0.054959	-0.000204
H76	H	0.628010	-0.018178	-0.000171
Br77	Br	0.612245	0.247551	-0.000235
Br78	Br	0.928701	-0.011138	0.188799
H79	H	0.020984	0.204217	-0.000338
H80	H	0.894797	0.022748	0.378192
Br81	Br	0.979024	-0.119228	-0.000277
Br82	Br	0.944821	-0.027194	0.810621
Br83	Br	0.669964	-0.694728	-0.000258
H84	H	0.747199	0.170298	0.786028
H85	H	0.711350	-0.235576	-0.000222
Br86	Br	0.679037	-0.079063	-0.000213
Br87	Br	0.976491	-0.290878	-0.000284
H88	H	0.937645	-0.578384	-0.000297
