data_functionalizedCrystal
_audit_creation_method	'MofGen! by Chris Wilmer'
_symmetry_space_group_name_H-M	'P1'
_symmetry_Int_Tables_number	1
_symmetry_cell_setting	triclinic
loop_
_symmetry_equiv_pos_as_xyz
  x,y,z
_cell_length_a	19.288867
_cell_length_b	15.944493
_cell_length_c	18.366186
_cell_angle_alpha	89.999635
_cell_angle_beta	89.992441
_cell_angle_gamma	83.306056
loop_
_atom_site_label
_atom_site_type_symbol
_atom_site_fract_x
_atom_site_fract_y
_atom_site_fract_z
O1	O	0.921610	0.104794	-0.060515
O2	O	1.254943	0.438128	0.272819
O3	O	1.588276	0.771461	0.606152
O4	O	0.719384	0.118928	-0.060521
O5	O	1.052717	0.452262	0.272813
O6	O	1.386051	0.785595	0.606146
O7	O	0.826040	-0.010438	-0.060524
O8	O	1.159374	0.322895	0.272810
O9	O	1.492707	0.656229	0.606143
O10	O	0.814954	0.234161	-0.060512
O11	O	1.148287	0.567494	0.272822
O12	O	1.481620	0.900827	0.606155
O13	O	0.826022	-0.010444	0.060576
O14	O	1.159355	0.322889	0.393909
O15	O	1.492689	0.656222	0.727242
O16	O	0.719366	0.118922	0.060579
O17	O	1.052699	0.452255	0.393912
O18	O	1.386033	0.785589	0.727245
O19	O	0.921592	0.104788	0.060585
O20	O	1.254925	0.438121	0.393918
O21	O	1.588258	0.771455	0.727251
Zn22	Zn	0.820476	0.111854	0.079809
Zn23	Zn	1.153809	0.445187	0.413142
Zn24	Zn	1.487143	0.778521	0.746475
Zn25	Zn	0.820500	0.111862	-0.079745
Zn26	Zn	1.153833	0.445196	0.253588
Zn27	Zn	1.487166	0.778529	0.586922
O28	O	0.814935	0.234154	0.060588
O29	O	1.148269	0.567488	0.393921
O30	O	1.481602	0.900821	0.727254
C31	C	0.693497	0.118470	0.000028
C32	C	1.026831	0.451803	0.333361
C33	C	1.360164	0.785137	0.666695
C34	C	0.616391	0.117104	0.000025
C35	C	0.949724	0.450437	0.333359
C36	C	1.283057	0.783771	0.666692
C37	C	0.060811	0.107268	-0.065978
C38	C	0.394144	0.440601	0.267355
C39	C	0.727478	0.773935	0.600689
C40	C	0.133262	0.108546	-0.065981
C41	C	0.466595	0.441880	0.267353
C42	C	0.799928	0.775213	0.600686
C43	C	0.169482	0.109186	0.000031
C44	C	0.502815	0.442520	0.333364
C45	C	0.836149	0.775853	0.666697
C46	C	0.133248	0.108526	0.066049
C47	C	0.466581	0.441859	0.399383
C48	C	0.799915	0.775192	0.732716
C49	C	0.060799	0.107239	0.066050
C50	C	0.394133	0.440572	0.399383
C51	C	0.727466	0.773905	0.732717
C52	C	0.278928	0.160420	0.050606
C53	C	0.612261	0.493753	0.383939
C54	C	0.945594	0.827087	0.717273
C55	C	0.351374	0.161712	0.050603
C56	C	0.684708	0.495045	0.383936
C57	C	1.018041	0.828379	0.717269
C58	C	0.392937	0.113152	0.000031
C59	C	0.726271	0.446485	0.333364
C60	C	1.059604	0.779818	0.666698
C61	C	0.362044	0.063310	-0.050549
C62	C	0.695377	0.396644	0.282784
C63	C	1.028710	0.729977	0.616117
C64	C	0.289595	0.062023	-0.050549
C65	C	0.622929	0.395357	0.282785
C66	C	0.956262	0.728690	0.616118
C67	C	0.248040	0.110581	0.000037
C68	C	0.581373	0.443915	0.333370
C69	C	0.914707	0.777248	0.666704
C70	C	0.507723	0.115192	-0.065986
C71	C	0.841056	0.448526	0.267347
C72	C	1.174389	0.781859	0.600680
C73	C	0.580175	0.116466	-0.065986
C74	C	0.913509	0.449799	0.267347
C75	C	1.246842	0.783132	0.600680
C76	C	0.580159	0.116453	0.066045
C77	C	0.913492	0.449787	0.399379
C78	C	1.246826	0.783120	0.732712
C79	C	0.507709	0.115172	0.066043
C80	C	0.841042	0.448505	0.399377
C81	C	1.174376	0.781838	0.732710
C82	C	0.471494	0.114545	0.000025
C83	C	0.804828	0.447879	0.333359
C84	C	1.138161	0.781212	0.666692
C85	C	0.825578	-0.041734	0.000023
C86	C	1.158911	0.291599	0.333356
C87	C	1.492245	0.624932	0.666690
C88	C	0.824220	-0.134978	0.000014
C89	C	1.157553	0.198356	0.333347
C90	C	1.490886	0.531689	0.666680
C91	C	0.887000	-0.370979	0.000029
C92	C	1.220333	-0.037646	0.333363
C93	C	1.553666	0.295688	0.666696
C94	C	0.853154	-0.421414	-0.059680
C95	C	1.186487	-0.088080	0.273654
C96	C	1.519820	0.245253	0.606987
C97	C	0.821702	-0.305689	0.000022
C98	C	1.155036	0.027644	0.333356
C99	C	1.488369	0.360978	0.666689
C100	C	0.853121	-0.421396	0.059715
C101	C	1.186454	-0.088063	0.393048
C102	C	1.519787	0.245271	0.726382
C103	C	0.819276	-0.470589	0.000034
C104	C	1.152609	-0.137256	0.333368
C105	C	1.485942	0.196077	0.666701
C106	C	0.787874	-0.354896	-0.059736
C107	C	1.121207	-0.021562	0.273598
C108	C	1.454541	0.311771	0.606931
C109	C	0.787850	-0.354875	0.059712
C110	C	1.121184	-0.021541	0.393046
C111	C	1.454517	0.311792	0.726379
C112	C	0.753956	-0.405276	-0.000011
C113	C	1.087290	-0.071943	0.333322
C114	C	1.420623	0.261390	0.666656
C115	C	0.823102	-0.210695	0.000015
C116	C	1.156435	0.122639	0.333348
C117	C	1.489769	0.455972	0.666682
C118	C	0.817871	-0.565581	0.000036
C119	C	1.151204	-0.232248	0.333370
C120	C	1.484537	0.101086	0.666703
C121	C	0.947478	0.105246	0.000034
C122	C	1.280812	0.438580	0.333367
C123	C	1.614145	0.771913	0.666701
C124	C	1.024585	0.106612	0.000032
C125	C	1.357918	0.439946	0.333365
C126	C	1.691252	0.773279	0.666699
C127	C	0.815398	0.265451	0.000039
C128	C	1.148731	0.598784	0.333373
C129	C	1.482064	0.932117	0.666706
C130	C	0.816756	0.358694	0.000044
C131	C	1.150090	0.692027	0.333377
C132	C	1.483423	1.025361	0.666711
N133	N	0.820465	0.111848	0.188700
N134	N	1.153798	0.445181	0.522033
N135	N	1.487131	0.778514	0.855367
N136	N	0.820517	0.111862	-0.188636
N137	N	1.153850	0.445195	0.144697
N138	N	1.487183	0.778529	0.478031
C139	C	0.867708	0.054592	0.226799
C140	C	1.201041	0.387926	0.560132
C141	C	1.534374	0.721259	0.893466
C142	C	0.867712	0.054589	0.303027
C143	C	1.201045	0.387922	0.636360
C144	C	1.534379	0.721255	0.969693
C145	C	0.820480	0.111855	0.341153
C146	C	1.153813	0.445188	0.674486
C147	C	1.487147	0.778521	1.007819
C148	C	0.773228	0.169114	0.303044
C149	C	1.106562	0.502448	0.636378
C150	C	1.439895	0.835781	0.969711
C151	C	0.773221	0.169111	0.226818
C152	C	1.106554	0.502444	0.560151
C153	C	1.439887	0.835778	0.893485
C154	C	0.811370	0.188390	0.461916
C155	C	1.144704	0.521724	0.795250
C156	C	1.478037	0.855057	1.128583
C157	C	0.811383	0.188395	0.538141
C158	C	1.144716	0.521728	0.871475
C159	C	1.478050	0.855061	1.204808
C160	C	0.820500	0.111865	0.576260
C161	C	1.153833	0.445199	0.909594
C162	C	1.487167	0.778532	1.242927
C163	C	0.829619	0.035328	0.538145
C164	C	1.162952	0.368661	0.871478
C165	C	1.496286	0.701994	1.204811
C166	C	0.829611	0.035324	0.461918
C167	C	1.162945	0.368658	0.795252
C168	C	1.496278	0.701991	1.128585
C169	C	0.820483	0.111865	0.423807
C170	C	1.153816	0.445198	0.757141
C171	C	1.487150	0.778531	1.090474
C172	C	0.867750	0.054601	0.697014
C173	C	1.201083	0.387934	1.030348
C174	C	1.534417	0.721268	1.363681
C175	C	0.867750	0.054596	0.773243
C176	C	1.201083	0.387930	1.106577
C177	C	1.534416	0.721263	1.439910
C178	C	0.773269	0.169129	0.773260
C179	C	1.106603	0.502463	1.106593
C180	C	1.439936	0.835796	1.439926
C181	C	0.773267	0.169127	0.697032
C182	C	1.106600	0.502460	1.030365
C183	C	1.439933	0.835794	1.363698
C184	C	0.820511	0.111864	0.658914
C185	C	1.153844	0.445197	0.992247
C186	C	1.487177	0.778530	1.325580
H187	H	0.478236	0.114680	-0.119742
H188	H	0.811569	0.448013	0.213591
H189	H	1.144902	0.781346	0.546924
H190	H	0.880737	-0.450463	-0.110158
H191	H	1.214071	-0.117129	0.223175
H192	H	1.547404	0.216204	0.556508
Cl193	Cl	0.745337	-0.310239	-0.137758
Cl194	Cl	1.078671	0.023095	0.195575
Cl195	Cl	1.412004	0.356428	0.528909
H196	H	0.906218	0.007968	0.804264
H197	H	1.239552	0.341301	1.137598
H198	H	1.572885	0.674634	1.470931
Cl199	Cl	0.667052	-0.428826	-0.000061
Cl200	Cl	1.000385	-0.095492	0.333272
Cl201	Cl	1.333718	0.237841	0.666605
Cl202	Cl	0.625688	0.117244	0.149032
Cl203	Cl	0.959021	0.450577	0.482365
Cl204	Cl	1.292355	0.783911	0.815699
Cl205	Cl	0.895703	-0.466229	0.137647
Cl206	Cl	1.229036	-0.132896	0.470980
Cl207	Cl	1.562369	0.200438	0.804314
Cl208	Cl	0.713887	0.241115	0.821184
Cl209	Cl	1.047220	0.574448	1.154517
Cl210	Cl	1.380554	0.907781	1.487850
H211	H	0.734800	0.215753	0.666009
H212	H	1.068133	0.549086	0.999343
H213	H	1.401466	0.882420	1.332676
H214	H	0.837035	-0.026995	0.430888
H215	H	1.170368	0.306338	0.764221
H216	H	1.503701	0.639672	1.097554
H217	H	0.760290	-0.325811	0.110193
H218	H	1.093624	0.007523	0.443526
H219	H	1.426957	0.340856	0.776859
H220	H	0.943245	-0.355567	-0.000029
H221	H	1.276579	-0.022233	0.333304
H222	H	1.609912	0.311100	0.666637
Cl223	Cl	0.250760	-0.000635	-0.114129
Cl224	Cl	0.584093	0.332698	0.219204
Cl225	Cl	0.917427	0.666031	0.552538
H226	H	0.906175	0.007964	0.195765
H227	H	1.239508	0.341297	0.529099
H228	H	1.572841	0.674630	0.862432
H229	H	0.609670	0.116993	-0.119742
H230	H	0.943003	0.450326	0.213592
H231	H	1.276336	0.783660	0.546925
Cl232	Cl	0.015256	0.106419	0.149041
Cl233	Cl	0.348589	0.439752	0.482374
Cl234	Cl	0.681922	0.773085	0.815708
Cl235	Cl	0.927109	-0.017395	0.350931
Cl236	Cl	1.260442	0.315938	0.684264
Cl237	Cl	1.593776	0.649271	1.017598
Cl238	Cl	0.841087	-0.060888	0.586056
Cl239	Cl	1.174420	0.272446	0.919390
Cl240	Cl	1.507753	0.605779	1.252723
H241	H	0.734770	0.215740	0.334090
H242	H	1.068104	0.549073	0.667424
H243	H	1.401437	0.882407	1.000757
Cl244	Cl	0.927138	-0.017391	0.649093
Cl245	Cl	1.260472	0.315942	0.982426
Cl246	Cl	1.593805	0.649276	1.315760
H247	H	0.803962	0.250716	0.569169
H248	H	1.137295	0.584049	0.902503
H249	H	1.470629	0.917383	1.235836
Cl250	Cl	0.799973	0.284611	0.414004
Cl251	Cl	1.133306	0.617944	0.747337
Cl252	Cl	1.466640	0.951277	1.080670
H253	H	0.031330	0.106755	-0.119735
H254	H	0.364663	0.440088	0.213598
H255	H	0.697997	0.773421	0.546932
Cl256	Cl	0.414286	0.002262	-0.114133
Cl257	Cl	0.747619	0.335595	0.219201
Cl258	Cl	1.080953	0.668929	0.552534
Cl259	Cl	0.178812	0.109373	-0.148971
Cl260	Cl	0.512145	0.442707	0.184362
Cl261	Cl	0.845479	0.776040	0.517696
Cl262	Cl	0.462164	0.114361	0.149032
Cl263	Cl	0.795497	0.447695	0.482366
Cl264	Cl	1.128830	0.781028	0.815699
H265	H	0.734749	0.215736	0.195797
H266	H	1.068082	0.549069	0.529130
H267	H	1.401416	0.882403	0.862464
H268	H	0.245093	0.199959	0.091796
H269	H	0.578426	0.533293	0.425129
H270	H	0.911760	0.866626	0.758462
Cl271	Cl	0.390204	0.224376	0.114183
Cl272	Cl	0.723537	0.557710	0.447516
Cl273	Cl	1.056870	0.891043	0.780849
Cl274	Cl	0.178781	0.109326	0.149035
Cl275	Cl	0.512115	0.442660	0.482368
Cl276	Cl	0.845448	0.775993	0.815701
