data_functionalizedCrystal
_audit_creation_method	'MofGen! by Chris Wilmer'
_symmetry_space_group_name_H-M	'P1'
_symmetry_Int_Tables_number	1
_symmetry_cell_setting	triclinic
loop_
_symmetry_equiv_pos_as_xyz
  x,y,z
_cell_length_a	14.044220
_cell_length_b	15.995350
_cell_length_c	13.101039
_cell_angle_alpha	93.364563
_cell_angle_beta	86.340132
_cell_angle_gamma	88.340626
loop_
_atom_site_label
_atom_site_type_symbol
_atom_site_fract_x
_atom_site_fract_y
_atom_site_fract_z
O1	O	1.262914	0.197637	-0.085096
O2	O	0.986946	0.190352	-0.085122
O3	O	1.132474	0.072670	-0.085107
O4	O	1.117386	0.315319	-0.085111
O5	O	1.122032	0.081129	0.085321
O6	O	0.976505	0.198810	0.085307
O7	O	1.252472	0.206096	0.085333
Zn8	Zn	1.112831	0.203796	0.112379
Zn9	Zn	1.126588	0.192651	-0.112168
O10	O	1.106945	0.323777	0.085318
C11	C	0.946411	0.191392	0.000089
C12	C	0.841186	0.181881	0.000079
C13	C	1.126629	0.045658	0.000105
C14	C	1.124760	-0.047432	0.000099
C15	C	0.648524	0.164494	0.000099
C16	C	0.590890	0.231950	0.000102
C17	C	0.483686	0.222275	0.000114
C18	C	0.755738	0.174167	0.000088
C19	C	1.118044	-0.385681	0.000102
C20	C	1.014425	-0.346007	-0.000290
C21	C	1.016272	-0.249158	0.000094
C22	C	1.121375	-0.217872	0.000100
C23	C	1.166533	-0.250301	0.097426
C24	C	1.163924	-0.347127	0.097507
C25	C	1.177939	-0.356944	-0.096302
C26	C	1.177993	-0.260065	-0.097588
C27	C	1.123263	-0.123033	0.000102
C28	C	1.116159	-0.480519	0.000106
C29	C	1.293008	0.205055	0.000120
C30	C	1.398233	0.214566	0.000123
C31	C	1.112789	0.350789	0.000103
C32	C	1.114659	0.443879	0.000103
N33	N	1.103449	0.211402	0.265626
N34	N	1.135977	0.185039	-0.265416
C35	C	1.090685	0.221758	0.474668
C36	C	1.148739	0.174686	0.525549
C37	C	1.141636	0.180448	0.641867
C38	C	1.097786	0.215997	0.358340
H39	H	0.617354	0.099482	0.000106
N40	N	1.017795	0.280880	0.532665
H41	H	0.951606	0.265380	0.514067
H42	H	1.023077	0.276646	0.608722
N43	N	0.968706	-0.220063	-0.092316
H44	H	0.946345	-0.270182	-0.133668
H45	H	0.912158	-0.181666	-0.068994
N46	N	0.957023	-0.211647	0.092657
H47	H	0.929607	-0.258034	0.133373
H48	H	0.998550	-0.176297	0.136927
N49	N	1.113619	-0.211473	0.193361
H50	H	1.143204	-0.232731	0.255572
H51	H	1.117770	-0.148503	0.194377
H52	H	1.148573	-0.383676	-0.170069
H53	H	0.622062	0.296967	0.000097
H54	H	1.122190	-0.364602	0.170256
N55	N	1.268519	-0.223707	0.102213
H56	H	1.275125	-0.187992	0.167394
H57	H	1.312245	-0.275041	0.101208
H58	H	1.203775	0.130059	0.481753
H59	H	1.254999	-0.239269	-0.103460
N60	N	0.965206	-0.379240	-0.092735
H61	H	1.009594	-0.420337	-0.135261
H62	H	0.905505	-0.408373	-0.069429
N63	N	1.264350	-0.382028	0.103399
H64	H	1.263439	-0.445138	0.103503
H65	H	1.305399	-0.365418	0.042230
H66	H	1.145029	-0.239181	-0.169587
N67	N	0.954159	-0.371464	0.091638
H68	H	0.897593	-0.403080	0.067877
H69	H	0.993757	-0.408556	0.133497
N70	N	1.279213	-0.391492	-0.097170
H71	H	1.286306	-0.425595	-0.035455
H72	H	1.294492	-0.428297	-0.161776
