data_functionalizedCrystal
_audit_creation_method	'MofGen! by Chris Wilmer'
_symmetry_space_group_name_H-M	'P1'
_symmetry_Int_Tables_number	1
_symmetry_cell_setting	triclinic
loop_
_symmetry_equiv_pos_as_xyz
  x,y,z
_cell_length_a	12.827893
_cell_length_b	17.640280
_cell_length_c	12.827885
_cell_angle_alpha	101.230744
_cell_angle_beta	90.019272
_cell_angle_gamma	78.800662
loop_
_atom_site_label
_atom_site_type_symbol
_atom_site_fract_x
_atom_site_fract_y
_atom_site_fract_z
Zn1	Zn	1.681787	-0.314632	0.506827
Zn2	Zn	2.181787	0.185368	1.006827
Zn3	Zn	1.717023	-0.446826	0.296785
Zn4	Zn	2.217023	0.053174	0.796785
Zn5	Zn	1.507038	-0.314670	0.332090
Zn6	Zn	2.007038	0.185330	0.832090
Zn7	Zn	1.542340	-0.446767	0.471501
Zn8	Zn	2.042340	0.053233	0.971501
O9	O	1.612047	-0.380724	0.401801
O10	O	2.112047	0.119276	0.901801
O11	O	1.832699	-0.332176	0.478973
O12	O	2.332699	0.167824	0.978973
O13	O	1.689141	-0.429336	0.155221
O14	O	2.189141	0.070664	0.655221
O15	O	1.500699	-0.204058	0.384829
O16	O	2.000699	0.295942	0.884829
O17	O	1.858587	-0.429298	0.324656
O18	O	2.358587	0.070702	0.824656
O19	O	1.629086	-0.204030	0.513207
O20	O	2.129086	0.295970	1.013207
O21	O	1.534866	-0.332242	0.181160
O22	O	2.034866	0.167758	0.681160
O23	O	1.365483	-0.332185	0.350575
O24	O	1.865483	0.167815	0.850575
O25	O	1.560865	-0.429198	0.622434
O26	O	2.060865	0.070802	1.122434
O27	O	1.391419	-0.429235	0.452999
O28	O	1.891419	0.070765	0.952999
O29	O	1.663316	-0.332119	0.648388
O30	O	2.163316	0.167881	1.148388
O31	O	1.723371	-0.557424	0.290402
O32	O	2.223371	-0.057424	0.790402
O33	O	1.595032	-0.557381	0.418765
O34	O	2.095032	-0.057381	0.918765
C35	C	1.340533	-0.380708	0.401785
C36	C	1.840533	0.119292	0.901785
C37	C	1.224383	-0.380721	0.401798
C38	C	1.724383	0.119279	0.901798
C39	C	1.185480	-0.428820	0.452363
C40	C	1.685480	0.071180	0.952363
C41	C	1.065433	-0.428834	0.452377
C42	C	1.565433	0.071166	0.952377
C43	C	1.666884	-0.586082	0.346942
C44	C	2.166884	-0.086082	0.846942
C45	C	1.690439	-0.673935	0.323508
C46	C	2.190439	-0.173935	0.823508
C47	C	1.433529	-0.962898	0.580206
C48	C	1.933529	-0.462898	1.080206
C49	C	1.455665	-1.045449	0.558153
C50	C	1.955665	-0.545449	1.058153
C51	C	1.589387	-1.045429	0.424624
C52	C	2.089387	-0.545429	0.924624
C53	C	1.567266	-0.962876	0.446669
C54	C	2.067266	-0.462876	0.946669
C55	C	1.489335	-0.921617	0.524461
C56	C	1.989335	-0.421617	1.024461
C57	C	1.623072	-0.921595	0.390924
C58	C	2.123072	-0.421595	0.890924
C59	C	1.600949	-0.839049	0.412964
C60	C	2.100949	-0.339049	0.912964
C61	C	1.523019	-0.797784	0.490750
C62	C	2.023019	-0.297784	0.990750
C63	C	1.467212	-0.839071	0.546501
C64	C	1.967212	-0.339071	1.046501
C65	C	1.700998	-0.962855	0.313128
C66	C	2.200998	-0.462855	0.813128
C67	C	1.756804	-0.921574	0.257382
C68	C	2.256804	-0.421574	0.757382
C69	C	1.734686	-0.839027	0.279427
C70	C	2.234686	-0.339027	0.779427
C71	C	1.656757	-0.797762	0.357213
C72	C	2.156757	-0.297762	0.857213
C73	C	1.790494	-0.797740	0.223676
C74	C	2.290494	-0.297740	0.723676
C75	C	1.768370	-0.715194	0.245716
C76	C	2.268370	-0.215194	0.745716
C77	C	1.634633	-0.715216	0.379253
C78	C	2.134633	-0.215216	0.879253
C79	C	1.884621	-0.380739	0.401817
C80	C	2.384621	0.119261	0.901817
C81	C	2.000776	-0.380746	0.401824
C82	C	2.500776	0.119254	0.901824
C83	C	1.612098	-0.380648	0.674391
C84	C	2.112098	0.119352	1.174391
C85	C	1.612119	-0.380615	0.790553
C86	C	2.112119	0.119385	1.290553
C87	C	1.557024	-0.174563	0.456897
C88	C	2.057024	0.325437	0.956897
C89	C	1.533576	-0.086710	0.480375
C90	C	2.033576	0.413290	0.980375
C91	C	1.612041	-0.380742	0.130286
C92	C	2.112041	0.119258	0.630286
C93	C	1.612162	-0.380552	0.014184
C94	C	2.112162	0.119448	0.514184
C95	C	1.662820	-0.332568	0.855183
C96	C	2.162820	0.167432	1.355183
C97	C	1.662843	-0.332534	0.975243
C98	C	2.162843	0.167466	1.475243
H99	H	1.241047	-0.469986	0.495647
H100	H	1.741047	0.030014	0.995647
Cl101	Cl	1.385487	-1.097343	0.628230
Cl102	Cl	1.885487	-0.597343	1.128230
Cl103	Cl	1.728847	-1.066629	0.285458
Cl104	Cl	2.228847	-0.566629	0.785458
H105	H	1.031929	-0.470015	0.495664
H106	H	1.531929	0.029985	0.995664
H107	H	1.034275	-0.339568	0.358527
H108	H	1.534275	0.160432	0.858527
Cl109	Cl	1.838517	-0.663294	0.175626
Cl110	Cl	2.338517	-0.163294	0.675626
H111	H	1.706204	-0.291456	0.821633
H112	H	2.206204	0.208544	1.321633
Cl113	Cl	1.545147	-0.444071	0.928458
Cl114	Cl	2.045147	0.055929	1.428458
Cl115	Cl	1.138598	-0.317152	0.334981
Cl116	Cl	1.638598	0.182848	0.834981
H117	H	1.706254	-0.291401	1.030773
H118	H	2.206254	0.208599	1.530773
Cl119	Cl	1.545119	-0.444084	0.842345
Cl120	Cl	2.045119	0.055916	1.342345
Cl121	Cl	1.536671	-0.663341	0.477060
Cl122	Cl	2.036671	-0.163341	0.977060
H123	H	1.403760	-0.805476	0.609854
H124	H	1.903760	-0.305476	1.109854
Cl125	Cl	1.495445	-0.694011	0.518700
Cl126	Cl	1.995445	-0.194011	1.018700
H127	H	1.370077	-0.929303	0.643559
H128	H	1.870077	-0.429303	1.143559
Cl129	Cl	1.687356	-1.097305	0.326836
Cl130	Cl	2.187356	-0.597305	0.826836
Cl131	Cl	1.854773	-0.973450	0.159594
Cl132	Cl	2.354773	-0.473450	0.659594
H133	H	1.853937	-0.831345	0.160332
H134	H	2.353937	-0.331345	0.660332
