data_functionalizedCrystal
_audit_creation_method	'MofGen! by Chris Wilmer'
_symmetry_space_group_name_H-M	'P1'
_symmetry_Int_Tables_number	1
_symmetry_cell_setting	triclinic
loop_
_symmetry_equiv_pos_as_xyz
  x,y,z
_cell_length_a	10.540539
_cell_length_b	10.540539
_cell_length_c	9.016244
_cell_angle_alpha	89.999933
_cell_angle_beta	89.994699
_cell_angle_gamma	84.525492
loop_
_atom_site_label
_atom_site_type_symbol
_atom_site_fract_x
_atom_site_fract_y
_atom_site_fract_z
O1	O	1.685893	0.178895	-0.123263
O2	O	1.316480	0.195751	-0.123280
O3	O	1.509614	0.002617	-0.123269
O4	O	1.492759	0.372030	-0.123274
O5	O	1.509586	0.002621	0.123411
O6	O	1.316452	0.195755	0.123400
O7	O	1.685865	0.178900	0.123418
Cu8	Cu	1.501156	0.187328	0.145933
Cu9	Cu	1.501189	0.187323	-0.145795
O10	O	1.492730	0.372034	0.123407
C11	C	1.269163	0.194489	0.000058
C12	C	1.128215	0.190707	0.000051
C13	C	0.944788	0.045790	0.000628
C14	C	1.091406	0.049624	0.000057
C15	C	1.066558	0.258600	-0.140811
C16	C	0.920014	0.253785	-0.140914
C17	C	0.919493	0.256660	0.139608
C18	C	1.066475	0.257960	0.141455
C19	C	1.508336	-0.044684	0.000068
C20	C	1.504554	-0.185632	0.000060
C21	C	1.359637	-0.369059	-0.000500
C22	C	1.363471	-0.222441	0.000055
C23	C	1.572434	-0.247287	0.140930
C24	C	1.567619	-0.393832	0.141049
C25	C	1.570520	-0.394355	-0.139473
C26	C	1.571820	-0.247373	-0.141336
C27	C	1.733182	0.180161	0.000077
C28	C	1.874130	0.183943	0.000074
C29	C	1.494008	0.419335	0.000066
C30	C	1.497790	0.560283	0.000064
N31	N	1.501141	0.187331	0.351119
N32	N	1.501213	0.187310	-0.350982
C33	C	1.397510	0.290298	0.586146
C34	C	1.397739	0.290684	0.414255
C35	C	1.633864	0.217464	0.413464
C36	C	1.633298	0.218193	0.585409
C37	C	1.473367	0.053892	0.585663
C38	C	1.470322	0.054757	0.413709
H39	H	1.107425	0.208362	0.245664
H40	H	1.090700	0.360819	0.149959
H41	H	0.872045	0.355250	-0.147309
H42	H	1.309661	-0.180683	0.101200
H43	H	1.524871	-0.425910	-0.246244
C44	C	1.291300	-0.164881	-0.136345
H45	H	1.259364	-0.231100	-0.192593
H46	H	1.347632	-0.121482	-0.195946
H47	H	1.222349	-0.106565	-0.104635
H48	H	1.088912	0.362208	-0.146054
C49	C	1.284350	-0.407708	-0.136954
H50	H	1.336490	-0.467288	-0.194802
H51	H	1.259496	-0.334294	-0.194967
H52	H	1.210620	-0.445420	-0.105269
H53	H	1.372684	0.031916	0.372962
H54	H	1.525258	-0.204686	0.245756
H55	H	1.517429	-0.422030	0.246347
C56	C	1.264498	0.266281	0.357300
H57	H	1.264456	0.266503	0.251931
H58	H	1.203453	0.331401	0.392634
H59	H	1.243386	0.185887	0.392187
H60	H	1.676041	-0.224933	0.146173
C61	C	1.575498	-0.049665	0.640595
H62	H	1.634828	-0.011848	0.701844
H63	H	1.618768	-0.089352	0.557907
H64	H	1.535904	-0.111669	0.695960
H65	H	1.298584	0.272446	0.627535
C66	C	1.710780	-0.214664	-0.152824
H67	H	1.729679	-0.162702	-0.071167
H68	H	1.721948	-0.170078	-0.242730
H69	H	1.766450	-0.291046	-0.151624
H70	H	1.415177	0.388722	0.629339
H71	H	1.657653	0.315531	0.625498
H72	H	1.540849	-0.025564	0.370737
H73	H	1.378630	0.025213	0.629106
H74	H	1.133163	-0.004177	-0.101092
H75	H	1.109159	0.211434	-0.245643
C76	C	1.708177	-0.458161	-0.140763
H77	H	1.721314	-0.512190	-0.056726
H78	H	1.766101	-0.394476	-0.137671
H79	H	1.722026	-0.507211	-0.228678
H80	H	1.415639	0.389668	0.373108
H81	H	1.304121	-0.399265	0.099949
H82	H	1.669083	-0.441800	0.147444
H83	H	1.712941	0.146204	0.626995
C84	C	1.740667	0.118911	0.358207
H85	H	1.705179	0.058370	0.296470
H86	H	1.781563	0.076545	0.440745
H87	H	1.801143	0.161021	0.303283
H88	H	1.658762	0.313702	0.370386
C89	C	1.148965	-0.022542	0.136463
H90	H	1.082745	-0.054478	0.192722
H91	H	1.192357	0.033798	0.196050
H92	H	1.207287	-0.091492	0.104765
C93	C	0.906150	-0.029506	0.137093
H94	H	0.846573	0.022630	0.194951
H95	H	0.979570	-0.054359	0.195090
H96	H	0.868438	-0.103237	0.105422
H97	H	0.887935	0.211004	0.246381
H98	H	0.914592	-0.009712	-0.099828
H99	H	0.891816	0.203602	-0.246209
H100	H	1.522153	-0.206517	-0.245547
C101	C	0.855702	0.394322	0.140895
H102	H	0.801677	0.407469	0.056861
H103	H	0.919398	0.452235	0.137794
H104	H	0.806651	0.408178	0.228812
