data_functionalizedCrystal
_audit_creation_method	'MofGen! by Chris Wilmer'
_symmetry_space_group_name_H-M	'P1'
_symmetry_Int_Tables_number	1
_symmetry_cell_setting	triclinic
loop_
_symmetry_equiv_pos_as_xyz
  x,y,z
_cell_length_a	16.109318
_cell_length_b	17.699083
_cell_length_c	14.586319
_cell_angle_alpha	89.995556
_cell_angle_beta	89.999897
_cell_angle_gamma	83.375789
loop_
_atom_site_label
_atom_site_type_symbol
_atom_site_fract_x
_atom_site_fract_y
_atom_site_fract_z
O1	O	1.102954	0.097347	-0.076166
O2	O	0.860874	0.109440	-0.076185
O3	O	0.988753	-0.006786	-0.076167
O4	O	0.975075	0.213572	-0.076184
O5	O	0.988744	-0.006787	0.076314
O6	O	0.860864	0.109439	0.076296
O7	O	1.102945	0.097346	0.076315
Cu8	Cu	0.981904	0.103392	0.090228
Cu9	Cu	0.981915	0.103393	-0.090098
O10	O	0.975065	0.213571	0.076297
C11	C	0.829895	0.108947	0.000053
C12	C	0.737603	0.107472	0.000046
C13	C	0.438543	0.102707	-0.083054
C14	C	0.525262	0.104088	-0.083060
C15	C	0.525270	0.104076	0.083183
C16	C	0.438554	0.102690	0.083188
C17	C	0.395192	0.102009	0.000066
C18	C	0.568627	0.104777	0.000056
C19	C	0.662651	0.106275	0.000050
C20	C	0.301161	0.100509	0.000072
C21	C	0.988259	-0.034984	0.000074
C22	C	0.986788	-0.119004	0.000074
C23	C	1.061851	-0.167514	0.000081
C24	C	1.060464	-0.246459	0.000073
C25	C	0.984014	-0.276893	0.000064
C26	C	0.908946	-0.228378	0.000054
C27	C	0.910333	-0.149434	0.000056
C28	C	0.903349	-0.546749	0.000046
C29	C	0.901967	-0.625699	0.000048
C30	C	1.053480	-0.643774	0.000063
C31	C	1.054867	-0.564831	0.000065
C32	C	0.979799	-0.516322	0.000050
C33	C	0.981304	-0.430720	0.000058
C34	C	0.982509	-0.362493	0.000064
C35	C	1.133923	0.097838	0.000075
C36	C	1.226215	0.099314	0.000076
C37	C	0.975560	0.241770	0.000054
C38	C	0.977030	0.325790	0.000048
N39	N	0.981902	0.103391	0.217060
C40	C	1.038545	0.051944	0.452074
C41	C	1.038547	0.051943	0.548056
C42	C	0.925271	0.154842	0.548049
C43	C	0.925265	0.154839	0.452070
C44	C	0.981907	0.103391	0.404085
C45	C	0.981915	0.103392	0.596045
C46	C	0.981917	0.103391	0.700113
C47	C	0.981905	0.103391	0.300011
N48	N	0.981920	0.103393	0.783070
H49	H	0.560554	0.104655	-0.150745
Br50	Br	0.848388	0.224659	0.386933
H51	H	0.403240	0.102151	-0.150737
Br52	Br	1.155360	-0.709612	0.000083
Br53	Br	0.584123	0.105007	0.195985
Br54	Br	0.798206	-0.667002	0.000037
Br55	Br	0.379715	0.101737	0.196003
Br56	Br	1.115412	-0.017884	0.613183
Br57	Br	1.165610	-0.126219	0.000106
Br58	Br	0.848404	0.224663	0.613174
H59	H	1.084665	0.010051	0.413007
Br60	Br	1.162340	-0.312292	0.000082
Br61	Br	1.158624	-0.523531	0.000076
H62	H	0.842223	-0.507262	0.000035
Br63	Br	0.805190	-0.269680	0.000027
H64	H	0.849209	-0.109937	0.000050
