data_functionalizedCrystal
_audit_creation_method	'MofGen! by Chris Wilmer'
_symmetry_space_group_name_H-M	'P1'
_symmetry_Int_Tables_number	1
_symmetry_cell_setting	triclinic
loop_
_symmetry_equiv_pos_as_xyz
  x,y,z
_cell_length_a	21.295412
_cell_length_b	19.805407
_cell_length_c	19.805405
_cell_angle_alpha	90.026410
_cell_angle_beta	90.029645
_cell_angle_gamma	90.017371
loop_
_atom_site_label
_atom_site_type_symbol
_atom_site_fract_x
_atom_site_fract_y
_atom_site_fract_z
Zn1	Zn	-0.355934	-1.034721	0.269477
Zn2	Zn	-0.022600	-0.701388	0.602810
Zn3	Zn	0.310733	-0.368054	0.936143
Zn4	Zn	-0.250662	-1.034640	0.382666
Zn5	Zn	0.082671	-0.701307	0.715999
Zn6	Zn	0.416005	-0.367973	1.049332
Zn7	Zn	-0.250677	-0.921540	0.269496
Zn8	Zn	0.082656	-0.588207	0.602829
Zn9	Zn	0.415990	-0.254873	0.936163
Zn10	Zn	-0.355892	-0.921499	0.382629
Zn11	Zn	-0.022559	-0.588166	0.715962
Zn12	Zn	0.310775	-0.254832	1.049296
O13	O	-0.303291	-0.978100	0.326067
O14	O	0.030042	-0.644767	0.659400
O15	O	0.363376	-0.311433	0.992733
O16	O	-0.341980	-1.129427	0.284499
O17	O	-0.008647	-0.796093	0.617832
O18	O	0.324686	-0.462760	0.951165
O19	O	-0.162575	-1.019620	0.367677
O20	O	0.170759	-0.686287	0.701010
O21	O	0.504092	-0.352954	1.034344
O22	O	-0.264663	-0.936605	0.174777
O23	O	0.068670	-0.603271	0.508110
O24	O	0.402003	-0.269938	0.841443
O25	O	-0.264638	-1.129367	0.367658
O26	O	0.068696	-0.796034	0.700991
O27	O	0.402029	-0.462701	1.034325
O28	O	-0.341995	-1.019758	0.174763
O29	O	-0.008662	-0.686425	0.508096
O30	O	0.324672	-0.353092	0.841429
O31	O	-0.162586	-0.936526	0.284532
O32	O	0.170748	-0.603193	0.617865
O33	O	0.504081	-0.269860	0.951198
O34	O	-0.264623	-0.826818	0.284496
O35	O	0.068710	-0.493485	0.617829
O36	O	0.402044	-0.160151	0.951163
O37	O	-0.443987	-0.936535	0.367596
O38	O	-0.110654	-0.603202	0.700929
O39	O	0.222680	-0.269868	1.034262
O40	O	-0.341924	-0.826788	0.367614
O41	O	-0.008590	-0.493455	0.700948
O42	O	0.324743	-0.160121	1.034281
O43	O	-0.444018	-1.019719	0.284463
O44	O	-0.110684	-0.686385	0.617796
O45	O	0.222649	-0.353052	0.951130
O46	O	-0.264597	-1.019581	0.477377
O47	O	0.068736	-0.686248	0.810711
O48	O	0.402070	-0.352914	1.144044
O49	O	-0.341909	-0.936457	0.477350
O50	O	-0.008576	-0.603123	0.810684
O51	O	0.324757	-0.269790	1.144017
C52	C	-0.303271	-0.802244	0.326054
C53	C	0.030063	-0.468911	0.659387
C54	C	0.363396	-0.135577	0.992720
C55	C	-0.303277	-0.727012	0.326065
C56	C	0.030056	-0.393679	0.659398
C57	C	0.363390	-0.060345	0.992731
C58	C	-0.303261	-0.978024	0.501923
C59	C	0.030073	-0.644691	0.835256
C60	C	0.363406	-0.311357	1.168590
C61	C	-0.303269	-0.978053	0.577155
C62	C	0.030065	-0.644720	0.910488
C63	C	0.363398	-0.311387	1.243821
C64	C	-0.467481	-0.978131	0.326023
C65	C	-0.134148	-0.644798	0.659356
C66	C	0.199185	-0.311465	0.992690
C67	C	-0.537450	-0.978145	0.326004
C68	C	-0.204116	-0.644811	0.659338
C69	C	0.129217	-0.311478	0.992671
C70	C	-1.036925	-1.021522	0.282610
C71	C	-0.703591	-0.688189	0.615943
C72	C	-0.370258	-0.354856	0.949277
C73	C	-0.971182	-1.021517	0.282627
C74	C	-0.637849	-0.688184	0.615960
C75	C	-0.304516	-0.354851	0.949293
C76	C	-0.938289	-0.978203	0.325915
C77	C	-0.604956	-0.644870	0.659248
C78	C	-0.271623	-0.311537	0.992582
C79	C	-0.971144	-0.934904	0.369203
C80	C	-0.637811	-0.601570	0.702536
C81	C	-0.304478	-0.268237	1.035869
C82	C	-1.036886	-0.934915	0.369190
C83	C	-0.703552	-0.601582	0.702523
C84	C	-0.370219	-0.268248	1.035857
N85	N	-0.835060	-0.918935	0.331123
N86	N	-0.501726	-0.585602	0.664456
N87	N	-0.168393	-0.252269	0.997790
N88	N	-0.772608	-0.918927	0.331131
N89	N	-0.439275	-0.585593	0.664465
N90	N	-0.105942	-0.252260	0.997798
C91	C	-0.740214	-0.978168	0.325957
C92	C	-0.406881	-0.644834	0.659291
C93	C	-0.073548	-0.311501	0.992624
N94	N	-0.772631	-1.037419	0.320762
N95	N	-0.439298	-0.704086	0.654095
N96	N	-0.105965	-0.370753	0.987428
N97	N	-0.835089	-1.037427	0.320750
N98	N	-0.501755	-0.704094	0.654083
N99	N	-0.168422	-0.370761	0.987416
C100	C	-0.867004	-0.978186	0.325934
C101	C	-0.533671	-0.644853	0.659267
C102	C	-0.200337	-0.311520	0.992601
C103	C	-0.636082	-1.021462	0.282694
C104	C	-0.302748	-0.688129	0.616027
C105	C	0.030585	-0.354796	0.949360
C106	C	-0.570338	-1.021458	0.282715
C107	C	-0.237005	-0.688125	0.616048
C108	C	0.096329	-0.354791	0.949381
C109	C	-0.570301	-0.934838	0.369287
C110	C	-0.236968	-0.601505	0.702621
C111	C	0.096365	-0.268172	1.035954
C112	C	-0.636044	-0.934849	0.369270
C113	C	-0.302710	-0.601515	0.702603
C114	C	0.030623	-0.268182	1.035936
C115	C	-0.668930	-0.978160	0.325969
C116	C	-0.335597	-0.644826	0.659303
C117	C	-0.002263	-0.311493	0.992636
C118	C	-0.139740	-0.978108	0.326061
C119	C	0.193594	-0.644775	0.659395
C120	C	0.526927	-0.311441	0.992728
C121	C	-0.069772	-0.978226	0.325889
C122	C	0.263561	-0.644892	0.659223
C123	C	0.596895	-0.311559	0.992556
C124	C	-0.303312	-1.154643	0.326080
C125	C	0.030021	-0.821309	0.659414
C126	C	0.363355	-0.487976	0.992747
C127	C	-0.303321	-1.229875	0.326086
C128	C	0.030013	-0.896541	0.659419
C129	C	0.363346	-0.563208	0.992753
C130	C	-0.343462	-0.691670	0.369409
C131	C	-0.010129	-0.358337	0.702743
C132	C	0.323204	-0.025003	1.036076
C133	C	-0.343471	-0.620982	0.369411
C134	C	-0.010138	-0.287648	0.702744
C135	C	0.323195	0.045685	1.036077
C136	C	-0.303291	-0.585636	0.326070
C137	C	0.030042	-0.252303	0.659403
C138	C	0.363376	0.081030	0.992737
C139	C	-0.263104	-0.620983	0.282720
C140	C	0.070229	-0.287650	0.616054
C141	C	0.403563	0.045683	0.949387
C142	C	-0.263099	-0.691671	0.282716
C143	C	0.070235	-0.358337	0.616049
C144	C	0.403568	-0.025004	0.949383
C145	C	-0.263125	-0.335910	0.282735
C146	C	0.070209	-0.002577	0.616068
C147	C	0.403542	0.330756	0.949402
C148	C	-0.263132	-0.265218	0.282744
C149	C	0.070202	0.068115	0.616077
C150	C	0.403535	0.401449	0.949411
C151	C	-0.343497	-0.265221	0.369430
C152	C	-0.010164	0.068112	0.702763
C153	C	0.323169	0.401446	1.036096
C154	C	-0.343492	-0.335908	0.369426
C155	C	-0.010159	-0.002575	0.702759
C156	C	0.323175	0.330758	1.036092
C157	C	-0.303308	-0.371249	0.326074
C158	C	0.030026	-0.037916	0.659407
C159	C	0.363359	0.295418	0.992740
C160	C	-0.303299	-0.447898	0.326072
C161	C	0.030034	-0.114564	0.659405
C162	C	0.363367	0.218769	0.992739
C163	C	-0.303296	-0.508989	0.326074
C164	C	0.030038	-0.175656	0.659408
C165	C	0.363371	0.157677	0.992741
C166	C	-0.303336	-0.978195	0.149524
C167	C	0.029998	-0.644862	0.482857
C168	C	0.363331	-0.311528	0.816191
C169	C	-0.303354	-0.978235	0.074292
C170	C	0.029979	-0.644902	0.407625
C171	C	0.363312	-0.311569	0.740959
C172	C	-0.263055	-1.021378	0.612490
C173	C	0.070279	-0.688045	0.945824
C174	C	0.403612	-0.354711	1.279157
C175	C	-0.263068	-1.021407	0.683179
C176	C	0.070265	-0.688073	1.016512
C177	C	0.403598	-0.354740	1.349846
C178	C	-0.303294	-0.978107	0.718530
C179	C	0.030039	-0.644773	1.051864
C180	C	0.363373	-0.311440	1.385197
C181	C	-0.343513	-0.934780	0.683190
C182	C	-0.010179	-0.601447	1.016523
C183	C	0.323154	-0.268113	1.349856
C184	C	-0.343501	-0.934755	0.612503
C185	C	-0.010168	-0.601422	0.945836
C186	C	0.323165	-0.268089	1.279169
C187	C	-0.343559	-0.934880	0.968263
C188	C	-0.010226	-0.601547	1.301596
C189	C	0.323108	-0.268213	1.634930
C190	C	-0.343566	-0.934907	1.038955
C191	C	-0.010233	-0.601573	1.372288
C192	C	0.323101	-0.268240	1.705622
C193	C	-0.263126	-1.021531	1.038939
C194	C	0.070207	-0.688198	1.372273
C195	C	0.403540	-0.354865	1.705606
C196	C	-0.263115	-1.021507	0.968252
C197	C	0.070218	-0.688173	1.301585
C198	C	0.403552	-0.354840	1.634919
C199	C	-0.303336	-0.978183	0.932918
C200	C	0.029998	-0.644849	1.266251
C201	C	0.363331	-0.311516	1.599584
C202	C	-0.303321	-0.978153	0.856269
C203	C	0.030012	-0.644820	1.189603
C204	C	0.363346	-0.311486	1.522936
C205	C	-0.303306	-0.978133	0.795177
C206	C	0.030027	-0.644799	1.128511
C207	C	0.363361	-0.311466	1.461844
H208	H	-1.063697	-1.056793	0.247354
H209	H	-0.730363	-0.723459	0.580688
H210	H	-0.397030	-0.390126	0.914021
Br211	Br	-0.680717	-1.080225	0.223916
Br212	Br	-0.347384	-0.746891	0.557249
Br213	Br	-0.014050	-0.413558	0.890582
H214	H	-0.230358	-1.056763	0.939471
H215	H	0.102976	-0.723430	1.272805
H216	H	0.436309	-0.390096	1.606138
Br217	Br	-0.398034	-0.217255	0.428267
Br218	Br	-0.064700	0.116078	0.761600
Br219	Br	0.268633	0.449412	1.094934
Br220	Br	-0.398145	-0.876083	0.920318
Br221	Br	-0.064811	-0.542750	1.253651
Br222	Br	0.268522	-0.209417	1.586984
H223	H	-0.230391	-0.592200	0.247428
H224	H	0.102942	-0.258867	0.580762
H225	H	0.436275	0.074467	0.914095
Br226	Br	-1.081467	-0.876152	0.427932
Br227	Br	-0.748134	-0.542819	0.761266
Br228	Br	-0.414800	-0.209485	1.094599
Br229	Br	-0.208542	-1.080332	1.086897
Br230	Br	0.124792	-0.746998	1.420230
Br231	Br	0.458125	-0.413665	1.753563
Br232	Br	-0.208597	-0.217250	0.223921
Br233	Br	0.124736	0.116084	0.557254
Br234	Br	0.458069	0.449417	0.890587
Br235	Br	-0.208454	-1.080139	0.564520
Br236	Br	0.124879	-0.746806	0.897854
Br237	Br	0.458213	-0.413473	1.231187
Br238	Br	-0.398110	-0.876021	0.731166
Br239	Br	-0.064777	-0.542687	1.064499
Br240	Br	0.268556	-0.209354	1.397832
H241	H	-0.376180	-0.720443	0.404705
H242	H	-0.042847	-0.387110	0.738038
H243	H	0.290487	-0.053776	1.071372
Br244	Br	-0.208592	-0.383864	0.223897
Br245	Br	0.124741	-0.050531	0.557230
Br246	Br	0.458075	0.282803	0.890563
Br247	Br	-0.680625	-0.876086	0.428010
Br248	Br	-0.347292	-0.542752	0.761343
Br249	Br	-0.013959	-0.209419	1.094676
H250	H	-0.230379	-0.720445	0.247417
H251	H	0.102954	-0.387112	0.580750
H252	H	0.436288	-0.053779	0.914083
H253	H	-0.543595	-1.056720	0.247473
H254	H	-0.210262	-0.723387	0.580807
H255	H	0.123072	-0.390054	0.914140
Br256	Br	-0.208493	-1.080211	0.731132
Br257	Br	0.124840	-0.746878	1.064466
Br258	Br	0.458173	-0.413545	1.397799
H259	H	-0.376249	-0.899477	0.583733
H260	H	-0.042915	-0.566143	0.917066
H261	H	0.290418	-0.232810	1.250400
H262	H	-0.376327	-0.899647	1.067736
H263	H	-0.042994	-0.566314	1.401070
H264	H	0.290340	-0.232981	1.734403
H265	H	-0.944433	-1.056774	0.247381
H266	H	-0.611100	-0.723441	0.580714
H267	H	-0.277766	-0.390108	0.914047
H268	H	-0.543521	-0.899574	0.404536
H269	H	-0.210187	-0.566241	0.737870
H270	H	0.123146	-0.232907	1.071203
Br271	Br	-0.398013	-0.573020	0.428237
Br272	Br	-0.064679	-0.239686	0.761570
Br273	Br	0.268654	0.093647	1.094903
Br274	Br	-0.926506	-0.876124	0.427956
Br275	Br	-0.593172	-0.542791	0.761290
Br276	Br	-0.259839	-0.209457	1.094623
H277	H	-0.376209	-0.364683	0.404720
H278	H	-0.042876	-0.031349	0.738054
H279	H	0.290458	0.301984	1.071387
