data_functionalizedCrystal
_audit_creation_method	'MofGen! by Chris Wilmer'
_symmetry_space_group_name_H-M	'P1'
_symmetry_Int_Tables_number	1
_symmetry_cell_setting	triclinic
loop_
_symmetry_equiv_pos_as_xyz
  x,y,z
_cell_length_a	17.640112
_cell_length_b	13.897447
_cell_length_c	17.640968
_cell_angle_alpha	78.769972
_cell_angle_beta	92.139080
_cell_angle_gamma	101.244075
loop_
_atom_site_label
_atom_site_type_symbol
_atom_site_fract_x
_atom_site_fract_y
_atom_site_fract_z
Zn1	Zn	1.247780	-0.027714	-0.195081
Zn2	Zn	1.747780	0.472286	0.304919
Zn3	Zn	1.222020	-0.226719	-0.068102
Zn4	Zn	1.722020	0.273281	0.431898
Zn5	Zn	1.095115	-0.090459	-0.093728
Zn6	Zn	1.595115	0.409541	0.406272
Zn7	Zn	1.120760	-0.214022	-0.220684
Zn8	Zn	1.620760	0.285978	0.279316
O9	O	1.171418	-0.139729	-0.144399
O10	O	1.671418	0.360271	0.355601
O11	O	1.350631	-0.033168	-0.156797
O12	O	1.850631	0.466832	0.343203
O13	O	1.183672	-0.240217	0.034771
O14	O	1.683672	0.259783	0.534771
O15	O	1.115414	0.052860	-0.107182
O16	O	1.615414	0.552860	0.392818
O17	O	1.331705	-0.179376	-0.063506
O18	O	1.831705	0.320624	0.436494
O19	O	1.227576	0.098958	-0.181645
O20	O	1.727576	0.598958	0.318355
O21	O	1.090436	-0.140107	0.015944
O22	O	1.590436	0.359893	0.515944
O23	O	0.992248	-0.127795	-0.132008
O24	O	1.492248	0.372205	0.367992
O25	O	1.159123	-0.157736	-0.323560
O26	O	1.659123	0.342264	0.176440
O27	O	1.011090	-0.218577	-0.225282
O28	O	1.511090	0.281423	0.274718
O29	O	1.252443	-0.020856	-0.304749
O30	O	1.752443	0.479144	0.195251
O31	O	1.208539	-0.360031	-0.088333
O32	O	1.708539	0.139969	0.411667
O33	O	1.134144	-0.350702	-0.200434
O34	O	1.634144	0.149298	0.299566
C35	C	0.974115	-0.178617	-0.184205
C36	C	1.474115	0.321383	0.315795
C37	C	0.889711	-0.195272	-0.201252
C38	C	1.389711	0.304728	0.298748
C39	C	0.563040	-0.013187	-0.014898
C40	C	1.063040	0.486813	0.485102
C41	C	0.483732	-0.028853	-0.030927
C42	C	0.983732	0.471147	0.469073
C43	C	0.503372	-0.123604	-0.127886
C44	C	1.003372	0.376396	0.372114
C45	C	0.582684	-0.107942	-0.111868
C46	C	1.082684	0.392058	0.388132
C47	C	0.612511	-0.052734	-0.055373
C48	C	1.112511	0.447266	0.444627
C49	C	0.632155	-0.147488	-0.152342
C50	C	1.132155	0.352512	0.347658
C51	C	0.711459	-0.131831	-0.136322
C52	C	1.211459	0.368169	0.363678
C53	C	0.741292	-0.076628	-0.079828
C54	C	1.241292	0.423372	0.420172
C55	C	0.691815	-0.037077	-0.039353
C56	C	1.191815	0.462923	0.460647
C57	C	0.602325	-0.202701	-0.208833
C58	C	1.102325	0.297299	0.291167
C59	C	0.651796	-0.242247	-0.249307
C60	C	1.151796	0.257753	0.250693
C61	C	0.731103	-0.226585	-0.233292
C62	C	1.231103	0.273415	0.266708
C63	C	0.760936	-0.171382	-0.176798
C64	C	1.260936	0.328618	0.323202
C65	C	0.780580	-0.266136	-0.273767
C66	C	1.280580	0.233864	0.226233
C67	C	0.859884	-0.250480	-0.257747
C68	C	1.359884	0.249520	0.242253
C69	C	0.840240	-0.155726	-0.160778
C70	C	1.340240	0.344274	0.339222
C71	C	1.171353	-0.390361	-0.144393
C72	C	1.671353	0.109639	0.355607
C73	C	1.171400	-0.497561	-0.144403
C74	C	1.671400	0.002439	0.355597
C75	C	1.171440	-0.584618	-0.144412
C76	C	1.671440	-0.084618	0.355588
C77	C	1.171497	-0.693834	-0.144421
C78	C	1.671497	-0.193834	0.355579
C79	C	1.369492	-0.100689	-0.104437
C80	C	1.869492	0.399311	0.395563
C81	C	1.453900	-0.084053	-0.087408
C82	C	1.953900	0.415947	0.412592
C83	C	1.211517	-0.080881	-0.342480
C84	C	1.711517	0.419119	0.157520
C85	C	1.228605	-0.055803	-0.426891
C86	C	1.728605	0.444197	0.073109
C87	C	1.171508	0.111891	-0.144416
C88	C	1.671508	0.611891	0.355584
C89	C	1.171546	0.219116	-0.144424
C90	C	1.671546	0.719116	0.355576
C91	C	1.041897	-0.329658	-0.753469
C92	C	1.541897	0.170342	-0.253469
C93	C	1.057969	-0.306078	-0.832783
C94	C	1.557969	0.193922	-0.332783
C95	C	1.155136	-0.163558	-0.813187
C96	C	1.655136	0.336442	-0.313187
C97	C	1.139069	-0.187123	-0.733870
C98	C	1.639069	0.312877	-0.233870
C99	C	1.082449	-0.270175	-0.704018
C100	C	1.582449	0.229825	-0.204018
C101	C	1.179622	-0.127639	-0.684419
C102	C	1.679622	0.372361	-0.184419
C103	C	1.163559	-0.151206	-0.605110
C104	C	1.663559	0.348794	-0.105110
C105	C	1.106943	-0.234255	-0.575251
C106	C	1.606943	0.265745	-0.075251
C107	C	1.066386	-0.293741	-0.624709
C108	C	1.566386	0.206259	-0.124709
C109	C	1.236245	-0.044592	-0.714272
C110	C	1.736245	0.455408	-0.214272
C111	C	1.276797	0.014891	-0.664821
C112	C	1.776797	0.514891	-0.164821
C113	C	1.260731	-0.008670	-0.585511
C114	C	1.760731	0.491330	-0.085511
C115	C	1.204115	-0.091720	-0.555652
C116	C	1.704115	0.408280	-0.055652
C117	C	1.301288	0.050815	-0.536053
C118	C	1.801288	0.550815	-0.036053
C119	C	1.285224	0.027249	-0.456743
C120	C	1.785224	0.527249	0.043257
C121	C	1.188052	-0.115286	-0.476342
C122	C	1.688052	0.384714	0.023658
C123	C	1.131520	-0.198270	0.052921
C124	C	1.631520	0.301730	0.552921
C125	C	1.114579	-0.223046	0.137361
C126	C	1.614579	0.276954	0.637361
H127	H	0.805867	-0.063884	-0.066784
H128	H	1.305867	0.436116	0.433216
H129	H	1.020263	-0.361351	-0.600405
H130	H	1.520263	0.138649	-0.100405
H131	H	0.995773	-0.397268	-0.729166
H132	H	1.495773	0.102732	-0.229166
H133	H	0.443455	0.003362	0.002031
H134	H	0.943455	0.503362	0.502031
Br135	Br	1.002926	-0.386815	-0.899895
Br136	Br	1.502926	0.113185	-0.399895
H137	H	1.249323	-0.025409	-0.778852
H138	H	1.749323	0.474591	-0.278852
Br139	Br	1.378136	0.163512	-0.576574
Br140	Br	1.878136	0.663512	-0.076574
H141	H	1.322899	0.082510	-0.689137
H142	H	1.822899	0.582510	-0.189137
Br143	Br	0.880729	-0.080788	-0.084112
Br144	Br	1.380729	0.419212	0.415888
Br145	Br	0.462882	-0.198544	-0.204543
Br146	Br	0.962882	0.301456	0.295457
Br147	Br	1.231978	-0.050853	-0.853707
Br148	Br	1.731978	0.449147	-0.353707
H149	H	0.537750	-0.215447	-0.221874
H150	H	1.037750	0.284553	0.278126
Br151	Br	0.611306	-0.317188	-0.325965
Br152	Br	1.111306	0.182812	0.174035
Br153	Br	0.740086	-0.341086	-0.350418
Br154	Br	1.240086	0.158914	0.149582
H155	H	0.900165	-0.282681	-0.290706
H156	H	1.400165	0.217319	0.209294
Br157	Br	0.732304	0.037860	0.037313
Br158	Br	1.232304	0.537860	0.537313
Br159	Br	0.603529	0.061750	0.061767
Br160	Br	1.103529	0.561750	0.561767
Br161	Br	1.085147	-0.266249	-0.467614
Br162	Br	1.585147	0.233751	0.032386
Br163	Br	1.340265	0.107971	-0.389625
Br164	Br	1.840265	0.607971	0.110375
H165	H	1.141929	-0.182896	-0.452039
H166	H	1.641929	0.317104	0.047961
