data_functionalizedCrystal
_audit_creation_method	'MofGen! by Chris Wilmer'
_symmetry_space_group_name_H-M	'P1'
_symmetry_Int_Tables_number	1
_symmetry_cell_setting	triclinic
loop_
_symmetry_equiv_pos_as_xyz
  x,y,z
_cell_length_a	17.000371
_cell_length_b	17.038272
_cell_length_c	13.448316
_cell_angle_alpha	89.993314
_cell_angle_beta	89.992667
_cell_angle_gamma	83.355402
loop_
_atom_site_label
_atom_site_type_symbol
_atom_site_fract_x
_atom_site_fract_y
_atom_site_fract_z
O1	O	1.058004	0.028044	-0.082696
O2	O	0.828184	0.056289	-0.082698
O3	O	0.941728	-0.071555	-0.082689
O4	O	0.944460	0.155888	-0.082705
O5	O	0.941712	-0.071562	0.082695
O6	O	0.828168	0.056283	0.082686
O7	O	1.057988	0.028038	0.082687
Cu8	Cu	0.943077	0.042160	0.097788
Cu9	Cu	0.943095	0.042167	-0.097798
O10	O	0.944444	0.155882	0.082679
C11	C	0.798625	0.057803	-0.000006
C12	C	0.710572	0.062314	-0.000006
C13	C	0.673845	-0.007108	0.000000
C14	C	0.591110	-0.002864	-0.000007
C15	C	0.545102	0.070802	-0.000014
C16	C	0.581834	0.140229	-0.000024
C17	C	0.664568	0.135985	-0.000023
C18	C	0.295066	0.087196	-0.000022
C19	C	0.212327	0.091434	-0.000019
C20	C	0.221608	-0.051659	-0.000005
C21	C	0.304344	-0.055897	0.000002
C22	C	0.341068	0.013530	-0.000013
C23	C	0.460533	0.075141	-0.000019
C24	C	0.425636	0.009190	-0.000016
C25	C	0.939235	-0.100516	0.000003
C26	C	0.931823	-0.186802	0.000002
C27	C	0.999881	-0.241577	0.000004
C28	C	0.992911	-0.322650	-0.000006
C29	C	0.917882	-0.348946	-0.000010
C30	C	0.849819	-0.294164	-0.000014
C31	C	0.856789	-0.213093	-0.000012
C32	C	0.893256	-0.593018	-0.000023
C33	C	0.886291	-0.674096	-0.000023
C34	C	1.029384	-0.702577	-0.000016
C35	C	1.036348	-0.621502	-0.000008
C36	C	0.968285	-0.566727	-0.000018
C37	C	0.910756	-0.431816	-0.000016
C38	C	0.975411	-0.483859	-0.000018
C39	C	1.087547	0.026524	-0.000006
C40	C	1.175600	0.022013	-0.000013
C41	C	0.946936	0.184843	-0.000015
C42	C	0.954349	0.271129	-0.000021
N43	N	0.943069	0.042154	0.235352
N44	N	0.943109	0.042167	-0.235362
C45	C	0.993365	-0.014435	0.287396
C46	C	0.993370	-0.014436	0.391499
C47	C	0.943083	0.042156	0.443557
C48	C	0.892781	0.098748	0.391505
C49	C	0.892773	0.098744	0.287404
C50	C	0.892804	0.098751	0.608485
C51	C	0.892813	0.098756	0.712594
C52	C	0.993400	-0.014429	0.712581
C53	C	0.993392	-0.014433	0.608479
C54	C	0.943092	0.042160	0.556435
H55	H	0.174868	0.151425	-0.000020
H56	H	1.048332	-0.367246	-0.000002
H57	H	0.324957	0.143728	-0.000041
H58	H	1.034324	-0.060516	0.433873
O59	O	0.537026	0.211724	0.000014
C60	C	0.405459	0.281681	-0.000045
C61	C	0.456106	0.200660	-0.000068
H62	H	0.340025	0.272763	-0.000133
H63	H	0.419375	0.316139	0.069181
H64	H	0.419492	0.316128	-0.069245
H65	H	0.442102	0.166148	0.069084
H66	H	0.442183	0.166262	-0.069340
H67	H	0.694469	0.192515	-0.000024
O68	O	1.048249	-0.458223	-0.000147
C69	C	1.139184	-0.383243	-0.085848
C70	C	1.056665	-0.412216	-0.085819
H71	H	1.146021	-0.346055	-0.155116
H72	H	1.146024	-0.345952	-0.016681
H73	H	1.186622	-0.436327	-0.085795
H74	H	1.009177	-0.359179	-0.085907
H75	H	1.049893	-0.449532	-0.154979
O76	O	0.718416	-0.078732	-0.000039
C77	C	0.718880	-0.220212	0.000022
C78	C	0.668313	-0.139148	0.000049
H79	H	0.678393	-0.269080	0.000115
H80	H	0.757834	-0.225826	-0.069207
H81	H	0.757859	-0.225740	0.069219
H82	H	0.629288	-0.133565	-0.069100
H83	H	0.629412	-0.133570	0.069324
H84	H	0.561211	-0.059395	-0.000003
H85	H	0.851816	0.144824	0.245030
O86	O	0.415754	0.146652	-0.000148
C87	C	0.316993	0.234502	-0.085858
C88	C	0.367648	0.153486	-0.085822
H89	H	0.278099	0.240060	-0.155128
H90	H	0.277965	0.240068	-0.016693
H91	H	0.357464	0.283385	-0.085808
H92	H	0.327237	0.104556	-0.085907
H93	H	0.406683	0.147988	-0.154981
O94	O	0.843920	0.153804	0.558082
C95	C	0.744127	0.266046	0.569075
C96	C	0.799454	0.203755	0.626280
H97	H	0.708150	0.306438	0.624188
H98	H	0.780923	0.302646	0.520348
H99	H	0.702306	0.235128	0.520327
H100	H	0.841285	0.234608	0.675082
H101	H	0.762608	0.167159	0.674944
H102	H	0.341798	-0.115883	0.000012
H103	H	0.851863	0.144838	0.754973
O104	O	1.042128	-0.069527	0.236899
C105	C	1.079401	-0.208031	0.205187
C106	C	1.024116	-0.145709	0.262400
H107	H	1.064870	-0.269639	0.225799
H108	H	1.070771	-0.198407	0.121824
H109	H	1.143538	-0.202181	0.225635
H110	H	0.959959	-0.151522	0.242035
H111	H	1.032816	-0.155352	0.345749
O112	O	0.470290	-0.062385	-0.000186
C113	C	0.503521	-0.186002	-0.085817
C114	C	0.452907	-0.104963	-0.085765
H115	H	0.489474	-0.220456	-0.154989
H116	H	0.568973	-0.177150	-0.085884
H117	H	0.489548	-0.220417	-0.016567
H118	H	0.466812	-0.070505	-0.155003
H119	H	0.387471	-0.113871	-0.085646
O120	O	1.072782	-0.216075	-0.000171
C121	C	1.197238	-0.215649	-0.085827
C122	C	1.114694	-0.244566	-0.085759
H123	H	1.231154	-0.238685	-0.155007
H124	H	1.190579	-0.148296	-0.085889
H125	H	1.231113	-0.238604	-0.016585
H126	H	1.080775	-0.221668	-0.154990
H127	H	1.121410	-0.311919	-0.085646
O128	O	1.109213	-0.595918	0.000165
C129	C	1.200092	-0.520875	0.085815
C130	C	1.117558	-0.549813	0.085751
H131	H	1.206860	-0.483580	0.154994
H132	H	1.247579	-0.573920	0.085877
H133	H	1.206921	-0.483656	0.016571
H134	H	1.110652	-0.587018	0.154983
H135	H	1.070113	-0.496734	0.085638
H136	H	0.849667	-0.453235	-0.000017
H137	H	1.034344	-0.060510	0.566095
O138	O	0.813343	-0.699506	-0.000081
C139	C	0.672149	-0.662707	-0.000051
C140	C	0.754707	-0.633821	-0.000007
H141	H	0.624719	-0.609615	0.000030
H142	H	0.665274	-0.699915	-0.069282
H143	H	0.665337	-0.699986	0.069144
H144	H	0.761575	-0.596510	-0.069156
H145	H	0.761543	-0.596655	0.069269
H146	H	0.851833	0.144824	0.433896
H147	H	0.788728	-0.315581	-0.000023
H148	H	1.084797	-0.747183	-0.000010
H149	H	1.034356	-0.060509	0.754961
H150	H	0.801369	-0.168494	-0.000013
O151	O	0.827163	-0.539789	-0.000202
C152	C	0.752006	-0.431698	-0.085857
C153	C	0.826884	-0.491952	-0.085790
H154	H	0.751764	-0.392995	-0.155036
H155	H	0.697161	-0.464384	-0.085920
H156	H	0.751687	-0.393070	-0.016614
H157	H	0.827280	-0.530596	-0.155021
H158	H	0.881696	-0.459216	-0.085675
H159	H	0.191698	-0.108182	-0.000004
