data_functionalizedCrystal
_audit_creation_method	'MofGen! by Chris Wilmer'
_symmetry_space_group_name_H-M	'P1'
_symmetry_Int_Tables_number	1
_symmetry_cell_setting	triclinic
loop_
_symmetry_equiv_pos_as_xyz
  x,y,z
_cell_length_a	27.731994
_cell_length_b	27.731996
_cell_length_c	26.809956
_cell_angle_alpha	89.998344
_cell_angle_beta	89.997334
_cell_angle_gamma	82.620961
loop_
_atom_site_label
_atom_site_type_symbol
_atom_site_fract_x
_atom_site_fract_y
_atom_site_fract_z
O1	O	0.640937	0.057387	-0.041415
O2	O	0.500139	0.066160	-0.041432
O3	O	0.574924	-0.008626	-0.041412
O4	O	0.566152	0.132173	-0.041435
O5	O	0.574910	-0.008615	0.041547
O6	O	0.500124	0.066171	0.041527
O7	O	0.640923	0.057398	0.041544
Zn8	Zn	0.570522	0.061787	0.054707
Zn9	Zn	0.570540	0.061772	-0.054595
O10	O	0.566138	0.132184	0.041524
C11	C	0.482124	0.065986	0.000045
C12	C	0.428468	0.065443	0.000039
C13	C	0.095742	0.062034	0.045280
C14	C	-0.105915	0.059972	0.045286
O15	O	-0.131994	0.059690	0.083745
N16	N	-0.131122	0.059710	0.000065
C17	C	-0.105912	0.059960	-0.045161
O18	O	-0.131978	0.059684	-0.083624
C19	C	0.095746	0.062018	-0.045166
C20	C	0.120950	0.062285	0.000058
C21	C	0.120946	0.062300	0.090500
C22	C	0.171357	0.062818	0.090498
C23	C	0.196565	0.063070	0.045276
C24	C	0.171361	0.062803	0.000056
C25	C	0.120956	0.062264	-0.090392
C26	C	0.171374	0.062778	-0.090389
C27	C	0.196578	0.063045	-0.045165
C28	C	0.246979	0.063573	-0.045168
N29	N	0.272186	0.063835	0.000053
C30	C	0.246979	0.063583	0.045275
C31	C	-0.211785	0.058880	-0.045155
C32	C	-0.262199	0.058366	-0.045154
C33	C	-0.262199	0.058378	0.045293
C34	C	-0.211784	0.058895	0.045292
C35	C	-0.186578	0.059142	0.000066
C36	C	0.352846	0.064672	0.045267
C37	C	0.403261	0.065192	0.045261
C38	C	0.403257	0.065178	-0.045185
C39	C	0.352846	0.064660	-0.045180
C40	C	0.327642	0.064406	0.000051
O41	O	0.273090	0.063850	-0.083607
O42	O	0.273056	0.063848	0.083732
C43	C	0.045331	0.061516	0.045282
C44	C	0.020127	0.061249	0.000062
C45	C	0.045335	0.061500	-0.045161
C46	C	-0.030287	0.060735	0.000063
C47	C	-0.055494	0.060484	0.045285
C48	C	-0.030287	0.060746	0.090506
C49	C	0.020124	0.061264	0.090504
C50	C	0.020128	0.061238	-0.090382
C51	C	-0.030284	0.060721	-0.090376
C52	C	-0.055491	0.060469	-0.045154
C53	C	0.574737	-0.026628	0.000069
C54	C	0.574194	-0.080284	0.000074
C55	C	0.570787	-0.413006	-0.045172
C56	C	0.568726	-0.614663	-0.045181
O57	O	0.568445	-0.640739	-0.083640
N58	N	0.568462	-0.639874	0.000040
C59	C	0.568711	-0.614667	0.045266
O60	O	0.568434	-0.640737	0.083729
C61	C	0.570768	-0.413010	0.045274
C62	C	0.571037	-0.387802	0.000051
C63	C	0.571055	-0.387798	-0.090392
C64	C	0.571573	-0.337387	-0.090389
C65	C	0.571823	-0.312183	-0.045166
C66	C	0.571555	-0.337391	0.000054
C67	C	0.571013	-0.387803	0.090500
C68	C	0.571526	-0.337385	0.090498
C69	C	0.571795	-0.312178	0.045274
C70	C	0.572322	-0.261777	0.045279
N71	N	0.572586	-0.236566	0.000058
C72	C	0.572336	-0.261769	-0.045164
C73	C	0.567631	-0.720540	0.045258
C74	C	0.567118	-0.770955	0.045256
C75	C	0.567132	-0.770947	-0.045191
C76	C	0.567649	-0.720533	-0.045188
C77	C	0.567895	-0.695329	0.000038
C78	C	0.573424	-0.155902	-0.045155
C79	C	0.573944	-0.105487	-0.045149
C80	C	0.573927	-0.105499	0.045298
C81	C	0.573410	-0.155910	0.045292
C82	C	0.573157	-0.181110	0.000061
O83	O	0.572598	-0.235669	0.083718
O84	O	0.572602	-0.235689	-0.083621
C85	C	0.570269	-0.463417	-0.045175
C86	C	0.570001	-0.488624	0.000045
C87	C	0.570251	-0.463421	0.045268
C88	C	0.569487	-0.539039	0.000043
C89	C	0.569238	-0.564242	-0.045179
C90	C	0.569501	-0.539031	-0.090400
C91	C	0.570019	-0.488620	-0.090397
C92	C	0.569987	-0.488632	0.090489
C93	C	0.569470	-0.539043	0.090482
C94	C	0.569220	-0.564246	0.045260
C95	C	0.658938	0.057573	0.000066
C96	C	0.712594	0.058115	0.000069
C97	C	0.566325	0.150186	0.000042
C98	C	0.566868	0.203842	0.000034
N99	N	0.570513	0.061797	0.129303
N100	N	0.570553	0.061758	-0.129191
C101	C	0.603651	0.028665	0.473938
C102	C	0.603663	0.028657	0.682816
O103	O	0.631818	0.000490	0.709827
N104	N	0.570543	0.061761	0.708930
C105	C	0.537416	0.094867	0.682822
O106	O	0.509243	0.123020	0.709827
C107	C	0.537403	0.094872	0.473945
C108	C	0.570528	0.061769	0.447834
C109	C	0.636773	-0.004436	0.447826
C110	C	0.636771	-0.004432	0.395610
C111	C	0.603648	0.028672	0.369506
C112	C	0.570526	0.061773	0.395617
C113	C	0.504274	0.127975	0.447838
C114	C	0.504273	0.127972	0.395616
C115	C	0.537398	0.094870	0.369504
C116	C	0.537401	0.094881	0.317297
N117	N	0.570521	0.061777	0.291182
C118	C	0.603644	0.028673	0.317287
C119	C	0.537426	0.094863	0.792485
C120	C	0.537430	0.094862	0.844704
C121	C	0.603676	0.028652	0.844694
C122	C	0.603674	0.028655	0.792475
C123	C	0.570546	0.061759	0.766371
C124	C	0.603639	0.028684	0.207629
C125	C	0.603636	0.028692	0.155408
C126	C	0.537388	0.094901	0.155422
C127	C	0.537393	0.094895	0.207639
C128	C	0.570520	0.061782	0.233740
O129	O	0.509257	0.123030	0.290253
O130	O	0.631806	0.000517	0.290273
C131	C	0.603652	0.028661	0.526154
C132	C	0.570531	0.061761	0.552266
C133	C	0.537407	0.094865	0.526162
C134	C	0.570534	0.061761	0.604485
C135	C	0.603658	0.028656	0.630590
C136	C	0.636777	-0.004448	0.604475
C137	C	0.636776	-0.004444	0.552259
C138	C	0.504288	0.127969	0.552276
C139	C	0.504292	0.127963	0.604493
C140	C	0.537416	0.094859	0.630597
H141	H	-0.191266	0.059081	-0.081985
C142	C	0.467833	0.164385	0.476554
C143	C	0.486424	0.201228	0.512451
C144	C	0.449980	0.237640	0.541167
C145	C	0.394944	0.237208	0.533985
C146	C	0.376350	0.200364	0.498086
C147	C	0.412794	0.163953	0.469370
H148	H	0.527168	0.201549	0.517769
H149	H	0.463745	0.264914	0.567742
H150	H	0.367966	0.264162	0.555242
H151	H	0.335607	0.200044	0.492768
H152	H	0.399029	0.136678	0.442796
H153	H	-0.282731	0.058174	0.082115
C154	C	0.574198	-0.077769	0.095042
C155	C	0.616107	-0.090510	0.132364
C156	C	0.616372	-0.062780	0.182108
C157	C	0.574728	-0.022308	0.194532
C158	C	0.532815	-0.009565	0.157209
C159	C	0.532550	-0.037296	0.107464
H160	H	0.646937	-0.120471	0.123168
H161	H	0.647398	-0.072213	0.209737
H162	H	0.574924	-0.001780	0.231356
H163	H	0.501985	0.020396	0.166405
H164	H	0.501524	-0.027863	0.079836
H165	H	0.566929	-0.791476	-0.082013
C166	C	-0.184061	0.059186	0.095038
C167	C	-0.196811	0.101113	0.132338
C168	C	-0.169091	0.101403	0.182086
C169	C	-0.128621	0.059767	0.194534
C170	C	-0.115869	0.017836	0.157234
C171	C	-0.143589	0.017546	0.107485
H172	H	-0.226771	0.131938	0.123123
H173	H	-0.178531	0.132443	0.209698
H174	H	-0.108100	0.059982	0.231361
H175	H	-0.085909	-0.012989	0.166448
H176	H	-0.134149	-0.013494	0.079873
H177	H	-0.282717	0.058157	-0.081979
H178	H	0.423779	0.065411	0.082090
H179	H	0.573196	-0.176435	0.082116
H180	H	0.569255	-0.559563	0.127311
H181	H	0.191895	0.062979	-0.127218
H182	H	0.332330	0.064469	0.082098
C183	C	0.570310	-0.460895	-0.140144
C184	C	0.528675	-0.420423	-0.152590
C185	C	0.528965	-0.392701	-0.202340
C186	C	0.570891	-0.405451	-0.239643
C187	C	0.612529	-0.445926	-0.227198
C188	C	0.612239	-0.473647	-0.177449
H189	H	0.497636	-0.410982	-0.124975
H190	H	0.498141	-0.362739	-0.211552
H191	H	0.571105	-0.384930	-0.276471
H192	H	0.643568	-0.455366	-0.254814
H193	H	0.643063	-0.503609	-0.168236
C194	C	0.500958	0.131311	0.236363
C195	C	0.464134	0.112681	0.272259
C196	C	0.427694	0.149094	0.300978
C197	C	0.428079	0.204137	0.293801
C198	C	0.464905	0.222770	0.257902
C199	C	0.501344	0.186357	0.229183
H200	H	0.463848	0.071932	0.277574
H201	H	0.400433	0.135301	0.327553
H202	H	0.401104	0.231093	0.315060
H203	H	0.465191	0.263519	0.252587
H204	H	0.528605	0.200150	0.202609
H205	H	0.510448	0.121821	0.771235
H206	H	0.040646	0.061441	-0.127208
C207	C	0.673211	-0.040860	0.523540
C208	C	0.710037	-0.022238	0.487639
C209	C	0.746473	-0.058657	0.458924
C210	C	0.746085	-0.113699	0.466109
C211	C	0.709258	-0.132324	0.502011
C212	C	0.672821	-0.095905	0.530727
H213	H	0.710326	0.018510	0.482319
H214	H	0.773735	-0.044869	0.432347
H215	H	0.773057	-0.140658	0.444852
H216	H	0.708969	-0.173072	0.507332
H217	H	0.645560	-0.109693	0.557304
C218	C	0.093240	0.061966	-0.140139
C219	C	0.052768	0.103598	-0.152596
C220	C	0.025051	0.103298	-0.202346
C221	C	0.037807	0.061366	-0.239638
C222	C	0.078282	0.019731	-0.227182
C223	C	0.105998	0.020031	-0.177432
H224	H	0.043323	0.134642	-0.124989
H225	H	-0.004910	0.134119	-0.211567
H226	H	0.017290	0.061144	-0.276466
H227	H	0.087726	-0.011313	-0.254789
H228	H	0.135959	-0.010791	-0.168211
C229	C	0.566829	-0.798678	0.095004
C230	C	0.524483	-0.827523	0.107441
C231	C	0.524191	-0.855243	0.157191
C232	C	0.566247	-0.854119	0.194505
C233	C	0.608597	-0.825274	0.182069
C234	C	0.608888	-0.797554	0.132319
H235	H	0.493348	-0.828356	0.079818
H236	H	0.492841	-0.876596	0.166397
H237	H	0.566032	-0.874640	0.231333
H238	H	0.639732	-0.824441	0.209691
H239	H	0.640238	-0.776200	0.123113
C240	C	0.640109	-0.007761	0.763754
C241	C	0.639722	-0.062803	0.770941
C242	C	0.676158	-0.099222	0.742224
C243	C	0.712980	-0.080599	0.706320
C244	C	0.713368	-0.025555	0.699132
C245	C	0.676932	0.010864	0.727849
H246	H	0.612463	-0.076592	0.797521
H247	H	0.675870	-0.139970	0.747546
H248	H	0.739952	-0.107559	0.685062
H249	H	0.740627	-0.011766	0.672552
H250	H	0.677220	0.051612	0.722527
C251	C	0.500952	0.131313	0.126702
C252	C	0.500950	0.131312	0.069263
C253	C	0.464510	0.167722	0.040542
C254	C	0.428072	0.204134	0.069260
C255	C	0.428073	0.204137	0.126702
C256	C	0.464513	0.167727	0.155423
H257	H	0.527924	0.104356	0.048002
H258	H	0.464509	0.167719	-0.001980
H259	H	0.401097	0.231087	0.047999
H260	H	0.401099	0.231092	0.147964
H261	H	0.464514	0.167729	0.197946
H262	H	0.191874	0.063033	0.127324
C263	C	0.569225	-0.566761	-0.140146
C264	C	0.610861	-0.607238	-0.152576
C265	C	0.610581	-0.634971	-0.202318
C266	C	0.568665	-0.622226	-0.239631
C267	C	0.527025	-0.581746	-0.227201
C268	C	0.527305	-0.554014	-0.177459
H269	H	0.641893	-0.616675	-0.124954
H270	H	0.641405	-0.664936	-0.211519
H271	H	0.568458	-0.642755	-0.276453
H272	H	0.495994	-0.572310	-0.254823
H273	H	0.496481	-0.524048	-0.168258
C274	C	0.467852	0.164379	0.633213
C275	C	0.412815	0.163951	0.626031
C276	C	0.376373	0.200362	0.654749
C277	C	0.394967	0.237201	0.690649
C278	C	0.450006	0.237630	0.697833
C279	C	0.486448	0.201219	0.669115
H280	H	0.399049	0.136679	0.599454
H281	H	0.335629	0.200044	0.649431
H282	H	0.367990	0.264154	0.711908
H283	H	0.463772	0.264902	0.724410
H284	H	0.527192	0.201537	0.674433
H285	H	0.630612	0.001736	0.134149
H286	H	0.477294	0.154929	0.374365
C287	C	0.570268	-0.460915	0.140238
C288	C	0.528203	-0.462037	0.177545
C289	C	0.528488	-0.434324	0.227299
C290	C	0.570837	-0.405488	0.239745
C291	C	0.612905	-0.404365	0.202437
C292	C	0.612620	-0.432078	0.152683
H293	H	0.496851	-0.483384	0.168333
H294	H	0.497347	-0.435156	0.254917
H295	H	0.571048	-0.384973	0.276575
H296	H	0.644257	-0.383017	0.211649
H297	H	0.643761	-0.431246	0.125065
H298	H	0.332323	0.064451	-0.082005
H299	H	0.100428	0.062094	0.127328
C300	C	0.567909	-0.692823	0.095012
C301	C	0.525845	-0.693951	0.132318
C302	C	0.526126	-0.666238	0.182072
C303	C	0.568472	-0.637397	0.194519
C304	C	0.610539	-0.636269	0.157212
C305	C	0.610258	-0.663982	0.107458
H306	H	0.494495	-0.715301	0.123105
H307	H	0.494985	-0.667073	0.209690
H308	H	0.568680	-0.616882	0.231350
H309	H	0.641889	-0.614919	0.166425
H310	H	0.641399	-0.663146	0.079840
H311	H	0.570795	-0.408319	0.127326
C312	C	0.574237	-0.077760	-0.094898
C313	C	0.616587	-0.048919	-0.107332
C314	C	0.616880	-0.021194	-0.157080
C315	C	0.574822	-0.022309	-0.194392
C316	C	0.532469	-0.051150	-0.181958
C317	C	0.532176	-0.078876	-0.132211
H318	H	0.647724	-0.048093	-0.079711
H319	H	0.648233	0.000157	-0.166284
H320	H	0.575038	-0.001785	-0.231218
H321	H	0.501332	-0.051977	-0.209580
H322	H	0.500824	-0.100226	-0.123007
H323	H	0.423789	0.065385	-0.082004
H324	H	0.663749	-0.031401	0.625738
C325	C	0.047843	0.061549	0.140253
C326	C	0.035089	0.103470	0.177560
C327	C	0.062803	0.103750	0.227313
C328	C	0.103271	0.062111	0.239759
C329	C	0.116027	0.020187	0.202452
C330	C	0.088313	0.019906	0.152699
H331	H	0.005131	0.134297	0.168347
H332	H	0.053360	0.134785	0.254930
H333	H	0.123786	0.062319	0.276589
H334	H	0.145985	-0.010640	0.211664
H335	H	0.097756	-0.011129	0.125082
C336	C	0.573149	-0.183619	-0.094908
C337	C	0.615222	-0.182496	-0.132205
C338	C	0.614951	-0.210213	-0.181958
C339	C	0.572608	-0.239053	-0.194413
C340	C	0.530532	-0.240177	-0.157115
C341	C	0.530803	-0.212460	-0.107363
H342	H	0.646570	-0.161146	-0.122986
H343	H	0.646099	-0.209381	-0.209568
H344	H	0.572407	-0.259571	-0.231243
H345	H	0.499184	-0.261527	-0.166335
H346	H	0.499655	-0.213292	-0.079753
H347	H	-0.050820	0.060544	0.127328
H348	H	0.571790	-0.316867	-0.127215
H349	H	0.477314	0.154926	0.531026
H350	H	-0.050801	0.060507	-0.127206
H351	H	0.570850	-0.408313	-0.127219
C352	C	0.571798	-0.309662	0.140248
C353	C	0.529727	-0.310783	0.177548
C354	C	0.530000	-0.283061	0.227297
C355	C	0.572343	-0.254219	0.239747
C356	C	0.614418	-0.253098	0.202446
C357	C	0.614145	-0.280819	0.152697
H358	H	0.498379	-0.332134	0.168333
H359	H	0.498853	-0.283891	0.254910
H360	H	0.572545	-0.233698	0.276575
H361	H	0.645766	-0.231746	0.211662
H362	H	0.645291	-0.279989	0.125085
H363	H	0.567867	-0.700012	-0.082013
H364	H	0.630614	0.001720	0.228875
H365	H	0.663743	-0.031388	0.374353
H366	H	0.663746	-0.031396	0.469076
C367	C	0.500996	0.131279	0.873424
C368	C	0.464175	0.112653	0.909327
C369	C	0.427737	0.149069	0.938045
C370	C	0.428121	0.204112	0.930860
C371	C	0.464943	0.222741	0.894956
C372	C	0.501381	0.186325	0.866238
H373	H	0.463890	0.071905	0.914647
H374	H	0.400479	0.135278	0.964624
H375	H	0.401147	0.231069	0.952119
H376	H	0.465228	0.263489	0.889636
H377	H	0.528639	0.200115	0.839659
C378	C	0.640110	-0.007766	0.873416
C379	C	0.640106	-0.007764	0.930855
C380	C	0.676535	-0.044182	0.959579
C381	C	0.712967	-0.080603	0.930865
C382	C	0.712972	-0.080607	0.873423
C383	C	0.676543	-0.044188	0.844699
H384	H	0.613136	0.019198	0.952114
H385	H	0.676531	-0.044180	1.002102
H386	H	0.739934	-0.107562	0.952129
H387	H	0.739942	-0.107568	0.852164
H388	H	0.676547	-0.044191	0.802176
