data_functionalizedCrystal
_audit_creation_method	'MofGen! by Chris Wilmer'
_symmetry_space_group_name_H-M	'P1'
_symmetry_Int_Tables_number	1
_symmetry_cell_setting	triclinic
loop_
_symmetry_equiv_pos_as_xyz
  x,y,z
_cell_length_a	10.654541
_cell_length_b	14.519709
_cell_length_c	9.130307
_cell_angle_alpha	89.995756
_cell_angle_beta	89.999822
_cell_angle_gamma	84.082037
loop_
_atom_site_label
_atom_site_type_symbol
_atom_site_fract_x
_atom_site_fract_y
_atom_site_fract_z
O1	O	1.666593	0.129520	-0.121758
O2	O	2.166593	0.629520	0.378242
O3	O	1.300996	0.141863	-0.121771
O4	O	1.800996	0.641863	0.378229
O5	O	1.493488	0.001504	-0.121751
O6	O	1.993488	0.501504	0.378249
O7	O	1.474101	0.269880	-0.121778
O8	O	1.974101	0.769880	0.378222
O9	O	1.493481	0.001502	0.121848
O10	O	1.993481	0.501502	0.621848
O11	O	1.300989	0.141862	0.121828
O12	O	1.800989	0.641862	0.621828
O13	O	1.666587	0.129519	0.121841
O14	O	2.166587	0.629519	0.621841
Cu15	Cu	1.483788	0.135690	0.144077
Cu16	Cu	1.983788	0.635690	0.644077
Cu17	Cu	1.483795	0.135692	-0.144007
Cu18	Cu	1.983795	0.635692	0.355993
O19	O	1.474095	0.269879	0.121821
O20	O	1.974095	0.769879	0.621821
C21	C	1.254203	0.140957	0.000027
C22	C	1.754203	0.640957	0.500027
C23	C	1.114786	0.138247	0.000022
C24	C	1.614786	0.638247	0.500022
C25	C	1.085201	0.306085	-0.000013
C26	C	1.585201	0.806085	0.499987
C27	C	1.004912	0.388727	-0.000036
C28	C	1.504912	0.888727	0.499964
C29	C	0.873919	0.386175	-0.000038
C30	C	1.373919	0.886175	0.499962
C31	C	0.823213	0.300972	-0.000011
C32	C	1.323213	0.800972	0.499989
C33	C	0.903502	0.218330	0.000012
C34	C	1.403502	0.718330	0.500012
C35	C	1.034496	0.220891	0.000009
C36	C	1.534496	0.720891	0.500009
C37	C	0.933086	0.050493	0.000058
C38	C	1.433086	0.550493	0.500058
C39	C	1.064080	0.053043	0.000049
C40	C	1.564080	0.553043	0.500049
C41	C	0.882380	-0.034710	0.000085
C42	C	1.382380	0.465290	0.500085
C43	C	0.962669	-0.117354	0.000098
C44	C	1.462669	0.382646	0.500098
C45	C	1.093670	-0.114798	0.000097
C46	C	1.593670	0.385202	0.500097
C47	C	1.144369	-0.029599	0.000072
C48	C	1.644369	0.470401	0.500072
C49	C	1.492581	-0.032862	0.000049
C50	C	1.992581	0.467138	0.500049
C51	C	1.489874	-0.135257	0.000049
C52	C	1.989874	0.364743	0.500049
C53	C	1.479906	-0.510204	0.000011
C54	C	1.979906	-0.010204	0.500011
C55	C	1.482674	-0.405882	0.000022
C56	C	1.982674	0.094118	0.500022
C57	C	1.484890	-0.322734	0.000032
C58	C	1.984890	0.177266	0.500032
C59	C	1.487658	-0.218405	0.000040
C60	C	1.987658	0.281595	0.500040
C61	C	1.713380	0.130425	0.000040
C62	C	2.213380	0.630425	0.500040
C63	C	1.852797	0.133135	0.000035
C64	C	2.352797	0.633135	0.500035
C65	C	1.475002	0.304244	0.000018
C66	C	1.975002	0.804244	0.500018
C67	C	1.477709	0.406639	0.000008
C68	C	1.977709	0.906639	0.500008
N69	N	1.483792	0.135689	0.346700
N70	N	1.983792	0.635689	0.846700
N71	N	1.483801	0.135686	-0.346630
N72	N	1.983801	0.635686	0.153370
C73	C	1.654313	0.011436	0.346708
C74	C	2.154313	0.511436	0.846708
C75	C	1.739582	-0.050687	0.423378
C76	C	2.239582	0.449313	0.923378
C77	C	1.739594	-0.050688	0.576712
C78	C	2.239594	0.449312	1.076712
C79	C	1.654326	0.011440	0.653378
C80	C	2.154326	0.511440	1.153378
C81	C	1.569057	0.073564	0.576707
C82	C	2.069057	0.573564	1.076707
C83	C	1.569056	0.073559	0.423370
C84	C	2.069056	0.573559	0.923370
C85	C	1.398532	0.197810	0.576700
C86	C	1.898532	0.697810	1.076700
C87	C	1.398524	0.197816	0.423366
C88	C	1.898524	0.697816	0.923366
C89	C	1.313264	0.259937	0.653366
C90	C	1.813264	0.759937	1.153366
C91	C	1.227999	0.322067	0.576695
C92	C	1.727999	0.822067	1.076695
C93	C	1.227991	0.322066	0.423352
C94	C	1.727991	0.822066	0.923352
C95	C	1.313255	0.259940	0.346695
C96	C	1.813255	0.759940	0.846695
H97	H	1.251028	-0.027510	0.000055
H98	H	1.751028	0.472490	0.500055
H99	H	1.046212	0.458098	-0.000054
H100	H	1.546212	0.958098	0.499946
C101	C	0.785598	0.477085	-0.000063
C102	C	1.285598	0.977085	0.499937
N103	N	0.719076	0.545558	-0.000085
N104	N	1.219076	1.045558	0.499915
C105	C	1.313252	0.259931	0.178024
C106	C	1.813252	0.759931	0.678024
N107	N	1.313250	0.259919	0.050979
N108	N	1.813250	0.759919	0.550979
H109	H	0.775717	-0.036782	0.000092
H110	H	1.275717	0.463218	0.500092
H111	H	0.716550	0.298901	0.000006
H112	H	1.216550	0.798901	0.500006
C113	C	1.833393	-0.119026	0.661051
C114	C	2.333393	0.380974	1.161051
N115	N	1.904044	-0.170498	0.724576
N116	N	2.404044	0.329502	1.224576
H117	H	0.921373	-0.186720	0.000118
H118	H	1.421373	0.313280	0.500118
C119	C	1.181979	-0.205714	0.000124
C120	C	1.681979	0.294286	0.500124
N121	N	1.248489	-0.274193	0.000142
N122	N	1.748489	0.225807	0.500142
C123	C	1.654315	0.011437	0.178037
C124	C	2.154315	0.511437	0.678037
N125	N	1.654318	0.011435	0.050991
N126	N	2.154318	0.511435	0.550991
H127	H	1.191861	0.308172	-0.000044
H128	H	1.691861	0.808172	0.499956
C129	C	1.134205	0.390392	0.661037
C130	C	1.634205	0.890392	1.161037
N131	N	1.063557	0.441856	0.724570
N132	N	1.563557	0.941856	1.224570
H133	H	1.158550	0.372650	0.360935
H134	H	1.658550	0.872650	0.860935
C135	C	1.833353	-0.119039	0.339034
C136	C	2.333353	0.380961	0.839034
N137	N	1.903973	-0.170527	0.275510
N138	N	2.403973	0.329473	0.775510
H139	H	1.654331	0.011428	0.778230
H140	H	2.154331	0.511428	1.278230
H141	H	1.313273	0.259931	0.778218
H142	H	1.813273	0.759931	1.278218
