data_functionalizedCrystal
_audit_creation_method	'MofGen! by Chris Wilmer'
_symmetry_space_group_name_H-M	'P1'
_symmetry_Int_Tables_number	1
_symmetry_cell_setting	triclinic
loop_
_symmetry_equiv_pos_as_xyz
  x,y,z
_cell_length_a	16.109302
_cell_length_b	10.540510
_cell_length_c	15.186229
_cell_angle_alpha	89.998730
_cell_angle_beta	89.994701
_cell_angle_gamma	83.987546
loop_
_atom_site_label
_atom_site_type_symbol
_atom_site_fract_x
_atom_site_fract_y
_atom_site_fract_z
O1	O	1.104117	0.163165	-0.073263
O2	O	0.862177	0.183470	-0.073256
O3	O	0.988680	-0.011470	-0.073259
O4	O	0.977614	0.358105	-0.073260
O5	O	0.988671	-0.011473	0.073198
O6	O	0.862169	0.183467	0.073201
O7	O	1.104108	0.163163	0.073194
Zn8	Zn	0.983137	0.173314	0.096451
Zn9	Zn	0.983148	0.173318	-0.096513
O10	O	0.977606	0.358103	0.073198
C11	C	0.831193	0.182646	-0.000026
C12	C	0.738883	0.180179	-0.000024
C13	C	0.526503	0.174475	0.079802
C14	C	0.439769	0.172144	0.079798
C15	C	0.439789	0.172154	-0.079877
C16	C	0.526522	0.174475	-0.079873
C17	C	0.569876	0.175643	-0.000031
C18	C	0.396409	0.170990	-0.000038
C19	C	0.302368	0.168462	-0.000042
C20	C	0.663924	0.178168	-0.000027
C21	C	0.987851	-0.058763	-0.000033
C22	C	0.985384	-0.199678	-0.000038
C23	C	1.073264	-0.418386	0.000295
C24	C	1.075896	-0.271828	-0.000040
C25	C	0.939055	-0.243775	-0.083669
C26	C	0.937065	-0.390508	-0.083734
C27	C	0.935170	-0.390292	0.082815
C28	C	0.939463	-0.244012	0.083916
C29	C	1.135092	0.163987	-0.000038
C30	C	1.227402	0.166453	-0.000046
C31	C	0.978435	0.405396	-0.000031
C32	C	0.980902	0.546311	-0.000032
N33	N	0.983136	0.173311	0.228144
N34	N	0.983157	0.173311	-0.228205
C35	C	1.039170	0.087021	0.453865
C36	C	1.039173	0.087018	0.546055
C37	C	0.927116	0.259606	0.546067
C38	C	0.927110	0.259602	0.453879
C39	C	0.983142	0.173311	0.407780
C40	C	0.983150	0.173312	0.592158
C41	C	0.983153	0.173309	0.692114
C42	C	0.983139	0.173311	0.307818
H43	H	0.561838	0.175423	-0.144887
O44	O	0.866695	0.352684	0.595793
H45	H	0.877869	0.451640	0.578083
O46	O	0.979356	-0.444165	-0.166423
H47	H	0.945737	-0.401847	-0.224960
O48	O	0.847395	-0.419695	-0.088762
H49	H	0.845302	-0.524615	-0.088839
O50	O	1.123929	-0.233631	0.079354
H51	H	1.145484	-0.319914	0.118334
H52	H	0.404479	0.171205	-0.144882
H53	H	0.881481	0.329870	0.416354
O54	O	1.099580	-0.006085	0.404147
H55	H	1.090165	0.008404	0.332300
H56	H	1.108327	-0.462390	-0.059344
O57	O	0.573268	0.175736	0.165912
H58	H	0.528533	0.174526	0.221423
O59	O	1.119972	-0.474586	0.079753
H60	H	1.077862	-0.528296	0.119858
O61	O	1.124186	-0.234867	-0.079596
H62	H	1.145742	-0.321722	-0.117984
O63	O	0.850790	-0.179753	-0.087802
H64	H	0.852052	-0.074755	-0.090741
O65	O	0.392983	0.170897	0.165903
H66	H	0.437704	0.172109	0.221419
H67	H	1.084795	0.016751	0.583574
O68	O	0.981882	-0.203985	-0.166119
H69	H	1.036129	-0.152758	-0.147744
O70	O	0.973063	-0.447034	0.166786
H71	H	0.967242	-0.551018	0.167991
O72	O	0.851938	-0.177748	0.090634
H73	H	0.839742	-0.111899	0.033981
H74	H	0.973174	-0.215882	0.145785
O75	O	0.845156	-0.418360	0.083582
H76	H	0.833008	-0.477169	0.025278
