data_functionalizedCrystal
_audit_creation_method	'MofGen! by Chris Wilmer'
_symmetry_space_group_name_H-M	'P1'
_symmetry_Int_Tables_number	1
_symmetry_cell_setting	triclinic
loop_
_symmetry_equiv_pos_as_xyz
  x,y,z
_cell_length_a	8.597314
_cell_length_b	7.088929
_cell_length_c	8.597282
_cell_angle_alpha	76.027061
_cell_angle_beta	86.360090
_cell_angle_gamma	103.953409
loop_
_atom_site_label
_atom_site_type_symbol
_atom_site_fract_x
_atom_site_fract_y
_atom_site_fract_z
O1	O	-2.101062	-0.150955	-0.219224
O2	O	-1.636345	-0.070121	-0.245277
O3	O	-1.881722	-0.150964	0.000120
O4	O	-1.855685	-0.070112	-0.464621
O5	O	-1.914515	-0.479755	0.032989
O6	O	-1.669138	-0.398912	-0.212408
O7	O	-2.133854	-0.479746	-0.186356
Cu8	Cu	-1.904490	-0.469350	-0.196380
Cu9	Cu	-1.865709	-0.080517	-0.235252
O10	O	-1.888477	-0.398903	-0.431752
C11	C	-1.593280	-0.224882	-0.227875
C12	C	-1.416103	-0.196178	-0.224972
N13	N	-1.931778	-0.742837	-0.169040
C14	C	-1.176920	-0.324988	-0.203756
C15	C	-1.354098	-0.353703	-0.206653
C16	C	-1.897149	-0.324993	0.076019
C17	C	-1.894240	-0.353692	0.253203
N18	N	-1.838434	0.192966	-0.262580
C19	C	-1.873050	-0.224871	0.492349
C20	C	-1.875959	-0.196162	0.315163
H21	H	-1.333633	-0.039336	-0.238436
H22	H	-1.741694	-0.693484	-0.359515
H23	H	-1.436561	-0.510537	-0.193179
O24	O	-2.059956	-0.893241	-0.040646
H25	H	-2.035708	-0.870777	0.079792
H26	H	-1.907661	-0.510521	0.335708
H27	H	-1.862514	-0.039318	0.232647
