data_functionalizedCrystal
_audit_creation_method	'MofGen! by Chris Wilmer'
_symmetry_space_group_name_H-M	'P1'
_symmetry_Int_Tables_number	1
_symmetry_cell_setting	triclinic
loop_
_symmetry_equiv_pos_as_xyz
  x,y,z
_cell_length_a	12.759401
_cell_length_b	12.827892
_cell_length_c	12.759401
_cell_angle_alpha	90.007387
_cell_angle_beta	90.005677
_cell_angle_gamma	90.015818
loop_
_atom_site_label
_atom_site_type_symbol
_atom_site_fract_x
_atom_site_fract_y
_atom_site_fract_z
Zn1	Zn	1.606116	-0.416204	0.593988
Zn2	Zn	1.606048	-0.590912	0.418310
Zn3	Zn	1.430458	-0.416187	0.418327
Zn4	Zn	1.430405	-0.590905	0.593951
O5	O	1.518257	-0.503552	0.506144
O6	O	1.753128	-0.439389	0.570692
O7	O	1.582749	-0.567731	0.271291
O8	O	1.453810	-0.269953	0.441652
O9	O	1.753078	-0.567747	0.441622
O10	O	1.582865	-0.269965	0.570709
O11	O	1.453744	-0.439361	0.271304
O12	O	1.283430	-0.439353	0.441616
O13	O	1.453719	-0.567734	0.740977
O14	O	1.283391	-0.567718	0.570646
O15	O	1.582814	-0.439382	0.741004
O16	O	1.582698	-0.737147	0.441586
O17	O	1.453653	-0.737142	0.570629
C18	C	1.245289	-0.503534	0.506129
C19	C	1.128513	-0.503551	0.506148
C20	C	1.073677	-0.436836	0.573458
C21	C	0.963953	-0.436847	0.573465
C22	C	0.963909	-0.570296	0.438848
C23	C	1.073632	-0.570280	0.438837
C24	C	0.814026	-0.313686	0.611232
C25	C	0.759187	-0.246980	0.678559
C26	C	0.794821	-0.231093	0.781097
C27	C	0.885292	-0.281927	0.816330
C28	C	0.940125	-0.348640	0.749009
C29	C	0.904493	-0.364507	0.646456
C30	C	1.223561	-0.693443	0.401080
C31	C	1.278396	-0.760162	0.333764
C32	C	1.242765	-0.776060	0.231224
C33	C	1.152290	-0.725244	0.195995
C34	C	1.097455	-0.658525	0.263312
C35	C	1.133094	-0.642625	0.365851
C36	C	1.518191	-0.775062	0.506125
C37	C	1.518259	-0.891215	0.506151
C38	C	1.582091	-0.942922	0.570070
C39	C	1.582163	-1.062972	0.570100
C40	C	1.792290	-0.503571	0.506160
C41	C	1.909067	-0.503579	0.506166
C42	C	1.518268	-0.503559	0.780177
C43	C	1.518273	-0.503562	0.896954
C44	C	1.518351	-0.230982	0.506187
C45	C	1.518392	-0.114828	0.506205
C46	C	1.585484	-0.436740	0.951832
C47	C	1.585475	-0.436738	1.061556
C48	C	1.451041	-0.570389	1.061515
C49	C	1.451046	-0.570385	0.951792
C50	C	1.623052	-0.313503	1.211532
C51	C	1.690280	-0.246690	1.266413
C52	C	1.792801	-0.230653	1.230820
C53	C	1.828116	-0.281445	1.140346
C54	C	1.760894	-0.348265	1.085470
C55	C	1.658358	-0.364282	1.121062
C56	C	1.413480	-0.693621	0.801815
C57	C	1.346262	-0.760448	0.746937
C58	C	1.243739	-0.776495	0.782528
C59	C	1.208427	-0.725722	0.873005
C60	C	1.275645	-0.658896	0.927883
C61	C	1.378167	-0.642847	0.892284
C62	C	1.518244	-0.503568	1.233177
C63	C	1.518260	-0.503564	1.116400
H64	H	1.123274	-0.738194	0.112501
H65	H	1.463658	-0.935823	0.451455
H66	H	1.246886	-0.617554	1.001555
H67	H	1.636684	-0.898317	0.624777
H68	H	1.636816	-1.107440	0.624819
C69	C	1.038232	-0.404026	0.787251
C70	C	1.023458	-0.511988	0.780714
C71	C	1.113811	-0.563039	0.815945
H72	H	1.096154	-0.384369	0.744865
H73	H	1.051611	-0.385089	0.857986
H74	H	1.010092	-0.530917	0.709991
H75	H	0.965553	-0.531676	0.823102
H76	H	1.127190	-0.544103	0.886680
H77	H	1.171727	-0.543374	0.773555
H78	H	1.103796	-0.636297	0.811524
C79	C	1.658419	-0.364292	0.892102
C80	C	1.644059	-0.378605	0.784265
C81	C	1.711235	-0.311889	0.729213
H82	H	1.643128	-0.294038	0.909970
H83	H	1.729028	-0.379597	0.910030
H84	H	1.573466	-0.363293	0.766345
H85	H	1.659358	-0.448846	0.766366
H86	H	1.781844	-0.327193	0.747141
H87	H	1.695938	-0.241638	0.747090
H88	H	1.701508	-0.321598	0.656041
H89	H	1.352076	-0.801525	0.362450
H90	H	0.919212	-0.624625	0.384047
H91	H	1.396309	-0.624796	1.106177
H92	H	1.023785	-0.617148	0.234620
H93	H	0.685525	-0.205591	0.649863
C94	C	1.799412	-0.403464	0.987352
C95	C	1.885516	-0.466277	1.012579
C96	C	1.921035	-0.517124	0.922212
H97	H	1.744805	-0.445627	0.959688
H98	H	1.819725	-0.353176	0.936606
H99	H	1.865200	-0.516558	1.063308
H100	H	1.940143	-0.424139	1.040231
H101	H	1.941348	-0.466836	0.871466
H102	H	1.866421	-0.559282	0.894555
H103	H	1.979465	-0.559741	0.939315
C104	C	1.939514	-0.264068	1.101925
C105	C	2.010285	-0.295291	1.179685
C106	C	2.112915	-0.279283	1.144333
H107	H	1.951078	-0.303868	1.040218
H108	H	1.949567	-0.192218	1.086920
H109	H	2.000237	-0.367130	1.194676
H110	H	1.998756	-0.255498	1.241397
H111	H	2.122968	-0.207433	1.129329
H112	H	2.124467	-0.319084	1.082627
H113	H	2.160945	-0.300457	1.197091
H114	H	1.124946	-0.738792	0.901988
H115	H	1.847538	-0.176252	1.275512
C116	C	1.445384	-1.055497	0.433406
C117	C	1.378003	-0.992890	0.492879
C118	C	1.310725	-0.938221	0.425854
H119	H	1.485499	-1.012814	0.387670
H120	H	1.405322	-1.103570	0.393342
H121	H	1.418061	-0.944822	0.532925
H122	H	1.337864	-1.035546	0.538612
H123	H	1.270663	-0.986295	0.385790
H124	H	1.350849	-0.895545	0.380122
H125	H	1.264993	-0.895744	0.466197
C126	C	1.652151	-0.191486	1.364687
C127	C	1.732980	-0.129568	1.405147
C128	C	1.697907	-0.078714	1.495685
H129	H	1.593761	-0.148716	1.347879
H130	H	1.631937	-0.241770	1.415477
H131	H	1.753179	-0.079290	1.354367
H132	H	1.791376	-0.172312	1.421977
H133	H	1.677693	-0.128998	1.546475
H134	H	1.639517	-0.035950	1.478867
H135	H	1.752746	-0.036705	1.523153
H136	H	1.287402	-0.830418	0.176427
C137	C	1.170901	-0.849057	0.722775
C138	C	1.223758	-0.890082	0.635913
C139	C	1.156688	-0.956914	0.580842
H140	H	1.149302	-0.904329	0.767358
H141	H	1.111153	-0.811280	0.699739
H142	H	1.283487	-0.927858	0.658950
H143	H	1.245354	-0.834835	0.591305
H144	H	1.096940	-0.919138	0.557806
H145	H	1.135093	-1.012180	0.625433
H146	H	1.192538	-0.984751	0.521895
H147	H	1.375026	-0.801800	0.673272
C148	C	1.524879	-0.676223	0.763395
C149	C	1.595646	-0.707439	0.841162
C150	C	1.698277	-0.691417	0.805821
H151	H	1.536454	-0.716020	0.701689
H152	H	1.534925	-0.604371	0.748393
H153	H	1.585605	-0.779278	0.856150
H154	H	1.584106	-0.667648	0.902873
H155	H	1.708323	-0.619565	0.790819
H156	H	1.709841	-0.731216	0.744115
H157	H	1.746305	-0.712586	0.858583
C158	C	1.133320	-0.364558	0.646658
C159	C	1.196296	-0.423825	0.713909
C160	C	1.251241	-0.357275	0.781363
H161	H	1.176207	-0.318936	0.606665
H162	H	1.084977	-0.324844	0.686807
H163	H	1.244633	-0.463522	0.673764
H164	H	1.153436	-0.469444	0.753925
H165	H	1.202898	-0.317561	0.821512
H166	H	1.294121	-0.311656	0.741361
H167	H	1.293969	-0.397478	0.827007
C168	C	0.735398	-0.158752	0.854372
C169	C	0.785949	-0.155741	0.951726
C170	C	0.731228	-0.089121	1.019251
H171	H	0.733517	-0.090625	0.825271
H172	H	0.665866	-0.183746	0.863254
H173	H	0.855462	-0.130743	0.942842
H174	H	0.787831	-0.223850	0.980858
H175	H	0.661696	-0.114115	1.028133
H176	H	0.729350	-0.020999	0.990140
H177	H	0.765513	-0.087077	1.085316
C178	C	0.775170	-0.331049	0.499976
C179	C	0.673877	-0.372953	0.502869
C180	C	0.638049	-0.388975	0.400401
H181	H	0.774015	-0.266466	0.463583
H182	H	0.820729	-0.378096	0.464900
H183	H	0.628330	-0.325908	0.537930
H184	H	0.675004	-0.437542	0.539242
H185	H	0.683608	-0.436022	0.365325
H186	H	0.636900	-0.324388	0.364016
H187	H	0.569323	-0.417417	0.402350
H188	H	0.914291	-0.268995	0.899831
H189	H	1.252587	-0.680495	0.484575
H190	H	1.539568	-0.326546	1.240516
