data_functionalizedCrystal
_audit_creation_method	'MofGen! by Chris Wilmer'
_symmetry_space_group_name_H-M	'P1'
_symmetry_Int_Tables_number	1
_symmetry_cell_setting	triclinic
loop_
_symmetry_equiv_pos_as_xyz
  x,y,z
_cell_length_a	16.959454
_cell_length_b	12.759395
_cell_length_c	12.759395
_cell_angle_alpha	89.994877
_cell_angle_beta	90.008408
_cell_angle_gamma	89.978388
loop_
_atom_site_label
_atom_site_type_symbol
_atom_site_fract_x
_atom_site_fract_y
_atom_site_fract_z
Zn1	Zn	-0.314777	-1.606070	0.594010
Zn2	Zn	0.185223	-1.106070	1.094010
Zn3	Zn	-0.446927	-1.605991	0.418333
Zn4	Zn	0.053073	-1.105991	0.918333
Zn5	Zn	-0.314770	-1.430415	0.418347
Zn6	Zn	0.185230	-0.930415	0.918347
Zn7	Zn	-0.446920	-1.430344	0.593972
Zn8	Zn	0.053080	-0.930344	1.093972
O9	O	-0.380848	-1.518205	0.506165
O10	O	0.119152	-1.018205	1.006165
O11	O	-0.332312	-1.753081	0.570716
O12	O	0.167688	-1.253081	1.070716
O13	O	-0.429395	-1.582698	0.271313
O14	O	0.070605	-1.082698	0.771313
O15	O	-0.204160	-1.453779	0.441671
O16	O	0.295840	-0.953779	0.941671
O17	O	-0.429402	-1.753023	0.441647
O18	O	0.070598	-1.253023	0.941647
O19	O	-0.204165	-1.582832	0.570730
O20	O	0.295835	-1.082832	1.070730
O21	O	-0.332300	-1.453703	0.271324
O22	O	0.167700	-0.953703	0.771324
O23	O	-0.332294	-1.283385	0.441634
O24	O	0.167706	-0.783385	0.941634
O25	O	-0.429392	-1.453657	0.740998
O26	O	0.070608	-0.953657	1.240998
O27	O	-0.429385	-1.283332	0.570665
O28	O	0.070615	-0.783332	1.070665
O29	O	-0.332306	-1.582763	0.741026
O30	O	0.167694	-1.082763	1.241026
O31	O	-0.557537	-1.582628	0.441610
O32	O	-0.057537	-1.082628	0.941610
O33	O	-0.557532	-1.453581	0.570651
O34	O	-0.057532	-0.953581	1.070651
C35	C	-0.586215	-1.518117	0.506147
C36	C	-0.086215	-1.018117	1.006147
C37	C	-0.674071	-1.518175	0.506175
C38	C	-0.174071	-1.018175	1.006175
C39	C	-0.380839	-1.245238	0.506147
C40	C	0.119161	-0.745238	1.006147
C41	C	-0.380854	-1.128461	0.506164
C42	C	0.119146	-0.628461	1.006164
C43	C	-0.380849	-1.518211	0.780199
C44	C	0.119151	-1.018211	1.280199
C45	C	-0.380849	-1.518213	0.896975
C46	C	0.119151	-1.018213	1.396975
C47	C	-1.045574	-1.451108	0.573350
C48	C	-0.545574	-0.951108	1.073350
C49	C	-1.045519	-1.585595	0.439088
C50	C	-0.545519	-1.085595	0.939088
C51	C	-0.962973	-1.585558	0.439078
C52	C	-0.462973	-1.085558	0.939078
C53	C	-0.921724	-1.518294	0.506204
C54	C	-0.421724	-1.018294	1.006204
C55	C	-0.963021	-1.451067	0.573340
C56	C	-0.463021	-0.951067	1.073340
C57	C	-0.921670	-1.652777	0.371936
C58	C	-0.421670	-1.152777	0.871936
C59	C	-0.839119	-1.652742	0.371923
C60	C	-0.339119	-1.152742	0.871923
C61	C	-0.797869	-1.585483	0.439055
C62	C	-0.297869	-1.085483	0.939055
C63	C	-0.839171	-1.518253	0.506194
C64	C	-0.339171	-1.018253	1.006194
C65	C	-0.797921	-1.450989	0.573320
C66	C	-0.297921	-0.950989	1.073320
C67	C	-0.839222	-1.383764	0.640466
C68	C	-0.339222	-0.883764	1.140466
C69	C	-0.921770	-1.383807	0.640472
C70	C	-0.421770	-0.883807	1.140472
C71	C	-0.715320	-1.585440	0.439049
C72	C	-0.215320	-1.085440	0.939049
C73	C	-0.715368	-1.450948	0.573311
C74	C	-0.215368	-0.950948	1.073311
C75	C	-0.174680	-1.518322	0.506206
C76	C	0.325320	-1.018322	1.006206
C77	C	-0.086823	-1.518372	0.506224
C78	C	0.413177	-1.018372	1.006224
C79	C	-0.380859	-1.792238	0.506184
C80	C	0.119141	-1.292238	1.006184
C81	C	-0.380863	-1.909015	0.506192
C82	C	0.119137	-1.409015	1.006192
C83	C	-0.482118	-1.128445	0.640307
C84	C	0.017882	-0.628445	1.140307
C85	C	-0.532756	-1.073576	0.707381
C86	C	-0.032756	-0.573576	1.207381
C87	C	-0.532765	-0.963855	0.707394
C88	C	-0.032765	-0.463855	1.207394
C89	C	-0.482130	-0.908999	0.640327
C90	C	0.017870	-0.408999	1.140327
C91	C	-0.431491	-0.963868	0.573253
C92	C	0.068509	-0.463868	1.073253
C93	C	-0.431489	-1.073592	0.573245
C94	C	0.068511	-0.573592	1.073245
C95	C	-0.330225	-0.963884	0.439118
C96	C	0.169775	-0.463884	0.939118
C97	C	-0.330218	-1.073606	0.439098
C98	C	0.169782	-0.573606	0.939098
C99	C	-0.279589	-0.909029	0.372052
C100	C	0.220411	-0.409029	0.872052
C101	C	-0.228954	-0.963897	0.304970
C102	C	0.271046	-0.463897	0.804970
C103	C	-0.228947	-1.073626	0.304959
C104	C	0.271053	-0.573626	0.804959
C105	C	-0.279580	-1.128474	0.372024
C106	C	0.220420	-0.628474	0.872024
C107	C	-0.279761	-1.652659	0.897024
C108	C	0.220239	-1.152659	1.397024
C109	C	-0.229220	-1.719882	0.951910
C110	C	0.270780	-1.219882	1.451910
C111	C	-0.229222	-1.719879	1.061631
C112	C	0.270778	-1.219879	1.561631
C113	C	-0.279769	-1.652642	1.116470
C114	C	0.220231	-1.152642	1.616470
C115	C	-0.330310	-1.585419	1.061585
C116	C	0.169690	-1.085419	1.561585
C117	C	-0.330303	-1.585433	0.951861
C118	C	0.169697	-1.085433	1.451861
C119	C	-0.431393	-1.450969	1.061536
C120	C	0.068607	-0.950969	1.561536
C121	C	-0.431396	-1.450977	0.951814
C122	C	0.068604	-0.950977	1.451814
C123	C	-0.481940	-1.383733	1.116375
C124	C	0.018060	-0.883733	1.616375
C125	C	-0.532485	-1.316513	1.061489
C126	C	-0.032485	-0.816513	1.561489
C127	C	-0.532482	-1.316521	0.951761
C128	C	-0.032482	-0.816521	1.451761
C129	C	-0.481936	-1.383754	0.896929
C130	C	0.018064	-0.883754	1.396929
C131	C	-0.380862	-1.518192	1.233198
C132	C	0.119138	-1.018192	1.733198
C133	C	-0.380853	-1.518192	1.116421
C134	C	0.119147	-1.018192	1.616421
H135	H	-0.681788	-1.396177	0.627977
H136	H	-0.181788	-0.896177	1.127977
H137	H	-0.681697	-1.640168	0.384375
H138	H	-0.181697	-1.140168	0.884375
H139	H	-0.482121	-1.217786	0.640295
H140	H	0.017879	-0.717786	1.140295
H141	H	-0.805627	-1.328992	0.695116
H142	H	-0.305627	-0.828992	1.195116
H143	H	-0.573981	-1.118251	0.761987
H144	H	-0.073981	-0.618251	1.261987
H145	H	-0.573632	-1.261770	1.106148
H146	H	-0.073632	-0.761770	1.606148
H147	H	-0.955404	-1.329075	0.695137
H148	H	-0.455404	-0.829075	1.195137
H149	H	-1.079205	-1.396378	0.628021
H150	H	-0.579205	-0.896378	1.128021
H151	H	-0.279597	-0.819687	0.372071
H152	H	0.220403	-0.319687	0.872071
H153	H	-0.573629	-1.261768	0.907080
H154	H	-0.073629	-0.761768	1.407080
H155	H	-0.481935	-1.383730	1.205716
H156	H	0.018065	-0.883730	1.705716
H157	H	-1.079109	-1.640352	0.384430
H158	H	-0.579109	-1.140352	0.884430
H159	H	-0.573995	-0.919181	0.762017
H160	H	-0.073995	-0.419181	1.262017
H161	H	-0.805498	-1.707481	0.317251
H162	H	-0.305498	-1.207481	0.817251
H163	H	-0.955262	-1.707532	0.317278
H164	H	-0.455262	-1.207532	0.817278
H165	H	-0.187727	-0.919225	0.250375
H166	H	0.312273	-0.419225	0.750375
H167	H	-0.482135	-0.819658	0.640353
H168	H	0.017865	-0.319658	1.140353
H169	H	-0.187705	-1.118293	0.250347
H170	H	0.312295	-0.618293	0.750347
H171	H	-0.279581	-1.217815	0.372018
H172	H	0.220419	-0.717815	0.872018
H173	H	-0.279760	-1.652636	1.205811
H174	H	0.220240	-1.152636	1.705811
H175	H	-0.279761	-1.652679	0.807683
H176	H	0.220239	-1.152679	1.307683
H177	H	-0.188065	-1.774623	0.907248
H178	H	0.311935	-1.274623	1.407248
H179	H	-0.188063	-1.774611	1.106319
H180	H	0.311937	-1.274611	1.606319
H181	H	-0.481932	-1.383771	0.807588
H182	H	0.018068	-0.883771	1.307588
