data_functionalizedCrystal
_audit_creation_method	'MofGen! by Chris Wilmer'
_symmetry_space_group_name_H-M	'P1'
_symmetry_Int_Tables_number	1
_symmetry_cell_setting	triclinic
loop_
_symmetry_equiv_pos_as_xyz
  x,y,z
_cell_length_a	10.654541
_cell_length_b	17.019294
_cell_length_c	9.130307
_cell_angle_alpha	86.117741
_cell_angle_beta	89.999822
_cell_angle_gamma	83.937911
loop_
_atom_site_label
_atom_site_type_symbol
_atom_site_fract_x
_atom_site_fract_y
_atom_site_fract_z
O1	O	1.666104	0.110784	-0.135725
O2	O	1.300459	0.121342	-0.137069
O3	O	1.493482	0.001286	-0.121913
O4	O	1.473081	0.230840	-0.150880
O5	O	1.493476	0.001285	0.121686
O6	O	1.300453	0.121341	0.106530
O7	O	1.666097	0.110783	0.107875
Cu8	Cu	1.483274	0.116062	0.129445
Cu9	Cu	1.483282	0.116063	-0.158639
O10	O	1.473074	0.230839	0.092719
C11	C	1.253670	0.120566	-0.015173
C12	C	1.114263	0.118248	-0.014885
C13	C	1.492705	-0.028108	0.003592
C14	C	1.490385	-0.115691	0.014635
C15	C	1.084043	0.261808	-0.033019
C16	C	1.003442	0.332495	-0.041954
C17	C	0.872458	0.330312	-0.041680
C18	C	0.822074	0.257434	-0.032466
C19	C	0.902676	0.186747	-0.023531
C20	C	1.033661	0.188937	-0.023810
C21	C	0.932895	0.043189	-0.005387
C22	C	1.063879	0.045370	-0.005671
C23	C	0.882511	-0.029689	0.003828
C24	C	0.963113	-0.100378	0.012752
C25	C	1.094104	-0.098192	0.012476
C26	C	1.144481	-0.025317	0.003264
C27	C	1.489302	-0.156832	-0.112963
C28	C	1.487113	-0.239125	-0.102583
C29	C	1.486018	-0.280276	0.035396
C30	C	1.487098	-0.239128	0.163003
C31	C	1.489277	-0.156836	0.152621
C32	C	1.479430	-0.528745	0.073384
C33	C	1.477255	-0.611043	0.083756
C34	C	1.477268	-0.611034	-0.181831
C35	C	1.479455	-0.528741	-0.192200
C36	C	1.480528	-0.487600	-0.064593
C37	C	1.483785	-0.364393	0.046009
C38	C	1.482751	-0.403484	-0.075208
C39	C	1.712886	0.111558	-0.014024
C40	C	1.852293	0.113876	-0.014322
C41	C	1.473851	0.260233	-0.032790
C42	C	1.476171	0.347816	-0.043841
N43	N	1.483278	0.116060	0.332068
N44	N	1.483288	0.116058	-0.361261
C45	C	1.654269	0.009782	0.345474
C46	C	1.739773	-0.043355	0.428844
C47	C	1.739786	-0.043355	0.582177
C48	C	1.654283	0.009785	0.652144
C49	C	1.568779	0.062922	0.568775
C50	C	1.568778	0.062918	0.415438
C51	C	1.397784	0.169195	0.555369
C52	C	1.397775	0.169201	0.402035
C53	C	1.312281	0.222336	0.625336
C54	C	1.226781	0.275477	0.541966
C55	C	1.226773	0.275476	0.388623
C56	C	1.312272	0.222338	0.318665
H57	H	1.044479	0.391831	-0.049452
H58	H	0.806831	0.387872	-0.048945
C59	C	0.703097	-0.071892	0.134384
C60	C	0.738532	-0.032092	0.004128
H61	H	0.614209	-0.073372	0.134566
H62	H	0.743887	-0.124413	0.141015
H63	H	0.727147	-0.044873	0.215908
H64	H	0.714491	-0.059114	-0.077396
H65	H	0.697728	0.020438	-0.002518
H66	H	1.312277	0.222335	0.193814
C67	C	1.340347	-0.061269	-0.117418
C68	C	1.288459	-0.022911	0.002957
H69	H	1.429232	-0.059776	-0.117607
H70	H	1.321884	-0.114780	-0.110640
H71	H	1.305125	-0.035253	-0.205646
H72	H	1.323673	-0.048931	0.091187
H73	H	1.306932	0.030610	-0.003808
C74	C	0.833336	-0.186121	-0.101630
C75	C	0.907731	-0.180479	0.022877
H76	H	0.799150	-0.235575	-0.095382
H77	H	0.766598	-0.144339	-0.106889
H78	H	0.883815	-0.182288	-0.187057
H79	H	0.857250	-0.184306	0.108304
H80	H	0.974479	-0.222272	0.028152
C81	C	1.813833	-0.179475	0.398708
C82	C	1.833756	-0.101744	0.351887
H83	H	1.871848	-0.215515	0.351180
H84	H	1.826102	-0.187095	0.501940
H85	H	1.730039	-0.188533	0.374733
H86	H	1.917548	-0.092684	0.375872
H87	H	1.821497	-0.094121	0.248631
C88	C	1.594318	-0.272735	0.393620
C89	C	1.485895	-0.284355	0.314677
H90	H	1.593572	-0.300651	0.487263
H91	H	1.667146	-0.291839	0.341474
H92	H	1.595754	-0.217833	0.405681
H93	H	1.484464	-0.339257	0.302606
H94	H	1.413048	-0.265255	0.366835
C95	C	1.382022	-0.123226	0.374728
C96	C	1.490458	-0.111606	0.292876
H97	H	1.382749	-0.095305	0.461320
H98	H	1.309202	-0.104128	0.317741
H99	H	1.380588	-0.178127	0.400655
H100	H	1.491887	-0.056705	0.266939
H101	H	1.563296	-0.130700	0.349874
C102	C	1.910723	-0.059467	0.756647
C103	C	1.833769	-0.101765	0.673825
H104	H	1.968737	-0.095529	0.813230
H105	H	1.955824	-0.026375	0.692646
H106	H	1.859793	-0.027821	0.820251
H107	H	1.884698	-0.133407	0.610213
H108	H	1.788665	-0.134871	0.737833
C109	C	1.489081	-0.165097	-0.374437
C110	C	1.490502	-0.111603	-0.264635
H111	H	1.489810	-0.137173	-0.468075
H112	H	1.561424	-0.202806	-0.364157
H113	H	1.415029	-0.191581	-0.365559
H114	H	1.564558	-0.085123	-0.273507
H115	H	1.418151	-0.073881	-0.274921
H116	H	1.159724	-0.155755	0.019758
H117	H	1.476356	-0.644545	0.196120
C118	C	1.629112	-0.064697	0.881187
C119	C	1.654292	0.009778	0.820692
H120	H	1.629124	-0.064700	0.985242
H121	H	1.548879	-0.075954	0.847927
H122	H	1.692271	-0.103942	0.851436
H123	H	1.591126	0.049023	0.850434
H124	H	1.734535	0.021045	0.853965
H125	H	1.480329	-0.495259	0.177291
H126	H	1.312290	0.222330	0.750189
H127	H	1.483635	-0.369975	-0.187550
H128	H	1.480348	-0.495242	-0.304557
C129	C	1.057745	0.380522	0.513322
C130	C	1.132796	0.333879	0.618873
H131	H	0.999716	0.416573	0.560809
H132	H	1.109953	0.409211	0.449907
H133	H	1.012648	0.347413	0.457684
H134	H	1.177900	0.366988	0.674504
H135	H	1.080581	0.305188	0.682314
C136	C	1.376789	-0.323373	-0.246104
C137	C	1.485941	-0.284335	-0.242860
H138	H	1.376068	-0.351274	-0.332720
H139	H	1.375824	-0.359666	-0.162473
H140	H	1.304449	-0.285649	-0.245343
H141	H	1.558282	-0.322059	-0.243610
H142	H	1.486918	-0.248038	-0.326513
C143	C	1.473921	-0.737177	-0.283849
C144	C	1.476071	-0.656257	-0.322090
H145	H	1.473171	-0.765092	-0.370446
H146	H	1.546757	-0.756276	-0.226893
H147	H	1.400363	-0.745041	-0.228294
H148	H	1.549634	-0.648392	-0.377637
H149	H	1.403227	-0.637151	-0.379070
H150	H	0.715419	0.255663	-0.032226
H151	H	1.482898	-0.397907	0.158352
C152	C	1.199286	0.382676	0.202658
C153	C	1.132785	0.333887	0.296984
H154	H	1.141258	0.418734	0.146084
H155	H	1.251487	0.411358	0.258855
H156	H	1.250197	0.351024	0.139047
H157	H	1.081880	0.365539	0.360603
H158	H	1.080561	0.305203	0.240783
H159	H	1.190696	0.263592	-0.033275
H160	H	1.654278	0.009784	0.220622
