data_functionalizedCrystal
_audit_creation_method	'MofGen! by Chris Wilmer'
_symmetry_space_group_name_H-M	'P1'
_symmetry_Int_Tables_number	1
_symmetry_cell_setting	triclinic
loop_
_symmetry_equiv_pos_as_xyz
  x,y,z
_cell_length_a	13.032831
_cell_length_b	16.625546
_cell_length_c	13.034296
_cell_angle_alpha	82.786634
_cell_angle_beta	74.814550
_cell_angle_gamma	82.826778
loop_
_atom_site_label
_atom_site_type_symbol
_atom_site_fract_x
_atom_site_fract_y
_atom_site_fract_z
Zn1	Zn	1.700150	-0.408761	-0.806419
Zn2	Zn	1.677445	-0.558797	-0.628778
Zn3	Zn	1.499953	-0.408768	-0.606300
Zn4	Zn	1.522480	-0.528334	-0.783834
O5	O	1.600007	-0.476165	-0.706333
O6	O	1.845775	-0.441409	-0.801714
O7	O	1.634971	-0.551647	-0.477154
O8	O	1.526584	-0.295937	-0.632892
O9	O	1.829094	-0.551640	-0.671201
O10	O	1.673668	-0.295932	-0.779918
O11	O	1.504568	-0.441422	-0.460640
O12	O	1.354305	-0.411883	-0.610992
O13	O	1.564978	-0.499720	-0.935472
O14	O	1.370855	-0.499728	-0.741425
O15	O	1.695512	-0.411870	-0.952065
O16	O	1.656815	-0.667586	-0.649301
O17	O	1.542963	-0.645205	-0.763220
C18	C	1.324040	-0.452501	-0.671319
C19	C	1.205984	-0.442395	-0.656365
C20	C	1.161555	-0.481440	-0.714137
C21	C	1.039537	-0.470995	-0.698683
C22	C	1.599901	-0.685651	-0.706276
C23	C	1.599957	-0.775275	-0.706299
C24	C	1.600157	-1.103457	-0.706433
C25	C	1.600098	-1.012146	-0.706398
C26	C	1.600056	-0.939369	-0.706365
C27	C	1.599999	-0.848053	-0.706332
C28	C	1.877052	-0.499922	-0.741484
C29	C	1.995112	-0.510046	-0.756463
C30	C	1.635290	-0.452396	-0.983387
C31	C	1.650326	-0.442268	-1.101452
C32	C	1.600146	-0.265861	-0.706417
C33	C	1.600205	-0.176242	-0.706453
C34	C	1.592444	-0.481218	-1.145878
C35	C	1.607983	-0.470751	-1.267903
C36	C	1.564922	-0.499788	-0.430364
C37	C	1.550093	-0.509707	-0.312326
H38	H	0.987245	-0.429829	-0.637781
H39	H	1.153689	-0.401231	-0.595468
H40	H	1.047403	-0.551204	-0.817376
Br41	Br	1.448328	-0.578222	-1.225169
Br42	Br	1.248707	-0.550048	-0.815646
H43	H	1.531390	-0.522318	-1.093575
Br44	Br	1.709769	-0.402256	-1.355067
Br45	Br	1.752108	-0.373775	-1.188618
