data_functionalizedCrystal
_audit_creation_method	'MofGen! by Chris Wilmer'
_symmetry_space_group_name_H-M	'P1'
_symmetry_Int_Tables_number	1
_symmetry_cell_setting	triclinic
loop_
_symmetry_equiv_pos_as_xyz
  x,y,z
_cell_length_a	19.188930
_cell_length_b	19.188930
_cell_length_c	13.930277
_cell_angle_alpha	89.990320
_cell_angle_beta	89.978906
_cell_angle_gamma	83.144779
loop_
_atom_site_label
_atom_site_type_symbol
_atom_site_fract_x
_atom_site_fract_y
_atom_site_fract_z
O1	O	0.926148	0.087167	-0.080150
O2	O	1.259481	0.420500	0.253183
O3	O	1.592814	0.753834	0.586516
O4	O	0.722836	0.098901	-0.080086
O5	O	1.056170	0.432235	0.253248
O6	O	1.389503	0.765568	0.586581
O7	O	0.830359	-0.008621	-0.080101
O8	O	1.163692	0.324712	0.253232
O9	O	1.497026	0.658045	0.586566
O10	O	0.818625	0.194690	-0.080135
O11	O	1.151958	0.528023	0.253198
O12	O	1.485292	0.861357	0.586532
O13	O	0.830344	-0.008624	0.079561
O14	O	1.163678	0.324710	0.412894
O15	O	1.497011	0.658043	0.746227
O16	O	0.722821	0.098899	0.079576
O17	O	1.056155	0.432232	0.412909
O18	O	1.389488	0.765566	0.746243
O19	O	0.926133	0.087165	0.079512
O20	O	1.259466	0.420498	0.412845
O21	O	1.592799	0.753832	0.746178
Zn22	Zn	0.824475	0.093032	0.104894
Zn23	Zn	1.157808	0.426365	0.438227
Zn24	Zn	1.491141	0.759698	0.771560
Zn25	Zn	0.824494	0.093035	-0.105468
Zn26	Zn	1.157828	0.426368	0.227866
Zn27	Zn	1.491161	0.759701	0.561199
O28	O	0.818610	0.194688	0.079527
O29	O	1.151943	0.528021	0.412860
O30	O	1.485277	0.861354	0.746194
C31	C	0.696818	0.098520	-0.000246
C32	C	1.030151	0.431854	0.333087
C33	C	1.363485	0.765187	0.666420
C34	C	0.619313	0.097380	-0.000221
C35	C	0.952647	0.430713	0.333112
C36	C	1.285980	0.764046	0.666446
C37	C	0.574389	0.160470	-0.000247
C38	C	0.907723	0.493804	0.333087
C39	C	1.241056	0.827137	0.666420
C40	C	0.501566	0.159399	-0.000257
C41	C	0.834899	0.492732	0.333076
C42	C	1.168232	0.826065	0.666410
C43	C	0.473669	0.095233	-0.000261
C44	C	0.807002	0.428566	0.333072
C45	C	1.140336	0.761899	0.666406
C46	C	0.518603	0.032133	-0.000230
C47	C	0.851936	0.365467	0.333103
C48	C	1.185270	0.698800	0.666437
C49	C	0.591425	0.033207	-0.000210
C50	C	0.924758	0.366540	0.333123
C51	C	1.258092	0.699874	0.666457
N52	N	0.365694	0.046186	-0.054631
N53	N	0.699027	0.379520	0.278702
N54	N	1.032361	0.712853	0.612035
N55	N	0.296515	0.045171	-0.054652
N56	N	0.629849	0.378504	0.278681
N57	N	0.963182	0.711838	0.612014
C58	C	0.254260	0.091994	-0.000319
C59	C	0.587594	0.425328	0.333014
C60	C	0.920927	0.758661	0.666347
N61	N	0.283796	0.139882	0.054024
N62	N	0.617129	0.473216	0.387357
N63	N	0.950463	0.806549	0.720691
N64	N	0.352981	0.140900	0.054041
N65	N	0.686314	0.474233	0.387374
N66	N	1.019647	0.807567	0.720707
C67	C	0.394707	0.094062	-0.000282
C68	C	0.728040	0.427395	0.333051
C69	C	1.061373	0.760728	0.666385
C70	C	0.130372	0.153928	-0.000355
C71	C	0.463705	0.487261	0.332979
C72	C	0.797039	0.820594	0.666312
C73	C	0.057547	0.152853	-0.000359
C74	C	0.390881	0.486187	0.332974
C75	C	0.724214	0.819520	0.666308
C76	C	0.074586	0.025586	-0.000342
C77	C	0.407919	0.358920	0.332991
C78	C	0.741253	0.692253	0.666325
C79	C	0.147409	0.026662	-0.000328
C80	C	0.480743	0.359996	0.333006
C81	C	0.814076	0.693329	0.666339
C82	C	0.175298	0.090835	-0.000339
C83	C	0.508631	0.424168	0.332995
C84	C	0.841964	0.757502	0.666328
C85	C	0.829972	-0.034634	-0.000267
C86	C	1.163305	0.298700	0.333066
C87	C	1.496638	0.632033	0.666399
C88	C	0.828831	-0.112138	-0.000259
C89	C	1.162164	0.221195	0.333075
C90	C	1.495498	0.554529	0.666408
C91	C	0.891922	-0.157062	-0.000274
C92	C	1.225255	0.176271	0.333059
C93	C	1.558589	0.509605	0.666393
C94	C	0.890850	-0.229886	-0.000289
C95	C	1.224184	0.103448	0.333044
C96	C	1.557517	0.436781	0.666378
C97	C	0.826684	-0.257782	-0.000269
C98	C	1.160017	0.075551	0.333064
C99	C	1.493351	0.408884	0.666397
C100	C	0.763585	-0.212849	-0.000259
C101	C	1.096918	0.120485	0.333074
C102	C	1.430252	0.453818	0.666407
C103	C	0.764658	-0.140026	-0.000254
C104	C	1.097992	0.193307	0.333079
C105	C	1.431325	0.526640	0.666413
N106	N	0.777632	-0.365788	0.054082
N107	N	1.110965	-0.032455	0.387415
N108	N	1.444298	0.300879	0.720749
N109	N	0.776616	-0.434967	0.054079
N110	N	1.109950	-0.101633	0.387412
N111	N	1.443283	0.231700	0.720746
C112	C	0.823446	-0.477191	-0.000288
C113	C	1.156779	-0.143858	0.333045
C114	C	1.490113	0.189476	0.666379
N115	N	0.871340	-0.447625	-0.054639
N116	N	1.204673	-0.114291	0.278694
N117	N	1.538007	0.219042	0.612027
N118	N	0.872358	-0.378440	-0.054632
N119	N	1.205691	-0.045107	0.278701
N120	N	1.539024	0.288227	0.612035
C121	C	0.825513	-0.336745	-0.000276
C122	C	1.158846	-0.003412	0.333057
C123	C	1.492180	0.329922	0.666391
C124	C	0.885379	-0.601079	-0.000321
C125	C	1.218712	-0.267746	0.333012
C126	C	1.552046	0.065587	0.666346
C127	C	0.884305	-0.673904	-0.000342
C128	C	1.217638	-0.340571	0.332991
C129	C	1.550971	-0.007238	0.666325
C130	C	0.757038	-0.656865	-0.000303
C131	C	1.090371	-0.323532	0.333031
C132	C	1.423704	0.009801	0.666364
C133	C	0.758114	-0.584042	-0.000291
C134	C	1.091447	-0.250709	0.333042
C135	C	1.424781	0.082624	0.666375
C136	C	0.822286	-0.556154	-0.000296
C137	C	1.155620	-0.222821	0.333037
C138	C	1.488953	0.110513	0.666371
C139	C	0.952151	0.087546	-0.000330
C140	C	1.285485	0.420879	0.333003
C141	C	1.618818	0.754213	0.666337
C142	C	1.029656	0.088687	-0.000362
C143	C	1.362989	0.422020	0.332972
C144	C	1.696322	0.755353	0.666305
C145	C	0.818997	0.220700	-0.000309
C146	C	1.152331	0.554033	0.333024
C147	C	1.485664	0.887366	0.666358
C148	C	0.820138	0.298204	-0.000324
C149	C	1.153471	0.631538	0.333009
C150	C	1.486805	0.964871	0.666343
N151	N	0.824467	0.093029	0.248460
N152	N	1.157800	0.426362	0.581793
N153	N	1.491133	0.759696	0.915126
N154	N	0.824508	0.093031	-0.249034
N155	N	1.157842	0.426365	0.084300
N156	N	1.491175	0.759698	0.417633
C157	C	0.776882	0.140627	0.700736
C158	C	1.110215	0.473960	1.034069
C159	C	1.443548	0.807294	1.367402
C160	C	0.872126	0.045437	0.700692
C161	C	1.205460	0.378770	1.034025
C162	C	1.538793	0.712103	1.367358
C163	C	0.872118	0.045434	0.600196
C164	C	1.205452	0.378768	0.933529
C165	C	1.538785	0.712101	1.266863
C166	C	0.824492	0.093030	0.549965
C167	C	1.157825	0.426363	0.883299
C168	C	1.491158	0.759697	1.216632
C169	C	0.776873	0.140628	0.600231
C170	C	1.110206	0.473961	0.933564
C171	C	1.443540	0.807294	1.266897
C172	C	0.919740	-0.002158	0.549923
C173	C	1.253074	0.331176	0.883256
C174	C	1.586407	0.664509	1.216590
C175	C	0.919735	-0.002161	0.449421
C176	C	1.253068	0.331172	0.782755
C177	C	1.586401	0.664505	1.116088
C178	C	0.872104	0.045432	0.399189
C179	C	1.205437	0.378765	0.732522
C180	C	1.538771	0.712098	1.065856
C181	C	0.824483	0.093031	0.449460
C182	C	1.157816	0.426364	0.782794
C183	C	1.491150	0.759697	1.116127
C184	C	0.776856	0.140626	0.399230
C185	C	1.110190	0.473960	0.732563
C186	C	1.443523	0.807293	1.065897
C187	C	0.729232	0.188223	0.449500
C188	C	1.062565	0.521556	0.782833
C189	C	1.395898	0.854889	1.116166
C190	C	0.729243	0.188221	0.549999
C191	C	1.062576	0.521554	0.883332
C192	C	1.395909	0.854887	1.216665
C193	C	0.872093	0.045434	0.298690
C194	C	1.205427	0.378767	0.632023
C195	C	1.538760	0.712100	0.965357
C196	C	0.776848	0.140627	0.298725
C197	C	1.110181	0.473960	0.632058
C198	C	1.443515	0.807294	0.965392
H199	H	0.020970	0.204232	-0.000374
H200	H	0.354303	0.537565	0.332959
H201	H	0.687637	0.870898	0.666292
N202	N	0.677884	0.239551	0.604225
N203	N	1.011218	0.572885	0.937558
N204	N	1.344551	0.906218	1.270892
H205	H	0.704476	0.270398	0.645893
H206	H	1.037809	0.603731	0.979227
H207	H	1.371143	0.937065	1.312560
H208	H	0.647720	0.269657	0.557102
H209	H	0.981053	0.602990	0.890435
H210	H	1.314386	0.936324	1.223768
H211	H	0.153080	0.206181	-0.000349
H212	H	0.486413	0.539514	0.332984
H213	H	0.819746	0.872847	0.666317
H214	H	0.910872	0.006684	0.257765
H215	H	1.244205	0.340018	0.591098
H216	H	1.577538	0.673351	0.924432
N217	N	0.044509	-0.043623	-0.000335
N218	N	0.377842	0.289710	0.332998
N219	N	0.711175	0.623043	0.666331
H220	H	-0.008441	-0.034731	-0.000349
H221	H	0.324892	0.298602	0.332985
H222	H	0.658225	0.631936	0.666318
H223	H	0.060980	-0.071223	-0.059516
H224	H	0.394313	0.262110	0.273818
H225	H	0.727647	0.595443	0.607151
N226	N	0.604467	0.229683	-0.000236
N227	N	0.937800	0.563017	0.333097
N228	N	1.271133	0.896350	0.666431
H229	H	0.657417	0.220792	-0.000217
H230	H	0.990750	0.554126	0.333116
H231	H	1.324083	0.887459	0.666449
H232	H	0.588044	0.257285	-0.059431
H233	H	0.921377	0.590618	0.273902
H234	H	1.254710	0.923952	0.607235
N235	N	0.639887	-0.034842	-0.000194
N236	N	0.973221	0.298492	0.333139
N237	N	1.306554	0.631825	0.666472
H238	H	0.670459	-0.037232	0.058999
H239	H	1.003792	0.296102	0.392332
H240	H	1.337125	0.629435	0.725666
H241	H	0.611122	-0.075618	-0.000232
H242	H	0.944455	0.257716	0.333101
H243	H	1.277788	0.591049	0.666434
N244	N	0.961130	-0.126976	-0.000303
N245	N	1.294464	0.206357	0.333031
N246	N	1.627797	0.539690	0.666364
H247	H	0.964409	-0.097148	0.058882
H248	H	1.297742	0.236185	0.392215
H249	H	1.631076	0.569518	0.725549
H250	H	1.000899	-0.166525	-0.000356
H251	H	1.334232	0.166808	0.332978
H252	H	1.667565	0.500142	0.666311
N253	N	0.954591	-0.570995	-0.000327
N254	N	1.287924	-0.237662	0.333006
N255	N	1.621257	0.095671	0.666339
H256	H	0.945698	-0.518045	-0.000309
H257	H	1.279031	-0.184712	0.333024
H258	H	1.612365	0.148621	0.666358
H259	H	0.982177	-0.587460	0.058855
H260	H	1.315510	-0.254127	0.392188
H261	H	1.648843	0.079207	0.725522
N262	N	0.694378	-0.242935	-0.000225
N263	N	1.027711	0.090399	0.333109
N264	N	1.361044	0.423732	0.666442
H265	H	0.654571	-0.203422	-0.000212
H266	H	0.987904	0.129912	0.333121
H267	H	1.321237	0.463245	0.666454
H268	H	0.691164	-0.272772	-0.059411
H269	H	1.024497	0.060561	0.273922
H270	H	1.357831	0.393895	0.607256
N271	N	0.952356	-0.722362	-0.000363
N272	N	1.285689	-0.389029	0.332971
N273	N	1.619023	-0.055696	0.666304
H274	H	0.993169	-0.693642	-0.000361
H275	H	1.326502	-0.360308	0.332972
H276	H	1.659835	-0.026975	0.666305
H277	H	0.954671	-0.752958	0.058822
H278	H	1.288004	-0.419624	0.392155
H279	H	1.621337	-0.086291	0.725489
N280	N	0.958905	-0.278344	-0.000293
N281	N	1.292238	0.054989	0.333040
N282	N	1.625572	0.388322	0.666374
H283	H	0.961282	-0.308943	0.058894
H284	H	1.294615	0.024390	0.392227
H285	H	1.627948	0.357723	0.725561
H286	H	0.961270	-0.308888	-0.059518
H287	H	1.294603	0.024446	0.273815
H288	H	1.627937	0.357779	0.607148
N289	N	0.725513	0.191957	0.754946
N290	N	1.058846	0.525291	1.088279
N291	N	1.392179	0.858624	1.421613
H292	H	0.732740	0.184736	0.826235
H293	H	1.066073	0.518069	1.159568
H294	H	1.399406	0.851403	1.492901
H295	H	0.733421	0.241470	0.737364
H296	H	1.066754	0.574804	1.070698
H297	H	1.400088	0.908137	1.404031
H298	H	0.464982	0.210776	-0.000275
H299	H	0.798315	0.544110	0.333058
H300	H	1.131648	0.877443	0.666392
N301	N	0.488520	-0.037075	-0.000223
N302	N	0.821853	0.296258	0.333110
N303	N	1.155186	0.629591	0.666444
H304	H	0.435570	-0.028182	-0.000241
H305	H	0.768903	0.305151	0.333093
H306	H	1.102236	0.638484	0.666426
H307	H	0.504993	-0.064678	-0.059400
H308	H	0.838326	0.268655	0.273933
H309	H	1.171660	0.601989	0.607266
H310	H	0.183988	-0.024713	-0.000312
H311	H	0.517321	0.308620	0.333021
H312	H	0.850654	0.641954	0.666354
N313	N	0.696611	-0.091562	-0.000231
N314	N	1.029945	0.241771	0.333103
N315	N	1.363278	0.575105	0.666436
H316	H	0.668610	-0.100497	-0.059410
H317	H	1.001943	0.232836	0.273923
H318	H	1.335276	0.566170	0.607256
H319	H	0.668655	-0.100543	0.059002
H320	H	1.001988	0.232791	0.392336
H321	H	1.335322	0.566124	0.725669
N322	N	0.923498	-0.005891	0.754863
N323	N	1.256832	0.327443	1.088196
N324	N	1.590165	0.660776	1.421529
H325	H	0.916280	0.001333	0.826156
H326	H	1.249613	0.334666	1.159490
H327	H	1.582946	0.668000	1.492823
H328	H	0.915586	-0.055404	0.737318
H329	H	1.248919	0.277930	1.070652
H330	H	1.582253	0.611263	1.403985
H331	H	0.704792	-0.679578	-0.000291
H332	H	1.038126	-0.346245	0.333042
H333	H	1.371459	-0.012911	0.666375
H334	H	0.706738	-0.547464	-0.000273
H335	H	1.040072	-0.214131	0.333060
H336	H	1.373405	0.119203	0.666393
H337	H	0.958520	-0.040905	0.590824
H338	H	1.291853	0.292428	0.924157
H339	H	1.625187	0.625761	1.257491
H340	H	0.738062	0.179383	0.257833
H341	H	1.071395	0.512716	0.591167
H342	H	1.404729	0.846049	0.924500
N343	N	0.677868	0.239561	0.395319
N344	N	1.011201	0.572894	0.728653
N345	N	1.344534	0.906227	1.061986
H346	H	0.685095	0.232337	0.324027
H347	H	1.018428	0.565671	0.657360
H348	H	1.351761	0.899004	0.990693
H349	H	0.628364	0.231616	0.412911
H350	H	0.961698	0.564949	0.746244
H351	H	1.295031	0.898282	1.079578
N352	N	0.971097	-0.053495	0.395205
N353	N	1.304430	0.279839	0.728539
N354	N	1.637763	0.613172	1.061872
H355	H	1.001269	-0.083645	0.442277
H356	H	1.334602	0.249688	0.775610
H357	H	1.667935	0.583022	1.108944
H358	H	0.944459	-0.084297	0.353536
H359	H	1.277792	0.249036	0.686870
H360	H	1.611126	0.582370	1.020203
