data_functionalizedCrystal
_audit_creation_method	'MofGen! by Chris Wilmer'
_symmetry_space_group_name_H-M	'P1'
_symmetry_Int_Tables_number	1
_symmetry_cell_setting	triclinic
loop_
_symmetry_equiv_pos_as_xyz
  x,y,z
_cell_length_a	16.120530
_cell_length_b	19.121063
_cell_length_c	16.120297
_cell_angle_alpha	95.179432
_cell_angle_beta	90.128140
_cell_angle_gamma	89.687057
loop_
_atom_site_label
_atom_site_type_symbol
_atom_site_fract_x
_atom_site_fract_y
_atom_site_fract_z
Zn1	Zn	1.228532	-0.355748	-0.551587
Zn2	Zn	1.561866	-0.022415	-0.218253
Zn3	Zn	1.895199	0.310918	0.115080
Zn4	Zn	1.229542	-0.467532	-0.417878
Zn5	Zn	1.562875	-0.134198	-0.084544
Zn6	Zn	1.896208	0.199135	0.248789
Zn7	Zn	1.097153	-0.343883	-0.404937
Zn8	Zn	1.430487	-0.010549	-0.071604
Zn9	Zn	1.763820	0.322784	0.261730
Zn10	Zn	1.083532	-0.466885	-0.549816
Zn11	Zn	1.416866	-0.133552	-0.216483
Zn12	Zn	1.750199	0.199782	0.116851
O13	O	1.159690	-0.408512	-0.481054
O14	O	1.493023	-0.075179	-0.147721
O15	O	1.826357	0.258155	0.185612
O16	O	1.344754	-0.375813	-0.540007
O17	O	1.678087	-0.042480	-0.206673
O18	O	2.011421	0.290854	0.126660
O19	O	1.218103	-0.446434	-0.299571
O20	O	1.551436	-0.113101	0.033762
O21	O	1.884770	0.220232	0.367096
O22	O	1.119859	-0.247198	-0.419716
O23	O	1.453192	0.086135	-0.086382
O24	O	1.786525	0.419469	0.246951
O25	O	1.345496	-0.457940	-0.441771
O26	O	1.678829	-0.124607	-0.108438
O27	O	2.012162	0.208727	0.224895
O28	O	1.216382	-0.255916	-0.527458
O29	O	1.549716	0.077418	-0.194125
O30	O	1.883049	0.410751	0.139208
O31	O	1.120838	-0.355590	-0.290063
O32	O	1.454171	-0.022256	0.043270
O33	O	1.787504	0.311077	0.376603
O34	O	0.979258	-0.354963	-0.417999
O35	O	1.312592	-0.021629	-0.084665
O36	O	1.645925	0.311704	0.248668
O37	O	1.096644	-0.456838	-0.666641
O38	O	1.429978	-0.123504	-0.333308
O39	O	1.763311	0.209829	0.000026
O40	O	0.969251	-0.445332	-0.524441
O41	O	1.302585	-0.111999	-0.191107
O42	O	1.635918	0.221335	0.142226
O43	O	1.203175	-0.375186	-0.667942
O44	O	1.536508	-0.041853	-0.334609
O45	O	1.869842	0.291481	-0.001275
O46	O	1.204895	-0.565705	-0.440054
O47	O	1.538229	-0.232371	-0.106721
O48	O	1.871562	0.100962	0.226612
O49	O	1.097623	-0.565230	-0.536989
O50	O	1.430956	-0.231896	-0.203656
O51	O	1.764290	0.101437	0.129678
C52	C	0.944155	-0.398790	-0.469624
C53	C	1.277488	-0.065457	-0.136290
C54	C	1.610821	0.267877	0.197043
C55	C	0.851946	-0.394649	-0.464754
C56	C	1.185279	-0.061316	-0.131421
C57	C	1.518612	0.272018	0.201912
C58	C	1.149912	-0.590946	-0.489753
C59	C	1.483246	-0.257613	-0.156420
C60	C	1.816579	0.075720	0.176914
C61	C	1.145804	-0.668997	-0.493506
C62	C	1.479137	-0.335664	-0.160173
C63	C	1.812470	-0.002330	0.173160
C64	C	0.683119	-0.387072	-0.455870
C65	C	1.016452	-0.053738	-0.122537
C66	C	1.349785	0.279595	0.210796
C67	C	0.637096	-0.430006	-0.506302
C68	C	0.970429	-0.096673	-0.172968
C69	C	1.303762	0.236660	0.160365
C70	C	0.543155	-0.425790	-0.501358
C71	C	0.876488	-0.092457	-0.168025
C72	C	1.209821	0.240876	0.165308
C73	C	0.777068	-0.391287	-0.460812
C74	C	1.110402	-0.057953	-0.127479
C75	C	1.443735	0.275380	0.205854
C76	C	1.199763	-0.705893	-0.444847
C77	C	1.533097	-0.372560	-0.111514
C78	C	1.866430	-0.039226	0.221819
C79	C	1.195904	-0.779230	-0.448382
C80	C	1.529237	-0.445897	-0.115049
C81	C	1.862571	-0.112564	0.218284
C82	C	1.138080	-0.815670	-0.500573
C83	C	1.471414	-0.482336	-0.167239
C84	C	1.804747	-0.149003	0.166094
C85	C	1.084118	-0.778769	-0.549237
C86	C	1.417452	-0.445435	-0.215904
C87	C	1.750785	-0.112102	0.117430
C88	C	1.087982	-0.705433	-0.545706
C89	C	1.421316	-0.372100	-0.212373
C90	C	1.754649	-0.038766	0.120961
C91	C	1.123621	-1.037085	-0.513761
C92	C	1.456955	-0.703752	-0.180428
C93	C	1.790288	-0.370418	0.152905
C94	C	1.119760	-1.110426	-0.517287
C95	C	1.453093	-0.777092	-0.183954
C96	C	1.786426	-0.443759	0.149380
C97	C	1.231547	-1.110882	-0.416433
C98	C	1.564880	-0.777549	-0.083100
C99	C	1.898214	-0.444215	0.250234
C100	C	1.235403	-1.037545	-0.412903
C101	C	1.568736	-0.704211	-0.079569
C102	C	1.902069	-0.370878	0.253764
C103	C	1.181443	-1.000650	-0.461570
C104	C	1.514777	-0.667317	-0.128237
C105	C	1.848110	-0.333984	0.205096
C106	C	1.134132	-0.890632	-0.504185
C107	C	1.467466	-0.557299	-0.170852
C108	C	1.800799	-0.223966	0.162481
C109	C	1.185396	-0.925690	-0.457962
C110	C	1.518729	-0.592356	-0.124628
C111	C	1.852063	-0.259023	0.208705
C112	C	1.376067	-0.418272	-0.492530
C113	C	1.709400	-0.084939	-0.159197
C114	C	2.042734	0.248394	0.174137
C115	C	1.468274	-0.422431	-0.497420
C116	C	1.801607	-0.089098	-0.164087
C117	C	2.134940	0.244235	0.169246
C118	C	1.148278	-0.417263	-0.698367
C119	C	1.481611	-0.083930	-0.365034
C120	C	1.814944	0.249403	-0.031701
C121	C	1.143414	-0.420993	-0.790973
C122	C	1.476748	-0.087659	-0.457640
C123	C	1.810081	0.245674	-0.124306
C124	C	1.169527	-0.225367	-0.472341
C125	C	1.502861	0.107966	-0.139008
C126	C	1.836194	0.441300	0.194326
C127	C	1.173720	-0.147322	-0.468628
C128	C	1.507053	0.186012	-0.135295
C129	C	1.840386	0.519345	0.198039
C130	C	1.134506	-0.427785	-0.960523
C131	C	1.467839	-0.094451	-0.627189
C132	C	1.801172	0.238882	-0.293856
C133	C	1.185049	-0.389036	-1.002436
C134	C	1.518382	-0.055703	-0.669103
C135	C	1.851715	0.277630	-0.335770
C136	C	1.180092	-0.392815	-1.096780
C137	C	1.513425	-0.059482	-0.763446
C138	C	1.846759	0.273851	-0.430113
C139	C	1.139461	-0.424006	-0.866171
C140	C	1.472795	-0.090673	-0.532838
C141	C	1.806128	0.242660	-0.199504
C142	C	1.171108	-0.399746	-0.264587
C143	C	1.504442	-0.066413	0.068746
C144	C	1.837775	0.266921	0.402080
C145	C	1.176143	-0.395826	-0.171981
C146	C	1.509476	-0.062493	0.161353
C147	C	1.842809	0.270841	0.494686
H148	H	0.651970	-0.347152	-0.408986
H149	H	0.985304	-0.013818	-0.075653
H150	H	1.318637	0.319515	0.257681
H151	H	1.044044	-0.675393	-0.585330
H152	H	1.377377	-0.342060	-0.251997
H153	H	1.710710	-0.008726	0.081336
N154	N	1.072271	-0.475493	-1.006840
N155	N	1.405604	-0.142160	-0.673507
N156	N	1.738938	0.191173	-0.340173
H157	H	1.039229	-0.500832	-0.965726
H158	H	1.372563	-0.167498	-0.632393
H159	H	1.705896	0.165835	-0.299059
H160	H	1.033555	-0.446601	-1.039544
H161	H	1.366888	-0.113268	-0.706211
H162	H	1.700221	0.220066	-0.372877
N163	N	1.247310	-0.341345	-0.956121
N164	N	1.580643	-0.008011	-0.622788
N165	N	1.913976	0.325322	-0.289454
H166	H	1.280354	-0.316013	-0.997240
H167	H	1.613687	0.017320	-0.663906
H168	H	1.947021	0.350653	-0.330573
H169	H	1.217155	-0.305906	-0.916663
H170	H	1.550489	0.027427	-0.583330
H171	H	1.883822	0.360761	-0.249997
H172	H	0.668246	-0.469929	-0.553190
H173	H	1.001579	-0.136596	-0.219857
H174	H	1.334913	0.196738	0.113476
H175	H	1.079684	-1.007051	-0.553387
H176	H	1.413018	-0.673718	-0.220054
H177	H	1.746351	-0.340384	0.113280
N178	N	1.021753	-0.818068	-0.605532
N179	N	1.355086	-0.484734	-0.272199
N180	N	1.688420	-0.151401	0.061135
H181	H	1.027489	-0.870124	-0.600384
H182	H	1.360823	-0.536791	-0.267051
H183	H	1.694156	-0.203458	0.066283
H184	H	0.963874	-0.802100	-0.588759
H185	H	1.297207	-0.468766	-0.255425
H186	H	1.630540	-0.135433	0.077908
H187	H	1.246846	-0.676228	-0.402345
H188	H	1.580179	-0.342895	-0.069011
H189	H	1.913513	-0.009562	0.264322
H190	H	1.239843	-0.809268	-0.408758
H191	H	1.573177	-0.475934	-0.075425
H192	H	1.906510	-0.142601	0.257908
N193	N	1.297782	-0.998247	-0.356624
N194	N	1.631115	-0.664914	-0.023290
N195	N	1.964449	-0.331580	0.310043
H196	H	1.287409	-1.008064	-0.297017
H197	H	1.620742	-0.674730	0.036316
H198	H	1.954076	-0.341397	0.369649
H199	H	1.355660	-1.014180	-0.373449
H200	H	1.688993	-0.680847	-0.040116
H201	H	2.022327	-0.347514	0.293218
N202	N	1.289740	-1.150674	-0.363940
N203	N	1.623073	-0.817341	-0.030607
N204	N	1.956406	-0.484007	0.302727
H205	H	1.278519	-1.202661	-0.374093
H206	H	1.611853	-0.869328	-0.040759
H207	H	1.945186	-0.535995	0.292574
H208	H	1.348972	-1.141003	-0.379475
H209	H	1.682305	-0.807670	-0.046141
H210	H	2.015639	-0.474337	0.287192
N211	N	1.247763	-0.886387	-0.401678
N212	N	1.581097	-0.553054	-0.068345
N213	N	1.914430	-0.219721	0.264989
H214	H	1.217706	-0.852924	-0.359796
H215	H	1.551040	-0.519590	-0.026463
H216	H	1.884373	-0.186257	0.306870
H217	H	1.281348	-0.920930	-0.371440
H218	H	1.614681	-0.587597	-0.038107
H219	H	1.948014	-0.254263	0.295227
N220	N	1.057390	-1.149731	-0.573580
N221	N	1.390723	-0.816398	-0.240246
N222	N	1.724056	-0.483064	0.093087
H223	H	1.023794	-1.115231	-0.603877
H224	H	1.357127	-0.781898	-0.270543
H225	H	1.690460	-0.448564	0.062790
H226	H	1.087503	-1.183197	-0.615410
H227	H	1.420837	-0.849864	-0.282077
H228	H	1.754170	-0.516530	0.051256
N229	N	1.071759	-0.929932	-0.560470
N230	N	1.405093	-0.596599	-0.227136
N231	N	1.738426	-0.263266	0.106197
H232	H	1.101810	-0.963396	-0.602356
H233	H	1.435144	-0.630062	-0.269023
H234	H	1.768477	-0.296729	0.064310
H235	H	1.033540	-0.957261	-0.525942
H236	H	1.366873	-0.623928	-0.192609
H237	H	1.700207	-0.290594	0.140724
