data_functionalizedCrystal
_audit_creation_method	'MofGen! by Chris Wilmer'
_symmetry_space_group_name_H-M	'P1'
_symmetry_Int_Tables_number	1
_symmetry_cell_setting	triclinic
loop_
_symmetry_equiv_pos_as_xyz
  x,y,z
_cell_length_a	16.625546
_cell_length_b	12.759401
_cell_length_c	12.759393
_cell_angle_alpha	89.979062
_cell_angle_beta	90.035119
_cell_angle_gamma	89.976007
loop_
_atom_site_label
_atom_site_type_symbol
_atom_site_fract_x
_atom_site_fract_y
_atom_site_fract_z
Zn1	Zn	-0.320930	-1.606210	0.593986
Zn2	Zn	-0.455784	-1.606077	0.418292
Zn3	Zn	-0.320973	-1.430508	0.418322
Zn4	Zn	-0.455728	-1.430476	0.593930
O5	O	-0.388354	-1.518318	0.506132
O6	O	-0.338824	-1.753213	0.570692
O7	O	-0.437943	-1.582745	0.271275
O8	O	-0.208135	-1.453884	0.441660
O9	O	-0.437901	-1.753116	0.441610
O10	O	-0.208103	-1.582971	0.570720
O11	O	-0.338897	-1.453756	0.271297
O12	O	-0.338843	-1.283483	0.441605
O13	O	-0.437805	-1.453830	0.740958
O14	O	-0.437847	-1.283460	0.570623
O15	O	-0.338770	-1.582940	0.741000
O16	O	-0.568609	-1.582714	0.441555
O17	O	-0.568568	-1.453701	0.570595
C18	C	-0.388344	-1.245350	0.506112
C19	C	-0.388359	-1.128574	0.506128
C20	C	-0.597844	-1.518218	0.506088
C21	C	-0.687466	-1.518272	0.506105
C22	C	-0.388276	-1.518396	0.780166
C23	C	-0.388243	-1.518430	0.896943
C24	C	-1.015641	-1.518455	0.506214
C25	C	-0.924333	-1.518401	0.506187
C26	C	-0.851556	-1.518363	0.506159
C27	C	-0.760242	-1.518310	0.506132
C28	C	-0.178045	-1.518446	0.506200
C29	C	-0.088424	-1.518501	0.506228
C30	C	-0.388364	-1.792351	0.506154
C31	C	-0.388369	-1.909128	0.506163
C32	C	-0.439989	-1.073727	0.573202
C33	C	-0.439992	-0.964003	0.573223
C34	C	-0.336733	-0.963982	0.439086
C35	C	-0.336726	-1.073704	0.439071
C36	C	-0.468924	-0.814102	0.697080
C37	C	-0.520566	-0.759252	0.764145
C38	C	-0.599254	-0.794835	0.780084
C39	C	-0.626316	-0.885268	0.728944
C40	C	-0.574678	-0.940113	0.661871
C41	C	-0.495979	-0.904530	0.645952
C42	C	-0.307803	-1.223607	0.315212
C43	C	-0.256168	-1.278454	0.248134
C44	C	-0.177479	-1.242872	0.232183
C45	C	-0.150420	-1.152436	0.283306
C46	C	-0.202055	-1.097590	0.350384
C47	C	-0.280743	-1.133179	0.366336
C48	C	-0.388372	-1.518300	0.233165
C49	C	-0.388178	-1.518470	0.116389
C50	C	-0.336667	-1.585663	0.951828
C51	C	-0.336632	-1.585681	1.061552
C52	C	-0.439757	-1.451230	1.061496
C53	C	-0.439787	-1.451208	0.951774
C54	C	-0.241501	-1.623309	1.211540
C55	C	-0.189932	-1.690559	1.266429
C56	C	-0.177568	-1.793074	1.230839
C57	C	-0.216784	-1.828360	1.140362
C58	C	-0.268359	-1.761117	1.085478
C59	C	-0.280708	-1.658587	1.121067
C60	C	-0.534919	-1.413589	0.801784
C61	C	-0.586499	-1.346350	0.746898
C62	C	-0.598871	-1.243834	0.782486
C63	C	-0.559669	-1.208551	0.872967
C64	C	-0.508089	-1.275790	0.927853
C65	C	-0.495716	-1.378306	0.892257
H66	H	-0.596711	-1.013740	0.620233
H67	H	-0.251557	-1.539831	1.240521
N68	N	-0.149818	-1.654427	1.358769
N69	N	-0.074690	-1.653477	1.362462
H70	H	-0.046345	-1.627933	1.427656
N71	N	-0.283988	-0.907931	0.370602
N72	N	-0.232646	-0.846747	0.407698
H73	H	-0.195394	-0.807162	0.359329
N74	N	-0.492405	-1.382555	1.117490
N75	N	-0.538442	-1.322518	1.068469
H76	H	-0.575623	-1.274009	1.108012
N77	N	-0.468052	-1.239737	1.020279
N78	N	-0.479106	-1.148202	1.052051
H79	H	-0.450831	-1.122739	1.117327
H80	H	-0.618427	-1.375091	0.673231
N81	N	-0.070034	-1.116104	0.267016
N82	N	-0.011744	-1.173592	0.290047
H83	H	0.045030	-1.147935	0.278537
H84	H	-0.569746	-1.125075	0.901947
H85	H	-0.180014	-1.023957	0.392018
N86	N	-0.388541	-0.777766	0.680788
N87	N	-0.342440	-0.826744	0.620906
H88	H	-0.285668	-0.801079	0.609396
H89	H	-0.498525	-0.685622	0.805785
N90	N	-0.652011	-0.738799	0.848574
N91	N	-0.669128	-0.645249	0.829823
H92	H	-0.706385	-0.605669	0.878196
N93	N	-0.308401	-1.797159	0.993057
N94	N	-0.268272	-1.827728	0.916094
H95	H	-0.296547	-1.853185	0.850815
H96	H	-0.135441	-1.287534	0.177553
N97	N	-0.283823	-1.370823	0.195907
N98	N	-0.354083	-1.402589	0.210158
H99	H	-0.373615	-1.467824	0.173274
N100	N	-0.706705	-0.921588	0.745221
N101	N	-0.752802	-0.872608	0.805106
H102	H	-0.809579	-0.898260	0.816604
N103	N	-0.388184	-1.259967	0.331492
N104	N	-0.412337	-1.340703	0.285826
H105	H	-0.469108	-1.366382	0.297315
N106	N	-0.284013	-1.654331	0.895835
N107	N	-0.237966	-1.714354	0.944858
H108	H	-0.200776	-1.762852	0.905317
H109	H	-0.206719	-1.911842	1.111397
N110	N	-0.124894	-1.861757	1.286921
N111	N	-0.089892	-1.830245	1.367702
H112	H	-0.052689	-1.878747	1.407314
N113	N	-0.651569	-1.175166	0.726416
N114	N	-0.686577	-1.206677	0.645639
H115	H	-0.723793	-1.158181	0.606041
H116	H	-0.524843	-1.497065	0.772793
H117	H	-0.482029	-1.118399	0.627806
