data_functionalizedCrystal
_audit_creation_method	'MofGen! by Chris Wilmer'
_symmetry_space_group_name_H-M	'P1'
_symmetry_Int_Tables_number	1
_symmetry_cell_setting	triclinic
loop_
_symmetry_equiv_pos_as_xyz
  x,y,z
_cell_length_a	6.817900
_cell_length_b	9.541902
_cell_length_c	15.506392
_cell_angle_alpha	95.927132
_cell_angle_beta	87.607062
_cell_angle_gamma	69.436382
loop_
_atom_site_label
_atom_site_type_symbol
_atom_site_fract_x
_atom_site_fract_y
_atom_site_fract_z
V1	V	4.052483	-0.461604	-0.118664
O2	O	4.097553	-0.457976	0.006071
O3	O	3.947997	-0.453484	-0.235646
O4	O	4.040770	-0.665189	-0.116677
O5	O	4.004138	-0.244806	-0.113721
V6	V	4.538624	-0.436276	-0.103763
O7	O	4.307997	-0.517163	-0.151350
O8	O	4.733307	-0.380717	-0.071078
O9	O	4.419904	-0.444395	0.013218
O10	O	4.610951	-0.439903	-0.228499
O11	O	4.704366	-0.653073	-0.108706
O12	O	4.327131	-0.232691	-0.105751
C13	C	4.134733	-0.182901	-0.110020
C14	C	4.042638	-0.016501	-0.110866
C15	C	4.253073	-0.452953	0.041737
C16	C	4.236211	-0.458244	0.137369
C17	C	3.778183	-0.444929	-0.264170
C18	C	3.774213	-0.439552	-0.361601
V19	V	4.038340	-0.444455	-0.520074
O20	O	4.083852	-0.451700	-0.646991
O21	O	3.941392	-0.444506	-0.398240
O22	O	3.847917	-0.232755	-0.517181
O23	O	4.177974	-0.664917	-0.527226
V24	V	4.562825	-0.510339	-0.559324
O25	O	4.255101	-0.407853	-0.498764
O26	O	4.811708	-0.583696	-0.602699
O27	O	4.428908	-0.492065	-0.670218
O28	O	4.638738	-0.512678	-0.438161
O29	O	4.544616	-0.299461	-0.557925
O30	O	4.522383	-0.703816	-0.551276
C31	C	3.896507	-0.714970	-0.112411
C32	C	3.967843	-0.881370	-0.111560
C33	C	3.654974	-0.169439	-0.513320
C34	C	3.583045	-0.003014	-0.514147
C35	C	4.247882	-0.469544	-0.690355
C36	C	4.222528	-0.462548	-0.784969
C37	C	4.367122	-0.739654	-0.538631
C38	C	4.417582	-0.904383	-0.536780
