data_functionalizedCrystal
_audit_creation_method	'MofGen! by Chris Wilmer'
_symmetry_space_group_name_H-M	'P1'
_symmetry_Int_Tables_number	1
_symmetry_cell_setting	triclinic
loop_
_symmetry_equiv_pos_as_xyz
  x,y,z
_cell_length_a	14.044220
_cell_length_b	10.489741
_cell_length_c	13.101039
_cell_angle_alpha	93.396862
_cell_angle_beta	86.340132
_cell_angle_gamma	88.864026
loop_
_atom_site_label
_atom_site_type_symbol
_atom_site_fract_x
_atom_site_fract_y
_atom_site_fract_z
O1	O	1.264971	0.301301	-0.085104
O2	O	1.598304	0.634634	0.248229
O3	O	1.931638	0.967967	0.581562
O4	O	0.988928	0.290194	-0.085130
O5	O	1.322261	0.623527	0.248203
O6	O	1.655594	0.956860	0.581537
O7	O	1.133230	0.110787	-0.085110
O8	O	1.466564	0.444120	0.248223
O9	O	1.799897	0.777454	0.581556
O10	O	1.120668	0.480707	-0.085124
O11	O	1.454002	0.814041	0.248209
O12	O	1.787335	1.147374	0.581543
O13	O	1.122877	0.123682	0.085318
O14	O	1.456210	0.457016	0.418651
O15	O	1.789543	0.790349	0.751985
O16	O	0.978574	0.303089	0.085298
O17	O	1.311908	0.636422	0.418632
O18	O	1.645241	0.969756	0.751965
O19	O	1.254618	0.314196	0.085324
O20	O	1.587951	0.647529	0.418658
O21	O	1.921284	0.980863	0.751991
Zn22	Zn	1.114952	0.310690	0.112370
Zn23	Zn	1.448285	0.644023	0.445704
Zn24	Zn	1.781619	0.977357	0.779037
Zn25	Zn	1.128593	0.293700	-0.112176
Zn26	Zn	1.461926	0.627033	0.221157
Zn27	Zn	1.795260	0.960366	0.554490
O28	O	1.110315	0.493603	0.085305
O29	O	1.443648	0.826936	0.418638
O30	O	1.776982	1.160270	0.751971
C31	C	0.948404	0.291780	0.000081
C32	C	1.281737	0.625113	0.333414
C33	C	1.615070	0.958447	0.666747
C34	C	0.843079	0.277280	0.000071
C35	C	1.176413	0.610613	0.333404
C36	C	1.509746	0.943946	0.666738
C37	C	0.650236	0.250773	0.000092
C38	C	0.983569	0.584106	0.333426
C39	C	1.316902	0.917439	0.666759
C40	C	0.593304	0.353611	0.000093
C41	C	0.926638	0.686944	0.333426
C42	C	1.259971	1.020277	0.666760
C43	C	0.486000	0.338862	0.000105
C44	C	0.819333	0.672195	0.333438
C45	C	1.152666	1.005528	0.666771
C46	C	0.757551	0.265520	0.000080
C47	C	1.090884	0.598853	0.333414
C48	C	1.424217	0.932186	0.666747
C49	C	1.127105	0.069607	0.000103
C50	C	1.460438	0.402940	0.333436
C51	C	1.793771	0.736273	0.666770
C52	C	1.124266	-0.072311	0.000101
C53	C	1.457600	0.261022	0.333434
C54	C	1.790933	0.594356	0.666768
C55	C	1.032451	-0.149765	0.000085
C56	C	1.365784	0.183569	0.333418
C57	C	1.699117	0.516902	0.666752
C58	C	1.070719	-0.231130	0.084119
C59	C	1.404052	0.102204	0.417452
C60	C	1.737386	0.435537	0.750786
C61	C	1.080948	-0.243816	-0.083910
C62	C	1.414282	0.089517	0.249423
C63	C	1.747615	0.422851	0.582757
C64	C	1.162568	-0.151801	0.084204
C65	C	1.495901	0.181532	0.417538
C66	C	1.829235	0.514865	0.750871
C67	C	1.172789	-0.164485	-0.083900
C68	C	1.506122	0.168848	0.249433
C69	C	1.839456	0.502181	0.582767
C70	C	1.211123	-0.245814	0.000155
C71	C	1.544456	0.087519	0.333488
C72	C	1.877789	0.420852	0.666821
C73	C	1.295142	0.312609	0.000111
C74	C	1.628475	0.645943	0.333444
C75	C	1.961809	0.979276	0.666778
C76	C	1.400466	0.327109	0.000114
C77	C	1.733800	0.660443	0.333447
C78	C	2.067133	0.993776	0.666781
C79	C	1.116441	0.534783	0.000089
C80	C	1.449774	0.868116	0.333422
C81	C	1.783107	1.201450	0.666755
C82	C	1.119280	0.676700	0.000084
C83	C	1.452613	1.010033	0.333418
C84	C	1.785946	1.343367	0.666751
N85	N	1.105649	0.322285	0.265618
N86	N	1.438983	0.655619	0.598951
N87	N	1.772316	0.988952	0.932284
N88	N	1.137903	0.282095	-0.265424
N89	N	1.471237	0.615428	0.067910
N90	N	1.804570	0.948762	0.401243
C91	C	1.092993	0.338073	0.474659
C92	C	1.426326	0.671407	0.807992
C93	C	1.759659	1.004740	1.141325
C94	C	1.150557	0.266311	0.525542
C95	C	1.483890	0.599644	0.858875
C96	C	1.817224	0.932978	1.192209
C97	C	1.143515	0.275096	0.641860
C98	C	1.476848	0.608429	0.975193
C99	C	1.810181	0.941762	1.308526
C100	C	1.100034	0.329290	0.358331
C101	C	1.433367	0.662624	0.691664
C102	C	1.766701	0.995957	1.024997
H103	H	0.625153	0.452730	0.000084
H104	H	0.958486	0.786063	0.333418
H105	H	1.291819	1.119396	0.666751
Cl106	Cl	0.915894	-0.084919	0.000198
Cl107	Cl	1.249227	0.248414	0.333531
Cl108	Cl	1.582560	0.581748	0.666864
H109	H	0.618389	0.151662	0.000101
H110	H	0.951723	0.484995	0.333435
H111	H	1.285056	0.818328	0.666768
Cl112	Cl	1.008746	0.443114	0.542268
Cl113	Cl	1.342079	0.776447	0.875602
Cl114	Cl	1.675413	1.109780	1.208935
Cl115	Cl	1.004079	-0.276795	0.193796
Cl116	Cl	1.337412	0.056538	0.527130
Cl117	Cl	1.670745	0.389871	0.860463
H118	H	1.286678	-0.287571	0.000208
H119	H	1.620011	0.045763	0.333542
H120	H	1.953345	0.379096	0.666875
H121	H	1.197063	-0.111651	0.155329
H122	H	1.530396	0.221683	0.488662
H123	H	1.863730	0.555016	0.821995
H124	H	1.215921	-0.134879	-0.154942
H125	H	1.549255	0.198454	0.178392
H126	H	1.882588	0.531788	0.511725
H127	H	1.046404	-0.284097	-0.154961
H128	H	1.379737	0.049236	0.178372
H129	H	1.713070	0.382569	0.511705
H130	H	1.205129	0.198277	0.481747
H131	H	1.538462	0.531610	0.815081
H132	H	1.871795	0.864944	1.148414
