data_functionalizedCrystal
_audit_creation_method	'MofGen! by Chris Wilmer'
_symmetry_space_group_name_H-M	'P1'
_symmetry_Int_Tables_number	1
_symmetry_cell_setting	triclinic
loop_
_symmetry_equiv_pos_as_xyz
  x,y,z
_cell_length_a	10.686220
_cell_length_b	19.077068
_cell_length_c	19.077237
_cell_angle_alpha	85.344389
_cell_angle_beta	91.885836
_cell_angle_gamma	83.477335
loop_
_atom_site_label
_atom_site_type_symbol
_atom_site_fract_x
_atom_site_fract_y
_atom_site_fract_z
Zn1	Zn	1.937118	0.210204	-0.323597
Zn2	Zn	2.437118	0.710204	0.176403
Zn3	Zn	1.920675	0.324096	-0.211173
Zn4	Zn	2.420675	0.824096	0.288827
Zn5	Zn	1.717978	0.215274	-0.215484
Zn6	Zn	2.217978	0.715274	0.284516
Zn7	Zn	1.717883	0.337840	-0.338047
Zn8	Zn	2.217883	0.837840	0.161953
O9	O	1.823414	0.271853	-0.272075
O10	O	2.323414	0.771853	0.227925
O11	O	2.111516	0.217438	-0.300832
O12	O	2.611516	0.717438	0.199168
O13	O	1.886945	0.306030	-0.113402
O14	O	2.386945	0.806030	0.386598
O15	O	1.753969	0.115643	-0.225582
O16	O	2.253969	0.615643	0.274418
O17	O	2.099436	0.301114	-0.218235
O18	O	2.599436	0.801114	0.281765
O19	O	1.914970	0.111919	-0.305012
O20	O	2.414970	0.611919	0.194988
O21	O	1.738025	0.226079	-0.116570
O22	O	2.238025	0.726079	0.383430
O23	O	1.541386	0.239406	-0.239594
O24	O	2.041386	0.739406	0.260406
O25	O	1.753807	0.324539	-0.434473
O26	O	2.253807	0.824539	0.065527
O27	O	1.541316	0.329455	-0.329640
O28	O	2.041316	0.829455	0.170360
O29	O	1.914878	0.230765	-0.423856
O30	O	2.414878	0.730765	0.076144
O31	O	1.886853	0.424877	-0.232247
O32	O	2.386853	0.924877	0.267753
O33	O	1.737863	0.434975	-0.325460
O34	O	2.237863	0.934975	0.174540
C35	C	1.495566	0.286473	-0.286653
C36	C	1.995566	0.786473	0.213347
C37	C	1.355311	0.292744	-0.292907
C38	C	1.855311	0.792744	0.207093
C39	C	1.810599	0.455583	-0.279967
C40	C	2.310599	0.955583	0.220033
C41	C	1.805234	0.534180	-0.283362
C42	C	2.305234	1.034180	0.216638
C43	C	1.836166	0.278620	-0.455377
C44	C	2.336166	0.778620	0.044623
C45	C	1.841600	0.281503	-0.533489
C46	C	2.341600	0.781503	-0.033489
C47	C	2.152541	0.257178	-0.257441
C48	C	2.652541	0.757178	0.242559
C49	C	2.292796	0.250924	-0.251205
C50	C	2.792796	0.750924	0.248795
C51	C	1.836314	0.087405	-0.264166
C52	C	2.336314	0.587405	0.235834
C53	C	1.841811	0.008804	-0.260796
C54	C	2.341811	0.508804	0.239204
C55	C	1.880349	0.565822	-0.236460
C56	C	2.380349	1.065822	0.263540
C57	C	1.875311	0.639672	-0.239657
C58	C	2.375311	1.139672	0.260343
C59	C	1.795149	0.681878	-0.289753
C60	C	2.295149	1.181878	0.210247
C61	C	1.720031	0.650230	-0.336660
C62	C	2.220031	1.150230	0.163340
C63	C	1.725076	0.576382	-0.333466
C64	C	2.225076	1.076382	0.166534
C65	C	1.771739	0.903308	-0.304509
C66	C	2.271739	1.403308	0.195491
C67	C	1.766696	0.977161	-0.307698
C68	C	2.266696	1.477161	0.192302
C69	C	1.921978	0.966598	-0.210695
C70	C	2.421978	1.466598	0.289305
C71	C	1.927012	0.892748	-0.207503
C72	C	2.427012	1.392748	0.292497
C73	C	1.851898	0.861107	-0.254412
C74	C	2.351898	1.361107	0.245588
N75	N	1.789994	0.757364	-0.293020
N76	N	2.289994	1.257364	0.206980
N77	N	1.857060	0.785622	-0.251148
N78	N	2.357060	1.285622	0.248852
C79	C	1.880582	0.302235	-0.972998
C80	C	2.380582	0.802235	-0.472998
C81	C	1.875457	0.299522	-0.899604
C82	C	2.375457	0.799522	-0.399604
C83	C	1.795368	0.256536	-0.864563
C84	C	2.295368	0.756536	-0.364563
C85	C	1.720389	0.216265	-0.902921
C86	C	2.220389	0.716265	-0.402921
C87	C	1.725507	0.218983	-0.976314
C88	C	2.225507	0.718983	-0.476314
C89	C	1.771740	0.243950	-0.645240
C90	C	2.271740	0.743950	-0.145240
C91	C	1.766630	0.241234	-0.571841
C92	C	2.266630	0.741234	-0.071841
C93	C	1.921697	0.324492	-0.568529
C94	C	2.421697	0.824492	-0.068529
C95	C	1.926814	0.327202	-0.641923
C96	C	2.426814	0.827202	-0.141923
C97	C	1.851830	0.286934	-0.680275
C98	C	2.351830	0.786934	-0.180275
N99	N	1.790131	0.253760	-0.789543
N100	N	2.290131	0.753760	-0.289543
N101	N	1.857061	0.289714	-0.755295
N102	N	2.357061	0.789714	-0.255295
C103	C	1.810787	0.265059	-0.089482
C104	C	2.310787	0.765059	0.410518
C105	C	1.805611	0.261966	-0.011350
C106	C	2.305611	0.761966	0.488650
H107	H	1.301528	0.333354	-0.333394
H108	H	1.801528	0.833354	0.166606
O109	O	2.003005	1.000718	-0.160104
O110	O	2.503005	1.500718	0.339896
H111	H	2.103831	0.982508	-0.167187
H112	H	2.603831	1.482508	0.332813
H113	H	1.654767	0.684600	-0.377452
H114	H	2.154767	1.184600	0.122548
O115	O	1.966965	0.348605	-1.010783
O116	O	2.466965	0.848605	-0.510783
H117	H	2.035727	0.315335	-1.040004
H118	H	2.535727	0.815335	-0.540004
H119	H	1.945620	0.531463	-0.195664
H120	H	2.445620	1.031463	0.304336
H121	H	1.710681	0.211162	-0.676457
H122	H	2.210681	0.711162	-0.176457
H123	H	1.936477	0.665432	-0.201464
H124	H	2.436477	1.165432	0.298536
O125	O	2.002558	0.367923	-0.527159
O126	O	2.502558	0.867923	-0.027159
H127	H	2.103424	0.351898	-0.536314
H128	H	2.603424	0.851898	-0.036314
O129	O	1.364008	0.197136	-0.197569
O130	O	1.864008	0.697136	0.302431
H131	H	1.428749	0.159709	-0.224888
H132	H	1.928749	0.659709	0.275112
H133	H	1.992286	0.858385	-0.166711
H134	H	2.492286	1.358385	0.333289
H135	H	1.936491	0.332323	-0.868382
H136	H	2.436491	0.832323	-0.368382
O137	O	1.680242	1.022688	-0.361737
O138	O	2.180242	1.522688	0.138263
H139	H	1.628868	0.988280	-0.393825
H140	H	2.128868	1.488280	0.106175
O141	O	1.634004	0.169902	-0.865130
O142	O	2.134004	0.669902	-0.365130
H143	H	1.660512	0.113960	-0.875887
H144	H	2.160512	0.613960	-0.375887
O145	O	1.690687	0.869185	-0.355081
O146	O	2.190687	1.369185	0.144919
H147	H	1.634079	0.910942	-0.390439
H148	H	2.134079	1.410942	0.109561
H149	H	1.663911	0.550620	-0.371659
H150	H	2.163911	1.050620	0.128341
O151	O	1.680232	0.194876	-0.534043
O152	O	2.180232	0.694876	-0.034043
H153	H	1.628939	0.167337	-0.573042
H154	H	2.128939	0.667337	-0.073042
H155	H	1.664460	0.186190	-1.007540
H156	H	2.164460	0.686190	-0.507540
H157	H	1.992030	0.362206	-0.670449
H158	H	2.492030	0.862206	-0.170449
