data_functionalizedCrystal
_audit_creation_method	'MofGen! by Chris Wilmer'
_symmetry_space_group_name_H-M	'P1'
_symmetry_Int_Tables_number	1
_symmetry_cell_setting	triclinic
loop_
_symmetry_equiv_pos_as_xyz
  x,y,z
_cell_length_a	27.732048
_cell_length_b	10.723023
_cell_length_c	26.809956
_cell_angle_alpha	89.991236
_cell_angle_beta	89.999364
_cell_angle_gamma	83.555101
loop_
_atom_site_label
_atom_site_type_symbol
_atom_site_fract_x
_atom_site_fract_y
_atom_site_fract_z
O1	O	0.067782	1.654394	-0.041484
O2	O	0.074271	1.290973	-0.041486
O3	O	0.000700	1.483970	-0.041476
O4	O	0.141353	1.461396	-0.041495
O5	O	0.000711	1.483934	0.041484
O6	O	0.074282	1.290936	0.041473
O7	O	0.067793	1.654357	0.041475
Zn8	Zn	0.071039	1.472641	0.054646
Zn9	Zn	0.071024	1.472689	-0.054657
O10	O	0.141364	1.461360	0.041464
C11	C	0.073804	1.244474	-0.000007
C12	C	0.072392	1.105978	-0.000007
C13	C	0.071756	1.044252	-0.042982
C14	C	0.070296	0.901109	-0.042984
C15	C	-0.017305	1.483478	0.000005
C16	C	-0.070968	1.482051	0.000009
C17	C	-0.409131	1.587117	-0.000016
C18	C	-0.610824	1.581823	-0.000023
O19	O	-0.641483	1.677899	-0.000044
N20	N	-0.630658	1.467384	-0.000023
C21	C	-0.600066	1.354259	-0.000024
O22	O	-0.621564	1.256800	-0.000030
C23	C	-0.398374	1.359555	-0.000021
C24	C	-0.378543	1.474002	-0.000016
C25	C	-0.389299	1.701555	-0.000011
C26	C	-0.338879	1.702877	-0.000007
C27	C	-0.308291	1.589762	-0.000007
C28	C	-0.328123	1.475324	-0.000011
C29	C	-0.367783	1.246432	-0.000026
C30	C	-0.317357	1.247766	-0.000027
C31	C	-0.297526	1.362213	-0.000021
C32	C	-0.247114	1.363531	-0.000007
N33	N	-0.227280	1.477971	-0.000007
C34	C	-0.257868	1.591086	-0.000007
C35	C	-0.705957	1.351487	-0.000025
C36	C	-0.756380	1.350163	-0.000025
C37	C	-0.767134	1.577727	-0.000024
C38	C	-0.716711	1.579050	-0.000021
C39	C	-0.686123	1.465927	-0.000025
C40	C	-0.151982	1.593854	0.000003
C41	C	-0.101557	1.595167	0.000010
C42	C	-0.090807	1.367603	0.000006
C43	C	-0.141227	1.366290	0.000002
C44	C	-0.171814	1.479426	-0.000001
O45	O	-0.216426	1.267507	0.000009
O46	O	-0.236361	1.688531	-0.000012
C47	C	-0.459551	1.585795	-0.000020
C48	C	-0.479383	1.471357	-0.000025
C49	C	-0.448795	1.358242	-0.000025
C50	C	-0.529806	1.470033	-0.000025
C51	C	-0.560394	1.583149	-0.000025
C52	C	-0.540560	1.697588	-0.000024
C53	C	-0.490140	1.698910	-0.000020
C54	C	-0.468629	1.243802	-0.000025
C55	C	-0.519050	1.242489	-0.000029
C56	C	-0.549638	1.355605	-0.000029
C57	C	0.159368	1.461852	-0.000018
C58	C	0.213032	1.463279	-0.000025
C59	C	0.068259	1.700856	-0.000006
C60	C	0.069672	1.839351	-0.000009
N61	N	0.071049	1.472617	0.129242
N62	N	0.071011	1.472722	-0.129253
C63	C	0.038455	1.558137	0.473872
C64	C	0.038448	1.558167	0.682750
O65	O	0.010738	1.630828	0.709758
N66	N	0.071014	1.472696	0.708869
C67	C	0.103582	1.387206	0.682765
O68	O	0.131277	1.314500	0.709773
C69	C	0.103586	1.387171	0.473888
C70	C	0.071021	1.472656	0.447772
C71	C	0.005893	1.643614	0.447756
C72	C	0.005897	1.643611	0.395540
C73	C	0.038463	1.558130	0.369440
C74	C	0.071025	1.472653	0.395556
C75	C	0.136151	1.301676	0.447785
C76	C	0.136149	1.301673	0.395563
C77	C	0.103584	1.387158	0.369447
C78	C	0.103596	1.387168	0.317239
N79	N	0.071030	1.472639	0.291120
C80	C	0.038463	1.558120	0.317221
C81	C	0.103578	1.387232	0.792428
C82	C	0.103577	1.387242	0.844647
C83	C	0.038443	1.558201	0.844629
C84	C	0.038446	1.558196	0.792409
C85	C	0.071012	1.472703	0.766309
C86	C	0.038474	1.558106	0.207563
C87	C	0.038483	1.558098	0.155342
C88	C	0.103615	1.387135	0.155365
C89	C	0.103609	1.387146	0.207581
C90	C	0.071035	1.472637	0.233679
O91	O	0.131287	1.314535	0.290199
O92	O	0.010765	1.630797	0.290203
C93	C	0.038451	1.558141	0.526089
C94	C	0.071014	1.472664	0.552205
C95	C	0.103580	1.387183	0.526104
C96	C	0.071013	1.472674	0.604424
C97	C	0.038447	1.558155	0.630524
C98	C	0.005881	1.643626	0.604405
C99	C	0.005885	1.643622	0.552189
C100	C	0.136146	1.301712	0.552223
C101	C	0.136140	1.301724	0.604439
C102	C	0.103573	1.387204	0.630540
H103	H	0.070216	0.892428	0.036786
H104	H	0.011926	1.627805	0.865888
H105	H	-0.700568	1.672243	-0.000017
H106	H	0.130098	1.317611	0.771181
C107	C	-0.163048	1.240405	-0.000001
C108	C	-0.151687	1.146692	0.043075
C109	C	-0.173506	1.020807	0.043066
C110	C	-0.206686	0.988636	-0.000020
C111	C	-0.218048	1.082352	-0.043100
C112	C	-0.196230	1.208237	-0.043090
H113	H	-0.127124	1.170504	0.074973
H114	H	-0.165094	0.951433	0.074957
H115	H	-0.222837	0.895449	-0.000027
H116	H	-0.242611	1.058540	-0.074997
H117	H	-0.204641	1.277611	-0.074981
H118	H	-0.020629	1.713223	0.469002
H119	H	0.069748	0.848026	-0.079777
H120	H	-0.414200	1.793673	-0.000013
C121	C	0.071667	1.034222	0.049700
C122	C	0.112652	0.929739	0.062085
C123	C	0.111927	0.857987	0.111794
C124	C	0.070217	0.890718	0.149117
C125	C	0.029228	0.995206	0.136733
C126	C	0.029953	1.066958	0.087024
H127	H	0.143531	0.905506	0.034455
H128	H	0.142270	0.780638	0.120961
H129	H	0.069680	0.837602	0.185915
H130	H	-0.001651	1.019439	0.164363
H131	H	-0.000390	1.144307	0.077857
C132	C	-0.079744	1.721066	0.000012
C133	C	-0.091120	1.814736	0.043089
C134	C	-0.069310	1.940631	0.043091
C135	C	-0.036122	1.972856	0.000016
C136	C	-0.024744	1.879184	-0.043065
C137	C	-0.046555	1.753289	-0.043066
H138	H	-0.115689	1.790883	0.074979
H139	H	-0.077733	2.009973	0.074982
H140	H	-0.019976	2.066051	0.000017
H141	H	-0.000175	1.903037	-0.074955
H142	H	-0.038132	1.683947	-0.074957
H143	H	-0.792048	1.669830	-0.000024
H144	H	0.130099	1.317645	0.865907
C145	C	-0.778191	1.224271	-0.000024
C146	C	-0.811376	1.192078	-0.043102
C147	C	-0.833186	1.066182	-0.043103
C148	C	-0.821811	0.972478	-0.000026
C149	C	-0.788625	1.004668	0.043056
C150	C	-0.766815	1.130565	0.043057
H151	H	-0.819797	1.261445	-0.074993
H152	H	-0.857752	1.042353	-0.074995
H153	H	-0.837956	0.879282	-0.000027
H154	H	-0.780204	0.935301	0.074947
H155	H	-0.742249	1.154394	0.074949
H156	H	-0.176880	1.685981	-0.000001
H157	H	-0.020632	1.713232	0.530929
C158	C	0.171970	1.207634	0.476505
C159	C	0.152741	1.112584	0.512408
C160	C	0.188560	1.018533	0.541129
C161	C	0.243609	1.019531	0.533946
C162	C	0.262841	1.114584	0.498041
C163	C	0.227021	1.208636	0.469321
H164	H	0.111988	1.111842	0.517727
H165	H	0.174324	0.948168	0.567707
H166	H	0.270125	0.949909	0.555206
H167	H	0.303593	1.115327	0.492723
H168	H	0.241258	1.279000	0.442742
C169	C	0.171964	1.207682	0.633164
C170	C	0.170643	1.065624	0.625988
C171	C	0.206462	0.971577	0.654711
C172	C	0.243602	1.019589	0.690610
C173	C	0.244924	1.161654	0.697788
C174	C	0.209105	1.255701	0.669065
H175	H	0.143149	1.030077	0.599412
H176	H	0.205483	0.866411	0.649397
H177	H	0.270117	0.949970	0.711872
H178	H	0.272418	1.197201	0.724364
H179	H	0.210084	1.360867	0.674378
H180	H	-0.322738	1.796072	-0.000004
H181	H	-0.681056	1.259363	-0.000029
H182	H	-0.473998	1.792105	-0.000016
H183	H	0.072295	1.097377	-0.079774
C184	C	0.139433	1.293119	0.236310
C185	C	0.138118	1.151059	0.229133
C186	C	0.173940	1.057020	0.257857
C187	C	0.211076	1.105041	0.293757
C188	C	0.212393	1.247109	0.300935
C189	C	0.176571	1.341147	0.272212
H190	H	0.110626	1.115505	0.202557
H191	H	0.172965	0.951853	0.252543
H192	H	0.237593	1.035428	0.315020
H193	H	0.239885	1.282663	0.327512
H194	H	0.177546	1.446315	0.277526
H195	H	-0.292454	1.155645	-0.000031
C196	C	-0.574213	1.822017	-0.000025
C197	C	-0.571720	1.916084	-0.043104
C198	C	-0.605376	2.040505	-0.043109
C199	C	-0.641525	2.070860	-0.000034
C200	C	-0.644020	1.976792	0.043048
C201	C	-0.610364	1.852370	0.043052
H202	H	-0.544959	1.893615	-0.074993
H203	H	-0.603529	2.110141	-0.075001
H204	H	-0.666439	2.162965	-0.000037
H205	H	-0.670781	1.999261	0.074937
H206	H	-0.612211	1.782735	0.074944
H207	H	-0.383920	1.153237	-0.000033
H208	H	-0.065893	1.275508	0.000008
H209	H	0.130132	1.317540	0.134106
H210	H	-0.535191	1.149286	-0.000029
C211	C	-0.029930	1.737633	0.366815
C212	C	-0.084976	1.736594	0.374000
C213	C	-0.120806	1.830616	0.345278
C214	C	-0.101589	1.925677	0.309372
C215	C	-0.046540	1.926718	0.302185
C216	C	-0.010710	1.832696	0.330907
H217	H	-0.099204	1.666222	0.400582
H218	H	-0.161557	1.829845	0.350599
H219	H	-0.128112	1.995277	0.288110
H220	H	-0.032312	1.997091	0.275603
H221	H	0.030041	1.833468	0.325586
H222	H	-0.443728	1.151688	-0.000026
H223	H	0.011964	1.627715	0.134080
H224	H	0.162667	1.232050	0.374315
C225	C	-0.029944	1.737654	0.633122
C226	C	-0.067079	1.689607	0.669023
C227	C	-0.102903	1.783624	0.697743
C228	C	-0.101593	1.925689	0.690560
C229	C	-0.064456	1.973744	0.654657
C230	C	-0.028632	1.879727	0.625938
H231	H	-0.068050	1.584435	0.674341
H232	H	-0.130394	1.748050	0.724321
H233	H	-0.128112	1.995287	0.711820
H234	H	-0.063485	2.078916	0.649339
H235	H	-0.001141	1.915301	0.599360
H236	H	0.011949	1.627719	0.228806
H237	H	0.011929	1.627805	0.771148
H238	H	0.162665	1.232101	0.530976
