data_functionalizedCrystal
_audit_creation_method	'MofGen! by Chris Wilmer'
_symmetry_space_group_name_H-M	'P1'
_symmetry_Int_Tables_number	1
_symmetry_cell_setting	triclinic
loop_
_symmetry_equiv_pos_as_xyz
  x,y,z
_cell_length_a	22.610064
_cell_length_b	12.837943
_cell_length_c	12.837942
_cell_angle_alpha	85.171060
_cell_angle_beta	90.005124
_cell_angle_gamma	90.007937
loop_
_atom_site_label
_atom_site_type_symbol
_atom_site_fract_x
_atom_site_fract_y
_atom_site_fract_z
O1	O	-0.049173	-1.402342	0.272127
O2	O	0.450827	-0.902342	0.772127
O3	O	-0.049177	-1.099208	0.258684
O4	O	0.450823	-0.599208	0.758684
O5	O	-0.049172	-1.244053	0.113838
O6	O	0.450828	-0.744053	0.613838
O7	O	-0.049179	-1.257497	0.416972
O8	O	0.450821	-0.757497	0.916972
O9	O	0.049198	-1.244027	0.113859
O10	O	0.549198	-0.744027	0.613859
O11	O	0.049192	-1.099182	0.258704
O12	O	0.549192	-0.599182	0.758704
O13	O	0.049196	-1.402316	0.272148
O14	O	0.549196	-0.902316	0.772148
Zn15	Zn	0.064812	-1.250745	0.265429
Zn16	Zn	0.564812	-0.750745	0.765429
Zn17	Zn	-0.064793	-1.250779	0.265402
Zn18	Zn	0.435207	-0.750779	0.765402
O19	O	0.049190	-1.257470	0.416993
O20	O	0.549190	-0.757470	0.916993
C21	C	0.000007	-1.060126	0.254153
C22	C	0.500007	-0.560126	0.754153
C23	C	0.000006	-0.943711	0.240608
C24	C	0.500006	-0.443711	0.740608
N25	N	0.153265	-1.250729	0.265448
N26	N	0.653265	-0.750729	0.765448
N27	N	-0.153246	-1.250802	0.265376
N28	N	0.346754	-0.750802	0.765376
C29	C	0.561908	-1.314921	0.201276
C30	C	1.061908	-0.814921	0.701276
C31	C	0.623828	-1.314925	0.201269
C32	C	1.123828	-0.814925	0.701269
O33	O	0.655849	-1.369461	0.146718
O34	O	1.155849	-0.869461	0.646718
N35	N	0.654802	-1.250776	0.265380
N36	N	1.154802	-0.750776	0.765380
C37	C	0.623852	-1.186610	0.329495
C38	C	1.123852	-0.686610	0.829495
O39	O	0.655883	-1.132046	0.384025
O40	O	1.155883	-0.632046	0.884025
C41	C	0.561933	-1.186601	0.329496
C42	C	1.061933	-0.686601	0.829496
C43	C	0.530963	-1.250762	0.265388
C44	C	1.030963	-0.750762	0.765388
C45	C	0.530938	-1.379076	0.137172
C46	C	1.030938	-0.879076	0.637172
C47	C	0.469022	-1.379073	0.137181
C48	C	0.969022	-0.879073	0.637181
C49	C	0.438077	-1.314914	0.201293
C50	C	0.938077	-0.814914	0.701293
C51	C	0.469047	-1.250759	0.265397
C52	C	0.969047	-0.750759	0.765397
C53	C	0.530985	-1.122430	0.393604
C54	C	1.030985	-0.622430	0.893604
C55	C	0.469062	-1.122426	0.393599
C56	C	0.969062	-0.622426	0.893599
C57	C	0.438092	-1.186587	0.329491
C58	C	0.938092	-0.686587	0.829491
C59	C	0.376187	-1.186597	0.329518
C60	C	0.876187	-0.686597	0.829518
N61	N	0.345213	-1.250746	0.265406
N62	N	0.845213	-0.750746	0.765406
C63	C	0.376158	-1.314905	0.201294
C64	C	0.876158	-0.814905	0.701294
C65	C	0.753886	-1.186633	0.329487
C66	C	1.253886	-0.686633	0.829487
C67	C	0.815803	-1.186647	0.329493
C68	C	1.315803	-0.686647	0.829493
C69	C	0.815775	-1.314961	0.201265
C70	C	1.315775	-0.814961	0.701265
C71	C	0.753857	-1.314952	0.201265
C72	C	1.253857	-0.814952	0.701265
C73	C	0.722912	-1.250783	0.265376
C74	C	1.222912	-0.750783	0.765376
C75	C	0.246131	-1.314893	0.201318
C76	C	0.746131	-0.814893	0.701318
C77	C	0.184210	-1.314887	0.201336
C78	C	0.684210	-0.814887	0.701336
C79	C	0.184243	-1.186570	0.329559
C80	C	0.684243	-0.686570	0.829559
C81	C	0.246159	-1.186579	0.329546
C82	C	0.746159	-0.686579	0.829546
C83	C	0.277101	-1.250744	0.265417
C84	C	0.777101	-0.750744	0.765417
O85	O	0.344126	-1.132086	0.384037
O86	O	0.844126	-0.632086	0.884037
O87	O	0.344120	-1.369450	0.146763
O88	O	0.844120	-0.869450	0.646763
C89	C	0.000013	-1.239499	0.074780
C90	C	0.500013	-0.739499	0.574780
C91	C	0.000011	-1.225954	-0.041635
C92	C	0.500011	-0.725954	0.458365
C93	C	0.000010	-1.441398	0.276679
C94	C	0.500010	-0.941398	0.776679
C95	C	0.000008	-1.557813	0.290223
C96	C	0.500008	-1.057813	0.790223
C97	C	0.000011	-0.718837	0.403437
C98	C	0.500011	-0.218837	0.903437
C99	C	0.000010	-0.609454	0.390716
C100	C	0.500010	-0.109454	0.890716
C101	C	0.000008	-0.615562	0.202445
C102	C	0.500008	-0.115562	0.702445
C103	C	0.000009	-0.724944	0.215166
C104	C	0.500009	-0.224944	0.715166
C105	C	0.000009	-0.776578	0.315666
C106	C	0.500009	-0.276578	0.815666
C107	C	0.000006	-0.885962	0.328386
C108	C	0.500006	-0.385962	0.828386
C109	C	0.000008	-0.892067	0.140116
C110	C	0.500008	-0.392067	0.640116
C111	C	0.000007	-0.782685	0.127395
C112	C	0.500007	-0.282685	0.627395
C113	C	0.000001	-1.388784	-0.266510
C114	C	0.500001	-0.888784	0.233490
C115	C	-0.000000	-1.376062	-0.375892
C116	C	0.500000	-0.876062	0.124108
C117	C	0.000004	-1.187791	-0.369785
C118	C	0.500004	-0.687791	0.130215
C119	C	0.000005	-1.200513	-0.260402
C120	C	0.500005	-0.700513	0.239598
C121	C	0.000004	-1.301012	-0.208769
C122	C	0.500004	-0.801012	0.291231
C123	C	0.000010	-1.313732	-0.099384
C124	C	0.500010	-0.813732	0.400616
C125	C	0.000010	-1.125462	-0.093279
C126	C	0.500010	-0.625462	0.406721
C127	C	0.000008	-1.112741	-0.202661
C128	C	0.500008	-0.612741	0.297339
C129	C	0.000005	-1.262025	0.456052
C130	C	0.500005	-0.762025	0.956052
C131	C	0.000002	-1.275569	0.572467
C132	C	0.500002	-0.775569	1.072467
H133	H	0.158996	-1.367139	0.149132
H134	H	0.658996	-0.867139	0.649132
H135	H	0.840982	-1.367201	0.149059
H136	H	1.340982	-0.867201	0.649059
H137	H	0.000003	-0.939092	0.068646
H138	H	0.500003	-0.439092	0.568646
H139	H	0.000007	-0.928000	0.410218
H140	H	0.500007	-0.428000	0.910218
H141	H	0.000012	-1.395564	-0.057346
H142	H	0.500012	-0.895564	0.442654
H143	H	0.556192	-1.070184	0.445806
H144	H	1.056192	-0.570184	0.945806
H145	H	0.000013	-0.562446	0.462189
H146	H	0.500013	-0.062446	0.962189
H147	H	0.443870	-1.070168	0.445804
H148	H	0.943870	-0.570168	0.945804
H149	H	0.000056	-0.573502	0.120623
H150	H	0.500056	-0.073502	0.620623
H151	H	0.556128	-1.431321	0.084960
H152	H	1.056128	-0.931321	0.584960
H153	H	0.000010	-0.760878	0.485268
H154	H	0.500010	-0.260878	0.985268
H155	H	-0.000005	-1.447536	-0.422901
H156	H	0.499995	-0.947536	0.077099
H157	H	0.000014	-0.740630	0.045571
H158	H	0.500014	-0.240630	0.545571
H159	H	0.271317	-1.367141	0.149097
H160	H	0.771317	-0.867141	0.649097
H161	H	0.000006	-1.470614	-0.224469
H162	H	0.500006	-0.970614	0.275531
H163	H	-0.000002	-1.105969	-0.411844
H164	H	0.499998	-0.605969	0.088156
H165	H	0.000007	-1.030917	-0.244717
H166	H	0.500007	-0.530917	0.255283
H167	H	0.271376	-1.134345	0.381759
H168	H	0.771376	-0.634345	0.881759
H169	H	0.443810	-1.431315	0.084976
H170	H	0.943810	-0.931315	0.584976
H171	H	0.728644	-1.367197	0.149063
H172	H	1.228644	-0.867197	0.649063
H173	H	0.841015	-1.134413	0.381707
H174	H	1.341015	-0.634413	0.881707
H175	H	0.728694	-1.134382	0.381702
H176	H	1.228694	-0.634382	0.881702
H177	H	0.159038	-1.134336	0.381762
H178	H	0.659038	-0.634336	0.881762
H179	H	0.000017	-1.053992	-0.046254
H180	H	0.500017	-0.553992	0.453746
