data_functionalizedCrystal
_audit_creation_method	'MofGen! by Chris Wilmer'
_symmetry_space_group_name_H-M	'P1'
_symmetry_Int_Tables_number	1
_symmetry_cell_setting	triclinic
loop_
_symmetry_equiv_pos_as_xyz
  x,y,z
_cell_length_a	19.805407
_cell_length_b	19.120786
_cell_length_c	19.805399
_cell_angle_alpha	87.531070
_cell_angle_beta	89.982197
_cell_angle_gamma	92.462474
loop_
_atom_site_label
_atom_site_type_symbol
_atom_site_fract_x
_atom_site_fract_y
_atom_site_fract_z
Zn1	Zn	1.023242	-0.279696	-0.371182
Zn2	Zn	1.018330	-0.397155	-0.253161
Zn3	Zn	0.910056	-0.279710	-0.258009
Zn4	Zn	0.905195	-0.397112	-0.366313
O5	O	0.964206	-0.338418	-0.312166
O6	O	1.117306	-0.295289	-0.355535
O7	O	1.003946	-0.381599	-0.159087
O8	O	0.929160	-0.181418	-0.277088
O9	O	1.113698	-0.381586	-0.268826
O10	O	1.012318	-0.181408	-0.360235
O11	O	0.924397	-0.295313	-0.162649
O12	O	0.814695	-0.295271	-0.272367
O13	O	0.920876	-0.381513	-0.461677
O14	O	0.811124	-0.381526	-0.351938
O15	O	1.007604	-0.295248	-0.465253
O16	O	0.999232	-0.495439	-0.264105
O17	O	0.916113	-0.495408	-0.347237
C18	C	0.788351	-0.338396	-0.312151
C19	C	0.713118	-0.338404	-0.312160
C20	C	0.679651	-0.293549	-0.357372
C21	C	0.608962	-0.293552	-0.357374
C22	C	0.571742	-0.338415	-0.312167
C23	C	0.605215	-0.383272	-0.266951
C24	C	0.675902	-0.383264	-0.266945
C25	C	0.320140	-0.383304	-0.266970
C26	C	0.249448	-0.383309	-0.266980
C27	C	0.253200	-0.293592	-0.357399
C28	C	0.323887	-0.293584	-0.357393
C29	C	0.357354	-0.338438	-0.312175
C30	C	0.434003	-0.338432	-0.312172
C31	C	0.495095	-0.338425	-0.312173
C32	C	0.956630	-0.520909	-0.304632
C33	C	0.953452	-0.598979	-0.301431
C34	C	0.995221	-0.635591	-0.343253
C35	C	0.992232	-0.708946	-0.340247
C36	C	0.947475	-0.745688	-0.295415
C37	C	0.905701	-0.709071	-0.253591
C38	C	0.908688	-0.635717	-0.256601
C39	C	0.936290	-0.967173	-0.284162
C40	C	0.933308	-1.040533	-0.281153
C41	C	1.019838	-1.040402	-0.367810
C42	C	1.022824	-0.967047	-0.370813
C43	C	0.981047	-0.930436	-0.328992
C44	C	0.944420	-0.820669	-0.292339
C45	C	0.984099	-0.855457	-0.332072
C46	C	1.140748	-0.338441	-0.312182
C47	C	1.215979	-0.338450	-0.312189
C48	C	0.964246	-0.338374	-0.488711
C49	C	0.964262	-0.338355	-0.563944
C50	C	0.971829	-0.155215	-0.319745
C51	C	0.975078	-0.077144	-0.322975
C52	C	1.009423	-0.293435	-0.601152
C53	C	1.009431	-0.293414	-0.671841
C54	C	0.964281	-0.338318	-0.705321
C55	C	0.919115	-0.383241	-0.668108
C56	C	0.919105	-0.383257	-0.597420
C57	C	0.919156	-0.383175	-0.953184
C58	C	0.919172	-0.383157	-1.023877
C59	C	1.009482	-0.293332	-1.027605
C60	C	1.009472	-0.293349	-0.956917
C61	C	0.964304	-0.338268	-0.919711
C62	C	0.964295	-0.338289	-0.843061
C63	C	0.964292	-0.338302	-0.781969
C64	C	0.964207	-0.338412	-0.136311
C65	C	0.964329	-0.338232	-0.061087
H66	H	0.574905	-0.419797	-0.230139
F67	F	0.217577	-0.245851	-0.405523
F68	F	0.858061	-0.748177	-0.205883
H69	H	0.581716	-0.257028	-0.394191
H70	H	0.219145	-0.419844	-0.230165
F71	F	1.070459	-0.927949	-0.418530
F72	F	1.057519	-0.245628	-0.711436
F73	F	1.057529	-0.245558	-0.921289
H74	H	1.046258	-0.256754	-1.057907
H75	H	0.354188	-0.257054	-0.394208
H76	H	0.347380	-0.419827	-0.230151
F77	F	0.711521	-0.431006	-0.218825
F78	F	0.871060	-0.431028	-0.703742
F79	F	1.042861	-0.596494	-0.390966
F80	F	1.057482	-0.245644	-0.565526
F81	F	0.871114	-0.430952	-1.059508
F82	F	0.871085	-0.430983	-0.913596
H83	H	1.026250	-0.738753	-0.374297
H84	H	0.882324	-0.419829	-0.567127
H85	H	0.896859	-1.070446	-0.244645
F86	F	0.719257	-0.245802	-0.405491
H87	H	0.902275	-0.937371	-0.250108
F88	F	1.064295	-1.079371	-0.412317
H89	H	0.907981	-0.850593	-0.255835
H90	H	0.874673	-0.605909	-0.222546
F91	F	1.031727	-0.816352	-0.379787
