data_functionalizedCrystal
_audit_creation_method	'MofGen! by Chris Wilmer'
_symmetry_space_group_name_H-M	'P1'
_symmetry_Int_Tables_number	1
_symmetry_cell_setting	triclinic
loop_
_symmetry_equiv_pos_as_xyz
  x,y,z
_cell_length_a	17.019282
_cell_length_b	14.044190
_cell_length_c	13.101050
_cell_angle_alpha	93.664301
_cell_angle_beta	89.480601
_cell_angle_gamma	91.720578
loop_
_atom_site_label
_atom_site_type_symbol
_atom_site_fract_x
_atom_site_fract_y
_atom_site_fract_z
O1	O	-1.054808	0.121167	0.007887
O2	O	-0.827164	0.135343	-0.012212
O3	O	-0.937565	-0.009742	-0.002444
O4	O	-0.944406	0.266252	-0.001880
O5	O	-0.929645	0.000687	0.167285
O6	O	-0.819243	0.145772	0.157518
O7	O	-1.046887	0.131595	0.177616
Zn8	Zn	-0.931808	0.140340	0.194515
Zn9	Zn	-0.942243	0.126599	-0.029110
O10	O	-0.936486	0.276681	0.167849
C11	C	-0.793894	0.139817	0.070066
C12	C	-0.706560	0.137597	0.062356
C13	C	-0.930612	-0.039854	0.082159
C14	C	-0.921687	-0.145115	0.081380
C15	C	-1.080157	0.127122	0.095337
C16	C	-1.167491	0.129341	0.103040
C17	C	-0.661218	0.142237	0.151255
C18	C	-0.579159	0.140137	0.144014
C19	C	-0.542443	0.133403	0.047872
C20	C	-0.587792	0.128761	-0.041034
C21	C	-0.669850	0.130854	-0.033792
C22	C	-0.294898	0.126792	0.021376
C23	C	-0.212834	0.124701	0.014141
C24	C	-0.204206	0.136076	0.199190
C25	C	-0.286266	0.138175	0.206423
C26	C	-0.331607	0.133527	0.117517
C27	C	-0.458566	0.131259	0.040468
C28	C	-0.415484	0.135664	0.124922
C29	C	-0.968671	-0.395216	0.085488
C30	C	-0.905384	-0.337840	0.079908
C31	C	-0.914457	-0.230598	0.080727
C32	C	-0.959599	-0.502468	0.084669
C33	C	-0.943439	0.306793	0.083243
C34	C	-0.952364	0.412054	0.084016
N35	N	-0.924692	0.149716	0.347134
C36	C	-0.915010	0.162482	0.555320
C37	C	-0.959042	0.104462	0.610091
C38	C	-0.953655	0.111565	0.725933
C39	C	-0.920396	0.155380	0.439468
N40	N	-0.949363	0.117225	0.818271
H41	H	-0.542244	0.143899	0.216406
C42	C	-0.818039	-0.441804	-0.015421
C43	C	-0.823040	-0.380247	0.072636
H44	H	-0.767206	-0.467990	-0.019902
H45	H	-0.826955	-0.407284	-0.074050
H46	H	-0.856557	-0.491894	-0.012020
H47	H	-0.784525	-0.330153	0.069231
H48	H	-0.814115	-0.414768	0.131279
C49	C	-0.168456	0.226541	0.354397
C50	C	-0.154364	0.141175	0.296910
H51	H	-0.137681	0.229687	0.414725
H52	H	-0.222574	0.228744	0.372465
H53	H	-0.154654	0.279088	0.314990
H54	H	-0.168171	0.088628	0.336315
H55	H	-0.100234	0.138963	0.278844
C56	C	-0.368158	0.203741	-0.075295
C57	C	-0.418203	0.123871	-0.065210
H58	H	-0.343242	0.199180	-0.140538
H59	H	-0.329419	0.206191	-0.023384
H60	H	-0.397878	0.260019	-0.068819
H61	H	-0.388482	0.067593	-0.071679
H62	H	-0.456947	0.121411	-0.117136
C63	C	-1.044170	-0.253236	0.092201
C64	C	-1.051008	-0.352807	0.092782
H65	H	-1.095001	-0.227047	0.096714
H66	H	-1.019214	-0.236183	0.030567
H67	H	-1.013667	-0.228950	0.148942
H68	H	-1.081507	-0.377094	0.036036
H69	H	-1.075976	-0.369867	0.154423
C70	C	-1.009628	0.037152	0.449989
C71	C	-1.015210	0.029998	0.555938
H72	H	-1.044252	-0.008875	0.416552
H73	H	-0.957206	0.025880	0.427979
H74	H	-1.023652	0.099299	0.433582
H75	H	-1.001180	-0.032148	0.572346
H76	H	-1.067643	0.041262	0.577956
C77	C	-0.505888	0.063200	0.240699
C78	C	-0.455841	0.143066	0.230599
H79	H	-0.530811	0.067778	0.305937
H80	H	-0.476174	0.006927	0.234239
H81	H	-0.544629	0.060742	0.188777
H82	H	-0.417096	0.145520	0.282516
H83	H	-0.485556	0.199354	0.237069
H84	H	-0.182943	0.119221	-0.064154
C85	C	-0.804074	0.190043	0.666354
C86	C	-0.858669	0.236742	0.609463
H87	H	-0.769298	0.235891	0.699794
H88	H	-0.774898	0.148011	0.621933
H89	H	-0.831003	0.154568	0.715932
H90	H	-0.831740	0.272212	0.559880
H91	H	-0.887849	0.278791	0.653888
C92	C	-0.682254	0.071148	0.311492
C93	C	-0.701573	0.149635	0.256938
H94	H	-0.707172	0.075712	0.376734
H95	H	-0.626901	0.070573	0.319900
H96	H	-0.699602	0.013932	0.274845
H97	H	-0.684221	0.206851	0.293581
H98	H	-0.756939	0.150219	0.248534
C99	C	-0.376664	0.065699	0.322206
C100	C	-0.326619	0.145566	0.312107
H101	H	-0.401578	0.070268	0.387450
H102	H	-0.346951	0.009426	0.315730
H103	H	-0.415412	0.063248	0.270294
H104	H	-0.287867	0.148013	0.364016
H105	H	-0.356334	0.201854	0.318594
H106	H	-0.331806	0.123004	-0.051018
H107	H	-0.706767	0.127078	-0.106184
C108	C	-0.497396	0.201235	-0.156816
C109	C	-0.547436	0.121363	-0.146716
H110	H	-0.472487	0.196671	-0.222064
H111	H	-0.458651	0.203691	-0.104913
H112	H	-0.527118	0.257511	-0.150338
H113	H	-0.517713	0.065087	-0.153187
H114	H	-0.586186	0.118897	-0.198634
