data_functionalizedCrystal
_audit_creation_method	'MofGen! by Chris Wilmer'
_symmetry_space_group_name_H-M	'P1'
_symmetry_Int_Tables_number	1
_symmetry_cell_setting	triclinic
loop_
_symmetry_equiv_pos_as_xyz
  x,y,z
_cell_length_a	18.627243
_cell_length_b	18.627245
_cell_length_c	18.627297
_cell_angle_alpha	90.002039
_cell_angle_beta	59.997824
_cell_angle_gamma	119.999685
loop_
_atom_site_label
_atom_site_type_symbol
_atom_site_fract_x
_atom_site_fract_y
_atom_site_fract_z
O1	O	0.633240	-0.492484	-0.021356
O2	O	0.486232	-0.388088	0.021256
O3	O	0.633235	-0.388087	-0.125751
O4	O	0.486237	-0.492485	0.125650
O5	O	0.513833	-0.507489	-0.125750
O6	O	0.366830	-0.507489	0.021256
O7	O	0.513838	-0.611886	-0.021356
Cu8	Cu	0.429432	-0.570590	-0.000050
Cu9	Cu	0.570639	-0.429384	-0.000050
O10	O	0.366835	-0.611886	0.125650
C11	C	0.356044	-0.256979	0.030935
C12	C	0.406443	-0.162282	0.024836
C13	C	0.269040	-0.300580	0.031539
C14	C	0.356039	-0.386983	0.030943
C15	C	0.406432	-0.431286	0.024852
C16	C	0.269035	-0.430386	0.031548
C17	C	0.226044	-0.386979	0.030935
C18	C	0.137446	-0.431279	0.024835
C19	C	0.398838	-0.300583	0.031548
O20	O	-0.104350	-0.611881	-0.021369
O21	O	0.104442	-0.507482	0.021239
O22	O	0.104453	-0.507489	-0.125766
O23	O	-0.104360	-0.611875	0.125635
O24	O	0.104457	-0.388084	-0.125773
O25	O	0.104446	-0.388078	0.021231
O26	O	-0.104345	-0.492477	-0.021377
Cu27	Cu	0.000051	-0.429375	-0.000073
Cu28	Cu	0.000046	-0.570584	-0.000065
O29	O	-0.104356	-0.492470	0.125628
C30	C	0.644032	-0.386986	-0.387050
C31	C	0.593636	-0.431285	-0.431350
C32	C	0.731038	-0.300587	-0.430453
C33	C	0.644032	-0.386986	-0.257049
C34	C	0.593635	-0.431287	-0.162352
C35	C	0.731037	-0.300588	-0.300650
C36	C	0.774032	-0.256986	-0.387049
C37	C	0.862632	-0.162290	-0.431348
C38	C	0.601235	-0.430390	-0.300651
C39	C	0.774046	-0.612982	-0.031065
C40	C	0.862649	-0.568681	-0.024971
C41	C	0.731054	-0.699380	-0.031674
C42	C	0.644041	-0.612985	-0.031058
C43	C	0.593641	-0.568686	-0.024957
C44	C	0.601246	-0.699383	-0.031667
C45	C	0.644046	-0.742983	-0.031064
C46	C	0.593651	-0.837679	-0.024969
C47	C	0.731049	-0.569580	-0.031668
O48	O	0.513853	0.125721	-0.021375
O49	O	0.366846	-0.125678	0.021232
O50	O	0.513856	0.021315	-0.125772
O51	O	0.366843	-0.021272	0.125629
O52	O	0.633253	0.021311	-0.125765
O53	O	0.486243	-0.125682	0.021240
O54	O	0.633250	0.125717	-0.021368
Cu55	Cu	0.570648	0.000017	-0.000063
Cu56	Cu	0.429448	0.000022	-0.000072
O57	O	0.486240	-0.021275	0.125637
O58	O	1.104430	0.125707	-0.492538
O59	O	0.895633	-0.125690	-0.388147
O60	O	0.895628	0.021307	-0.388137
O61	O	1.104435	-0.021290	-0.492548
O62	O	0.895631	0.021311	-0.507540
O63	O	0.895636	-0.125686	-0.507550
O64	O	1.104433	0.125711	-0.611941
Cu65	Cu	1.000035	0.000013	-0.570648
Cu66	Cu	1.000031	0.000008	-0.429440
O67	O	1.104438	-0.021286	-0.611951
O68	O	0.486231	-0.492490	-0.611948
O69	O	0.633235	-0.388087	-0.507553
O70	O	0.486230	-0.388090	-0.507544
O71	O	0.633237	-0.492487	-0.611956
O72	O	0.366830	-0.507490	-0.388142
O73	O	0.513836	-0.507487	-0.388151
O74	O	0.366832	-0.611890	-0.492545
Cu75	Cu	0.429431	-0.570591	-0.429446
Cu76	Cu	0.570636	-0.429386	-0.570653
O77	O	0.513837	-0.611887	-0.492554
C78	C	0.226037	-0.742989	0.386948
C79	C	0.137437	-0.837686	0.431246
C80	C	0.269030	-0.699389	0.430353
C81	C	0.356038	-0.612988	0.256949
C82	C	0.406435	-0.568687	0.162252
C83	C	0.398834	-0.569585	0.300552
C84	C	0.356036	-0.612990	0.386950
C85	C	0.406432	-0.568691	0.431252
C86	C	0.269032	-0.699387	0.300549
C87	C	0.356073	-0.256995	-0.387073
C88	C	0.406473	-0.162299	-0.431376
C89	C	0.398871	-0.300599	-0.430474
C90	C	0.226065	-0.386990	-0.257069
C91	C	0.137460	-0.431286	-0.162372
C92	C	0.269060	-0.430398	-0.300668
C93	C	0.356070	-0.386997	-0.387067
C94	C	0.406468	-0.431300	-0.431364
C95	C	0.269063	-0.300593	-0.300674
C96	C	-0.355975	-0.612964	0.386929
C97	C	-0.406373	-0.568662	0.431227
C98	C	-0.398774	-0.699362	0.430336
C99	C	-0.225968	-0.612970	0.256931
C100	C	-0.137363	-0.568673	0.162234
C101	C	-0.268966	-0.699367	0.300535
C102	C	-0.355976	-0.742966	0.386934
C103	C	-0.406376	-0.837662	0.431237
C104	C	-0.268964	-0.569563	0.300530
C105	C	0.774043	0.030962	-0.387056
C106	C	0.862639	0.024856	-0.431349
C107	C	0.731051	0.031564	-0.430463
C108	C	0.644049	0.030986	-0.257064
C109	C	0.593654	0.024905	-0.162369
C110	C	0.601253	0.031588	-0.300669
C111	C	0.644048	0.030966	-0.387064
C112	C	0.593653	0.024863	-0.431366
C113	C	0.731051	0.031584	-0.300660
O114	O	0.633303	0.125701	-0.611972
O115	O	0.486281	-0.125700	-0.507577
O116	O	0.633272	0.021288	-0.507558
O117	O	0.486311	-0.021287	-0.611991
O118	O	0.513861	0.021292	-0.388162
O119	O	0.366869	-0.125696	-0.388181
O120	O	0.513891	0.125706	-0.492576
Cu121	Cu	0.429477	0.000005	-0.429476
Cu122	Cu	0.570695	0.000001	-0.570676
O123	O	0.366900	-0.021282	-0.492594
C124	C	0.356047	-0.030927	0.386929
C125	C	0.406443	-0.024826	0.431231
C126	C	0.269046	-0.031525	0.430327
C127	C	0.356047	-0.030947	0.256928
C128	C	0.406442	-0.024866	0.162234
C129	C	0.269045	-0.031545	0.300525
C130	C	0.226053	-0.030923	0.386920
C131	C	0.137458	-0.024816	0.431213
C132	C	0.398842	-0.031549	0.300533
H133	H	0.468845	-0.265576	0.032531
H134	H	0.233069	-0.032523	0.265512
H135	H	0.233063	-0.032497	0.501316
H136	H	-0.233028	-0.498597	0.265502
C137	C	0.220885	-0.254067	-0.253942
C138	C	0.121105	-0.300854	-0.229785
C139	C	0.076690	-0.258030	-0.186725
H140	H	0.258858	-0.196260	-0.292224
H141	H	0.220453	-0.251103	-0.202822
H142	H	0.121543	-0.303809	-0.280897
H143	H	0.083106	-0.358659	-0.191492
H144	H	0.076258	-0.255065	-0.135606
H145	H	0.114670	-0.200225	-0.225013
H146	H	0.008982	-0.289773	-0.170322
C147	C	-0.221137	-0.746141	0.253840
C148	C	-0.291655	-0.821366	0.249525
C149	C	-0.247624	-0.864464	0.206506
H150	H	-0.201493	-0.762670	0.285407
H151	H	-0.163081	-0.707819	0.196006
H152	H	-0.349693	-0.859682	0.307349
H153	H	-0.311305	-0.804862	0.217953
H154	H	-0.189569	-0.826141	0.148672
H155	H	-0.227981	-0.880987	0.238077
H156	H	-0.295461	-0.915504	0.203566
C157	C	0.778852	-0.746198	-0.032853
C158	C	0.708317	-0.821444	0.041959
C159	C	0.752311	-0.864594	0.040894
H160	H	0.836913	-0.707940	-0.033078
H161	H	0.798465	-0.762698	-0.084097
H162	H	0.688719	-0.804942	0.093190
H163	H	0.650253	-0.859722	0.042200
H164	H	0.771924	-0.881095	-0.010350
H165	H	0.810372	-0.826330	0.040667
H166	H	0.704458	-0.915658	0.091649
C167	C	0.492067	-0.474875	0.253910
C168	C	0.469454	-0.421859	0.229769
C169	C	0.555309	-0.334611	0.186820
H170	H	0.546210	-0.471399	0.202794
H171	H	0.511492	-0.455126	0.292280
H172	H	0.450042	-0.441603	0.191401
H173	H	0.415325	-0.425309	0.280869
H174	H	0.574735	-0.314861	0.225190
H175	H	0.609447	-0.331143	0.135708
H176	H	0.539976	-0.298627	0.170442
H177	H	0.468865	-0.032513	0.265528
C178	C	0.221247	-0.524989	-0.253963
C179	C	0.291785	-0.529666	-0.249656
C180	C	0.247775	-0.616781	-0.206627
H181	H	0.201600	-0.561178	-0.285520
H182	H	0.163195	-0.544715	-0.196128
H183	H	0.349818	-0.509951	-0.307482
H184	H	0.311437	-0.493496	-0.218093
H185	H	0.189724	-0.636508	-0.148791
H186	H	0.228130	-0.652963	-0.238188
H187	H	0.295625	-0.619965	-0.203691
C188	C	0.220846	-0.746070	0.525072
C189	C	0.121072	-0.770203	0.578033
C190	C	0.076649	-0.813191	0.665295
H191	H	0.258822	-0.707751	0.544887
H192	H	0.220400	-0.797193	0.528526
H193	H	0.121524	-0.719088	0.574583
H194	H	0.083071	-0.808532	0.558246
H195	H	0.076203	-0.864314	0.668749
H196	H	0.114632	-0.774867	0.685101
H197	H	0.008945	-0.829578	0.701239
C198	C	0.778877	-0.253880	-0.525053
C199	C	0.708373	-0.249539	-0.529761
C200	C	0.752419	-0.206504	-0.616886
H201	H	0.798518	-0.285445	-0.561235
H202	H	0.836937	-0.196054	-0.544774
H203	H	0.650332	-0.307355	-0.510051
H204	H	0.688727	-0.217968	-0.493598
H205	H	0.810478	-0.148678	-0.636607
H206	H	0.772058	-0.238073	-0.653061
H207	H	0.704592	-0.203546	-0.620091
C208	C	-0.492235	-0.746222	0.524942
C209	C	-0.571713	-0.821463	0.529595
C210	C	-0.657821	-0.864673	0.616727
H211	H	-0.511856	-0.707996	0.544778
H212	H	-0.477112	-0.762735	0.561054
H213	H	-0.586835	-0.804948	0.493496
H214	H	-0.552125	-0.859710	0.509777
H215	H	-0.642699	-0.881186	0.652839
H216	H	-0.677433	-0.826440	0.636555
H217	H	-0.711754	-0.915733	0.619897
C218	C	0.220831	-0.254068	0.033050
C219	C	0.121066	-0.300891	0.108705
C220	C	0.076599	-0.258094	0.110147
H221	H	0.220345	-0.251082	-0.017598
H222	H	0.258822	-0.196259	0.033373
H223	H	0.083085	-0.358684	0.108374
H224	H	0.121523	-0.303878	0.159365
H225	H	0.114590	-0.200284	0.110470
H226	H	0.076120	-0.255110	0.059495
H227	H	0.008908	-0.289852	0.161481
H228	H	0.767030	-0.498593	-0.032637
C229	C	0.221120	-0.524984	0.032675
C230	C	0.220738	-0.529675	-0.042164
C231	C	0.176617	-0.616799	-0.041160
H232	H	0.153375	-0.561154	0.083884
H233	H	0.259212	-0.544728	0.032897
H234	H	0.182645	-0.509942	-0.042377
H235	H	0.288469	-0.493524	-0.093385
H236	H	0.214709	-0.636542	-0.040938
H237	H	0.108875	-0.652961	0.010053
H238	H	0.176360	-0.619992	-0.091940
C239	C	0.508034	0.033088	-0.254028
C240	C	0.530678	0.108731	-0.229903
C241	C	0.444839	0.110151	-0.186954
H242	H	0.453887	-0.017566	-0.202904
H243	H	0.488602	0.033412	-0.292392
H244	H	0.550096	0.108400	-0.191540
H245	H	0.584811	0.159398	-0.281010
H246	H	0.425408	0.110475	-0.225318
H247	H	0.390698	0.059493	-0.135834
H248	H	0.460195	0.161477	-0.170587
H249	H	0.767042	0.032539	-0.501453
H250	H	0.767034	0.032562	-0.265654
C251	C	0.507773	-0.746160	-0.032792
C252	C	0.428239	-0.821383	0.042043
C253	C	0.342119	-0.864485	0.041041
H254	H	0.522807	-0.762691	-0.084003
H255	H	0.488258	-0.707839	-0.033007
H256	H	0.447751	-0.859697	0.042251
H257	H	0.413175	-0.804876	0.093267
H258	H	0.322604	-0.826164	0.040826
H259	H	0.357163	-0.881010	-0.010173
H260	H	0.288142	-0.915524	0.091819
H261	H	0.767008	-0.265581	-0.265636
H262	H	0.531206	-0.501370	-0.265641
H263	H	0.233044	-0.734394	0.265547
C264	C	0.492357	-0.253830	-0.525068
C265	C	0.571891	-0.178623	-0.529750
C266	C	0.658029	-0.135529	-0.616867
H267	H	0.477349	-0.237281	-0.561259
H268	H	0.511856	-0.292162	-0.544792
H269	H	0.552395	-0.140298	-0.510037
H270	H	0.586930	-0.195147	-0.493578
H271	H	0.677528	-0.173861	-0.636591
H272	H	0.643011	-0.118985	-0.653051
H273	H	0.712006	-0.084501	-0.620054
