data_functionalizedCrystal
_audit_creation_method	'MofGen! by Chris Wilmer'
_symmetry_space_group_name_H-M	'P1'
_symmetry_Int_Tables_number	1
_symmetry_cell_setting	triclinic
loop_
_symmetry_equiv_pos_as_xyz
  x,y,z
_cell_length_a	18.215407
_cell_length_b	14.908178
_cell_length_c	18.215399
_cell_angle_alpha	93.325522
_cell_angle_beta	90.019833
_cell_angle_gamma	93.314324
loop_
_atom_site_label
_atom_site_type_symbol
_atom_site_fract_x
_atom_site_fract_y
_atom_site_fract_z
Zn1	Zn	1.108200	-0.359185	0.399200
Zn2	Zn	1.101021	-0.510066	0.269028
Zn3	Zn	0.985131	-0.359215	0.276146
Zn4	Zn	0.978014	-0.510015	0.392055
O5	O	1.043092	-0.434620	0.334107
O6	O	1.210232	-0.379209	0.381944
O7	O	1.085623	-0.490088	0.166986
O8	O	1.007440	-0.232956	0.298438
O9	O	1.204957	-0.490060	0.286307
O10	O	1.097858	-0.232935	0.388846
O11	O	1.000479	-0.379259	0.172216
O12	O	0.881203	-0.379210	0.291510
O13	O	0.995309	-0.489974	0.495989
O14	O	0.875974	-0.490003	0.376669
O15	O	1.090956	-0.379160	0.501238
O16	O	1.078721	-0.636314	0.279379
O17	O	0.988348	-0.636277	0.369767
C18	C	0.851886	-0.434605	0.334087
C19	C	0.770086	-0.434620	0.334095
C20	C	0.579185	-0.492400	0.378373
C21	C	0.502326	-0.492403	0.378382
C22	C	0.507750	-0.376857	0.289857
C23	C	0.584607	-0.376850	0.289852
C24	C	0.620323	-0.434627	0.334109
C25	C	0.466606	-0.434636	0.334123
C26	C	0.383272	-0.434639	0.334132
C27	C	0.703662	-0.434623	0.334101
C28	C	1.032003	-0.669031	0.323041
C29	C	1.027327	-0.769314	0.318331
C30	C	1.112620	-0.957582	0.403724
C31	C	1.108229	-1.051806	0.399301
C32	C	1.014149	-1.051987	0.305068
C33	C	1.018541	-0.957763	0.309490
C34	C	1.067779	-0.910564	0.358819
C35	C	1.072173	-0.816338	0.363238
C36	C	0.978090	-0.816521	0.269009
C37	C	0.973699	-0.910745	0.264586
C38	C	1.235044	-0.434636	0.334128
C39	C	1.316842	-0.434643	0.334137
C40	C	1.043139	-0.434558	0.526063
C41	C	1.043160	-0.434532	0.607863
C42	C	1.054244	-0.199294	0.345233
C43	C	1.058996	-0.099012	0.349974
C44	C	1.043089	-0.434617	0.142901
C45	C	1.043224	-0.434389	0.061114
C46	C	1.092983	-0.376777	0.798795
C47	C	1.092993	-0.376750	0.875655
C48	C	0.993395	-0.492147	0.870177
C49	C	0.993382	-0.492168	0.793319
C50	C	1.043180	-0.434484	0.757629
C51	C	1.043203	-0.434437	0.911348
C52	C	1.043214	-0.434409	0.994683
C53	C	1.043169	-0.434511	0.674289
H54	H	0.478661	-0.329818	0.253823
H55	H	0.952853	-0.539113	0.899245
Br56	Br	0.446498	-0.570809	0.438461
H57	H	0.952822	-0.539160	0.759801
Br58	Br	0.640443	-0.298428	0.229783
H59	H	0.974059	-1.090433	0.264910
H60	H	0.608262	-0.539444	0.414412
H61	H	1.144740	-1.090084	0.435871
Br62	Br	1.160564	-0.298490	0.750361
Br63	Br	0.917238	-0.752707	0.208055
Br64	Br	1.138998	-0.752282	0.430179
Br65	Br	1.179451	-0.893521	0.470656
H66	H	0.933609	-0.949188	0.224426
Br67	Br	1.160590	-0.298436	0.931519
