data_functionalizedCrystal
_audit_creation_method	'MofGen! by Chris Wilmer'
_symmetry_space_group_name_H-M	'P1'
_symmetry_Int_Tables_number	1
_symmetry_cell_setting	triclinic
loop_
_symmetry_equiv_pos_as_xyz
  x,y,z
_cell_length_a	13.101039
_cell_length_b	16.109301
_cell_length_c	16.109301
_cell_angle_alpha	96.538519
_cell_angle_beta	86.640098
_cell_angle_gamma	86.646051
loop_
_atom_site_label
_atom_site_type_symbol
_atom_site_fract_x
_atom_site_fract_y
_atom_site_fract_z
O1	O	0.085153	-1.107703	0.102280
O2	O	0.335153	-0.857703	0.352280
O3	O	0.585153	-0.607703	0.602280
O4	O	0.835153	-0.357703	0.852280
O5	O	0.085169	-0.865642	0.115579
O6	O	0.335169	-0.615642	0.365579
O7	O	0.585169	-0.365642	0.615579
O8	O	0.835169	-0.115642	0.865579
O9	O	0.085150	-0.993322	-0.012101
O10	O	0.335150	-0.743322	0.237899
O11	O	0.585150	-0.493322	0.487899
O12	O	0.835150	-0.243322	0.737899
O13	O	0.085172	-0.980024	0.229960
O14	O	0.335172	-0.730024	0.479960
O15	O	0.585172	-0.480024	0.729960
O16	O	0.835172	-0.230024	0.979960
O17	O	-0.085278	-0.984161	-0.002925
O18	O	0.164722	-0.734161	0.247075
O19	O	0.414722	-0.484161	0.497075
O20	O	0.664722	-0.234161	0.747075
O21	O	-0.085259	-0.856482	0.124755
O22	O	0.164741	-0.606482	0.374755
O23	O	0.414741	-0.356482	0.624755
O24	O	0.664741	-0.106482	0.874755
O25	O	-0.085276	-1.098543	0.111456
O26	O	0.164724	-0.848543	0.361456
O27	O	0.414724	-0.598543	0.611456
O28	O	0.664724	-0.348543	0.861456
Zn29	Zn	-0.112327	-0.976058	0.119563
Zn30	Zn	0.137673	-0.726058	0.369563
Zn31	Zn	0.387673	-0.476058	0.619563
Zn32	Zn	0.637673	-0.226058	0.869563
Zn33	Zn	0.112220	-0.988127	0.107473
Zn34	Zn	0.362220	-0.738127	0.357473
Zn35	Zn	0.612220	-0.488127	0.607473
Zn36	Zn	0.862220	-0.238127	0.857473
O37	O	-0.085257	-0.970863	0.239136
O38	O	0.164743	-0.720863	0.489136
O39	O	0.414743	-0.470863	0.739136
O40	O	0.664743	-0.220863	0.989136
C41	C	-0.000043	-0.830087	0.119628
C42	C	0.249957	-0.580087	0.369628
C43	C	0.499957	-0.330087	0.619628
C44	C	0.749957	-0.080087	0.869628
C45	C	-0.000037	-0.737792	0.118013
C46	C	0.249963	-0.487792	0.368013
C47	C	0.499963	-0.237792	0.618013
C48	C	0.749963	0.012208	0.868013
N49	N	-0.265574	-0.967826	0.127813
N50	N	-0.015574	-0.717826	0.377813
N51	N	0.234426	-0.467826	0.627813
N52	N	0.484426	-0.217826	0.877813
C53	C	-0.000065	-0.988203	-0.038488
C54	C	0.249935	-0.738203	0.211512
C55	C	0.499935	-0.488203	0.461512
C56	C	0.749935	-0.238203	0.711512
C57	C	-0.000066	-0.986588	-0.130783
C58	C	0.249934	-0.736588	0.119217
C59	C	0.499934	-0.486588	0.369217
C60	C	0.749934	-0.236588	0.619217
C61	C	-0.474615	-0.956627	0.139046
C62	C	-0.224615	-0.706627	0.389046
C63	C	0.025385	-0.456627	0.639046
C64	C	0.275385	-0.206627	0.889046
C65	C	-0.525498	-1.007562	0.087986
C66	C	-0.275498	-0.757562	0.337986
C67	C	-0.025498	-0.507562	0.587986
C68	C	0.224502	-0.257562	0.837986
C69	C	-0.641816	-1.001330	0.094236
C70	C	-0.391816	-0.751330	0.344236
C71	C	-0.141816	-0.501330	0.594236
C72	C	0.108184	-0.251330	0.844236
C73	C	-0.358287	-0.962858	0.132797
C74	C	-0.108287	-0.712858	0.382797
C75	C	0.141713	-0.462858	0.632797
C76	C	0.391713	-0.212858	0.882797
N77	N	0.265467	-0.996365	0.099216
N78	N	0.515467	-0.746365	0.349216
N79	N	0.765467	-0.496365	0.599216
N80	N	1.015467	-0.246365	0.849216
C81	C	-0.000061	-1.134098	0.107407
C82	C	0.249939	-0.884098	0.357407
C83	C	0.499939	-0.634098	0.607407
C84	C	0.749939	-0.384098	0.857407
C85	C	-0.000061	-1.226393	0.109022
C86	C	0.249939	-0.976393	0.359022
C87	C	0.499939	-0.726393	0.609022
C88	C	0.749939	-0.476393	0.859022
C89	C	-0.000042	-0.515520	0.190021
C90	C	0.249958	-0.265520	0.440021
C91	C	0.499958	-0.015520	0.690021
C92	C	0.749958	0.234480	0.940021
C93	C	-0.000049	-0.428799	0.188497
C94	C	0.249951	-0.178799	0.438497
C95	C	0.499951	0.071201	0.688497
C96	C	0.749951	0.321201	0.938497
C97	C	-0.000058	-0.448673	0.037009
C98	C	0.249942	-0.198673	0.287009
C99	C	0.499942	0.051327	0.537009
C100	C	0.749942	0.301327	0.787009
C101	C	-0.000059	-0.535391	0.038534
C102	C	0.249941	-0.285391	0.288534
C103	C	0.499941	-0.035391	0.538534
C104	C	0.749941	0.214609	0.788534
C105	C	-0.000046	-0.568812	0.115042
C106	C	0.249954	-0.318812	0.365042
C107	C	0.499954	-0.068812	0.615042
C108	C	0.749954	0.181188	0.865042
C109	C	-0.000052	-0.395373	0.111993
C110	C	0.249948	-0.145373	0.361993
C111	C	0.499948	0.104627	0.611993
C112	C	0.749948	0.354627	0.861993
C113	C	-0.000059	-0.301347	0.110340
C114	C	0.249941	-0.051347	0.360340
C115	C	0.499941	0.198653	0.610340
C116	C	0.749941	0.448653	0.860340
C117	C	-0.000040	-0.662845	0.116695
C118	C	0.249960	-0.412845	0.366695
C119	C	0.499960	-0.162845	0.616695
C120	C	0.749960	0.087155	0.866695
C121	C	-0.000055	-1.058596	-0.353056
C122	C	0.249945	-0.808596	-0.103056
C123	C	0.499945	-0.558596	0.146944
C124	C	0.749945	-0.308596	0.396944
C125	C	-0.000046	-1.057072	-0.439777
C126	C	0.249954	-0.807072	-0.189777
C127	C	0.499954	-0.557072	0.060223
C128	C	0.749954	-0.307072	0.310223
C129	C	-0.000040	-0.905584	-0.419903
C130	C	0.249960	-0.655584	-0.169903
C131	C	0.499960	-0.405584	0.080097
C132	C	0.749960	-0.155584	0.330097
C133	C	-0.000041	-0.907109	-0.333184
C134	C	0.249959	-0.657109	-0.083184
C135	C	0.499959	-0.407109	0.166816
C136	C	0.749959	-0.157109	0.416816
C137	C	-0.000054	-0.983617	-0.299763
C138	C	0.249946	-0.733617	-0.049763
C139	C	0.499946	-0.483617	0.200237
C140	C	0.749946	-0.233617	0.450237
C141	C	-0.000044	-0.980569	-0.473202
C142	C	0.249956	-0.730569	-0.223202
C143	C	0.499956	-0.480569	0.026798
C144	C	0.749956	-0.230569	0.276798
C145	C	-0.000035	-0.978916	-0.567229
C146	C	0.249965	-0.728916	-0.317229
C147	C	0.499965	-0.478916	-0.067229
C148	C	0.749965	-0.228916	0.182771
C149	C	-0.000061	-0.985270	-0.205730
C150	C	0.249939	-0.735270	0.044270
C151	C	0.499939	-0.485270	0.294270
C152	C	0.749939	-0.235270	0.544270
C153	C	-0.000040	-0.975982	0.265523
C154	C	0.249960	-0.725982	0.515523
C155	C	0.499960	-0.475982	0.765523
C156	C	0.749960	-0.225982	1.015523
C157	C	-0.000032	-0.977598	0.357818
C158	C	0.249968	-0.727598	0.607818
C159	C	0.499968	-0.477598	0.857818
C160	C	0.749968	-0.227598	1.107818
H161	H	-0.481703	-1.055848	0.039579
H162	H	-0.231703	-0.805848	0.289579
H163	H	0.018297	-0.555848	0.539579
H164	H	0.268297	-0.305848	0.789579
H165	H	-0.000065	-0.578785	-0.022527
H166	H	0.249935	-0.328785	0.227473
H167	H	0.499935	-0.078785	0.477473
H168	H	0.749935	0.171215	0.727473
H169	H	-0.000063	-1.120894	-0.325848
H170	H	0.249937	-0.870894	-0.075848
H171	H	0.499937	-0.620894	0.174152
H172	H	0.749937	-0.370894	0.424152
H173	H	-0.518405	-0.908345	0.187451
H174	H	-0.268405	-0.658345	0.437451
H175	H	-0.018405	-0.408345	0.687451
H176	H	0.231595	-0.158345	0.937451
C177	C	-0.000068	-1.206962	-0.450704
C178	C	0.249932	-0.956962	-0.200704
C179	C	0.499932	-0.706962	0.049296
C180	C	0.749932	-0.456962	0.299296
C181	C	-0.000054	-1.139492	-0.498356
C182	C	0.249946	-0.889492	-0.248356
C183	C	0.499946	-0.639492	0.001644
C184	C	0.749946	-0.389492	0.251644
H185	H	-0.000079	-1.257845	-0.486870
H186	H	0.249921	-1.007845	-0.236870
H187	H	0.499921	-0.757845	0.013130
H188	H	0.749921	-0.507845	0.263130
H189	H	0.059359	-1.207601	-0.419664
H190	H	0.309359	-0.957601	-0.169664
H191	H	0.559359	-0.707601	0.080336
H192	H	0.809359	-0.457601	0.330336
H193	H	-0.059506	-1.201203	-0.413269
H194	H	0.190494	-0.951203	-0.163269
H195	H	0.440494	-0.701203	0.086731
H196	H	0.690494	-0.451203	0.336731
H197	H	0.059388	-1.145248	-0.535787
H198	H	0.309388	-0.895248	-0.285787
H199	H	0.559388	-0.645248	-0.035787
H200	H	0.809388	-0.395248	0.214213
H201	H	-0.059488	-1.138853	-0.529411
H202	H	0.190512	-0.888853	-0.279411
H203	H	0.440512	-0.638853	-0.029411
H204	H	0.690512	-0.388853	0.220589
H205	H	-0.000039	-0.542727	0.252319
H206	H	0.249961	-0.292727	0.502319
H207	H	0.499961	-0.042727	0.752319
H208	H	0.749961	0.207273	1.002319
C209	C	-0.000024	-0.417872	0.338386
C210	C	0.249976	-0.167872	0.588386
C211	C	0.499976	0.082128	0.838386
C212	C	0.749976	0.332128	1.088386
C213	C	-0.000038	-0.370219	0.270916
C214	C	0.249962	-0.120219	0.520916
C215	C	0.499962	0.129781	0.770916
C216	C	0.749962	0.379781	1.020916
H217	H	-0.000011	-0.381706	0.389269
H218	H	0.249989	-0.131706	0.639269
H219	H	0.499989	0.118294	0.889269
H220	H	0.749989	0.368294	1.139269
H221	H	-0.059452	-0.448915	0.339031
H222	H	0.190548	-0.198915	0.589031
H223	H	0.440548	0.051085	0.839031
H224	H	0.690548	0.301085	1.089031
H225	H	0.059413	-0.455303	0.332622
H226	H	0.309413	-0.205303	0.582622
H227	H	0.559413	0.044697	0.832622
H228	H	0.809413	0.294697	1.082622
H229	H	-0.059479	-0.332793	0.276678
H230	H	0.190521	-0.082793	0.526678
H231	H	0.440521	0.167207	0.776678
H232	H	0.690521	0.417207	1.026678
H233	H	0.059396	-0.339162	0.270272
H234	H	0.309396	-0.089162	0.520272
H235	H	0.559396	0.160838	0.770272
H236	H	0.809396	0.410838	1.020272
H237	H	-0.000031	-0.843293	-0.447125
H238	H	0.249969	-0.593293	-0.197125
H239	H	0.499969	-0.343293	0.052875
H240	H	0.749969	-0.093293	0.302875
C241	C	-0.000051	-0.324563	-0.032594
C242	C	0.249949	-0.074563	0.217406
C243	C	0.499949	0.175437	0.467406
C244	C	0.749949	0.425437	0.717406
C245	C	-0.000059	-0.411933	-0.047087
C246	C	0.249941	-0.161933	0.202913
C247	C	0.499941	0.088067	0.452913
C248	C	0.749941	0.338067	0.702913
H249	H	-0.000043	-0.301886	-0.084514
H250	H	0.249957	-0.051886	0.165486
H251	H	0.499957	0.198114	0.415486
H252	H	0.749957	0.448114	0.665486
H253	H	-0.059478	-0.303081	0.001467
H254	H	0.190522	-0.053081	0.251467
H255	H	0.440522	0.196919	0.501467
H256	H	0.690522	0.446919	0.751467
H257	H	0.059386	-0.309471	-0.004919
H258	H	0.309386	-0.059471	0.245081
H259	H	0.559386	0.190529	0.495081
H260	H	0.809386	0.440529	0.745081
H261	H	-0.059501	-0.427025	-0.074757
H262	H	0.190499	-0.177025	0.175243
H263	H	0.440499	0.072975	0.425243
H264	H	0.690499	0.322975	0.675243
H265	H	0.059374	-0.433424	-0.081162
H266	H	0.309374	-0.183424	0.168838
H267	H	0.559374	0.066576	0.418838
H268	H	0.809374	0.316576	0.668838
C269	C	-0.000045	-0.757209	-0.322241
C270	C	0.249955	-0.507209	-0.072241
C271	C	0.499955	-0.257209	0.177759
C272	C	0.749955	-0.007209	0.427759
C273	C	-0.000043	-0.824685	-0.274596
C274	C	0.249957	-0.574685	-0.024596
C275	C	0.499957	-0.324685	0.225404
C276	C	0.749957	-0.074685	0.475404
H277	H	-0.000050	-0.706328	-0.286070
H278	H	0.249950	-0.456328	-0.036070
H279	H	0.499950	-0.206328	0.213930
H280	H	0.749950	0.043672	0.463930
H281	H	0.059383	-0.762955	-0.359672
H282	H	0.309383	-0.512955	-0.109672
H283	H	0.559383	-0.262955	0.140328
H284	H	0.809383	-0.012955	0.390328
H285	H	-0.059482	-0.756576	-0.353284
H286	H	0.190518	-0.506576	-0.103284
H287	H	0.440518	-0.256576	0.146716
H288	H	0.690518	-0.006576	0.396716
H289	H	0.059397	-0.825322	-0.243558
H290	H	0.309397	-0.575322	0.006442
H291	H	0.559397	-0.325322	0.256442
H292	H	0.809397	-0.075322	0.506442
H293	H	-0.059478	-0.818937	-0.237151
H294	H	0.190522	-0.568937	0.012849
H295	H	0.440522	-0.318937	0.262849
H296	H	0.690522	-0.068937	0.512849
