data_functionalizedCrystal
_audit_creation_method	'MofGen! by Chris Wilmer'
_symmetry_space_group_name_H-M	'P1'
_symmetry_Int_Tables_number	1
_symmetry_cell_setting	triclinic
loop_
_symmetry_equiv_pos_as_xyz
  x,y,z
_cell_length_a	12.759401
_cell_length_b	12.645324
_cell_length_c	12.759400
_cell_angle_alpha	90.033283
_cell_angle_beta	89.986272
_cell_angle_gamma	89.980348
loop_
_atom_site_label
_atom_site_type_symbol
_atom_site_fract_x
_atom_site_fract_y
_atom_site_fract_z
Zn1	Zn	1.606267	-0.599341	0.418213
Zn2	Zn	1.606158	-0.422077	0.593937
Zn3	Zn	1.430565	-0.422096	0.418270
Zn4	Zn	1.430557	-0.599302	0.593848
O5	O	1.518387	-0.510704	0.506067
O6	O	1.753273	-0.575835	0.441537
O7	O	1.582823	-0.273732	0.570696
O8	O	1.453921	-0.445632	0.271242
O9	O	1.753193	-0.445600	0.570641
O10	O	1.583009	-0.575854	0.271200
O11	O	1.453816	-0.273746	0.441634
O12	O	1.283543	-0.445595	0.441547
O13	O	1.453908	-0.747655	0.570488
O14	O	1.283537	-0.575787	0.570543
O15	O	1.583001	-0.747684	0.441450
O16	O	1.582815	-0.445562	0.740947
O17	O	1.453802	-0.575769	0.740881
C18	C	1.245419	-0.510689	0.506043
C19	C	1.128643	-0.510708	0.506057
C20	C	1.073816	-0.578627	0.438960
C21	C	0.964091	-0.578634	0.438980
C22	C	0.964032	-0.442800	0.573204
C23	C	1.073754	-0.442789	0.573178
C24	C	1.128705	-0.646547	0.371839
C25	C	1.073877	-0.714472	0.304737
C26	C	0.964153	-0.714478	0.304757
C27	C	0.909256	-0.646560	0.371879
C28	C	1.518466	-0.787210	0.505953
C29	C	1.518499	-0.905040	0.505904
C30	C	1.600028	-1.072622	0.424962
C31	C	1.599766	-0.950062	0.424669
C32	C	1.407814	-0.949525	0.475816
C33	C	1.408309	-1.072124	0.475201
C34	C	1.546758	-1.072233	0.617054
C35	C	1.549179	-0.949628	0.616495
C36	C	1.792420	-0.510720	0.506093
C37	C	1.909197	-0.510726	0.506104
C38	C	1.518324	-0.510682	0.779035
C39	C	1.518394	-0.510708	0.895811
C40	C	1.518369	-0.235274	0.506105
C41	C	1.518539	-0.117445	0.505858
C42	C	1.518478	-0.510750	0.232034
C43	C	1.518517	-0.510769	0.115257
C44	C	1.585645	-0.442984	0.950673
C45	C	1.585710	-0.443017	1.060397
C46	C	1.451262	-0.578500	1.060388
C47	C	1.451204	-0.578472	0.950666
C48	C	1.652835	-0.375220	0.895818
C49	C	1.720092	-0.307490	0.950679
C50	C	1.720156	-0.307523	1.060403
C51	C	1.652964	-0.375286	1.115266
H52	H	1.681841	-0.919986	0.443513
C53	C	1.659219	-0.910341	0.647152
N54	N	1.742099	-0.880742	0.670241
H55	H	1.118581	-0.769762	0.250082
H56	H	1.487410	-1.101228	0.677330
H57	H	0.919326	-0.387506	0.627854
H58	H	1.118395	-0.387483	0.627815
H59	H	1.396557	-0.633669	1.105066
H60	H	1.774803	-0.252326	0.906004
H61	H	1.653031	-0.375315	1.204610
C62	C	1.249403	-0.646541	0.371807
N63	N	1.340313	-0.646535	0.371782
C64	C	0.788556	-0.646569	0.371895
N65	N	0.697646	-0.646580	0.371909
C66	C	1.711280	-1.112449	0.450102
N67	N	1.795078	-1.142450	0.469043
C68	C	1.575109	-1.114261	0.314294
N69	N	1.556337	-1.145624	0.230939
C70	C	1.323552	-0.910116	0.552960
N71	N	1.260086	-0.880428	0.611065
H72	H	1.652788	-0.375183	0.806475
C73	C	0.903846	-0.789193	0.230941
N74	N	0.858425	-0.845475	0.175345
C75	C	1.794140	-0.233021	1.120748
N76	N	1.849862	-0.176899	1.166197
C77	C	1.574515	-0.910461	0.313390
N78	N	1.555490	-0.880635	0.229571
C79	C	1.377208	-0.652956	0.890315
N80	N	1.321469	-0.709056	0.844859
C81	C	1.376035	-1.110781	0.365380
N82	N	1.351742	-1.139892	0.282655
C83	C	1.323489	-1.112182	0.551331
N84	N	1.259597	-1.142349	0.608665
H85	H	1.383456	-0.918833	0.395440
H86	H	1.626059	-1.103213	0.644445
C87	C	1.474818	-0.908230	0.702305
N88	N	1.418798	-0.877053	0.766934
