data_functionalizedCrystal
_audit_creation_method	'MofGen! by Chris Wilmer'
_symmetry_space_group_name_H-M	'P1'
_symmetry_Int_Tables_number	1
_symmetry_cell_setting	triclinic
loop_
_symmetry_equiv_pos_as_xyz
  x,y,z
_cell_length_a	11.792254
_cell_length_b	10.268362
_cell_length_c	10.654549
_cell_angle_alpha	90.004294
_cell_angle_beta	84.341687
_cell_angle_gamma	90.004525
loop_
_atom_site_label
_atom_site_type_symbol
_atom_site_fract_x
_atom_site_fract_y
_atom_site_fract_z
O1	O	1.507298	0.108296	0.172212
O2	O	1.177000	0.108299	0.189936
O3	O	1.349743	0.108292	-0.001686
O4	O	1.334554	0.108303	0.363834
O5	O	1.349728	-0.108309	-0.001694
O6	O	1.176984	-0.108302	0.189928
O7	O	1.507283	-0.108304	0.172204
Cu8	Cu	1.342132	-0.128081	0.181065
Cu9	Cu	1.342150	0.128075	0.181075
O10	O	1.334539	-0.108298	0.363826
C11	C	1.134699	-0.000001	0.188815
C12	C	1.008678	-0.000000	0.185474
C13	C	0.906335	0.000005	0.182758
C14	C	0.777941	0.000006	0.179363
N15	N	1.342128	-0.308246	0.181058
C16	C	1.342144	-0.573917	0.181072
C17	C	1.342132	-0.426079	0.181068
C18	C	1.549584	-0.000002	0.173325
C19	C	1.675604	0.000006	0.176666
C20	C	1.348620	-0.000007	-0.048485
C21	C	1.345284	-0.000003	-0.187919
N22	N	1.342163	0.308241	0.181072
C23	C	1.443849	0.000005	-0.398708
C24	C	1.446993	-0.000005	-0.267696
C25	C	1.240425	-0.000004	-0.239160
C26	C	1.237283	-0.000003	-0.370170
C27	C	1.575363	-0.075896	-0.105800
C28	C	1.680220	-0.075877	-0.054563
C29	C	1.770394	0.000022	-0.109675
C30	C	1.755716	0.075933	-0.216021
C31	C	1.650858	0.075926	-0.267251
C32	C	1.560688	-0.000003	-0.212142
C33	C	1.108920	0.075899	-0.532069
C34	C	1.004060	0.075901	-0.583301
C35	C	0.913876	0.000010	-0.528191
C36	C	0.928543	-0.075882	-0.421839
C37	C	1.033402	-0.075883	-0.370607
C38	C	1.123586	0.000005	-0.425726
C39	C	1.335662	0.000004	0.410625
C40	C	1.338998	0.000009	0.550059
H41	H	1.526673	0.000014	-0.463654
O42	O	1.635016	0.157786	-0.381946
H43	H	1.612733	0.093778	-0.459800
H44	H	1.501946	-0.137717	-0.060926
H45	H	1.045342	-0.137692	-0.284014
H46	H	0.855107	-0.137675	-0.376963
H47	H	1.855770	0.000038	-0.067948
O48	O	1.130719	-0.000005	-0.153124
H49	H	1.150517	0.000007	-0.053416
O50	O	0.800774	0.000003	-0.583447
H51	H	0.805719	0.065522	-0.666660
O52	O	0.988236	0.157751	-0.698015
H53	H	1.002800	0.261774	-0.676252
O54	O	1.852978	0.157800	-0.275468
H55	H	1.928362	0.145041	-0.221988
O56	O	1.696067	-0.157772	0.060116
H57	H	1.615755	-0.210585	0.089815
O58	O	1.206196	0.157760	-0.591506
H59	H	1.178374	0.210551	-0.674051
