data_functionalizedCrystal
_audit_creation_method	'MofGen! by Chris Wilmer'
_symmetry_space_group_name_H-M	'P1'
_symmetry_Int_Tables_number	1
_symmetry_cell_setting	triclinic
loop_
_symmetry_equiv_pos_as_xyz
  x,y,z
_cell_length_a	14.908742
_cell_length_b	14.908178
_cell_length_c	12.759393
_cell_angle_alpha	86.668139
_cell_angle_beta	93.280459
_cell_angle_gamma	90.210560
loop_
_atom_site_label
_atom_site_type_symbol
_atom_site_fract_x
_atom_site_fract_y
_atom_site_fract_z
Zn1	Zn	1.353962	-0.437235	-0.473452
Zn2	Zn	1.345183	-0.587627	-0.288241
Zn3	Zn	1.203595	-0.428608	-0.308489
Zn4	Zn	1.194907	-0.578891	-0.474582
O5	O	1.274412	-0.508090	-0.386191
O6	O	1.478617	-0.464452	-0.439936
O7	O	1.326363	-0.566578	-0.143906
O8	O	1.230852	-0.303918	-0.338373
O9	O	1.472167	-0.574944	-0.303863
O10	O	1.341325	-0.310257	-0.459570
O11	O	1.222339	-0.449747	-0.158782
O12	O	1.076623	-0.441276	-0.339469
O13	O	1.216043	-0.560055	-0.621454
O14	O	1.070239	-0.551689	-0.461497
O15	O	1.332900	-0.455981	-0.620623
O16	O	1.317938	-0.712302	-0.304959
O17	O	1.207531	-0.705884	-0.441863
C18	C	1.040807	-0.494599	-0.402803
C19	C	0.940869	-0.488849	-0.409934
C20	C	0.803359	-0.423319	-0.490920
C21	C	0.897261	-0.428714	-0.484226
C22	C	0.890570	-0.543595	-0.342332
C23	C	0.796669	-0.538200	-0.349026
C24	C	0.753067	-0.478059	-0.423321
C25	C	0.659164	-0.472661	-0.430009
C26	C	0.652475	-0.587546	-0.288121
C27	C	0.746376	-0.592941	-0.281428
C28	C	1.260863	-0.741721	-0.371358
C29	C	1.255150	-0.841675	-0.365041
C30	C	1.359362	-1.035942	-0.479525
C31	C	1.353997	-1.129858	-0.473593
C32	C	1.239050	-1.123421	-0.347253
C33	C	1.244415	-1.029506	-0.353185
C34	C	1.304574	-0.985770	-0.419322
C35	C	1.309944	-0.891854	-0.425247
C36	C	1.194993	-0.885419	-0.298913
C37	C	1.189627	-0.979334	-0.292981
C38	C	1.508928	-0.521635	-0.369515
C39	C	1.608865	-0.527407	-0.362408
C40	C	1.274482	-0.508005	-0.660226
C41	C	1.274512	-0.507969	-0.777003
C42	C	1.288037	-0.273548	-0.401104
C43	C	1.293843	-0.173600	-0.407458
C44	C	1.335385	-0.453736	-0.941166
C45	C	1.335366	-0.453770	-0.831441
C46	C	1.213680	-0.562145	-0.832294
C47	C	1.213704	-0.562115	-0.942017
C48	C	1.274397	-0.508113	-0.113223
C49	C	1.274556	-0.507906	0.003550
H50	H	0.623665	-0.423687	-0.490500
H51	H	1.190067	-1.159047	-0.293413
H52	H	1.384933	-0.409595	-0.985483
F53	F	1.125599	-1.025890	-0.222605
F54	F	1.400110	-0.396117	-0.772608
H55	H	1.408352	-1.000333	-0.533368
H56	H	0.938205	-0.384139	-0.539272
F57	F	1.373972	-0.845308	-0.495631
H58	H	0.781890	-0.641908	-0.220941
H59	H	1.150383	-0.844558	-0.249888
H60	H	0.926087	-0.592562	-0.281848
H61	H	1.164169	-0.606232	-0.987030
F62	F	0.598943	-0.645804	-0.216169
F63	F	0.756954	-0.359304	-0.569978
F64	F	1.412307	-1.183251	-0.537673
F65	F	1.148917	-0.619831	-0.774354
