data_functionalizedCrystal
_audit_creation_method	'MofGen! by Chris Wilmer'
_symmetry_space_group_name_H-M	'P1'
_symmetry_Int_Tables_number	1
_symmetry_cell_setting	triclinic
loop_
_symmetry_equiv_pos_as_xyz
  x,y,z
_cell_length_a	29.839131
_cell_length_b	29.839134
_cell_length_c	12.759393
_cell_angle_alpha	89.969702
_cell_angle_beta	89.961905
_cell_angle_gamma	90.036281
loop_
_atom_site_label
_atom_site_type_symbol
_atom_site_fract_x
_atom_site_fract_y
_atom_site_fract_z
Zn1	Zn	-0.178887	0.686757	-0.594297
Zn2	Zn	-0.254026	0.686678	-0.418598
Zn3	Zn	-0.178904	0.611628	-0.418597
Zn4	Zn	-0.253984	0.611587	-0.594200
O5	O	-0.216451	0.649162	-0.506423
O6	O	-0.188865	0.749613	-0.571031
O7	O	-0.244086	0.676707	-0.271577
O8	O	-0.116035	0.621645	-0.441944
O9	O	-0.244069	0.749555	-0.441946
O10	O	-0.116023	0.676841	-0.571031
O11	O	-0.188894	0.621568	-0.271576
O12	O	-0.188853	0.548756	-0.441850
O13	O	-0.243998	0.621574	-0.741234
O14	O	-0.244014	0.548725	-0.570864
O15	O	-0.188825	0.676801	-0.741305
O16	O	-0.316888	0.676667	-0.441851
O17	O	-0.316857	0.621498	-0.570865
C18	C	-0.216432	0.532440	-0.506347
C19	C	-0.216434	0.482505	-0.506340
C20	C	-0.245215	0.172856	-0.573518
C21	C	-0.245228	-0.014817	-0.573565
O22	O	-0.269678	-0.039088	-0.630638
N23	N	-0.216467	-0.038280	-0.506502
C24	C	-0.187699	-0.014821	-0.439427
O25	O	-0.163233	-0.039083	-0.382395
C26	C	-0.187684	0.172851	-0.439387
C27	C	-0.216450	0.196311	-0.506447
C28	C	-0.273979	0.196316	-0.640574
C29	C	-0.273977	0.243231	-0.640557
C30	C	-0.245212	0.266687	-0.573486
C31	C	-0.216449	0.243227	-0.506430
C32	C	-0.158914	0.196309	-0.372318
C33	C	-0.158912	0.243230	-0.372316
C34	C	-0.187678	0.266690	-0.439376
C35	C	-0.187682	0.313598	-0.439342
N36	N	-0.216443	0.337060	-0.506405
C37	C	-0.245208	0.313604	-0.573477
C38	C	-0.187709	-0.113351	-0.439452
C39	C	-0.187713	-0.160269	-0.439460
C40	C	-0.245242	-0.160263	-0.573600
C41	C	-0.245240	-0.113344	-0.573585
C42	C	-0.216470	-0.089889	-0.506515
C43	C	-0.245202	0.412130	-0.573437
C44	C	-0.245199	0.459050	-0.573411
C45	C	-0.187669	0.459039	-0.439276
C46	C	-0.187673	0.412124	-0.439297
C47	C	-0.216442	0.388670	-0.506386
O48	O	-0.163241	0.337897	-0.382307
O49	O	-0.269663	0.337875	-0.630518
C50	C	-0.245217	0.125940	-0.573535
C51	C	-0.216454	0.102480	-0.506479
C52	C	-0.187689	0.125936	-0.439408
C53	C	-0.216458	0.055563	-0.506488
C54	C	-0.245223	0.032107	-0.573560
C55	C	-0.273984	0.055569	-0.640623
C56	C	-0.273982	0.102485	-0.640607
C57	C	-0.158928	0.102474	-0.372345
C58	C	-0.158932	0.055558	-0.372366
C59	C	-0.187697	0.032103	-0.439437
C60	C	-0.333173	0.649081	-0.506371
C61	C	-0.383108	0.649088	-0.506384
C62	C	-0.692754	0.677941	-0.439344
C63	C	-0.880427	0.677997	-0.439384
O64	O	-0.904695	0.702464	-0.382344
N65	N	-0.903893	0.649256	-0.506502
C66	C	-0.880437	0.620501	-0.573619
O67	O	-0.904702	0.596059	-0.630716
C68	C	-0.692765	0.620448	-0.573583
C69	C	-0.669302	0.649188	-0.506453
C70	C	-0.669291	0.706679	-0.372220
C71	C	-0.622376	0.706663	-0.372207
C72	C	-0.598923	0.677909	-0.439316
C73	C	-0.622386	0.649172	-0.506440
C74	C	-0.669310	0.591696	-0.640705
C75	C	-0.622389	0.591686	-0.640692
C76	C	-0.598926	0.620426	-0.573562
C77	C	-0.552018	0.620402	-0.573536
N78	N	-0.528553	0.649143	-0.506418
C79	C	-0.552006	0.677897	-0.439308
C80	C	-0.978967	0.620530	-0.573632
C81	C	-1.025885	0.620543	-0.573640
C82	C	-1.025873	0.678039	-0.439406
C83	C	-0.978954	0.678024	-0.439394
C84	C	-0.955502	0.649271	-0.506514
C85	C	-0.453480	0.677861	-0.439284
C86	C	-0.406560	0.677841	-0.439274
C87	C	-0.406577	0.620347	-0.573511
C88	C	-0.453492	0.620365	-0.573518
C89	C	-0.476943	0.649125	-0.506402
O90	O	-0.527722	0.595951	-0.630555
O91	O	-0.527733	0.702342	-0.382237
C92	C	-0.739670	0.677957	-0.439357
C93	C	-0.763133	0.649219	-0.506481
C94	C	-0.739680	0.620466	-0.573590
C95	C	-0.810050	0.649232	-0.506488
C96	C	-0.833503	0.677985	-0.439379
C97	C	-0.810038	0.706726	-0.372261
C98	C	-0.763122	0.706710	-0.372247
C99	C	-0.763145	0.591725	-0.640708
C100	C	-0.810061	0.591743	-0.640715
C101	C	-0.833513	0.620496	-0.573606
C102	C	-0.099272	0.649256	-0.506498
C103	C	-0.049338	0.649296	-0.506530
C104	C	-0.216470	0.766341	-0.506500
C105	C	-0.216478	0.816275	-0.506532
C106	C	-0.216405	0.649192	-0.780456
C107	C	-0.216385	0.649204	-0.897233
C108	C	-0.187642	0.620506	-0.952101
C109	C	-0.187628	0.620519	-1.061825
C110	C	-0.245104	0.677934	-1.061804
C111	C	-0.245119	0.677917	-0.952082
C112	C	-0.154457	0.587359	-0.952114
C113	C	-0.154444	0.587373	-1.061838
C114	C	-0.216464	0.649159	-0.233456
C115	C	-0.216357	0.649234	-0.116679
H116	H	-0.135481	0.262325	-0.317704
H117	H	-1.044976	0.701451	-0.384763
H118	H	-0.472597	0.596964	-0.628184
H119	H	-0.119645	0.596718	-1.091649
O120	O	-0.381279	0.589334	-0.645894
H121	H	-0.359870	0.609426	-0.699392
H122	H	-0.166895	0.554314	-1.095843
H123	H	-0.297407	0.036464	-0.695232
O124	O	-0.694606	0.560699	-0.713120
H125	H	-0.716016	0.537852	-0.666060
H126	H	-0.268626	0.478149	-0.628021
H127	H	-0.268531	0.701280	-0.907413
H128	H	-0.268627	0.393040	-0.628069
H129	H	-0.121414	0.599845	-0.918113
H130	H	-0.268664	-0.179368	-0.628213
O131	O	-0.156690	-0.185571	-0.367127
H132	H	-0.136685	-0.161374	-0.320499
H133	H	-0.744022	0.730113	-0.317584
H134	H	-0.387458	0.701244	-0.384605
O135	O	-0.597076	0.737668	-0.299812
H136	H	-0.575738	0.717574	-0.246285
H137	H	-1.044985	0.597136	-0.628294
H138	H	-0.164281	-0.094259	-0.384830
H139	H	-0.688382	0.730096	-0.317571
H140	H	-0.744054	0.568311	-0.695359
O141	O	-0.156647	0.484345	-0.366936
H142	H	-0.136646	0.460153	-0.320297
O143	O	-0.953648	0.709025	-0.367002
H144	H	-0.977843	0.729022	-0.320347
H145	H	-0.135491	0.177216	-0.317708
O146	O	-0.276095	0.708898	-1.120969
H147	H	-0.296088	0.728848	-1.064379
O148	O	-0.305004	0.127786	-0.712946
H149	H	-0.325000	0.103587	-0.759590
H150	H	-0.135508	0.036461	-0.317748
H151	H	-0.163771	0.552552	-0.922316
O152	O	-0.156650	0.386816	-0.366969
H153	H	-0.136646	0.411010	-0.320331
H154	H	-0.135503	0.121566	-0.317726
H155	H	-0.829141	0.730137	-0.317615
H156	H	-0.829160	0.568336	-0.695380
H157	H	-0.297401	0.262328	-0.695167
H158	H	-0.297403	0.177223	-0.695197
H159	H	-0.268663	-0.094246	-0.628193
H160	H	-0.472567	0.701282	-0.384634
H161	H	-0.959876	0.597115	-0.628291
O162	O	-0.597093	0.560668	-0.713074
H163	H	-0.621294	0.540684	-0.759741
