data_functionalizedCrystal
_audit_creation_method	'MofGen! by Chris Wilmer'
_symmetry_space_group_name_H-M	'P1'
_symmetry_Int_Tables_number	1
_symmetry_cell_setting	triclinic
loop_
_symmetry_equiv_pos_as_xyz
  x,y,z
_cell_length_a	10.065918
_cell_length_b	10.908937
_cell_length_c	10.967953
_cell_angle_alpha	72.684254
_cell_angle_beta	92.224360
_cell_angle_gamma	78.564768
loop_
_atom_site_label
_atom_site_type_symbol
_atom_site_fract_x
_atom_site_fract_y
_atom_site_fract_z
O1	O	-0.154586	1.725199	-0.174907
O2	O	-0.132314	1.348871	-0.080161
O3	O	-0.185471	1.551910	-0.306221
O4	O	-0.101429	1.522161	0.051154
O5	O	0.035647	1.518924	-0.331183
O6	O	0.088803	1.315886	-0.105122
O7	O	0.066531	1.692213	-0.199869
Zn8	Zn	0.112774	1.498813	-0.156459
Zn9	Zn	-0.178557	1.542272	-0.123570
O10	O	0.119688	1.489175	0.026192
C11	C	-0.019674	1.284307	-0.083787
C12	C	-0.013477	1.141069	-0.057418
N13	N	0.311600	1.469162	-0.178907
C14	C	-0.085505	1.535745	-0.363735
C15	C	-0.117069	1.536709	-0.497916
N16	N	-0.377386	1.571934	-0.101134
C17	C	0.543656	1.509148	-0.148662
C18	C	0.390556	1.531956	-0.131372
C19	C	-0.046112	1.756778	-0.196242
C20	C	-0.052318	1.900017	-0.222610
C21	C	-0.036102	2.094563	-0.153635
C22	C	-0.029689	1.946518	-0.126380
C23	C	-0.049199	1.521038	-0.709354
C24	C	-0.016581	1.520047	-0.570672
C25	C	0.019720	1.505340	0.083706
C26	C	0.051274	1.504378	0.217888
H27	H	0.589401	1.438515	-0.202160
H28	H	0.161440	1.489388	-0.741734
Br29	Br	0.010495	1.830221	0.044564
H30	H	-0.060226	2.164351	-0.256186
Br31	Br	0.167051	1.495064	-0.503394
H32	H	0.357338	1.398519	-0.232403
Br33	Br	0.314328	1.649713	-0.042223
Br34	Br	-0.092542	2.016317	-0.393550
Br35	Br	0.546381	1.689686	-0.011989
H36	H	-0.159366	1.536042	-0.749737
Br37	Br	0.026706	2.024769	0.113518
H38	H	-0.227244	1.551712	-0.538291
