data_functionalizedCrystal
_audit_creation_method	'MofGen! by Chris Wilmer'
_symmetry_space_group_name_H-M	'P1'
_symmetry_Int_Tables_number	1
_symmetry_cell_setting	triclinic
loop_
_symmetry_equiv_pos_as_xyz
  x,y,z
_cell_length_a	26.455835
_cell_length_b	26.455273
_cell_length_c	26.451828
_cell_angle_alpha	60.005170
_cell_angle_beta	60.010757
_cell_angle_gamma	59.993435
loop_
_atom_site_label
_atom_site_type_symbol
_atom_site_fract_x
_atom_site_fract_y
_atom_site_fract_z
O1	O	0.069940	-0.738516	0.617604
O2	O	0.569940	-0.238516	1.117604
O3	O	0.026299	-0.574986	0.497618
O4	O	0.526299	-0.074986	0.997618
O5	O	0.129847	-0.678463	0.497546
O6	O	0.629847	-0.178463	0.997546
O7	O	-0.033607	-0.635040	0.617676
O8	O	0.466393	-0.135040	1.117676
O9	O	0.164197	-0.644116	0.531822
O10	O	0.664197	-0.144116	1.031822
O11	O	0.060649	-0.540639	0.531894
O12	O	0.560649	-0.040639	1.031894
O13	O	0.104290	-0.704170	0.651880
O14	O	0.604290	-0.204170	1.151880
Cu15	Cu	0.085606	-0.619268	0.595016
Cu16	Cu	0.585606	-0.119268	1.095016
Cu17	Cu	0.044984	-0.659887	0.554481
Cu18	Cu	0.544984	-0.159887	1.054481
O19	O	0.000742	-0.600693	0.651952
O20	O	0.500742	-0.100693	1.151952
N21	N	0.114179	-0.590703	0.623530
N22	N	0.614179	-0.090703	1.123530
N23	N	0.016416	-0.688458	0.525968
N24	N	0.516416	-0.188458	1.025968
C25	C	0.157553	-0.547535	0.933368
C26	C	0.657553	-0.047535	1.433368
C27	C	0.424104	-0.547506	0.666656
C28	C	0.924104	-0.047506	1.166656
C29	C	0.157413	-0.547503	0.666729
C30	C	0.657413	-0.047503	1.166729
C31	C	0.157397	-0.280846	0.666749
C32	C	0.657397	0.219154	1.166749
C33	C	0.200330	-0.409550	0.709625
C34	C	0.700330	0.090450	1.209625
C35	C	0.200339	-0.504608	0.709615
C36	C	0.700339	-0.004608	1.209615
C37	C	0.224118	-0.480848	0.733375
C38	C	0.724118	0.019152	1.233375
C39	C	0.327800	-0.462984	0.678792
C40	C	0.827800	0.037016	1.178792
C41	C	0.392611	-0.484588	0.657175
C42	C	0.892611	0.015412	1.157175
C43	C	0.392630	-0.589450	0.697162
C44	C	0.892630	-0.089450	1.197162
C45	C	0.327821	-0.567844	0.718781
C46	C	0.827821	-0.067844	1.218781
C47	C	0.215955	-0.377135	0.645910
C48	C	0.715955	0.122865	1.145910
C49	C	0.194327	-0.312320	0.624323
C50	C	0.694327	0.187680	1.124323
C51	C	0.141457	-0.312339	0.730169
C52	C	0.641457	0.187661	1.230169
C53	C	0.163084	-0.377154	0.751756
C54	C	0.663084	0.122846	1.251756
C55	C	0.136618	-0.488954	0.725292
C56	C	0.636618	0.011046	1.225292
C57	C	0.115007	-0.510553	0.703686
C58	C	0.615007	-0.010553	1.203686
C59	C	0.220833	-0.563461	0.650740
C60	C	0.720833	-0.063461	1.150740
C61	C	0.242447	-0.541861	0.672339
C62	C	0.742447	-0.041861	1.172339
C63	C	0.136680	-0.488971	0.837094
C64	C	0.636680	0.011029	1.337094
C65	C	0.115112	-0.510589	0.901907
C66	C	0.615112	-0.010589	1.401907
C67	C	0.220969	-0.563508	0.901868
C68	C	0.720969	-0.063508	1.401868
C69	C	0.242535	-0.541892	0.837053
C70	C	0.742535	-0.041892	1.337053
C71	C	0.200389	-0.504622	0.804668
C72	C	0.700389	-0.004622	1.304668
C73	C	0.295409	-0.504610	0.709593
C74	C	0.795409	-0.004610	1.209593
C75	C	0.132990	-0.570876	1.004655
C76	C	0.632990	-0.070876	1.504655
C77	C	0.495389	-0.570440	0.642547
C78	C	0.995389	-0.070440	1.142547
C79	C	0.132802	-0.570856	0.643399
C80	C	0.632802	-0.070856	1.143399
C81	C	0.133212	-0.209553	0.643833
C82	C	0.633212	0.290447	1.143833
C83	C	-0.097217	-0.706972	0.506986
C84	C	0.402783	-0.206972	1.006986
C85	C	-0.002040	-0.707108	0.412067
C86	C	0.497960	-0.207108	0.912067
C87	C	-0.002230	-0.802124	0.507163
C88	C	0.497770	-0.302124	1.007163
C89	C	-0.002214	-0.707101	0.507221
C90	C	0.497786	-0.207101	1.007221
C91	C	-0.025925	-0.730827	0.483360
C92	C	0.474075	-0.230827	0.983360
N93	N	0.553723	-0.590712	0.623415
N94	N	1.053723	-0.090712	1.123415
O95	O	0.751638	-0.596429	0.475603
O96	O	1.251638	-0.096429	0.975603
O97	O	0.751819	-0.716773	0.638980
O98	O	1.251819	-0.216773	1.138980
O99	O	0.751753	-0.716500	0.535361
O100	O	1.251753	-0.216500	1.035361
O101	O	0.751705	-0.596703	0.579222
O102	O	1.251705	-0.096703	1.079222
O103	O	0.648791	-0.682239	0.569747
O104	O	1.148791	-0.182239	1.069747
O105	O	0.648858	-0.682512	0.673366
O106	O	1.148858	-0.182512	1.173366
O107	O	0.648676	-0.562169	0.509989
O108	O	1.148676	-0.062169	1.009989
Cu109	Cu	0.639366	-0.619212	0.594817
Cu110	Cu	1.139366	-0.119212	1.094817
Cu111	Cu	0.761130	-0.659729	0.554152
Cu112	Cu	1.261130	-0.159729	1.054152
O113	O	0.648743	-0.562442	0.613609
O114	O	1.148743	-0.062442	1.113609
N115	N	0.846773	-0.688230	0.525548
N116	N	1.346773	-0.188230	1.025548
N117	N	0.114157	-0.151217	0.623565
N118	N	0.614157	0.348783	1.123565
O119	O	-0.033591	0.046803	0.617717
O120	O	0.466409	0.546803	1.117717
O121	O	0.129795	0.046806	0.497390
O122	O	0.629795	0.546806	0.997390
O123	O	0.026157	0.046789	0.497680
O124	O	0.526157	0.546789	0.997680
O125	O	0.070046	0.046819	0.617427
O126	O	0.570046	0.546819	1.117427
O127	O	0.060509	-0.056181	0.532004
O128	O	0.560509	0.443819	1.032004
O129	O	0.164146	-0.056164	0.531714
O130	O	0.664146	0.443836	1.031714
O131	O	0.000760	-0.056167	0.652041
O132	O	0.500760	0.443833	1.152041
Cu133	Cu	0.085590	-0.065568	0.595012
Cu134	Cu	0.585590	0.434432	1.095012
Cu135	Cu	0.044965	0.056206	0.554419
Cu136	Cu	0.544965	0.556206	1.054419
O137	O	0.104397	-0.056151	0.651751
O138	O	0.604397	0.443849	1.151751
N139	N	0.016390	0.141855	0.525867
N140	N	0.516390	0.641855	1.025867
N141	N	0.114410	-0.590756	1.062992
N142	N	0.614410	-0.090756	1.562992
O143	O	0.108565	-0.738494	1.260998
O144	O	0.608565	-0.238494	1.760998
O145	O	-0.011747	-0.575059	1.261012
O146	O	0.488253	-0.075059	1.761012
O147	O	-0.011470	-0.678679	1.260970
O148	O	0.488530	-0.178679	1.760970
O149	O	0.108287	-0.634874	1.261040
O150	O	0.608287	-0.134874	1.761040
O151	O	0.022849	-0.644347	1.158004
O152	O	0.522849	-0.144347	1.658004
O153	O	0.022572	-0.540726	1.158046
O154	O	0.522572	-0.040726	1.658046
O155	O	0.142884	-0.704162	1.158033
O156	O	0.642884	-0.204162	1.658033
Cu157	Cu	0.085861	-0.619309	1.148638
Cu158	Cu	0.585861	-0.119309	1.648638
Cu159	Cu	0.045275	-0.659911	1.270406
Cu160	Cu	0.545275	-0.159911	1.770406
O161	O	0.142606	-0.600541	1.158074
O162	O	0.642606	-0.100541	1.658074
N163	N	0.016726	-0.688471	1.356052
N164	N	0.516726	-0.188471	1.856052
C165	C	0.039385	-0.537207	0.498225
C166	C	0.539385	-0.037207	0.998225
C167	C	0.167616	-0.665350	0.498136
C168	C	0.667616	-0.165350	0.998136
C169	C	0.091204	-0.741950	0.651272
C170	C	0.591204	-0.241950	1.151272
C171	C	-0.037027	-0.613806	0.651361
C172	C	0.462973	-0.113806	1.151361
C173	C	0.700360	-0.716215	0.676756
C174	C	1.200360	-0.216215	1.176756
C175	C	0.700279	-0.715877	0.548436
C176	C	1.200279	-0.215877	1.048436
C177	C	0.700133	-0.562725	0.472214
C178	C	1.200133	-0.062725	0.972214
C179	C	0.700218	-0.563065	0.600533
C180	C	1.200218	-0.063065	1.100533
C181	C	0.167511	-0.004552	0.497940
C182	C	0.667511	0.495448	0.997940
C183	C	0.039211	-0.004699	0.498341
C184	C	0.539211	0.495301	0.998341
C185	C	-0.036999	-0.004682	0.651449
C186	C	0.463001	0.495318	1.151449
C187	C	0.091344	-0.004663	0.651090
C188	C	0.591344	0.495337	1.151090
C189	C	-0.011156	-0.537302	1.209530
C190	C	0.488844	-0.037302	1.709530
C191	C	-0.010806	-0.665617	1.209458
C192	C	0.489194	-0.165617	1.709458
C193	C	0.142293	-0.741918	1.209514
C194	C	0.642293	-0.241918	1.709514
C195	C	0.141950	-0.613596	1.209563
C196	C	0.641950	-0.113596	1.709563
H197	H	0.063231	-0.497836	0.928300
H198	H	0.563231	0.002164	1.428300
O199	O	0.186914	-0.602466	1.209496
O200	O	0.686914	-0.102466	1.709496
C201	C	0.289985	-0.596649	1.156152
C202	C	0.789985	-0.096649	1.656152
C203	C	0.239123	-0.609284	1.156159
C204	C	0.739123	-0.109284	1.656159
H205	H	0.332204	-0.602144	1.113027
H206	H	0.832204	-0.102144	1.613027
H207	H	0.303573	-0.630940	1.199214
H208	H	0.803573	-0.130940	1.699214
H209	H	0.271810	-0.547460	1.156192
H210	H	0.771810	-0.047460	1.656192
H211	H	0.257255	-0.658456	1.156097
H212	H	0.757255	-0.158456	1.656097
H213	H	0.225542	-0.574954	1.113100
H214	H	0.725542	-0.074954	1.613100
O215	O	-0.092981	-0.602816	0.696445
O216	O	0.407019	-0.102816	1.196445
C217	C	-0.148319	-0.597211	0.799616
C218	C	0.351681	-0.097211	1.299616
C219	C	-0.084912	-0.609686	0.748617
C220	C	0.415088	-0.109686	1.248617
H221	H	-0.141818	-0.602748	0.841805
H222	H	0.358182	-0.102748	1.341805
H223	H	-0.170599	-0.631558	0.813203
H224	H	0.329401	-0.131558	1.313203
H225	H	-0.179490	-0.548043	0.781575
H226	H	0.320510	-0.048043	1.281575
H227	H	-0.053693	-0.658836	0.766615
H228	H	0.446307	-0.158836	1.266615
H229	H	-0.062681	-0.575300	0.735038
H230	H	0.437319	-0.075300	1.235038
H231	H	0.214562	-0.674609	0.460411
H232	H	0.714562	-0.174609	0.960411
H233	H	0.214338	-0.004265	0.460069
H234	H	0.714338	0.495735	0.960069
O235	O	0.028336	-0.481141	0.453281
O236	O	0.528336	0.018859	0.953281
C237	C	0.058254	-0.390147	0.385624
C238	C	0.558254	0.109853	0.885624
C239	C	0.070825	-0.453621	0.436531
C240	C	0.570825	0.046379	0.936531
H241	H	0.092606	-0.367884	0.372057
H242	H	0.592606	0.132116	0.872057
H243	H	0.009090	-0.358984	0.403680
H244	H	0.509090	0.141016	0.903680
H245	H	0.063784	-0.396603	0.343414
H246	H	0.563784	0.103397	0.843414
H247	H	0.065329	-0.447223	0.478759
H248	H	0.565329	0.052777	0.978759
H249	H	0.119984	-0.484761	0.418425
H250	H	0.619984	0.015239	0.918425
H251	H	0.700208	-0.525435	0.609919
H252	H	1.200208	-0.025435	1.109919
H253	H	0.100526	-0.788925	0.688956
H254	H	0.600526	-0.288925	1.188956
O255	O	-0.056297	-0.481358	1.209615
O256	O	0.443703	0.018642	1.709615
C257	C	-0.159535	-0.426049	1.262966
C258	C	0.340465	0.073951	1.762966
C259	C	-0.108472	-0.489446	1.262942
C260	C	0.391528	0.010554	1.762942
H261	H	-0.201725	-0.432564	1.306083
H262	H	0.298275	0.067436	1.806083
H263	H	-0.173083	-0.403802	1.219896
H264	H	0.326917	0.096198	1.719896
H265	H	-0.141575	-0.394836	1.262956
H266	H	0.358425	0.105164	1.762956
H267	H	-0.126388	-0.520706	1.262975
H268	H	0.373612	-0.020706	1.762975
H269	H	-0.094930	-0.511642	1.306009
H270	H	0.405070	-0.011642	1.806009
H271	H	-0.083922	-0.004684	0.689225
H272	H	0.416078	0.495316	1.189225
O273	O	0.700325	-0.760853	0.537336
O274	O	1.200325	-0.260853	1.037336
C275	C	0.700374	-0.865177	0.577830
C276	C	1.200374	-0.365177	1.077830
C277	C	0.700337	-0.814302	0.590478
C278	C	1.200337	-0.314302	1.090478
H279	H	0.700370	-0.908399	0.620790
H280	H	1.200370	-0.408399	1.120790
H281	H	0.743454	-0.876766	0.537309
H282	H	1.243454	-0.376766	1.037309
H283	H	0.657275	-0.848009	0.566035
H284	H	1.157275	-0.348009	1.066035
H285	H	0.743406	-0.831428	0.602299
H286	H	1.243406	-0.331428	1.102299
H287	H	0.657227	-0.802721	0.630981
H288	H	1.157227	-0.302721	1.130981
H289	H	0.100739	-0.004653	0.688708
H290	H	0.600739	0.495347	1.188708
O291	O	0.028027	-0.004832	0.453515
O292	O	0.528027	0.495168	0.953515
C293	C	0.000754	-0.058204	0.424017
C294	C	0.500754	0.441796	0.924017
C295	C	0.013411	-0.058129	0.474829
C296	C	0.513411	0.441871	0.974829
H297	H	-0.011078	-0.101284	0.441235
H298	H	0.488922	0.398716	0.941235
H299	H	0.043689	-0.058252	0.380776
H300	H	0.543689	0.441748	0.880776
H301	H	-0.039764	-0.015101	0.412434
H302	H	0.460236	0.484899	0.912434
H303	H	0.053909	-0.101226	0.486465
H304	H	0.553909	0.398774	0.986465
H305	H	-0.029555	-0.058050	0.518038
H306	H	0.470445	0.441950	1.018038
H307	H	0.700073	-0.524942	0.425295
H308	H	1.200073	-0.024942	0.925295
O309	O	-0.055595	-0.676865	1.209353
O310	O	0.444405	-0.176865	1.709353
C311	C	-0.083893	-0.750392	1.209271
C312	C	0.416107	-0.250392	1.709271
C313	C	-0.033109	-0.737731	1.209375
C314	C	0.466891	-0.237731	1.709375
H315	H	-0.065736	-0.799606	1.209302
H316	H	0.434264	-0.299606	1.709302
H317	H	-0.097387	-0.716138	1.166150
H318	H	0.402613	-0.216138	1.666150
H319	H	-0.126172	-0.744814	1.252332
H320	H	0.373828	-0.244814	1.752332
H321	H	0.009203	-0.743317	1.166343
H322	H	0.509203	-0.243317	1.666343
H323	H	-0.019667	-0.771983	1.252524
H324	H	0.480333	-0.271983	1.752524
O325	O	0.187282	-0.797957	1.209535
O326	O	0.687282	-0.297957	1.709535
C327	C	0.216078	-0.899932	1.209459
C328	C	0.716078	-0.399932	1.709459
C329	C	0.165069	-0.836502	1.209452
C330	C	0.665069	-0.336502	1.709452
H331	H	0.198142	-0.931108	1.209379
H332	H	0.698142	-0.431108	1.709379
H333	H	0.229575	-0.922218	1.252568
H334	H	0.729575	-0.422218	1.752568
H335	H	0.258302	-0.893409	1.166386
H336	H	0.758302	-0.393409	1.666386
H337	H	0.122812	-0.842971	1.252496
H338	H	0.622812	-0.342971	1.752496
H339	H	0.151624	-0.814238	1.166315
H340	H	0.651624	-0.314238	1.666315
H341	H	0.255291	-0.593843	0.928229
H342	H	0.755291	-0.093843	1.428229
O343	O	0.095652	-0.452796	0.805731
O344	O	0.595652	0.047204	1.305731
C345	C	-0.011619	-0.402556	0.812610
C346	C	0.488381	0.097444	1.312610
C347	C	0.034772	-0.443537	0.848206
C348	C	0.534772	0.056463	1.348206
H349	H	-0.060851	-0.395047	0.846936
H350	H	0.439149	0.104953	1.346936
H351	H	-0.004214	-0.426291	0.782283
H352	H	0.495786	0.073709	1.282283
H353	H	-0.004131	-0.355950	0.782253
H354	H	0.495869	0.144050	1.282253
H355	H	0.027311	-0.490150	0.878596
H356	H	0.527311	0.009850	1.378596
H357	H	0.027355	-0.419754	0.878494
H358	H	0.527355	0.080246	1.378494
H359	H	0.700405	-0.753994	0.723681
H360	H	1.200405	-0.253994	1.223681
H361	H	0.102328	-0.458621	0.755642
H362	H	0.602328	0.041379	1.255642
O363	O	0.304447	-0.557133	0.805652
O364	O	0.804447	-0.057133	1.305652
C365	C	0.407164	-0.611935	0.812457
C366	C	0.907164	-0.111935	1.312457
C367	C	0.337069	-0.594709	0.848094
C368	C	0.837069	-0.094709	1.348094
H369	H	0.433560	-0.642328	0.846756
H370	H	0.933560	-0.142328	1.346756
H371	H	0.419942	-0.567974	0.782133
H372	H	0.919942	-0.067974	1.282133
H373	H	0.419883	-0.638292	0.782093
H374	H	0.919883	-0.138292	1.282093
H375	H	0.324299	-0.568367	0.878491
H376	H	0.824299	-0.068367	1.378491
H377	H	0.324328	-0.638692	0.878379
H378	H	0.824328	-0.138692	1.378379
H379	H	0.063121	-0.497793	0.716436
H380	H	0.563121	0.002207	1.216436
H381	H	0.294333	-0.554601	0.659567
H382	H	0.794333	-0.054601	1.159567
O383	O	0.261770	-0.599554	0.614443
O384	O	0.761770	-0.099554	1.114443
C385	C	0.345622	-0.607816	0.519051
C386	C	0.845622	-0.107816	1.019051
C387	C	0.299277	-0.566874	0.560096
C388	C	0.799277	-0.066874	1.060096
H389	H	0.375966	-0.581415	0.475109
H390	H	0.875966	-0.081415	0.975109
H391	H	0.319277	-0.620560	0.506238
H392	H	0.819277	-0.120560	1.006238
H393	H	0.375960	-0.651806	0.545448
H394	H	0.875960	-0.151806	1.045448
H395	H	0.268926	-0.522858	0.533737
H396	H	0.768926	-0.022858	1.033737
H397	H	0.325659	-0.554180	0.572911
H398	H	0.825659	-0.054180	1.072911
O399	O	0.296450	-0.608363	0.748664
O400	O	0.796450	-0.108363	1.248664
C401	C	0.303313	-0.714657	0.786072
C402	C	0.803313	-0.214657	1.286072
C403	C	0.338916	-0.668836	0.752207
C404	C	0.838916	-0.168836	1.252207
H405	H	0.337631	-0.763561	0.788959
H406	H	0.837631	-0.263561	1.288959
H407	H	0.272968	-0.701691	0.759583
H408	H	0.772968	-0.201691	1.259583
H409	H	0.272974	-0.712643	0.834791
H410	H	0.772974	-0.212643	1.334791
H411	H	0.369289	-0.670827	0.703488
H412	H	0.869289	-0.170827	1.203488
H413	H	0.369222	-0.681818	0.778744
H414	H	0.869222	-0.181818	1.278744
H415	H	0.418982	-0.450689	0.632093
H416	H	0.918982	0.049311	1.132093
O417	O	0.424151	-0.650856	0.705970
O418	O	0.924151	-0.150856	1.205970
C419	C	0.497346	-0.729270	0.658205
C420	C	0.997346	-0.229270	1.158205
C421	C	0.461678	-0.659715	0.648141
C422	C	0.961678	-0.159715	1.148141
H423	H	0.527706	-0.736454	0.611459
H424	H	1.027706	-0.236454	1.111459
H425	H	0.463092	-0.755343	0.683898
H426	H	0.963092	-0.255343	1.183898
H427	H	0.527681	-0.747505	0.686717
H428	H	1.027681	-0.247505	1.186717
H429	H	0.431343	-0.641423	0.619613
H430	H	0.931343	-0.141423	1.119613
H431	H	0.495966	-0.633685	0.622475
H432	H	0.995966	-0.133685	1.122475
H433	H	0.301415	-0.411495	0.671309
H434	H	0.801415	0.088505	1.171309
H435	H	0.246280	-0.403511	0.611604
H436	H	0.746280	0.096489	1.111604
H437	H	0.207047	-0.285927	0.572438
H438	H	0.707047	0.214073	1.072438
H439	H	0.150353	-0.403547	0.803641
H440	H	0.650353	0.096453	1.303641
O441	O	0.105266	-0.280961	0.771176
O442	O	0.605266	0.219039	1.271176
C443	C	0.055156	-0.287817	0.878439
C444	C	0.555156	0.212183	1.378439
C445	C	0.096135	-0.323427	0.832067
C446	C	0.596135	0.176573	1.332067
H447	H	0.047772	-0.322135	0.927680
H448	H	0.547772	0.177865	1.427680
H449	H	0.008496	-0.257494	0.871041
H450	H	0.508496	0.242506	1.371041
H451	H	0.078901	-0.257451	0.870921
H452	H	0.578901	0.242549	1.370921
H453	H	0.072445	-0.353826	0.839557
H454	H	0.572445	0.146174	1.339557
H455	H	0.142793	-0.353710	0.839477
H456	H	0.642793	0.146290	1.339477
