data_functionalizedCrystal
_audit_creation_method	'MofGen! by Chris Wilmer'
_symmetry_space_group_name_H-M	'P1'
_symmetry_Int_Tables_number	1
_symmetry_cell_setting	triclinic
loop_
_symmetry_equiv_pos_as_xyz
  x,y,z
_cell_length_a	16.959454
_cell_length_b	12.759401
_cell_length_c	16.959434
_cell_angle_alpha	90.057366
_cell_angle_beta	89.913723
_cell_angle_gamma	89.979764
loop_
_atom_site_label
_atom_site_type_symbol
_atom_site_fract_x
_atom_site_fract_y
_atom_site_fract_z
Zn1	Zn	-0.314198	-1.606619	-0.446886
Zn2	Zn	-0.446528	-1.606378	-0.314715
Zn3	Zn	-0.314368	-1.430802	-0.314728
Zn4	Zn	-0.446339	-1.430893	-0.446859
O5	O	-0.380358	-1.518673	-0.380797
O6	O	-0.331760	-1.753608	-0.429359
O7	O	-0.429147	-1.582948	-0.204106
O8	O	-0.203734	-1.454187	-0.332275
O9	O	-0.428982	-1.753431	-0.332254
O10	O	-0.203610	-1.583360	-0.429371
O11	O	-0.332049	-1.453953	-0.204115
O12	O	-0.331866	-1.283793	-0.332249
O13	O	-0.428660	-1.454343	-0.557474
O14	O	-0.428824	-1.283860	-0.429325
O15	O	-0.331577	-1.583448	-0.557493
O16	O	-0.557114	-1.583037	-0.332228
O17	O	-0.556975	-1.454109	-0.429313
C18	C	-0.380344	-1.245706	-0.380786
C19	C	-0.380356	-1.128929	-0.380800
C20	C	-0.585724	-1.518585	-0.380784
C21	C	-0.673581	-1.518644	-0.380804
C22	C	-0.380078	-1.518933	-0.586966
C23	C	-0.379959	-1.519043	-0.674823
C24	C	-1.045014	-1.451638	-0.431344
C25	C	-1.045099	-1.586001	-0.330331
C26	C	-0.962553	-1.585964	-0.330323
C27	C	-0.921234	-1.518762	-0.380826
C28	C	-0.962461	-1.451597	-0.431337
C29	C	-0.921320	-1.653121	-0.279808
C30	C	-0.838769	-1.653086	-0.279798
C31	C	-0.797448	-1.585889	-0.330306
C32	C	-0.838680	-1.518721	-0.380819
C33	C	-0.797361	-1.451519	-0.431322
C34	C	-0.838592	-1.384357	-0.481839
C35	C	-0.921140	-1.384399	-0.481844
C36	C	-0.714900	-1.585846	-0.330301
C37	C	-0.714808	-1.451478	-0.431314
C38	C	-0.174190	-1.518790	-0.380828
C39	C	-0.086333	-1.518840	-0.380841
C40	C	-0.380373	-1.792706	-0.380808
C41	C	-0.380380	-1.909483	-0.380813
C42	C	-0.430924	-1.074130	-0.431264
C43	C	-0.430934	-0.964405	-0.431273
C44	C	-0.329807	-0.964290	-0.330347
C45	C	-0.329793	-1.074012	-0.330343
C46	C	-0.481487	-1.129046	-0.481722
C47	C	-0.532059	-1.074247	-0.532189
C48	C	-0.532069	-0.964522	-0.532198
C49	C	-0.481507	-0.909598	-0.481739
C50	C	-0.380580	-1.518475	-0.175430
C51	C	-0.380476	-1.518568	-0.087574
C52	C	-0.430197	-1.586644	0.283946
C53	C	-0.329826	-1.451348	0.283855
C54	C	-0.329927	-1.451253	0.201309
C55	C	-0.380165	-1.518853	0.160078
C56	C	-0.430302	-1.586549	0.201393
C57	C	-0.279797	-1.383551	0.159989
C58	C	-0.279897	-1.383453	0.077438
C59	C	-0.330132	-1.451059	0.036205
C60	C	-0.380270	-1.518758	0.077525
C61	C	-0.430508	-1.586359	0.036294
C62	C	-0.480643	-1.654064	0.077612
C63	C	-0.480537	-1.654155	0.160161
C64	C	-0.330238	-1.450968	-0.046343
C65	C	-0.430613	-1.586264	-0.046259
H66	H	-0.681171	-1.396758	-0.472443
H67	H	-0.805204	-1.707774	-0.238665
C68	C	-0.225557	-1.309985	0.032440
C69	C	-0.236413	-1.324348	-0.048678
C70	C	-0.186377	-1.256676	-0.090156
H71	H	-0.172316	-1.324817	0.045704
H72	H	-0.237504	-1.239496	0.046056
H73	H	-0.224460	-1.394820	-0.062290
H74	H	-0.289643	-1.309508	-0.061966
H75	H	-0.198325	-1.186187	-0.076539
H76	H	-0.133140	-1.271514	-0.076885
H77	H	-0.193741	-1.266405	-0.145198
C78	C	-0.793825	-1.311461	-0.536800
C79	C	-0.813772	-1.334350	-0.615024
C80	C	-0.772552	-1.267215	-0.665673
H81	H	-0.738746	-1.320993	-0.529661
H82	H	-0.807425	-1.240854	-0.525241
H83	H	-0.800167	-1.404940	-0.626579
H84	H	-0.868843	-1.324811	-0.622187
H85	H	-0.786152	-1.196609	-0.654114
H86	H	-0.717476	-1.276753	-0.658527
H87	H	-0.786086	-1.282730	-0.718753
H88	H	-0.954717	-1.329718	-0.522972
H89	H	-1.078588	-1.396959	-0.472476
H90	H	-0.573241	-0.919907	-0.573297
H91	H	-0.289420	-1.395841	-0.079981
H92	H	-1.078746	-1.640708	-0.289209
H93	H	-0.954968	-1.707825	-0.238686
H94	H	-0.573220	-1.118973	-0.573276
H95	H	-0.471520	-1.641317	-0.079824
C96	C	-0.670278	-1.658866	-0.275426
C97	C	-0.724132	-1.717738	-0.231208
C98	C	-0.683056	-1.785027	-0.180653
H99	H	-0.638149	-1.618765	-0.240892
H100	H	-0.638020	-1.704695	-0.305668
H101	H	-0.756377	-1.671915	-0.200968
H102	H	-0.756263	-1.757860	-0.265722
H103	H	-0.650798	-1.830856	-0.210895
H104	H	-0.650929	-1.744918	-0.146124
H105	H	-0.719590	-1.824986	-0.150651
H106	H	-0.481512	-0.820253	-0.481757
H107	H	-0.288642	-0.919562	-0.289265
C108	C	-0.481564	-1.248175	-0.481858
C109	C	-0.536653	-1.284543	-0.536859
C110	C	-0.536739	-1.394277	-0.537011
H111	H	-0.495244	-1.273047	-0.430870
H112	H	-0.430571	-1.273071	-0.495656
H113	H	-0.587635	-1.259658	-0.523057
H114	H	-0.522986	-1.259699	-0.587855
H115	H	-0.485746	-1.419173	-0.550809
H116	H	-0.550417	-1.419139	-0.486021
H117	H	-0.574111	-1.418967	-0.574333
C118	C	-0.535100	-1.727417	0.032700
C119	C	-0.524446	-1.712849	-0.048435
C120	C	-0.574588	-1.780411	-0.089835
H121	H	-0.588307	-1.712613	0.046301
H122	H	-0.523123	-1.797941	0.046044
H123	H	-0.536428	-1.642341	-0.061773
H124	H	-0.471250	-1.727661	-0.062059
H125	H	-0.562611	-1.850935	-0.076492
H126	H	-0.627792	-1.765602	-0.076228
H127	H	-0.567361	-1.770543	-0.144889
C128	C	-0.274998	-1.133467	-0.275416
C129	C	-0.292214	-1.106688	-0.197180
C130	C	-0.241760	-1.161450	-0.146561
H131	H	-0.221863	-1.115568	-0.286966
H132	H	-0.282243	-1.206687	-0.282591
H133	H	-0.284963	-1.033485	-0.190009
H134	H	-0.345340	-1.124590	-0.185606
H135	H	-0.249004	-1.234670	-0.153735
H136	H	-0.188627	-1.143547	-0.158117
H137	H	-0.253438	-1.143296	-0.093472
C138	C	-0.534940	-1.727536	0.205163
C139	C	-0.524112	-1.713124	0.286280
C140	C	-0.574224	-1.780691	0.327764
H141	H	-0.523061	-1.798050	0.191603
H142	H	-0.588165	-1.712615	0.191847
H143	H	-0.470900	-1.728053	0.299590
H144	H	-0.535998	-1.642624	0.299864
H145	H	-0.627448	-1.765770	0.314448
H146	H	-0.562340	-1.851200	0.314197
H147	H	-0.566889	-1.770915	0.382805
H148	H	-0.288929	-1.396305	0.317430
C149	C	-0.225285	-1.310276	0.204895
C150	C	-0.235906	-1.324877	0.286030
C151	C	-0.185692	-1.257405	0.327426
H152	H	-0.237201	-1.239732	0.191600
H153	H	-0.172094	-1.325163	0.191242
H154	H	-0.289085	-1.309983	0.299678
H155	H	-0.223984	-1.395408	0.299349
H156	H	-0.132501	-1.272291	0.313773
H157	H	-0.197612	-1.186864	0.314124
H158	H	-0.192886	-1.267309	0.382480
H159	H	-0.471014	-1.641771	0.317591
