data_functionalizedCrystal
_audit_creation_method	'MofGen! by Chris Wilmer'
_symmetry_space_group_name_H-M	'P1'
_symmetry_Int_Tables_number	1
_symmetry_cell_setting	triclinic
loop_
_symmetry_equiv_pos_as_xyz
  x,y,z
_cell_length_a	19.077236
_cell_length_b	12.594516
_cell_length_c	19.076919
_cell_angle_alpha	87.724265
_cell_angle_beta	90.112677
_cell_angle_gamma	92.304758
loop_
_atom_site_label
_atom_site_type_symbol
_atom_site_fract_x
_atom_site_fract_y
_atom_site_fract_z
Zn1	Zn	1.058347	-0.386368	0.440560
Zn2	Zn	1.558347	0.113632	0.940560
Zn3	Zn	1.063012	-0.556940	0.323062
Zn4	Zn	1.563012	-0.056940	0.823062
Zn5	Zn	0.945562	-0.385810	0.318340
Zn6	Zn	1.445562	0.114190	0.818340
Zn7	Zn	0.940833	-0.571140	0.435801
Zn8	Zn	1.440833	-0.071140	0.935801
O9	O	1.001938	-0.475065	0.379441
O10	O	1.501938	0.024935	0.879441
O11	O	1.157299	-0.403286	0.428942
O12	O	1.657299	0.096714	0.928942
O13	O	1.051363	-0.528063	0.224104
O14	O	1.551363	-0.028063	0.724104
O15	O	0.960551	-0.236938	0.334569
O16	O	1.460551	0.263062	0.834569
O17	O	1.160726	-0.528605	0.342616
O18	O	1.660726	-0.028605	0.842616
O19	O	1.043413	-0.237348	0.424364
O20	O	1.543413	0.262652	0.924364
O21	O	0.965074	-0.402335	0.220636
O22	O	1.465074	0.097665	0.720636
O23	O	0.846602	-0.416104	0.329954
O24	O	1.346602	0.083896	0.829954
O25	O	0.952490	-0.552806	0.534763
O26	O	1.452490	-0.052806	1.034763
O27	O	0.843127	-0.552265	0.416251
O28	O	1.343127	-0.052265	0.916251
O29	O	1.038827	-0.417055	0.538260
O30	O	1.538827	0.082945	1.038260
O31	O	1.046777	-0.707771	0.338001
O32	O	1.546777	-0.207771	0.838001
O33	O	0.957013	-0.718203	0.420830
O34	O	1.457013	-0.218203	0.920830
C35	C	0.819368	-0.485665	0.372074
C36	C	1.319368	0.014335	0.872074
C37	C	0.741263	-0.490227	0.368939
C38	C	1.241263	0.009773	0.868939
C39	C	0.702783	-0.427236	0.412480
C40	C	1.202783	0.072764	0.912480
C41	C	0.629395	-0.431517	0.409529
C42	C	1.129395	0.068483	0.909529
C43	C	0.594489	-0.498795	0.363039
C44	C	1.094489	0.001205	0.863039
C45	C	0.632974	-0.561788	0.319494
C46	C	1.132974	-0.061788	0.819494
C47	C	0.706361	-0.557501	0.322442
C48	C	1.206361	-0.057501	0.822442
C49	C	0.375198	-0.518595	0.349391
C50	C	0.875198	-0.018595	0.849391
C51	C	0.301806	-0.522880	0.346447
C52	C	0.801806	-0.022880	0.846447
C53	C	0.298232	-0.392606	0.436482
C54	C	0.798232	0.107394	0.936482
C55	C	0.371620	-0.388330	0.439429
C56	C	0.871620	0.111670	0.939429
C57	C	0.410099	-0.451319	0.395881
C58	C	0.910099	0.048681	0.895881
N59	N	0.519475	-0.503174	0.360023
N60	N	1.019475	-0.003174	0.860023
N61	N	0.485112	-0.446933	0.398894
N62	N	0.985112	0.053067	0.898894
C63	C	1.001906	-0.751607	0.379427
C64	C	1.501906	-0.251607	0.879427
C65	C	1.001956	-0.869910	0.379448
C66	C	1.501956	-0.369910	0.879448
C67	C	1.050831	-0.933451	0.334449
C68	C	1.550831	-0.433451	0.834449
C69	C	1.065423	-1.007210	0.399276
C70	C	1.565423	-0.507210	0.899276
C71	C	0.987451	-1.006947	0.314666
C72	C	1.487451	-0.506947	0.814666
C73	C	1.016579	-0.942112	0.444309
C74	C	1.516579	-0.442112	0.944309
C75	C	0.938579	-0.941842	0.359654
C76	C	1.438579	-0.441842	0.859654
C77	C	0.953144	-1.015574	0.424524
C78	C	1.453144	-0.515574	0.924524
C79	C	1.185222	-0.464423	0.386837
C80	C	1.685222	0.035577	0.886837
C81	C	1.263326	-0.459889	0.389988
C82	C	1.763326	0.040111	0.889988
C83	C	0.994611	-0.486577	0.562721
C84	C	1.494611	0.013423	1.062721
C85	C	0.991488	-0.491482	0.640824
C86	C	1.491488	0.008518	1.140824
C87	C	1.001989	-0.197443	0.379471
C88	C	1.501989	0.302557	0.879471
C89	C	1.002011	-0.079137	0.379483
C90	C	1.502011	0.420863	0.879483
C91	C	1.009278	-0.463518	0.196876
C92	C	1.509278	0.036482	0.696876
C93	C	1.012537	-0.458305	0.118779
C94	C	1.512537	0.041695	0.618779
C95	C	1.034970	-0.423112	0.679338
C96	C	1.534970	0.076888	1.179338
C97	C	1.032027	-0.427718	0.752724
C98	C	1.532027	0.072282	1.252724
C99	C	0.985605	-0.500700	0.787594
C100	C	1.485605	-0.000700	1.287594
C101	C	0.942119	-0.569073	0.749074
C102	C	1.442119	-0.069073	1.249074
C103	C	0.945059	-0.564462	0.675689
C104	C	1.445059	-0.064462	1.175689
C105	C	0.971990	-0.522067	1.006874
C106	C	1.471990	-0.022067	1.506874
C107	C	0.969055	-0.526676	1.080264
C108	C	1.469055	-0.026676	1.580264
C109	C	1.058963	-0.385318	1.083909
C110	C	1.558963	0.114682	1.583909
C111	C	1.061901	-0.380717	1.010523
C112	C	1.561901	0.119283	1.510523
C113	C	1.018412	-0.449086	0.972009
C114	C	1.518412	0.050914	1.472009
N115	N	0.982598	-0.505412	0.862606
N116	N	1.482598	-0.005412	1.362606
N117	N	1.021417	-0.444369	0.896999
N118	N	1.521417	0.055631	1.396999
H119	H	0.604548	-0.616563	0.281637
H120	H	1.104548	-0.116563	0.781637
Cl121	Cl	0.889364	-1.070668	0.483367
Cl122	Cl	1.389364	-0.570668	0.983367
Cl123	Cl	1.148209	-1.051659	0.425166
Cl124	Cl	1.648209	-0.551659	0.925166
Cl125	Cl	0.746657	-0.342658	0.470931
Cl126	Cl	1.246657	0.157342	0.970931
Cl127	Cl	1.086723	-0.341807	0.801141
Cl128	Cl	1.586723	0.158193	1.301141
H129	H	1.094368	-0.329654	1.115275
H130	H	1.594368	0.170346	1.615275
Cl131	Cl	0.415497	-0.303755	0.497880
Cl132	Cl	0.915497	0.196245	0.997880
Cl133	Cl	0.855816	-0.897336	0.333751
Cl134	Cl	1.355816	-0.397336	0.833751
H135	H	0.406519	-0.569887	0.313931
H136	H	0.906519	-0.069887	0.813931
H137	H	0.273388	-0.577671	0.308589
H138	H	0.773388	-0.077671	0.808589
H139	H	1.028815	-0.913671	0.499154
H140	H	1.528815	-0.413671	0.999154
Cl141	Cl	0.968473	-1.051072	0.230060
Cl142	Cl	1.468473	-0.551072	0.730060
H143	H	0.931251	-0.586109	1.108653
H144	H	1.431251	-0.086109	1.608653
Cl145	Cl	1.114649	-0.878062	0.275752
Cl146	Cl	1.614649	-0.378062	0.775752
Cl147	Cl	1.093335	-0.331363	0.635509
Cl148	Cl	1.593335	0.168637	1.135509
Cl149	Cl	1.120262	-0.288964	0.966692
Cl150	Cl	1.620262	0.211036	1.466692
H151	H	0.904319	-0.628494	0.777471
H152	H	1.404319	-0.128494	1.277471
H153	H	0.598067	-0.380224	0.444986
H154	H	1.098067	0.119776	0.944986
H155	H	0.936589	-0.577753	0.975525
H156	H	1.436589	-0.077753	1.475525
H157	H	0.909644	-0.620126	0.644331
H158	H	1.409644	-0.120126	1.144331
H159	H	0.737691	-0.608795	0.286986
H160	H	1.237691	-0.108795	0.786986
Cl161	Cl	0.249854	-0.313422	0.491223
Cl162	Cl	0.749854	0.186578	0.991223
