data_functionalizedCrystal
_audit_creation_method	'MofGen! by Chris Wilmer'
_symmetry_space_group_name_H-M	'P1'
_symmetry_Int_Tables_number	1
_symmetry_cell_setting	triclinic
loop_
_symmetry_equiv_pos_as_xyz
  x,y,z
_cell_length_a	14.044220
_cell_length_b	10.654550
_cell_length_c	9.130313
_cell_angle_alpha	90.000110
_cell_angle_beta	89.999962
_cell_angle_gamma	91.163110
loop_
_atom_site_label
_atom_site_type_symbol
_atom_site_fract_x
_atom_site_fract_y
_atom_site_fract_z
O1	O	1.259693	-0.302980	-0.121789
O2	O	0.983652	-0.292047	-0.121793
O3	O	1.128019	-0.115412	-0.121785
O4	O	1.115326	-0.479615	-0.121796
O5	O	1.128017	-0.115417	0.121813
O6	O	0.983650	-0.292052	0.121806
O7	O	1.259691	-0.302985	0.121810
Cu8	Cu	1.121671	-0.297519	0.144050
Cu9	Cu	1.121673	-0.297513	-0.144033
O10	O	1.115324	-0.479620	0.121802
C11	C	0.948305	-0.287263	0.000006
C12	C	0.842986	-0.272988	0.000004
C13	C	1.295038	-0.307769	0.000008
C14	C	1.400358	-0.322044	-0.000000
C15	C	1.127086	-0.068523	0.000012
C16	C	1.124298	0.071201	0.000007
C17	C	1.593191	-0.348143	0.000000
C18	C	1.650158	-0.246895	0.000004
C19	C	1.757457	-0.261416	0.000004
C20	C	1.485882	-0.333623	-0.000000
C21	C	1.116257	-0.526509	0.000001
C22	C	1.119045	-0.666233	-0.000003
N23	N	1.121676	-0.297523	0.346673
C24	C	1.209299	0.142144	0.000013
C25	C	1.206673	0.273429	0.000002
C26	C	1.034038	0.262814	-0.000013
C27	C	1.036664	0.131532	-0.000013
C28	C	1.308969	0.148274	0.000028
C29	C	1.306343	0.279559	0.000018
N30	N	1.121675	-0.297500	-0.346656
C31	C	1.185618	-0.219340	0.423328
C32	C	1.185616	-0.219324	0.576665
C33	C	1.057725	-0.375686	0.576678
C34	C	1.057724	-0.375694	0.423344
C35	C	1.259458	-0.129069	0.423322
C36	C	1.259455	-0.129054	0.576659
H37	H	1.618346	-0.149307	-0.000100
C38	C	1.237657	0.001775	0.367908
C39	C	1.148097	0.036889	0.419187
C40	C	1.127974	0.157403	0.368158
H41	H	1.284801	0.059665	0.402552
H42	H	1.237599	0.001807	0.263853
H43	H	1.148163	0.036866	0.523220
H44	H	1.100933	-0.020969	0.384548
H45	H	1.127916	0.157435	0.264103
H46	H	1.175124	0.215283	0.402805
H47	H	1.067203	0.181238	0.402931
C48	C	1.351356	0.096489	0.140214
C49	C	1.432266	0.027508	0.106447
C50	C	1.471306	-0.020160	0.235600
H51	H	1.368658	0.163955	0.203478
H52	H	1.305652	0.043456	0.187455
H53	H	1.477962	0.080538	0.059228
H54	H	1.414990	-0.039976	0.043204
H55	H	1.425601	-0.073193	0.282841
H56	H	1.488601	0.047313	0.298854
H57	H	1.526202	-0.066979	0.212706
H58	H	1.625001	-0.445722	-0.000004
C59	C	1.346594	0.336163	-0.140289
C60	C	1.375927	0.239840	-0.233238
C61	C	1.413022	0.291938	-0.362487
H62	H	1.298945	0.383416	-0.187690
H63	H	1.399526	0.389579	-0.117508
H64	H	1.323002	0.186445	-0.256021
H65	H	1.423586	0.192579	-0.185882
H66	H	1.465954	0.345354	-0.339706
H67	H	1.365367	0.339190	-0.409876
H68	H	1.432937	0.226592	-0.425564
H69	H	1.328328	-0.166578	0.375764
H70	H	1.236409	-0.035516	0.624208
C71	C	0.988144	-0.460394	0.659849
C72	C	0.894804	-0.429472	0.622572
C73	C	0.830679	-0.507468	0.699172
H74	H	0.998860	-0.545477	0.634796
H75	H	0.997236	-0.449176	0.762162
H76	H	0.885716	-0.440701	0.520282
H77	H	0.884058	-0.344403	0.647629
H78	H	0.839771	-0.496249	0.801485
H79	H	0.841404	-0.592546	0.674113
H80	H	0.767341	-0.486490	0.673901
H81	H	0.962689	0.311952	-0.000031
H82	H	1.332349	-0.157898	0.618276
C83	C	0.944273	0.054726	0.000042
C84	C	0.866970	0.135665	0.000066
C85	C	0.781840	0.064957	0.000136
H86	H	0.941580	0.003279	-0.084883
H87	H	0.941649	0.003316	0.085024
H88	H	0.869591	0.187053	-0.084908
H89	H	0.869630	0.187113	0.084985
H90	H	0.779217	0.013547	0.085118
H91	H	0.779158	0.013512	-0.084791
H92	H	0.729380	0.119863	0.000165
C93	C	1.356551	0.330309	0.135779
C94	C	1.433366	0.407984	0.093663
C95	C	1.479639	0.454747	0.218684
H96	H	1.313153	0.377272	0.192486
H97	H	1.379249	0.262369	0.192441
H98	H	1.410668	0.475914	0.037026
H99	H	1.476786	0.361049	0.036974
H100	H	1.502336	0.386807	0.275346
H101	H	1.436233	0.501704	0.275382
H102	H	1.531767	0.507445	0.190126
C103	C	0.988403	-0.460788	0.340200
C104	C	1.004599	-0.586023	0.377483
C105	C	0.940764	-0.664451	0.300909
H106	H	0.924972	-0.440151	0.365270
H107	H	0.997561	-0.449688	0.237883
H108	H	0.995434	-0.597117	0.479777
H109	H	1.068017	-0.606698	0.352409
H110	H	0.949921	-0.653351	0.198592
H111	H	0.877336	-0.643803	0.325985
H112	H	0.951749	-0.749432	0.326184
H113	H	1.347954	0.115001	-0.101910
