data_functionalizedCrystal
_audit_creation_method	'MofGen! by Chris Wilmer'
_symmetry_space_group_name_H-M	'P1'
_symmetry_Int_Tables_number	1
_symmetry_cell_setting	triclinic
loop_
_symmetry_equiv_pos_as_xyz
  x,y,z
_cell_length_a	14.853558
_cell_length_b	14.044190
_cell_length_c	13.930277
_cell_angle_alpha	89.990896
_cell_angle_beta	89.993309
_cell_angle_gamma	88.411455
loop_
_atom_site_label
_atom_site_type_symbol
_atom_site_fract_x
_atom_site_fract_y
_atom_site_fract_z
O1	O	1.206179	0.123725	-0.079830
O2	O	1.706179	0.623725	0.420170
O3	O	0.944888	0.138478	-0.079836
O4	O	1.444888	0.638478	0.420164
O5	O	1.071608	-0.006889	-0.079814
O6	O	1.571608	0.493111	0.420186
O7	O	1.079459	0.269091	-0.079852
O8	O	1.579459	0.769091	0.420148
O9	O	1.071589	-0.006892	0.079848
O10	O	1.571589	0.493108	0.579848
O11	O	0.944868	0.138474	0.079826
O12	O	1.444868	0.638474	0.579826
O13	O	1.206160	0.123722	0.079832
O14	O	1.706160	0.623722	0.579832
Zn15	Zn	1.075511	0.131097	0.105178
Zn16	Zn	1.575511	0.631097	0.605178
Zn17	Zn	1.075536	0.131102	-0.105183
Zn18	Zn	1.575536	0.631102	0.394817
O19	O	1.079439	0.269088	0.079810
O20	O	1.579439	0.769088	0.579810
C21	C	0.911236	0.137809	-0.000006
C22	C	1.411236	0.637809	0.499994
C23	C	0.810994	0.135811	-0.000007
C24	C	1.310994	0.635811	0.499993
C25	C	0.763910	0.134875	-0.087042
C26	C	1.263910	0.634875	0.412958
C27	C	0.763886	0.134861	0.087027
C28	C	1.263886	0.634861	0.587027
C29	C	0.669703	0.132978	0.087029
C30	C	1.169703	0.632978	0.587029
C31	C	0.622619	0.132042	-0.000006
C32	C	1.122619	0.632042	0.499994
C33	C	0.669718	0.132989	-0.087043
C34	C	1.169718	0.632989	0.412957
C35	C	0.622598	0.132021	0.174065
C36	C	1.122598	0.632021	0.674065
C37	C	0.528409	0.130137	0.174070
C38	C	1.028409	0.630137	0.674070
C39	C	0.481323	0.129208	0.087034
C40	C	0.981323	0.629208	0.587034
C41	C	0.528428	0.130157	-0.000007
C42	C	1.028428	0.630157	0.499993
C43	C	0.481344	0.129221	-0.087042
C44	C	0.981344	0.629221	0.412958
C45	C	0.528447	0.130176	-0.174084
C46	C	1.028447	0.630176	0.325916
C47	C	0.622632	0.132061	-0.174079
C48	C	1.122632	0.632061	0.325921
C49	C	0.387137	0.127324	0.087029
C50	C	0.887137	0.627324	0.587029
C51	C	0.387152	0.127335	-0.087043
C52	C	0.887152	0.627335	0.412957
C53	C	1.068164	-0.042209	0.000019
C54	C	1.568164	0.457791	0.500019
C55	C	1.057920	-0.147448	0.000027
C56	C	1.557920	0.352552	0.500027
C57	C	1.111846	-0.397666	-0.000009
C58	C	1.611846	0.102334	0.499991
C59	C	1.039205	-0.340130	-0.000004
C60	C	1.539205	0.159870	0.499996
C61	C	1.049620	-0.232912	0.000014
C62	C	1.549620	0.267088	0.500014
C63	C	1.101432	-0.504893	-0.000026
C64	C	1.601432	-0.004893	0.499974
C65	C	1.239811	0.124390	-0.000001
C66	C	1.739811	0.624390	0.499999
C67	C	1.340053	0.126388	-0.000006
C68	C	1.840053	0.626388	0.499994
C69	C	1.082883	0.304408	-0.000026
C70	C	1.582883	0.804408	0.499974
C71	C	1.093128	0.409647	-0.000040
C72	C	1.593128	0.909647	0.499960
N73	N	1.075500	0.131094	0.248745
N74	N	1.575500	0.631094	0.748745
N75	N	1.075554	0.131097	-0.248749
N76	N	1.575554	0.631097	0.251251
C77	C	1.019420	0.195444	0.701004
C78	C	1.519420	0.695444	1.201004
C79	C	1.131677	0.066751	0.700993
C80	C	1.631677	0.566751	1.200993
C81	C	1.131666	0.066748	0.600497
C82	C	1.631666	0.566748	1.100497
C83	C	1.075532	0.131095	0.550250
C84	C	1.575532	0.631095	1.050250
C85	C	1.019409	0.195445	0.600499
C86	C	1.519409	0.695445	1.100499
C87	C	1.187794	0.002406	0.550241
C88	C	1.687794	0.502406	1.050241
C89	C	1.187786	0.002401	0.449739
C90	C	1.687786	0.502401	0.949739
C91	C	1.131647	0.066744	0.399490
C92	C	1.631647	0.566744	0.899490
C93	C	1.075521	0.131096	0.449745
C94	C	1.575521	0.631096	0.949745
C95	C	1.019388	0.195443	0.399498
C96	C	1.519388	0.695443	0.899498
C97	C	0.963257	0.259791	0.449752
C98	C	1.463257	0.759791	0.949752
C99	C	0.963270	0.259789	0.550251
C100	C	1.463270	0.759789	1.050251
C101	C	1.131633	0.066747	0.298991
C102	C	1.631633	0.566747	0.798991
C103	C	1.019377	0.195444	0.298993
C104	C	1.519377	0.695444	0.798993
H105	H	0.348823	0.126579	-0.157918
H106	H	0.848823	0.626579	0.342082
C107	C	1.206421	-0.355440	0.000014
C108	C	1.706421	0.144560	0.500014
H109	H	1.250632	-0.405637	0.000006
H110	H	1.750632	0.094363	0.500006
H111	H	1.213476	-0.317335	0.055700
H112	H	1.713476	0.182665	0.555700
H113	H	1.213505	-0.317300	-0.055662
H114	H	1.713505	0.182700	0.444338
C115	C	0.944626	-0.382359	-0.000007
C116	C	1.444626	0.117641	0.499993
H117	H	0.949940	-0.449928	-0.000008
H118	H	1.449940	0.050072	0.499992
H119	H	0.912798	-0.361592	-0.055679
H120	H	1.412798	0.138408	0.444321
H121	H	0.912797	-0.361624	0.055684
H122	H	1.412797	0.138376	0.555684
H123	H	0.973716	0.247833	0.741923
H124	H	1.473716	0.747833	1.241923
H125	H	1.233501	-0.049979	0.591155
H126	H	1.733501	0.450021	1.091155
C127	C	0.815675	0.135890	0.182757
C128	C	1.315675	0.635890	0.682757
H129	H	0.878515	0.137154	0.170292
H130	H	1.378515	0.637154	0.670292
H131	H	0.802670	0.080344	0.218528
H132	H	1.302670	0.580344	0.718528
H133	H	0.797803	0.190826	0.218509
H134	H	1.297803	0.690826	0.718509
H135	H	0.973662	0.247840	0.258089
H136	H	1.473662	0.747840	0.758089
C137	C	0.476652	0.129155	-0.269819
C138	C	0.976652	0.629155	0.230181
H139	H	0.518189	0.129991	-0.321658
H140	H	1.018189	0.629991	0.178342
H141	H	0.437473	0.183656	-0.273429
H142	H	0.937473	0.683656	0.226571
H143	H	0.442349	0.073175	-0.273435
H144	H	0.942349	0.573175	0.226565
H145	H	0.660992	0.132837	-0.244944
H146	H	1.160992	0.632837	0.255056
H147	H	0.917556	0.312187	0.408829
H148	H	1.417556	0.812187	0.908829
H149	H	0.917571	0.312179	0.591173
H150	H	1.417571	0.812179	1.091173
H151	H	1.177384	0.014366	0.741907
H152	H	1.677384	0.514366	1.241907
C153	C	1.249518	-0.068385	0.394469
C154	C	1.749518	0.431615	0.894469
H155	H	1.282945	-0.106712	0.438789
H156	H	1.782945	0.393288	0.938789
H157	H	1.289787	-0.034219	0.355242
H158	H	1.789787	0.465781	0.855242
H159	H	1.213896	-0.107913	0.355286
H160	H	1.713896	0.392087	0.855286
C161	C	1.193369	-0.004026	0.243717
C162	C	1.693369	0.495974	0.743717
H163	H	1.226799	-0.042350	0.288036
H164	H	1.726799	0.457650	0.788036
H165	H	1.233634	0.030147	0.204493
H166	H	1.733634	0.530147	0.704493
H167	H	1.157753	-0.043558	0.204532
H168	H	1.657753	0.456442	0.704532
H169	H	0.660941	0.132774	0.244924
H170	H	1.160941	0.632774	0.744924
C171	C	0.815712	0.135928	-0.182783
C172	C	1.315712	0.635928	0.317217
H173	H	0.774178	0.135107	-0.234615
H174	H	1.274178	0.635107	0.265385
H175	H	0.854895	0.081431	-0.186403
H176	H	1.354895	0.581431	0.313597
H177	H	0.850013	0.191912	-0.186403
H178	H	1.350013	0.691912	0.313597
C179	C	0.476604	0.129099	0.269809
C180	C	0.976604	0.629099	0.769809
H181	H	0.518135	0.129933	0.321643
H182	H	1.018135	0.629933	0.821643
H183	H	0.442290	0.073130	0.273437
H184	H	0.942290	0.573130	0.773437
H185	H	0.437432	0.183612	0.273419
H186	H	0.937432	0.683612	0.773419
H187	H	0.348790	0.126555	0.157897
H188	H	0.848790	0.626555	0.657897
