data_functionalizedCrystal
_audit_creation_method	'MofGen! by Chris Wilmer'
_symmetry_space_group_name_H-M	'P1'
_symmetry_Int_Tables_number	1
_symmetry_cell_setting	triclinic
loop_
_symmetry_equiv_pos_as_xyz
  x,y,z
_cell_length_a	31.640171
_cell_length_b	31.640172
_cell_length_c	31.640172
_cell_angle_alpha	90.009241
_cell_angle_beta	59.993592
_cell_angle_gamma	59.979319
loop_
_atom_site_label
_atom_site_type_symbol
_atom_site_fract_x
_atom_site_fract_y
_atom_site_fract_z
Zr1	Zr	0.462748	0.406956	-0.055541
O2	O	0.550970	0.339415	-0.123063
O3	O	0.374537	0.427689	-0.034825
O4	O	0.462753	0.427635	-0.123027
O5	O	0.462747	0.339479	0.034696
O6	O	0.462744	0.497192	-0.123018
O7	O	0.462755	0.339469	-0.034861
O8	O	0.304942	0.497289	0.034760
O9	O	0.620549	0.339382	-0.123082
O10	O	0.410809	0.488407	-0.026003
O11	O	0.410810	0.436505	0.025899
O12	O	0.514673	0.436441	-0.077948
O13	O	0.514674	0.384539	-0.026046
Zr14	Zr	0.462722	0.517907	0.055408
Zr15	Zr	0.462734	0.517891	-0.055526
Zr16	Zr	0.462736	0.406972	0.055394
Zr17	Zr	0.573718	0.406903	-0.055571
Zr18	Zr	0.351753	0.517959	0.055439
O19	O	0.550934	0.497173	0.034692
O20	O	0.550950	0.497151	-0.123042
O21	O	0.550954	0.339437	0.034671
O22	O	0.374500	0.585448	0.122931
O23	O	0.374517	0.585425	-0.034804
O24	O	0.374520	0.427712	0.122910
O25	O	0.462724	0.585384	-0.034828
O26	O	0.462718	0.497228	0.122895
O27	O	0.462727	0.427671	0.122885
O28	O	0.462716	0.585394	0.034728
O29	O	0.620538	0.427561	-0.123071
O30	O	0.304933	0.497302	0.122938
O31	O	0.304922	0.585481	0.122950
O32	O	0.304931	0.585468	0.034772
O33	O	0.620540	0.339395	-0.034904
O34	O	0.620528	0.427573	-0.034893
O35	O	0.410798	0.488422	0.077815
O36	O	0.410797	0.540324	0.025913
O37	O	0.514661	0.488358	-0.026032
O38	O	0.514662	0.436456	0.025871
C39	C	0.323929	0.462497	-0.000028
C40	C	0.276819	0.462519	-0.000015
C41	C	-0.097756	0.500779	0.038266
C42	C	0.079197	0.500825	0.038294
O43	O	0.069457	0.533452	0.070888
N44	N	0.139681	0.462486	-0.000038
C45	C	0.155927	0.424135	-0.038382
O46	O	0.211433	0.391530	-0.070989
C47	C	-0.021026	0.424092	-0.038413
C48	C	-0.081510	0.462430	-0.000075
C49	C	-0.158237	0.539114	0.076600
C50	C	-0.202472	0.539101	0.076594
C51	C	-0.186226	0.500752	0.038254
C52	C	-0.125745	0.462417	-0.000081
C53	C	-0.004779	0.385744	-0.076758
C54	C	-0.049024	0.385737	-0.076763
C55	C	-0.109508	0.424075	-0.038425
C56	C	-0.153734	0.424055	-0.038427
N57	N	-0.214218	0.462393	-0.000095
C58	C	-0.230464	0.500742	0.038246
C59	C	0.248827	0.424160	-0.038363
C60	C	0.293065	0.424170	-0.038355
C61	C	0.216332	0.500860	0.038321
C62	C	0.172094	0.500848	0.038315
C63	C	0.188343	0.462499	-0.000031
C64	C	-0.323359	0.500710	0.038231
C65	C	-0.367594	0.500692	0.038223
C66	C	-0.290858	0.424004	-0.038455
C67	C	-0.246626	0.424020	-0.038445
C68	C	-0.262881	0.462378	-0.000100
O69	O	-0.144038	0.391448	-0.071007
O70	O	-0.285973	0.533349	0.070841
C71	C	-0.053521	0.500792	0.038271
C72	C	0.006961	0.462457	-0.000063
C73	C	0.023207	0.424109	-0.038403
C74	C	0.051199	0.462467	-0.000055
C75	C	0.034953	0.500816	0.038285
C76	C	-0.025531	0.539155	0.076618
C77	C	-0.069767	0.539141	0.076612
C78	C	0.083691	0.385770	-0.076735
C79	C	0.127923	0.385786	-0.076726
C80	C	0.111677	0.424135	-0.038386
C81	C	0.462753	0.323668	-0.000085
C82	C	0.462759	0.276573	-0.000091
C83	C	0.408514	0.011693	0.027059
C84	C	0.408504	-0.165292	0.027069
O85	O	0.362395	-0.165109	0.050148
N86	N	0.462719	-0.214548	-0.000046
C87	C	0.516941	-0.219556	-0.027163
O88	O	0.563054	-0.265512	-0.050222
C89	C	0.516951	-0.042572	-0.027170
C90	C	0.462732	0.006683	-0.000057
C91	C	0.354300	0.060946	0.054170
C92	C	0.354303	0.105189	0.054165
C93	C	0.408520	0.100179	0.027049
C94	C	0.462735	0.050927	-0.000062
C95	C	0.571172	-0.047581	-0.054284
C96	C	0.571169	-0.003329	-0.054282
C97	C	0.516950	0.045926	-0.027169
C98	C	0.516956	0.090161	-0.027184
N99	N	0.462740	0.139416	-0.000069
C100	C	0.408523	0.144426	0.027048
C101	C	0.516932	-0.312474	-0.027159
C102	C	0.516930	-0.356720	-0.027158
C103	C	0.408492	-0.302453	0.027076
C104	C	0.408495	-0.258206	0.027071
C105	C	0.462716	-0.263218	-0.000043
C106	C	0.408533	0.237338	0.027034
C107	C	0.408541	0.281583	0.027025
C108	C	0.516978	0.227312	-0.027206
C109	C	0.516971	0.183071	-0.027199
C110	C	0.462743	0.188087	-0.000075
O111	O	0.563040	0.090016	-0.050246
O112	O	0.362416	0.190386	0.050112
C113	C	0.408511	-0.032551	0.027064
C114	C	0.462725	-0.081803	-0.000047
C115	C	0.516943	-0.086813	-0.027163
C116	C	0.462723	-0.126049	-0.000046
C117	C	0.408505	-0.121040	0.027070
C118	C	0.354290	-0.071784	0.054185
C119	C	0.354293	-0.027541	0.054180
C120	C	0.571158	-0.136068	-0.054279
C121	C	0.571151	-0.180309	-0.054272
C122	C	0.516933	-0.175300	-0.027156
C123	C	0.601542	0.462366	-0.000105
C124	C	0.648652	0.462344	-0.000118
C125	C	0.462750	0.462411	-0.138828
C126	C	0.462755	0.462405	-0.185923
C127	C	0.462718	0.601195	-0.000048
C128	C	0.462712	0.648290	-0.000041
C129	C	0.462720	0.500761	-0.477923
C130	C	0.462712	0.500772	-0.654909
O131	O	0.462681	0.533375	-0.677777
N132	N	0.462718	0.462452	-0.677045
C133	C	0.462722	0.424128	-0.654929
O134	O	0.462721	0.391538	-0.677815
C135	C	0.462726	0.424119	-0.477942
C136	C	0.462726	0.462439	-0.455811
C137	C	0.462719	0.539078	-0.455792
C138	C	0.462724	0.539073	-0.411550
C139	C	0.462730	0.500751	-0.389438
C140	C	0.462731	0.462434	-0.411569
C141	C	0.462725	0.385798	-0.455825
C142	C	0.462725	0.385800	-0.411574
C143	C	0.462725	0.424120	-0.389444
C144	C	0.462742	0.424107	-0.345215
N145	N	0.462736	0.462428	-0.323079
C146	C	0.462730	0.500749	-0.345191
C147	C	0.462721	0.424135	-0.747851
C148	C	0.462721	0.424136	-0.792098
C149	C	0.462710	0.500781	-0.792074
C150	C	0.462714	0.500777	-0.747828
C151	C	0.462715	0.462455	-0.725715
C152	C	0.462742	0.500736	-0.252279
C153	C	0.462749	0.500726	-0.208034
C154	C	0.462757	0.424083	-0.208060
C155	C	0.462753	0.424091	-0.252303
C156	C	0.462743	0.462422	-0.274410
O157	O	0.462766	0.391524	-0.322316
O158	O	0.462718	0.533341	-0.322291
C159	C	0.462715	0.500766	-0.522165
C160	C	0.462715	0.462449	-0.544296
C161	C	0.462721	0.424127	-0.522184
C162	C	0.462715	0.462450	-0.588543
C163	C	0.462710	0.500772	-0.610655
C164	C	0.462704	0.539092	-0.588519
C165	C	0.462709	0.539087	-0.544277
C166	C	0.462727	0.385807	-0.544320
C167	C	0.462722	0.385814	-0.588563
C168	C	0.462717	0.424136	-0.610674
C169	C	0.462721	0.462451	0.138696
C170	C	0.462716	0.462458	0.185790
C171	C	0.323911	0.601260	-0.000009
C172	C	0.276796	0.648377	0.000010
C173	C	0.323914	0.462517	0.138734
C174	C	0.276799	0.462546	0.185842
C175	C	0.323897	0.601280	0.138753
C176	C	0.276776	0.648404	0.185866
C177	C	0.601574	0.323583	-0.138885
C178	C	0.648695	0.276459	-0.185999
C179	C	0.601559	0.323603	-0.000123
C180	C	0.648675	0.276485	-0.000142
C181	C	0.601557	0.462346	-0.138867
C182	C	0.648671	0.462317	-0.185974
C183	C	0.254676	0.643404	-0.027085
C184	C	0.210412	0.687671	-0.027078
C185	C	0.188266	0.736912	0.000029
C186	C	0.210390	0.741884	0.027125
C187	C	0.254656	0.697617	0.027114
C188	C	0.254668	0.489660	0.235068
C189	C	0.210405	0.489685	0.279335
C190	C	0.188271	0.462599	0.274374
C191	C	0.210407	0.435482	0.225142
C192	C	0.254673	0.435454	0.180877
C193	C	0.254647	0.697631	0.180899
C194	C	0.210378	0.741914	0.225163
C195	C	0.188236	0.736968	0.274394
C196	C	0.210370	0.687735	0.279361
C197	C	0.254641	0.643454	0.235097
C198	C	0.670829	0.227232	-0.181032
C199	C	0.715111	0.182949	-0.225296
C200	C	0.737256	0.187895	-0.274527
C201	C	0.715120	0.237127	-0.279493
C202	C	0.670841	0.281408	-0.235229
C203	C	0.670799	0.281459	0.026948
C204	C	0.715076	0.237191	0.026928
C205	C	0.737224	0.187951	-0.000180
C206	C	0.715097	0.182979	-0.027274
C207	C	0.670825	0.227245	-0.027256
C208	C	0.670791	0.489408	-0.180997
C209	C	0.715054	0.489391	-0.225255
C210	C	0.737200	0.462279	-0.274490
C211	C	0.715077	0.435187	-0.279467
C212	C	0.670811	0.435208	-0.235209
H213	H	-0.171476	0.570345	0.107822
O214	O	0.738992	0.129866	-0.056510
H215	H	0.701838	0.125379	-0.040843
O216	O	0.278504	0.702984	0.056348
H217	H	0.255658	0.744662	0.075202
O218	O	0.646964	0.221874	-0.056476
H219	H	0.612460	0.260924	-0.051917
O220	O	0.278565	0.590298	-0.056331
H221	H	0.241410	0.585814	-0.040673
H222	H	0.462733	0.531949	-0.270274
O223	O	0.738972	0.129852	-0.219934
H224	H	0.716121	0.133857	-0.178264
O225	O	0.350044	0.242755	0.056284
H226	H	0.347432	0.223911	0.086243
O227	O	0.738911	0.518613	-0.219881
H228	H	0.759082	0.502939	-0.198408
O229	O	0.278459	0.406292	0.127782
H230	H	0.255595	0.387497	0.131775
H231	H	0.733115	0.413114	-0.319560
H232	H	0.462707	0.531984	-0.810086
O233	O	0.462750	0.382792	-0.815981
H234	H	0.462757	0.356145	-0.793168
H235	H	0.310152	0.145291	0.076241
H236	H	0.262068	0.392930	-0.069590
H237	H	0.462751	0.531931	-0.190018
O238	O	-0.432833	0.542044	0.079573
H239	H	-0.454832	0.564128	0.061147
O240	O	0.738928	0.242560	0.056159
H241	H	0.716077	0.284237	0.075020
O242	O	0.575422	-0.317892	-0.056420
H243	H	0.578014	-0.299037	-0.086369
H244	H	0.773310	0.151834	-0.310565
H245	H	0.615323	-0.087679	-0.076361
H246	H	0.773244	0.462267	-0.310524
H247	H	0.773273	0.151910	-0.000189
H248	H	0.561121	0.223242	-0.049285
H249	H	0.462724	0.354594	-0.393571
O250	O	-0.273338	0.382643	-0.079807
H251	H	-0.246458	0.384520	-0.118445
O252	O	0.186532	0.795008	0.219797
H253	H	0.152040	0.824973	0.258844
H254	H	0.044463	0.354529	-0.107981
H255	H	0.272684	0.511716	0.239117
O256	O	0.186556	0.682298	-0.056304
H257	H	0.152060	0.721349	-0.051752
H258	H	-0.119013	0.570360	0.107830
O259	O	0.140516	0.784656	0.000044
H260	H	0.128855	0.772920	-0.023348
H261	H	0.192351	0.781982	0.049194
H262	H	0.652806	0.413145	-0.239269
H263	H	0.652766	0.511485	-0.140911
O264	O	0.186524	0.518943	0.332431
H265	H	0.209344	0.537781	0.328439
H266	H	0.152228	0.462626	0.310422
O267	O	0.186516	0.406286	0.219794
H268	H	0.152008	0.410874	0.258848
H269	H	0.462722	0.392927	-0.729850
H270	H	-0.336602	0.531945	0.069455
O271	O	0.278529	0.702975	0.127804
H272	H	0.241372	0.724488	0.123316
O273	O	-0.267707	0.580461	0.117934
H274	H	-0.271562	0.607131	0.144586
O275	O	0.140480	0.784730	0.322135
H276	H	0.128811	0.819790	0.310405
H277	H	0.192335	0.683716	0.319450
O278	O	0.646949	0.221892	-0.127935
H279	H	0.684108	0.200397	-0.123445
H280	H	0.203111	0.532084	0.069540
O281	O	0.106858	0.542203	0.079657
H282	H	0.103000	0.568872	0.106314
H283	H	0.733155	0.241148	-0.319582
O284	O	0.358300	0.382821	-0.079705
H285	H	0.362158	0.356159	-0.106368
H286	H	0.272652	0.603373	0.239149
H287	H	0.561080	-0.396822	-0.049242
O288	O	0.462736	0.344468	-0.520480
H289	H	0.422197	0.362909	-0.480045
O290	O	-0.031498	0.344373	-0.118120
H291	H	0.017992	0.317716	-0.144772
H292	H	-0.197375	0.392790	-0.069650
H293	H	-0.038753	0.570378	0.107837
H294	H	0.177172	0.354562	-0.107945
H295	H	0.096928	0.354542	-0.107958
H296	H	0.652770	0.321549	0.049026
O297	O	0.350060	0.334710	0.056270
H298	H	0.312361	0.330756	0.075130
O299	O	0.295817	0.066354	0.083412
H300	H	0.258125	0.108040	0.102257
H301	H	0.462761	0.392883	-0.270326
O302	O	0.350018	-0.205082	0.056317
H303	H	0.312320	-0.209038	0.075173
H304	H	0.652820	0.321490	-0.239280
H305	H	0.364346	-0.298380	0.049152
H306	H	0.615324	-0.007416	-0.076356
O307	O	0.575447	0.129942	-0.056442
H308	H	0.613148	0.133895	-0.075296
H309	H	0.310144	-0.067712	0.076261
O310	O	0.295814	0.025582	0.083426
H311	H	0.258118	0.021623	0.102283
H312	H	0.615306	-0.220414	-0.076355
H313	H	0.615310	-0.140155	-0.076361
H314	H	0.462712	0.570286	-0.473790
O315	O	0.462712	0.580409	-0.387676
H316	H	0.462699	0.607058	-0.410487
H317	H	0.462714	0.531980	-0.729812
O318	O	0.462757	0.344451	-0.479704
H319	H	0.462766	0.317805	-0.456891
H320	H	0.462765	0.392881	-0.190052
H321	H	0.462709	0.570291	-0.526261
H322	H	0.462702	0.570294	-0.606531
H323	H	0.462727	0.354605	-0.606581
