data_functionalizedCrystal
_audit_creation_method	'MofGen! by Chris Wilmer'
_symmetry_space_group_name_H-M	'P1'
_symmetry_Int_Tables_number	1
_symmetry_cell_setting	triclinic
loop_
_symmetry_equiv_pos_as_xyz
  x,y,z
_cell_length_a	13.033291
_cell_length_b	16.625539
_cell_length_c	13.032721
_cell_angle_alpha	97.153640
_cell_angle_beta	105.184202
_cell_angle_gamma	82.790211
loop_
_atom_site_label
_atom_site_type_symbol
_atom_site_fract_x
_atom_site_fract_y
_atom_site_fract_z
Zn1	Zn	1.570218	-0.631278	-0.216819
Zn2	Zn	1.903551	-0.297945	0.116514
Zn3	Zn	2.236885	0.035389	0.449848
Zn4	Zn	1.547534	-0.511621	-0.394463
Zn5	Zn	1.880867	-0.178288	-0.061130
Zn6	Zn	2.214201	0.155045	0.272203
Zn7	Zn	1.392579	-0.481233	-0.239393
Zn8	Zn	1.725913	-0.147900	0.093940
Zn9	Zn	2.059246	0.185433	0.427273
Zn10	Zn	1.369997	-0.631185	-0.416925
Zn11	Zn	1.703330	-0.297852	-0.083592
Zn12	Zn	2.036663	0.035481	0.249742
O13	O	1.470082	-0.563830	-0.316900
O14	O	1.803415	-0.230496	0.016433
O15	O	2.136749	0.102837	0.349766
O16	O	1.715851	-0.628161	-0.221536
O17	O	2.049185	-0.294828	0.111797
O18	O	2.382518	0.038505	0.445130
O19	O	1.526936	-0.394758	-0.373940
O20	O	1.860270	-0.061425	-0.040607
O21	O	2.193603	0.271908	0.292726
O22	O	1.435088	-0.488458	-0.087756
O23	O	1.768421	-0.155125	0.245577
O24	O	2.101755	0.178208	0.578910
O25	O	1.699185	-0.540250	-0.352051
O26	O	2.032519	-0.206917	-0.018717
O27	O	2.365852	0.126416	0.314616
O28	O	1.565598	-0.598695	-0.071171
O29	O	1.898932	-0.265362	0.262162
O30	O	2.232265	0.067971	0.595496
O31	O	1.413092	-0.372433	-0.260011
O32	O	1.746425	-0.039099	0.073322
O33	O	2.079759	0.294234	0.406656
O34	O	1.240942	-0.488369	-0.281791
O35	O	1.574275	-0.155035	0.051542
O36	O	1.907608	0.178298	0.384876
O37	O	1.396599	-0.744030	-0.390333
O38	O	1.729932	-0.410696	-0.057000
O39	O	2.063266	-0.077363	0.276333
O40	O	1.224350	-0.598538	-0.412223
O41	O	1.557683	-0.265204	-0.078890
O42	O	1.891017	0.068129	0.254444
O43	O	1.543701	-0.744098	-0.243316
O44	O	1.877034	-0.410764	0.090017
O45	O	2.210367	-0.077431	0.423350
O46	O	1.505039	-0.540161	-0.546086
O47	O	1.838372	-0.206827	-0.212752
O48	O	2.171706	0.126506	0.120581
O49	O	1.374603	-0.628004	-0.562588
O50	O	1.707936	-0.294670	-0.229255
O51	O	2.041270	0.038663	0.104079
C52	C	1.194104	-0.540146	-0.351895
C53	C	1.527438	-0.206813	-0.018561
C54	C	1.860771	0.126521	0.314772
C55	C	1.076037	-0.530036	-0.366891
C56	C	1.409370	-0.196702	-0.033558
C57	C	1.742703	0.136631	0.299776
C58	C	1.470161	-0.774138	-0.316812
C59	C	1.803494	-0.440804	0.016521
C60	C	2.136828	-0.107471	0.349854
C61	C	1.470195	-0.863759	-0.316775
C62	C	1.803528	-0.530425	0.016558
C63	C	2.136862	-0.197092	0.349892
C64	C	0.909607	-0.558665	-0.324590
C65	C	1.242940	-0.225332	0.008744
C66	C	1.576273	0.108002	0.342077
C67	C	1.031635	-0.569114	-0.309093
C68	C	1.364969	-0.235781	0.024241
C69	C	1.698302	0.097552	0.357574
C70	C	1.470259	-1.191928	-0.316650
C71	C	1.803592	-0.858595	0.016684
C72	C	2.136926	-0.525262	0.350017
C73	C	1.470238	-1.100622	-0.316688
C74	C	1.803571	-0.767288	0.016645
C75	C	2.136904	-0.433955	0.349978
C76	C	1.470227	-1.027846	-0.316713
C77	C	1.803561	-0.694513	0.016620
C78	C	2.136894	-0.361180	0.349954
C79	C	1.470205	-0.936534	-0.316750
C80	C	1.803539	-0.603200	0.016583
C81	C	2.136872	-0.269867	0.349917
C82	C	1.747137	-0.587606	-0.281770
C83	C	2.080470	-0.254273	0.051563
C84	C	2.413804	0.079061	0.384897
C85	C	1.865202	-0.597738	-0.266799
C86	C	2.198535	-0.264405	0.066534
C87	C	2.531868	0.068929	0.399867
C88	C	1.434938	-0.587390	-0.592874
C89	C	1.768271	-0.254056	-0.259541
C90	C	2.101604	0.079277	0.073792
C91	C	1.420000	-0.597504	-0.710925
C92	C	1.753333	-0.264171	-0.377592
C93	C	2.086667	0.069163	-0.044258
C94	C	1.470074	-0.354338	-0.316903
C95	C	1.803407	-0.021005	0.016430
C96	C	2.136741	0.312328	0.349763
C97	C	1.470284	-0.264710	-0.316616
C98	C	1.803618	0.068623	0.016718
C99	C	2.136951	0.401957	0.350051
C100	C	1.477935	-0.558592	-0.755349
C101	C	1.811268	-0.225259	-0.422015
C102	C	2.144601	0.108075	-0.088682
C103	C	1.462497	-0.569045	-0.877360
C104	C	1.795830	-0.235711	-0.544027
C105	C	2.129164	0.097622	-0.210693
C106	C	1.505392	-0.540198	-0.039845
C107	C	1.838726	-0.206864	0.293489
C108	C	2.172059	0.126469	0.626822
C109	C	1.520440	-0.530127	0.078220
C110	C	1.853773	-0.196794	0.411553
C111	C	2.187106	0.136540	0.744887
H112	H	0.857283	-0.517473	-0.385535
H113	H	1.190616	-0.184140	-0.052201
H114	H	1.523949	0.149194	0.281132
O115	O	0.934495	-0.652296	-0.186055
O116	O	1.267829	-0.318963	0.147278
O117	O	1.601162	0.014371	0.480612
H118	H	0.979001	-0.701629	-0.227284
H119	H	1.312334	-0.368296	0.106050
H120	H	1.645667	-0.034963	0.439383
H121	H	1.358976	-0.638560	-0.763220
H122	H	1.692309	-0.305227	-0.429887
H123	H	2.025642	0.028107	-0.096553
O124	O	1.006740	-0.475466	-0.447626
O125	O	1.340073	-0.142133	-0.114292
O126	O	1.673407	0.191200	0.219041
H127	H	1.057833	-0.448428	-0.487592
H128	H	1.391167	-0.115095	-0.154259
H129	H	1.724500	0.218238	0.179074
H130	H	1.538968	-0.517542	-0.703055
H131	H	1.872301	-0.184209	-0.369722
H132	H	2.205634	0.149124	-0.036388
H133	H	1.401469	-0.610104	-0.929652
H134	H	1.734802	-0.276770	-0.596318
H135	H	2.068135	0.056563	-0.262985
H136	H	1.083957	-0.610301	-0.248134
H137	H	1.417290	-0.276968	0.085199
H138	H	1.750624	0.056366	0.418532
H139	H	1.581477	-0.489075	-0.869488
H140	H	1.914810	-0.155742	-0.536155
H141	H	2.248143	0.177592	-0.202822
