data_functionalizedCrystal
_audit_creation_method	'MofGen! by Chris Wilmer'
_symmetry_space_group_name_H-M	'P1'
_symmetry_Int_Tables_number	1
_symmetry_cell_setting	triclinic
loop_
_symmetry_equiv_pos_as_xyz
  x,y,z
_cell_length_a	27.440280
_cell_length_b	21.606444
_cell_length_c	21.606444
_cell_angle_alpha	59.991153
_cell_angle_beta	89.997894
_cell_angle_gamma	59.998361
loop_
_atom_site_label
_atom_site_type_symbol
_atom_site_fract_x
_atom_site_fract_y
_atom_site_fract_z
Zr1	Zr	0.469491	0.677468	-0.081353
O2	O	0.391671	0.806610	-0.180199
O3	O	0.493347	0.548334	-0.051037
O4	O	0.493343	0.677470	-0.180181
O5	O	0.391679	0.677470	0.050800
O6	O	0.573544	0.677463	-0.180184
O7	O	0.391675	0.677474	-0.051054
O8	O	0.573552	0.446462	0.050832
O9	O	0.391671	0.908470	-0.180216
O10	O	0.563375	0.601440	-0.038127
O11	O	0.503525	0.601443	0.037888
O12	O	0.503520	0.753483	-0.114163
O13	O	0.443669	0.753486	-0.038148
Zr14	Zr	0.597409	0.677449	0.081088
Zr15	Zr	0.597403	0.677456	-0.081358
Zr16	Zr	0.469498	0.677461	0.081093
Zr17	Zr	0.469492	0.839923	-0.081380
Zr18	Zr	0.597409	0.514994	0.081115
O19	O	0.573554	0.806583	0.050772
O20	O	0.573544	0.806593	-0.180205
O21	O	0.391680	0.806600	0.050778
O22	O	0.675230	0.548307	0.179934
O23	O	0.675221	0.548317	-0.051043
O24	O	0.493356	0.548325	0.179940
O25	O	0.675221	0.677447	-0.051065
O26	O	0.573558	0.677447	0.179916
O27	O	0.493357	0.677455	0.179919
O28	O	0.675226	0.677443	0.050789
O29	O	0.493344	0.908461	-0.180219
O30	O	0.573557	0.446457	0.179954
O31	O	0.675230	0.446447	0.179951
O32	O	0.675225	0.446452	0.050828
O33	O	0.391676	0.908465	-0.051093
O34	O	0.493349	0.908455	-0.051097
O35	O	0.563381	0.601434	0.113898
O36	O	0.623231	0.601431	0.037883
O37	O	0.563376	0.753474	-0.038153
O38	O	0.503526	0.753477	0.037862
C39	C	0.533449	0.474252	-0.000098
C40	C	0.533449	0.405285	-0.000087
C41	C	0.489262	0.429027	-0.056214
C42	C	0.489263	0.364238	-0.056229
C43	C	0.533450	0.275708	-0.000115
C44	C	0.577642	0.251966	0.056015
C45	C	0.577642	0.316755	0.056027
C46	C	0.577642	-0.009320	0.055967
C47	C	0.577637	-0.074109	0.055952
C48	C	0.489263	0.038162	-0.056289
C49	C	0.489263	0.102951	-0.056277
C50	C	0.533456	0.079205	-0.000150
C51	C	0.533455	0.149457	-0.000134
C52	C	0.533450	0.205456	-0.000126
C53	C	0.373453	0.677474	-0.000127
C54	C	0.319151	0.677479	-0.000125
C55	C	0.084466	0.677444	0.055996
C56	C	0.135486	0.677447	0.055997
O57	O	0.161888	0.677415	0.103733
N58	N	0.160996	0.677456	-0.000119
C59	C	0.135489	0.677453	-0.056235
O60	O	0.161873	0.677461	-0.103966
C61	C	0.084473	0.677445	-0.056233
C62	C	0.058961	0.677445	-0.000118
C63	C	0.058955	0.677443	0.112107
C64	C	0.007938	0.677443	0.112104
C65	C	-0.017567	0.677443	0.055991
C66	C	0.007944	0.677444	-0.000121
C67	C	0.058968	0.677437	-0.112346
C68	C	0.007949	0.677428	-0.112339
C69	C	-0.017563	0.677427	-0.056223
C70	C	-0.068578	0.677444	-0.056237
N71	N	-0.094089	0.677435	-0.000121
C72	C	-0.068583	0.677435	0.055993
C73	C	0.242627	0.677470	-0.056235
C74	C	0.293639	0.677484	-0.056241
C75	C	0.293633	0.677476	0.055992
C76	C	0.242617	0.677467	0.055995
C77	C	0.217116	0.677461	-0.000119
C78	C	-0.175722	0.677434	0.055983
C79	C	-0.226745	0.677438	0.055973
C80	C	-0.226733	0.677441	-0.056257
C81	C	-0.175716	0.677443	-0.056251
C82	C	-0.150211	0.677437	-0.000124
O83	O	-0.095011	0.677472	-0.103947
O84	O	-0.094969	0.677416	0.103721
C85	C	0.693448	0.677443	-0.000138
C86	C	0.747750	0.677438	-0.000140
C87	C	0.533442	0.677467	-0.203327
C88	C	0.533439	0.677470	-0.272289
C89	C	0.533451	0.880665	-0.000166
C90	C	0.533452	0.949632	-0.000178
C91	C	0.502195	0.756835	-0.344378
C92	C	0.502200	0.756832	-0.409173
C93	C	0.533447	0.677465	-0.401878
C94	C	0.564695	0.598094	-0.329781
C95	C	0.564693	0.598097	-0.264988
C96	C	0.564704	0.598079	-0.591084
C97	C	0.564702	0.598082	-0.655885
C98	C	0.502212	0.756814	-0.735269
C99	C	0.502210	0.756817	-0.670476
C100	C	0.533460	0.677447	-0.598386
C101	C	0.533455	0.677451	-0.528128
C102	C	0.533449	0.677460	-0.472133
C103	C	0.533458	0.677450	0.203062
C104	C	0.533461	0.677447	0.272025
C105	C	0.693447	0.474237	-0.000104
C106	C	0.747749	0.405265	-0.000095
C107	C	0.533458	0.474243	0.203096
C108	C	0.533460	0.405274	0.272070
C109	C	0.693455	0.474228	0.203090
C110	C	0.747760	0.405253	0.272062
C111	C	0.373445	0.880689	-0.203355
C112	C	0.319141	0.949664	-0.272327
C113	C	0.373453	0.880681	-0.000161
C114	C	0.319152	0.949652	-0.000170
C115	C	0.533443	0.880674	-0.203361
C116	C	0.533441	0.949643	-0.272335
C117	C	0.742005	0.372880	-0.039774
C118	C	0.793022	0.308082	-0.039780
C119	C	0.849782	0.275667	-0.000102
C120	C	0.855525	0.308059	0.039578
C121	C	0.804508	0.372859	0.039579
C122	C	0.564705	0.372880	0.344144
C123	C	0.564706	0.308085	0.408959
C124	C	0.533463	0.275680	0.401697
C125	C	0.502214	0.308080	0.329616
C126	C	0.502211	0.372879	0.264803
C127	C	0.804508	0.372861	0.264773
C128	C	0.855538	0.308061	0.329574
C129	C	0.849817	0.275650	0.401662
C130	C	0.793063	0.308049	0.408950
C131	C	0.742035	0.372852	0.344150
C132	C	0.262393	0.982064	-0.265038
C133	C	0.211363	1.046885	-0.329839
C134	C	0.217083	1.079299	-0.401927
C135	C	0.273838	1.046896	-0.409215
C136	C	0.324866	0.982081	-0.344415
C137	C	0.324896	0.982044	0.039502
C138	C	0.273879	1.046859	0.039490
C139	C	0.217118	1.079277	-0.000190
C140	C	0.211376	1.046882	-0.039867
C141	C	0.262392	0.982073	-0.039859
C142	C	0.564689	0.982028	-0.265049
C143	C	0.564698	1.046823	-0.329851
C144	C	0.533456	1.079238	-0.401939
C145	C	0.502206	1.046847	-0.409223
C146	C	0.502201	0.982048	-0.344421
H147	H	0.453281	0.383576	-0.101933
F148	F	-0.253895	0.677440	0.115700
H149	H	0.891373	0.222883	0.454420
H150	H	0.695792	0.399272	-0.072093
F151	F	0.442231	0.197171	-0.115999
H152	H	0.175582	1.132049	-0.000190
F153	F	0.468954	0.841287	-0.811999
H154	H	0.175528	1.132075	-0.454685
H155	H	0.590147	0.399257	0.350071
H156	H	0.788414	0.281651	0.467653
H157	H	0.453274	0.501110	-0.101901
F158	F	0.150962	1.081391	-0.082093
H159	H	0.613622	0.179879	0.101701
F160	F	0.624675	0.291484	0.115762
F161	F	0.442229	0.063432	-0.116027
H162	H	0.278488	1.073296	-0.467917
F163	F	0.468935	0.947596	-0.352187
H164	H	-0.154961	0.677428	0.101687
F165	F	0.597961	0.513603	-0.648115
H166	H	0.809194	0.399219	0.071895
H167	H	0.613622	-0.146198	0.101650
H168	H	0.257707	0.955701	-0.072163
H169	H	0.613627	-0.028666	0.101669
F170	F	-0.019206	0.677436	0.171832
F171	F	0.086111	0.677435	-0.172070
F172	F	0.597945	0.947541	-0.188335
F173	F	0.468956	0.407343	0.188097
F174	F	0.468946	0.841291	-0.678246
H175	H	0.079718	0.677440	0.157805
F176	F	0.280003	1.081322	0.081724
H177	H	0.695830	0.399218	0.350095
F178	F	0.597968	0.273612	0.485666
F179	F	0.468953	1.081360	-0.485950
F180	F	0.533472	0.206715	0.470685
H181	H	0.476777	0.281687	0.323714
H182	H	0.590151	0.533451	-0.532394
F183	F	0.786898	0.273618	-0.082012
F184	F	0.597951	0.513625	-0.322019
F185	F	0.597953	0.513627	-0.188264
F186	F	0.215471	0.677466	0.115720
H187	H	0.533465	1.132001	-0.454698
H188	H	0.314410	0.677474	0.101684
H189	H	0.590144	1.073189	-0.323906
H190	H	0.314402	0.677498	-0.101942
F191	F	0.385261	0.947600	-0.352184
F192	F	0.215487	0.677471	-0.115968
F193	F	0.904074	0.206699	-0.000109
H194	H	-0.012811	0.677419	-0.158033
H195	H	-0.154949	0.677456	-0.101951
H196	H	-0.247508	0.677446	-0.101947
F197	F	0.915939	0.273549	0.081805
H198	H	0.476747	0.821465	-0.350327
F199	F	0.810609	0.407347	0.188057
H200	H	0.901745	0.281688	0.323627
F201	F	0.150967	1.081356	-0.322067
F202	F	0.468945	0.841303	-0.485895
F203	F	0.385300	0.947557	0.081736
F204	F	0.256291	0.947577	-0.188322
