data_functionalizedCrystal
_audit_creation_method	'MofGen! by Chris Wilmer'
_symmetry_space_group_name_H-M	'P1'
_symmetry_Int_Tables_number	1
_symmetry_cell_setting	triclinic
loop_
_symmetry_equiv_pos_as_xyz
  x,y,z
_cell_length_a	31.640172
_cell_length_b	31.640171
_cell_length_c	18.878441
_cell_angle_alpha	59.979608
_cell_angle_beta	90.002470
_cell_angle_gamma	59.992468
loop_
_atom_site_label
_atom_site_type_symbol
_atom_site_fract_x
_atom_site_fract_y
_atom_site_fract_z
Zr1	Zr	0.407057	0.462742	-0.093233
O2	O	0.339545	0.550958	-0.206424
O3	O	0.427770	0.374533	-0.058486
O4	O	0.427748	0.462741	-0.206335
O5	O	0.339566	0.462749	0.057996
O6	O	0.497305	0.462732	-0.206319
O7	O	0.339567	0.462750	-0.058575
O8	O	0.497345	0.304944	0.058156
O9	O	0.339526	0.620537	-0.206479
O10	O	0.488493	0.410806	-0.043713
O11	O	0.436583	0.410811	0.043271
O12	O	0.436556	0.514664	-0.130802
O13	O	0.384646	0.514670	-0.043818
Zr14	Zr	0.517991	0.462726	0.092709
Zr15	Zr	0.517993	0.462728	-0.093208
Zr16	Zr	0.407055	0.462740	0.092684
Zr17	Zr	0.407027	0.573712	-0.093321
Zr18	Zr	0.518021	0.351756	0.092797
O19	O	0.497278	0.550935	0.057962
O20	O	0.497281	0.550938	-0.206389
O21	O	0.339542	0.550955	0.057926
O22	O	0.585503	0.374510	0.205900
O23	O	0.585506	0.374513	-0.058450
O24	O	0.427767	0.374530	0.205865
O25	O	0.585482	0.462719	-0.058520
O26	O	0.497300	0.462727	0.205811
O27	O	0.427743	0.462736	0.205795
O28	O	0.585481	0.462718	0.058051
O29	O	0.427705	0.620525	-0.206459
O30	O	0.497343	0.304943	0.205935
O31	O	0.585522	0.304932	0.205955
O32	O	0.585524	0.304933	0.058176
O33	O	0.339524	0.620535	-0.058699
O34	O	0.427703	0.620524	-0.058680
O35	O	0.488492	0.410804	0.130278
O36	O	0.540402	0.410798	0.043294
O37	O	0.488465	0.514657	-0.043795
O38	O	0.436555	0.514663	0.043189
C39	C	0.462562	0.323928	-0.000152
C40	C	0.462574	0.276818	-0.000115
C41	C	0.435427	-0.059401	0.045151
C42	C	0.435455	0.117552	0.045227
O43	O	0.412431	0.140417	0.083879
N44	N	0.462555	0.139678	-0.000169
C45	C	0.489654	0.117560	-0.045583
O46	O	0.512709	0.140435	-0.084186
C47	C	0.489629	-0.059396	-0.045654
C48	C	0.462522	-0.081515	-0.000262
C49	C	0.408323	-0.081521	0.090540
C50	C	0.408314	-0.125754	0.090516
C51	C	0.435409	-0.147868	0.045104
C52	C	0.462513	-0.125749	-0.000285
C53	C	0.516730	-0.081516	-0.091062
C54	C	0.516722	-0.125759	-0.091074
C55	C	0.489616	-0.147878	-0.045682
C56	C	0.489599	-0.192096	-0.045721
N57	N	0.462499	-0.214222	-0.000325
C58	C	0.435404	-0.192108	0.045087
C59	C	0.489664	0.210465	-0.045544
C60	C	0.489670	0.254705	-0.045528
C61	C	0.435471	0.254693	0.045284
C62	C	0.435463	0.210456	0.045262
C63	C	0.462563	0.188339	-0.000148
C64	C	0.435387	-0.285001	0.045034
C65	C	0.435378	-0.329236	0.045004
C66	C	0.489579	-0.329223	-0.045804
C67	C	0.489585	-0.284989	-0.045777
C68	C	0.462488	-0.262881	-0.000352
O69	O	0.512616	-0.214992	-0.084345
O70	O	0.412361	-0.215000	0.083700
C71	C	0.435436	-0.015168	0.045174
C72	C	0.462540	0.006952	-0.000215
C73	C	0.489635	-0.015162	-0.045627
C74	C	0.462546	0.051191	-0.000199
C75	C	0.435451	0.073305	0.045214
C76	C	0.408350	0.051179	0.090610
C77	C	0.408341	0.006946	0.090586
C78	C	0.516736	0.006964	-0.091024
C79	C	0.516742	0.051198	-0.090997
C80	C	0.489647	0.073311	-0.045585
C81	C	0.323761	0.462752	-0.000293
C82	C	0.276666	0.462758	-0.000303
C83	C	0.011770	0.408515	0.045215
C84	C	-0.165215	0.408505	0.045232
O85	O	-0.165044	0.362398	0.083926
N86	N	-0.214455	0.462718	-0.000228
C87	C	-0.219448	0.516937	-0.045692
O88	O	-0.265391	0.563048	-0.084352
C89	C	-0.042464	0.516947	-0.045704
C90	C	0.006776	0.462730	-0.000247
C91	C	0.061008	0.354303	0.090669
C92	C	0.105251	0.354306	0.090660
C93	C	0.100257	0.408522	0.045198
C94	C	0.051019	0.462733	-0.000256
C95	C	-0.047458	0.571165	-0.091162
C96	C	-0.003206	0.571163	-0.091159
C97	C	0.046034	0.516947	-0.045702
C98	C	0.090268	0.516952	-0.045727
N99	N	0.139509	0.462739	-0.000266
C100	C	0.144503	0.408524	0.045197
C101	C	-0.312366	0.516928	-0.045684
C102	C	-0.356612	0.516926	-0.045683
C103	C	-0.302375	0.408493	0.045243
C104	C	-0.258129	0.408496	0.045236
C105	C	-0.263126	0.462715	-0.000223
C106	C	0.237415	0.408534	0.045174
C107	C	0.281660	0.408542	0.045159
C108	C	0.227420	0.516974	-0.045763
C109	C	0.183178	0.516967	-0.045752
C110	C	0.188180	0.462742	-0.000276
O111	O	0.090137	0.563034	-0.084392
O112	O	0.190450	0.362420	0.083866
C113	C	-0.032473	0.408512	0.045224
C114	C	-0.081711	0.462724	-0.000230
C115	C	-0.086705	0.516939	-0.045692
C116	C	-0.125957	0.462722	-0.000228
C117	C	-0.120963	0.408507	0.045234
C118	C	-0.071722	0.354294	0.090695
C119	C	-0.027479	0.354297	0.090686
C120	C	-0.135945	0.571152	-0.091153
C121	C	-0.180186	0.571144	-0.091141
C122	C	-0.175192	0.516929	-0.045679
C123	C	0.601287	0.462717	-0.000231
C124	C	0.648382	0.462711	-0.000220
C125	C	0.462526	0.462737	-0.232816
C126	C	0.462527	0.462738	-0.311743
C127	C	0.462486	0.601540	-0.000372
C128	C	0.462473	0.648650	-0.000409
C129	C	0.424202	0.462735	-0.651708
C130	C	0.424204	0.462732	-0.577547
C131	C	0.462524	0.462730	-0.540464
C132	C	0.500847	0.462725	-0.577540
C133	C	0.500846	0.462723	-0.651697
C134	C	0.500846	0.462730	-0.422976
C135	C	0.500846	0.462734	-0.348816
C136	C	0.424204	0.462740	-0.348826
C137	C	0.424203	0.462738	-0.422983
C138	C	0.462525	0.462733	-0.460055
C139	C	0.462522	0.462731	0.232292
C140	C	0.462521	0.462731	0.311219
C141	C	0.601325	0.323910	-0.000121
C142	C	0.648433	0.276795	-0.000074
C143	C	0.462559	0.323925	0.232402
C144	C	0.462571	0.276815	0.311366
C145	C	0.601323	0.323908	0.232433
C146	C	0.648430	0.276792	0.311407
C147	C	0.323725	0.601560	-0.232957
C148	C	0.276618	0.648677	-0.311931
C149	C	0.323723	0.601558	-0.000403
C150	C	0.276615	0.648673	-0.000450
C151	C	0.462489	0.601543	-0.232926
C152	C	0.462477	0.648653	-0.311890
C153	C	0.643459	0.254673	-0.045476
C154	C	0.687718	0.210409	-0.045448
C155	C	0.736949	0.188265	-0.000013
C156	C	0.741922	0.210391	0.045390
C157	C	0.697664	0.254658	0.045357
C158	C	0.489673	0.254687	0.393873
C159	C	0.489682	0.210428	0.468075
C160	C	0.462592	0.188295	0.459768
C161	C	0.435488	0.210426	0.377252
C162	C	0.435476	0.254688	0.303052
C163	C	0.697653	0.254662	0.303090
C164	C	0.741919	0.210398	0.377287
C165	C	0.736961	0.188260	0.459802
C166	C	0.687732	0.210394	0.468118
C167	C	0.643467	0.254660	0.393921
C168	C	0.227395	0.670811	-0.303614
C169	C	0.183129	0.715090	-0.377811
C170	C	0.188087	0.737230	-0.460326
C171	C	0.237316	0.715093	-0.468642
C172	C	0.281581	0.670819	-0.394445
C173	C	0.281589	0.670800	0.044944
C174	C	0.237330	0.715076	0.044896
C175	C	0.188099	0.737222	-0.000542
C176	C	0.183126	0.715093	-0.045942
C177	C	0.227384	0.670821	-0.045898
C178	C	0.489571	0.670773	-0.303555
C179	C	0.489570	0.715032	-0.377743
C180	C	0.462471	0.737174	-0.460265
C181	C	0.435376	0.715050	-0.468597
C182	C	0.435380	0.670789	-0.394410
H183	H	0.386243	-0.143762	0.127482
N184	N	-0.100560	0.629641	-0.140181
H185	H	-0.104718	0.653350	-0.203731
H186	H	-0.104668	0.653285	-0.116300
N187	N	0.545976	-0.057679	-0.140014
H188	H	0.573254	-0.065415	-0.098324
H189	H	0.521096	-0.013245	-0.185741
H190	H	0.413432	0.192399	0.370502
H191	H	0.143049	0.733106	-0.371024
N192	N	0.518796	-0.353074	-0.094791
H193	H	0.514676	-0.384454	-0.087912
H194	H	0.556699	-0.371431	-0.070912
N195	N	0.334686	0.646920	0.093949
H196	H	0.338838	0.628559	0.157492
H197	H	0.338787	0.680720	0.070024
N198	N	-0.317763	0.575412	-0.094731
H199	H	-0.300616	0.577829	-0.140433
H200	H	-0.300623	0.577803	-0.053035
H201	H	0.386259	-0.063522	0.127524
N202	N	0.242706	0.738938	0.093860
H203	H	0.225554	0.783371	0.052168
H204	H	0.280622	0.718140	0.122645
N205	N	0.545950	-0.149604	-0.140063
H206	H	0.521090	-0.141869	-0.185801
H207	H	0.573222	-0.194038	-0.098341
N208	N	0.703004	0.278541	0.214095
H209	H	0.685858	0.270839	0.181303
H210	H	0.740915	0.257795	0.220164
H211	H	0.413321	-0.267004	0.082022
H212	H	0.413314	0.652784	-0.401209
H213	H	-0.298315	0.364349	0.082255
H214	H	0.223348	0.652787	-0.236433
N215	N	0.406146	0.738939	-0.557607
H216	H	0.388979	0.718213	-0.551639
H217	H	0.431031	0.731233	-0.590337
N218	N	0.140365	0.784972	-0.000584
H219	H	0.150991	0.795625	0.035072
H220	H	0.119090	0.769537	0.025250
H221	H	0.413390	0.192449	0.082224
N222	N	0.130025	0.738972	-0.094931
H223	H	0.102747	0.770369	-0.088055
H224	H	0.125940	0.705162	-0.071043
H225	H	0.152039	0.773281	-0.520735
H226	H	0.413408	0.272698	0.235874
H227	H	0.603377	0.272702	-0.082485
N228	N	-0.205022	0.350021	0.094261
H229	H	-0.208578	0.315679	0.123057
H230	H	-0.185480	0.347655	0.139921
H231	H	0.241347	0.733125	-0.535834
N232	N	0.590376	0.278518	0.402893
H233	H	0.570786	0.322955	0.374115
H234	H	0.593998	0.257731	0.466441
H235	H	0.321659	0.652797	-0.401227
N236	N	0.795011	0.186529	0.368307
H237	H	0.791431	0.207268	0.304775
H238	H	0.814566	0.142092	0.397140
H239	H	0.511732	0.272704	0.400653
H240	H	0.773009	0.152215	0.520211
H241	H	0.683703	0.192363	0.535311
H242	H	-0.396702	0.561074	-0.082709
N243	N	0.222016	0.646958	-0.094862
H244	H	0.184111	0.667707	-0.123648
H245	H	0.239201	0.602522	-0.053127
N246	N	0.518813	-0.261122	-0.094746
H247	H	0.535974	-0.281843	-0.123521
H248	H	0.546066	-0.268860	-0.053010
N249	N	0.518801	0.646898	-0.214556
H250	H	0.535965	0.667630	-0.220546
H251	H	0.546052	0.602459	-0.181768
H252	H	0.511634	0.733041	-0.370941
H253	H	0.392995	0.462740	-0.681899
H254	H	0.462472	0.773215	-0.520665
N255	N	-0.008597	0.629643	-0.140190
H256	H	-0.046504	0.663984	-0.168983
H257	H	0.008575	0.632010	-0.185852
H258	H	0.143084	0.561114	-0.082777
H259	H	0.532050	0.462718	-0.681880
N260	N	0.518926	0.186561	0.557062
H261	H	0.546204	0.142123	0.589899
H262	H	0.494043	0.194312	0.589781
H263	H	0.413303	-0.347243	0.081967
N264	N	0.379111	-0.016915	0.139554
H265	H	0.341199	0.016870	0.115710
H266	H	0.393376	-0.035309	0.203095
N267	N	0.406246	0.278549	0.094265
H268	H	0.410366	0.309930	0.087384
H269	H	0.420482	0.244727	0.157793
H270	H	0.511736	0.272718	-0.082501
N271	N	0.382876	0.462737	-0.308831
H272	H	0.384560	0.425871	-0.290823
H273	H	0.347705	0.499632	-0.352685
N274	N	0.784684	0.140516	0.000029
H275	H	0.805980	0.155914	-0.025825
H276	H	0.774018	0.129880	-0.035613
H277	H	0.511733	0.192461	-0.082524
N278	N	0.379126	0.075032	0.139595
H279	H	0.351857	0.119473	0.097927
H280	H	0.404026	0.067254	0.185325
N281	N	0.545976	0.075057	-0.139966
H282	H	0.563138	0.054330	-0.168735
H283	H	0.573228	0.067320	-0.098231
H284	H	0.538800	-0.011039	-0.128003
H285	H	0.321753	0.364391	0.082178
H286	H	0.532054	0.462724	-0.453156
N287	N	0.242812	0.350051	0.094222
H288	H	0.280721	0.315713	0.123010
H289	H	0.225634	0.347686	0.052531
H290	H	0.145341	0.310158	0.127672
H291	H	0.065083	0.310152	0.127694
H292	H	0.701721	0.272664	0.082334
N293	N	0.222045	0.575443	-0.094787
H294	H	0.202495	0.599142	-0.070982
H295	H	0.202503	0.599105	-0.158327
N296	N	0.025627	0.295821	0.139710
H297	H	0.022069	0.261480	0.168507
H298	H	0.045172	0.293453	0.185368
H299	H	-0.220279	0.615297	-0.128166
N300	N	-0.066339	0.295818	0.139721
H301	H	-0.101843	0.304049	0.132822
H302	H	-0.046763	0.272140	0.203250
H303	H	0.532051	0.462731	-0.318626
N304	N	-0.141337	0.629630	-0.140197
H305	H	-0.179245	0.663968	-0.168994
H306	H	-0.124165	0.631990	-0.185857
N307	N	0.382879	0.462729	-0.537553
H308	H	0.358602	0.462732	-0.572299
H309	H	0.362770	0.499596	-0.537696
N310	N	0.382876	0.462735	-0.462978
H311	H	0.358601	0.462734	-0.428238
H312	H	0.399653	0.425862	-0.462821
H313	H	0.683659	0.192399	-0.082421
N314	N	0.542183	0.462706	-0.537521
H315	H	0.525458	0.499572	-0.537664
H316	H	0.566452	0.462675	-0.572274
N317	N	0.795023	0.186505	0.094393
H318	H	0.822301	0.155105	0.087521
H319	H	0.799130	0.168165	0.157917
N320	N	0.462609	0.140555	0.539802
H321	H	0.483891	0.129897	0.593328
H322	H	0.478030	0.103852	0.539798
