data_functionalizedCrystal
_audit_creation_method	'MofGen! by Chris Wilmer'
_symmetry_space_group_name_H-M	'P1'
_symmetry_Int_Tables_number	1
_symmetry_cell_setting	triclinic
loop_
_symmetry_equiv_pos_as_xyz
  x,y,z
_cell_length_a	10.723024
_cell_length_b	15.944551
_cell_length_c	9.198806
_cell_angle_alpha	89.995864
_cell_angle_beta	89.996352
_cell_angle_gamma	83.983304
loop_
_atom_site_label
_atom_site_type_symbol
_atom_site_fract_x
_atom_site_fract_y
_atom_site_fract_z
O1	O	1.655699	0.117808	-0.120886
O2	O	1.292405	0.129085	-0.120892
O3	O	1.483973	0.001228	-0.120876
O4	O	1.464131	0.245664	-0.120902
O5	O	1.483958	0.001228	0.120909
O6	O	1.292389	0.129084	0.120893
O7	O	1.655684	0.117808	0.120899
Cu8	Cu	1.474035	0.123446	0.142973
Cu9	Cu	1.474053	0.123446	-0.142966
O10	O	1.464116	0.245664	0.120883
C11	C	1.245908	0.128264	0.000000
C12	C	1.107384	0.125809	-0.000001
C13	C	1.031498	0.197350	-0.000010
C14	C	0.888327	0.194814	-0.000012
C15	C	1.483141	-0.030070	0.000017
C16	C	1.480672	-0.123331	0.000018
C17	C	1.356026	-0.338901	-0.000004
C18	C	1.413900	-0.399587	0.119211
C19	C	1.476205	-0.294082	0.000006
C20	C	1.413944	-0.399570	-0.119170
C21	C	1.471880	-0.459020	-0.000011
C22	C	1.534111	-0.353540	0.119320
C23	C	1.534138	-0.353516	-0.119168
C24	C	1.592099	-0.414184	0.000077
C25	C	1.478692	-0.199066	0.000018
C26	C	1.469402	-0.554035	-0.000011
C27	C	1.702181	0.118629	0.000003
C28	C	1.840704	0.121084	-0.000005
C29	C	1.464947	0.276963	-0.000013
C30	C	1.467417	0.370223	-0.000024
N31	N	1.474032	0.123445	0.344087
N32	N	1.474067	0.123441	-0.344080
C33	C	1.554469	0.069525	0.416290
C34	C	1.554488	0.069522	0.583703
H35	H	0.823120	0.256060	-0.000025
H36	H	1.405202	0.169609	0.593837
O37	O	1.594609	-0.329205	0.239651
C38	C	1.596183	-0.240898	0.238219
H39	H	1.516086	-0.211160	0.167565
H40	H	1.689357	-0.224611	0.192132
C41	C	1.678615	-0.243134	0.481130
C42	C	1.580232	-0.206609	0.394361
H43	H	1.668781	-0.221981	0.577446
H44	H	1.677559	-0.302628	0.482094
H45	H	1.756250	-0.229558	0.442707
H46	H	1.502600	-0.220193	0.432774
H47	H	1.581274	-0.147116	0.393408
O48	O	1.353379	-0.423842	0.239597
C49	C	1.415715	-0.399276	0.365092
H50	H	1.471973	-0.344595	0.337312
H51	H	1.481761	-0.454768	0.406720
C52	C	1.249496	-0.438504	0.517590
C53	C	1.318585	-0.371339	0.483472
H54	H	1.189583	-0.421275	0.590616
H55	H	1.207500	-0.455058	0.433042
H56	H	1.304547	-0.484741	0.552271
H57	H	1.263535	-0.325107	0.448775
H58	H	1.360569	-0.354777	0.568017
O59	O	0.918604	0.048067	-0.000191
C60	C	0.994760	0.044882	-0.125433
H61	H	1.001225	0.111606	-0.167189
H62	H	0.952019	0.006232	-0.213113
C63	C	1.119013	-0.078469	-0.036107
C64	C	1.126962	0.003483	-0.087385
H65	H	1.200560	-0.104009	-0.012641
H66	H	1.067703	-0.076326	0.048269
H67	H	1.083390	-0.110667	-0.109182
H68	H	1.162570	0.035682	-0.014303
H69	H	1.178282	0.001344	-0.171748
H70	H	1.072523	0.260477	-0.000009
O71	O	1.711274	-0.452949	-0.000040
C72	C	1.774888	-0.428404	-0.124638
H73	H	1.728049	-0.365378	-0.165786
H74	H	1.771260	-0.478217	-0.213007
C75	C	1.970075	-0.496853	-0.035245
C76	C	1.912554	-0.419439	-0.085777
H77	H	2.054995	-0.491326	-0.011278
H78	H	1.927217	-0.513392	0.048697
H79	H	1.967039	-0.538355	-0.108895
H80	H	1.915576	-0.377941	-0.012121
H81	H	1.955415	-0.402893	-0.169706
H82	H	1.405176	0.169603	0.406209
H83	H	1.584931	-0.333095	-0.219959
O84	O	1.058515	0.050474	0.000261
C85	C	1.099298	0.004497	0.125468
H86	H	1.126466	0.049822	0.212989
H87	H	1.184041	-0.041891	0.097159
C88	C	0.959307	-0.099958	0.074754
C89	C	0.992665	-0.044288	0.182254
H90	H	0.893534	-0.130054	0.109780
H91	H	0.931833	-0.068984	-0.009603
H92	H	1.029935	-0.138606	0.051173
H93	H	0.922042	-0.005634	0.205820
H94	H	1.020125	-0.075256	0.266617
O95	O	1.236945	-0.299976	0.000195
C96	C	1.151170	-0.361218	0.001540
H97	H	1.198778	-0.422731	0.047917
H98	H	1.118386	-0.372306	-0.114110
C99	C	0.978973	-0.254494	0.039625
C100	C	1.037444	-0.330043	0.096598
H101	H	0.908818	-0.235264	0.098255
H102	H	1.036760	-0.213234	0.038713
H103	H	0.951664	-0.263744	-0.056749
H104	H	1.064765	-0.320790	0.192962
H105	H	0.979658	-0.371302	0.097528
O106	O	1.636466	0.014450	0.342000
C107	C	1.569368	-0.037610	0.253960
H108	H	1.471792	-0.004600	0.231357
H109	H	1.560745	-0.099766	0.312485
C110	C	1.759374	-0.095648	0.137026
C111	C	1.639534	-0.055101	0.109255
H112	H	1.802658	-0.106441	0.047767
H113	H	1.804581	-0.060577	0.196343
H114	H	1.752172	-0.147440	0.185800
H115	H	1.646739	-0.003306	0.060498
H116	H	1.594330	-0.090164	0.049925
H117	H	1.363104	-0.419938	-0.219964
O118	O	1.636765	0.014413	0.657542
C119	C	1.711510	-0.035736	0.557878
H120	H	1.713146	-0.001359	0.449337
H121	H	1.670726	-0.098295	0.541757
C122	C	1.844033	-0.094667	0.750719
C123	C	1.846051	-0.052441	0.617411
H124	H	1.927023	-0.104976	0.787442
H125	H	1.793673	-0.060883	0.817866
H126	H	1.810041	-0.146795	0.737266
H127	H	1.880028	-0.000310	0.630868
H128	H	1.896420	-0.086217	0.550267
