data_functionalizedCrystal
_audit_creation_method	'MofGen! by Chris Wilmer'
_symmetry_space_group_name_H-M	'P1'
_symmetry_Int_Tables_number	1
_symmetry_cell_setting	triclinic
loop_
_symmetry_equiv_pos_as_xyz
  x,y,z
_cell_length_a	10.723024
_cell_length_b	22.010155
_cell_length_c	23.532407
_cell_angle_alpha	90.013035
_cell_angle_beta	83.658308
_cell_angle_gamma	90.015411
loop_
_atom_site_label
_atom_site_type_symbol
_atom_site_fract_x
_atom_site_fract_y
_atom_site_fract_z
O1	O	1.654721	0.050534	0.079871
O2	O	1.291330	0.050537	0.087516
O3	O	1.483984	0.050518	0.000833
O4	O	1.462068	0.050553	0.166554
O5	O	1.483926	-0.050532	0.000832
O6	O	1.291273	-0.050513	0.087516
O7	O	1.654663	-0.050517	0.079870
Cu8	Cu	1.472963	-0.059742	0.083693
Cu9	Cu	1.473031	0.059762	0.083693
O10	O	1.462010	-0.050498	0.166554
C11	C	1.244819	0.000012	0.086960
C12	C	1.106317	0.000013	0.085295
N13	N	1.472924	-0.143794	0.083692
C14	C	0.916170	0.000003	0.033588
C15	C	1.059320	0.000003	0.035308
C16	C	1.548279	-0.563567	0.118542
C17	C	1.548293	-0.627174	0.118541
O18	O	1.612318	-0.660060	0.148167
N19	N	1.473055	-0.659001	0.083687
C20	C	1.397807	-0.627217	0.048828
O21	O	1.333814	-0.660129	0.019182
C22	C	1.397800	-0.563611	0.048827
C23	C	1.473034	-0.531787	0.083687
C24	C	1.623507	-0.531743	0.153399
C25	C	1.623490	-0.468140	0.153401
C26	C	1.548245	-0.436360	0.118546
C27	C	1.473017	-0.468184	0.083689
C28	C	1.322560	-0.531828	0.013965
C29	C	1.322560	-0.468217	0.013966
C30	C	1.397793	-0.436393	0.048827
C31	C	1.397755	-0.372801	0.048836
N32	N	1.472993	-0.340974	0.083690
C33	C	1.548238	-0.372754	0.118545
C34	C	1.397830	-0.760795	0.048833
C35	C	1.397829	-0.824400	0.048837
C36	C	1.548317	-0.824353	0.118549
C37	C	1.548310	-0.760747	0.118547
C38	C	1.473068	-0.728968	0.083686
C39	C	1.548196	-0.239182	0.118547
C40	C	1.548169	-0.175574	0.118547
C41	C	1.397686	-0.175626	0.048833
C42	C	1.397708	-0.239230	0.048835
C43	C	1.472973	-0.271006	0.083693
O44	O	1.333767	-0.339875	0.019223
O45	O	1.612233	-0.339834	0.148181
C46	C	1.701174	0.000010	0.080427
C47	C	1.839677	0.000013	0.082092
C48	C	1.483397	-0.000010	-0.020387
C49	C	1.481719	-0.000019	-0.083615
N50	N	1.473080	0.143815	0.083690
C51	C	1.360791	0.000020	-0.350567
C52	C	1.362350	0.000015	-0.291157
O53	O	1.266419	0.000035	-0.255035
N54	N	1.476882	0.000007	-0.267787
C55	C	1.589863	0.000010	-0.303832
O56	O	1.687425	0.000003	-0.278499
C57	C	1.588303	0.000019	-0.363241
C58	C	1.473763	0.000021	-0.386607
C59	C	1.246260	0.000022	-0.373934
C60	C	1.244702	0.000026	-0.433340
C61	C	1.357675	0.000027	-0.469380
C62	C	1.472205	0.000024	-0.446013
C63	C	1.701282	0.000026	-0.399284
C64	C	1.699713	0.000036	-0.458697
C65	C	1.585173	0.000038	-0.482063
C66	C	1.583619	0.000029	-0.541459
N67	N	1.469087	0.000037	-0.564829
C68	C	1.356115	0.000036	-0.528789
C69	C	1.593130	-0.000008	-0.179068
C70	C	1.594692	-0.000021	-0.119660
C71	C	1.367178	-0.000015	-0.106989
C72	C	1.365618	-0.000006	-0.166398
C73	C	1.478598	0.000000	-0.202437
C74	C	1.352851	0.000043	-0.653547
C75	C	1.351303	0.000044	-0.712959
C76	C	1.578816	0.000041	-0.725625
C77	C	1.580365	0.000037	-0.666218
C78	C	1.467372	0.000040	-0.630180
O79	O	1.679499	0.000011	-0.577616
O80	O	1.258569	0.000051	-0.554130
C81	C	1.462597	0.000032	0.187773
C82	C	1.464275	0.000045	0.251001
H83	H	0.875681	-0.000015	-0.009210
F84	F	1.242483	-0.434400	-0.023142
H85	H	1.258027	0.000043	-0.731980
H86	H	1.794553	0.000025	-0.380271
H87	H	1.687961	-0.000032	-0.100641
F88	F	1.819965	0.000045	-0.497050
F89	F	1.317625	-0.273100	0.011738
H90	H	1.336546	-0.734925	0.020447
F91	F	1.243711	-0.000003	-0.191260
H92	H	1.670795	0.000039	-0.754979
H93	H	1.040598	0.000024	0.126820
H94	H	1.154259	0.000024	-0.344595
F95	F	1.232591	0.000046	-0.615200
F96	F	1.702270	0.000015	-0.641349
F97	F	0.892591	0.000020	0.138034
F98	F	1.628387	-0.726883	0.155648
H99	H	1.275190	-0.000016	-0.077634
H100	H	1.685138	-0.000007	-0.208409
H101	H	1.125046	-0.000003	-0.006215
F102	F	1.122793	0.000033	-0.458200
F103	F	1.628238	-0.141708	0.155656
H104	H	1.609485	-0.265047	0.146932
H105	H	1.684758	-0.442235	0.181786
H106	H	1.609584	-0.850239	0.146930
F107	F	1.703601	-0.565556	0.190500
F108	F	1.317737	-0.858262	0.011741
H109	H	1.261298	-0.557728	-0.014423
H110	H	1.336420	-0.149740	0.020457
