data_functionalizedCrystal
_audit_creation_method	'MofGen! by Chris Wilmer'
_symmetry_space_group_name_H-M	'P1'
_symmetry_Int_Tables_number	1
_symmetry_cell_setting	triclinic
loop_
_symmetry_equiv_pos_as_xyz
  x,y,z
_cell_length_a	17.038272
_cell_length_b	17.038272
_cell_length_c	15.500227
_cell_angle_alpha	86.966746
_cell_angle_beta	86.956295
_cell_angle_gamma	88.888444
loop_
_atom_site_label
_atom_site_type_symbol
_atom_site_fract_x
_atom_site_fract_y
_atom_site_fract_z
O1	O	1.052160	-0.167139	-0.071836
O2	O	0.824350	-0.164430	-0.071862
O3	O	0.936901	-0.051879	-0.071842
O4	O	0.939609	-0.279690	-0.071856
O5	O	0.930069	-0.058680	0.072045
O6	O	0.817518	-0.171231	0.072026
O7	O	1.045328	-0.173940	0.072051
Cu8	Cu	0.930799	-0.173207	0.085177
Cu9	Cu	0.938879	-0.165164	-0.084987
O10	O	0.932777	-0.286491	0.072032
C11	C	0.791641	-0.165368	0.000079
C12	C	0.704358	-0.158019	0.000069
C13	C	0.658749	-0.225482	0.000066
C14	C	0.576737	-0.218574	0.000078
C15	C	0.540335	-0.144201	0.000088
C16	C	0.585950	-0.076733	0.000094
C17	C	0.667961	-0.083642	0.000088
C18	C	0.292946	-0.119792	0.000112
C19	C	0.210929	-0.112887	0.000116
C20	C	0.201721	-0.254729	0.000102
C21	C	0.283734	-0.261632	0.000091
C22	C	0.329342	-0.194164	0.000101
C23	C	0.456505	-0.137138	0.000098
C24	C	0.413170	-0.201228	0.000098
C25	C	0.931022	-0.025987	0.000101
C26	C	0.923674	0.061297	0.000100
C27	C	1.078037	-0.173003	0.000109
C28	C	1.165320	-0.180351	0.000113
C29	C	0.938656	-0.312383	0.000087
C30	C	0.946004	-0.399667	0.000082
N31	N	0.925122	-0.178864	0.204861
C32	C	0.991137	0.106906	0.000108
C33	C	0.984229	0.188918	0.000100
C34	C	0.909856	0.225320	0.000088
C35	C	0.842388	0.179705	0.000077
C36	C	0.849297	0.097694	0.000080
C37	C	0.885446	0.472708	0.000074
C38	C	0.878541	0.554725	0.000074
C39	C	1.020383	0.563932	0.000094
C40	C	1.027286	0.481919	0.000102
C41	C	0.959818	0.436312	0.000087
C42	C	0.902792	0.309149	0.000082
C43	C	0.966882	0.352484	0.000087
N44	N	0.944561	-0.159501	-0.204671
C45	C	0.972833	-0.131192	0.250145
C46	C	0.968547	-0.135478	0.340718
C47	C	0.916555	-0.187440	0.386003
C48	C	0.868839	-0.235114	0.340712
C49	C	0.873121	-0.230823	0.250142
C50	C	0.901128	-0.202884	0.659467
C51	C	0.896851	-0.207172	0.750044
C52	C	0.996559	-0.107535	0.750044
C53	C	1.000840	-0.103252	0.659471
C54	C	0.953121	-0.150923	0.614188
C55	C	0.912174	-0.191824	0.478582
C56	C	0.957498	-0.146534	0.521610
H57	H	0.313367	-0.322194	0.000073
F58	F	0.451912	-0.280379	0.000091
F59	F	0.716501	-0.011838	0.000094
H60	H	0.999827	-0.104223	0.484736
F61	F	1.047340	-0.056802	0.798243
H62	H	0.826501	-0.277420	0.377589
H63	H	0.794361	0.060560	0.000073
H64	H	1.039164	0.226049	0.000108
F65	F	1.028176	-0.075890	0.201958
F66	F	0.697483	-0.304641	0.000050
F67	F	1.056177	-0.047949	0.611276
F68	F	0.763235	0.218449	0.000056
H69	H	0.556305	-0.016177	0.000114
F70	F	0.417757	-0.057987	0.000105
F71	F	1.070295	0.068171	0.000129
F72	F	0.153177	-0.326529	0.000093
F73	F	1.019325	-0.084740	0.388913
F74	F	1.046033	0.313742	0.000094
H75	H	0.181294	-0.052321	0.000123
H76	H	0.854510	-0.249490	0.786912
F77	F	0.341475	-0.047985	0.000123
F78	F	0.813639	0.424180	0.000055
H79	H	0.842237	0.338796	0.000075
F80	F	0.856842	-0.247128	0.526784
H81	H	0.862274	-0.241701	0.622605
H82	H	0.539605	-0.273510	0.000075
F83	F	1.092182	0.612476	0.000110
F84	F	1.106444	0.443185	0.000092
F85	F	0.799380	0.593464	0.000066
F86	F	0.822338	-0.281560	0.201947
