data_functionalizedCrystal
_audit_creation_method	'MofGen! by Chris Wilmer'
_symmetry_space_group_name_H-M	'P1'
_symmetry_Int_Tables_number	1
_symmetry_cell_setting	triclinic
loop_
_symmetry_equiv_pos_as_xyz
  x,y,z
_cell_length_a	6.394989
_cell_length_b	17.699097
_cell_length_c	16.776229
_cell_angle_alpha	89.989262
_cell_angle_beta	90.003593
_cell_angle_gamma	95.106929
loop_
_atom_site_label
_atom_site_type_symbol
_atom_site_fract_x
_atom_site_fract_y
_atom_site_fract_z
O1	O	-0.264264	1.006769	-0.066350
O2	O	-0.298599	0.786742	-0.066336
O3	O	0.022649	0.899879	-0.066343
O4	O	-0.585511	0.893633	-0.066342
O5	O	0.022668	0.899863	0.066233
O6	O	-0.298579	0.786727	0.066241
O7	O	-0.264244	1.006753	0.066227
Zn8	Zn	-0.281408	0.896738	0.087283
Zn9	Zn	-0.281434	0.896758	-0.087392
O10	O	-0.585491	0.893617	0.066235
C11	C	-0.297354	0.758525	-0.000046
C12	C	-0.293649	0.674470	-0.000041
C13	C	-0.270949	0.158528	-0.072341
C14	C	-0.274416	0.237508	-0.072337
C15	C	-0.276143	0.276983	-0.000066
C16	C	-0.274380	0.237475	0.072205
C17	C	-0.270898	0.158498	0.072201
C18	C	-0.288420	0.555983	0.072226
C19	C	-0.291908	0.634965	0.072226
C20	C	-0.291938	0.634993	-0.072311
C21	C	-0.288456	0.556015	-0.072316
C22	C	-0.286683	0.516515	-0.000045
C23	C	-0.282919	0.430876	-0.000050
C24	C	-0.279921	0.362619	-0.000060
C25	C	0.100474	0.898636	-0.000058
C26	C	0.336690	0.894862	-0.000059
C27	C	-0.265489	1.034971	-0.000065
C28	C	-0.269194	1.119026	-0.000075
N29	N	-0.281389	0.896729	0.206494
N30	N	-0.281437	0.896772	-0.206603
C31	C	-0.139199	0.946842	0.248208
C32	C	-0.139197	0.946846	0.331660
C33	C	-0.281397	0.896741	0.373397
C34	C	-0.423594	0.846622	0.331678
C35	C	-0.423584	0.846615	0.248227
C36	C	-0.423635	0.846650	0.668225
C37	C	-0.423638	0.846663	0.751681
C38	C	-0.139248	0.946881	0.751658
C39	C	-0.139238	0.946874	0.668208
C40	C	-0.281427	0.896753	0.626495
C41	C	-0.281424	0.896748	0.536007
C42	C	-0.281411	0.896749	0.463884
H43	H	-0.023412	0.987647	0.214231
H44	H	-0.023464	0.987690	0.785629
O45	O	-0.561582	0.798003	0.627589
C46	C	-0.531138	0.808750	0.544983
H47	H	-0.364974	0.835442	0.533577
H48	H	-0.554605	0.751658	0.513284
H49	H	-0.649214	0.847841	0.521290
O50	O	-0.561650	0.798021	0.372342
C51	C	-0.531142	0.808761	0.454943
H52	H	-0.452879	0.868187	0.466326
H53	H	-0.689353	0.801850	0.486652
H54	H	-0.426529	0.764931	0.478645
O55	O	-0.001019	0.995607	0.372057
C56	C	0.124506	1.039824	0.317325
H57	H	0.038882	1.041478	0.257833
H58	H	0.156528	1.099964	0.341416
H59	H	0.279610	1.013787	0.308467
H60	H	-0.539439	0.805858	0.785662
O61	O	-0.293938	0.673334	0.142413
C62	C	-0.476746	0.712184	0.146738
H63	H	-0.602101	0.683602	0.105736
H64	H	-0.537447	0.710773	0.210661
H65	H	-0.438518	0.773590	0.127318
O66	O	-0.286584	0.517506	0.142356
C67	C	-0.283167	0.439332	0.126863
H68	H	-0.216630	0.431060	0.064748
H69	H	-0.180437	0.413155	0.173011
H70	H	-0.449664	0.410568	0.130302
H71	H	-0.275833	0.269667	-0.131183
O72	O	-0.276155	0.275932	0.142339
C73	C	-0.279559	0.354113	0.126849
H74	H	-0.346144	0.362410	0.064740
H75	H	-0.382242	0.380278	0.173006
H76	H	-0.113051	0.382869	0.130275
H77	H	-0.539367	0.805807	0.214264
O78	O	-0.269645	0.120137	-0.142525
C79	C	-0.448426	0.067594	-0.146844
H80	H	-0.575853	0.086600	-0.105832
H81	H	-0.509089	0.064415	-0.210763
H82	H	-0.404905	0.009282	-0.127432
O83	O	-0.268922	0.120216	0.142451
C84	C	-0.088916	0.146340	0.186406
H85	H	-0.031170	0.205971	0.165859
H86	H	-0.129686	0.147487	0.252520
H87	H	0.039662	0.106689	0.176382
O88	O	-0.286689	0.517790	-0.142591
C89	C	-0.289031	0.569591	-0.206376
H90	H	-0.225416	0.628388	-0.185187
H91	H	-0.186664	0.550621	-0.256921
H92	H	-0.456902	0.571652	-0.228598
O93	O	-0.293922	0.673439	-0.142466
C94	C	-0.476780	0.712263	-0.146794
H95	H	-0.537565	0.721801	-0.084045
H96	H	-0.438566	0.769346	-0.177380
H97	H	-0.602069	0.677040	-0.182455
H98	H	-0.023453	0.987677	0.634228
