data_functionalizedCrystal
_audit_creation_method	'MofGen! by Chris Wilmer'
_symmetry_space_group_name_H-M	'P1'
_symmetry_Int_Tables_number	1
_symmetry_cell_setting	triclinic
loop_
_symmetry_equiv_pos_as_xyz
  x,y,z
_cell_length_a	19.077105
_cell_length_b	18.101395
_cell_length_c	19.076919
_cell_angle_alpha	87.727683
_cell_angle_beta	89.923776
_cell_angle_gamma	87.727498
loop_
_atom_site_label
_atom_site_type_symbol
_atom_site_fract_x
_atom_site_fract_y
_atom_site_fract_z
Zn1	Zn	1.058231	-0.358271	0.440421
Zn2	Zn	1.062857	-0.477344	0.322915
Zn3	Zn	0.945450	-0.348351	0.318214
Zn4	Zn	0.940679	-0.476897	0.435668
O5	O	1.001804	-0.415216	0.379305
O6	O	1.157176	-0.378405	0.428790
O7	O	1.051216	-0.456268	0.223960
O8	O	0.960470	-0.246037	0.334447
O9	O	1.160575	-0.465887	0.342459
O10	O	1.043330	-0.253326	0.424232
O11	O	0.964957	-0.361497	0.220507
O12	O	0.846486	-0.361064	0.329838
O13	O	0.952340	-0.465126	0.534630
O14	O	0.842981	-0.455506	0.416131
O15	O	1.038704	-0.377972	0.538122
O16	O	1.046590	-0.580914	0.337850
O17	O	0.956826	-0.580586	0.420689
C18	C	0.819237	-0.407161	0.371959
C19	C	0.741133	-0.403733	0.368833
C20	C	1.001711	-0.607621	0.379280
C21	C	1.001735	-0.689937	0.379296
C22	C	0.702636	-0.451363	0.412222
C23	C	0.629249	-0.448133	0.409288
C24	C	0.594361	-0.397276	0.362962
C25	C	0.632863	-0.349642	0.319571
C26	C	0.706248	-0.352869	0.322509
C27	C	0.375075	-0.382341	0.349369
C28	C	0.301684	-0.379119	0.346433
C29	C	0.298076	-0.477610	0.436152
C30	C	0.371463	-0.480836	0.439082
C31	C	0.409959	-0.433198	0.395694
N32	N	0.519348	-0.393975	0.359960
N33	N	0.484970	-0.436497	0.398700
C34	C	1.001887	-0.989036	0.379340
C35	C	0.945531	-0.957547	0.431600
C36	C	0.945280	-0.871910	0.431419
C37	C	1.001811	-0.840650	0.379319
C38	C	0.984741	-0.867911	0.304458
C39	C	0.984379	-0.953554	0.304770
C40	C	1.075459	-0.961424	0.401293
C41	C	1.074956	-0.875820	0.402900
C42	C	1.001770	-0.756788	0.379302
C43	C	1.001927	-1.072898	0.379351
C44	C	1.185084	-0.423303	0.386679
C45	C	1.263188	-0.426749	0.389822
C46	C	0.994474	-0.422606	0.562585
C47	C	0.991350	-0.425755	0.640688
C48	C	1.001916	-0.222060	0.379345
C49	C	1.001964	-0.139749	0.379363
C50	C	1.009146	-0.407803	0.196739
C51	C	1.012406	-0.404451	0.118642
C52	C	1.034846	-0.381860	0.679200
C53	C	1.031902	-0.384816	0.752586
C54	C	0.985466	-0.431671	0.787458
C55	C	0.941966	-0.475568	0.748941
C56	C	0.944906	-0.472608	0.675556
C57	C	0.971847	-0.445387	1.006740
C58	C	0.968911	-0.448346	1.080130
C59	C	1.058847	-0.357593	1.083770
C60	C	1.061786	-0.354640	1.010384
C61	C	1.018283	-0.398533	0.971872
N62	N	0.982458	-0.434696	0.862471
N63	N	1.021289	-0.395505	0.896861
H64	H	0.597908	-0.486918	0.444619
C65	C	0.263308	-0.323170	0.295476
H66	H	0.296744	-0.295256	0.270061
H67	H	0.235888	-0.348951	0.263664
H68	H	0.233623	-0.290778	0.321274
H69	H	0.399864	-0.522250	0.476804
C70	C	1.132118	-0.988929	0.349877
H71	H	1.111081	-1.017115	0.315205
H72	H	1.153748	-0.947684	0.327915
H73	H	1.166469	-1.018951	0.374776
H74	H	1.091602	-0.985932	0.455108
C75	C	0.594491	-0.293698	0.268614
H76	H	0.627930	-0.265789	0.243198
H77	H	0.567070	-0.319478	0.236802
H78	H	0.564807	-0.261301	0.294407
C79	C	1.112860	-0.303095	0.972025
H80	H	1.108385	-0.307623	0.922804
H81	H	1.102123	-0.253370	0.983649
H82	H	1.159588	-0.316505	0.985951
H83	H	1.024629	-0.847532	0.264328
H84	H	0.931095	-0.486502	1.108520
C85	C	1.079751	-0.336536	0.794947
H86	H	1.107834	-0.308214	0.763668
H87	H	1.051747	-0.304235	0.822498
H88	H	1.109204	-0.367377	0.824801
C89	C	1.106690	-0.309309	1.126133
H90	H	1.098286	-0.317776	1.174832
H91	H	1.154378	-0.321742	1.116006
H92	H	1.096910	-0.258611	1.113701
H93	H	0.931637	-0.843494	0.285943
H94	H	0.936434	-0.481139	0.975393
H95	H	1.072661	-0.343708	0.650813
H96	H	0.904154	-0.513715	0.777340
C97	C	0.748595	-0.300475	0.274783
H98	H	0.717307	-0.269728	0.246768
H99	H	0.776164	-0.270599	0.302866
H100	H	0.778431	-0.328776	0.245260
C101	C	0.897079	-0.520911	0.633193
H102	H	0.869011	-0.549250	0.664472
H103	H	0.867621	-0.490092	0.603330
H104	H	0.925105	-0.553207	0.605652
H105	H	0.955734	-0.980878	0.487188
H106	H	1.087883	-0.858335	0.458008
H107	H	0.266725	-0.516393	0.471476
C108	C	0.741007	-0.507305	0.463183
H109	H	0.707566	-0.535203	0.488608
H110	H	0.770693	-0.539701	0.437398
H111	H	0.768426	-0.481516	0.494996
C112	C	0.417412	-0.329955	0.301632
H113	H	0.386121	-0.299214	0.273614
H114	H	0.444986	-0.300072	0.329703
H115	H	0.447242	-0.358266	0.272112
H116	H	0.955615	-0.853628	0.486834
C117	C	1.134362	-0.847411	0.355552
H118	H	1.177906	-0.869557	0.371008
H119	H	1.125971	-0.859969	0.308503
H120	H	1.135864	-0.795176	0.357944
C121	C	0.872222	-0.982759	0.411868
H122	H	0.875811	-1.012391	0.371919
H123	H	0.853394	-1.010822	0.450062
H124	H	0.842237	-0.940613	0.401435
C125	C	0.871534	-0.840347	0.411447
H126	H	0.841614	-0.879873	0.403406
H127	H	0.853133	-0.811991	0.448579
H128	H	0.874359	-0.809714	0.370019
C129	C	0.911846	-0.976521	0.280122
H130	H	0.882878	-0.933525	0.270017
H131	H	0.917100	-1.004259	0.239073
H132	H	0.890806	-1.005936	0.316083
C133	C	1.037629	-0.981489	0.250150
H134	H	1.059383	-0.940494	0.227865
H135	H	1.072309	-1.013029	0.272848
H136	H	1.014035	-1.008167	0.216026
