data_functionalizedCrystal
_audit_creation_method	'MofGen! by Chris Wilmer'
_symmetry_space_group_name_H-M	'P1'
_symmetry_Int_Tables_number	1
_symmetry_cell_setting	triclinic
loop_
_symmetry_equiv_pos_as_xyz
  x,y,z
_cell_length_a	10.654554
_cell_length_b	10.654551
_cell_length_c	15.186229
_cell_angle_alpha	89.998552
_cell_angle_beta	89.997400
_cell_angle_gamma	84.486053
loop_
_atom_site_label
_atom_site_type_symbol
_atom_site_fract_x
_atom_site_fract_y
_atom_site_fract_z
O1	O	1.667838	0.176425	-0.073195
O2	O	1.302360	0.193225	-0.073202
O3	O	1.493501	0.002086	-0.073199
O4	O	1.476697	0.367564	-0.073199
O5	O	1.493486	0.002081	0.073258
O6	O	1.302345	0.193220	0.073255
O7	O	1.667823	0.176420	0.073262
Zn8	Zn	1.485082	0.184820	0.096512
Zn9	Zn	1.485101	0.184826	-0.096452
O10	O	1.476682	0.367559	0.073259
C11	C	1.255555	0.191988	0.000025
C12	C	1.116112	0.188294	0.000022
C13	C	0.905604	0.297367	0.000030
C14	C	1.036625	0.300839	0.000024
C15	C	1.064571	0.072269	0.000019
C16	C	0.933552	0.068799	0.000019
C17	C	0.826123	0.409919	0.000041
C18	C	0.877654	0.525944	0.000043
C19	C	1.008676	0.529416	0.000036
C20	C	1.088166	0.416863	0.000027
C21	C	1.492260	-0.044714	0.000028
C22	C	1.488567	-0.184158	0.000021
C23	C	1.486843	-0.249667	-0.079811
C24	C	1.483363	-0.380688	-0.079807
C25	C	1.483336	-0.380678	0.079869
C26	C	1.486807	-0.249659	0.079864
C27	C	1.488603	-0.184166	-0.159653
C28	C	1.486880	-0.249676	-0.239492
C29	C	1.483400	-0.380696	-0.239488
C30	C	1.481642	-0.446207	-0.159645
C31	C	1.714628	0.177657	0.000032
C32	C	1.854071	0.181351	0.000030
C33	C	1.477923	0.414360	0.000030
C34	C	1.481616	0.553803	0.000030
N35	N	1.485077	0.184815	0.228204
N36	N	1.485115	0.184821	-0.228145
C37	C	1.569749	0.100207	0.546124
C38	C	1.569746	0.100207	0.453935
C39	C	1.400439	0.269437	0.453942
C40	C	1.400450	0.269442	0.546130
C41	C	1.485103	0.184820	0.592219
C42	C	1.485089	0.184816	0.407841
C43	C	1.485085	0.184817	0.307885
C44	C	1.485110	0.184820	0.692181
H45	H	1.050629	0.623888	0.000029
F46	F	1.310346	0.359491	0.404885
H47	H	1.491440	-0.077483	-0.159666
H48	H	1.331520	0.338350	0.583662
H49	H	1.481906	-0.434027	0.144873
H50	H	0.719437	0.407105	0.000050
F51	F	1.481553	-0.450411	-0.324458
F52	F	0.878704	-0.054678	0.000025
H53	H	1.638674	0.031310	0.416407
H54	H	1.488184	-0.196317	0.144871
H55	H	0.812926	0.617580	0.000043
H56	H	1.488299	-0.196327	-0.304497
F57	F	1.659849	0.010148	0.595172
H58	H	1.478790	-0.552890	-0.159649
H59	H	1.194851	0.419699	0.000003
H60	H	1.129301	-0.019365	0.000013
