data_functionalizedCrystal
_audit_creation_method	'MofGen! by Chris Wilmer'
_symmetry_space_group_name_H-M	'P1'
_symmetry_Int_Tables_number	1
_symmetry_cell_setting	triclinic
loop_
_symmetry_equiv_pos_as_xyz
  x,y,z
_cell_length_a	16.120530
_cell_length_b	21.295417
_cell_length_c	16.120256
_cell_angle_alpha	92.868749
_cell_angle_beta	90.128265
_cell_angle_gamma	87.125778
loop_
_atom_site_label
_atom_site_type_symbol
_atom_site_fract_x
_atom_site_fract_y
_atom_site_fract_z
Zn1	Zn	1.247390	-0.318928	-0.534526
Zn2	Zn	1.747390	0.181072	-0.034526
Zn3	Zn	1.254326	-0.419134	-0.395454
Zn4	Zn	1.754326	0.080866	0.104546
Zn5	Zn	1.115382	-0.308287	-0.388444
Zn6	Zn	1.615382	0.191713	0.111556
Zn7	Zn	1.108282	-0.418557	-0.527424
Zn8	Zn	1.608282	0.081443	-0.027424
O9	O	1.181345	-0.366227	-0.461462
O10	O	1.681345	0.133773	0.038538
O11	O	1.364676	-0.336915	-0.521983
O12	O	1.864676	0.163085	-0.021983
O13	O	1.241769	-0.400218	-0.278159
O14	O	1.741769	0.099782	0.221841
O15	O	1.132963	-0.221613	-0.407861
O16	O	1.632963	0.278387	0.092139
O17	O	1.369771	-0.410536	-0.419808
O18	O	1.869771	0.089464	0.080192
O19	O	1.229948	-0.229431	-0.515186
O20	O	1.729948	0.270569	-0.015186
O21	O	1.139688	-0.318779	-0.273009
O22	O	1.639688	0.181221	0.226991
O23	O	0.998075	-0.318220	-0.400975
O24	O	1.498075	0.181780	0.099025
O25	O	1.120861	-0.409553	-0.644732
O26	O	1.620861	0.090447	-0.144732
O27	O	0.992858	-0.399235	-0.503083
O28	O	1.492858	0.100765	-0.003083
O29	O	1.223063	-0.336355	-0.649949
O30	O	1.723063	0.163645	-0.149949
O31	O	1.234884	-0.507143	-0.412922
O32	O	1.734884	-0.007143	0.087078
O33	O	1.127586	-0.506719	-0.509880
O34	O	1.627586	-0.006719	-0.009880
C35	C	0.965294	-0.357511	-0.450498
C36	C	1.465294	0.142489	0.049502
C37	C	0.872866	-0.353798	-0.445827
C38	C	1.372866	0.146202	0.054173
C39	C	1.181238	-0.529772	-0.461411
C40	C	1.681238	-0.029772	0.038589
C41	C	1.181267	-0.599742	-0.461420
C42	C	1.681267	-0.099742	0.038580
C43	C	0.703637	-0.347006	-0.437307
C44	C	1.203637	0.152994	0.062693
C45	C	0.659890	-0.385496	-0.485679
C46	C	1.159890	0.114504	0.014321
C47	C	0.565726	-0.381716	-0.480938
C48	C	1.065726	0.118284	0.019062
C49	C	0.797811	-0.350784	-0.442046
C50	C	1.297811	0.149216	0.057954
C51	C	1.237182	-0.632812	-0.410991
C52	C	1.737182	-0.132812	0.089009
C53	C	1.237220	-0.698557	-0.411012
C54	C	1.737220	-0.198557	0.088988
C55	C	1.181329	-0.731228	-0.461452
C56	C	1.681329	-0.231228	0.038548
C57	C	1.125411	-0.698150	-0.511891
C58	C	1.625411	-0.198150	-0.011891
C59	C	1.125380	-0.632407	-0.511875
C60	C	1.625380	-0.132407	-0.011875
N61	N	1.108264	-0.831794	-0.464100
N62	N	1.608264	-0.331794	0.035900
N63	N	1.108296	-0.894247	-0.464110
N64	N	1.608296	-0.394247	0.035890
C65	C	1.181420	-0.929308	-0.461504
C66	C	1.681420	-0.429308	0.038496
N67	N	1.254513	-0.899556	-0.458872
N68	N	1.754513	-0.399556	0.041128
N69	N	1.254481	-0.837097	-0.458857
N70	N	1.754481	-0.337097	0.041143
C71	C	1.181357	-0.802515	-0.461475
C72	C	1.681357	-0.302515	0.038525
C73	C	1.237380	-1.033666	-0.411095
C74	C	1.737380	-0.533666	0.088905
C75	C	1.237419	-1.099412	-0.411122
C76	C	1.737419	-0.599412	0.088878
C77	C	1.125603	-1.099004	-0.511996
C78	C	1.625603	-0.599004	-0.011996
C79	C	1.125571	-1.033259	-0.511975
C80	C	1.625571	-0.533259	-0.011975
C81	C	1.181459	-1.000594	-0.461520
C82	C	1.681459	-0.500594	0.038480
C83	C	1.398239	-0.374977	-0.472470
C84	C	1.898239	0.125023	0.027530
C85	C	1.490667	-0.378705	-0.477160
C86	C	1.990667	0.121295	0.022840
C87	C	1.170397	-0.374077	-0.678356
C88	C	1.670397	0.125923	-0.178356
C89	C	1.165731	-0.377422	-0.770784
C90	C	1.665731	0.122578	-0.270784
C91	C	1.181474	-0.202044	-0.461533
C92	C	1.681474	0.297956	0.038467
C93	C	1.181529	-0.132079	-0.461564
C94	C	1.681529	0.367921	0.038436
C95	C	1.205674	-0.348765	-0.983771
C96	C	1.705674	0.151235	-0.483771
C97	C	1.157185	-0.383503	-0.940003
C98	C	1.657185	0.116497	-0.440003
C99	C	1.161941	-0.380119	-0.845841
C100	C	1.661941	0.119881	-0.345841
C101	C	1.200919	-0.352148	-1.077942
C102	C	1.700919	0.147852	-0.577942
C103	C	1.192299	-0.358363	-0.245414
C104	C	1.692299	0.141637	0.254586
C105	C	1.197126	-0.354847	-0.152996
C106	C	1.697126	0.145153	0.347004
H107	H	0.693157	-0.421286	-0.530653
H108	H	1.193157	0.078714	-0.030653
H109	H	1.250756	-0.316486	-0.950526
H110	H	1.750756	0.183514	-0.450526
O111	O	1.097462	-0.426265	-0.984034
O112	O	1.597462	0.073735	-0.484034
H113	H	1.112507	-0.475657	-0.968134
H114	H	1.612507	0.024343	-0.468134
H115	H	1.282957	-1.126337	-0.370058
H116	H	1.782957	-0.626337	0.129942
O117	O	0.659584	-0.299616	-0.377710
O118	O	1.159584	0.200384	0.122290
H119	H	0.591466	-0.304062	-0.383278
H120	H	1.091466	0.195938	0.116722
H121	H	1.282755	-0.725488	-0.369947
H122	H	1.782755	-0.225488	0.130053
O123	O	1.297469	-0.597579	-0.356587
O124	O	1.797469	-0.097579	0.143413
H125	H	1.336363	-0.631626	-0.321530
H126	H	1.836363	-0.131626	0.178470
H127	H	1.079905	-0.724755	-0.552962
H128	H	1.579905	-0.224755	-0.052962
O129	O	1.065052	-0.596737	-0.566256
O130	O	1.565052	-0.096737	-0.066256
H131	H	1.075961	-0.612257	-0.632258
H132	H	1.575961	-0.112257	-0.132258
O133	O	1.297668	-0.998423	-0.356701
O134	O	1.797668	-0.498423	0.143299
H135	H	1.286779	-1.008138	-0.290704
H136	H	1.786779	-0.508138	0.209296
O137	O	1.065314	-1.134231	-0.566399
O138	O	1.565314	-0.634231	-0.066399
H139	H	1.074724	-1.185502	-0.557934
H140	H	1.574724	-0.685502	-0.057934
O141	O	1.065243	-0.997582	-0.566343
O142	O	1.565243	-0.497582	-0.066343
H143	H	1.026374	-1.031343	-0.601412
H144	H	1.526374	-0.531343	-0.101412
