data_functionalizedCrystal
_audit_creation_method	'MofGen! by Chris Wilmer'
_symmetry_space_group_name_H-M	'P1'
_symmetry_Int_Tables_number	1
_symmetry_cell_setting	triclinic
loop_
_symmetry_equiv_pos_as_xyz
  x,y,z
_cell_length_a	6.817900
_cell_length_b	11.102244
_cell_length_c	10.943624
_cell_angle_alpha	91.861156
_cell_angle_beta	108.838799
_cell_angle_gamma	108.604870
loop_
_atom_site_label
_atom_site_type_symbol
_atom_site_fract_x
_atom_site_fract_y
_atom_site_fract_z
V1	V	-4.114276	-0.175805	-0.402548
O2	O	-4.073263	0.008482	-0.394888
O3	O	-4.091028	-0.348625	-0.399791
O4	O	-4.092258	-0.173086	-0.578114
O5	O	-4.072025	-0.168272	-0.215331
V6	V	-4.591226	-0.153764	-0.380156
O7	O	-4.389952	-0.224154	-0.451667
O8	O	-4.765748	-0.105415	-0.331036
O9	O	-4.391268	0.019056	-0.382912
O10	O	-4.749637	-0.338052	-0.387815
O11	O	-4.750874	-0.161297	-0.567372
O12	O	-4.390038	-0.156483	-0.204589
C13	C	-3.941294	-0.390755	-0.393440
C14	C	-4.003749	-0.532038	-0.392357
C15	C	-3.972110	-0.580282	-0.273620
C16	C	-4.030808	-0.713035	-0.272617
C17	C	-4.152775	-0.749287	-0.509098
C18	C	-4.094092	-0.616538	-0.510100
C19	C	-3.881767	-0.495782	-0.155876
C20	C	-3.850122	-0.544025	-0.037129
C21	C	-3.908820	-0.676778	-0.036126
C22	C	-3.999163	-0.761287	-0.153870
C23	C	-3.942861	-0.166836	-0.620907
C24	C	-4.006308	-0.165756	-0.764434
C25	C	-3.851189	-0.158485	-0.841581
C26	C	-4.039798	-0.266415	-0.947569
C27	C	-3.930777	-0.055914	-0.914186
C28	C	-4.194128	-0.273788	-0.868545
C29	C	-4.085027	-0.063191	-0.835139
C30	C	-4.273773	-0.171152	-0.941097
C31	C	-4.204344	0.061179	-0.389260
C32	C	-4.121129	0.202460	-0.390352
C33	C	-4.202777	-0.162737	-0.161789
C34	C	-4.118567	-0.163811	-0.018262
H35	H	-3.883069	-0.716054	0.060562
H36	H	-3.672024	-0.153273	-0.798133
H37	H	-3.833954	-0.387686	-0.156679
C38	C	-3.781215	0.068488	-0.942176
C39	C	-3.529621	0.099065	-0.896637
C40	C	-3.380045	0.223459	-0.924623
C41	C	-3.482065	0.317276	-0.998148
C42	C	-3.733673	0.286701	-1.043692
C43	C	-3.883248	0.162307	-1.015705
H44	H	-3.454088	0.029614	-0.842205
H45	H	-3.193788	0.246092	-0.890908
H46	H	-3.371340	0.409360	-1.018865
H47	H	-3.809206	0.356152	-1.098123
H48	H	-4.069506	0.139674	-1.049420
H49	H	-4.119886	-0.577258	-0.606787
H50	H	-3.776579	-0.475211	0.058732
H51	H	-4.046968	-0.869382	-0.153044
H52	H	-4.103400	0.022729	-0.786157
C53	C	-4.343738	-0.398326	-0.840805
C54	C	-4.595574	-0.429557	-0.887496
C55	C	-4.745171	-0.554096	-0.859753
C56	C	-4.642934	-0.647403	-0.785320
C57	C	-4.391086	-0.616174	-0.738625
C58	C	-4.241488	-0.491636	-0.766367
H59	H	-4.671268	-0.360484	-0.942600
H60	H	-4.931607	-0.577213	-0.894321
H61	H	-4.753675	-0.739593	-0.764783
H62	H	-4.315391	-0.685247	-0.683520
H63	H	-4.055052	-0.468518	-0.731799
H64	H	-4.453050	-0.176534	-0.984341
H65	H	-4.226329	-0.818104	-0.604959
H66	H	-4.021341	-0.352331	-0.996516
