data_functionalizedCrystal
_audit_creation_method	'MofGen! by Chris Wilmer'
_symmetry_space_group_name_H-M	'P1'
_symmetry_Int_Tables_number	1
_symmetry_cell_setting	triclinic
loop_
_symmetry_equiv_pos_as_xyz
  x,y,z
_cell_length_a	12.645331
_cell_length_b	12.594516
_cell_length_c	12.645323
_cell_angle_alpha	89.976054
_cell_angle_beta	89.984262
_cell_angle_gamma	90.015287
loop_
_atom_site_label
_atom_site_type_symbol
_atom_site_fract_x
_atom_site_fract_y
_atom_site_fract_z
Zn1	Zn	1.620743	-0.423755	-0.599257
Zn2	Zn	1.620630	-0.601759	-0.422000
Zn3	Zn	1.443458	-0.423792	-0.422023
Zn4	Zn	1.443445	-0.601690	-0.599237
O5	O	1.532069	-0.512749	-0.510629
O6	O	1.769075	-0.447381	-0.575742
O7	O	1.597086	-0.578195	-0.273655
O8	O	1.467028	-0.274842	-0.445551
O9	O	1.768992	-0.578160	-0.445512
O10	O	1.597279	-0.274815	-0.575764
O11	O	1.466918	-0.447444	-0.273672
O12	O	1.295109	-0.447377	-0.445532
O13	O	1.467006	-0.578042	-0.747587
O14	O	1.295099	-0.578078	-0.575730
O15	O	1.597266	-0.447315	-0.747602
O16	O	1.597073	-0.750695	-0.445493
O17	O	1.466896	-0.750645	-0.575708
C18	C	1.256639	-0.512725	-0.510632
C19	C	1.138809	-0.512740	-0.510658
C20	C	0.971275	-0.595415	-0.592139
C21	C	1.093835	-0.595148	-0.592479
C22	C	1.094328	-0.400635	-0.541178
C23	C	0.971730	-0.401139	-0.541751
C24	C	0.971564	-0.541268	-0.398399
C25	C	1.094170	-0.543720	-0.399005
C26	C	1.531999	-0.789290	-0.510619
C27	C	1.532067	-0.907596	-0.510650
C28	C	1.461256	-0.976860	-0.581424
C29	C	1.435425	-1.047721	-0.484694
C30	C	1.557995	-1.047533	-0.607396
C31	C	1.506184	-0.976899	-0.413869
C32	C	1.628799	-0.976705	-0.536636
C33	C	1.603004	-1.047534	-0.439839
C34	C	1.808574	-0.512774	-0.510627
C35	C	1.926404	-0.512785	-0.510626
C36	C	1.532147	-0.512667	-0.787134
C37	C	1.532180	-0.512632	-0.904965
C38	C	1.532168	-0.235128	-0.510663
C39	C	1.532210	-0.116823	-0.510677
C40	C	1.449981	-0.594485	-1.072519
C41	C	1.450196	-0.594890	-0.949959
C42	C	1.643881	-0.543074	-0.949471
C43	C	1.643430	-0.543587	-1.072070
C44	C	1.503736	-0.399879	-1.072164
C45	C	1.501244	-0.400554	-0.949558
C46	C	1.532052	-0.512754	-0.235199
C47	C	1.532224	-0.512490	-0.117370
H48	H	0.940483	-0.576809	-0.674811
H49	H	0.941785	-0.678823	-0.573223
H50	H	1.353687	-1.078938	-0.462737
H51	H	0.942047	-0.337367	-0.485104
H52	H	1.710519	-0.945490	-0.558639
H53	H	1.469003	-0.678374	-0.920644
Br54	Br	1.683677	-0.680793	-1.119760
Br55	Br	0.923198	-0.440955	-0.297170
Br56	Br	1.469576	-0.925407	-0.277479
Br57	Br	1.748961	-0.448302	-1.121528
Br58	Br	1.142760	-0.563732	-0.731079
H59	H	1.468604	-0.677447	-1.103337
Br60	Br	1.594448	-1.099256	-0.743741
Br61	Br	1.702919	-1.098931	-0.339994
H62	H	1.367366	-0.575840	-0.919867
H63	H	1.563638	-0.338789	-1.101169
H64	H	1.123459	-0.337396	-0.483662
Br65	Br	1.361278	-0.925133	-0.681039
Br66	Br	0.920011	-0.675184	-0.352150
Br67	Br	1.748759	-0.446684	-0.900905
H68	H	1.668442	-0.624532	-0.918781
Br69	Br	0.924096	-0.360873	-0.678494
Br70	Br	1.145532	-0.359628	-0.676439
Br71	Br	1.142624	-0.681225	-0.360644
Br72	Br	1.370338	-0.353628	-1.123684
Br73	Br	1.145188	-0.450682	-0.292343
Br74	Br	1.311507	-0.563035	-1.121646
Br75	Br	1.364226	-0.362292	-0.901092
H76	H	1.556769	-0.336233	-0.918929
Br77	Br	1.143967	-0.733719	-0.560647
