data_functionalizedCrystal
_audit_creation_method	'MofGen! by Chris Wilmer'
_symmetry_space_group_name_H-M	'P1'
_symmetry_Int_Tables_number	1
_symmetry_cell_setting	triclinic
loop_
_symmetry_equiv_pos_as_xyz
  x,y,z
_cell_length_a	14.853567
_cell_length_b	14.853567
_cell_length_c	13.330367
_cell_angle_alpha	90.004582
_cell_angle_beta	89.999156
_cell_angle_gamma	96.365070
loop_
_atom_site_label
_atom_site_type_symbol
_atom_site_fract_x
_atom_site_fract_y
_atom_site_fract_z
O1	O	0.117704	-1.196369	-0.083346
O2	O	0.617704	-0.696369	0.416654
O3	O	0.131725	-0.933909	-0.083362
O4	O	0.631725	-0.433909	0.416638
O5	O	-0.006515	-1.072150	-0.083356
O6	O	0.493485	-0.572150	0.416644
O7	O	0.255944	-1.058128	-0.083351
O8	O	0.755944	-0.558128	0.416649
O9	O	-0.006519	-1.072130	0.083491
O10	O	0.493481	-0.572130	0.583491
O11	O	0.131722	-0.933889	0.083485
O12	O	0.631722	-0.433889	0.583485
O13	O	0.117700	-1.196349	0.083501
O14	O	0.617700	-0.696349	0.583501
Cu15	Cu	0.124711	-1.065117	0.098728
Cu16	Cu	0.624711	-0.565117	0.598728
Cu17	Cu	0.124715	-1.065141	-0.098588
Cu18	Cu	0.624715	-0.565141	0.401412
O19	O	0.255941	-1.058108	0.083496
O20	O	0.755941	-0.558108	0.583496
C21	C	0.131088	-0.900311	0.000060
C22	C	0.631088	-0.400311	0.500060
C23	C	0.129184	-0.800227	0.000053
C24	C	0.629184	-0.300227	0.500053
C25	C	-0.040106	-1.071504	0.000064
C26	C	0.459894	-0.571504	0.500064
C27	C	-0.140189	-1.069601	0.000055
C28	C	0.359811	-0.569601	0.500055
C29	C	0.118337	-1.229947	0.000078
C30	C	0.618337	-0.729947	0.500078
C31	C	0.120241	-1.330031	0.000078
C32	C	0.620241	-0.830031	0.500078
C33	C	-0.552723	-0.979435	0.000069
C34	C	-0.052723	-0.479435	0.500069
C35	C	-0.574004	-1.143668	0.000079
C36	C	-0.074004	-0.643668	0.500079
C37	C	-0.479971	-1.145458	0.000073
C38	C	0.020029	-0.645458	0.500073
C39	C	-0.422309	-1.064235	0.000067
C40	C	0.077691	-0.564235	0.500067
C41	C	-0.458680	-0.981223	0.000066
C42	C	0.041320	-0.481223	0.500066
C43	C	-0.443591	-1.228469	0.000084
C44	C	0.056409	-0.728469	0.500084
C45	C	-0.349552	-1.230262	0.000079
C46	C	0.150448	-0.730262	0.500079
C47	C	-0.291889	-1.149039	0.000066
C48	C	0.208111	-0.649039	0.500066
C49	C	-0.328266	-1.066023	0.000064
C50	C	0.171734	-0.566023	0.500064
C51	C	-0.270604	-0.984800	0.000058
C52	C	0.229396	-0.484800	0.500058
C53	C	-0.306979	-0.901783	0.000049
C54	C	0.193021	-0.401783	0.500049
C55	C	-0.401017	-0.899999	0.000053
C56	C	0.098983	-0.399999	0.500053
C57	C	-0.197851	-1.150823	0.000062
C58	C	0.302149	-0.650823	0.500062
C59	C	-0.176561	-0.986588	0.000055
C60	C	0.323439	-0.486588	0.500055
C61	C	0.289531	-1.058754	0.000073
C62	C	0.789531	-0.558754	0.500073
C63	C	0.389615	-1.060657	0.000075
C64	C	0.889615	-0.560657	0.500075
N65	N	0.124708	-1.065107	0.237509
N66	N	0.624708	-0.565107	0.737509
C67	C	0.039019	-0.387693	0.000074
C68	C	0.539019	0.112307	0.500074
C69	C	0.203251	-0.366412	0.000076
C70	C	0.703251	0.133588	0.500076
C71	C	0.205042	-0.460446	0.000073
C72	C	0.705042	0.039554	0.500073
C73	C	0.123819	-0.518108	0.000069
C74	C	0.623819	-0.018108	0.500069
C75	C	0.040806	-0.481736	0.000067
C76	C	0.540806	0.018264	0.500067
C77	C	0.288053	-0.496825	0.000064
C78	C	0.788053	0.003175	0.500064
C79	C	0.289846	-0.590864	0.000059
C80	C	0.789846	-0.090864	0.500059
C81	C	0.208623	-0.648528	0.000062
C82	C	0.708623	-0.148528	0.500062
C83	C	0.125607	-0.612150	0.000062
C84	C	0.625607	-0.112150	0.500062
C85	C	0.044384	-0.669812	0.000058
C86	C	0.544384	-0.169812	0.500058
C87	C	-0.038633	-0.633437	0.000065
C88	C	0.461367	-0.133437	0.500065
C89	C	-0.040417	-0.539399	0.000070
C90	C	0.459583	-0.039399	0.500070
C91	C	0.210407	-0.742565	0.000057
C92	C	0.710407	-0.242565	0.500057
C93	C	0.046172	-0.763855	0.000052
C94	C	0.546172	-0.263855	0.500052
N95	N	0.124711	-1.065158	-0.237370
N96	N	0.624711	-0.565158	0.262630
C97	C	0.185903	-1.003925	0.710130
C98	C	0.685903	-0.503925	1.210130
C99	C	0.063519	-1.126381	0.710103
C100	C	0.563519	-0.626381	1.210103
C101	C	0.063516	-1.126371	0.605084
C102	C	0.563516	-0.626371	1.105084
C103	C	0.124709	-1.065138	0.552584
C104	C	0.624709	-0.565138	1.052584
C105	C	0.185904	-1.003915	0.605102
C106	C	0.685904	-0.503915	1.105102
C107	C	0.002328	-1.187598	0.552559
C108	C	0.502328	-0.687598	1.052559
C109	C	0.002323	-1.187591	0.447534
C110	C	0.502323	-0.687591	0.947534
C111	C	0.063512	-1.126353	0.395031
C112	C	0.563512	-0.626353	0.895031
C113	C	0.124710	-1.065127	0.447556
C114	C	0.624710	-0.565127	0.947556
C115	C	0.185902	-1.003895	0.395055
C116	C	0.685902	-0.503895	0.895055
C117	C	0.247096	-0.942664	0.447578
C118	C	0.747096	-0.442664	0.947578
C119	C	0.247093	-0.942677	0.552599
C120	C	0.747093	-0.442677	1.052599
C121	C	0.063515	-1.126340	0.290010
C122	C	0.563515	-0.626340	0.790010
C123	C	0.185903	-1.003884	0.290027
C124	C	0.685903	-0.503884	0.790027
H125	H	-0.129618	-0.920445	0.000045
H126	H	0.370382	-0.420445	0.500045
O127	O	0.290854	-0.304227	0.000074
O128	O	0.790854	0.195773	0.500074
H129	H	0.330573	-0.317176	0.068076
H130	H	0.830573	0.182824	0.568076
H131	H	-0.047489	-1.237457	0.595308
H132	H	0.452511	-0.737457	1.095308
O133	O	-0.310319	-1.319796	0.000082
O134	O	0.189681	-0.819796	0.500082
H135	H	-0.267984	-1.324538	-0.067923
H136	H	0.232016	-0.824538	0.432077
H137	H	0.277998	-0.772178	0.000053
H138	H	0.777998	-0.272178	0.500053
H139	H	-0.490546	-1.294596	0.000099
H140	H	0.009454	-0.794596	0.500099
O141	O	0.375654	-0.434638	0.000081
O142	O	0.875654	0.065362	0.500081
H143	H	0.360462	-0.363138	0.000104
H144	H	0.860462	0.136862	0.500104
O145	O	-0.636189	-1.231270	0.000096
O146	O	-0.136189	-0.731270	0.500096
H147	H	-0.707690	-1.216081	0.000097
H148	H	-0.207690	-0.716081	0.500097
H149	H	-0.582344	-0.911844	0.000058
H150	H	-0.082344	-0.411844	0.500058
H151	H	-0.104764	-0.680397	0.000055
H152	H	0.395236	-0.180397	0.500055
H153	H	0.235731	-0.954018	0.247288
H154	H	0.735731	-0.454018	0.747288
H155	H	-0.047504	-1.237447	0.404776
H156	H	0.452496	-0.737447	0.904776
O157	O	-0.158613	-1.240350	0.000065
O158	O	0.341387	-0.740350	0.500065
H159	H	-0.214507	-1.296528	0.000066
H160	H	0.285493	-0.796528	0.500066
H161	H	0.235724	-0.954070	0.752896
H162	H	0.735724	-0.454070	1.252896
O163	O	-0.041434	-0.826048	0.000049
O164	O	0.458566	-0.326048	0.500049
H165	H	-0.099455	-0.784953	0.000049
H166	H	0.400545	-0.284953	0.500049
H167	H	-0.108005	-0.509774	0.000100
H168	H	0.391995	-0.009774	0.500100
O169	O	-0.050520	-0.348470	0.000083
O170	O	0.449480	0.151530	0.500083
H171	H	-0.038124	-0.273392	0.000085
H172	H	0.461876	0.226608	0.500085
O173	O	0.379379	-0.630098	0.000076
O174	O	0.879379	-0.130098	0.500076
H175	H	0.435557	-0.574202	0.000091
H176	H	0.935557	-0.074202	0.500091
O177	O	-0.002480	-1.192369	0.233357
O178	O	0.497520	-0.692369	0.733357
H179	H	-0.045032	-1.234948	0.287508
H180	H	0.454968	-0.734948	0.787508
O181	O	-0.440259	-0.810470	0.000057
O182	O	0.059741	-0.310470	0.500057
H183	H	-0.417124	-0.771442	-0.067953
H184	H	0.082876	-0.271442	0.432047
H185	H	0.296924	-0.892811	0.404820
H186	H	0.796924	-0.392811	0.904820
O187	O	0.313102	-0.876649	0.609244
O188	O	0.813102	-0.376649	1.109244
H189	H	0.302828	-0.886954	0.691092
H190	H	0.802828	-0.386954	1.191092
O191	O	-0.002476	-1.192428	0.766720
O192	O	0.497524	-0.692428	1.266720
H193	H	-0.046367	-1.154433	0.814575
H194	H	0.453633	-0.654433	1.314575
O195	O	-0.244785	-0.814178	0.000045
O196	O	0.255215	-0.314178	0.500045
H197	H	-0.173287	-0.829375	0.000043
H198	H	0.326713	-0.329375	0.500043
