data_functionalizedCrystal
_audit_creation_method	'MofGen! by Chris Wilmer'
_symmetry_space_group_name_H-M	'P1'
_symmetry_Int_Tables_number	1
_symmetry_cell_setting	triclinic
loop_
_symmetry_equiv_pos_as_xyz
  x,y,z
_cell_length_a	12.811457
_cell_length_b	12.811415
_cell_length_c	11.295483
_cell_angle_alpha	88.701575
_cell_angle_beta	91.289320
_cell_angle_gamma	84.559489
loop_
_atom_site_label
_atom_site_type_symbol
_atom_site_fract_x
_atom_site_fract_y
_atom_site_fract_z
O1	O	1.390744	0.143897	0.035628
O2	O	1.087656	0.156846	0.001497
O3	O	1.245672	-0.001175	0.035632
O4	O	1.232728	0.301917	0.001493
O5	O	1.231793	0.012683	0.230687
O6	O	1.073777	0.170704	0.196552
O7	O	1.376864	0.157754	0.230683
Cu8	Cu	1.224054	0.165494	0.231427
Cu9	Cu	1.240467	0.149106	0.000752
O10	O	1.218849	0.315775	0.196548
C11	C	1.041899	0.162625	0.094956
C12	C	0.926232	0.159185	0.082836
C13	C	0.693751	0.167810	0.272735
C14	C	0.585072	0.164578	0.261353
C15	C	0.600194	0.149481	0.048691
C16	C	0.708873	0.152713	0.060073
C17	C	0.755647	0.161879	0.172099
C18	C	0.864328	0.165119	0.183479
C19	C	0.879448	0.150014	-0.029181
C20	C	0.770769	0.146782	-0.040563
C21	C	1.237582	-0.033065	0.137226
C22	C	1.234141	-0.148733	0.149342
C23	C	1.242789	-0.381185	-0.040567
C24	C	1.239556	-0.489866	-0.029189
C25	C	1.224435	-0.474778	0.183474
C26	C	1.227668	-0.366097	0.172096
C27	C	1.236846	-0.319305	0.060072
C28	C	1.240087	-0.210622	0.048696
C29	C	1.224958	-0.195536	0.261357
C30	C	1.221725	-0.304217	0.272735
C31	C	1.422622	0.151976	0.137221
C32	C	1.538289	0.155415	0.149334
C33	C	1.226939	0.347665	0.094951
C34	C	1.230381	0.463333	0.082828
N35	N	1.212517	0.177020	0.393673
N36	N	1.252012	0.137572	-0.161491
C37	C	1.335061	0.054542	0.669427
C38	C	1.326350	0.063260	0.792208
C39	C	1.186379	0.203168	0.762019
C40	C	1.195090	0.194450	0.639237
C41	C	1.269434	0.120136	0.592947
C42	C	1.278150	0.111424	0.470163
C43	C	1.138175	0.251326	0.439976
C44	C	1.129464	0.260044	0.562757
H45	H	0.534679	0.169413	0.343301
C46	C	1.048854	0.340697	0.613251
C47	C	1.055286	0.334311	0.737148
C48	C	0.981056	0.408606	0.783700
H49	H	0.980568	0.327171	0.587068
H50	H	1.062439	0.408961	0.586982
H51	H	1.041694	0.266063	0.763406
H52	H	1.123556	0.347848	0.763364
H53	H	0.994641	0.476870	0.757431
H54	H	0.912774	0.395073	0.757508
H55	H	0.985416	0.404290	0.867767
H56	H	1.247563	-0.172526	-0.042520
H57	H	1.214248	-0.342330	0.363941
C58	C	1.252549	-0.330401	-0.162238
C59	C	1.166894	-0.350713	-0.234428
C60	C	1.175845	-0.303936	-0.346514
H61	H	1.315684	-0.358483	-0.196888
H62	H	1.253571	-0.256799	-0.154651
H63	H	1.165882	-0.424300	-0.242019
H64	H	1.103747	-0.322629	-0.199816
H65	H	1.176867	-0.230334	-0.338927
H66	H	1.238982	-0.332021	-0.381153
H67	H	1.117725	-0.317702	-0.395505
C68	C	0.720096	0.137000	-0.162277
C69	C	0.740468	0.222651	-0.234461
C70	C	0.693817	0.213674	-0.346598
H71	H	0.646495	0.135966	-0.154816
H72	H	0.748251	0.073844	-0.196853
H73	H	0.712309	0.285790	-0.199893
H74	H	0.814059	0.223701	-0.241956
H75	H	0.721972	0.150519	-0.381173
H76	H	0.620219	0.212639	-0.339125
H77	H	0.707641	0.271781	-0.395591
C78	C	0.915274	0.174901	0.305049
C79	C	0.987891	0.087784	0.328582
C80	C	1.034850	0.096762	0.440557
H81	H	0.862962	0.177923	0.363472
H82	H	0.950203	0.237062	0.306612
H83	H	0.952963	0.025640	0.327029
H84	H	1.040223	0.084745	0.270188
H85	H	1.069779	0.158923	0.442120
H86	H	0.982530	0.099786	0.498969
H87	H	1.084132	0.037661	0.456533
C88	C	1.246160	-0.557192	-0.138340
C89	C	1.334155	-0.630693	-0.127217
C90	C	1.340262	-0.692737	-0.227743
H91	H	1.252145	-0.513882	-0.206758
H92	H	1.184629	-0.592748	-0.145645
H93	H	1.395671	-0.595139	-0.119925
H94	H	1.328191	-0.674026	-0.058820
H95	H	1.278731	-0.728293	-0.235048
H96	H	1.346243	-0.649418	-0.296154
H97	H	1.399960	-0.742620	-0.220206
C98	C	1.214256	-0.525525	0.305088
C99	C	1.121046	-0.483923	0.355671
C100	C	1.111630	-0.530663	0.467691
H101	H	1.272212	-0.511871	0.354374
H102	H	1.213121	-0.599112	0.297471
H103	H	1.122190	-0.410354	0.363294
H104	H	1.063072	-0.497576	0.306419
H105	H	1.110495	-0.604250	0.460074
H106	H	1.169591	-0.517006	0.516967
H107	H	1.048383	-0.502451	0.502021
H108	H	0.731834	0.175288	0.363949
H109	H	1.220124	-0.145141	0.343305
C110	C	1.358891	0.030640	0.420129
C111	C	1.414477	-0.024958	0.513394
C112	C	1.488854	-0.099398	0.467353
H113	H	1.406203	0.065129	0.372867
H114	H	1.324318	-0.016648	0.372907
H115	H	1.449049	0.022322	0.560597
H116	H	1.367194	-0.059471	0.560665
H117	H	1.454281	-0.146686	0.420131
H118	H	1.536158	-0.064900	0.420091
H119	H	1.526571	-0.137137	0.530625
H120	H	1.395602	-0.005960	0.631737
H121	H	0.562093	0.142000	-0.042513
H122	H	0.929855	0.145191	-0.111127
C123	C	1.397732	-0.008017	0.875051
C124	C	1.464716	-0.074945	0.808226
C125	C	1.530497	-0.140616	0.884500
H126	H	1.356460	-0.048545	0.923615
H127	H	1.438207	0.033369	0.923548
H128	H	1.424245	-0.116327	0.759749
H129	H	1.506011	-0.034446	0.759665
H130	H	1.570972	-0.099230	0.932997
H131	H	1.489216	-0.181137	0.933060
H132	H	1.575959	-0.186027	0.839170
H133	H	1.125843	0.263666	0.799725
H134	H	1.084740	0.304740	0.377690
