data_functionalizedCrystal
_audit_creation_method	'MofGen! by Chris Wilmer'
_symmetry_space_group_name_H-M	'P1'
_symmetry_Int_Tables_number	1
_symmetry_cell_setting	triclinic
loop_
_symmetry_equiv_pos_as_xyz
  x,y,z
_cell_length_a	15.072220
_cell_length_b	19.288864
_cell_length_c	19.288865
_cell_angle_alpha	83.136245
_cell_angle_beta	89.993617
_cell_angle_gamma	89.973672
loop_
_atom_site_label
_atom_site_type_symbol
_atom_site_fract_x
_atom_site_fract_y
_atom_site_fract_z
O1	O	0.074077	-0.921357	-0.086643
O2	O	0.407410	-0.588024	0.246690
O3	O	0.740744	-0.254690	0.580024
O4	O	0.074018	-0.719096	-0.098332
O5	O	0.407351	-0.385763	0.235002
O6	O	0.740684	-0.052430	0.568335
O7	O	0.074032	-0.826071	0.008643
O8	O	0.407365	-0.492738	0.341976
O9	O	0.740698	-0.159404	0.675310
O10	O	0.074063	-0.814382	-0.193618
O11	O	0.407397	-0.481049	0.139716
O12	O	0.740730	-0.147716	0.473049
O13	O	-0.073534	-0.826045	0.008637
O14	O	0.259800	-0.492711	0.341970
O15	O	0.593133	-0.159378	0.675304
O16	O	-0.073547	-0.719070	-0.098338
O17	O	0.259786	-0.385737	0.234996
O18	O	0.593119	-0.052403	0.568329
O19	O	-0.073488	-0.921331	-0.086649
O20	O	0.259845	-0.587997	0.246684
O21	O	0.593179	-0.254664	0.580018
Zn22	Zn	-0.096947	-0.820196	-0.092494
Zn23	Zn	0.236387	-0.486863	0.240839
Zn24	Zn	0.569720	-0.153529	0.574172
Zn25	Zn	0.097477	-0.820231	-0.092486
Zn26	Zn	0.430810	-0.486897	0.240847
Zn27	Zn	0.764143	-0.153564	0.574180
O28	O	-0.073502	-0.814356	-0.193624
O29	O	0.259832	-0.481023	0.139710
O30	O	0.593165	-0.147689	0.473043
C31	C	0.000227	-0.693207	-0.097959
C32	C	0.333561	-0.359873	0.235375
C33	C	0.666894	-0.026540	0.568708
C34	C	0.000204	-0.616103	-0.096830
C35	C	0.333537	-0.282770	0.236504
C36	C	0.666871	0.050564	0.569837
N37	N	-0.229636	-0.820177	-0.092499
N38	N	0.103698	-0.486844	0.240834
N39	N	0.437031	-0.153511	0.574167
C40	C	0.000246	-0.825682	0.034516
C41	C	0.333580	-0.492348	0.367850
C42	C	0.666913	-0.159015	0.701183
C43	C	0.000238	-0.824553	0.111620
C44	C	0.333571	-0.491219	0.444953
C45	C	0.666905	-0.157886	0.778287
C46	C	-0.588837	-0.820229	-0.092484
C47	C	-0.255504	-0.486896	0.240850
C48	C	0.077830	-0.153563	0.574183
C49	C	-0.551238	-0.762798	-0.149533
C50	C	-0.217904	-0.429465	0.183800
C51	C	0.115429	-0.096132	0.517134
C52	C	-0.448412	-0.762929	-0.149740
C53	C	-0.115078	-0.429596	0.183593
C54	C	0.218255	-0.096262	0.516926
C55	C	-0.410633	-0.820203	-0.092492
C56	C	-0.077300	-0.486870	0.240842
C57	C	0.256034	-0.153536	0.574175
C58	C	-0.447900	-0.892628	-0.108094
C59	C	-0.114566	-0.559294	0.225239
C60	C	0.218767	-0.225961	0.558573
C61	C	-0.550758	-0.892306	-0.108499
C62	C	-0.217424	-0.558972	0.224834
C63	C	0.115909	-0.225639	0.558167
C64	C	-0.550954	-0.805882	-0.019661
C65	C	-0.217621	-0.472549	0.313672
C66	C	0.115712	-0.139216	0.647005
C67	C	-0.448091	-0.804218	-0.020152
C68	C	-0.114758	-0.470885	0.313181
C69	C	0.218575	-0.137551	0.646514
C70	C	-0.309920	-0.820193	-0.092494
C71	C	0.023414	-0.486859	0.240839
C72	C	0.356747	-0.153526	0.574172
C73	C	-0.689550	-0.820245	-0.092482
C74	C	-0.356217	-0.486911	0.240851
C75	C	-0.022884	-0.153578	0.574184
N76	N	0.230165	-0.820255	-0.092476
N77	N	0.563499	-0.486922	0.240857
N78	N	0.896832	-0.153588	0.574191
C79	C	0.000304	-0.947220	-0.087022
C80	C	0.333638	-0.613887	0.246311
C81	C	0.666971	-0.280554	0.579645
C82	C	0.000334	-1.024324	-0.088151
C83	C	0.333667	-0.690990	0.245182
C84	C	0.667000	-0.357657	0.578516
C85	C	0.000228	-0.571407	-0.159598
C86	C	0.333561	-0.238073	0.173736
C87	C	0.666894	0.095260	0.507069
C88	C	0.000237	-0.498960	-0.158537
C89	C	0.333571	-0.165626	0.174796
C90	C	0.666904	0.167707	0.508130
C91	C	0.000241	-0.471212	-0.094705
C92	C	0.333574	-0.137879	0.238629
C93	C	0.666908	0.195455	0.571962
C94	C	0.000212	-0.515918	-0.031929
C95	C	0.333546	-0.182585	0.301405
C96	C	0.666879	0.150748	0.634738
C97	C	0.000194	-0.588364	-0.032991
C98	C	0.333527	-0.255030	0.300342
C99	C	0.666860	0.078303	0.633676
C100	C	0.051962	-0.362959	-0.044523
C101	C	0.385295	-0.029626	0.288810
C102	C	0.718628	0.303707	0.622143
C103	C	0.051986	-0.290515	-0.043464
C104	C	0.385319	0.042818	0.289870
C105	C	0.718652	0.376152	0.623203
C106	C	0.000294	-0.247767	-0.091425
C107	C	0.333628	0.085567	0.241908
C108	C	0.666961	0.418900	0.575242
C109	C	-0.051410	-0.277470	-0.140458
C110	C	0.281924	0.055863	0.192875
C111	C	0.615257	0.389197	0.526208
C112	C	-0.051428	-0.349915	-0.141521
C113	C	0.281905	-0.016582	0.191813
C114	C	0.615238	0.316751	0.525146
C115	C	0.000261	-0.392658	-0.093546
C116	C	0.333594	-0.059325	0.239788
C117	C	0.666927	0.274009	0.573121
C118	C	0.000327	-0.124514	-0.153047
C119	C	0.333661	0.208819	0.180286
C120	C	0.666994	0.542152	0.513619
C121	C	0.000331	-0.052066	-0.151984
C122	C	0.333665	0.281267	0.181349
C123	C	0.666998	0.614600	0.514683
C124	C	0.000315	-0.069026	-0.025374
C125	C	0.333649	0.264307	0.307960
C126	C	0.666982	0.597640	0.641293
C127	C	0.000302	-0.141473	-0.026439
C128	C	0.333635	0.191860	0.306894
C129	C	0.666969	0.525194	0.640228
C130	C	0.000312	-0.169212	-0.090278
C131	C	0.333646	0.164121	0.243056
C132	C	0.666979	0.497454	0.576389
C133	C	0.000285	-0.814745	-0.219497
C134	C	0.333619	-0.481412	0.113836
C135	C	0.666952	-0.148078	0.447170
C136	C	0.000299	-0.815874	-0.296601
C137	C	0.333633	-0.482541	0.036733
C138	C	0.666966	-0.149207	0.370066
C139	C	0.000252	-0.887321	0.156316
C140	C	0.333586	-0.553987	0.489650
C141	C	0.666919	-0.220654	0.822983
C142	C	0.000266	-0.886260	0.228763
C143	C	0.333599	-0.552927	0.562097
C144	C	0.666933	-0.219593	0.895430
C145	C	0.000248	-0.822428	0.256511
C146	C	0.333581	-0.489094	0.589844
C147	C	0.666914	-0.155761	0.923178
C148	C	0.000239	-0.759652	0.211805
C149	C	0.333572	-0.426318	0.545138
C150	C	0.666905	-0.092985	0.878471
C151	C	0.000234	-0.760714	0.139359
C152	C	0.333567	-0.427381	0.472693
C153	C	0.666901	-0.094047	0.806026
C154	C	-0.051456	-0.772239	0.364796
C155	C	0.281878	-0.438906	0.698129
C156	C	0.615211	-0.105572	1.031463
C157	C	-0.051456	-0.771179	0.437241
C158	C	0.281877	-0.437846	0.770574
C159	C	0.615210	-0.104512	1.103907
C160	C	0.000267	-0.819148	0.479956
C161	C	0.333600	-0.485815	0.813290
C162	C	0.666933	-0.152481	1.146623
C163	C	0.051979	-0.868189	0.450220
C164	C	0.385312	-0.534855	0.783554
C165	C	0.718646	-0.201522	1.116887
C166	C	0.051974	-0.869251	0.377775
C167	C	0.385308	-0.535918	0.711108
C168	C	0.718641	-0.202585	1.044442
C169	C	0.000254	-0.821269	0.335065
C170	C	0.333587	-0.487935	0.668398
C171	C	0.666920	-0.154602	1.001732
C172	C	0.000297	-0.880770	0.603209
C173	C	0.333630	-0.547437	0.936542
C174	C	0.666964	-0.214104	1.269875
C175	C	0.000316	-0.879707	0.675657
C176	C	0.333649	-0.546374	1.008990
C177	C	0.666983	-0.213040	1.342323
C178	C	0.000280	-0.753097	0.658697
C179	C	0.333613	-0.419763	0.992030
C180	C	0.666947	-0.086430	1.325363
C181	C	0.000270	-0.754162	0.586250
C182	C	0.333603	-0.420829	0.919583
C183	C	0.666936	-0.087495	1.252917
C184	C	0.000274	-0.818001	0.558511
C185	C	0.333607	-0.484667	0.891844
C186	C	0.666941	-0.151334	1.225177
H187	H	-0.423219	-0.709087	-0.140478
H188	H	-0.089885	-0.375754	0.192856
H189	H	0.243448	-0.042420	0.526189
Cl190	Cl	0.000212	-0.481037	0.048318
Cl191	Cl	0.333545	-0.147703	0.381651
Cl192	Cl	0.666878	0.185630	0.714984
H193	H	0.000346	-0.015674	-0.203099
H194	H	0.333679	0.317659	0.130234
H195	H	0.667012	0.650992	0.463567
H196	H	-0.577064	-0.771809	-0.203274
H197	H	-0.243731	-0.438475	0.130059
H198	H	0.089603	-0.105142	0.463393
H199	H	0.000304	-0.932751	0.580622
H200	H	0.333638	-0.599418	0.913956
H201	H	0.666971	-0.266085	1.247289
H202	H	-0.574726	-0.904983	-0.161601
H203	H	-0.241393	-0.571650	0.171732
H204	H	0.091941	-0.238316	0.505065
Cl205	Cl	-0.410117	-0.960174	-0.045634
Cl206	Cl	-0.076784	-0.626841	0.287700
Cl207	Cl	0.256549	-0.293507	0.621033
H208	H	0.000175	-0.624756	0.018124
H209	H	0.333508	-0.291423	0.351457
H210	H	0.666842	0.041910	0.684790
H211	H	0.000259	-0.939303	0.133736
H212	H	0.333592	-0.605970	0.467069
H213	H	0.666925	-0.272636	0.800403
H214	H	0.000254	-0.462561	-0.209652
H215	H	0.333588	-0.129228	0.123682
H216	H	0.666921	0.204106	0.457015
H217	H	0.000332	-0.930822	0.712049
H218	H	0.333666	-0.597489	1.045382
H219	H	0.666999	-0.264156	1.378715
H220	H	0.000323	-0.147101	-0.205028
H221	H	0.333656	0.186233	0.128305
H222	H	0.666989	0.519566	0.461638
Cl223	Cl	0.000278	-0.197666	0.052474
Cl224	Cl	0.333611	0.135668	0.385807
Cl225	Cl	0.666944	0.469001	0.719141
H226	H	0.000222	-0.709599	0.102967
H227	H	0.333555	-0.376266	0.436300
H228	H	0.666889	-0.042933	0.769633
Cl229	Cl	0.116993	-0.253180	0.018171
Cl230	Cl	0.450327	0.080153	0.351504
Cl231	Cl	0.783660	0.413487	0.684837
Cl232	Cl	0.000237	-0.606275	-0.239852
Cl233	Cl	0.333570	-0.272942	0.093482
Cl234	Cl	0.666903	0.060391	0.426815
H235	H	0.094082	-0.909180	0.353567
H236	H	0.427415	-0.575847	0.686900
H237	H	0.760748	-0.242514	1.020234
H238	H	-0.576963	-0.754230	-0.004602
H239	H	-0.243630	-0.420896	0.328732
H240	H	0.089704	-0.087563	0.662065
Cl241	Cl	0.000262	-0.672850	0.693572
Cl242	Cl	0.333596	-0.339516	1.026906
Cl243	Cl	0.666929	-0.006183	1.360239
Cl244	Cl	-0.410384	-0.777009	-0.233190
Cl245	Cl	-0.077051	-0.443676	0.100144
Cl246	Cl	0.256282	-0.110343	0.433477
H247	H	-0.093580	-0.733175	0.330022
H248	H	0.239754	-0.399842	0.663355
H249	H	0.573087	-0.066508	0.996689
Cl250	Cl	-0.116428	-0.387256	-0.203156
Cl251	Cl	0.216905	-0.053922	0.130177
Cl252	Cl	0.550238	0.279411	0.463511
Cl253	Cl	0.000309	-0.034151	0.054873
Cl254	Cl	0.333643	0.299183	0.388207
Cl255	Cl	0.666976	0.632516	0.721540
H256	H	0.000253	-0.703049	0.549857
H257	H	0.333587	-0.369716	0.883190
H258	H	0.666920	-0.036383	1.216524
H259	H	-0.423738	-0.750943	-0.008306
H260	H	-0.090404	-0.417609	0.325027
H261	H	0.242929	-0.084276	0.658360
Cl262	Cl	-0.116469	-0.709532	0.474616
Cl263	Cl	0.216865	-0.376198	0.807949
Cl264	Cl	0.550198	-0.042865	1.141283
H265	H	-0.093502	-0.242665	-0.179513
H266	H	0.239831	0.090668	0.153821
H267	H	0.573164	0.424001	0.487154
Cl268	Cl	0.116951	-0.416693	0.015777
Cl269	Cl	0.450285	-0.083360	0.349111
Cl270	Cl	0.783618	0.249973	0.682444
H271	H	-0.575626	-0.936364	-0.068573
H272	H	-0.242293	-0.603031	0.264760
H273	H	0.091041	-0.269698	0.598093
Cl274	Cl	0.000284	-0.965174	0.284963
Cl275	Cl	0.333618	-0.631841	0.618297
Cl276	Cl	0.666951	-0.298507	0.951630
Cl277	Cl	0.000223	-0.679405	0.246686
Cl278	Cl	0.333556	-0.346072	0.580020
Cl279	Cl	0.666890	-0.012739	0.913353
H280	H	0.094097	-0.907249	0.484999
H281	H	0.427431	-0.573916	0.818332
H282	H	0.760764	-0.240583	1.151665
H283	H	-0.422117	-0.905614	-0.160589
H284	H	-0.088784	-0.572280	0.172744
H285	H	0.244549	-0.238947	0.506077
Cl286	Cl	-0.408408	-0.864639	0.048438
Cl287	Cl	-0.075074	-0.531306	0.381771
Cl288	Cl	0.258259	-0.197972	0.715105
Cl289	Cl	-0.589473	-0.679395	-0.135464
Cl290	Cl	-0.256140	-0.346061	0.197869
Cl291	Cl	0.077193	-0.012728	0.531203
H292	H	-0.575267	-0.847767	0.022790
H293	H	-0.241934	-0.514434	0.356124
H294	H	0.091399	-0.181100	0.689457
