data_functionalizedCrystal
_audit_creation_method	'MofGen! by Chris Wilmer'
_symmetry_space_group_name_H-M	'P1'
_symmetry_Int_Tables_number	1
_symmetry_cell_setting	triclinic
loop_
_symmetry_equiv_pos_as_xyz
  x,y,z
_cell_length_a	16.959455
_cell_length_b	29.839131
_cell_length_c	16.959447
_cell_angle_alpha	89.966004
_cell_angle_beta	89.983056
_cell_angle_gamma	90.038367
loop_
_atom_site_label
_atom_site_type_symbol
_atom_site_fract_x
_atom_site_fract_y
_atom_site_fract_z
Zn1	Zn	1.208287	-0.178881	-0.446889
Zn2	Zn	1.708287	0.321119	0.053111
Zn3	Zn	1.208154	-0.254014	-0.314702
Zn4	Zn	1.708154	0.245986	0.185298
Zn5	Zn	1.076109	-0.178895	-0.314726
Zn6	Zn	1.576109	0.321105	0.185274
Zn7	Zn	1.076031	-0.253980	-0.446841
Zn8	Zn	1.576031	0.246020	0.053159
O9	O	1.142145	-0.216443	-0.380790
O10	O	1.642145	0.283557	0.119210
O11	O	1.318880	-0.188855	-0.429364
O12	O	1.818880	0.311145	0.070636
O13	O	1.190615	-0.244069	-0.204094
O14	O	1.690615	0.255931	0.295906
O15	O	1.093731	-0.116026	-0.332288
O16	O	1.593731	0.383974	0.167712
O17	O	1.318783	-0.244056	-0.332247
O18	O	1.818783	0.255944	0.167753
O19	O	1.190842	-0.116015	-0.429388
O20	O	1.690842	0.383985	0.070612
O21	O	1.093603	-0.188880	-0.204112
O22	O	1.593603	0.311120	0.295888
O23	O	0.965488	-0.188847	-0.332242
O24	O	1.465488	0.311153	0.167758
O25	O	1.093598	-0.243998	-0.557458
O26	O	1.593598	0.256002	-0.057458
O27	O	0.965430	-0.244012	-0.429305
O28	O	1.465430	0.255988	0.070695
O29	O	1.190766	-0.188823	-0.557493
O30	O	1.690766	0.311177	-0.057493
O31	O	1.190539	-0.316877	-0.332200
O32	O	1.690539	0.183123	0.167800
O33	O	1.093469	-0.316852	-0.429282
O34	O	1.593469	0.183148	0.070718
C35	C	0.936779	-0.216428	-0.380771
C36	C	1.436779	0.283572	0.119229
C37	C	0.848922	-0.216432	-0.380782
C38	C	1.348922	0.283568	0.119218
C39	C	0.477453	-0.187695	-0.330354
C40	C	0.977453	0.312305	0.169646
C41	C	0.477441	-0.245227	-0.431270
C42	C	0.977441	0.254773	0.068730
C43	C	0.559987	-0.245221	-0.431265
C44	C	1.059987	0.254779	0.068735
C45	C	0.601270	-0.216451	-0.380803
C46	C	1.101270	0.283549	0.119197
C47	C	0.560006	-0.187688	-0.330346
C48	C	1.060006	0.312312	0.169654
C49	C	0.601257	-0.273987	-0.481716
C50	C	1.101257	0.226013	0.018284
C51	C	0.683808	-0.273982	-0.481713
C52	C	1.183808	0.226018	0.018287
C53	C	0.725092	-0.245210	-0.431254
C54	C	1.225092	0.254790	0.068746
C55	C	0.683823	-0.216445	-0.380795
C56	C	1.183823	0.283555	0.119205
C57	C	0.725105	-0.187675	-0.330333
C58	C	1.225105	0.312325	0.169667
C59	C	0.683838	-0.158908	-0.279878
C60	C	1.183838	0.341092	0.220122
C61	C	0.601290	-0.158916	-0.279887
C62	C	1.101290	0.341084	0.220113
C63	C	0.807640	-0.245202	-0.431245
C64	C	1.307640	0.254798	0.068755
C65	C	0.807659	-0.187669	-0.330325
C66	C	1.307659	0.312331	0.169675
C67	C	1.142003	-0.333165	-0.380750
C68	C	1.642003	0.166835	0.119250
C69	C	1.142014	-0.383100	-0.380760
C70	C	1.642014	0.116900	0.119240
C71	C	1.192782	-0.692743	-0.330313
C72	C	1.692782	-0.192743	0.169687
C73	C	1.192879	-0.880416	-0.330344
C74	C	1.692879	-0.380416	0.169656
O75	O	1.235931	-0.904681	-0.287422
O76	O	1.735931	-0.404681	0.212578
N77	N	1.142309	-0.903885	-0.380849
N78	N	1.642309	-0.403885	0.119151
C79	C	1.091715	-0.880432	-0.431354
C80	C	1.591715	-0.380432	0.068646
O81	O	1.048710	-0.904699	-0.474319
O82	O	1.548710	-0.404699	0.025681
C83	C	1.091622	-0.692760	-0.431327
C84	C	1.591622	-0.192760	0.068673
C85	C	1.142190	-0.669294	-0.380812
C86	C	1.642190	-0.169294	0.119188
C87	C	1.243346	-0.669277	-0.279803
C88	C	1.743346	-0.169277	0.220197
C89	C	1.243318	-0.622362	-0.279793
C90	C	1.743318	-0.122362	0.220207
C91	C	1.192726	-0.598912	-0.330293
C92	C	1.692726	-0.098912	0.169707
C93	C	1.142162	-0.622378	-0.380802
C94	C	1.642162	-0.122378	0.119198
C95	C	1.041032	-0.669308	-0.481835
C96	C	1.541032	-0.169308	0.018165
C97	C	1.041015	-0.622387	-0.481826
C98	C	1.541015	-0.122387	0.018174
C99	C	1.091582	-0.598921	-0.431311
C100	C	1.591582	-0.098921	0.068689
C101	C	1.091541	-0.552013	-0.431292
C102	C	1.591541	-0.052013	0.068708
N103	N	1.142112	-0.528545	-0.380786
N104	N	1.642112	-0.028545	0.119214
C105	C	1.192704	-0.551994	-0.330287
C106	C	1.692704	-0.051994	0.169713
C107	C	1.091766	-0.978962	-0.431364
C108	C	1.591766	-0.478962	0.068636
C109	C	1.091788	-1.025880	-0.431370
C110	C	1.591788	-0.525880	0.068630
C111	C	1.192954	-1.025861	-0.330360
C112	C	1.692954	-0.525861	0.169640
C113	C	1.192927	-0.978943	-0.330351
C114	C	1.692927	-0.478943	0.169649
C115	C	1.142336	-0.955494	-0.380858
C116	C	1.642336	-0.455494	0.119142
C117	C	1.192641	-0.453469	-0.330268
C118	C	1.692641	0.046531	0.169732
C119	C	1.192606	-0.406549	-0.330260
C120	C	1.692606	0.093451	0.169740
C121	C	1.091444	-0.406572	-0.431273
C122	C	1.591444	0.093428	0.068727
C123	C	1.091475	-0.453487	-0.431278
C124	C	1.591475	0.046513	0.068722
C125	C	1.142080	-0.476935	-0.380773
C126	C	1.642080	0.023065	0.119227
O127	O	1.048519	-0.527719	-0.474197
O128	O	1.548519	-0.027719	0.025803
O129	O	1.235715	-0.527719	-0.287341
O130	O	1.735715	-0.027719	0.212659
C131	C	1.192810	-0.739659	-0.330323
C132	C	1.692810	-0.239659	0.169677
C133	C	1.142245	-0.763125	-0.380833
C134	C	1.642245	-0.263125	0.119167
C135	C	1.091653	-0.739675	-0.431332
C136	C	1.591653	-0.239675	0.068668
C137	C	1.142268	-0.810042	-0.380839
C138	C	1.642268	-0.310042	0.119161
C139	C	1.192860	-0.833492	-0.330339
C140	C	1.692860	-0.333492	0.169661
C141	C	1.243430	-0.810023	-0.279834
C142	C	1.743430	-0.310023	0.220166
C143	C	1.243402	-0.763108	-0.279824
C144	C	1.743402	-0.263108	0.220176
C145	C	1.041083	-0.763144	-0.481838
C146	C	1.541083	-0.263144	0.018162
C147	C	1.041114	-0.810059	-0.481843
C148	C	1.541114	-0.310059	0.018157
C149	C	1.091707	-0.833508	-0.431344
C150	C	1.591707	-0.333508	0.068656
C151	C	1.348313	-0.216458	-0.380808
C152	C	1.848313	0.283542	0.119192
C153	C	1.436170	-0.216464	-0.380816
C154	C	1.936170	0.283536	0.119184
C155	C	1.142188	-0.216405	-0.586958
C156	C	1.642188	0.283595	-0.086958
C157	C	1.142206	-0.216389	-0.674814
C158	C	1.642206	0.283611	-0.174814
C159	C	1.142310	-0.099264	-0.380846
C160	C	1.642310	0.400736	0.119154
C161	C	1.142380	-0.049330	-0.380870
C162	C	1.642380	0.450670	0.119130
C163	C	1.091765	-0.187607	-1.046306
C164	C	1.591765	0.312393	-0.546306
C165	C	1.192785	-0.245077	-1.046275
C166	C	1.692785	0.254923	-0.546275
C167	C	1.192772	-0.245087	-0.963729
C168	C	1.692772	0.254913	-0.463729
C169	C	1.142253	-0.216358	-0.922468
C170	C	1.642253	0.283642	-0.422468
C171	C	1.091748	-0.187618	-0.963752
C172	C	1.591748	0.312382	-0.463752
C173	C	1.243270	-0.273830	-0.922438
C174	C	1.743270	0.226170	-0.422438
C175	C	1.243258	-0.273842	-0.839887
C176	C	1.743258	0.226158	-0.339887
C177	C	1.192743	-0.245110	-0.798624
C178	C	1.692743	0.254890	-0.298624
C179	C	1.142236	-0.216368	-0.839914
C180	C	1.642236	0.283632	-0.339914
C181	C	1.091718	-0.187639	-0.798653
C182	C	1.591718	0.312361	-0.298653
C183	C	1.041215	-0.158895	-0.839941
C184	C	1.541215	0.341105	-0.339941
C185	C	1.041233	-0.158886	-0.922490
C186	C	1.541233	0.341114	-0.422490
C187	C	1.192724	-0.245119	-0.716076
C188	C	1.692724	0.254881	-0.216076
C189	C	1.091701	-0.187649	-0.716099
C190	C	1.591701	0.312351	-0.216099
C191	C	1.142149	-0.216447	-0.175423
C192	C	1.642149	0.283553	0.324577
C193	C	1.142284	-0.216337	-0.087567
C194	C	1.642284	0.283663	0.412433
H195	H	0.567639	-0.297413	-0.522794
H196	H	1.067639	0.202587	-0.022794
Cl197	Cl	1.028282	-0.151472	-1.098208
Cl198	Cl	1.528282	0.348528	-0.598208
Cl199	Cl	0.735679	-0.310144	-0.545143
Cl200	Cl	1.235679	0.189856	-0.045143
H201	H	1.234148	-1.044962	-0.289242
H202	H	1.734148	-0.544962	0.210758
Cl203	Cl	1.256258	-0.482938	-0.266774
Cl204	Cl	1.756258	0.017062	0.233226
H205	H	1.050603	-1.044982	-0.472496
H206	H	1.550603	-0.544982	0.027504
H207	H	0.999886	-0.744055	-0.522962
H208	H	1.499886	-0.244055	-0.022962
Cl209	Cl	0.977710	-0.122778	-0.788060
Cl210	Cl	1.477710	0.377222	-0.288060
H211	H	1.284497	-0.603258	-0.238662
H212	H	1.784497	-0.103258	0.261338
Cl213	Cl	1.028157	-0.949491	-0.494864
Cl214	Cl	1.528157	-0.449491	0.005136
H215	H	1.284549	-0.688365	-0.238680
H216	H	1.784549	-0.188365	0.261320
H217	H	1.233848	-0.268519	-0.682462
H218	H	1.733848	0.231481	-0.182462
H219	H	0.841236	-0.268625	-0.472322
H220	H	1.341236	0.231375	0.027678
Cl221	Cl	1.306766	-0.309949	-0.974312
Cl222	Cl	1.806766	0.190051	-0.474312
Cl223	Cl	0.735746	-0.122745	-0.216437
Cl224	Cl	1.235746	0.377255	0.283563
Cl225	Cl	1.306749	-0.309974	-0.787989
Cl226	Cl	1.806749	0.190026	-0.287989
Cl227	Cl	1.028192	-0.151527	-0.664235
Cl228	Cl	1.528192	0.348473	-0.164235
H229	H	1.233784	-0.387444	-0.289123
H230	H	1.733784	0.112556	0.210877
H231	H	1.050249	-0.387472	-0.472387
H232	H	1.550249	0.112528	0.027613
Cl233	Cl	1.027887	-0.482988	-0.494767
Cl234	Cl	1.527887	0.017012	0.005233
H235	H	1.284622	-0.829124	-0.238713
H236	H	1.784622	-0.329124	0.261287
H237	H	1.234104	-0.959839	-0.289218
H238	H	1.734104	-0.459839	0.210782
H239	H	1.233909	-0.268470	-1.079875
H240	H	1.733909	0.231530	-0.579875
Cl241	Cl	0.977466	-0.698796	-0.545353
Cl242	Cl	1.477466	-0.198796	-0.045353
Cl243	Cl	0.977536	-0.839553	-0.545353
Cl244	Cl	1.477536	-0.339553	-0.045353
H245	H	0.841265	-0.164238	-0.289237
H246	H	1.341265	0.335762	0.210763
Cl247	Cl	1.306980	-0.733615	-0.216320
Cl248	Cl	1.806980	-0.233615	0.283680
Cl249	Cl	0.977747	-0.122755	-0.974399
Cl250	Cl	1.477747	0.377245	-0.474399
H251	H	0.999818	-0.603297	-0.522958
H252	H	1.499818	-0.103297	-0.022958
H253	H	0.443849	-0.164272	-0.289277
H254	H	0.943849	0.335728	0.210723
Cl255	Cl	0.425543	-0.281402	-0.494688
Cl256	Cl	0.925543	0.218598	0.005312
Cl257	Cl	0.549407	-0.122755	-0.216463
Cl258	Cl	1.049407	0.377245	0.283537
