data_functionalizedCrystal
_audit_creation_method	'MofGen! by Chris Wilmer'
_symmetry_space_group_name_H-M	'P1'
_symmetry_Int_Tables_number	1
_symmetry_cell_setting	triclinic
loop_
_symmetry_equiv_pos_as_xyz
  x,y,z
_cell_length_a	14.908571
_cell_length_b	19.121063
_cell_length_c	14.908803
_cell_angle_alpha	84.426527
_cell_angle_beta	89.810884
_cell_angle_gamma	89.303906
loop_
_atom_site_label
_atom_site_type_symbol
_atom_site_fract_x
_atom_site_fract_y
_atom_site_fract_z
Zn1	Zn	1.323926	-0.366572	0.606393
Zn2	Zn	1.326108	-0.477593	0.461735
Zn3	Zn	1.183060	-0.353045	0.446698
Zn4	Zn	1.167150	-0.476795	0.603343
O5	O	1.250061	-0.418501	0.529542
O6	O	1.449692	-0.387294	0.594772
O7	O	1.314705	-0.455745	0.333644
O8	O	1.207492	-0.256587	0.462865
O9	O	1.451296	-0.468861	0.488493
O10	O	1.310985	-0.266525	0.580192
O11	O	1.209608	-0.364239	0.322596
O12	O	1.055473	-0.363466	0.459909
O13	O	1.180375	-0.467501	0.729844
O14	O	1.043783	-0.454384	0.574995
O15	O	1.295557	-0.386520	0.732085
O16	O	1.299277	-0.575740	0.485536
O17	O	1.182491	-0.575154	0.589575
C18	C	1.017093	-0.407371	0.515490
C19	C	0.917426	-0.402627	0.509500
C20	C	0.718019	-0.488520	0.617937
C21	C	0.624373	-0.484065	0.612313
C22	C	0.636486	-0.389260	0.492632
C23	C	0.730132	-0.393715	0.498257
C24	C	0.770895	-0.443347	0.560910
C25	C	0.864543	-0.447805	0.566530
C26	C	0.876654	-0.352997	0.446854
C27	C	0.783008	-0.348542	0.441230
C28	C	1.239417	-0.600925	0.538877
C29	C	1.234944	-0.678971	0.542906
C30	C	1.293688	-0.715924	0.490681
C31	C	1.289486	-0.789258	0.494476
C32	C	1.226535	-0.825637	0.550491
C33	C	1.167788	-0.788679	0.602721
C34	C	1.171995	-0.715347	0.598931
C35	C	1.210793	-1.047038	0.564647
C36	C	1.206588	-1.120374	0.568432
C37	C	1.328288	-1.120948	0.460187
C38	C	1.332486	-1.047614	0.456398
C39	C	1.273742	-1.010663	0.508632
C40	C	1.222237	-0.900595	0.554369
C41	C	1.278046	-0.935707	0.504758
C42	C	1.483938	-0.429676	0.543650
C43	C	1.583603	-0.434437	0.549662
C44	C	1.235947	-0.428431	0.764574
C45	C	1.229933	-0.432662	0.864730
C46	C	1.260769	-0.235368	0.520192
C47	C	1.265333	-0.157327	0.516207
C48	C	1.338569	-0.356271	1.055269
C49	C	1.332921	-0.360245	1.149375
C50	C	1.212985	-0.444578	1.147050
C51	C	1.218633	-0.440604	1.052944
C52	C	1.281428	-0.396451	1.007057
C53	C	1.287080	-0.392481	0.912949
C54	C	1.167140	-0.476810	0.910626
C55	C	1.161492	-0.480784	1.004732
C56	C	1.264114	-0.408627	1.295425
C57	C	1.270132	-0.404397	1.195269
H58	H	0.603280	-0.348848	0.441628
H59	H	1.329304	-0.906085	0.459154
C60	C	0.762861	-0.543117	0.686853
N61	N	0.796634	-0.584241	0.738762
H62	H	0.749806	-0.308131	0.390221
H63	H	1.110365	-0.516731	1.042106
C64	C	0.566212	-0.533763	0.675042
N65	N	0.522406	-0.571199	0.722290
H66	H	0.919717	-0.316215	0.400416
C67	C	1.362938	-0.675913	0.429058
N68	N	1.415102	-0.645780	0.382643
H69	H	1.124160	-0.685261	0.641459
H70	H	1.379449	-0.327525	1.188626
H71	H	1.170980	-0.930223	0.599975
H72	H	1.338212	-0.356530	0.875590
H73	H	1.337322	-0.819341	0.451948
H74	H	1.161860	-0.480525	1.184427
C75	C	1.401716	-1.007600	0.394752
N76	N	1.453851	-0.977461	0.348309
H77	H	1.120614	-0.509529	0.871362
H78	H	1.376115	-1.151041	0.417662
C79	C	1.146215	-1.006405	0.622156
N80	N	1.097588	-0.975800	0.665492
C81	C	0.909381	-0.502400	0.635451
N82	N	0.943151	-0.543520	0.687368
H83	H	1.116536	-0.818305	0.648334
C84	C	1.407647	-0.307706	1.004791
N85	N	1.459678	-0.271125	0.966773
C86	C	1.137340	-1.160391	0.630061
N87	N	1.085185	-1.190531	0.676479
