data_functionalizedCrystal
_audit_creation_method	'MofGen! by Chris Wilmer'
_symmetry_space_group_name_H-M	'P1'
_symmetry_Int_Tables_number	1
_symmetry_cell_setting	triclinic
loop_
_symmetry_equiv_pos_as_xyz
  x,y,z
_cell_length_a	15.944551
_cell_length_b	15.944480
_cell_length_c	14.421503
_cell_angle_alpha	89.993290
_cell_angle_beta	89.996660
_cell_angle_gamma	96.515707
loop_
_atom_site_label
_atom_site_type_symbol
_atom_site_fract_x
_atom_site_fract_y
_atom_site_fract_z
O1	O	0.108038	-1.114566	0.077094
O2	O	0.358038	-0.864566	0.327094
O3	O	0.608038	-0.614566	0.577094
O4	O	0.858038	-0.364566	0.827094
O5	O	0.121456	-0.870009	0.077100
O6	O	0.371456	-0.620009	0.327100
O7	O	0.621456	-0.370009	0.577100
O8	O	0.871456	-0.120009	0.827100
O9	O	-0.007530	-0.998966	0.077088
O10	O	0.242470	-0.748966	0.327088
O11	O	0.492470	-0.498966	0.577088
O12	O	0.742470	-0.248966	0.827088
O13	O	0.237023	-0.985609	0.077105
O14	O	0.487023	-0.735609	0.327105
O15	O	0.737023	-0.485609	0.577105
O16	O	0.987023	-0.235609	0.827105
O17	O	-0.007511	-0.998944	-0.077135
O18	O	0.242489	-0.748944	0.172865
O19	O	0.492489	-0.498944	0.422865
O20	O	0.742489	-0.248944	0.672865
O21	O	0.121475	-0.869987	-0.077123
O22	O	0.371475	-0.619987	0.172877
O23	O	0.621475	-0.369987	0.422877
O24	O	0.871475	-0.119987	0.672877
O25	O	0.108057	-1.114545	-0.077130
O26	O	0.358057	-0.864545	0.172870
O27	O	0.608057	-0.614545	0.422870
O28	O	0.858057	-0.364545	0.672870
Cu29	Cu	0.114768	-0.992264	-0.091208
Cu30	Cu	0.364768	-0.742264	0.158792
Cu31	Cu	0.614768	-0.492264	0.408792
Cu32	Cu	0.864768	-0.242264	0.658792
Cu33	Cu	0.114745	-0.992289	0.091179
Cu34	Cu	0.364745	-0.742289	0.341179
Cu35	Cu	0.614745	-0.492289	0.591179
Cu36	Cu	0.864745	-0.242289	0.841179
O37	O	0.237042	-0.985588	-0.077118
O38	O	0.487042	-0.735588	0.172882
O39	O	0.737042	-0.485588	0.422882
O40	O	0.987042	-0.235588	0.672882
C41	C	0.120919	-0.838703	-0.000011
C42	C	0.370919	-0.588703	0.249989
C43	C	0.620919	-0.338703	0.499989
C44	C	0.870919	-0.088703	0.749989
C45	C	0.119280	-0.745454	-0.000009
C46	C	0.369280	-0.495454	0.249991
C47	C	0.619280	-0.245454	0.499991
C48	C	0.869280	0.004546	0.749991
C49	C	0.195212	-0.509692	-0.000001
C50	C	0.445212	-0.259692	0.249999
C51	C	0.695212	-0.009692	0.499999
C52	C	0.945212	0.240308	0.749999
C53	C	0.154282	-0.459123	-0.076048
C54	C	0.404282	-0.209123	0.173952
C55	C	0.654282	0.040877	0.423952
C56	C	0.904282	0.290877	0.673952
C57	C	0.116244	-0.574732	-0.000009
C58	C	0.366244	-0.324732	0.249991
C59	C	0.616244	-0.074732	0.499991
C60	C	0.866244	0.175268	0.749991
C61	C	0.154245	-0.459149	0.076004
C62	C	0.404245	-0.209149	0.326004
C63	C	0.654245	0.040851	0.576004
C64	C	0.904245	0.290851	0.826004
C65	C	0.113317	-0.409821	-0.000006
C66	C	0.363317	-0.159821	0.249994
C67	C	0.613317	0.090179	0.499994
C68	C	0.863317	0.340179	0.749994
C69	C	0.075336	-0.525391	-0.076119
C70	C	0.325336	-0.275391	0.173881
C71	C	0.575336	-0.025391	0.423881
C72	C	0.825336	0.224609	0.673881
C73	C	0.075310	-0.525420	0.076002
C74	C	0.325310	-0.275420	0.326002
C75	C	0.575310	-0.025420	0.576002
C76	C	0.825310	0.224580	0.826002
C77	C	0.034323	-0.474883	-0.000064
C78	C	0.284323	-0.224883	0.249936
C79	C	0.534323	0.025117	0.499936
C80	C	0.784323	0.275117	0.749936
C81	C	0.117933	-0.669732	-0.000012
C82	C	0.367933	-0.419732	0.249988
C83	C	0.617933	-0.169732	0.499988
C84	C	0.867933	0.080268	0.749988
C85	C	0.111622	-0.314823	-0.000010
C86	C	0.361622	-0.064823	0.249990
C87	C	0.611622	0.185177	0.499990
C88	C	0.861622	0.435177	0.749990
C89	C	-0.038814	-0.998401	-0.000023
C90	C	0.211186	-0.748401	0.249977
C91	C	0.461186	-0.498401	0.499977
C92	C	0.711186	-0.248401	0.749977
C93	C	-0.132060	-0.996738	-0.000024
C94	C	0.117940	-0.746738	0.249976
C95	C	0.367940	-0.496738	0.499976
C96	C	0.617940	-0.246738	0.749976
C97	C	-0.346895	-0.912831	-0.000009
C98	C	-0.096895	-0.662831	0.249991
C99	C	0.153105	-0.412831	0.499991
C100	C	0.403105	-0.162831	0.749991
C101	C	-0.407913	-0.951784	-0.076051
C102	C	-0.157913	-0.701784	0.173949
C103	C	0.092087	-0.451784	0.423949
C104	C	0.342087	-0.201784	0.673949
C105	C	-0.302785	-0.993731	-0.000017
C106	C	-0.052785	-0.743731	0.249983
C107	C	0.197215	-0.493731	0.499983
C108	C	0.447215	-0.243731	0.749983
C109	C	-0.407915	-0.951824	0.076001
C110	C	-0.157915	-0.701824	0.326001
C111	C	0.092085	-0.451824	0.576001
C112	C	0.342085	-0.201824	0.826001
C113	C	-0.467697	-0.990820	-0.000006
C114	C	-0.217697	-0.740820	0.249994
C115	C	0.032303	-0.490820	0.499994
C116	C	0.282303	-0.240820	0.749994
C117	C	-0.362574	-1.032706	-0.076122
C118	C	-0.112574	-0.782706	0.173878
C119	C	0.137426	-0.532706	0.423878
C120	C	0.387426	-0.282706	0.673878
C121	C	-0.362570	-1.032735	0.075999
C122	C	-0.112570	-0.782735	0.325999
C123	C	0.137430	-0.532735	0.575999
C124	C	0.387430	-0.282735	0.825999
C125	C	-0.423570	-1.071747	-0.000063
C126	C	-0.173570	-0.821747	0.249937
C127	C	0.076430	-0.571747	0.499937
C128	C	0.326430	-0.321747	0.749937
C129	C	-0.207783	-0.995405	-0.000024
C130	C	0.042217	-0.745405	0.249976
C131	C	0.292217	-0.495405	0.499976
C132	C	0.542217	-0.245405	0.749976
C133	C	-0.562697	-0.989152	-0.000005
C134	C	-0.312697	-0.739152	0.249995
C135	C	-0.062697	-0.489152	0.499995
C136	C	0.187303	-0.239152	0.749995
C137	C	0.268327	-0.986153	-0.000004
C138	C	0.518327	-0.736153	0.249996
C139	C	0.768327	-0.486153	0.499996
C140	C	1.018327	-0.236153	0.749996
C141	C	0.361572	-0.987815	0.000003
C142	C	0.611572	-0.737815	0.250003
C143	C	0.861572	-0.487815	0.500003
C144	C	1.111572	-0.237815	0.750003
C145	C	0.108605	-0.145849	-0.000015
C146	C	0.358605	0.104151	0.249985
C147	C	0.608605	0.354151	0.499985
C148	C	0.858605	0.604151	0.749985
C149	C	0.110278	-0.239094	-0.000006
C150	C	0.360278	0.010906	0.249994
C151	C	0.610278	0.260906	0.499994
C152	C	0.860278	0.510906	0.749994
N153	N	0.114783	-0.992252	-0.219490
N154	N	0.364783	-0.742252	0.030510
N155	N	0.614783	-0.492252	0.280510
N156	N	0.864783	-0.242252	0.530510
C157	C	0.174399	-0.932612	-0.469138
C158	C	0.424399	-0.682612	-0.219138
C159	C	0.674399	-0.432612	0.030862
C160	C	0.924399	-0.182612	0.280862
C161	C	0.190687	-1.008515	-0.530941
C162	C	0.440687	-0.758515	-0.280941
C163	C	0.690687	-0.508515	-0.030941
C164	C	0.940687	-0.258515	0.219059
C165	C	0.114763	-0.992273	-0.408651
C166	C	0.364763	-0.742273	-0.158651
C167	C	0.614763	-0.492273	0.091349
C168	C	0.864763	-0.242273	0.341349
C169	C	0.098495	-0.916390	-0.530941
C170	C	0.348495	-0.666390	-0.280941
C171	C	0.598495	-0.416390	-0.030941
C172	C	0.848495	-0.166390	0.219059
C173	C	0.114746	-0.992286	-0.591372
C174	C	0.364746	-0.742286	-0.341372
C175	C	0.614746	-0.492286	-0.091372
C176	C	0.864746	-0.242286	0.158628
C177	C	0.131089	-1.068214	-0.469094
C178	C	0.381089	-0.818214	-0.219094
C179	C	0.631089	-0.568214	0.030906
C180	C	0.881089	-0.318214	0.280906
C181	C	0.038863	-0.976039	-0.469088
C182	C	0.288863	-0.726039	-0.219088
C183	C	0.538863	-0.476039	0.030912
C184	C	0.788863	-0.226039	0.280912
C185	C	0.055119	-1.051996	-0.530864
C186	C	0.305119	-0.801996	-0.280864
C187	C	0.555119	-0.551996	-0.030864
C188	C	0.805119	-0.301996	0.219136
C189	C	0.114775	-0.992264	-0.303390
C190	C	0.364775	-0.742264	-0.053390
C191	C	0.614775	-0.492264	0.196610
C192	C	0.864775	-0.242264	0.446610
C193	C	0.114733	-0.992303	-0.696631
C194	C	0.364733	-0.742303	-0.446631
C195	C	0.614733	-0.492303	-0.196631
C196	C	0.864733	-0.242303	0.053369
N197	N	0.114723	-0.992308	0.219460
N198	N	0.364723	-0.742308	0.469460
N199	N	0.614723	-0.492308	0.719460
N200	N	0.864723	-0.242308	0.969460
H201	H	0.187602	-0.430219	0.140287
H202	H	0.437602	-0.180219	0.390287
H203	H	0.687602	0.069781	0.640287
H204	H	0.937602	0.319781	0.890287
H205	H	0.187640	-0.430177	-0.140334
H206	H	0.437640	-0.180177	0.109666
H207	H	0.687640	0.069823	0.359666
H208	H	0.937640	0.319823	0.609666
Br209	Br	-0.028956	-1.136185	-0.575760
Br210	Br	0.221044	-0.886185	-0.325760
Br211	Br	0.471044	-0.636185	-0.075760
Br212	Br	0.721044	-0.386185	0.174240
H213	H	0.263230	-0.525316	-0.000068
H214	H	0.513230	-0.275316	0.249932
H215	H	0.763230	-0.025316	0.499932
H216	H	1.013230	0.224684	0.749932
Br217	Br	-0.291353	-0.800910	-0.000123
Br218	Br	-0.041353	-0.550910	0.249877
Br219	Br	0.208647	-0.300910	0.499877
Br220	Br	0.458647	-0.050910	0.749877
Br221	Br	0.019798	-0.573418	-0.183385
Br222	Br	0.269798	-0.323418	0.066615
Br223	Br	0.519798	-0.073418	0.316615
Br224	Br	0.769798	0.176582	0.566615
Br225	Br	-0.068074	-0.953095	-0.423767
Br226	Br	0.181926	-0.703095	-0.173767
Br227	Br	0.431926	-0.453095	0.076233
Br228	Br	0.681926	-0.203095	0.326233
Br229	Br	-0.329264	-1.089680	-0.183389
Br230	Br	-0.079264	-0.839680	0.066611
Br231	Br	0.170736	-0.589680	0.316611
Br232	Br	0.420736	-0.339680	0.566611
Br233	Br	0.297655	-1.031424	-0.576223
Br234	Br	0.547655	-0.781424	-0.326223
Br235	Br	0.797655	-0.531424	-0.076223
Br236	Br	1.047655	-0.281424	0.173777
H237	H	-0.342456	-1.066932	0.140288
H238	H	-0.092456	-0.816932	0.390288
H239	H	0.157544	-0.566932	0.640288
H240	H	0.407544	-0.316932	0.890288
Br241	Br	0.075572	-0.809424	-0.576228
Br242	Br	0.325572	-0.559424	-0.326228
Br243	Br	0.575572	-0.309424	-0.076228
Br244	Br	0.825572	-0.059424	0.173772
H245	H	-0.427991	-0.917605	0.140293
H246	H	-0.177991	-0.667605	0.390293
H247	H	0.072009	-0.417605	0.640293
H248	H	0.322009	-0.167605	0.890293
Br249	Br	0.019762	-0.573696	0.183155
Br250	Br	0.269762	-0.323696	0.433155
Br251	Br	0.519762	-0.073696	0.683155
Br252	Br	0.769762	0.176304	0.933155
Br253	Br	-0.079128	-0.449096	-0.000142
Br254	Br	0.170872	-0.199096	0.249858
Br255	Br	0.420872	0.050904	0.499858
Br256	Br	0.670872	0.300904	0.749858
H257	H	-0.428004	-0.917558	-0.140337
H258	H	-0.178004	-0.667558	0.109663
H259	H	0.071996	-0.417558	0.359663
H260	H	0.321996	-0.167558	0.609663
Br261	Br	-0.478868	-1.183766	-0.000130
Br262	Br	-0.228868	-0.933766	0.249870
Br263	Br	0.021132	-0.683766	0.499870
Br264	Br	0.271132	-0.433766	0.749870
Br265	Br	0.258519	-0.848605	-0.423959
Br266	Br	0.508519	-0.598605	-0.173959
Br267	Br	0.758519	-0.348605	0.076041
Br268	Br	1.008519	-0.098605	0.326041
H269	H	0.144918	-1.132406	-0.442041
H270	H	0.394918	-0.882406	-0.192041
H271	H	0.644918	-0.632406	0.057959
H272	H	0.894918	-0.382406	0.307959
