data_functionalizedCrystal
_audit_creation_method	'MofGen! by Chris Wilmer'
_symmetry_space_group_name_H-M	'P1'
_symmetry_Int_Tables_number	1
_symmetry_cell_setting	triclinic
loop_
_symmetry_equiv_pos_as_xyz
  x,y,z
_cell_length_a	6.817900
_cell_length_b	17.110477
_cell_length_c	19.453114
_cell_angle_alpha	96.689185
_cell_angle_beta	101.709288
_cell_angle_gamma	99.060298
loop_
_atom_site_label
_atom_site_type_symbol
_atom_site_fract_x
_atom_site_fract_y
_atom_site_fract_z
V1	V	-3.984650	-0.110306	-0.218908
O2	O	-3.995637	0.004453	-0.214834
O3	O	-3.914651	-0.217903	-0.217321
O4	O	-3.927831	-0.108981	-0.314422
O5	O	-3.982365	-0.105223	-0.117061
V6	V	-4.472168	-0.096536	-0.206737
O7	O	-4.237146	-0.140513	-0.245605
O8	O	-4.669869	-0.066329	-0.180039
O9	O	-4.318961	0.011061	-0.208324
O10	O	-4.578579	-0.211295	-0.210811
O11	O	-4.591850	-0.101619	-0.308584
O12	O	-4.305780	-0.097860	-0.111223
C13	C	-3.754669	-0.244121	-0.213844
C14	C	-3.778667	-0.332086	-0.213184
C15	C	-3.970917	-0.377455	-0.216373
C16	C	-3.993456	-0.460108	-0.215757
C17	C	-3.823740	-0.497388	-0.211945
C18	C	-3.631476	-0.452013	-0.208757
C19	C	-3.608942	-0.369363	-0.209379
C20	C	-3.882726	-0.746736	-0.209897
C21	C	-3.905274	-0.829392	-0.209274
C22	C	-4.267253	-0.837481	-0.216275
C23	C	-4.244700	-0.754828	-0.216892
C24	C	-4.052441	-0.709461	-0.213708
C25	C	-3.846773	-0.581872	-0.211313
C26	C	-4.029414	-0.624980	-0.214345
C27	C	-3.771482	-0.105180	-0.337705
C28	C	-3.806167	-0.104809	-0.415788
C29	C	-4.003446	-0.108606	-0.456042
C30	C	-4.036037	-0.108258	-0.529409
C31	C	-3.871342	-0.104127	-0.562521
C32	C	-3.674032	-0.100325	-0.522257
C33	C	-3.641445	-0.100665	-0.448891
N34	N	-3.803209	-0.145916	-0.681276
N35	N	-3.834179	-0.145594	-0.750972
C36	C	-3.969514	-0.103099	-0.783571
N37	N	-4.072744	-0.060947	-0.743843
N38	N	-4.041778	-0.061273	-0.674141
C39	C	-3.906657	-0.103757	-0.642075
C40	C	-4.202144	-0.106517	-0.903378
C41	C	-4.234726	-0.106163	-0.976745
C42	C	-3.872719	-0.098239	-0.969593
C43	C	-3.840140	-0.098584	-0.896226
C44	C	-4.004862	-0.102728	-0.863123
C45	C	-4.142284	0.037275	-0.211798
C46	C	-4.097523	0.125239	-0.212464
C47	C	-4.125472	-0.101665	-0.087936
C48	C	-4.070026	-0.102032	-0.009852
H49	H	-3.726178	-0.709807	-0.207300
Br50	Br	-3.572391	-0.093442	-0.841593
H51	H	-3.480792	-0.097567	-0.416115
Br52	Br	-4.425684	-0.112135	-0.858447
Br53	Br	-4.259737	-0.574385	-0.219524
H54	H	-3.738618	-0.094868	-0.996551
Br55	Br	-4.201259	-0.326868	-0.221542
H56	H	-4.137578	-0.111977	-0.429094
H57	H	-4.150003	-0.497044	-0.218355
Br58	Br	-3.401147	-0.502608	-0.203591
H59	H	-4.196692	-0.111354	-0.562191
H60	H	-4.382907	-0.724481	-0.220000
H61	H	-4.395377	-0.109250	-1.009518
H62	H	-3.767069	-0.859746	-0.206186
H63	H	-3.539938	-0.096959	-0.549222
H64	H	-4.423784	-0.874427	-0.218867
H65	H	-3.708593	-0.612234	-0.208207
H66	H	-3.452396	-0.332425	-0.206785
