data_functionalizedCrystal
_audit_creation_method	'MofGen! by Chris Wilmer'
_symmetry_space_group_name_H-M	'P1'
_symmetry_Int_Tables_number	1
_symmetry_cell_setting	triclinic
loop_
_symmetry_equiv_pos_as_xyz
  x,y,z
_cell_length_a	29.839134
_cell_length_b	16.994747
_cell_length_c	29.839125
_cell_angle_alpha	89.991363
_cell_angle_beta	90.021980
_cell_angle_gamma	90.005924
loop_
_atom_site_label
_atom_site_type_symbol
_atom_site_fract_x
_atom_site_fract_y
_atom_site_fract_z
Zn1	Zn	0.686814	-0.314247	0.254207
Zn2	Zn	1.186814	0.185753	0.754207
Zn3	Zn	0.686786	-0.446127	0.179112
Zn4	Zn	1.186786	0.053873	0.679112
Zn5	Zn	0.611697	-0.314229	0.179077
Zn6	Zn	1.111697	0.185771	0.679077
Zn7	Zn	0.611685	-0.446101	0.254200
Zn8	Zn	1.111685	0.053899	0.754200
O9	O	0.649246	-0.380176	0.216649
O10	O	1.149246	0.119824	0.716649
O11	O	0.749678	-0.331759	0.244263
O12	O	1.249678	0.168241	0.744263
O13	O	0.676819	-0.428635	0.116240
O14	O	1.176819	0.071365	0.616240
O15	O	0.621679	-0.203850	0.189031
O16	O	1.121679	0.296150	0.689031
O17	O	0.749657	-0.428651	0.189091
O18	O	1.249657	0.071349	0.689091
O19	O	0.676867	-0.203863	0.244230
O20	O	1.176867	0.296137	0.744230
O21	O	0.621651	-0.331730	0.116214
O22	O	1.121651	0.168270	0.616214
O23	O	0.548828	-0.331704	0.189025
O24	O	1.048828	0.168296	0.689025
O25	O	0.621657	-0.428606	0.317068
O26	O	1.121657	0.071394	0.817068
O27	O	0.548819	-0.428589	0.244217
O28	O	1.048819	0.071411	0.744217
O29	O	0.676855	-0.331734	0.317074
O30	O	1.176855	0.168266	0.817074
O31	O	0.676807	-0.556505	0.189084
O32	O	1.176807	-0.056505	0.689084
O33	O	0.621630	-0.556486	0.244251
O34	O	1.121630	-0.056486	0.744251
C35	C	0.532523	-0.380143	0.216617
C36	C	1.032523	0.119857	0.716617
C37	C	0.482589	-0.380147	0.216613
C38	C	0.982589	0.119853	0.716613
C39	C	0.649220	-0.585116	0.216669
C40	C	1.149220	-0.085116	0.716669
C41	C	0.649223	-0.674438	0.216668
C42	C	1.149223	-0.174438	0.716668
Zn43	Zn	0.611710	-0.945316	0.179064
Zn44	Zn	1.111710	-0.445316	0.679064
Zn45	Zn	0.686834	-0.945312	0.254188
Zn46	Zn	1.186834	-0.445312	0.754188
Zn47	Zn	0.611700	-0.813493	0.254193
Zn48	Zn	1.111700	-0.313493	0.754193
Zn49	Zn	0.686795	-0.813382	0.179097
Zn50	Zn	1.186795	-0.313382	0.679097
O51	O	0.649260	-0.879376	0.216635
O52	O	1.149260	-0.379376	0.716635
O53	O	0.621696	-1.055697	0.189014
O54	O	1.121696	-0.555697	0.689014
O55	O	0.676880	-0.927870	0.317055
O56	O	1.176880	-0.427870	0.817055
O57	O	0.548834	-0.831028	0.244215
O58	O	1.048834	-0.331028	0.744215
O59	O	0.676890	-1.055693	0.244206
O60	O	1.176890	-0.555693	0.744206
O61	O	0.548842	-0.927877	0.189019
O62	O	1.048842	-0.427877	0.689019
O63	O	0.621679	-0.831024	0.317059
O64	O	1.121679	-0.331024	0.817059
O65	O	0.621641	-0.703097	0.244247
O66	O	1.121641	-0.203097	0.744247
O67	O	0.676822	-0.830839	0.116226
O68	O	1.176822	-0.330839	0.616226
O69	O	0.676812	-0.703016	0.189075
O70	O	1.176812	-0.203016	0.689075
O71	O	0.621658	-0.927770	0.116202
O72	O	1.121658	-0.427770	0.616202
O73	O	0.749696	-0.927763	0.244238
O74	O	1.249696	-0.427763	0.744238
O75	O	0.749667	-0.830835	0.189070
O76	O	1.249667	-0.330835	0.689070
C77	C	0.172950	-0.430699	0.245353
C78	C	0.672950	0.069301	0.745353
C79	C	-0.014723	-0.430721	0.245373
C80	C	0.485277	0.069279	0.745373
O81	O	-0.038984	-0.473665	0.269789
O82	O	0.461016	0.026335	0.769789
N83	N	-0.038196	-0.380205	0.216683
N84	N	0.461804	0.119795	0.716683
C85	C	-0.014749	-0.329676	0.187988
C86	C	0.485251	0.170324	0.687988
O87	O	-0.039020	-0.286704	0.163589
O88	O	0.460980	0.213296	0.663589
C89	C	0.172924	-0.329650	0.187971
C90	C	0.672924	0.170350	0.687971
C91	C	0.196395	-0.380176	0.216659
C92	C	0.696395	0.119824	0.716659
C93	C	0.196421	-0.481219	0.274039
C94	C	0.696421	0.018781	0.774039
C95	C	0.243337	-0.481216	0.274032
C96	C	0.743337	0.018784	0.774032
C97	C	0.266781	-0.430693	0.245339
C98	C	0.766781	0.069307	0.745339
C99	C	0.243310	-0.380172	0.216652
C100	C	0.743310	0.119828	0.716652
C101	C	0.196371	-0.279118	0.159279
C102	C	0.696371	0.220882	0.659279
C103	C	0.243292	-0.279115	0.159278
C104	C	0.743292	0.220885	0.659278
C105	C	0.266762	-0.329640	0.187966
C106	C	0.766762	0.170360	0.687966
C107	C	0.313670	-0.329646	0.187952
C108	C	0.813670	0.170354	0.687952
N109	N	0.337143	-0.380162	0.216642
N110	N	0.837143	0.119838	0.716642
C111	C	0.313699	-0.430686	0.245335
C112	C	0.813699	0.069314	0.745335
C113	C	-0.113279	-0.329694	0.187999
C114	C	0.386721	0.170306	0.687999
C115	C	-0.160197	-0.329701	0.188002
C116	C	0.339803	0.170299	0.688002
C117	C	-0.160168	-0.430746	0.245388
C118	C	0.339832	0.069254	0.745388
C119	C	-0.113250	-0.430742	0.245381
C120	C	0.386750	0.069258	0.745381
C121	C	-0.089806	-0.380210	0.216688
C122	C	0.410194	0.119790	0.716688
C123	C	0.412225	-0.430676	0.245318
C124	C	0.912225	0.069324	0.745318
C125	C	0.459144	-0.430671	0.245307
C126	C	0.959144	0.069329	0.745307
C127	C	0.459111	-0.329624	0.187924
C128	C	0.959111	0.170376	0.687924
C129	C	0.412196	-0.329632	0.187933
C130	C	0.912196	0.170368	0.687933
C131	C	0.388754	-0.380160	0.216633
C132	C	0.888754	0.119840	0.716633
O133	O	0.337960	-0.286719	0.163552
O134	O	0.837960	0.213281	0.663552
O135	O	0.337979	-0.473639	0.269737
O136	O	0.837979	0.026361	0.769737
C137	C	0.126035	-0.430702	0.245360
C138	C	0.626035	0.069298	0.745360
C139	C	0.102564	-0.380182	0.216673
C140	C	0.602564	0.119818	0.716673
C141	C	0.126008	-0.329658	0.187980
C142	C	0.626008	0.170342	0.687980
C143	C	0.055646	-0.380189	0.216677
C144	C	0.555646	0.119811	0.716677
C145	C	0.032201	-0.430712	0.245371
C146	C	0.532201	0.069288	0.745371
C147	C	0.055675	-0.481228	0.274060
C148	C	0.555675	0.018772	0.774060
C149	C	0.102590	-0.481225	0.274053
C150	C	0.602590	0.018775	0.774053
C151	C	0.102535	-0.279142	0.159290
C152	C	0.602535	0.220858	0.659290
C153	C	0.055619	-0.279150	0.159299
C154	C	0.555619	0.220850	0.659299
C155	C	0.032175	-0.329673	0.187992
C156	C	0.532175	0.170327	0.687992
C157	C	0.766424	-0.380210	0.216682
C158	C	1.266424	0.119790	0.716682
C159	C	0.816358	-0.380225	0.216696
C160	C	1.316358	0.119775	0.716696
C161	C	0.649258	-0.380169	0.333827
C162	C	1.149258	0.119831	0.833827
C163	C	0.649263	-0.380166	0.383762
C164	C	1.149263	0.119834	0.883762
C165	C	0.649274	-0.174436	0.216626
C166	C	1.149274	0.325564	0.716626
C167	C	0.649288	-0.085114	0.216617
C168	C	1.149288	0.414886	0.716617
C169	C	0.649259	-0.380126	0.099927
C170	C	1.149259	0.119874	0.599927
C171	C	0.649341	-0.379907	0.049992
C172	C	1.149341	0.120093	0.549992
C173	C	0.678035	-0.329592	0.693411
C174	C	1.178035	0.170408	1.193411
C175	C	0.678057	-0.329525	0.881084
C176	C	1.178057	0.170475	1.381084
O177	O	0.702486	-0.286600	0.905354
O178	O	1.202486	0.213400	1.405354
N179	N	0.649323	-0.379955	0.904547
N180	N	1.149323	0.120045	1.404547
C181	C	0.620579	-0.430401	0.881089
C182	C	1.120579	0.069599	1.381089
O183	O	0.596136	-0.473287	0.905352
O184	O	1.096136	0.026713	1.405352
C185	C	0.620554	-0.430464	0.693417
C186	C	1.120554	0.069536	1.193417
C187	C	0.649294	-0.380037	0.669956
C188	C	1.149294	0.119963	1.169956
C189	C	0.706771	-0.279168	0.669951
C190	C	1.206771	0.220832	1.169951
C191	C	0.706767	-0.279189	0.623035
C192	C	1.206767	0.220811	1.123035
C193	C	0.678026	-0.329633	0.599580
C194	C	1.178026	0.170367	1.099580
C195	C	0.649290	-0.380057	0.623041
C196	C	1.149290	0.119943	1.123041
C197	C	0.591809	-0.480906	0.669959
C198	C	1.091809	0.019094	1.169959
C199	C	0.591804	-0.480916	0.623038
C200	C	1.091804	0.019084	1.123038
C201	C	0.620544	-0.430488	0.599578
C202	C	1.120544	0.069512	1.099578
C203	C	0.620545	-0.430521	0.552670
C204	C	1.120545	0.069479	1.052670
N205	N	0.649279	-0.380092	0.529207
N206	N	1.149279	0.119908	1.029207
C207	C	0.678020	-0.329648	0.552662
C208	C	1.178020	0.170352	1.052662
C209	C	0.620594	-0.430366	0.979620
C210	C	1.120594	0.069634	1.479620
C211	C	0.620601	-0.430351	1.026537
C212	C	1.120601	0.069649	1.526537
C213	C	0.678078	-0.329474	1.026530
C214	C	1.178078	0.170526	1.526530
C215	C	0.678074	-0.329493	0.979611
C216	C	1.178074	0.170507	1.479611
C217	C	0.649328	-0.379936	0.956157
C218	C	1.149328	0.120064	1.456157
C219	C	0.678009	-0.329695	0.454136
C220	C	1.178009	0.170305	0.954136
C221	C	0.678004	-0.329722	0.407217
C222	C	1.178004	0.170278	0.907217
C223	C	0.620525	-0.430596	0.407229
C224	C	1.120525	0.069404	0.907229
C225	C	0.620531	-0.430572	0.454144
C226	C	1.120531	0.069428	0.954144
C227	C	0.649275	-0.380115	0.477597
C228	C	1.149275	0.119885	0.977597
O229	O	0.596125	-0.473418	0.528372
O230	O	1.096125	0.026582	1.028372
O231	O	0.702452	-0.286755	0.528391
O232	O	1.202452	0.213245	1.028391
C233	C	0.678039	-0.329572	0.740327
C234	C	1.178039	0.170428	1.240327
C235	C	0.649302	-0.379996	0.763787
C236	C	1.149302	0.120004	1.263787
C237	C	0.620561	-0.430440	0.740332
C238	C	1.120561	0.069560	1.240332
C239	C	0.649309	-0.379981	0.810705
C240	C	1.149309	0.120019	1.310705
C241	C	0.678049	-0.329537	0.834160
C242	C	1.178049	0.170463	1.334160
C243	C	0.706784	-0.279107	0.810697
C244	C	1.206784	0.220893	1.310697
C245	C	0.706779	-0.279128	0.763782
C246	C	1.206779	0.220872	1.263782
C247	C	0.591827	-0.480870	0.763795
C248	C	1.091827	0.019130	1.263795
C249	C	0.591834	-0.480846	0.810711
C250	C	1.091834	0.019154	1.310711
C251	C	0.620575	-0.430402	0.834166
C252	C	1.120575	0.069598	1.334166
C253	C	0.765982	-0.879289	0.216658
C254	C	1.265982	-0.379289	0.716658
C255	C	0.815917	-0.879274	0.216681
C256	C	1.315917	-0.379274	0.716681
C257	C	0.649237	-0.879293	0.099457
C258	C	1.149237	-0.379293	0.599457
C259	C	0.649227	-0.879257	0.049523
C260	C	1.149227	-0.379257	0.549523
C261	C	0.532081	-0.879465	0.216614
C262	C	1.032081	-0.379465	0.716614
C263	C	0.482147	-0.879504	0.216605
C264	C	0.982147	-0.379504	0.716605
C265	C	0.649251	-0.879503	0.333358
C266	C	1.149251	-0.379503	0.833358
C267	C	0.649135	-0.879690	0.383292
C268	C	1.149135	-0.379690	0.883292
C269	C	0.839369	-0.929780	0.245392
C270	C	1.339369	-0.429780	0.745392
C271	C	0.886287	-0.929782	0.245413
C272	C	1.386287	-0.429782	0.745413
C273	C	0.909753	-0.879274	0.216726
C274	C	1.409753	-0.379274	0.716726
C275	C	0.886298	-0.828766	0.188012
C276	C	1.386298	-0.328766	0.688012
C277	C	0.839380	-0.828769	0.187989
C278	C	1.339380	-0.328769	0.687989
C279	C	0.620497	-0.929708	0.026058
C280	C	1.120497	-0.429708	0.526058
C281	C	0.620479	-0.929675	-0.020861
C282	C	1.120479	-0.429675	0.479139
C283	C	0.649193	-0.879194	-0.044314
C284	C	1.149193	-0.379194	0.455686
C285	C	0.677923	-0.828738	-0.020846
C286	C	1.177923	-0.328738	0.479154
C287	C	0.677939	-0.828768	0.026072
C288	C	1.177939	-0.328768	0.526072
C289	C	0.458691	-0.829091	0.245338
C290	C	0.958691	-0.329091	0.745338
C291	C	0.411772	-0.829111	0.245330
C292	C	0.911772	-0.329111	0.745330
C293	C	0.388311	-0.879549	0.216589
C294	C	0.888311	-0.379549	0.716589
C295	C	0.411770	-0.929964	0.187852
C296	C	0.911770	-0.429964	0.687852
C297	C	0.458688	-0.929939	0.187859
C298	C	0.958688	-0.429939	0.687859
C299	C	0.620547	-0.828988	0.406724
C300	C	1.120547	-0.328988	0.906724
C301	C	0.620430	-0.829163	0.453643
C302	C	1.120430	-0.329163	0.953643
C303	C	0.648904	-0.880035	0.477128
C304	C	1.148904	-0.380035	0.977128
C305	C	0.677494	-0.930741	0.453693
C306	C	1.177494	-0.430741	0.953693
C307	C	0.677608	-0.930570	0.406775
C308	C	1.177608	-0.430570	0.906775
H309	H	0.478252	-0.471817	0.268669
H310	H	0.978252	0.028183	0.768669
H311	H	0.905411	-0.787644	0.164656
H312	H	1.405411	-0.287644	0.664656
C313	C	0.484490	-0.773602	0.276953
C314	C	0.984490	-0.273602	0.776953
H315	H	0.463796	-0.743579	0.294059
H316	H	0.963796	-0.243579	0.794059
H317	H	0.502802	-0.803770	0.296529
H318	H	1.002802	-0.303770	0.796529
H319	H	0.502783	-0.739208	0.259772
H320	H	1.002783	-0.239208	0.759772
C321	C	0.385974	-0.773661	0.276944
C322	C	0.885974	-0.273661	0.776944
H323	H	0.354670	-0.780888	0.272824
H324	H	0.854670	-0.280888	0.772824
H325	H	0.393673	-0.785230	0.307127
H326	H	0.893673	-0.285230	0.807127
H327	H	0.393658	-0.720651	0.270379
H328	H	0.893658	-0.220651	0.770379
H329	H	0.597361	-0.787558	0.387609
H330	H	1.097361	-0.287558	0.887609
H331	H	0.730169	-0.238124	0.603938
H332	H	1.230169	0.261876	1.103938
C333	C	0.336702	-0.879576	0.216590
C334	C	0.836702	-0.379576	0.716590
H335	H	0.326096	-0.842332	0.237824
H336	H	0.826096	-0.342332	0.737824
H337	H	0.326072	-0.865924	0.187602
H338	H	0.826072	-0.365924	0.687602
H339	H	0.326099	-0.930493	0.224356
H340	H	0.826099	-0.430493	0.724356
H341	H	0.477782	-0.970995	0.164462
H342	H	0.977782	-0.470995	0.664462
H343	H	0.177338	-0.522362	0.297407
H344	H	0.677338	-0.022362	0.797407
H345	H	0.568423	-0.521949	0.744703
H346	H	1.068423	-0.021949	1.244703
H347	H	0.036578	-0.522369	0.297422
H348	H	0.536578	-0.022369	0.797422
H349	H	0.597149	-0.787868	0.472717
H350	H	1.097149	-0.287868	0.972717
C351	C	0.588922	-0.486045	0.479952
C352	C	1.088922	0.013955	0.979952
H353	H	0.571804	-0.516089	0.459261
H354	H	1.071804	-0.016089	0.959261
H355	H	0.606101	-0.520410	0.498270
H356	H	1.106101	-0.020410	0.998270
H357	H	0.569351	-0.455851	0.498239
H358	H	1.069351	0.044149	0.998239
H359	H	0.121619	-0.237999	0.135924
H360	H	0.621619	0.262001	0.635924
H361	H	0.649176	-0.879179	-0.082517
H362	H	1.149176	-0.379179	0.417483
C363	C	0.588882	-0.985191	-0.046667
C364	C	1.088882	-0.485191	0.453333
H365	H	0.571792	-1.015269	-0.025977
H366	H	1.071792	-0.515269	0.474023
H367	H	0.569290	-0.955036	-0.064969
H368	H	1.069290	-0.455036	0.435031
H369	H	0.606075	-1.019534	-0.064970
H370	H	1.106075	-0.519534	0.435030
C371	C	0.813586	-0.773196	0.156414
C372	C	1.313586	-0.273196	0.656414
H373	H	0.782282	-0.780425	0.160505
H374	H	1.282282	-0.280425	0.660505
H375	H	0.821283	-0.720217	0.163032
H376	H	1.321283	-0.220217	0.663032
H377	H	0.821277	-0.784670	0.126223
H378	H	1.321277	-0.284670	0.626223
C379	C	0.588908	-0.985236	0.051848
C380	C	1.088908	-0.485236	0.551848
H381	H	0.571794	-1.015266	0.031148
H382	H	1.071794	-0.515266	0.531148
H383	H	0.606099	-1.019610	0.070149
H384	H	1.106099	-0.519610	0.570149
H385	H	0.569331	-0.955081	0.070151
H386	H	1.069331	-0.455081	0.570151
C387	C	0.709506	-0.773214	-0.046646
C388	C	1.209506	-0.273214	0.453354
H389	H	0.726619	-0.743162	-0.025955
H390	H	1.226619	-0.243162	0.474045
H391	H	0.729077	-0.803366	-0.064952
H392	H	1.229077	-0.303366	0.435048
H393	H	0.692304	-0.738847	-0.064946
H394	H	1.192304	-0.238847	0.435054
H395	H	0.701409	-0.288657	0.388117
H396	H	1.201409	0.211343	0.888117
C397	C	0.385958	-0.985446	0.156244
C398	C	0.885958	-0.485446	0.656244
H399	H	0.354657	-0.978241	0.160363
H400	H	0.854657	-0.478241	0.660363
H401	H	0.393633	-0.973887	0.126060
H402	H	0.893633	-0.473887	0.626060
H403	H	0.393654	-1.038446	0.162819
H404	H	0.893654	-0.538446	0.662819
C405	C	0.386445	-0.486232	0.276902
C406	C	0.886445	0.013768	0.776902
H407	H	0.407148	-0.516312	0.293985
H408	H	0.907148	-0.016312	0.793985
H409	H	0.368161	-0.456093	0.296500
H410	H	0.868161	0.043907	0.796500
H411	H	0.368126	-0.520571	0.259705
H412	H	0.868126	-0.020571	0.759705
H413	H	0.648807	-0.880165	0.515331
H414	H	1.148807	-0.380165	1.015331
C415	C	0.709550	-0.773285	0.051881
C416	C	1.209550	-0.273285	0.551881
H417	H	0.705451	-0.780526	0.083183
H418	H	1.205451	-0.280526	0.583183
H419	H	0.739732	-0.784814	0.044185
H420	H	1.239732	-0.284814	0.544185
H421	H	0.702966	-0.720282	0.044199
H422	H	1.202966	-0.220282	0.544199
C423	C	0.708816	-0.986689	0.479531
C424	C	1.208816	-0.486689	0.979531
H425	H	0.704654	-0.979516	0.510828
H426	H	1.204654	-0.479516	1.010828
H427	H	0.702057	-1.039584	0.471770
H428	H	1.202057	-0.539584	0.971770
H429	H	0.739065	-0.975467	0.471940
H430	H	1.239065	-0.475467	0.971940
C431	C	0.738392	-0.223679	0.695744
C432	C	1.238392	0.276321	1.195744
H433	H	0.755505	-0.193660	0.675046
H434	H	1.255505	0.306340	1.175046
H435	H	0.721221	-0.189293	0.714038
H436	H	1.221221	0.310707	1.214038
H437	H	0.757967	-0.253859	0.714054
H438	H	1.257967	0.246141	1.214054
C439	C	0.738399	-0.223619	0.836501
C440	C	1.238399	0.276381	1.336501
H441	H	0.755517	-0.193588	0.815813
H442	H	1.255517	0.306412	1.315813
H443	H	0.721218	-0.189243	0.854793
H444	H	1.221218	0.310757	1.354793
H445	H	0.757970	-0.253799	0.854816
H446	H	1.257970	0.246201	1.354816
H447	H	0.730182	-0.238064	0.744684
H448	H	1.230182	0.261936	1.244684
C449	C	0.709062	-0.986336	0.381004
C450	C	1.209062	-0.486336	0.881004
H451	H	0.726005	-1.016648	0.401714
H452	H	1.226005	-0.516648	0.901714
H453	H	0.691793	-1.020437	0.362613
H454	H	1.191793	-0.520437	0.862613
H455	H	0.728802	-0.956323	0.362794
H456	H	1.228802	-0.456323	0.862794
H457	H	0.262442	-0.522357	0.297394
H458	H	0.762442	-0.022357	0.797394
H459	H	-0.179265	-0.471884	0.268751
H460	H	0.320735	0.028116	0.768751
C461	C	-0.087436	-0.486312	0.276942
C462	C	0.412564	0.013688	0.776942
H463	H	-0.108122	-0.516397	0.294031
H464	H	0.391878	-0.016397	0.794031
H465	H	-0.069139	-0.520634	0.259732
H466	H	0.430861	-0.020634	0.759732
H467	H	-0.069126	-0.456183	0.296542
H468	H	0.430874	0.043817	0.796542
C469	C	0.709682	-0.274015	0.953808
C470	C	1.209682	0.225985	1.453808
H471	H	0.726796	-0.243969	0.974501
H472	H	1.226796	0.256031	1.474501
H473	H	0.729250	-0.304192	0.935514
H474	H	1.229250	0.195808	1.435514
H475	H	0.692495	-0.239641	0.935498
H476	H	1.192495	0.260359	1.435498
C477	C	-0.186010	-0.274129	0.156442
C478	C	0.313990	0.225871	0.656442
H479	H	-0.165324	-0.244035	0.139358
H480	H	0.334676	0.255965	0.639358
H481	H	-0.204324	-0.304247	0.136844
H482	H	0.295676	0.195753	0.636844
H483	H	-0.204302	-0.239804	0.173659
H484	H	0.295698	0.260196	0.673659
C485	C	0.029806	-0.223567	0.127740
C486	C	0.529806	0.276433	0.627740
H487	H	0.050493	-0.193474	0.110655
H488	H	0.550493	0.306526	0.610655
H489	H	0.011490	-0.253679	0.108142
H490	H	0.511490	0.246321	0.608142
H491	H	0.011517	-0.189241	0.144960
H492	H	0.511517	0.310759	0.644960
H493	H	-0.094196	-0.288545	0.164631
H494	H	0.405804	0.211455	0.664631
H495	H	0.177269	-0.237977	0.135916
H496	H	0.677269	0.262023	0.635916
H497	H	0.262377	-0.237960	0.135914
H498	H	0.762377	0.262040	0.635914
H499	H	0.393085	-0.288492	0.164571
H500	H	0.893085	0.211508	0.664571
H501	H	0.478208	-0.288492	0.164561
H502	H	0.978208	0.211508	0.664561
H503	H	0.121696	-0.522368	0.297415
H504	H	0.621696	-0.022368	0.797415
C505	C	0.560222	-0.536324	0.836514
C506	C	1.060222	-0.036324	1.336514
H507	H	0.564340	-0.529097	0.867817
H508	H	1.064340	-0.029097	1.367817
H509	H	0.530039	-0.524774	0.828811
H510	H	1.030039	-0.024774	1.328811
H511	H	0.566792	-0.589329	0.828837
H512	H	1.066792	-0.089329	1.328837
C513	C	0.709630	-0.274199	0.479928
C514	C	1.209630	0.225801	0.979928
H515	H	0.726745	-0.244181	0.459231
H516	H	1.226745	0.255819	0.959231
H517	H	0.692458	-0.239812	0.498220
H518	H	1.192458	0.260188	0.998220
H519	H	0.729204	-0.304378	0.498240
H520	H	1.229204	0.195622	0.998240
H521	H	0.701480	-0.288401	1.045634
H522	H	1.201480	0.211599	1.545634
C523	C	0.961362	-0.879270	0.216761
C524	C	1.461362	-0.379270	0.716761
H525	H	0.971965	-0.916579	0.237974
H526	H	1.471965	-0.416579	0.737974
H527	H	0.971987	-0.892845	0.187770
H528	H	1.471987	-0.392845	0.687770
H529	H	0.971973	-0.828380	0.224572
H530	H	1.471973	-0.328380	0.724572
H531	H	0.597203	-0.471423	1.045635
H532	H	1.097203	0.028577	1.545635
H533	H	0.597186	-0.471448	0.960528
H534	H	1.097186	0.028552	1.460528
H535	H	0.568406	-0.521969	0.689053
H536	H	1.068406	-0.021969	1.189053
C537	C	0.560195	-0.536424	0.597241
C538	C	1.060195	-0.036424	1.097241
H539	H	0.543087	-0.566460	0.617936
H540	H	1.043087	-0.066460	1.117936
H541	H	0.540620	-0.506270	0.578921
H542	H	1.040620	-0.006270	1.078921
H543	H	0.577384	-0.570806	0.578958
H544	H	1.077384	-0.070806	1.078958
C545	C	0.588925	-0.486106	0.381425
C546	C	1.088925	0.013894	0.881425
H547	H	0.571816	-0.516150	0.402114
H548	H	1.071816	-0.016150	0.902114
H549	H	0.569352	-0.455952	0.363102
H550	H	1.069352	0.044048	0.863102
H551	H	0.606120	-0.520481	0.363142
H552	H	1.106120	-0.020481	0.863142
C553	C	0.813565	-0.985309	0.276970
C554	C	1.313565	-0.485309	0.776970
H555	H	0.834257	-1.015379	0.294073
H556	H	1.334257	-0.515379	0.794073
H557	H	0.795271	-0.955152	0.296550
H558	H	1.295271	-0.455152	0.796550
H559	H	0.795253	-1.019658	0.259771
H560	H	1.295253	-0.519658	0.759771
H561	H	0.905378	-0.970911	0.268798
H562	H	1.405378	-0.470911	0.768798
