data_functionalizedCrystal
_audit_creation_method	'MofGen! by Chris Wilmer'
_symmetry_space_group_name_H-M	'P1'
_symmetry_Int_Tables_number	1
_symmetry_cell_setting	triclinic
loop_
_symmetry_equiv_pos_as_xyz
  x,y,z
_cell_length_a	14.519709
_cell_length_b	11.792241
_cell_length_c	12.996460
_cell_angle_alpha	89.995297
_cell_angle_beta	89.992910
_cell_angle_gamma	83.936780
loop_
_atom_site_label
_atom_site_type_symbol
_atom_site_fract_x
_atom_site_fract_y
_atom_site_fract_z
O1	O	0.126406	1.506210	-0.085549
O2	O	0.459739	1.839543	0.247784
O3	O	0.793072	2.172876	0.581118
O4	O	0.139433	1.175796	-0.085556
O5	O	0.472766	1.509130	0.247778
O6	O	0.806100	1.842463	0.581111
O7	O	-0.001287	1.349763	-0.085543
O8	O	0.332046	1.683097	0.247791
O9	O	0.665380	2.016430	0.581124
O10	O	0.267126	1.332242	-0.085562
O11	O	0.600459	1.665576	0.247772
O12	O	0.933792	1.998909	0.581105
O13	O	-0.001295	1.349745	0.085591
O14	O	0.332038	1.683079	0.418924
O15	O	0.665372	2.016412	0.752258
O16	O	0.139425	1.175778	0.085578
O17	O	0.472758	1.509111	0.418912
O18	O	0.806092	1.842445	0.752245
O19	O	0.126398	1.506191	0.085585
O20	O	0.459731	1.839525	0.418918
O21	O	0.793064	2.172858	0.752252
Cu22	Cu	0.132911	1.340983	0.101207
Cu23	Cu	0.466244	1.674316	0.434541
Cu24	Cu	0.799577	2.007650	0.767874
Cu25	Cu	0.132920	1.341005	-0.101178
Cu26	Cu	0.466253	1.674338	0.232155
Cu27	Cu	0.799587	2.007671	0.565489
O28	O	0.267118	1.332224	0.085572
O29	O	0.600451	1.665558	0.418905
O30	O	0.933784	1.998891	0.752239
C31	C	-0.035654	1.348938	0.000024
C32	C	0.297679	1.682271	0.333358
C33	C	0.631013	2.015604	0.666691
C34	C	-0.138044	1.346491	0.000025
C35	C	0.195289	1.679824	0.333358
C36	C	0.528623	2.013158	0.666691
C37	C	0.138611	1.133501	0.000010
C38	C	0.471944	1.466834	0.333344
C39	C	0.805277	1.800167	0.666677
C40	C	0.136161	1.007501	0.000008
C41	C	0.469495	1.340834	0.333342
C42	C	0.802828	1.674167	0.666675
C43	C	0.127220	1.548487	0.000017
C44	C	0.460553	1.881820	0.333350
C45	C	0.793887	2.215154	0.666683
C46	C	0.129669	1.674487	0.000012
C47	C	0.463003	2.007820	0.333345
C48	C	0.796336	2.341154	0.666679
C49	C	-0.512973	1.337483	-0.000002
C50	C	-0.179640	1.670816	0.333331
C51	C	0.153694	2.004149	0.666665
C52	C	-0.408656	1.339984	0.000006
C53	C	-0.075322	1.673318	0.333339
C54	C	0.258011	2.006651	0.666672
C55	C	-0.325512	1.341987	0.000012
C56	C	0.007822	1.675320	0.333346
C57	C	0.341155	2.008653	0.666679
C58	C	-0.221188	1.344489	0.000018
C59	C	0.112145	1.677822	0.333352
C60	C	0.445479	2.011155	0.666685
C61	C	0.301484	1.333050	0.000003
C62	C	0.634818	1.666383	0.333336
C63	C	0.968151	1.999717	0.666669
C64	C	0.403875	1.335497	-0.000004
C65	C	0.737208	1.668830	0.333329
C66	C	1.070541	2.002164	0.666662
N67	N	0.132903	1.340976	0.243555
N68	N	0.466237	1.674310	0.576888
N69	N	0.799570	2.007643	0.910221
C70	C	0.134173	1.905174	0.000012
C71	C	0.467506	2.238508	0.333346
C72	C	0.800840	2.571841	0.666679
C73	C	0.131671	1.776803	0.000012
C74	C	0.465004	2.110136	0.333346
C75	C	0.798337	2.443470	0.666679
N76	N	0.132920	1.341020	-0.243525
N77	N	0.466253	1.674354	0.089808
N78	N	0.799586	2.007687	0.423141
C79	C	0.132921	1.341003	0.663369
C80	C	0.466254	1.674336	0.996702
C81	C	0.799588	2.007670	1.330036
C82	C	0.132919	1.340992	0.546564
C83	C	0.466252	1.674326	0.879897
C84	C	0.799586	2.007659	1.213230
C85	C	0.132913	1.340990	0.453465
C86	C	0.466246	1.674324	0.786799
C87	C	0.799580	2.007657	1.120132
C88	C	0.132910	1.340978	0.336653
C89	C	0.466243	1.674312	0.669986
C90	C	0.799576	2.007645	1.003320
