data_functionalizedCrystal
_audit_creation_method	'MofGen! by Chris Wilmer'
_symmetry_space_group_name_H-M	'P1'
_symmetry_Int_Tables_number	1
_symmetry_cell_setting	triclinic
loop_
_symmetry_equiv_pos_as_xyz
  x,y,z
_cell_length_a	10.723024
_cell_length_b	10.654550
_cell_length_c	9.130313
_cell_angle_alpha	90.003780
_cell_angle_beta	89.999893
_cell_angle_gamma	95.523614
loop_
_atom_site_label
_atom_site_type_symbol
_atom_site_fract_x
_atom_site_fract_y
_atom_site_fract_z
O1	O	0.175269	-1.667808	-0.121916
O2	O	0.191968	-1.302327	-0.121892
O3	O	0.002044	-1.493498	-0.121899
O4	O	0.365194	-1.476637	-0.121909
O5	O	0.002049	-1.493495	0.121700
O6	O	0.191973	-1.302324	0.121707
O7	O	0.175274	-1.667805	0.121683
Cu8	Cu	0.183624	-1.485065	0.143937
Cu9	Cu	0.183618	-1.485067	-0.144146
O10	O	0.365199	-1.476634	0.121690
C11	C	0.190745	-1.255528	-0.000089
C12	C	0.187076	-1.116085	-0.000080
C13	C	-0.044454	-1.492269	-0.000101
C14	C	-0.183008	-1.488598	-0.000106
C15	C	0.176498	-1.714604	-0.000123
C16	C	0.180166	-1.854047	-0.000141
C17	C	-0.257975	-1.595568	-0.000115
C18	C	-0.401179	-1.591776	-0.000120
C19	C	0.411696	-1.477863	-0.000111
C20	C	0.550251	-1.481534	-0.000116
N21	N	0.183628	-1.485072	0.346560
C22	C	0.298901	-1.036583	-0.000105
C23	C	0.295446	-0.905562	-0.000130
C24	C	0.068333	-0.933560	-0.000113
C25	C	0.071789	-1.064578	-0.000077
C26	C	0.430023	-1.020417	-0.000121
C27	C	0.426568	-0.889397	-0.000146
N28	N	0.183605	-1.485070	-0.346769
C29	C	0.099558	-1.569744	0.423209
C30	C	0.099543	-1.569741	0.576546
C31	C	0.267679	-1.400389	0.576571
C32	C	0.267687	-1.400387	0.423237
C33	C	0.002490	-1.667522	0.423195
C34	C	0.002475	-1.667519	0.576532
H35	H	-0.216139	-1.689955	-0.000112
O36	O	-0.048826	-1.150323	-0.000028
H37	H	-0.027059	-1.250083	0.000013
O38	O	0.479053	-0.828878	0.139155
H39	H	0.560336	-0.760215	0.112366
H40	H	-0.385338	-1.389955	-0.000098
H41	H	0.475971	-0.847658	-0.102101
O42	O	-0.238412	-1.363564	-0.000085
H43	H	-0.297083	-1.356602	-0.099366
O44	O	-0.056010	-0.878007	-0.000115
H45	H	-0.039629	-0.773545	-0.000149
O46	O	0.497842	-1.059291	0.134988
H47	H	0.528306	-0.974417	0.201108
H48	H	-0.465598	-1.683350	-0.000121
H49	H	-0.093428	-1.646094	0.381580
H50	H	0.471772	-1.056067	-0.105294
H51	H	0.336132	-1.331429	0.360831
H52	H	0.336116	-1.331440	0.639019
H53	H	-0.088166	-1.637019	0.624084
H54	H	0.032883	-1.758701	0.375630
H55	H	0.023856	-1.764027	0.618142
