data_functionalizedCrystal
_audit_creation_method	'MofGen! by Chris Wilmer'
_symmetry_space_group_name_H-M	'P1'
_symmetry_Int_Tables_number	1
_symmetry_cell_setting	triclinic
loop_
_symmetry_equiv_pos_as_xyz
  x,y,z
_cell_length_a	13.339070
_cell_length_b	14.519731
_cell_length_c	11.804365
_cell_angle_alpha	101.852944
_cell_angle_beta	74.875130
_cell_angle_gamma	99.659074
loop_
_atom_site_label
_atom_site_type_symbol
_atom_site_fract_x
_atom_site_fract_y
_atom_site_fract_z
O1	O	1.363581	0.449152	-0.099081
O2	O	1.068938	0.388440	-0.099072
O3	O	1.224058	0.286545	-0.099066
O4	O	1.208461	0.551047	-0.099087
O5	O	1.183221	0.313332	0.098988
O6	O	1.028100	0.415228	0.098982
O7	O	1.322744	0.475940	0.098974
Cu8	Cu	1.171693	0.448030	0.117062
Cu9	Cu	1.219988	0.416350	-0.117160
O10	O	1.167623	0.577835	0.098967
C11	C	1.010810	0.391578	-0.000044
C12	C	0.898450	0.361009	-0.000040
C13	C	0.534114	0.598698	-0.000078
C14	C	0.639683	0.627422	-0.000085
C15	C	0.704380	0.560821	-0.000074
C16	C	0.663498	0.465492	-0.000056
C17	C	0.557921	0.436764	-0.000058
C18	C	0.728186	0.398887	-0.000053
C19	C	0.687304	0.303557	-0.000035
C20	C	0.581737	0.274834	-0.000037
C21	C	0.517040	0.341435	-0.000049
C22	C	0.833763	0.427615	-0.000051
C23	C	0.857569	0.265680	-0.000031
C24	C	0.752001	0.236957	-0.000024
C25	C	1.202908	0.265393	-0.000039
C26	C	1.200717	0.162456	-0.000038
C27	C	1.198938	0.078858	-0.000040
C28	C	1.196716	-0.026017	-0.000049
C29	C	1.194952	-0.109606	-0.000057
C30	C	1.192730	-0.214488	-0.000064
C31	C	1.380872	0.472801	-0.000057
C32	C	1.493234	0.503369	-0.000069
C33	C	1.188774	0.598986	-0.000063
C34	C	1.190966	0.701923	-0.000072
N35	N	1.137733	0.470312	0.281801
N36	N	1.253957	0.394062	-0.281900
C37	C	1.335509	0.340535	0.655758
C38	C	1.361199	0.323674	0.531097
C39	C	1.305334	0.360332	0.468767
C40	C	1.223776	0.413854	0.531110
C41	C	1.198088	0.430723	0.655782
C42	C	1.167914	0.450520	0.468792
C43	C	1.086355	0.504043	0.531134
C44	C	1.060672	0.520909	0.655795
C45	C	1.116536	0.484251	0.718125
C46	C	1.193601	0.433651	0.344119
C47	C	1.056181	0.523840	0.344144
C48	C	1.030491	0.540701	0.468804
H49	H	0.790338	0.584213	-0.000082
Cl50	Cl	0.927963	0.607986	0.547190
Cl51	Cl	0.958153	0.588207	0.734170
Cl52	Cl	0.938897	0.181947	-0.000026
Cl53	Cl	0.885144	0.547453	-0.000072
Cl54	Cl	0.691071	0.747258	-0.000113
Cl55	Cl	0.985951	0.569931	0.265793
H56	H	0.481432	0.652912	-0.000098
H57	H	0.718701	0.159336	-0.000019
H58	H	1.260006	0.390073	0.293370
H59	H	0.548458	0.197209	-0.000036
Cl60	Cl	1.337628	0.339131	0.312048
Cl61	Cl	0.384318	0.305329	-0.000037
Cl62	Cl	1.463723	0.256393	0.452726
H63	H	1.380992	0.310699	0.706515
Cl64	Cl	1.084235	0.505444	0.874848
