data_functionalizedCrystal
_audit_creation_method	'MofGen! by Chris Wilmer'
_symmetry_space_group_name_H-M	'P1'
_symmetry_Int_Tables_number	1
_symmetry_cell_setting	triclinic
loop_
_symmetry_equiv_pos_as_xyz
  x,y,z
_cell_length_a	15.944551
_cell_length_b	15.944551
_cell_length_c	15.021413
_cell_angle_alpha	89.996935
_cell_angle_beta	89.997174
_cell_angle_gamma	96.501262
loop_
_atom_site_label
_atom_site_type_symbol
_atom_site_fract_x
_atom_site_fract_y
_atom_site_fract_z
O1	O	1.114529	-0.108321	-0.073941
O2	O	0.869979	-0.121677	-0.073964
O3	O	0.998932	0.007276	-0.073944
O4	O	0.985576	-0.237274	-0.073961
O5	O	0.998912	0.007257	0.074121
O6	O	0.869959	-0.121695	0.074101
O7	O	1.114508	-0.108339	0.074123
Zn8	Zn	0.992230	-0.115020	0.097620
Zn9	Zn	0.992257	-0.114996	-0.097461
O10	O	0.985555	-0.237292	0.074103
C11	C	0.838675	-0.121132	0.000066
C12	C	0.745429	-0.119470	0.000057
C13	C	0.530572	-0.035565	0.000081
C14	C	0.469562	-0.074518	-0.072926
C15	C	0.574703	-0.116462	0.000068
C16	C	0.469564	-0.074556	0.073054
C17	C	0.409790	-0.113551	0.000083
C18	C	0.514921	-0.155438	-0.072998
C19	C	0.514930	-0.155464	0.073047
C20	C	0.453937	-0.194476	0.000023
C21	C	0.669705	-0.118137	0.000059
C22	C	0.314789	-0.111883	0.000085
C23	C	0.998367	0.038561	0.000089
C24	C	0.996705	0.131807	0.000089
C25	C	1.145813	-0.108885	0.000092
C26	C	1.239059	-0.110547	0.000094
C27	C	0.986120	-0.268577	0.000069
C28	C	0.987782	-0.361823	0.000063
N29	N	0.992218	-0.115036	0.230758
C30	C	0.912801	0.346663	0.000069
C31	C	0.951753	0.407672	0.073077
C32	C	0.993698	0.302533	0.000082
C33	C	0.951792	0.407673	-0.072903
C34	C	0.990787	0.467445	0.000071
C35	C	1.032672	0.362313	0.073150
C36	C	1.032700	0.362308	-0.072895
C37	C	1.071711	0.423298	0.000131
C38	C	0.995372	0.207530	0.000089
C39	C	0.989119	0.562446	0.000070
N40	N	0.992276	-0.114973	-0.230598
C41	C	0.932581	-0.174636	0.470432
C42	C	1.008481	-0.190943	0.529772
C43	C	0.992239	-0.115015	0.412365
C44	C	0.916360	-0.098727	0.529766
C45	C	0.992253	-0.114997	0.587789
C46	C	1.068178	-0.131360	0.470398
C47	C	0.976006	-0.039111	0.470387
C48	C	1.051962	-0.055386	0.529701
C49	C	0.992230	-0.115028	0.311307
C50	C	0.992271	-0.114984	0.688844
H51	H	0.535052	-0.189659	0.134767
C52	C	1.120195	0.012740	0.564650
C53	C	1.095027	0.085077	0.623262
C54	C	1.163262	0.153197	0.658215
C55	C	1.256665	0.148981	0.634555
C56	C	1.281838	0.076641	0.575939
C57	C	1.213603	0.008521	0.540986
H58	H	1.025880	0.088201	0.640779
H59	H	1.144627	0.206748	0.701606
H60	H	1.307177	0.199408	0.660428
H61	H	1.350984	0.073517	0.558422
H62	H	1.232238	-0.045030	0.497595
H63	H	0.882181	-0.225096	0.444409
C64	C	1.078897	0.335115	-0.156272
C65	C	1.171435	0.370495	-0.173200
C66	C	1.217624	0.343299	-0.256586
C67	C	1.171274	0.280724	-0.323043
C68	C	1.078731	0.245341	-0.306116
C69	C	1.032542	0.272536	-0.222731
H70	H	1.205750	0.416820	-0.124003
H71	H	1.286130	0.369493	-0.269115
H72	H	1.205466	0.260592	-0.384769
H73	H	1.044416	0.199015	-0.355313
H74	H	0.964035	0.246342	-0.210201
C75	C	0.442416	-0.028330	0.156436
C76	C	0.461417	-0.061357	0.249784
C77	C	0.434273	-0.015125	0.333161
C78	C	0.388127	0.064134	0.323190
C79	C	0.369123	0.097164	0.229838
C80	C	0.396268	0.050932	0.146461
H81	H	0.495580	-0.120032	0.257169
H82	H	0.448341	-0.039577	0.402266
H83	H	0.368033	0.098357	0.384910
H84	H	0.334961	0.155840	0.222453
H85	H	0.382200	0.075384	0.077356
H86	H	1.022224	-0.255126	0.555856
C87	C	0.905567	0.434822	-0.156285
C88	C	0.812563	0.400612	-0.172310
C89	C	0.766331	0.427756	-0.255687
C90	C	0.813104	0.489110	-0.323040
C91	C	0.906114	0.523324	-0.307017
C92	C	0.952345	0.496179	-0.223640
H93	H	0.777934	0.355191	-0.122450
H94	H	0.697479	0.402429	-0.267548
H95	H	0.778881	0.509204	-0.384761
H96	H	0.940743	0.568745	-0.356877
H97	H	1.021198	0.521507	-0.211779
C98	C	0.541928	-0.201606	-0.156480
C99	C	0.635740	-0.211670	-0.171935
C100	C	0.662749	-0.257831	-0.255418
C101	C	0.595946	-0.293929	-0.323445
C102	C	0.502127	-0.283866	-0.307992
C103	C	0.475118	-0.237704	-0.224510
H104	H	0.685198	-0.184947	-0.121575
H105	H	0.732201	-0.265280	-0.266857
H106	H	0.615939	-0.328100	-0.385244
H107	H	0.452670	-0.310588	-0.358352
H108	H	0.405667	-0.230255	-0.213071
H109	H	0.845652	0.313356	0.000136
C110	C	0.905522	0.434836	0.156450
C111	C	0.812512	0.400640	0.172479
C112	C	0.766274	0.427801	0.255847
C113	C	0.813047	0.489158	0.323186
C114	C	0.906062	0.523357	0.307159
C115	C	0.952299	0.496196	0.223790
H116	H	0.777883	0.355217	0.122629
H117	H	0.697418	0.402484	0.267711
H118	H	0.778819	0.509264	0.384900
H119	H	0.940690	0.568780	0.357008
H120	H	1.021155	0.521513	0.211926
C121	C	1.154895	-0.150073	0.435326
C122	C	1.225603	-0.165284	0.501212
C123	C	1.312316	-0.184002	0.466137
C124	C	1.328319	-0.187509	0.365178
C125	C	1.257609	-0.172297	0.299286
C126	C	1.170896	-0.153579	0.334360
H127	H	1.213758	-0.162689	0.575954
H128	H	1.364660	-0.195263	0.514915
H129	H	1.392509	-0.201365	0.339214
H130	H	1.269454	-0.174893	0.224544
H131	H	1.118552	-0.142319	0.285582
H132	H	0.962240	0.025051	0.444283
H133	H	0.852184	-0.084959	0.555847
C134	C	1.078843	0.335304	0.156630
C135	C	1.088909	0.241492	0.172081
C136	C	1.135075	0.214481	0.255561
C137	C	1.171175	0.281284	0.323589
C138	C	1.161109	0.375103	0.308139
C139	C	1.114943	0.402113	0.224660
H140	H	1.062185	0.192035	0.121721
H141	H	1.142526	0.145030	0.266997
H142	H	1.205350	0.261289	0.385385
H143	H	1.187833	0.424559	0.358499
H144	H	1.107493	0.471564	0.213223
H145	H	1.138919	0.456457	0.000178
C146	C	0.575576	0.055144	-0.000006
C147	C	0.561340	0.115335	-0.077343
C148	C	0.606345	0.206041	-0.077435
C149	C	0.665586	0.236556	-0.000190
C150	C	0.679825	0.176363	0.077152
C151	C	0.634820	0.085657	0.077244
H152	H	0.517484	0.092747	-0.134530
H153	H	0.595805	0.250599	-0.134689
H154	H	0.698902	0.303702	-0.000258
H155	H	0.723681	0.198951	0.134339
H156	H	0.645360	0.041099	0.134499
C157	C	0.409124	-0.285260	-0.000040
C158	C	0.423540	-0.345430	-0.077336
C159	C	0.378720	-0.436210	-0.077407
C160	C	0.319483	-0.466822	-0.000183
C161	C	0.305064	-0.406651	0.077118
C162	C	0.349884	-0.315871	0.077190
H163	H	0.467393	-0.322770	-0.134507
H164	H	0.389394	-0.480752	-0.134631
H165	H	0.286305	-0.534023	-0.000236
H166	H	0.261211	-0.429311	0.134290
H167	H	0.339210	-0.271329	0.134414
H168	H	0.449461	-0.040295	-0.134642
