data_functionalizedCrystal
_audit_creation_method	'MofGen! by Chris Wilmer'
_symmetry_space_group_name_H-M	'P1'
_symmetry_Int_Tables_number	1
_symmetry_cell_setting	triclinic
loop_
_symmetry_equiv_pos_as_xyz
  x,y,z
_cell_length_a	12.759401
_cell_length_b	18.101395
_cell_length_c	12.759393
_cell_angle_alpha	90.033445
_cell_angle_beta	90.018496
_cell_angle_gamma	90.031265
loop_
_atom_site_label
_atom_site_type_symbol
_atom_site_fract_x
_atom_site_fract_y
_atom_site_fract_z
Zn1	Zn	1.606136	-0.294783	0.593968
Zn2	Zn	1.605980	-0.418644	0.418282
Zn3	Zn	1.430438	-0.294822	0.418307
Zn4	Zn	1.430376	-0.418587	0.593923
O5	O	1.518232	-0.356709	0.506120
O6	O	1.753136	-0.311221	0.570671
O7	O	1.582654	-0.402259	0.271264
O8	O	1.453835	-0.191183	0.441638
O9	O	1.753021	-0.402221	0.441595
O10	O	1.582920	-0.191155	0.570695
O11	O	1.453684	-0.311287	0.271283
O12	O	1.283408	-0.311232	0.441595
O13	O	1.453730	-0.402124	0.740950
O14	O	1.283363	-0.402162	0.570619
O15	O	1.582860	-0.311166	0.740983
O16	O	1.582594	-0.522270	0.441552
O17	O	1.453579	-0.522228	0.570595
C18	C	1.245265	-0.356695	0.506106
C19	C	1.128488	-0.356707	0.506125
C20	C	1.073630	-0.404131	0.573197
C21	C	0.963906	-0.404140	0.573208
C22	C	0.963908	-0.309301	0.439066
C23	C	1.073630	-0.309288	0.439061
C24	C	1.073628	-0.458887	0.650639
C25	C	0.963904	-0.458897	0.650650
C26	C	1.518092	-0.549120	0.506089
C27	C	1.518128	-0.631434	0.506111
C28	C	1.518358	-0.930525	0.506168
C29	C	1.437374	-0.899204	0.587559
C30	C	1.436989	-0.813586	0.587305
C31	C	1.518244	-0.782142	0.506140
C32	C	1.488263	-0.813302	0.395415
C33	C	1.487741	-0.898947	0.395903
C34	C	1.629501	-0.898866	0.534526
C35	C	1.628847	-0.813215	0.536954
C36	C	1.518181	-0.698283	0.506118
C37	C	1.518418	-1.014384	0.506182
C38	C	1.792265	-0.356723	0.506135
C39	C	1.909042	-0.356729	0.506141
C40	C	1.518306	-0.356634	0.780153
C41	C	1.518337	-0.356602	0.896930
C42	C	1.518402	-0.163547	0.506174
C43	C	1.518474	-0.081233	0.506197
C44	C	1.518219	-0.356730	0.233153
C45	C	1.518392	-0.356553	0.116376
C46	C	1.585584	-0.309236	0.951811
C47	C	1.585609	-0.309209	1.061535
C48	C	1.451137	-0.403922	1.061488
C49	C	1.451108	-0.403944	0.951766
C50	C	1.663224	-0.254556	0.951839
C51	C	1.663249	-0.254529	1.061563
H52	H	0.919229	-0.270693	0.384467
F53	F	1.132010	-0.258803	0.367690
F54	F	1.634801	-0.179594	0.912944
H55	H	0.934085	-0.516239	0.628715
F56	F	1.112603	-0.438897	0.757042
H57	H	1.545393	-0.792936	0.333119
F58	F	1.769598	-0.274599	1.100490
H59	H	1.634158	-0.200035	1.095613
H60	H	1.107620	-0.513341	0.621352
H61	H	0.929915	-0.438424	0.728003
H62	H	1.544168	-0.919669	0.333192
H63	H	1.455746	-0.792516	0.669407
H64	H	1.455945	-0.919745	0.669927
F65	F	1.383193	-0.785357	0.363452
F66	F	1.330352	-0.927434	0.563335
F67	F	1.329309	-0.786890	0.562758
H68	H	1.406496	-0.918992	0.371879
H69	H	1.656833	-0.920408	0.613890
H70	H	1.651456	-0.792845	0.618442
F71	F	1.711890	-0.785228	0.465123
H72	H	1.396345	-0.442512	0.907086
F73	F	1.708369	-0.925351	0.457055
F74	F	1.379590	-0.454304	1.119857
H75	H	1.740488	-0.275117	0.917802
