data_functionalizedCrystal
_audit_creation_method	'MofGen! by Chris Wilmer'
_symmetry_space_group_name_H-M	'P1'
_symmetry_Int_Tables_number	1
_symmetry_cell_setting	triclinic
loop_
_symmetry_equiv_pos_as_xyz
  x,y,z
_cell_length_a	14.971486
_cell_length_b	11.295501
_cell_length_c	14.971486
_cell_angle_alpha	85.405530
_cell_angle_beta	96.385871
_cell_angle_gamma	94.589485
loop_
_atom_site_label
_atom_site_type_symbol
_atom_site_fract_x
_atom_site_fract_y
_atom_site_fract_z
O1	O	1.192318	0.098889	-0.121935
O2	O	1.692318	0.598889	0.378065
O3	O	0.931919	0.098921	-0.135896
O4	O	1.431919	0.598921	0.364104
O5	O	1.069097	0.098895	0.001285
O6	O	1.569097	0.598895	0.501285
O7	O	1.055140	0.098914	-0.259116
O8	O	1.555140	0.598914	0.240884
O9	O	1.058325	-0.099155	0.012049
O10	O	1.558325	0.400845	0.512049
O11	O	0.921147	-0.099129	-0.125132
O12	O	1.421147	0.400871	0.374868
O13	O	1.181545	-0.099161	-0.111171
O14	O	1.681545	0.400839	0.388829
Cu15	Cu	1.050362	-0.117229	-0.117169
Cu16	Cu	1.550362	0.382771	0.382831
Cu17	Cu	1.063102	0.116988	-0.129898
Cu18	Cu	1.563102	0.616988	0.370102
O19	O	1.044367	-0.099136	-0.248352
O20	O	1.544367	0.400864	0.251648
C21	C	0.893208	-0.000100	-0.129890
C22	C	1.393208	0.499900	0.370110
C23	C	0.793912	-0.000088	-0.128020
C24	C	1.293912	0.499912	0.371980
N25	N	1.041408	-0.281964	-0.108215
N26	N	1.541408	0.218036	0.391785
C27	C	0.736687	-0.000084	-0.208609
C28	C	1.236687	0.499916	0.291391
C29	C	0.643387	-0.000101	-0.206845
C30	C	1.143387	0.499899	0.293155
C31	C	0.607313	-0.000115	-0.124491
C32	C	1.107313	0.499885	0.375509
C33	C	0.664546	-0.000123	-0.043895
C34	C	1.164546	0.499877	0.456105
C35	C	0.757844	-0.000113	-0.045660
C36	C	1.257844	0.499887	0.454340
C37	C	0.470082	-0.000139	-0.040223
C38	C	0.970082	0.499861	0.459777
C39	C	0.376778	-0.000146	-0.038458
C40	C	0.876778	0.499854	0.461542
C41	C	0.355625	-0.000127	-0.201408
C42	C	0.855625	0.499873	0.298592
C43	C	0.448923	-0.000118	-0.203173
C44	C	0.948923	0.499882	0.296827
C45	C	0.506149	-0.000124	-0.122577
C46	C	1.006149	0.499876	0.377423
C47	C	1.136509	-0.531260	-0.203341
C48	C	1.636509	-0.031260	0.296659
C49	C	1.129749	-0.655924	-0.196568
C50	C	1.629749	-0.155924	0.303432
C51	C	1.021135	-0.655956	-0.087890
C52	C	1.521135	-0.155956	0.412110
C53	C	1.027894	-0.531293	-0.094663
C54	C	1.527894	-0.031293	0.405337
C55	C	1.085582	-0.468950	-0.152392
C56	C	1.585582	0.031050	0.347608
C57	C	1.092337	-0.344284	-0.159170
C58	C	1.592337	0.155716	0.340830
C59	C	0.983727	-0.344319	-0.050488
C60	C	1.483727	0.155681	0.449512
C61	C	0.976968	-0.468982	-0.043714
C62	C	1.476968	0.031018	0.456286
C63	C	1.220256	-0.000138	-0.117177
C64	C	1.720256	0.499862	0.382823
C65	C	1.319553	-0.000142	-0.119048
C66	C	1.819553	0.499858	0.380952
C67	C	1.063087	-0.000129	0.039992
C68	C	1.563087	0.499871	0.539992
C69	C	1.061216	-0.000128	0.139289
C70	C	1.561216	0.499872	0.639289
N71	N	1.072063	0.281724	-0.138845
N72	N	1.572063	0.781724	0.361155
C73	C	1.050378	-0.000109	-0.287059
C74	C	1.550378	0.499891	0.212941
C75	C	1.052249	-0.000102	-0.386356
C76	C	1.552249	0.499898	0.113644
C77	C	1.141805	-0.000139	0.196515
C78	C	1.641805	0.499861	0.696515
C79	C	1.140042	-0.000127	0.289814
C80	C	1.640042	0.499873	0.789814
C81	C	1.057690	-0.000112	0.325885
C82	C	1.557690	0.499888	0.825885
C83	C	0.977095	-0.000097	0.268652
C84	C	1.477095	0.499903	0.768652
C85	C	0.978859	-0.000101	0.175354
C86	C	1.478859	0.499899	0.675354
C87	C	0.973425	-0.000093	0.463114
C88	C	1.473425	0.499907	0.963114
C89	C	0.971660	-0.000091	0.556418
C90	C	1.471660	0.499909	1.056418
C91	C	1.134608	-0.000118	0.577573
C92	C	1.634608	0.499882	1.077573
C93	C	1.136372	-0.000122	0.484276
C94	C	1.636372	0.499878	0.984276
C95	C	1.055776	-0.000109	0.427049
C96	C	1.555776	0.499891	0.927049
H97	H	0.766050	-0.000072	-0.275671
H98	H	1.266050	0.499928	0.224329
H99	H	1.139305	-0.293526	-0.206180
H100	H	1.639305	0.206474	0.293820
O101	O	0.958923	-0.723210	-0.025625
O102	O	1.458923	-0.223210	0.474375
H103	H	0.907819	-0.780008	-0.065345
H104	H	1.407819	-0.280008	0.434655
O105	O	0.531801	-0.000145	0.046708
O106	O	1.031801	0.499855	0.546708
H107	H	0.570426	-0.080869	0.054195
H108	H	1.070426	0.419131	0.554195
H109	H	0.596797	-0.000097	-0.272469
H110	H	1.096797	0.499903	0.227531
O111	O	1.198722	-0.464005	-0.265605
O112	O	1.698722	0.035995	0.234395
H113	H	1.233001	-0.528279	-0.299895
H114	H	1.733001	-0.028279	0.200105
O115	O	0.293904	-0.000138	-0.288337
O116	O	0.793904	0.499862	0.211663
H117	H	0.311110	0.080596	-0.332127
H118	H	0.811110	0.580596	0.167873
H119	H	0.478291	-0.000096	-0.270233
H120	H	0.978291	0.499904	0.229767
O121	O	0.337871	-0.000176	0.050368
O122	O	0.837871	0.499824	0.550368
H123	H	0.291484	-0.080901	0.059438
H124	H	0.791484	0.419099	0.559438
H125	H	0.804436	-0.000116	0.019965
H126	H	1.304436	0.499884	0.519965
O127	O	1.230629	-0.000157	0.157612
O128	O	1.730629	0.499843	0.657612
H129	H	1.239716	0.080558	0.111215
H130	H	1.739716	0.580558	0.611215
H131	H	1.171220	-0.706652	-0.238055
H132	H	1.671220	-0.206652	0.261945
H133	H	0.930002	-0.519759	0.003290
H134	H	1.430002	-0.019759	0.503290
H135	H	1.205666	-0.000138	0.336404
H136	H	1.705666	0.499862	0.836404
H137	H	0.942254	-0.293572	-0.009006
H138	H	1.442254	0.206428	0.490994
H139	H	1.203430	-0.000142	0.454910
H140	H	1.703430	0.499858	0.954910
H141	H	1.200231	-0.000124	0.624172
H142	H	1.700231	0.499876	1.124172
H143	H	0.904601	-0.000098	0.585785
H144	H	1.404601	0.499902	1.085785
O145	O	0.886499	-0.000091	0.401386
O146	O	1.386499	0.499909	0.901386
H147	H	0.828936	-0.000097	0.442142
H148	H	1.328936	0.499903	0.942142
O149	O	0.888271	-0.000095	0.307557
O150	O	1.388271	0.499905	0.807557
H151	H	0.887960	0.080619	0.345177
H152	H	1.387960	0.580619	0.845177
O153	O	0.891936	-0.000105	0.113629
O154	O	1.391936	0.499895	0.613629
H155	H	0.856915	0.080616	0.122076
H156	H	1.356915	0.580616	0.622076
O157	O	0.625644	-0.000147	0.044933
O158	O	1.125644	0.499853	0.544933
H159	H	0.588031	0.080575	0.045256
H160	H	1.088031	0.580575	0.545256
