data_functionalizedCrystal
_audit_creation_method	'MofGen! by Chris Wilmer'
_symmetry_space_group_name_H-M	'P1'
_symmetry_Int_Tables_number	1
_symmetry_cell_setting	triclinic
loop_
_symmetry_equiv_pos_as_xyz
  x,y,z
_cell_length_a	10.654550
_cell_length_b	19.288864
_cell_length_c	17.766277
_cell_angle_alpha	89.976791
_cell_angle_beta	89.994852
_cell_angle_gamma	83.810575
loop_
_atom_site_label
_atom_site_type_symbol
_atom_site_fract_x
_atom_site_fract_y
_atom_site_fract_z
O1	O	0.156657	0.922379	-0.062834
O2	O	0.177789	0.720257	-0.062782
O3	O	-0.015616	0.825965	-0.062807
O4	O	0.350062	0.816670	-0.062810
O5	O	-0.015625	0.825946	0.062382
O6	O	0.177780	0.720238	0.062406
O7	O	0.156647	0.922360	0.062355
Cu8	Cu	0.167212	0.821297	0.073811
Cu9	Cu	0.167224	0.821319	-0.074239
O10	O	0.350052	0.816652	0.062379
C11	C	0.177105	0.694366	-0.000181
C12	C	0.175063	0.617249	-0.000162
C13	C	-0.062404	0.825273	-0.000213
C14	C	-0.201803	0.823231	-0.000215
C15	C	0.288545	0.573296	-0.000175
C16	C	0.286627	0.500836	-0.000183
C17	C	0.171222	0.472333	-0.000193
C18	C	0.057725	0.516296	-0.000176
C19	C	0.059646	0.588754	-0.000160
C20	C	0.080503	0.363484	-0.044077
C21	C	0.078587	0.291027	-0.044098
C22	C	0.165292	0.248849	-0.000239
C23	C	0.253934	0.279135	0.043630
C24	C	0.255855	0.351593	0.043646
C25	C	0.169126	0.393766	-0.000210
C26	C	0.276702	0.126326	-0.000260
C27	C	0.274779	0.053865	-0.000263
C28	C	0.045875	0.069327	-0.000264
C29	C	0.047800	0.141786	-0.000253
C30	C	0.163217	0.170281	-0.000254
C31	C	-0.282621	0.885471	-0.000229
C32	C	-0.413601	0.883548	-0.000234
C33	C	-0.382932	0.757141	-0.000208
C34	C	-0.251955	0.759065	-0.000208
C35	C	-0.300329	0.958451	-0.000240
C36	C	-0.431309	0.956528	-0.000245
C37	C	0.396840	0.817344	-0.000216
C38	C	0.536240	0.819385	-0.000219
C39	C	0.157332	0.948250	-0.000248
C40	C	0.159373	1.025367	-0.000273
N41	N	0.167203	0.821287	0.177941
N42	N	0.167223	0.821335	-0.178369
C43	C	0.081606	0.868110	0.217318
C44	C	0.081600	0.868114	0.296119
C45	C	0.167213	0.821301	0.335542
C46	C	0.252818	0.774469	0.296156
C47	C	0.252813	0.774462	0.217356
C48	C	0.281634	0.812752	0.460380
C49	C	0.281641	0.812764	0.539179
C50	C	0.167229	0.821320	0.578588
C51	C	0.052804	0.829879	0.539189
C52	C	0.052799	0.829871	0.460389
C53	C	0.167228	0.821304	0.420988
C54	C	0.081617	0.868150	0.703410
C55	C	0.081610	0.868149	0.782214
C56	C	0.252839	0.774508	0.782249
C57	C	0.252835	0.774506	0.703447
C58	C	0.167226	0.821330	0.664033
H59	H	0.382526	0.596492	-0.000177
N60	N	0.345171	0.724011	0.824759
H61	H	0.400659	0.750814	0.857436
H62	H	0.399311	0.694360	0.787803
H63	H	0.324537	0.244795	0.079345
N64	N	0.351434	0.384265	0.090969
H65	H	0.406169	0.410706	0.057382
H66	H	0.405988	0.346520	0.118748
N67	N	-0.010711	0.918663	0.824681
H68	H	-0.066210	0.891871	0.857394
H69	H	-0.064843	0.948310	0.787698
H70	H	-0.423782	0.704899	-0.000203
H71	H	-0.040369	0.836838	0.428313
N72	N	-0.487412	0.992906	0.069159
H73	H	-0.581905	0.991528	0.069187
H74	H	-0.467905	1.042997	0.069164
H75	H	-0.271578	0.987004	-0.052635
N76	N	0.345159	0.724003	0.660971
H77	H	0.399394	0.694346	0.697900
H78	H	0.400555	0.750852	0.628255
H79	H	-0.265204	0.981682	0.053808
N80	N	0.401179	0.157067	-0.000257
H81	H	0.472781	0.118224	-0.000260
H82	H	0.406956	0.186771	0.046156
N83	N	0.405047	0.803528	0.581671
H84	H	0.457242	0.842378	0.567930
H85	H	0.452789	0.757161	0.567960
H86	H	0.322524	0.736353	0.328258
N87	N	0.397183	0.006454	-0.000217
H88	H	0.470585	0.035504	-0.000199
H89	H	0.401431	-0.023947	-0.046613
H90	H	-0.048091	0.046120	-0.000320
N91	N	-0.492408	0.985771	-0.071837
H92	H	-0.425594	1.001313	-0.106428
H93	H	-0.555784	1.026923	-0.059320
H94	H	0.379040	0.465043	-0.000191
N95	N	-0.164780	0.691937	-0.000204
H96	H	-0.180870	0.663985	-0.046608
H97	H	-0.180913	0.664013	0.046237
N98	N	-0.074598	0.189198	-0.000239
H99	H	-0.148000	0.160149	-0.000246
H100	H	-0.078787	0.219626	-0.046640
N101	N	0.405044	0.803524	0.417878
H102	H	0.477529	0.798111	0.454792
H103	H	0.412174	0.845752	0.385162
H104	H	0.006415	0.266373	-0.079822
N105	N	-0.013023	0.408973	-0.091382
H106	H	-0.069459	0.378794	-0.119179
H107	H	0.033989	0.435936	-0.128837
H108	H	0.011895	0.906235	0.185229
H109	H	0.322518	0.736332	0.185295
H110	H	0.011893	0.906244	0.328185
N111	N	-0.070610	0.839111	0.581681
H112	H	-0.053250	0.837814	0.637579
H113	H	-0.122732	0.800247	0.567929
H114	H	0.011905	0.906275	0.671318
H115	H	-0.032767	0.624542	-0.000150
N116	N	-0.066749	0.485559	-0.000179
H117	H	-0.050748	0.432987	-0.000192
H118	H	-0.116396	0.501625	-0.046582
