data_functionalizedCrystal
_audit_creation_method	'MofGen! by Chris Wilmer'
_symmetry_space_group_name_H-M	'P1'
_symmetry_Int_Tables_number	1
_symmetry_cell_setting	triclinic
loop_
_symmetry_equiv_pos_as_xyz
  x,y,z
_cell_length_a	12.759401
_cell_length_b	12.759394
_cell_length_c	12.759393
_cell_angle_alpha	90.030600
_cell_angle_beta	90.018496
_cell_angle_gamma	90.014017
loop_
_atom_site_label
_atom_site_type_symbol
_atom_site_fract_x
_atom_site_fract_y
_atom_site_fract_z
Zn1	Zn	1.606262	-0.418200	0.593988
Zn2	Zn	1.606158	-0.593919	0.418311
Zn3	Zn	1.430564	-0.418255	0.418328
Zn4	Zn	1.430555	-0.593838	0.593953
O5	O	1.518385	-0.506053	0.506145
O6	O	1.753269	-0.441520	0.570692
O7	O	1.582826	-0.570674	0.271293
O8	O	1.453917	-0.271227	0.441651
O9	O	1.753193	-0.570620	0.441623
O10	O	1.583002	-0.271186	0.570708
O11	O	1.453817	-0.441614	0.271305
O12	O	1.283541	-0.441536	0.441617
O13	O	1.453902	-0.570482	0.740979
O14	O	1.283535	-0.570536	0.570648
O15	O	1.582993	-0.441442	0.741005
O16	O	1.582817	-0.740929	0.441589
O17	O	1.453802	-0.740870	0.570632
C18	C	1.245417	-0.506034	0.506131
C19	C	1.128641	-0.506051	0.506150
C20	C	1.073803	-0.573329	0.573225
C21	C	0.964079	-0.573342	0.573236
C22	C	0.964040	-0.438796	0.439088
C23	C	1.073762	-0.438779	0.439083
C24	C	1.073824	-0.651011	0.650671
C25	C	0.964100	-0.651024	0.650683
C26	C	1.518326	-0.779021	0.506128
C27	C	1.518397	-0.895797	0.506156
C28	C	1.652713	-0.895597	0.640643
C29	C	1.719903	-0.950358	0.707895
C30	C	1.719966	-1.060079	0.707918
C31	C	1.652828	-1.115043	0.640684
C32	C	1.585637	-1.060282	0.573432
C33	C	1.585584	-0.950558	0.573414
C34	C	1.451318	-1.060482	0.438951
C35	C	1.451260	-0.950761	0.438921
C36	C	1.384181	-1.115446	0.371717
C37	C	1.316994	-1.060685	0.304458
C38	C	1.316935	-0.950957	0.304437
C39	C	1.384069	-0.896000	0.371669
C40	C	1.792418	-0.506073	0.506160
C41	C	1.909194	-0.506082	0.506166
C42	C	1.518458	-0.505947	0.780179
C43	C	1.518489	-0.505902	0.896955
C44	C	1.518472	-0.232020	0.506186
C45	C	1.518509	-0.115243	0.506203
C46	C	1.518372	-0.506083	0.233178
C47	C	1.518544	-0.505832	0.116402
C48	C	1.585716	-0.438704	0.951833
C49	C	1.585741	-0.438666	1.061557
C50	C	1.451310	-0.573033	1.061517
C51	C	1.451280	-0.573065	0.951795
C52	C	1.663333	-0.361132	0.951857
C53	C	1.663358	-0.361094	1.061581
H54	H	0.919345	-0.384025	0.384486
H55	H	0.930102	-0.621980	0.728034
H56	H	1.774667	-1.104665	0.762691
H57	H	1.740605	-0.390300	0.917821
O58	O	0.928722	-0.748115	0.624455
C59	C	0.974501	-0.925041	0.576794
C60	C	1.014708	-0.815134	0.606458
H61	H	1.043999	-0.979262	0.562257
H62	H	0.924871	-0.919718	0.502675
H63	H	0.924853	-0.957526	0.643571
H64	H	1.064398	-0.782585	0.539749
H65	H	1.064281	-0.820524	0.680609
H66	H	1.634243	-0.283785	1.095627
O67	O	1.127195	-0.373454	0.374030
C68	C	1.296209	-0.313837	0.314526
C69	C	1.235828	-0.387856	0.388271
H70	H	1.384049	-0.325471	0.325997
H71	H	1.274728	-0.229124	0.333132
H72	H	1.274539	-0.332170	0.229789
H73	H	1.257466	-0.369617	0.473032
H74	H	1.257314	-0.472546	0.369574
O75	O	1.251632	-1.114028	0.239267
C76	C	1.072964	-1.147730	0.188094
C77	C	1.146865	-1.087268	0.262006
H78	H	0.988245	-1.126100	0.206437
H79	H	1.084452	-1.235569	0.199673
H80	H	1.091496	-1.126226	0.103392
H81	H	1.128378	-1.108684	0.346735
H82	H	1.135363	-0.999444	0.250335
H83	H	1.103632	-0.629311	0.732078
O84	O	1.637294	-0.264023	0.916523
C85	C	1.590017	-0.087017	0.962382
C86	C	1.619469	-0.196944	1.002539
H87	H	1.575619	-0.032747	1.031905
H88	H	1.515867	-0.092266	0.912779
H89	H	1.656841	-0.054639	0.912719
H90	H	1.552714	-0.229386	1.052245
H91	H	1.693651	-0.191628	1.052084
H92	H	1.107839	-0.728263	0.621388
H93	H	1.744729	-0.382886	1.091360
O94	O	1.251552	-0.897717	0.239259
C95	C	1.109686	-0.773912	0.224991
C96	C	1.183651	-0.834154	0.298925
H97	H	1.054785	-0.722490	0.273200
H98	H	1.061638	-0.831999	0.176965
H99	H	1.157938	-0.722594	0.170057
H100	H	1.135481	-0.885473	0.353922
H101	H	1.231703	-0.776011	0.346877
H102	H	1.384032	-0.806659	0.371655
O103	O	1.385926	-0.638423	0.898649
C104	C	1.252512	-0.771613	0.910192
C105	C	1.326499	-0.697670	0.970510
H106	H	1.204430	-0.819518	0.968266
H107	H	1.300644	-0.826649	0.858833
H108	H	1.197634	-0.723351	0.858811
H109	H	1.381392	-0.745848	1.021948
H110	H	1.278302	-0.642631	1.021803
O111	O	1.386130	-0.638243	1.114952
C112	C	1.326549	-0.697698	1.283966
C113	C	1.400434	-0.623808	1.223586
H114	H	1.338072	-0.686038	1.371807
H115	H	1.344968	-0.782446	1.262454
H116	H	1.241845	-0.679260	1.262327
H117	H	1.485163	-0.642152	1.245193
H118	H	1.381925	-0.539083	1.245103
H119	H	1.652678	-0.806256	0.640622
H120	H	1.774564	-0.905597	0.762639
H121	H	1.384232	-1.204787	0.371744
H122	H	1.652876	-1.204384	0.640717
