data_functionalizedCrystal
_audit_creation_method	'MofGen! by Chris Wilmer'
_symmetry_space_group_name_H-M	'P1'
_symmetry_Int_Tables_number	1
_symmetry_cell_setting	triclinic
loop_
_symmetry_equiv_pos_as_xyz
  x,y,z
_cell_length_a	14.971491
_cell_length_b	10.654551
_cell_length_c	14.048226
_cell_angle_alpha	89.995355
_cell_angle_beta	89.991693
_cell_angle_gamma	84.050832
loop_
_atom_site_label
_atom_site_type_symbol
_atom_site_fract_x
_atom_site_fract_y
_atom_site_fract_z
O1	O	1.187835	0.163690	-0.079198
O2	O	0.927543	0.183281	-0.079190
O3	O	1.063673	-0.009318	-0.079192
O4	O	1.051705	0.356289	-0.079196
O5	O	1.063656	-0.009329	0.079129
O6	O	0.927526	0.183270	0.079131
O7	O	1.187819	0.163678	0.079124
Zn8	Zn	1.057670	0.173472	0.104264
Zn9	Zn	1.057692	0.173487	-0.104331
O10	O	1.051688	0.356277	0.079126
C11	C	0.894205	0.182398	-0.000029
C12	C	0.794894	0.179769	-0.000026
C13	C	0.367135	0.168431	-0.086349
C14	C	0.460449	0.170897	-0.086345
C15	C	0.507093	0.172132	-0.000041
C16	C	0.460419	0.170888	0.086265
C17	C	0.367107	0.168413	0.086261
C18	C	0.654909	0.176051	0.086269
C19	C	0.748226	0.178529	0.086274
C20	C	0.748250	0.178535	-0.086337
C21	C	0.654939	0.176060	-0.086342
C22	C	0.608271	0.174818	-0.000035
C23	C	1.062786	-0.056112	-0.000033
C24	C	1.060156	-0.195527	-0.000037
C25	C	1.058931	-0.261011	-0.086339
C26	C	1.056452	-0.392005	-0.086340
C27	C	1.056428	-0.392019	0.086271
C28	C	1.058900	-0.261027	0.086271
C29	C	1.000775	-0.561474	-0.190024
C30	C	0.999566	-0.626966	-0.276330
C31	C	1.052699	-0.593988	-0.352528
C32	C	1.107063	-0.495525	-0.342424
C33	C	1.108281	-0.430042	-0.256116
C34	C	1.055127	-0.463013	-0.179921
C35	C	1.114585	-0.091557	0.189948
C36	C	1.115809	-0.026072	0.276257
C37	C	1.062681	-0.059048	0.352464
C38	C	1.008330	-0.157518	0.342368
C39	C	1.007106	-0.223002	0.256059
C40	C	1.060232	-0.190017	0.179853
C41	C	1.221157	0.164561	-0.000040
C42	C	1.320468	0.167190	-0.000049
C43	C	1.052576	0.403072	-0.000036
C44	C	1.055205	0.542487	-0.000038
N45	N	1.057661	0.173461	0.246625
N46	N	1.057707	0.173488	-0.246692
C47	C	1.117959	0.088214	0.296442
C48	C	1.117965	0.088213	0.396100
C49	C	1.057677	0.173467	0.445939
C50	C	0.997373	0.258719	0.396114
C51	C	0.997363	0.258712	0.296458
C52	C	0.997399	0.258728	0.603829
C53	C	0.997409	0.258736	0.703491
C54	C	1.118001	0.088229	0.703470
C55	C	1.117991	0.088222	0.603814
C56	C	1.057688	0.173476	0.553997
H57	H	0.616913	0.175055	0.156549
Cl58	Cl	0.933958	-0.602921	-0.094238
Cl59	Cl	1.060504	-0.178672	-0.194840
Cl60	Cl	0.931221	-0.750739	-0.289033
H61	H	1.055407	-0.445366	0.156540
Cl62	Cl	1.184148	0.097708	0.288953
Cl63	Cl	0.519114	0.172450	-0.194841
H64	H	1.167102	0.018812	0.744037
H65	H	0.948290	0.328146	0.563271
Cl66	Cl	1.193787	-0.018946	0.541158
Cl67	Cl	1.181395	-0.050114	0.094151
Cl68	Cl	0.921576	0.365891	0.458766
H69	H	0.962844	-0.303179	0.247843
H70	H	0.329164	0.167434	-0.156628
Cl71	Cl	0.921553	0.365882	0.233832
Cl72	Cl	0.596301	0.174518	-0.194840
Cl73	Cl	0.806916	0.180112	-0.194837
H74	H	0.786200	0.179542	0.156550
Cl75	Cl	0.519057	0.172439	0.194763
Cl76	Cl	1.193769	-0.018958	0.458729
H77	H	0.965049	-0.184344	0.404413
Cl78	Cl	0.921612	0.365915	0.766138
Cl79	Cl	1.193759	-0.018964	0.233799
Cl80	Cl	0.308440	0.166842	0.194757
Cl81	Cl	1.176618	-0.306268	-0.243408
Cl82	Cl	1.051187	-0.676337	-0.461021
H83	H	1.150335	-0.468694	-0.404472
H84	H	1.063690	-0.005727	0.422743
