data_functionalizedCrystal
_audit_creation_method	'MofGen! by Chris Wilmer'
_symmetry_space_group_name_H-M	'P1'
_symmetry_Int_Tables_number	1
_symmetry_cell_setting	triclinic
loop_
_symmetry_equiv_pos_as_xyz
  x,y,z
_cell_length_a	14.519709
_cell_length_b	10.654543
_cell_length_c	9.730223
_cell_angle_alpha	89.998625
_cell_angle_beta	89.994652
_cell_angle_gamma	95.918841
loop_
_atom_site_label
_atom_site_type_symbol
_atom_site_fract_x
_atom_site_fract_y
_atom_site_fract_z
O1	O	0.129503	-1.666599	-0.114145
O2	O	0.141850	-1.301000	-0.114181
O3	O	0.001488	-1.493493	-0.114150
O4	O	0.269865	-1.474106	-0.114176
O5	O	0.001484	-1.493481	0.114430
O6	O	0.141846	-1.300988	0.114399
O7	O	0.129499	-1.666586	0.114434
Zn8	Zn	0.135672	-1.483785	0.150709
Zn9	Zn	0.135677	-1.483802	-0.150455
O10	O	0.269861	-1.474094	0.114403
C11	C	-0.032878	-1.492583	0.000140
C12	C	-0.135274	-1.489876	0.000141
C13	C	0.140943	-1.254205	0.000105
C14	C	0.138234	-1.114787	0.000092
N15	N	0.135668	-1.483783	0.356245
C16	C	-0.510221	-1.479909	0.000104
C17	C	-0.405899	-1.482676	0.000115
C18	C	-0.322751	-1.484892	0.000124
C19	C	-0.218422	-1.487660	0.000132
C20	C	0.304227	-1.475004	0.000110
C21	C	0.406622	-1.477711	0.000101
C22	C	0.220877	-1.034507	0.000085
C23	C	0.218326	-0.903510	0.000106
C24	C	0.050484	-0.933087	0.000133
C25	C	0.053035	-1.064081	0.000123
C26	C	0.130410	-0.713381	0.000139
C27	C	0.133132	-0.852796	0.000123
N28	N	0.135674	-1.483813	-0.355992
C29	C	0.073542	-1.569048	0.428185
C30	C	0.073542	-1.569060	0.572068
C31	C	0.197802	-1.398540	0.572059
C32	C	0.197797	-1.398522	0.428178
H33	H	0.290251	-1.075787	0.000070
Br34	Br	-0.010779	-1.684775	0.669698
H35	H	0.248388	-1.329084	0.369601
Br36	Br	0.330489	-0.794561	0.000104
H37	H	0.248388	-1.329124	0.630641
Br38	Br	-0.065138	-0.864263	0.000170
H39	H	-0.014267	-1.129450	0.000132
H40	H	0.022951	-1.638471	0.369620
