data_functionalizedCrystal
_audit_creation_method	'MofGen! by Chris Wilmer'
_symmetry_space_group_name_H-M	'P1'
_symmetry_Int_Tables_number	1
_symmetry_cell_setting	triclinic
loop_
_symmetry_equiv_pos_as_xyz
  x,y,z
_cell_length_a	10.723023
_cell_length_b	10.654550
_cell_length_c	9.730223
_cell_angle_alpha	89.998521
_cell_angle_beta	90.003450
_cell_angle_gamma	95.523762
loop_
_atom_site_label
_atom_site_type_symbol
_atom_site_fract_x
_atom_site_fract_y
_atom_site_fract_z
O1	O	-1.657213	0.176144	-0.114286
O2	O	-1.157213	0.676144	0.385714
O3	O	-1.294063	0.193006	-0.114287
O4	O	-0.794063	0.693006	0.385713
O5	O	-1.483988	0.001835	-0.114287
O6	O	-0.983988	0.501835	0.385713
O7	O	-1.467289	0.367316	-0.114285
O8	O	-0.967289	0.867316	0.385715
O9	O	-1.483975	0.001830	0.114293
O10	O	-0.983975	0.501830	0.614293
O11	O	-1.294051	0.193001	0.114293
O12	O	-0.794051	0.693001	0.614293
O13	O	-1.657201	0.176139	0.114294
O14	O	-1.157201	0.676139	0.614294
Zn15	Zn	-1.475624	0.184569	0.150586
Zn16	Zn	-0.975624	0.684569	0.650586
Zn17	Zn	-1.475640	0.184576	-0.150578
Zn18	Zn	-0.975640	0.684576	0.349422
O19	O	-1.467276	0.367311	0.114295
O20	O	-0.967276	0.867311	0.614295
C21	C	-1.247557	0.191777	0.000003
C22	C	-0.747557	0.691777	0.500003
C23	C	-1.109002	0.188106	0.000003
C24	C	-0.609002	0.688106	0.500003
C25	C	-1.047224	0.186467	0.118413
C26	C	-0.547224	0.686467	0.618413
C27	C	-0.904020	0.182673	0.118416
C28	C	-0.404020	0.682673	0.618416
C29	C	-1.482755	-0.044966	-0.000001
C30	C	-0.982755	0.455034	0.499999
C31	C	-1.479087	-0.184408	-0.000010
C32	C	-0.979087	0.315592	0.499990
C33	C	-1.473910	-0.380945	-0.124599
C34	C	-0.973910	0.119055	0.375401
C35	C	-1.477370	-0.249925	-0.124607
C36	C	-0.977370	0.250075	0.375393
C37	C	-1.477357	-0.249919	0.124603
C38	C	-0.977357	0.250081	0.624603
C39	C	-1.473907	-0.380938	0.124610
C40	C	-0.973907	0.119062	0.624610
C41	C	-0.703707	0.177369	0.000004
C42	C	-0.203707	0.677369	0.500004
C43	C	-0.842262	0.181039	0.000005
C44	C	-0.342262	0.681039	0.500005
C45	C	-1.468509	0.414111	0.000005
C46	C	-0.968509	0.914111	0.500005
C47	C	-1.472177	0.553554	0.000005
C48	C	-0.972177	1.053554	0.500005
N49	N	-1.475622	0.184564	0.356122
N50	N	-0.975622	0.684564	0.856122
N51	N	-1.475652	0.184572	-0.356115
N52	N	-0.975652	0.684572	0.143885
C53	C	-1.559749	0.099949	0.428048
C54	C	-1.059749	0.599949	0.928048
C55	C	-1.559762	0.099950	0.571930
C56	C	-1.059762	0.599950	1.071930
C57	C	-1.391515	0.269190	0.571950
C58	C	-0.891515	0.769190	1.071950
C59	C	-1.391498	0.269183	0.428069
C60	C	-0.891498	0.769183	0.928069
H61	H	-1.055876	0.186697	-0.101372
H62	H	-0.555876	0.686697	0.398628
H63	H	-1.478764	-0.196566	0.226052
H64	H	-0.978764	0.303434	0.726052
H65	H	-0.850891	0.181270	0.219791
H66	H	-0.350891	0.681270	0.719791
Cl67	Cl	-1.479552	-0.167587	-0.281259
Cl68	Cl	-0.979552	0.332413	0.218741
H69	H	-1.472499	-0.434271	0.226084
H70	H	-0.972499	0.065729	0.726084
H71	H	-1.628247	0.031045	0.369471
H72	H	-1.128247	0.531045	0.869471
H73	H	-1.472500	-0.434278	-0.226060
H74	H	-0.972500	0.065722	0.273940
Cl75	Cl	-1.665524	-0.006430	0.662347
Cl76	Cl	-1.165524	0.493570	1.162347
H77	H	-1.323025	0.338087	0.630543
H78	H	-0.823025	0.838087	1.130543
H79	H	-1.322985	0.338087	0.369503
H80	H	-0.822985	0.838087	0.869503
H81	H	-0.895381	0.182456	-0.101377
H82	H	-0.395381	0.682456	0.398623
Cl83	Cl	-1.129237	0.188633	0.274936
Cl84	Cl	-0.629237	0.688633	0.774936
