data_functionalizedCrystal
_audit_creation_method	'MofGen! by Chris Wilmer'
_symmetry_space_group_name_H-M	'P1'
_symmetry_Int_Tables_number	1
_symmetry_cell_setting	triclinic
loop_
_symmetry_equiv_pos_as_xyz
  x,y,z
_cell_length_a	16.120484
_cell_length_b	12.827893
_cell_length_c	12.827885
_cell_angle_alpha	89.978811
_cell_angle_beta	87.136072
_cell_angle_gamma	87.076421
loop_
_atom_site_label
_atom_site_type_symbol
_atom_site_fract_x
_atom_site_fract_y
_atom_site_fract_z
Zn1	Zn	-0.331909	-1.576501	0.611951
Zn2	Zn	0.168091	-1.076501	1.111951
Zn3	Zn	-0.471344	-1.567502	0.446054
Zn4	Zn	0.028656	-1.067502	0.946054
Zn5	Zn	-0.331945	-1.401740	0.437221
Zn6	Zn	0.168055	-0.901740	0.937221
Zn7	Zn	-0.471277	-1.392839	0.620743
Zn8	Zn	0.028723	-0.892839	1.120743
O9	O	-0.401619	-1.484646	0.528992
O10	O	0.098381	-0.984646	1.028992
O11	O	-0.350418	-1.721542	0.589961
O12	O	0.149582	-1.221542	1.089961
O13	O	-0.452895	-1.545473	0.298648
O14	O	0.047105	-1.045473	0.798648
O15	O	-0.215275	-1.432414	0.453023
O16	O	0.284725	-0.932414	0.953023
O17	O	-0.452861	-1.714931	0.468077
O18	O	0.047139	-1.214931	0.968077
O19	O	-0.215249	-1.560810	0.581396
O20	O	0.284751	-1.060810	1.081396
O21	O	-0.350479	-1.423688	0.292159
O22	O	0.149521	-0.923688	0.792159
O23	O	-0.350415	-1.254324	0.461549
O24	O	0.149585	-0.754324	0.961549
O25	O	-0.452747	-1.417243	0.765810
O26	O	0.047253	-0.917243	1.265810
O27	O	-0.452782	-1.247784	0.596382
O28	O	0.047218	-0.747784	1.096382
O29	O	-0.350354	-1.552179	0.759350
O30	O	0.149646	-1.052179	1.259350
O31	O	-0.588000	-1.536841	0.476603
O32	O	-0.088000	-1.036841	0.976603
O33	O	-0.587951	-1.408517	0.604947
O34	O	-0.087951	-0.908517	1.104947
C35	C	-0.401595	-1.213137	0.528962
C36	C	0.098405	-0.713137	1.028962
C37	C	-0.401605	-1.096983	0.528975
C38	C	0.098395	-0.596983	1.028975
C39	C	-0.452338	-1.041985	0.595600
C40	C	0.047662	-0.541985	1.095600
C41	C	-0.452349	-0.921934	0.595615
C42	C	0.047651	-0.421934	1.095615
C43	C	-0.618226	-1.470765	0.542710
C44	C	-0.118226	-0.970765	1.042710
C45	C	-0.710891	-1.464923	0.548614
C46	C	-0.210891	-0.964923	1.048614
C47	C	-0.880552	-1.454262	0.559414
C48	C	-0.380552	-0.954262	1.059414
C49	C	-0.921845	-1.515216	0.498588
C50	C	-0.421845	-1.015216	0.998588
C51	C	-1.016250	-1.509284	0.504597
C52	C	-0.516250	-1.009284	1.004597
C53	C	-0.786138	-1.460193	0.553406
C54	C	-0.286138	-0.960193	1.053406
C55	C	-0.184166	-1.498608	0.515243
C56	C	0.315834	-0.998608	1.015243
C57	C	-0.091501	-1.504559	0.509384
C58	C	0.408499	-1.004559	1.009384
C59	C	-0.401539	-1.484722	0.801557
C60	C	0.098461	-0.984722	1.301557
C61	C	-0.401505	-1.484754	0.917708
C62	C	0.098495	-0.984754	1.417708
C63	C	-0.401636	-0.757214	0.529015
C64	C	0.098364	-0.257214	1.029015
C65	C	-0.401626	-0.873368	0.529001
C66	C	0.098374	-0.373368	1.029001
C67	C	-0.401638	-1.484634	0.257483
C68	C	0.098362	-0.984634	0.757483
C69	C	-0.401438	-1.484818	0.141318
C70	C	0.098562	-0.984818	0.641318
C71	C	-0.350827	-1.551532	0.966296
C72	C	0.149173	-1.051532	1.466296
C73	C	-0.350791	-1.551567	1.086344
C74	C	0.149209	-1.051567	1.586344
H75	H	-0.886298	-1.571854	0.441999
H76	H	-0.386298	-1.071854	0.941999
H77	H	-0.307407	-1.608742	1.128141
H78	H	0.192593	-1.108742	1.628141
H79	H	-0.444830	-1.427648	1.099529
H80	H	0.055170	-0.927648	1.599529
C81	C	-0.459431	-1.408722	0.980796
C82	C	0.040569	-0.908722	1.480796
C83	C	-0.512820	-1.464542	1.046819
C84	C	-0.012820	-0.964542	1.546819
C85	C	-0.566203	-1.394536	1.104936
C86	C	-0.066203	-0.894536	1.604936
H87	H	-0.427592	-1.365261	1.021444
H88	H	0.072408	-0.865261	1.521444
H89	H	-0.491279	-1.366840	0.934780
H90	H	0.008721	-0.866840	1.434780
H91	H	-0.480975	-1.506407	1.092830
H92	H	0.019025	-1.006407	1.592830
H93	H	-0.544677	-1.508000	1.006198
H94	H	-0.044677	-1.008000	1.506198
H95	H	-0.598052	-1.352653	1.058920
H96	H	-0.098052	-0.852653	1.558920
H97	H	-0.534358	-1.351078	1.145577
H98	H	-0.034358	-0.851078	1.645577
H99	H	-0.602439	-1.432400	1.149732
H100	H	-0.102439	-0.932400	1.649732
C101	C	-0.510404	-0.858943	0.671560
C102	C	-0.010404	-0.358943	1.171560
C103	C	-0.592888	-0.880113	0.653869
C104	C	-0.092888	-0.380113	1.153869
C105	C	-0.646392	-0.822094	0.723804
C106	C	-0.146392	-0.322094	1.223804
H107	H	-0.498387	-0.877538	0.741088
H108	H	0.001613	-0.377538	1.241088
H109	H	-0.502771	-0.786620	0.661458
H110	H	-0.002771	-0.286620	1.161458
H111	H	-0.600517	-0.952420	0.663979
H112	H	-0.100517	-0.452420	1.163979
H113	H	-0.604931	-0.861514	0.584355
H114	H	-0.104931	-0.361514	1.084355
H115	H	-0.638760	-0.749771	0.713701
H116	H	-0.138760	-0.249771	1.213701
H117	H	-0.634368	-0.840693	0.793327
H118	H	-0.134368	-0.340693	1.293327
H119	H	-0.702364	-0.836442	0.711804
H120	H	-0.202364	-0.336442	1.211804
H121	H	-0.307465	-1.608674	0.919018
H122	H	0.192535	-1.108674	1.419018
H123	H	-0.358193	-0.920646	0.471955
H124	H	0.141807	-0.420646	0.971955
C125	C	-0.510108	-1.097842	0.671698
C126	C	-0.010108	-0.597842	1.171698
C127	C	-0.462916	-1.163572	0.735704
C128	C	0.037084	-0.663572	1.235704
C129	C	-0.516107	-1.215051	0.805810
C130	C	-0.016107	-0.715051	1.305810
H131	H	-0.541959	-1.047889	0.713601
H132	H	-0.041959	-0.547889	1.213601
H133	H	-0.546346	-1.138146	0.633927
H134	H	-0.046346	-0.638146	1.133927
H135	H	-0.426692	-1.123270	0.773472
H136	H	0.073308	-0.623270	1.273472
H137	H	-0.431066	-1.213544	0.693830
H138	H	0.068934	-0.713544	1.193830
H139	H	-0.552345	-1.255356	0.768039
H140	H	-0.052345	-0.755356	1.268039
H141	H	-0.547955	-1.165091	0.847706
H142	H	-0.047955	-0.665091	1.347706
H143	H	-0.484095	-1.259662	0.849240
H144	H	0.015905	-0.759662	1.349240
H145	H	-0.916097	-1.397627	0.615996
H146	H	-0.416097	-0.897627	1.115996
C147	C	-0.343843	-1.041213	0.452795
C148	C	0.156157	-0.541213	0.952795
C149	C	-0.391045	-0.975528	0.388756
C150	C	0.108955	-0.475528	0.888756
C151	C	-0.337864	-0.924153	0.318550
C152	C	0.162136	-0.424153	0.818550
H153	H	-0.307568	-1.000883	0.490456
H154	H	0.192432	-0.500883	0.990456
H155	H	-0.312033	-1.091258	0.410932
H156	H	0.187967	-0.591258	0.910932
H157	H	-0.422841	-0.925491	0.430613
H158	H	0.077159	-0.425491	0.930613
H159	H	-0.427318	-1.015833	0.351071
H160	H	0.072682	-0.515833	0.851071
H161	H	-0.306054	-0.974198	0.276687
H162	H	0.193946	-0.474198	0.776687
H163	H	-0.301592	-0.883829	0.356220
H164	H	0.198408	-0.383829	0.856220
H165	H	-0.369883	-0.879588	0.275085
H166	H	0.130117	-0.379588	0.775085
