data_functionalizedCrystal
_audit_creation_method	'MofGen! by Chris Wilmer'
_symmetry_space_group_name_H-M	'P1'
_symmetry_Int_Tables_number	1
_symmetry_cell_setting	triclinic
loop_
_symmetry_equiv_pos_as_xyz
  x,y,z
_cell_length_a	21.295420
_cell_length_b	25.639239
_cell_length_c	25.639233
_cell_angle_alpha	90.018747
_cell_angle_beta	90.013450
_cell_angle_gamma	90.034468
loop_
_atom_site_label
_atom_site_type_symbol
_atom_site_fract_x
_atom_site_fract_y
_atom_site_fract_z
Zn1	Zn	0.962250	-0.208273	0.295621
Zn2	Zn	1.462250	0.291727	0.795621
Zn3	Zn	0.962158	-0.295692	0.208185
Zn4	Zn	1.462158	0.204308	0.708185
Zn5	Zn	0.856994	-0.208266	0.208198
Zn6	Zn	1.356994	0.291734	0.708198
Zn7	Zn	0.856928	-0.295673	0.295588
Zn8	Zn	1.356928	0.204327	0.795588
O9	O	0.909583	-0.251976	0.251898
O10	O	1.409583	0.248024	0.751898
O11	O	1.050327	-0.219881	0.284030
O12	O	1.550327	0.280119	0.784030
O13	O	0.948197	-0.284100	0.135022
O14	O	1.448197	0.215900	0.635022
O15	O	0.871023	-0.135102	0.219814
O16	O	1.371023	0.364898	0.719814
O17	O	1.050260	-0.284107	0.219792
O18	O	1.550260	0.215893	0.719792
O19	O	0.948354	-0.135107	0.284043
O20	O	1.448354	0.364893	0.784043
O21	O	0.870933	-0.219868	0.135031
O22	O	1.370933	0.280132	0.635031
O23	O	0.768896	-0.219850	0.219782
O24	O	1.268896	0.280150	0.719782
O25	O	0.870910	-0.284074	0.368758
O26	O	1.370910	0.215926	0.868758
O27	O	0.768847	-0.284067	0.283988
O28	O	1.268847	0.215933	0.783988
O29	O	0.948290	-0.219862	0.368782
O30	O	1.448290	0.280138	0.868782
O31	O	0.948133	-0.368855	0.219760
O32	O	1.448133	0.131145	0.719760
O33	O	0.870821	-0.368841	0.283975
O34	O	1.370821	0.131159	0.783975
C35	C	0.746031	-0.251956	0.251883
C36	C	1.246031	0.248044	0.751883
C37	C	0.676063	-0.251960	0.251889
C38	C	1.176063	0.248040	0.751889
C39	C	0.176639	-0.218612	0.285409
C40	C	0.676639	0.281388	0.785409
C41	C	0.242382	-0.218608	0.285409
C42	C	0.742382	0.281392	0.785409
C43	C	0.275223	-0.251992	0.251910
C44	C	0.775223	0.248008	0.751910
C45	C	0.242317	-0.285391	0.218418
C46	C	0.742317	0.214609	0.718418
C47	C	0.176576	-0.285398	0.218423
C48	C	0.676576	0.214602	0.718423
N49	N	0.378423	-0.255925	0.206129
N50	N	0.878423	0.244075	0.706129
N51	N	0.440875	-0.255915	0.206126
N52	N	0.940875	0.244085	0.706126
C53	C	0.473298	-0.251975	0.251895
C54	C	0.973298	0.248025	0.751895
N55	N	0.440911	-0.248034	0.297668
N56	N	0.940911	0.251966	0.797668
N57	N	0.378454	-0.248040	0.297670
N58	N	0.878454	0.251960	0.797670
C59	C	0.346509	-0.251989	0.251902
C60	C	0.846509	0.248011	0.751902
C61	C	0.577482	-0.218576	0.285387
C62	C	1.077482	0.281424	0.785387
C63	C	0.643226	-0.218576	0.285388
C64	C	1.143226	0.281424	0.785388
C65	C	0.643160	-0.285356	0.218392
C66	C	1.143160	0.214644	0.718392
C67	C	0.577417	-0.285359	0.218396
C68	C	1.077417	0.214641	0.718396
C69	C	0.544582	-0.251966	0.251893
C70	C	1.044582	0.248034	0.751893
C71	C	0.909477	-0.387819	0.251874
C72	C	1.409477	0.112181	0.751874
C73	C	0.909489	-0.445933	0.251881
C74	C	1.409489	0.054067	0.751881
C75	C	0.949944	-0.806290	0.218518
C76	C	1.449944	-0.306290	0.718518
C77	C	0.949968	-0.860895	0.218525
C78	C	1.449968	-0.360895	0.718525
O79	O	0.984255	-0.889127	0.190133
O80	O	1.484255	-0.389127	0.690133
N81	N	0.909693	-0.888215	0.251933
N82	N	1.409693	-0.388215	0.751933
C83	C	0.869395	-0.860928	0.285339
C84	C	1.369395	-0.360928	0.785339
O85	O	0.835141	-0.889180	0.313755
O86	O	1.335141	-0.389180	0.813755
C87	C	0.869375	-0.806325	0.285334
C88	C	1.369375	-0.306325	0.785334
C89	C	0.909648	-0.779008	0.251921
C90	C	1.409648	-0.279008	0.751921
C91	C	0.990215	-0.778973	0.185108
C92	C	1.490215	-0.278973	0.685108
C93	C	0.990189	-0.724372	0.185101
C94	C	1.490189	-0.224372	0.685101
C95	C	0.949893	-0.697089	0.218503
C96	C	1.449893	-0.197089	0.718503
C97	C	0.909623	-0.724407	0.251913
C98	C	1.409623	-0.224407	0.751913
C99	C	0.829081	-0.779039	0.318743
C100	C	1.329081	-0.279039	0.818743
C101	C	0.829064	-0.724432	0.318735
C102	C	1.329064	-0.224432	0.818735
C103	C	0.869337	-0.697115	0.285322
C104	C	1.369337	-0.197115	0.785322
C105	C	0.869301	-0.642524	0.285308
C106	C	1.369301	-0.142524	0.785308
N107	N	0.909577	-0.615203	0.251901
N108	N	1.409577	-0.115203	0.751901
C109	C	0.949873	-0.642486	0.218498
C110	C	1.449873	-0.142486	0.718498
C111	C	0.869443	-0.975599	0.285347
C112	C	1.369443	-0.475599	0.785347
C113	C	0.869460	-1.030201	0.285349
C114	C	1.369460	-0.530201	0.785349
C115	C	0.950034	-1.030164	0.218536
C116	C	1.450034	-0.530164	0.718536
C117	C	0.950013	-0.975561	0.218532
C118	C	1.450013	-0.475561	0.718532
C119	C	0.909718	-0.948279	0.251940
C120	C	1.409718	-0.448279	0.751940
C121	C	0.949816	-0.527821	0.218485
C122	C	1.449816	-0.027821	0.718485
C123	C	0.949785	-0.473216	0.218479
C124	C	1.449785	0.026784	0.718479
C125	C	0.869214	-0.473258	0.285293
C126	C	1.369214	0.026742	0.785293
C127	C	0.869242	-0.527858	0.285298
C128	C	1.369242	-0.027858	0.785298
C129	C	0.909548	-0.555139	0.251892
C130	C	1.409548	-0.055139	0.751892
O131	O	0.835034	-0.614257	0.313688
O132	O	1.335034	-0.114257	0.813688
O133	O	0.984127	-0.614227	0.190092
O134	O	1.484127	-0.114227	0.690092
C135	C	1.073773	-0.251997	0.251913
C136	C	1.573773	0.248003	0.751913
C137	C	1.143741	-0.252005	0.251920
C138	C	1.643741	0.247995	0.751920
C139	C	0.909603	-0.251967	0.388271
C140	C	1.409603	0.248033	0.888271
C141	C	0.909612	-0.251963	0.446385
C142	C	1.409612	0.248037	0.946385
C143	C	0.909706	-0.115603	0.251933
C144	C	1.409706	0.384397	0.751933
C145	C	0.909759	-0.057489	0.251949
C146	C	1.409759	0.442511	0.751949
C147	C	0.909599	-0.251947	0.116055
C148	C	1.409599	0.248053	0.616055
C149	C	0.909712	-0.251804	0.057942
C150	C	1.409712	0.248196	0.557942
C151	C	0.949954	-0.218428	0.806766
C152	C	1.449954	0.281572	1.306766
C153	C	0.949962	-0.218414	0.861371
C154	C	1.449962	0.281586	1.361371
O155	O	0.984212	-0.189963	0.889623
O156	O	1.484212	0.310037	1.389623
N157	N	0.909681	-0.251840	0.888668
N158	N	1.409681	0.248160	1.388668
C159	C	0.869385	-0.285280	0.861358
C160	C	1.369385	0.214720	1.361358
O161	O	0.835123	-0.313710	0.889590
O162	O	1.335123	0.186290	1.389590
C163	C	0.869374	-0.285291	0.806754
C164	C	1.369374	0.214709	1.306754
C165	C	0.909663	-0.251866	0.779460
C166	C	1.409663	0.248134	1.279460
C167	C	0.990239	-0.185006	0.779472
C168	C	1.490239	0.314994	1.279472
C169	C	0.990232	-0.185021	0.724871
C170	C	1.490232	0.314979	1.224871
C171	C	0.949940	-0.218459	0.697565
C172	C	1.449940	0.281541	1.197565
C173	C	0.909656	-0.251882	0.724860
C174	C	1.409656	0.248118	1.224860
C175	C	0.829076	-0.318728	0.779445
C176	C	1.329076	0.181272	1.279445
C177	C	0.829068	-0.318736	0.724838
C178	C	1.329068	0.181264	1.224838
C179	C	0.869357	-0.285311	0.697544
C180	C	1.369357	0.214689	1.197544
C181	C	0.869357	-0.285335	0.642953
C182	C	1.369357	0.214665	1.142953
N183	N	0.909638	-0.251908	0.615656
N184	N	1.409638	0.248092	1.115656
C185	C	0.949930	-0.218470	0.642962
C186	C	1.449930	0.281530	1.142962
C187	C	0.869409	-0.285253	0.976028
C188	C	1.369409	0.214747	1.476028
C189	C	0.869422	-0.285244	1.030631
C190	C	1.369422	0.214756	1.530631
C191	C	0.949999	-0.218377	1.030640
C192	C	1.449999	0.281623	1.530640
C193	C	0.949988	-0.218389	0.976037
C194	C	1.449988	0.281611	1.476037
C195	C	0.909690	-0.251826	0.948731
C196	C	1.409690	0.248174	1.448731
C197	C	0.949912	-0.218505	0.528297
C198	C	1.449912	0.281495	1.028297
C199	C	0.949903	-0.218525	0.473691
C200	C	1.449903	0.281475	0.973691
C201	C	0.869325	-0.285390	0.473687
C202	C	1.369325	0.214610	0.973687
C203	C	0.869335	-0.285372	0.528287
C204	C	1.369335	0.214628	1.028287
C205	C	0.909631	-0.251926	0.555591
C206	C	1.409631	0.248074	1.055591
O207	O	0.835122	-0.313770	0.614666
O208	O	1.335122	0.186230	1.114666
O209	O	0.984180	-0.190040	0.614723
O210	O	1.484180	0.309960	1.114723
H211	H	0.550747	-0.191385	0.312662
H212	H	1.050747	0.308615	0.812662
F213	F	0.826520	-0.320847	0.946973
F214	F	1.326520	0.179153	1.446973
F215	F	0.992878	-0.946492	0.182969
F216	F	1.492878	-0.446492	0.682969
F217	F	0.542403	-0.320894	0.182745
F218	F	1.042403	0.179106	0.682745
F219	F	0.141698	-0.183076	0.321063
F220	F	0.641698	0.316924	0.821063
H221	H	1.022985	-0.702133	0.157894
H222	H	1.522985	-0.202133	0.657894
F223	F	0.992787	-0.182949	0.444646
F224	F	1.492787	0.317051	0.944646
F225	F	0.826445	-0.320974	0.444616
F226	F	1.326445	0.179026	0.944616
H227	H	0.670011	-0.191385	0.312663
H228	H	1.170011	0.308615	0.812663
H229	H	0.982580	-0.450975	0.191268
H230	H	1.482580	0.049025	0.691268
H231	H	1.023038	-0.157802	0.702653
H232	H	1.523038	0.342198	1.202653
H233	H	0.836659	-1.052439	0.312553
H234	H	1.336659	-0.552439	0.812553
F235	F	0.141562	-0.320939	0.182775
F236	F	0.641562	0.179061	0.682775
F237	F	0.992714	-0.556847	0.182930
F238	F	1.492714	-0.056847	0.682930
F239	F	0.826332	-0.444212	0.320842
F240	F	1.326332	0.055788	0.820842
H241	H	0.269173	-0.191414	0.312680
H242	H	0.769173	0.308586	0.812680
H243	H	0.982847	-1.052388	0.191340
H244	H	1.482847	-0.552388	0.691340
H245	H	0.982794	-0.191170	0.953817
H246	H	1.482794	0.308830	1.453817
F247	F	0.826548	-0.946568	0.320903
F248	F	1.326548	-0.446568	0.820903
F249	F	0.678108	-0.320889	0.182743
F250	F	1.178108	0.179111	0.682743
F251	F	1.033108	-0.808001	0.149554
F252	F	1.533108	-0.308001	0.649554
H253	H	0.982723	-0.191268	0.550521
H254	H	1.482723	0.308732	1.050521
F255	F	0.786196	-0.354306	0.808482
F256	F	1.286196	0.145694	1.308482
F257	F	0.786221	-0.808101	0.354311
F258	F	1.286221	-0.308101	0.854311
H259	H	0.796245	-0.345960	0.702609
H260	H	1.296245	0.154040	1.202609
H261	H	0.836450	-0.550102	0.312507
H262	H	1.336450	-0.050102	0.812507
F263	F	0.277270	-0.320922	0.182768
F264	F	0.777270	0.179078	0.682768
F265	F	0.786176	-0.695400	0.354295
F266	F	1.286176	-0.195400	0.854295
H267	H	1.023049	-0.157774	0.801699
H268	H	1.523049	0.342226	1.301699
H269	H	0.982805	-0.191149	1.052883
H270	H	1.482805	0.308851	1.552883
H271	H	0.836622	-0.312468	1.052849
H272	H	1.336622	0.187532	1.552849
F273	F	0.826461	-0.320950	0.557337
F274	F	1.326461	0.179050	1.057337
