data_functionalizedCrystal
_audit_creation_method	'MofGen! by Chris Wilmer'
_symmetry_space_group_name_H-M	'P1'
_symmetry_Int_Tables_number	1
_symmetry_cell_setting	triclinic
loop_
_symmetry_equiv_pos_as_xyz
  x,y,z
_cell_length_a	14.560438
_cell_length_b	14.560438
_cell_length_c	14.560438
_cell_angle_alpha	60.006739
_cell_angle_beta	90.000821
_cell_angle_gamma	59.999712
loop_
_atom_site_label
_atom_site_type_symbol
_atom_site_fract_x
_atom_site_fract_y
_atom_site_fract_z
Zr1	Zr	0.884811	1.005173	-0.120348
O2	O	0.738172	1.196759	-0.266971
O3	O	0.929758	0.813588	-0.075419
O4	O	0.929769	1.005171	-0.266993
O5	O	0.738159	1.005179	0.075741
O6	O	1.080909	1.005168	-0.266988
O7	O	0.738161	1.005177	-0.075398
O8	O	1.080890	0.662462	0.075702
O9	O	0.738178	1.347884	-0.266949
O10	O	1.061729	0.892388	-0.056231
O11	O	0.948932	0.892391	0.056558
O12	O	0.948945	1.117955	-0.168994
O13	O	0.836148	1.117958	-0.056205
Zr14	Zr	1.125859	1.005172	0.120709
Zr15	Zr	1.125863	1.005169	-0.120340
Zr16	Zr	0.884807	1.005176	0.120701
Zr17	Zr	0.884820	1.246201	-0.120313
Zr18	Zr	1.125850	0.764144	0.120673
O19	O	1.080912	1.196757	0.075780
O20	O	1.080917	1.196753	-0.266960
O21	O	0.738166	1.196763	0.075769
O22	O	1.272498	0.813586	0.267332
O23	O	1.272503	0.813582	-0.075408
O24	O	0.929753	0.813593	0.267321
O25	O	1.272511	1.005167	-0.075380
O26	O	1.080901	1.005175	0.267354
O27	O	0.929760	1.005177	0.267349
O28	O	1.272509	1.005169	0.075758
O29	O	0.929782	1.347881	-0.266943
O30	O	1.080887	0.662464	0.267303
O31	O	1.272492	0.662461	0.267310
O32	O	1.272495	0.662458	0.075708
O33	O	0.738175	1.347887	-0.075347
O34	O	0.929779	1.347883	-0.075341
O35	O	1.061725	0.892390	0.169355
O36	O	1.174522	0.892387	0.056566
O37	O	1.061738	1.117954	-0.056198
O38	O	0.948941	1.117958	0.056592
C39	C	1.005323	0.703684	0.000136
C40	C	1.005319	0.601361	0.000121
C41	C	0.922062	0.636488	-0.083102
C42	C	0.922080	0.540299	-0.083046
C43	C	1.088616	0.373857	0.083467
C44	C	1.088602	0.470045	0.083405
C45	C	0.825911	0.732582	-0.179234
C46	C	0.825929	0.636393	-0.179178
C47	C	0.703815	1.005178	0.000170
C48	C	0.601482	1.005180	0.000167
C49	C	0.553400	1.005181	-0.083094
C50	C	0.457254	1.005169	-0.083079
C51	C	0.457278	1.005160	0.083464
C52	C	0.553427	1.005163	0.083452
C53	C	0.601455	1.005198	-0.166379
C54	C	0.553372	1.005201	-0.249648
C55	C	0.457226	1.005189	-0.249633
C56	C	0.409164	1.005174	-0.166349
C57	C	1.306855	1.005167	0.000190
C58	C	1.409188	1.005165	0.000194
C59	C	1.005340	1.005169	-0.301335
C60	C	1.005341	1.005167	-0.403666
C61	C	1.005347	1.306661	0.000225
C62	C	1.005351	1.408984	0.000240
C63	C	0.922063	1.005181	-0.547901
C64	C	0.922071	1.005171	-0.451744
C65	C	1.088615	1.005161	-0.451744
C66	C	1.088610	1.005161	-0.547894
C67	C	0.825908	1.005192	-0.547903
C68	C	0.825916	1.005182	-0.451746
C69	C	1.005330	1.005176	0.301695
C70	C	1.005329	1.005178	0.404027
C71	C	1.306843	0.703678	0.000146
C72	C	1.409172	0.601354	0.000134
C73	C	1.005318	0.703688	0.301651
C74	C	1.005312	0.601366	0.403968
C75	C	1.306838	0.703682	0.301661
C76	C	1.409165	0.601359	0.403981
C77	C	0.703832	1.306663	-0.301300
C78	C	0.601504	1.408986	-0.403620
C79	C	0.703827	1.306667	0.000215
C80	C	0.601498	1.408991	0.000226
C81	C	1.005352	1.306657	-0.301290
C82	C	1.005357	1.408979	-0.403607
C83	C	1.398372	0.553278	-0.058746
C84	C	1.494525	0.457141	-0.058761
C85	C	1.612273	0.457159	0.058995
C86	C	1.516122	0.553301	0.059002
C87	C	1.330392	0.553263	-0.126728
C88	C	1.426545	0.457126	-0.126742
C89	C	1.064188	0.553290	0.510915
C90	C	1.064174	0.457154	0.607048
C91	C	0.946406	0.457174	0.489273
C92	C	0.946415	0.553315	0.393142
C93	C	1.132185	0.553274	0.578912
C94	C	1.132170	0.457138	0.675045
C95	C	1.516118	0.553281	0.393179
C96	C	1.612261	0.457144	0.489323
C97	C	1.494486	0.457167	0.607068
C98	C	1.398345	0.553309	0.510925
C99	C	1.584115	0.553263	0.325201
C100	C	1.680258	0.457126	0.421345
H101	H	1.156407	0.441433	0.151164
H102	H	1.156422	0.266931	0.151275
Br103	Br	0.698461	0.832048	-0.151239
Br104	Br	0.839698	0.854542	-0.516090
Br105	Br	1.245524	0.493050	-0.051958
H106	H	0.842715	0.911913	-0.375300
Br107	Br	1.765139	0.517330	0.435911
Br108	Br	1.282213	0.307120	0.762061
Br109	Br	0.689075	0.654409	-0.165335
H110	H	1.584137	0.643266	0.273017
H111	H	0.749441	1.098459	-0.624349
Br112	Br	1.530783	0.618566	0.138893
Br113	Br	1.277267	0.493062	0.564347
H114	H	1.732449	0.367105	0.421336
H115	H	0.418138	1.005150	0.151269
H116	H	0.592515	1.005202	-0.317451
Br117	Br	1.757421	0.391943	0.138880
Br118	Br	0.853926	0.636324	-0.306605
Br119	Br	0.731932	1.005227	-0.166409
Br120	Br	1.253194	0.618580	0.525589
Br121	Br	0.689076	1.155860	-0.483564
H122	H	0.592577	1.005160	0.151252
H123	H	0.418085	1.005178	-0.317428
Br124	Br	1.441100	0.517330	-0.271822
Br125	Br	1.479811	0.391955	0.752207
Br126	Br	1.201632	1.005124	-0.613121
Br127	Br	1.243388	0.703279	-0.276757
H128	H	1.087316	0.493267	0.725972
H129	H	0.330882	1.005151	-0.166338
H130	H	1.156421	1.005146	-0.412586
Br131	Br	1.426545	0.307090	-0.063726
Br132	Br	0.866484	0.618585	0.247998
Br133	Br	0.866474	0.391960	0.474591
Br134	Br	1.069168	0.703291	0.578953
H135	H	0.834188	0.795556	-0.261365
Br136	Br	1.569552	0.493050	0.240326
