data_functionalizedCrystal
_audit_creation_method	'MofGen! by Chris Wilmer'
_symmetry_space_group_name_H-M	'P1'
_symmetry_Int_Tables_number	1
_symmetry_cell_setting	triclinic
loop_
_symmetry_equiv_pos_as_xyz
  x,y,z
_cell_length_a	27.732048
_cell_length_b	27.732048
_cell_length_c	26.809956
_cell_angle_alpha	90.003258
_cell_angle_beta	90.012074
_cell_angle_gamma	97.357346
loop_
_atom_site_label
_atom_site_type_symbol
_atom_site_fract_x
_atom_site_fract_y
_atom_site_fract_z
O1	O	-0.057510	0.640931	0.041407
O2	O	0.192490	0.890931	0.291407
O3	O	0.442490	1.140931	0.541407
O4	O	0.692490	1.390931	0.791407
O5	O	-0.066256	0.500138	0.041421
O6	O	0.183744	0.750138	0.291421
O7	O	0.433744	1.000138	0.541421
O8	O	0.683744	1.250138	0.791421
O9	O	0.008514	0.574907	0.041421
O10	O	0.258514	0.824907	0.291421
O11	O	0.508514	1.074907	0.541421
O12	O	0.758514	1.324907	0.791421
O13	O	-0.132280	0.566162	0.041408
O14	O	0.117720	0.816162	0.291408
O15	O	0.367720	1.066162	0.541408
O16	O	0.617720	1.316162	0.791408
O17	O	0.008502	0.574893	-0.041539
O18	O	0.258502	0.824893	0.208461
O19	O	0.508502	1.074893	0.458461
O20	O	0.758502	1.324893	0.708461
O21	O	-0.066267	0.500123	-0.041538
O22	O	0.183733	0.750123	0.208462
O23	O	0.433733	1.000123	0.458462
O24	O	0.683733	1.250123	0.708462
O25	O	-0.057522	0.640917	-0.041552
O26	O	0.192478	0.890917	0.208448
O27	O	0.442478	1.140917	0.458448
O28	O	0.692478	1.390917	0.708448
Zn29	Zn	-0.061896	0.570518	-0.054716
Zn30	Zn	0.188104	0.820518	0.195284
Zn31	Zn	0.438104	1.070518	0.445284
Zn32	Zn	0.688104	1.320518	0.695284
Zn33	Zn	-0.061881	0.570536	0.054586
Zn34	Zn	0.188119	0.820536	0.304586
Zn35	Zn	0.438119	1.070536	0.554586
Zn36	Zn	0.688119	1.320536	0.804586
O37	O	-0.132291	0.566147	-0.041551
O38	O	0.117709	0.816147	0.208449
O39	O	0.367709	1.066147	0.458449
O40	O	0.617709	1.316147	0.708449
C41	C	-0.066078	0.482124	-0.000056
C42	C	0.183922	0.732124	0.249944
C43	C	0.433922	0.982124	0.499944
C44	C	0.683922	1.232124	0.749944
C45	C	-0.065525	0.428469	-0.000051
C46	C	0.184475	0.678469	0.249949
C47	C	0.434475	0.928469	0.499949
C48	C	0.684475	1.178469	0.749949
C49	C	-0.106229	0.089654	-0.000076
C50	C	0.143771	0.339654	0.249924
C51	C	0.393771	0.589654	0.499924
C52	C	0.643771	0.839654	0.749924
C53	C	-0.104178	-0.112006	-0.000080
C54	C	0.145822	0.137994	0.249920
C55	C	0.395822	0.387994	0.499920
C56	C	0.645822	0.637994	0.749920
O57	O	-0.141398	-0.143262	-0.000105
O58	O	0.108602	0.106738	0.249895
O59	O	0.358602	0.356738	0.499895
O60	O	0.608602	0.606738	0.749895
N61	N	-0.059843	-0.131130	-0.000075
N62	N	0.190157	0.118870	0.249925
N63	N	0.440157	0.368870	0.499925
N64	N	0.690157	0.618870	0.749925
C65	C	-0.016017	-0.099835	-0.000073
C66	C	0.233983	0.150165	0.249927
C67	C	0.483983	0.400165	0.499927
C68	C	0.733983	0.650165	0.749927
O69	O	0.021740	-0.120728	-0.000074
O70	O	0.271740	0.129272	0.249926
O71	O	0.521740	0.379272	0.499926
O72	O	0.771740	0.629272	0.749926
C73	C	-0.018068	0.101824	-0.000072
C74	C	0.231932	0.351824	0.249928
C75	C	0.481932	0.601824	0.499928
C76	C	0.731932	0.851824	0.749928
C77	C	-0.062407	0.120944	-0.000072
C78	C	0.187593	0.370944	0.249928
C79	C	0.437593	0.620944	0.499928
C80	C	0.687593	0.870944	0.749928
C81	C	-0.150563	0.108775	-0.000076
C82	C	0.099437	0.358775	0.249924
C83	C	0.349437	0.608775	0.499924
C84	C	0.599437	0.858775	0.749924
C85	C	-0.151076	0.159187	-0.000072
C86	C	0.098924	0.409187	0.249928
C87	C	0.348924	0.659187	0.499928
C88	C	0.598924	0.909187	0.749928
C89	C	-0.107253	0.190477	-0.000068
C90	C	0.142747	0.440477	0.249932
C91	C	0.392747	0.690477	0.499932
C92	C	0.642747	0.940477	0.749932
C93	C	-0.062919	0.171356	-0.000068
C94	C	0.187081	0.421356	0.249932
C95	C	0.437081	0.671356	0.499932
C96	C	0.687081	0.921356	0.749932
C97	C	0.025757	0.133117	-0.000073
C98	C	0.275757	0.383117	0.249927
C99	C	0.525757	0.633117	0.499927
C100	C	0.775757	0.883117	0.749927
C101	C	0.025240	0.183535	-0.000074
C102	C	0.275240	0.433535	0.249926
C103	C	0.525240	0.683535	0.499926
C104	C	0.775240	0.933535	0.749926
C105	C	-0.019098	0.202655	-0.000074
C106	C	0.230902	0.452655	0.249926
C107	C	0.480902	0.702655	0.499926
C108	C	0.730902	0.952655	0.749926
C109	C	-0.019609	0.253059	-0.000060
C110	C	0.230391	0.503059	0.249940
C111	C	0.480391	0.753059	0.499940
C112	C	0.730391	1.003059	0.749940
N113	N	-0.063944	0.272183	-0.000065
N114	N	0.186056	0.522183	0.249935
N115	N	0.436056	0.772183	0.499935
N116	N	0.686056	1.022183	0.749935
C117	C	-0.107766	0.240892	-0.000069
C118	C	0.142234	0.490892	0.249931
C119	C	0.392234	0.740892	0.499931
C120	C	0.642234	0.990892	0.749931
C121	C	-0.014943	-0.205709	-0.000072
C122	C	0.235057	0.044291	0.249928
C123	C	0.485057	0.294291	0.499928
C124	C	0.735057	0.544291	0.749928
C125	C	-0.014430	-0.256124	-0.000071
C126	C	0.235570	-0.006124	0.249929
C127	C	0.485570	0.243876	0.499929
C128	C	0.735570	0.493876	0.749929
C129	C	-0.102591	-0.268291	-0.000080
C130	C	0.147409	-0.018291	0.249920
C131	C	0.397409	0.231709	0.499920
C132	C	0.647409	0.481709	0.749920
C133	C	-0.103104	-0.217876	-0.000077
C134	C	0.146896	0.032124	0.249923
C135	C	0.396896	0.282124	0.499923
C136	C	0.646896	0.532124	0.749923
C137	C	-0.059278	-0.186585	-0.000077
C138	C	0.190722	0.063415	0.249923
C139	C	0.440722	0.313415	0.499923
C140	C	0.690722	0.563415	0.749923
C141	C	-0.108839	0.346761	-0.000061
C142	C	0.141161	0.596761	0.249939
C143	C	0.391161	0.846761	0.499939
C144	C	0.641161	1.096761	0.749939
C145	C	-0.109347	0.397178	-0.000055
C146	C	0.140653	0.647178	0.249945
C147	C	0.390653	0.897178	0.499945
C148	C	0.640653	1.147178	0.749945
C149	C	-0.021186	0.409341	-0.000049
C150	C	0.228814	0.659341	0.249951
C151	C	0.478814	0.909341	0.499951
C152	C	0.728814	1.159341	0.749951
C153	C	-0.020678	0.358929	-0.000052
C154	C	0.229322	0.608929	0.249948
C155	C	0.479322	0.858929	0.499948
C156	C	0.729322	1.108929	0.749948
C157	C	-0.064508	0.327639	-0.000060
C158	C	0.185492	0.577639	0.249940
C159	C	0.435492	0.827639	0.499940
C160	C	0.685492	1.077639	0.749940
O161	O	0.017592	0.284343	-0.000041
O162	O	0.267592	0.534343	0.249959
O163	O	0.517592	0.784343	0.499959
O164	O	0.767592	1.034343	0.749959
O165	O	-0.145518	0.261794	-0.000079
O166	O	0.104482	0.511794	0.249921
O167	O	0.354482	0.761794	0.499921
O168	O	0.604482	1.011794	0.749921
C169	C	-0.105716	0.039242	-0.000080
C170	C	0.144284	0.289242	0.249920
C171	C	0.394284	0.539242	0.499920
C172	C	0.644284	0.789242	0.749920
C173	C	-0.061382	0.020120	-0.000079
C174	C	0.188618	0.270120	0.249921
C175	C	0.438618	0.520120	0.499921
C176	C	0.688618	0.770120	0.749921
C177	C	-0.017560	0.051411	-0.000075
C178	C	0.232440	0.301411	0.249925
C179	C	0.482440	0.551411	0.499925
C180	C	0.732440	0.801411	0.749925
C181	C	-0.060869	-0.030294	-0.000079
C182	C	0.189131	0.219706	0.249921
C183	C	0.439131	0.469706	0.499921
C184	C	0.689131	0.719706	0.749921
C185	C	-0.104691	-0.061585	-0.000083
C186	C	0.145309	0.188415	0.249917
C187	C	0.395309	0.438415	0.499917
C188	C	0.645309	0.688415	0.749917
C189	C	-0.149026	-0.042461	-0.000087
C190	C	0.100974	0.207539	0.249913
C191	C	0.350974	0.457539	0.499913
C192	C	0.600974	0.707539	0.749913
C193	C	-0.149539	0.007951	-0.000084
C194	C	0.100461	0.257951	0.249916
C195	C	0.350461	0.507951	0.499916
C196	C	0.600461	0.757951	0.749916
C197	C	0.026775	0.032287	-0.000071
C198	C	0.276775	0.282287	0.249929
C199	C	0.526775	0.532287	0.499929
C200	C	0.776775	0.782287	0.749929
C201	C	0.027284	-0.018125	-0.000074
C202	C	0.277284	0.231875	0.249926
C203	C	0.527284	0.481875	0.499926
C204	C	0.777284	0.731875	0.749926
C205	C	-0.016538	-0.049416	-0.000078
C206	C	0.233462	0.200584	0.249922
C207	C	0.483462	0.450584	0.499922
C208	C	0.733462	0.700584	0.749922
C209	C	-0.150292	0.566338	-0.000073
C210	C	0.099708	0.816338	0.249927
C211	C	0.349708	1.066338	0.499927
C212	C	0.599708	1.316338	0.749927
C213	C	-0.203947	0.566891	-0.000078
C214	C	0.046053	0.816891	0.249922
C215	C	0.296053	1.066891	0.499922
C216	C	0.546053	1.316891	0.749922
C217	C	-0.542762	0.526187	-0.000050
C218	C	-0.292762	0.776187	0.249950
C219	C	-0.042762	1.026187	0.499950
C220	C	0.207238	1.276187	0.749950
C221	C	-0.744422	0.528238	-0.000044
C222	C	-0.494422	0.778238	0.249956
C223	C	-0.244422	1.028238	0.499956
C224	C	0.005578	1.278238	0.749956
O225	O	-0.775677	0.491017	-0.000019
O226	O	-0.525677	0.741017	0.249981
O227	O	-0.275677	0.991017	0.499981
O228	O	-0.025677	1.241017	0.749981
N229	N	-0.763546	0.572573	-0.000049
N230	N	-0.513546	0.822573	0.249951
N231	N	-0.263546	1.072573	0.499951
N232	N	-0.013546	1.322573	0.749951
C233	C	-0.732251	0.616399	-0.000053
C234	C	-0.482251	0.866399	0.249947
C235	C	-0.232251	1.116399	0.499947
C236	C	0.017749	1.366399	0.749947
O237	O	-0.753144	0.654156	-0.000052
O238	O	-0.503144	0.904156	0.249948
O239	O	-0.253144	1.154156	0.499948
O240	O	-0.003144	1.404156	0.749948
C241	C	-0.530592	0.614347	-0.000055
C242	C	-0.280592	0.864347	0.249945
C243	C	-0.030592	1.114347	0.499945
C244	C	0.219408	1.364347	0.749945
C245	C	-0.511472	0.570009	-0.000055
C246	C	-0.261472	0.820009	0.249945
C247	C	-0.011472	1.070009	0.499945
C248	C	0.238528	1.320009	0.749945
C249	C	-0.523641	0.481853	-0.000049
C250	C	-0.273641	0.731853	0.249951
C251	C	-0.023641	0.981853	0.499951
C252	C	0.226359	1.231853	0.749951
C253	C	-0.473229	0.481340	-0.000054
C254	C	-0.223229	0.731340	0.249946
C255	C	0.026771	0.981340	0.499946
C256	C	0.276771	1.231340	0.749946
C257	C	-0.441938	0.525162	-0.000058
C258	C	-0.191938	0.775162	0.249942
C259	C	0.058062	1.025162	0.499942
C260	C	0.308062	1.275162	0.749942
C261	C	-0.461060	0.569497	-0.000059
C262	C	-0.211060	0.819497	0.249941
C263	C	0.038940	1.069497	0.499941
C264	C	0.288940	1.319497	0.749941
C265	C	-0.499299	0.658172	-0.000054
C266	C	-0.249299	0.908172	0.249946
C267	C	0.000701	1.158172	0.499946
C268	C	0.250701	1.408172	0.749946
C269	C	-0.448881	0.657656	-0.000054
C270	C	-0.198881	0.907656	0.249946
C271	C	0.051119	1.157656	0.499946
C272	C	0.301119	1.407656	0.749946
C273	C	-0.429761	0.613317	-0.000054
C274	C	-0.179761	0.863317	0.249946
C275	C	0.070239	1.113317	0.499946
C276	C	0.320239	1.363317	0.749946
C277	C	-0.379357	0.612807	-0.000068
C278	C	-0.129357	0.862807	0.249932
C279	C	0.120643	1.112807	0.499932
C280	C	0.370643	1.362807	0.749932
N281	N	-0.360233	0.568472	-0.000063
N282	N	-0.110233	0.818472	0.249937
N283	N	0.139767	1.068472	0.499937
N284	N	0.389767	1.318472	0.749937
C285	C	-0.391524	0.524649	-0.000058
C286	C	-0.141524	0.774649	0.249942
C287	C	0.108476	1.024649	0.499942
C288	C	0.358476	1.274649	0.749942
C289	C	-0.838125	0.617473	-0.000052
C290	C	-0.588125	0.867473	0.249948
C291	C	-0.338125	1.117473	0.499948
C292	C	-0.088125	1.367473	0.749948
C293	C	-0.888539	0.617986	-0.000053
C294	C	-0.638539	0.867986	0.249947
C295	C	-0.388539	1.117986	0.499947
C296	C	-0.138539	1.367986	0.749947
C297	C	-0.900707	0.529825	-0.000044
C298	C	-0.650707	0.779825	0.249956
C299	C	-0.400707	1.029825	0.499956
C300	C	-0.150707	1.279825	0.749956
C301	C	-0.850291	0.529312	-0.000047
C302	C	-0.600291	0.779312	0.249953
C303	C	-0.350291	1.029312	0.499953
C304	C	-0.100291	1.279312	0.749953
C305	C	-0.819001	0.573138	-0.000047
C306	C	-0.569001	0.823138	0.249953
C307	C	-0.319001	1.073138	0.499953
C308	C	-0.069001	1.323138	0.749953
C309	C	-0.285655	0.523577	-0.000067
C310	C	-0.035655	0.773577	0.249933
C311	C	0.214345	1.023577	0.499933
C312	C	0.464345	1.273577	0.749933
C313	C	-0.235238	0.523069	-0.000073
C314	C	0.014762	0.773069	0.249927
C315	C	0.264762	1.023069	0.499927
C316	C	0.514762	1.273069	0.749927
C317	C	-0.223075	0.611229	-0.000080
C318	C	0.026925	0.861229	0.249920
C319	C	0.276925	1.111229	0.499920
C320	C	0.526925	1.361229	0.749920
C321	C	-0.273487	0.611738	-0.000076
C322	C	-0.023487	0.861738	0.249924
C323	C	0.226513	1.111738	0.499924
C324	C	0.476513	1.361738	0.749924
C325	C	-0.304777	0.567908	-0.000068
C326	C	-0.054777	0.817908	0.249932
C327	C	0.195223	1.067908	0.499932
C328	C	0.445223	1.317908	0.749932
O329	O	-0.348073	0.650008	-0.000088
O330	O	-0.098073	0.900008	0.249912
O331	O	0.151927	1.150008	0.499912
O332	O	0.401927	1.400008	0.749912
O333	O	-0.370621	0.486898	-0.000048
O334	O	-0.120621	0.736898	0.249952
O335	O	0.129379	0.986898	0.499952
O336	O	0.379379	1.236898	0.749952
C337	C	-0.593174	0.526699	-0.000046
C338	C	-0.343174	0.776699	0.249954
C339	C	-0.093174	1.026699	0.499954
C340	C	0.156826	1.276699	0.749954
C341	C	-0.612295	0.571034	-0.000046
C342	C	-0.362295	0.821034	0.249954
C343	C	-0.112295	1.071034	0.499954
C344	C	0.137705	1.321034	0.749954
C345	C	-0.581005	0.614856	-0.000051
C346	C	-0.331005	0.864856	0.249949
C347	C	-0.081005	1.114856	0.499949
C348	C	0.168995	1.364856	0.749949
C349	C	-0.662710	0.571547	-0.000047
C350	C	-0.412710	0.821547	0.249953
C351	C	-0.162710	1.071547	0.499953
C352	C	0.087290	1.321547	0.749953
C353	C	-0.694001	0.527725	-0.000042
C354	C	-0.444001	0.777725	0.249958
C355	C	-0.194001	1.027725	0.499958
C356	C	0.055999	1.277725	0.749958
C357	C	-0.674877	0.483389	-0.000037
C358	C	-0.424877	0.733389	0.249963
C359	C	-0.174877	0.983389	0.499963
C360	C	0.075123	1.233389	0.749963
C361	C	-0.624465	0.482877	-0.000041
C362	C	-0.374465	0.732877	0.249959
C363	C	-0.124465	0.982877	0.499959
C364	C	0.125535	1.232877	0.749959
C365	C	-0.600129	0.659191	-0.000056
C366	C	-0.350129	0.909191	0.249944
C367	C	-0.100129	1.159191	0.499944
C368	C	0.149871	1.409191	0.749944
C369	C	-0.650541	0.659700	-0.000053
C370	C	-0.400541	0.909700	0.249947
C371	C	-0.150541	1.159700	0.499947
C372	C	0.099459	1.409700	0.749947
C373	C	-0.681832	0.615878	-0.000048
C374	C	-0.431832	0.865878	0.249952
C375	C	-0.181832	1.115878	0.499952
C376	C	0.068168	1.365878	0.749952
C377	C	0.026515	0.574716	-0.000056
C378	C	0.276515	0.824716	0.249944
C379	C	0.526515	1.074716	0.499944
C380	C	0.776515	1.324716	0.749944
C381	C	0.080170	0.574164	-0.000048
C382	C	0.330170	0.824164	0.249952
C383	C	0.580170	1.074164	0.499952
C384	C	0.830170	1.324164	0.749952
C385	C	-0.057699	0.658931	-0.000073
C386	C	0.192301	0.908931	0.249927
C387	C	0.442301	1.158931	0.499927
C388	C	0.692301	1.408931	0.749927
C389	C	-0.058252	0.712586	-0.000076
C390	C	0.191748	0.962586	0.249924
C391	C	0.441748	1.212586	0.499924
C392	C	0.691748	1.462586	0.749924
N393	N	-0.061906	0.570509	-0.129312
N394	N	0.188094	0.820509	0.120688
N395	N	0.438094	1.070509	0.370688
N396	N	0.688094	1.320509	0.620688
C397	C	-0.028781	0.603640	-0.473939
C398	C	0.221219	0.853640	-0.223939
C399	C	0.471219	1.103640	0.026061
C400	C	0.721219	1.353640	0.276061
C401	C	-0.028774	0.603652	-0.682817
C402	C	0.221226	0.853652	-0.432817
C403	C	0.471226	1.103652	-0.182817
C404	C	0.721226	1.353652	0.067183
O405	O	-0.000613	0.631801	-0.709821
O406	O	0.249387	0.881801	-0.459821
O407	O	0.499387	1.131801	-0.209821
O408	O	0.749387	1.381801	0.040179
N409	N	-0.061870	0.570539	-0.708940
N410	N	0.188130	0.820539	-0.458940
N411	N	0.438130	1.070539	-0.208940
N412	N	0.688130	1.320539	0.041060
C413	C	-0.094969	0.537419	-0.682840
C414	C	0.155031	0.787419	-0.432840
C415	C	0.405031	1.037419	-0.182840
C416	C	0.655031	1.287419	0.067160
O417	O	-0.123116	0.509252	-0.709852
O418	O	0.126884	0.759252	-0.459852
O419	O	0.376884	1.009252	-0.209852
O420	O	0.626884	1.259252	0.040148
C421	C	-0.094974	0.537406	-0.473963
C422	C	0.155026	0.787406	-0.223963
C423	C	0.405026	1.037406	0.026037
C424	C	0.655026	1.287406	0.276037
C425	C	-0.061878	0.570524	-0.447843
C426	C	0.188122	0.820524	-0.197843
C427	C	0.438122	1.070524	0.052157
C428	C	0.688122	1.320524	0.302157
C429	C	0.004312	0.636755	-0.447818
C430	C	0.254312	0.886755	-0.197818
C431	C	0.504312	1.136755	0.052182
C432	C	0.754312	1.386755	0.302182
C433	C	0.004308	0.636754	-0.395602
C434	C	0.254308	0.886754	-0.145602
C435	C	0.504308	1.136754	0.104398
C436	C	0.754308	1.386754	0.354398
C437	C	-0.028789	0.603637	-0.369506
C438	C	0.221211	0.853637	-0.119506
C439	C	0.471211	1.103637	0.130494
C440	C	0.721211	1.353637	0.380494
C441	C	-0.061882	0.570522	-0.395627
C442	C	0.188118	0.820522	-0.145627
C443	C	0.438118	1.070522	0.104373
C444	C	0.688118	1.320522	0.354373
C445	C	-0.128070	0.504284	-0.447865
C446	C	0.121930	0.754284	-0.197865
C447	C	0.371930	1.004284	0.052135
C448	C	0.621930	1.254284	0.302135
C449	C	-0.128067	0.504283	-0.395642
C450	C	0.121933	0.754283	-0.145642
C451	C	0.371933	1.004283	0.104358
C452	C	0.621933	1.254283	0.354358
C453	C	-0.094972	0.537401	-0.369522
C454	C	0.155028	0.787401	-0.119522
C455	C	0.405028	1.037401	0.130478
C456	C	0.655028	1.287401	0.380478
C457	C	-0.094983	0.537405	-0.317314
C458	C	0.155017	0.787405	-0.067314
C459	C	0.405017	1.037405	0.182686
C460	C	0.655017	1.287405	0.432686
N461	N	-0.061887	0.570517	-0.291191
N462	N	0.188113	0.820517	-0.041191
N463	N	0.438113	1.070517	0.208809
N464	N	0.688113	1.320517	0.458809
C465	C	-0.028790	0.603633	-0.317287
C466	C	0.221210	0.853633	-0.067287
C467	C	0.471210	1.103633	0.182713
C468	C	0.721210	1.353633	0.432713
C469	C	-0.094965	0.537429	-0.792503
C470	C	0.155035	0.787429	-0.542503
C471	C	0.405035	1.037429	-0.292503
C472	C	0.655035	1.287429	-0.042503
C473	C	-0.094964	0.537433	-0.844722
C474	C	0.155036	0.787433	-0.594722
C475	C	0.405036	1.037433	-0.344722
C476	C	0.655036	1.287433	-0.094722
C477	C	-0.028768	0.603665	-0.844695
C478	C	0.221232	0.853665	-0.594695
C479	C	0.471232	1.103665	-0.344695
C480	C	0.721232	1.353665	-0.094695
C481	C	-0.028772	0.603663	-0.792475
C482	C	0.221228	0.853663	-0.542475
C483	C	0.471228	1.103663	-0.292475
C484	C	0.721228	1.353663	-0.042475
C485	C	-0.061868	0.570542	-0.766380
C486	C	0.188132	0.820542	-0.516380
C487	C	0.438132	1.070542	-0.266380
C488	C	0.688132	1.320542	-0.016380
C489	C	-0.028801	0.603628	-0.207629
C490	C	0.221199	0.853628	0.042371
C491	C	0.471199	1.103628	0.292371
C492	C	0.721199	1.353628	0.542371
C493	C	-0.028809	0.603625	-0.155408
C494	C	0.221191	0.853625	0.094592
C495	C	0.471191	1.103625	0.344592
C496	C	0.721191	1.353625	0.594592
C497	C	-0.095003	0.537392	-0.155440
C498	C	0.154997	0.787392	0.094560
C499	C	0.404997	1.037392	0.344560
C500	C	0.654997	1.287392	0.594560
C501	C	-0.094997	0.537396	-0.207656
C502	C	0.155003	0.787396	0.042344
C503	C	0.405003	1.037396	0.292344
C504	C	0.655003	1.287396	0.542344
C505	C	-0.061892	0.570516	-0.233750
C506	C	0.188108	0.820516	0.016250
C507	C	0.438108	1.070516	0.266250
C508	C	0.688108	1.320516	0.516250
O509	O	-0.123126	0.509266	-0.290278
O510	O	0.126874	0.759266	-0.040278
O511	O	0.376874	1.009266	0.209722
O512	O	0.626874	1.259266	0.459722
O513	O	-0.000640	0.631789	-0.290266
O514	O	0.249360	0.881789	-0.040266
O515	O	0.499360	1.131789	0.209734
O516	O	0.749360	1.381789	0.459734
C517	C	-0.028777	0.603642	-0.526155
C518	C	0.221223	0.853642	-0.276155
C519	C	0.471223	1.103642	-0.026155
C520	C	0.721223	1.353642	0.223845
C521	C	-0.061870	0.570527	-0.552275
C522	C	0.188130	0.820527	-0.302275
C523	C	0.438130	1.070527	-0.052275
C524	C	0.688130	1.320527	0.197725
C525	C	-0.094968	0.537410	-0.526180
C526	C	0.155032	0.787410	-0.276180
C527	C	0.405032	1.037410	-0.026180
C528	C	0.655032	1.287410	0.223820
C529	C	-0.061870	0.570531	-0.604494
C530	C	0.188130	0.820531	-0.354494
C531	C	0.438130	1.070531	-0.104494
C532	C	0.688130	1.320531	0.145506
C533	C	-0.028773	0.603647	-0.630590
C534	C	0.221227	0.853647	-0.380590
C535	C	0.471227	1.103647	-0.130590
C536	C	0.721227	1.353647	0.119410
C537	C	0.004324	0.636759	-0.604467
C538	C	0.254324	0.886759	-0.354467
C539	C	0.504324	1.136759	-0.104467
C540	C	0.754324	1.386759	0.145533
C541	C	0.004320	0.636758	-0.552251
C542	C	0.254320	0.886758	-0.302251
C543	C	0.504320	1.136758	-0.052251
C544	C	0.754320	1.386758	0.197749
C545	C	-0.128064	0.504298	-0.552303
C546	C	0.121936	0.754298	-0.302303
C547	C	0.371936	1.004298	-0.052303
C548	C	0.621936	1.254298	0.197697
C549	C	-0.128058	0.504303	-0.604519
C550	C	0.121942	0.754303	-0.354519
C551	C	0.371942	1.004303	-0.104519
C552	C	0.621942	1.254303	0.145481
C553	C	-0.094961	0.537419	-0.630615
C554	C	0.155039	0.787419	-0.380615
C555	C	0.405039	1.037419	-0.130615
C556	C	0.655039	1.287419	0.119385
N557	N	-0.061867	0.570549	0.129182
N558	N	0.188133	0.820549	0.379182
N559	N	0.438133	1.070549	0.629182
N560	N	0.688133	1.320549	0.879182
H561	H	-0.138273	-0.293777	-0.000083
H562	H	0.111727	-0.043777	0.249917
H563	H	0.361727	0.206223	0.499917
H564	H	0.611727	0.456223	0.749917
H565	H	0.031266	0.663722	-0.469061
H566	H	0.281266	0.913722	-0.219061
H567	H	0.531266	1.163722	0.030939
H568	H	0.781266	1.413722	0.280939
H569	H	-0.834727	0.493208	-0.000049
H570	H	-0.584727	0.743208	0.249951
H571	H	-0.334727	0.993208	0.499951
H572	H	-0.084727	1.243208	0.749951
H573	H	-0.145454	0.412743	-0.000054
H574	H	0.104546	0.662743	0.249946
H575	H	0.354546	0.912743	0.499946
H576	H	0.604546	1.162743	0.749946
Cl577	Cl	-0.136578	0.495789	-0.759704
Cl578	Cl	0.113422	0.745789	-0.509704
Cl579	Cl	0.363422	0.995789	-0.259704
Cl580	Cl	0.613422	1.245789	-0.009704
Cl581	Cl	0.045930	0.678392	-0.637284
Cl582	Cl	0.295930	0.928392	-0.387284
Cl583	Cl	0.545930	1.178392	-0.137284
Cl584	Cl	0.795930	1.428392	0.112716
Cl585	Cl	-0.714223	0.428299	-0.000033
Cl586	Cl	-0.464223	0.678299	0.249967
Cl587	Cl	-0.214223	0.928299	0.499967
Cl588	Cl	0.035777	1.178299	0.749967
H589	H	-0.514857	0.694277	-0.000054
H590	H	-0.264857	0.944277	0.249946
H591	H	-0.014857	1.194277	0.499946
H592	H	0.235143	1.444277	0.749946
Cl593	Cl	0.012799	0.645263	-0.122574
Cl594	Cl	0.262799	0.895263	0.127426
Cl595	Cl	0.512799	1.145263	0.377426
Cl596	Cl	0.762799	1.395263	0.627426
H597	H	-0.144530	0.321291	-0.000068
H598	H	0.105470	0.571291	0.249932
H599	H	0.355470	0.821291	0.499932
H600	H	0.605470	1.071291	0.749932
Cl601	Cl	-0.940053	0.474734	-0.000037
Cl602	Cl	-0.690053	0.724734	0.249963
Cl603	Cl	-0.440053	0.974734	0.499963
Cl604	Cl	-0.190053	1.224734	0.749963
H605	H	0.021674	-0.271687	-0.000064
H606	H	0.271674	-0.021687	0.249936
H607	H	0.521674	0.228313	0.499936
H608	H	0.771674	0.478313	0.749936
Cl609	Cl	-0.206818	0.183216	-0.000076
Cl610	Cl	0.043182	0.433216	0.249924
Cl611	Cl	0.293182	0.683216	0.499924
Cl612	Cl	0.543182	0.933216	0.749924
H613	H	0.031269	0.663725	-0.530988
H614	H	0.281269	0.913725	-0.280988
H615	H	0.531269	1.163725	-0.030988
H616	H	0.781269	1.413725	0.219012
Cl617	Cl	-0.912570	0.673727	-0.000060
Cl618	Cl	-0.662570	0.923727	0.249940
Cl619	Cl	-0.412570	1.173727	0.499940
Cl620	Cl	-0.162570	1.423727	0.749940
Cl621	Cl	-0.169670	0.462666	-0.637350
Cl622	Cl	0.080330	0.712666	-0.387350
Cl623	Cl	0.330330	0.962666	-0.137350
Cl624	Cl	0.580330	1.212666	0.112650
Cl625	Cl	-0.600435	0.427135	-0.000039
Cl626	Cl	-0.350435	0.677135	0.249961
Cl627	Cl	-0.100435	0.927135	0.499961
Cl628	Cl	0.149565	1.177135	0.749961
H629	H	0.063392	-0.033688	-0.000070
H630	H	0.313392	0.216312	0.249930
H631	H	0.563392	0.466312	0.499930
H632	H	0.813392	0.716312	0.749930
Cl633	Cl	0.045918	0.678386	-0.362771
Cl634	Cl	0.295918	0.928386	-0.112771
Cl635	Cl	0.545918	1.178386	0.137229
Cl636	Cl	0.795918	1.428386	0.387229
H637	H	-0.186251	0.083302	-0.000081
H638	H	0.063749	0.333302	0.249919
H639	H	0.313749	0.583302	0.499919
H640	H	0.563749	0.833302	0.749919
Cl641	Cl	0.035062	0.334890	-0.000055
Cl642	Cl	0.285062	0.584890	0.249945
Cl643	Cl	0.535062	0.834890	0.499945
Cl644	Cl	0.785062	1.084890	0.749945
H645	H	-0.001822	0.630630	-0.771211
H646	H	0.248178	0.880630	-0.521211
H647	H	0.498178	1.130630	-0.271211
H648	H	0.748178	1.380630	-0.021211
H649	H	-0.812652	0.653163	-0.000054
H650	H	-0.562652	0.903163	0.249946
H651	H	-0.312652	1.153163	0.499946
H652	H	-0.062652	1.403163	0.749946
Cl653	Cl	-0.674571	0.715445	-0.000052
Cl654	Cl	-0.424571	0.965445	0.249948
Cl655	Cl	-0.174571	1.215445	0.499948
Cl656	Cl	0.075429	1.465445	0.749948
Cl657	Cl	0.081872	0.071617	-0.000066
Cl658	Cl	0.331872	0.321617	0.249934
Cl659	Cl	0.581872	0.571617	0.499934
Cl660	Cl	0.831872	0.821617	0.749934
Cl661	Cl	-0.409548	0.712754	-0.000053
Cl662	Cl	-0.159548	0.962754	0.249947
Cl663	Cl	0.090452	1.212754	0.499947
Cl664	Cl	0.340452	1.462754	0.749947
Cl665	Cl	0.012840	0.645296	-0.877512
Cl666	Cl	0.262840	0.895296	-0.627512
Cl667	Cl	0.512840	1.145296	-0.377512
Cl668	Cl	0.762840	1.395296	-0.127512
H669	H	0.020747	-0.180236	-0.000072
H670	H	0.270747	0.069764	0.249928
H671	H	0.520747	0.319764	0.499928
H672	H	0.770747	0.569764	0.749928
H673	H	-0.289056	0.647842	-0.000084
H674	H	-0.039056	0.897842	0.249916
H675	H	0.210944	1.147842	0.499916
H676	H	0.460944	1.397842	0.749916
Cl677	Cl	-0.183729	0.666317	-0.000089
Cl678	Cl	0.066271	0.916317	0.249911
Cl679	Cl	0.316271	1.166317	0.499911
Cl680	Cl	0.566271	1.416317	0.749911
Cl681	Cl	0.080338	0.222868	-0.000075
Cl682	Cl	0.330338	0.472868	0.249925
Cl683	Cl	0.580338	0.722868	0.499925
Cl684	Cl	0.830338	0.972868	0.749925
Cl685	Cl	-0.560799	0.714288	-0.000064
Cl686	Cl	-0.310799	0.964288	0.249936
Cl687	Cl	-0.060799	1.214288	0.499936
Cl688	Cl	0.189201	1.464288	0.749936
Cl689	Cl	0.012817	0.645266	-0.240424
Cl690	Cl	0.262817	0.895266	0.009576
Cl691	Cl	0.512817	1.145266	0.259576
Cl692	Cl	0.762817	1.395266	0.509576
Cl693	Cl	-0.136578	0.495804	-0.877553
Cl694	Cl	0.113422	0.745804	-0.627553
Cl695	Cl	0.363422	0.995804	-0.377553
Cl696	Cl	0.613422	1.245804	-0.127553
H697	H	-0.155015	0.477330	-0.531059
H698	H	0.094985	0.727330	-0.281059
H699	H	0.344985	0.977330	-0.031059
H700	H	0.594985	1.227330	0.218941
Cl701	Cl	-0.169677	0.462641	-0.362841
Cl702	Cl	0.080323	0.712641	-0.112841
Cl703	Cl	0.330323	0.962641	0.137159
Cl704	Cl	0.580323	1.212641	0.387159
H705	H	-0.219673	0.486962	-0.000076
H706	H	0.030327	0.736962	0.249924
H707	H	0.280327	0.986962	0.499924
H708	H	0.530327	1.236962	0.749924
Cl709	Cl	-0.169676	0.462647	-0.480691
Cl710	Cl	0.080324	0.712647	-0.230691
Cl711	Cl	0.330324	0.962647	0.019309
Cl712	Cl	0.580324	1.212647	0.269309
Cl713	Cl	-0.205281	0.031981	-0.000084
Cl714	Cl	0.044719	0.281981	0.249916
Cl715	Cl	0.294719	0.531981	0.499916
Cl716	Cl	0.544719	0.781981	0.749916
Cl717	Cl	-0.204117	-0.081807	-0.000090
Cl718	Cl	0.045883	0.168193	0.249910
Cl719	Cl	0.295883	0.418193	0.499910
Cl720	Cl	0.545883	0.668193	0.749910
Cl721	Cl	-0.136609	0.495766	-0.240492
Cl722	Cl	0.113391	0.745766	0.009508
Cl723	Cl	0.363391	0.995766	0.259508
Cl724	Cl	0.613391	1.245766	0.509508
H725	H	-0.121952	0.510430	-0.134184
H726	H	0.128048	0.760430	0.115816
H727	H	0.378048	1.010430	0.365816
H728	H	0.628048	1.260430	0.615816
Cl729	Cl	0.081500	0.109093	-0.000065
Cl730	Cl	0.331500	0.359093	0.249935
Cl731	Cl	0.581500	0.609093	0.499935
Cl732	Cl	0.831500	0.859093	0.749935
H733	H	-0.457666	0.445236	-0.000049
H734	H	-0.207666	0.695236	0.249951
H735	H	0.042334	0.945236	0.499951
H736	H	0.292334	1.195236	0.749951
Cl737	Cl	-0.158845	-0.193844	-0.000078
Cl738	Cl	0.091155	0.056156	0.249922
Cl739	Cl	0.341155	0.306156	0.499922
Cl740	Cl	0.591155	0.556156	0.749922
H741	H	-0.311125	0.487886	-0.000060
H742	H	-0.061125	0.737886	0.249940
H743	H	0.188875	0.987886	0.499940
H744	H	0.438875	1.237886	0.749940
Cl745	Cl	-0.562970	0.426754	-0.000043
Cl746	Cl	-0.312970	0.676754	0.249957
Cl747	Cl	-0.062970	0.926754	0.499957
Cl748	Cl	0.187030	1.176754	0.749957
H749	H	0.014492	0.434827	-0.000044
H750	H	0.264492	0.684827	0.249956
H751	H	0.514492	0.934827	0.499956
H752	H	0.764492	1.184827	0.749956
