data_functionalizedCrystal
_audit_creation_method	'MofGen! by Chris Wilmer'
_symmetry_space_group_name_H-M	'P1'
_symmetry_Int_Tables_number	1
_symmetry_cell_setting	triclinic
loop_
_symmetry_equiv_pos_as_xyz
  x,y,z
_cell_length_a	13.897449
_cell_length_b	25.639239
_cell_length_c	25.639233
_cell_angle_alpha	89.981253
_cell_angle_beta	89.987757
_cell_angle_gamma	90.039966
loop_
_atom_site_label
_atom_site_type_symbol
_atom_site_fract_x
_atom_site_fract_y
_atom_site_fract_z
Zn1	Zn	1.474481	-0.208197	-0.295604
Zn2	Zn	1.474340	-0.295615	-0.208168
Zn3	Zn	1.313194	-0.208198	-0.208183
Zn4	Zn	1.313093	-0.295605	-0.295573
O5	O	1.393777	-0.251904	-0.251882
O6	O	1.609444	-0.219797	-0.284012
O7	O	1.452947	-0.284024	-0.135005
O8	O	1.334691	-0.135032	-0.219799
O9	O	1.609340	-0.284023	-0.219773
O10	O	1.453187	-0.135032	-0.284026
O11	O	1.334554	-0.219799	-0.135016
O12	O	1.178199	-0.219788	-0.219769
O13	O	1.334518	-0.284005	-0.368743
O14	O	1.178125	-0.284006	-0.283974
O15	O	1.453089	-0.219787	-0.368765
O16	O	1.452849	-0.368779	-0.219744
O17	O	1.334381	-0.368771	-0.283960
C18	C	1.143163	-0.251897	-0.251870
C19	C	1.035949	-0.251906	-0.251877
C20	C	0.839654	-0.251908	-0.251891
C21	C	0.948886	-0.251905	-0.251882
C22	C	1.393615	-0.387746	-0.251858
C23	C	1.393634	-0.445860	-0.251865
C24	C	1.455624	-0.806215	-0.218502
C25	C	1.455661	-0.860819	-0.218509
O26	O	1.508199	-0.889049	-0.190115
N27	N	1.393946	-0.888143	-0.251917
C28	C	1.332197	-0.860859	-0.285324
O29	O	1.279708	-0.889114	-0.313741
C30	C	1.332165	-0.806256	-0.285319
C31	C	1.393877	-0.778935	-0.251905
C32	C	1.517332	-0.778894	-0.185091
C33	C	1.517293	-0.724293	-0.185083
C34	C	1.455546	-0.697014	-0.218487
C35	C	1.393838	-0.724334	-0.251897
C36	C	1.270422	-0.778973	-0.318728
C37	C	1.270396	-0.724366	-0.318721
C38	C	1.332108	-0.697045	-0.285307
C39	C	1.332053	-0.642454	-0.285293
N40	N	1.393768	-0.615131	-0.251885
C41	C	1.455514	-0.642410	-0.218482
C42	C	1.332270	-0.975530	-0.285332
C43	C	1.332296	-1.030132	-0.285334
C44	C	1.455762	-1.030088	-0.218520
C45	C	1.455730	-0.975485	-0.218515
C46	C	1.393985	-0.948206	-0.251924
C47	C	1.455427	-0.527745	-0.218468
C48	C	1.455380	-0.473140	-0.218462
C49	C	1.331918	-0.473189	-0.285278
C50	C	1.331962	-0.527789	-0.285283
C51	C	1.393724	-0.555066	-0.251876
O52	O	1.279544	-0.614190	-0.313673
O53	O	1.508004	-0.614149	-0.190074
C54	C	1.645370	-0.251911	-0.251894
C55	C	1.752584	-0.251914	-0.251900
C56	C	1.393808	-0.251894	-0.388255
C57	C	1.393821	-0.251891	-0.446369
C58	C	1.393966	-0.115531	-0.251918
C59	C	1.394047	-0.057416	-0.251933
C60	C	1.455640	-0.218353	-0.806750
C61	C	1.455652	-0.218338	-0.861354
O62	O	1.508134	-0.189885	-0.889606
N63	N	1.393928	-0.251768	-0.888652
C64	C	1.332181	-0.285211	-0.861342
O65	O	1.279680	-0.313644	-0.889575
C66	C	1.332165	-0.285222	-0.806739
C67	C	1.393900	-0.251794	-0.779444
C68	C	1.517369	-0.184927	-0.779455
C69	C	1.517358	-0.184942	-0.724854
C70	C	1.455618	-0.218383	-0.697549
C71	C	1.393889	-0.251809	-0.724844
C72	C	1.270414	-0.318662	-0.779431
C73	C	1.270403	-0.318670	-0.724824
C74	C	1.332138	-0.285242	-0.697529
C75	C	1.332138	-0.285266	-0.642937
N76	N	1.393862	-0.251836	-0.615640
C77	C	1.455602	-0.218395	-0.642945
C78	C	1.332218	-0.285183	-0.976013
C79	C	1.332238	-0.285175	-1.030616
C80	C	1.455708	-0.218302	-1.030623
C81	C	1.455692	-0.218313	-0.976020
C82	C	1.393942	-0.251754	-0.948715
C83	C	1.455575	-0.218430	-0.528280
C84	C	1.455561	-0.218449	-0.473675
C85	C	1.332088	-0.285320	-0.473672
C86	C	1.332105	-0.285303	-0.528272
C87	C	1.393852	-0.251853	-0.555575
O88	O	1.279680	-0.313703	-0.614651
O89	O	1.508085	-0.189962	-0.614706
C90	C	1.393801	-0.251875	-0.116040
C91	C	1.393975	-0.251732	-0.057926
H92	H	1.505633	-0.450897	-0.191251
H93	H	1.567547	-0.702052	-0.157876
C94	C	1.577453	-0.522202	-0.152418
C95	C	1.523310	-0.557723	-0.181744
H96	H	1.619352	-0.540710	-0.129742
H97	H	1.614305	-0.500876	-0.175214
H98	H	1.535419	-0.500937	-0.132402
H99	H	1.565343	-0.578986	-0.201763
H100	H	1.486455	-0.579058	-0.158944
H101	H	1.505978	-0.191071	-1.052865
H102	H	1.567645	-0.157692	-0.801681
H103	H	1.505851	-0.191190	-0.550504
C104	C	1.210256	-1.024677	-0.351376
C105	C	1.264455	-1.060159	-0.322061
H106	H	1.168380	-1.043214	-0.374054
H107	H	1.173377	-1.003414	-0.328574
H108	H	1.252256	-1.003345	-0.371390
H109	H	1.222454	-1.081489	-0.302044
H110	H	1.301336	-1.081431	-0.344866
H111	H	1.505837	-0.191228	-0.451454
C112	C	1.140590	-0.663034	-0.325926
C113	C	1.202520	-0.694382	-0.355445
H114	H	1.098692	-0.644523	-0.348598
H115	H	1.103739	-0.684367	-0.303135
H116	H	1.177343	-0.638947	-0.306030
H117	H	1.165768	-0.718473	-0.375338
H118	H	1.239375	-0.673047	-0.378244
C119	C	1.210193	-0.351294	-0.981499
C120	C	1.264354	-0.321955	-0.946002
H121	H	1.168303	-0.373997	-0.962972
H122	H	1.173331	-0.328508	-1.002793
H123	H	1.252216	-0.371282	-1.002799
H124	H	1.222331	-0.301964	-0.924705
H125	H	1.301219	-0.344743	-0.924699
C126	C	1.585439	-0.211056	-0.914620
C127	C	1.523542	-0.181564	-0.946019
H128	H	1.627328	-0.188366	-0.896103
H129	H	1.548667	-0.230967	-0.890542
H130	H	1.622309	-0.233832	-0.935923
H131	H	1.486666	-0.158790	-0.924716
H132	H	1.560317	-0.161644	-0.970100
C133	C	1.585635	-1.091376	-0.211388
C134	C	1.523721	-1.060058	-0.181828
H135	H	1.627612	-1.109870	-0.188743
H136	H	1.548882	-1.115475	-0.231262
H137	H	1.622411	-1.070022	-0.234201
H138	H	1.486939	-1.081413	-0.159017
H139	H	1.560477	-1.035956	-0.161945
H140	H	1.281714	-0.550035	-0.312493
H141	H	1.281642	-0.450969	-0.312473
H142	H	1.567618	-0.801099	-0.157890
C143	C	1.639388	-0.118836	-0.730364
C144	C	1.585208	-0.148190	-0.694856
H145	H	1.681271	-0.096142	-0.711846
H146	H	1.676259	-0.141613	-0.751657
H147	H	1.597377	-0.098837	-0.751664
H148	H	1.627219	-0.168191	-0.673559
H149	H	1.548335	-0.125410	-0.673554
C150	C	1.318756	-0.355501	-1.092004
C151	C	1.264390	-0.321929	-1.060612
H152	H	1.276865	-0.378193	-1.110518
H153	H	1.355509	-0.335583	-1.116085
H154	H	1.360755	-0.375499	-1.070697
H155	H	1.222396	-0.301928	-1.081919
H156	H	1.227621	-0.341849	-1.036528
H157	H	1.220107	-0.345896	-0.702595
C158	C	1.148349	-0.384748	-0.773915
C159	C	1.202543	-0.355403	-0.809424
H160	H	1.106440	-0.407429	-0.792432
H161	H	1.190343	-0.404755	-0.752622
H162	H	1.111497	-0.361961	-0.752615
H163	H	1.239401	-0.378191	-0.830721
H164	H	1.160543	-0.335394	-0.830726
H165	H	1.505981	-0.953243	-0.191307
H166	H	1.281845	-0.312528	-0.550497
H167	H	1.281824	-0.312549	-0.451430
H168	H	1.220164	-0.801208	-0.345935
C169	C	1.318717	-0.914109	-0.355657
C170	C	1.264383	-0.945547	-0.322053
H171	H	1.276807	-0.895604	-0.378328
H172	H	1.355453	-0.890020	-0.335762
H173	H	1.360731	-0.935383	-0.375676
H174	H	1.222375	-0.924272	-0.302031
H175	H	1.227631	-0.969639	-0.341950
