data_functionalizedCrystal
_audit_creation_method	'MofGen! by Chris Wilmer'
_symmetry_space_group_name_H-M	'P1'
_symmetry_Int_Tables_number	1
_symmetry_cell_setting	triclinic
loop_
_symmetry_equiv_pos_as_xyz
  x,y,z
_cell_length_a	12.759401
_cell_length_b	16.120256
_cell_length_c	16.120484
_cell_angle_alpha	95.616173
_cell_angle_beta	92.924498
_cell_angle_gamma	92.881279
loop_
_atom_site_label
_atom_site_type_symbol
_atom_site_fract_x
_atom_site_fract_y
_atom_site_fract_z
Zn1	Zn	1.552084	-0.489396	-0.356780
Zn2	Zn	1.551952	-0.356706	-0.489465
Zn3	Zn	1.385774	-0.349648	-0.349710
Zn4	Zn	1.366963	-0.496436	-0.496509
O5	O	1.464193	-0.423047	-0.423116
O6	O	1.699086	-0.471802	-0.374392
O7	O	1.537725	-0.238807	-0.465020
O8	O	1.415763	-0.362286	-0.233682
O9	O	1.698989	-0.374315	-0.471875
O10	O	1.537950	-0.464958	-0.238876
O11	O	1.415635	-0.233621	-0.362342
O12	O	1.236259	-0.369112	-0.369172
O13	O	1.383702	-0.612465	-0.483880
O14	O	1.222438	-0.476957	-0.477024
O15	O	1.519710	-0.607293	-0.381222
O16	O	1.519485	-0.381142	-0.607365
O17	O	1.383574	-0.483801	-0.612540
C18	C	1.191228	-0.423033	-0.423096
C19	C	1.074449	-0.423048	-0.423108
C20	C	0.909888	-0.473904	-0.372469
C21	C	1.019613	-0.473898	-0.372452
C22	C	1.019554	-0.372209	-0.473790
C23	C	0.909829	-0.372220	-0.473811
C24	C	1.164999	-0.571003	-0.347695
C25	C	1.219892	-0.621833	-0.297005
C26	C	1.188910	-0.630684	-0.216129
C27	C	1.103040	-0.588692	-0.185926
C28	C	1.048153	-0.537856	-0.236611
C29	C	1.079131	-0.529021	-0.317499
C30	C	0.764443	-0.275113	-0.498560
C31	C	0.709555	-0.224272	-0.549241
C32	C	0.740534	-0.215412	-0.630118
C33	C	0.826409	-0.257389	-0.660317
C34	C	0.881298	-0.308231	-0.609636
C35	C	0.850310	-0.317091	-0.528760
C36	C	1.449622	-0.641054	-0.434125
C37	C	1.443413	-0.733956	-0.438817
C38	C	1.496573	-0.942880	-0.398629
C39	C	1.432044	-0.904041	-0.447347
C40	C	1.438372	-0.809397	-0.442599
C41	C	1.490246	-1.037533	-0.403376
C42	C	1.738224	-0.423060	-0.423137
C43	C	1.855000	-0.423066	-0.423145
C44	C	1.449501	-0.434019	-0.640281
C45	C	1.443310	-0.438741	-0.733187
C46	C	1.478772	-0.205884	-0.412089
C47	C	1.485200	-0.112971	-0.407162
C48	C	1.432012	-0.447380	-0.903287
C49	C	1.496562	-0.398727	-0.942105
C50	C	1.490275	-0.403533	-1.036754
C51	C	1.438297	-0.442575	-0.808629
C52	C	1.478970	-0.412049	-0.205104
C53	C	1.485267	-0.407363	-0.112200
H54	H	0.978133	-0.503775	-0.212069
H55	H	1.556545	-0.353463	-0.904254
H56	H	1.077830	-0.595894	-0.120064
C57	C	1.350975	-0.508515	-0.954413
H58	H	1.357324	-0.503756	-1.012242
H59	H	1.363455	-0.563976	-0.942963
H60	H	1.282141	-0.495514	-0.939592
C61	C	1.350996	-0.955137	-0.508517
H62	H	1.311338	-0.918320	-0.538457
H63	H	1.386488	-0.991042	-0.546610
H64	H	1.305148	-0.987563	-0.478212
C65	C	0.849577	-0.529843	-0.316750
H66	H	0.897984	-0.560125	-0.286574
H67	H	0.811353	-0.496098	-0.278676
H68	H	0.802197	-0.567833	-0.350635
C69	C	0.860496	-0.247651	-0.749281
H70	H	0.919505	-0.279927	-0.760005
H71	H	0.804172	-0.266441	-0.788509
H72	H	0.878858	-0.190567	-0.754208
C73	C	1.577622	-0.891785	-0.337470
H74	H	1.617276	-0.928597	-0.307520
H75	H	1.623457	-0.859357	-0.367775
H76	H	1.542125	-0.855881	-0.299370
C77	C	1.249285	-0.686601	-0.160375
H78	H	1.304856	-0.710344	-0.189946
H79	H	1.277470	-0.654050	-0.111253
H80	H	1.202773	-0.729921	-0.145546
H81	H	1.289807	-0.656023	-0.321604
H82	H	0.739208	-0.282324	-0.432703
H83	H	1.190225	-0.563809	-0.413553
H84	H	0.639344	-0.190385	-0.524778
C85	C	1.079870	-0.316274	-0.529509
H86	H	1.153081	-0.323540	-0.522233
H87	H	1.057298	-0.331250	-0.586305
H88	H	1.066455	-0.259513	-0.514349
H89	H	0.951223	-0.342410	-0.634231
C90	C	0.680157	-0.159487	-0.685866
H91	H	0.624574	-0.135754	-0.656301
H92	H	0.726661	-0.116172	-0.700702
H93	H	0.651968	-0.192047	-0.734988
