data_functionalizedCrystal
_audit_creation_method	'MofGen! by Chris Wilmer'
_symmetry_space_group_name_H-M	'P1'
_symmetry_Int_Tables_number	1
_symmetry_cell_setting	triclinic
loop_
_symmetry_equiv_pos_as_xyz
  x,y,z
_cell_length_a	16.992695
_cell_length_b	16.974885
_cell_length_c	9.730223
_cell_angle_alpha	93.648733
_cell_angle_beta	89.995280
_cell_angle_gamma	87.023153
loop_
_atom_site_label
_atom_site_type_symbol
_atom_site_fract_x
_atom_site_fract_y
_atom_site_fract_z
O1	O	0.099901	1.055447	0.002993
O2	O	0.599901	1.555447	0.502993
O3	O	0.112635	0.826048	-0.022502
O4	O	0.612635	1.326048	0.477498
O5	O	-0.007874	0.939828	-0.009846
O6	O	0.492126	1.439828	0.490154
O7	O	0.220410	0.941667	-0.009663
O8	O	0.720410	1.441667	0.490337
O9	O	-0.007877	0.939820	0.218733
O10	O	0.492123	1.439820	0.718733
O11	O	0.112632	0.826040	0.206077
O12	O	0.612632	1.326040	0.706077
O13	O	0.099898	1.055439	0.231572
O14	O	0.599898	1.555439	0.731572
Zn15	Zn	0.106264	0.940738	0.255116
Zn16	Zn	0.606264	1.440738	0.755116
Zn17	Zn	0.106269	0.940749	-0.046047
Zn18	Zn	0.606269	1.440749	0.453953
O19	O	0.220406	0.941659	0.218916
O20	O	0.720406	1.441659	0.718916
C21	C	0.112150	0.796555	0.088510
C22	C	0.612150	1.296555	0.588510
C23	C	0.110701	0.708688	0.078746
C24	C	0.610701	1.208688	0.578746
C25	C	0.102515	0.214090	0.010310
C26	C	0.602515	0.714090	0.510310
C27	C	0.103877	0.296651	0.019504
C28	C	0.603877	0.796651	0.519504
C29	C	0.104562	0.337919	0.148701
C30	C	0.604562	0.837919	0.648701
C31	C	0.103877	0.296622	0.268711
C32	C	0.603877	0.796622	0.768711
C33	C	0.102509	0.214063	0.259516
C34	C	0.602509	0.714063	0.759516
C35	C	0.108648	0.584832	0.189561
C36	C	0.608648	1.084832	0.689561
C37	C	0.110018	0.667396	0.198747
C38	C	0.610018	1.167396	0.698747
C39	C	0.110016	0.667420	-0.050461
C40	C	0.610016	1.167420	0.449539
C41	C	0.108653	0.584859	-0.059645
C42	C	0.608653	1.084859	0.440355
C43	C	0.107964	0.543570	0.060366
C44	C	0.607964	1.043570	0.560366
N45	N	0.105957	0.422309	0.158101
N46	N	0.605957	0.922309	0.658101
N47	N	0.106564	0.459182	0.050964
N48	N	0.606564	0.959182	0.550964
C49	C	-0.037085	0.937458	0.104180
C50	C	0.462915	1.437458	0.604180
C51	C	-0.124121	0.930398	0.103395
C52	C	0.375879	1.430398	0.603395
C53	C	-0.174437	0.998513	0.110967
C54	C	0.325563	1.498513	0.610967
C55	C	-0.256217	0.991875	0.110216
C56	C	0.243783	1.491875	0.610216
C57	C	-0.287678	0.917122	0.101904
C58	C	0.212322	1.417122	0.601904
C59	C	-0.237356	0.849002	0.094328
C60	C	0.262644	1.349002	0.594328
C61	C	-0.155578	0.855641	0.095069
C62	C	0.344422	1.355641	0.595069
C63	C	-0.531246	0.889607	0.098827
C64	C	-0.031246	1.389607	0.598827
C65	C	-0.613030	0.882974	0.098091
C66	C	-0.113030	1.382974	0.598091
C67	C	-0.631885	1.025848	0.113977
C68	C	-0.131885	1.525848	0.613977
C69	C	-0.550105	1.032480	0.114725
C70	C	-0.050105	1.532480	0.614725
C71	C	-0.499789	0.964360	0.107142
C72	C	0.000211	1.464360	0.607142
N73	N	-0.371270	0.910335	0.101141
N74	N	0.128730	1.410335	0.601141
N75	N	-0.416200	0.971147	0.107895
N76	N	0.083800	1.471147	0.607895
C77	C	0.249618	0.944029	0.104886
C78	C	0.749618	1.444029	0.604886
C79	C	0.336654	0.951089	0.105662
C80	C	0.836654	1.451089	0.605662
C81	C	0.100383	1.084932	0.120556
C82	C	0.600383	1.584932	0.620556
C83	C	0.101832	1.172799	0.130312
C84	C	0.601832	1.672799	0.630312
N85	N	0.106261	0.940737	0.460652
N86	N	0.606261	1.440737	0.960652
N87	N	0.106266	0.940756	-0.251582
N88	N	0.606266	1.440756	0.248418
C89	C	0.052922	0.991138	0.538185
C90	C	0.552922	1.491138	1.038185
C91	C	0.052922	0.991146	0.682068
C92	C	0.552922	1.491146	1.182068
C93	C	0.159607	0.890349	0.670875
C94	C	0.659607	1.390349	1.170875
C95	C	0.159603	0.890338	0.526993
C96	C	0.659603	1.390338	1.026993
H97	H	0.104430	0.330229	0.373906
H98	H	0.604430	0.830229	0.873906
H99	H	-0.672859	1.081307	0.120148
H100	H	-0.172859	1.581307	0.620148
H101	H	0.108095	0.551265	-0.164850
H102	H	0.608095	1.051265	0.335150
H103	H	0.101962	0.180444	0.357235
H104	H	0.601962	0.680444	0.857235
H105	H	-0.638642	0.822098	0.091344
H106	H	-0.138642	1.322098	0.591344
H107	H	-0.297181	1.047341	0.116385
H108	H	0.202819	1.547341	0.616385
H109	H	0.009488	1.032186	0.745192
H110	H	0.509488	1.532186	1.245192
H111	H	-0.490288	0.834139	0.092652
H112	H	0.009712	1.334139	0.592652
H113	H	0.203038	0.849316	0.724905
H114	H	0.703038	1.349316	1.224905
H115	H	0.203038	0.849291	0.463862
H116	H	0.703038	1.349291	0.963862
H117	H	-0.148828	1.059385	0.117744
H118	H	0.351172	1.559385	0.617744
H119	H	-0.524495	1.093352	0.121494
H120	H	-0.024495	1.593352	0.621494
H121	H	0.110577	0.701047	-0.148167
H122	H	0.610577	1.201047	0.351833
H123	H	-0.262979	0.788136	0.087551
H124	H	0.237021	1.288136	0.587551
H125	H	-0.114611	0.800174	0.088903
H126	H	0.385389	1.300174	0.588903
H127	H	0.110581	0.700994	0.303960
H128	H	0.610581	1.200994	0.803960
H129	H	0.009487	1.032175	0.484173
H130	H	0.509487	1.532175	0.984173
H131	H	0.101963	0.180496	-0.094896
H132	H	0.601963	0.680496	0.405104
H133	H	0.108075	0.551225	0.287283
H134	H	0.608075	1.051225	0.787283
H135	H	0.104428	0.330267	-0.078214
H136	H	0.604428	0.830267	0.421786
