data_functionalizedCrystal
_audit_creation_method	'MofGen! by Chris Wilmer'
_symmetry_space_group_name_H-M	'P1'
_symmetry_Int_Tables_number	1
_symmetry_cell_setting	triclinic
loop_
_symmetry_equiv_pos_as_xyz
  x,y,z
_cell_length_a	16.625546
_cell_length_b	21.295420
_cell_length_c	16.625539
_cell_angle_alpha	89.978382
_cell_angle_beta	90.030397
_cell_angle_gamma	89.980117
loop_
_atom_site_label
_atom_site_type_symbol
_atom_site_fract_x
_atom_site_fract_y
_atom_site_fract_z
Zn1	Zn	-0.321056	-0.962366	0.455920
Zn2	Zn	0.178944	-0.462366	0.955920
Zn3	Zn	-0.455899	-0.962290	0.321082
Zn4	Zn	0.044101	-0.462290	0.821082
Zn5	Zn	-0.321078	-0.857096	0.321098
Zn6	Zn	0.178922	-0.357096	0.821098
Zn7	Zn	-0.455844	-0.857073	0.455870
Zn8	Zn	0.044156	-0.357073	0.955870
O9	O	-0.388469	-0.909707	0.388493
O10	O	0.111531	-0.409707	0.888493
O11	O	-0.338957	-1.050445	0.438048
O12	O	0.161043	-0.550445	0.938048
O13	O	-0.438047	-0.948314	0.208252
O14	O	0.061953	-0.448314	0.708252
O15	O	-0.208243	-0.871102	0.339010
O16	O	0.291757	-0.371102	0.839010
O17	O	-0.438025	-1.050390	0.338983
O18	O	0.061975	-0.550390	0.838983
O19	O	-0.208226	-0.948443	0.438063
O20	O	0.291774	-0.448443	0.938063
O21	O	-0.338994	-0.871029	0.208264
O22	O	0.161006	-0.371029	0.708264
O23	O	-0.338941	-0.769004	0.338962
O24	O	0.161059	-0.269004	0.838962
O25	O	-0.437932	-0.871063	0.568709
O26	O	0.062068	-0.371063	1.068709
O27	O	-0.437953	-0.768987	0.437978
O28	O	0.062047	-0.268987	0.937978
O29	O	-0.338904	-0.948421	0.568746
O30	O	0.161096	-0.448421	1.068746
O31	O	-0.568724	-0.948292	0.338935
O32	O	-0.068724	-0.448292	0.838935
O33	O	-0.568684	-0.870989	0.437962
O34	O	-0.068684	-0.370989	0.937962
C35	C	-0.597960	-0.909647	0.388459
C36	C	-0.097960	-0.409647	0.888459
C37	C	-0.687581	-0.909679	0.388471
C38	C	-0.187581	-0.409679	0.888471
C39	C	-0.388444	-0.746155	0.388466
C40	C	0.111556	-0.246155	0.888466
C41	C	-0.388453	-0.676187	0.388474
C42	C	0.111547	-0.176187	0.888474
C43	C	-1.015757	-0.909789	0.388555
C44	C	-0.515757	-0.409789	0.888555
C45	C	-0.924448	-0.909756	0.388534
C46	C	-0.424448	-0.409756	0.888534
C47	C	-0.851672	-0.909733	0.388513
C48	C	-0.351672	-0.409733	0.888513
C49	C	-0.760358	-0.909702	0.388493
C50	C	-0.260358	-0.409702	0.888493
C51	C	-0.440106	-0.176737	0.439986
C52	C	0.059894	0.323263	0.939986
C53	C	-0.440107	-0.242479	0.439979
C54	C	0.059893	0.257521	0.939979
C55	C	-0.388476	-0.275347	0.388506
C56	C	0.111524	0.224653	0.888506
C57	C	-0.336853	-0.242468	0.337021
C58	C	0.163147	0.257532	0.837021
C59	C	-0.336859	-0.176727	0.337024
C60	C	0.163141	0.323273	0.837024
N61	N	-0.317880	-0.378581	0.382442
N62	N	0.182120	0.121419	0.882442
N63	N	-0.317877	-0.441032	0.382444
N64	N	0.182123	0.058968	0.882444
C65	C	-0.388457	-0.473422	0.388492
C66	C	0.111543	0.026578	0.888492
N67	N	-0.459041	-0.441001	0.394554
N68	N	0.040959	0.058999	0.894554
N69	N	-0.459044	-0.378544	0.394557
N70	N	0.040956	0.121456	0.894557
C71	C	-0.388464	-0.346633	0.388496
C72	C	0.111536	0.153367	0.888496
C73	C	-0.440082	-0.577579	0.439962
C74	C	0.059918	-0.077579	0.939962
C75	C	-0.440085	-0.643323	0.439949
C76	C	0.059915	-0.143323	0.939949
C77	C	-0.336823	-0.643311	0.336995
C78	C	0.163177	-0.143311	0.836995
C79	C	-0.336827	-0.577568	0.337004
C80	C	0.163173	-0.077568	0.837004
C81	C	-0.388455	-0.544706	0.388491
C82	C	0.111545	-0.044706	0.888491
C83	C	-0.178160	-0.909783	0.388544
C84	C	0.321840	-0.409783	0.888544
C85	C	-0.088539	-0.909816	0.388566
C86	C	0.411461	-0.409816	0.888566
C87	C	-0.388409	-0.909747	0.598802
C88	C	0.111591	-0.409747	1.098802
C89	C	-0.388383	-0.909765	0.688423
C90	C	0.111617	-0.409765	1.188423
C91	C	-0.388490	-0.073897	0.388515
C92	C	0.111510	0.426103	0.888515
C93	C	-0.388487	-0.143865	0.388511
C94	C	0.111513	0.356135	0.888511
C95	C	-0.388471	-0.909702	0.179002
C96	C	0.111529	-0.409702	0.679002
C97	C	-0.388269	-0.909807	0.089381
C98	C	0.111731	-0.409807	0.589381
C99	C	-0.388293	-0.909794	1.016599
C100	C	0.111707	-0.409794	1.516599
C101	C	-0.388321	-0.909784	0.925290
C102	C	0.111679	-0.409784	1.425290
C103	C	-0.388339	-0.909780	0.852514
C104	C	0.111661	-0.409780	1.352514
C105	C	-0.388365	-0.909769	0.761199
C106	C	0.111635	-0.409769	1.261199
H107	H	-0.482149	-0.149985	0.481908
H108	H	0.017851	0.350015	0.981908
H109	H	-0.294822	-0.149963	0.295107
H110	H	0.205178	0.350037	0.795107
C111	C	-0.280029	-0.679462	0.280372
C112	C	0.219971	-0.179462	0.780372
N113	N	-0.237252	-0.706694	0.237720
N114	N	0.262748	-0.206694	0.737720
C115	C	-0.496889	-0.278645	0.496613
C116	C	0.003111	0.221355	0.996613
N117	N	-0.539655	-0.305884	0.539272
N118	N	-0.039655	0.194116	1.039272
C119	C	-0.280053	-0.278624	0.280405
C120	C	0.219947	0.221376	0.780405
N121	N	-0.237269	-0.305857	0.237761
N122	N	0.262731	0.194143	0.737761
C123	C	-0.496879	-0.541429	0.496593
C124	C	0.003121	-0.041429	0.996593
N125	N	-0.539660	-0.514203	0.539247
N126	N	-0.039660	-0.014203	1.039247
C127	C	-0.496877	-0.679482	0.496574
C128	C	0.003123	-0.179482	0.996574
N129	N	-0.539654	-0.706717	0.539225
N130	N	-0.039654	-0.206717	1.039225
H131	H	-0.294790	-0.550804	0.295091
H132	H	0.205210	-0.050804	0.795091
