data_functionalizedCrystal
_audit_creation_method	'MofGen! by Chris Wilmer'
_symmetry_space_group_name_H-M	'P1'
_symmetry_Int_Tables_number	1
_symmetry_cell_setting	triclinic
loop_
_symmetry_equiv_pos_as_xyz
  x,y,z
_cell_length_a	16.625539
_cell_length_b	19.805407
_cell_length_c	19.805404
_cell_angle_alpha	89.972033
_cell_angle_beta	89.967673
_cell_angle_gamma	90.028037
loop_
_atom_site_label
_atom_site_type_symbol
_atom_site_fract_x
_atom_site_fract_y
_atom_site_fract_z
Zn1	Zn	-0.456047	-1.034735	-0.269487
Zn2	Zn	-0.122714	-0.701402	0.063846
Zn3	Zn	0.210619	-0.368068	0.397180
Zn4	Zn	-0.321205	-1.034640	-0.382680
Zn5	Zn	0.012128	-0.701307	-0.049347
Zn6	Zn	0.345461	-0.367973	0.283986
Zn7	Zn	-0.321210	-0.921546	-0.269508
Zn8	Zn	0.012123	-0.588212	0.063825
Zn9	Zn	0.345456	-0.254879	0.397159
Zn10	Zn	-0.455977	-0.921507	-0.382637
Zn11	Zn	-0.122644	-0.588174	-0.049303
Zn12	Zn	0.210689	-0.254841	0.284030
O13	O	-0.388610	-0.978107	-0.326078
O14	O	-0.055277	-0.644774	0.007255
O15	O	0.278057	-0.311440	0.340589
O16	O	-0.438187	-1.129439	-0.284512
O17	O	-0.104854	-0.796106	0.048822
O18	O	0.228479	-0.462772	0.382155
O19	O	-0.208373	-1.019614	-0.367695
O20	O	0.124960	-0.686281	-0.034361
O21	O	0.458293	-0.352948	0.298972
O22	O	-0.339128	-0.936616	-0.174788
O23	O	-0.005795	-0.603283	0.158545
O24	O	0.327538	-0.269950	0.491878
O25	O	-0.339119	-1.129369	-0.367674
O26	O	-0.005786	-0.796036	-0.034341
O27	O	0.327547	-0.462703	0.298992
O28	O	-0.438193	-1.019776	-0.174773
O29	O	-0.104859	-0.686443	0.158560
O30	O	0.228474	-0.353109	0.491894
O31	O	-0.208377	-0.936524	-0.284547
O32	O	0.124956	-0.603191	0.048786
O33	O	0.458289	-0.269858	0.382119
O34	O	-0.339060	-0.826824	-0.284505
O35	O	-0.005727	-0.493491	0.048828
O36	O	0.327606	-0.160157	0.382162
O37	O	-0.568819	-0.936551	-0.367600
O38	O	-0.235486	-0.603217	-0.034267
O39	O	0.097847	-0.269884	0.299067
O40	O	-0.438073	-0.826796	-0.367620
O41	O	-0.104740	-0.493463	-0.034287
O42	O	0.228593	-0.160129	0.299046
O43	O	-0.568871	-1.019739	-0.284469
O44	O	-0.235537	-0.686405	0.048864
O45	O	0.097796	-0.353072	0.382197
O46	O	-0.339052	-1.019577	-0.477391
O47	O	-0.005718	-0.686244	-0.144058
O48	O	0.327615	-0.352910	0.189276
O49	O	-0.438068	-0.936459	-0.477359
O50	O	-0.104735	-0.603126	-0.144026
O51	O	0.228598	-0.269792	0.189308
C52	C	-0.388560	-0.802251	-0.326061
C53	C	-0.055227	-0.468918	0.007273
C54	C	0.278106	-0.135584	0.340606
C55	C	-0.388558	-0.727019	-0.326070
C56	C	-0.055225	-0.393686	0.007264
C57	C	0.278109	-0.060352	0.340597
C58	C	-0.440109	-0.265231	-0.369430
C59	C	-0.106776	0.068102	-0.036096
C60	C	0.226558	0.401436	0.297237
C61	C	-0.440095	-0.335919	-0.369429
C62	C	-0.106761	-0.002586	-0.036096
C63	C	0.226572	0.330747	0.297237
C64	C	-0.388618	-0.371257	-0.326088
C65	C	-0.055285	-0.037924	0.007246
C66	C	0.278049	0.295409	0.340579
C67	C	-0.337146	-0.335903	-0.282748
C68	C	-0.003813	-0.002570	0.050585
C69	C	0.329520	0.330764	0.383918
C70	C	-0.337157	-0.265216	-0.282753
C71	C	-0.003824	0.068117	0.050581
C72	C	0.329509	0.401451	0.383914
C73	C	-0.337101	-0.620976	-0.282731
C74	C	-0.003768	-0.287643	0.050603
C75	C	0.329566	0.045690	0.383936
C76	C	-0.337096	-0.691668	-0.282728
C77	C	-0.003762	-0.358335	0.050605
C78	C	0.329571	-0.025002	0.383938
C79	C	-0.440038	-0.691680	-0.369407
C80	C	-0.106705	-0.358347	-0.036074
C81	C	0.226628	-0.025013	0.297259
C82	C	-0.440049	-0.620993	-0.369412
C83	C	-0.106716	-0.287659	-0.036078
C84	C	0.226618	0.045674	0.297255
C85	C	-0.388575	-0.585645	-0.326075
C86	C	-0.055242	-0.252311	0.007258
C87	C	0.278092	0.081022	0.340591
C88	C	-0.388590	-0.508996	-0.326077
C89	C	-0.055257	-0.175663	0.007256
C90	C	0.278077	0.157670	0.340590
C91	C	-0.388606	-0.447904	-0.326082
C92	C	-0.055273	-0.114571	0.007251
C93	C	0.278060	0.218762	0.340585
C94	C	-0.598919	-0.978151	-0.326027
C95	C	-0.265586	-0.644818	0.007306
C96	C	0.067748	-0.311484	0.340639
C97	C	-0.688540	-0.978170	-0.326006
C98	C	-0.355207	-0.644836	0.007327
C99	C	-0.021874	-0.311503	0.340661
C100	C	-1.016716	-0.978201	-0.325930
C101	C	-0.683383	-0.644868	0.007403
C102	C	-0.350050	-0.311534	0.340736
C103	C	-0.925408	-0.978190	-0.325953
C104	C	-0.592074	-0.644857	0.007380
C105	C	-0.258741	-0.311524	0.340713
C106	C	-0.852631	-0.978186	-0.325969
C107	C	-0.519298	-0.644852	0.007365
C108	C	-0.185964	-0.311519	0.340698
C109	C	-0.761317	-0.978175	-0.325991
C110	C	-0.427983	-0.644841	0.007343
C111	C	-0.094650	-0.311508	0.340676
C112	C	-0.179119	-0.978102	-0.326079
C113	C	0.154214	-0.644769	0.007254
C114	C	0.487547	-0.311435	0.340587
C115	C	-0.089499	-0.978215	-0.325910
C116	C	0.243835	-0.644881	0.007423
C117	C	0.577168	-0.311548	0.340757
C118	C	-0.388569	-0.978022	-0.501934
C119	C	-0.055236	-0.644689	-0.168601
C120	C	0.278097	-0.311355	0.164733
C121	C	-0.388579	-0.978047	-0.577166
C122	C	-0.055245	-0.644714	-0.243833
C123	C	0.278088	-0.311381	0.089501
C124	C	-0.388651	-0.154650	-0.326093
C125	C	-0.055318	0.178684	0.007240
C126	C	0.278016	0.512017	0.340574
C127	C	-0.388643	-0.229882	-0.326092
C128	C	-0.055310	0.103452	0.007241
C129	C	0.278024	0.436785	0.340574
C130	C	-0.440306	-1.021500	-1.038890
C131	C	-0.106973	-0.688167	-0.705557
C132	C	0.226360	-0.354834	-0.372223
C133	C	-0.440288	-1.021473	-0.968202
C134	C	-0.106954	-0.688140	-0.634868
C135	C	0.226379	-0.354807	-0.301535
C136	C	-0.388660	-0.978198	-0.932928
C137	C	-0.055327	-0.644865	-0.599594
C138	C	0.278007	-0.311531	-0.266261
C139	C	-0.337042	-0.934951	-0.968346
C140	C	-0.003709	-0.601618	-0.635012
C141	C	0.329625	-0.268284	-0.301679
C142	C	-0.337057	-0.934982	-1.039033
C143	C	-0.003724	-0.601648	-0.705700
C144	C	0.329610	-0.268315	-0.372366
C145	C	-0.336979	-0.934827	-0.683273
C146	C	-0.003646	-0.601494	-0.349939
C147	C	0.329688	-0.268161	-0.016606
C148	C	-0.336970	-0.934799	-0.612580
C149	C	-0.003636	-0.601465	-0.279247
C150	C	0.329697	-0.268132	0.054086
C151	C	-0.440210	-1.021319	-0.612441
C152	C	-0.106877	-0.687986	-0.279108
C153	C	0.226457	-0.354652	0.054225
C154	C	-0.440225	-1.021350	-0.683128
C155	C	-0.106892	-0.688016	-0.349795
C156	C	0.226442	-0.354683	-0.016462
C157	C	-0.388604	-0.978106	-0.718540
C158	C	-0.055271	-0.644772	-0.385207
C159	C	0.278063	-0.311439	-0.051874
C160	C	-0.388624	-0.978136	-0.795189
C161	C	-0.055290	-0.644803	-0.461855
C162	C	0.278043	-0.311469	-0.128522
C163	C	-0.388644	-0.978164	-0.856280
C164	C	-0.055311	-0.644830	-0.522947
C165	C	0.278023	-0.311497	-0.189614
C166	C	-0.388669	-0.978211	-0.149535
C167	C	-0.055335	-0.644878	0.183798
C168	C	0.277998	-0.311544	0.517132
C169	C	-0.388694	-0.978255	-0.074303
C170	C	-0.055360	-0.644922	0.259030
C171	C	0.277973	-0.311589	0.592364
H172	H	-0.295184	-0.592204	-0.247446
H173	H	0.038149	-0.258871	0.085887
H174	H	0.371482	0.074462	0.419220
O175	O	-0.281390	-0.888342	-1.077238
O176	O	0.051943	-0.555009	-0.743904
O177	O	0.385277	-0.221676	-0.410571
H178	H	-0.295149	-0.835206	-1.063720
H179	H	0.038184	-0.501872	-0.730387
H180	H	0.371517	-0.168539	-0.397054
O181	O	-0.495877	-1.067975	-0.574249
O182	O	-0.162544	-0.734642	-0.240915
O183	O	0.170790	-0.401309	0.092418
H184	H	-0.536852	-1.037654	-0.542038
H185	H	-0.203519	-0.704320	-0.208705
H186	H	0.129814	-0.370987	0.124629
H187	H	-0.295251	-0.236435	-0.247461
H188	H	0.038083	0.096898	0.085872
H189	H	0.371416	0.430231	0.419206
H190	H	-0.294925	-0.899557	-0.583862
H191	H	0.038408	-0.566224	-0.250528
H192	H	0.371741	-0.232891	0.082805
H193	H	-0.294947	-0.899615	-0.712096
H194	H	0.038387	-0.566282	-0.378763
H195	H	0.371720	-0.232949	-0.045430
O196	O	-0.281355	-0.888273	-0.930305
O197	O	0.051978	-0.554940	-0.596972
O198	O	0.385312	-0.221607	-0.263639
H199	H	-0.290020	-0.895511	-0.875202
H200	H	0.043313	-0.562178	-0.541869
H201	H	0.376646	-0.228845	-0.208536
H202	H	-0.482032	-0.236464	-0.404720
H203	H	-0.148698	0.096869	-0.071386
H204	H	0.184635	0.430203	0.261947
O205	O	-0.495564	-0.729810	-0.416143
O206	O	-0.162231	-0.396477	-0.082810
O207	O	0.171102	-0.063143	0.250523
H208	H	-0.459409	-0.761982	-0.450549
H209	H	-0.126076	-0.428649	-0.117215
H210	H	0.207258	-0.095316	0.216118
H211	H	-0.482001	-0.364698	-0.404720
H212	H	-0.148668	-0.031364	-0.071387
H213	H	0.184665	0.301969	0.261946
O214	O	-0.281624	-0.374012	-0.235998
O215	O	0.051709	-0.040679	0.097335
O216	O	0.385042	0.292654	0.430669
H217	H	-0.290268	-0.429105	-0.243269
H218	H	0.043065	-0.095771	0.090064
H219	H	0.376398	0.237562	0.423398
O220	O	-0.495914	-1.068024	-0.721170
O221	O	-0.162581	-0.734691	-0.387837
O222	O	0.170752	-0.401357	-0.054503
H223	H	-0.487259	-1.060775	-0.776273
H224	H	-0.153926	-0.727442	-0.442940
H225	H	0.179407	-0.394108	-0.109606
H226	H	-0.482314	-1.056687	-0.939368
H227	H	-0.148981	-0.723354	-0.606035
H228	H	0.184353	-0.390020	-0.272702
H229	H	-0.295176	-0.720439	-0.247432
H230	H	0.038158	-0.387105	0.085902
H231	H	0.371491	-0.053772	0.419235
O232	O	-0.495990	-1.068177	-1.076935
O233	O	-0.162656	-0.734844	-0.743602
O234	O	0.170677	-0.401510	-0.410268
H235	H	-0.531870	-1.098248	-1.040431
H236	H	-0.198536	-0.764915	-0.707098
H237	H	0.134797	-0.431581	-0.373764
H238	H	-0.481970	-0.592224	-0.404702
H239	H	-0.148636	-0.258891	-0.071369
H240	H	0.184697	0.074442	0.261964
