data_functionalizedCrystal
_audit_creation_method	'MofGen! by Chris Wilmer'
_symmetry_space_group_name_H-M	'P1'
_symmetry_Int_Tables_number	1
_symmetry_cell_setting	triclinic
loop_
_symmetry_equiv_pos_as_xyz
  x,y,z
_cell_length_a	8.559649
_cell_length_b	8.597275
_cell_length_c	17.766277
_cell_angle_alpha	82.302540
_cell_angle_beta	90.009222
_cell_angle_gamma	77.624622
loop_
_atom_site_label
_atom_site_type_symbol
_atom_site_fract_x
_atom_site_fract_y
_atom_site_fract_z
O1	O	-2.119310	0.053141	-0.066029
O2	O	-1.655368	-0.027759	-0.060785
O3	O	-1.896475	0.242257	-0.078293
O4	O	-1.878203	-0.216875	-0.048520
O5	O	-1.896432	0.242265	0.046895
O6	O	-1.655325	-0.027752	0.064403
O7	O	-2.119267	0.053148	0.059159
Cu8	Cu	-1.887292	0.012699	0.073212
Cu9	Cu	-1.887343	0.012691	-0.074838
O10	O	-1.878160	-0.216868	0.076668
C11	C	-1.595912	-0.033886	0.002206
C12	C	-1.418817	-0.052135	0.003388
C13	C	-1.894494	0.300496	-0.019477
C14	C	-1.888636	0.474015	-0.030734
C15	C	-2.178723	0.059276	-0.003833
C16	C	-2.355818	0.077525	-0.005021
C17	C	-1.880141	-0.275106	0.017850
C18	C	-1.885999	-0.448625	0.029102
N19	N	-1.887268	0.012707	0.177342
N20	N	-1.887380	0.012696	-0.178968
C21	C	-1.994066	0.132222	0.208979
C22	C	-1.994075	0.132231	0.287780
C23	C	-1.887301	0.012699	0.334943
C24	C	-1.780483	-0.106827	0.303297
C25	C	-1.780466	-0.106822	0.224496
C26	C	-1.868630	-0.132486	0.469195
C27	C	-1.868658	-0.132491	0.547994
C28	C	-1.887344	0.012685	0.577990
C29	C	-1.906036	0.157876	0.529176
C30	C	-1.906019	0.157880	0.450375
C31	C	-1.887307	0.012682	0.420390
C32	C	-1.994158	0.132219	0.695072
C33	C	-1.994156	0.132228	0.773875
C34	C	-1.780572	-0.106842	0.789390
C35	C	-1.780566	-0.106839	0.710588
C36	C	-1.887368	0.012691	0.663434
H37	H	-1.437366	0.202493	-0.013128
H38	H	-1.886415	0.540532	-0.090571
H39	H	-2.081118	0.229552	0.656677
H40	H	-1.337260	-0.177112	0.011489
H41	H	-1.888236	0.484853	0.088943
Cl42	Cl	-1.646196	-0.257084	0.184721
H43	H	-2.081026	0.229554	0.170588
H44	H	-2.081046	0.229558	0.313544
Cl45	Cl	-1.929498	0.340394	0.389013
H46	H	-1.921252	0.276092	0.553596
Cl47	Cl	-2.128419	0.282496	0.813649
H48	H	-1.693629	-0.204162	0.827789
Cl49	Cl	-1.646308	-0.257101	0.670812
H50	H	-1.853448	-0.250712	0.587733
Cl51	Cl	-1.845286	-0.314997	0.431495
Cl52	Cl	-1.646246	-0.257091	0.362584
