data_functionalizedCrystal
_audit_creation_method	'MofGen! by Chris Wilmer'
_symmetry_space_group_name_H-M	'P1'
_symmetry_Int_Tables_number	1
_symmetry_cell_setting	triclinic
loop_
_symmetry_equiv_pos_as_xyz
  x,y,z
_cell_length_a	18.050591
_cell_length_b	18.101395
_cell_length_c	18.101389
_cell_angle_alpha	89.983159
_cell_angle_beta	90.025013
_cell_angle_gamma	89.972890
loop_
_atom_site_label
_atom_site_type_symbol
_atom_site_fract_x
_atom_site_fract_y
_atom_site_fract_z
Zn1	Zn	1.135308	0.294986	0.418860
Zn2	Zn	1.135203	0.418812	0.295022
Zn3	Zn	1.011118	0.294980	0.295020
Zn4	Zn	1.011069	0.418782	0.418809
O5	O	1.073174	0.356890	0.356928
O6	O	1.239218	0.311427	0.402455
O7	O	1.118720	0.402395	0.191389
O8	O	1.027656	0.191348	0.311468
O9	O	1.239142	0.402401	0.311472
O10	O	1.118898	0.191352	0.402453
O11	O	1.027555	0.311417	0.191387
O12	O	0.907187	0.311387	0.311419
O13	O	1.027572	0.402350	0.522449
O14	O	0.907151	0.402344	0.402366
O15	O	1.118850	0.311398	0.522487
O16	O	1.118672	0.522441	0.311422
O17	O	1.027471	0.522419	0.402368
C18	C	1.073075	0.549301	0.356906
C19	C	1.073100	0.631615	0.356922
C20	C	0.880222	0.356862	0.356887
C21	C	0.797676	0.356868	0.356887
C22	C	1.073217	0.356871	0.550090
C23	C	1.073236	0.356863	0.632404
C24	C	0.598224	0.307349	0.307544
C25	C	0.548800	0.374893	0.289321
C26	C	0.646546	0.356891	0.356921
C27	C	0.548889	0.289370	0.375142
C28	C	0.500561	0.356907	0.356952
C29	C	0.598209	0.424471	0.338662
C30	C	0.598302	0.338902	0.424515
C31	C	0.548900	0.406493	0.406317
C32	C	0.730644	0.356881	0.356901
C33	C	0.416464	0.356924	0.356971
C34	C	1.266880	0.356918	0.356970
C35	C	1.349426	0.356930	0.356987
C36	C	1.073294	0.163728	0.356966
C37	C	1.073345	0.081414	0.356982
C38	C	1.073263	0.930706	0.356962
C39	C	1.016015	0.899397	0.414324
C40	C	1.015743	0.813779	0.414145
C41	C	1.073182	0.782323	0.356942
C42	C	1.051994	0.813459	0.278891
C43	C	1.051625	0.899104	0.279234
C44	C	1.151826	0.899058	0.376964
C45	C	1.151364	0.813408	0.378675
C46	C	1.073138	0.698464	0.356927
C47	C	1.073306	1.014565	0.356972
C48	C	1.073174	0.356855	0.164518
C49	C	1.073300	0.356655	0.082204
C50	C	1.073279	0.356724	0.931495
C51	C	1.015652	0.413767	0.900146
C52	C	1.015807	0.414032	0.814528
C53	C	1.073257	0.356793	0.783113
C54	C	1.151502	0.377983	0.814220
C55	C	1.151181	0.378357	0.899865
C56	C	1.053341	0.278365	0.899917
C57	C	1.051600	0.278818	0.814266
C58	C	1.073249	0.356831	0.699253
C59	C	1.073292	0.356689	1.015355
H60	H	0.619881	0.265498	0.265742
F61	F	0.939969	0.396696	0.787033
H62	H	0.527380	0.448444	0.448087
H63	H	0.527057	0.390120	0.232171
H64	H	1.029000	0.792727	0.472019
F65	F	0.939581	0.396609	0.927045
F66	F	1.108203	0.222815	0.926417
H67	H	1.028684	0.471495	0.921674
H68	H	1.091513	0.919816	0.235036
F69	F	1.173978	0.452058	0.786197
F70	F	0.977724	0.785502	0.256348
H71	H	0.619783	0.481596	0.323201
F72	F	0.626744	0.318974	0.499193
F73	F	1.207578	0.925532	0.322364
F74	F	1.033047	0.489941	0.787755
F75	F	0.520566	0.214727	0.395268
F76	F	1.033167	0.926271	0.490217
F77	F	1.102465	0.220317	0.786323
H78	H	1.092379	0.793083	0.234985
F79	F	0.980060	0.253134	0.928127
H80	H	0.994019	0.262839	0.793933
F81	F	1.177076	0.927237	0.450089
F82	F	0.939629	0.787073	0.396830
H83	H	0.958137	0.920977	0.401241
F84	F	0.976562	0.925294	0.257089
H85	H	1.167342	0.793056	0.436117
F86	F	1.173271	0.453228	0.925989
H87	H	1.196273	0.791991	0.339941
H88	H	1.195573	0.338614	0.920605
H89	H	1.195591	0.337741	0.793873
