data_functionalizedCrystal
_audit_creation_method	'MofGen! by Chris Wilmer'
_symmetry_space_group_name_H-M	'P1'
_symmetry_Int_Tables_number	1
_symmetry_cell_setting	triclinic
loop_
_symmetry_equiv_pos_as_xyz
  x,y,z
_cell_length_a	14.044191
_cell_length_b	15.944551
_cell_length_c	12.503572
_cell_angle_alpha	93.522593
_cell_angle_beta	86.162165
_cell_angle_gamma	88.345257
loop_
_atom_site_label
_atom_site_type_symbol
_atom_site_fract_x
_atom_site_fract_y
_atom_site_fract_z
O1	O	1.263184	0.198087	-0.089272
O2	O	0.987215	0.190772	-0.089286
O3	O	1.132735	0.072720	-0.089269
O4	O	1.117664	0.316139	-0.089289
O5	O	1.121791	0.081614	0.089372
O6	O	0.976271	0.199667	0.089355
O7	O	1.252240	0.206981	0.089368
Cu8	Cu	1.113256	0.204136	0.105673
Cu9	Cu	1.126199	0.193617	-0.105591
O10	O	1.106720	0.325034	0.089351
C11	C	0.946428	0.192020	0.000033
C12	C	0.841202	0.182476	0.000028
C13	C	0.590918	0.232714	0.000035
C14	C	0.648543	0.165042	0.000038
C15	C	0.755748	0.174745	0.000033
C16	C	0.483703	0.223013	0.000040
C17	C	1.126637	0.045826	0.000051
C18	C	1.124761	-0.047560	0.000052
C19	C	1.030078	-0.269510	0.000032
C20	C	1.068650	-0.322848	0.088115
C21	C	1.121368	-0.218541	0.000043
C22	C	1.079462	-0.331599	-0.088010
C23	C	1.118084	-0.383700	0.000031
C24	C	1.159961	-0.270646	0.088199
C25	C	1.170765	-0.279395	-0.088006
C26	C	1.209402	-0.332710	0.000098
C27	C	1.123257	-0.123397	0.000052
C28	C	1.116202	-0.478842	0.000030
C29	C	1.293027	0.205733	0.000047
C30	C	1.398253	0.215277	0.000045
C31	C	1.112818	0.351927	0.000029
C32	C	1.114694	0.445314	0.000021
N33	N	1.104160	0.211534	0.254264
N34	N	1.135302	0.186213	-0.254182
C35	C	1.090779	0.222424	0.473378
C36	C	1.148680	0.175326	0.526711
C37	C	1.141235	0.181385	0.648634
C38	C	1.098223	0.216366	0.351444
H39	H	0.617368	0.099816	-0.000032
H40	H	1.203843	0.130453	0.480805
H41	H	1.025476	-0.342141	0.162579
H42	H	0.622097	0.297932	0.000026
C43	C	0.929004	-0.232688	0.000360
C44	C	0.875980	-0.254487	0.092798
C45	C	0.782874	-0.220570	0.093148
H46	H	0.899921	-0.254370	-0.061506
H47	H	0.930897	-0.173203	-0.000222
H48	H	0.874082	-0.313959	0.093370
H49	H	0.905032	-0.232804	0.154679
H50	H	0.784767	-0.161086	0.092566
H51	H	0.753801	-0.242255	0.031279
H52	H	0.746888	-0.235349	0.155871
H53	H	1.193974	-0.244054	0.162748
H54	H	1.045400	-0.358277	-0.162483
C55	C	1.310526	-0.369299	0.000386
C56	C	1.352210	-0.338167	0.092773
C57	C	1.445357	-0.371864	0.093088
H58	H	1.347104	-0.353733	-0.061515
H59	H	1.308856	-0.428847	-0.000149
H60	H	1.353885	-0.278632	0.093298
H61	H	1.315660	-0.353731	0.154690
H62	H	1.443687	-0.431412	0.092552
H63	H	1.481926	-0.356297	0.031182
H64	H	1.473648	-0.350753	0.155775
H65	H	1.035621	0.267295	0.519279
C66	C	1.228135	-0.253680	-0.187425
C67	C	1.185649	-0.284555	-0.279407
C68	C	1.238457	-0.260872	-0.371020
H69	H	1.291534	-0.276251	-0.188206
H70	H	1.229364	-0.194094	-0.186403
H71	H	1.184431	-0.344130	-0.280429
H72	H	1.122255	-0.261988	-0.278662
H73	H	1.239685	-0.201285	-0.369998
H74	H	1.301853	-0.283444	-0.371789
H75	H	1.209633	-0.281809	-0.433439
