data_functionalizedCrystal
_audit_creation_method	'MofGen! by Chris Wilmer'
_symmetry_space_group_name_H-M	'P1'
_symmetry_Int_Tables_number	1
_symmetry_cell_setting	triclinic
loop_
_symmetry_equiv_pos_as_xyz
  x,y,z
_cell_length_a	8.597213
_cell_length_b	22.010155
_cell_length_c	23.532409
_cell_angle_alpha	90.001487
_cell_angle_beta	84.099699
_cell_angle_gamma	97.717369
loop_
_atom_site_label
_atom_site_type_symbol
_atom_site_fract_x
_atom_site_fract_y
_atom_site_fract_z
O1	O	2.081230	0.159466	0.084992
O2	O	1.624175	0.135541	0.091513
O3	O	1.866484	0.148226	0.005426
O4	O	1.838922	0.146782	0.171079
O5	O	1.866411	0.047172	0.005425
O6	O	1.624103	0.034487	0.091512
O7	O	2.081158	0.058412	0.084992
Cu8	Cu	1.852624	0.037222	0.088252
Cu9	Cu	1.852710	0.156731	0.088252
O10	O	1.838850	0.045727	0.171078
C11	C	1.565676	0.081954	0.090812
C12	C	1.391474	0.072836	0.088719
N13	N	1.852575	-0.046833	0.088251
C14	C	1.947353	-0.461651	0.123334
C15	C	1.947372	-0.525258	0.123333
O16	O	2.027900	-0.553934	0.153157
N17	N	1.852740	-0.562031	0.088246
C18	C	1.758096	-0.535194	0.053154
O19	O	1.677608	-0.572313	0.023310
C20	C	1.758087	-0.471588	0.053153
C21	C	1.852713	-0.434818	0.088246
C22	C	2.041973	-0.424882	0.158424
C23	C	2.041951	-0.361280	0.158426
C24	C	1.947311	-0.334447	0.123338
C25	C	1.852692	-0.371216	0.088248
C26	C	1.663453	-0.444752	0.018058
C27	C	1.663453	-0.381141	0.018060
C28	C	1.758078	-0.344371	0.053153
C29	C	1.758030	-0.280781	0.053162
N30	N	1.852662	-0.244008	0.088249
C31	C	1.947302	-0.270841	0.123337
C32	C	1.758124	-0.668770	0.053159
C33	C	1.758124	-0.732376	0.053163
C34	C	1.947402	-0.722435	0.123341
C35	C	1.947393	-0.658829	0.123339
C36	C	1.852756	-0.631997	0.088245
C37	C	1.947250	-0.137272	0.123338
C38	C	1.947215	-0.073665	0.123339
C39	C	1.757944	-0.083611	0.053159
C40	C	1.757971	-0.147213	0.053160
C41	C	1.852637	-0.174041	0.088252
O42	O	1.677548	-0.252062	0.023351
O43	O	2.027793	-0.233714	0.153170
C44	C	2.139657	0.112000	0.085692
C45	C	2.313859	0.121123	0.087785
C46	C	1.865745	0.097663	-0.015796
C47	C	1.863633	0.097557	-0.079029
N48	N	1.852771	0.240786	0.088249
C49	C	1.854692	0.152175	-0.352342
C50	C	1.856653	0.152277	-0.292927
O51	O	1.857756	0.199179	-0.262194
N52	N	1.857584	0.097243	-0.263218
C53	C	1.856570	0.042102	-0.292927
O54	O	1.857544	-0.004699	-0.262202
C55	C	1.854621	0.042001	-0.352342
C56	C	1.853674	0.097038	-0.382047
C57	C	1.853747	0.207208	-0.382048
C58	C	1.851783	0.207104	-0.441459
C59	C	1.850765	0.151968	-0.471164
C60	C	1.851710	0.096935	-0.441458
C61	C	1.853618	-0.013138	-0.382051
C62	C	1.851669	-0.013235	-0.441470
C63	C	1.850722	0.041803	-0.471175
C64	C	1.848727	0.041696	-0.530575
N65	N	1.847796	0.096730	-0.560284
C66	C	1.848815	0.151867	-0.530579
C67	C	1.860668	0.042320	-0.168153
C68	C	1.862606	0.042420	-0.108739
C69	C	1.862692	0.152596	-0.108743
C70	C	1.860742	0.152494	-0.168157
C71	C	1.859737	0.097355	-0.197862
C72	C	1.844689	0.151646	-0.655346
C73	C	1.842719	0.151537	-0.714762
C74	C	1.842641	0.041363	-0.714753
C75	C	1.844603	0.041470	-0.655342
C76	C	1.845633	0.096617	-0.625640
O77	O	1.847630	-0.005182	-0.561346
O78	O	1.847862	0.198662	-0.561312
C79	C	1.839588	0.096291	0.192300
C80	C	1.841700	0.096401	0.255533
H81	H	1.380677	0.169437	0.088592
H82	H	1.863347	-0.002398	-0.084557
H83	H	1.324646	0.024518	0.087918
H84	H	1.859835	-0.002585	-0.192334
H85	H	1.863516	0.197490	-0.084546
H86	H	2.024461	-0.744294	0.151912
H87	H	1.680899	-0.177154	0.024592
H88	H	1.854406	-0.057955	-0.357876
N89	N	2.043883	-0.036116	0.159193
N90	N	2.128377	-0.060087	0.190516
H91	H	2.196650	-0.033570	0.215837
H92	H	1.850852	-0.058137	-0.465652
N93	N	1.845530	-0.014755	-0.625002
N94	N	1.844602	-0.063980	-0.651534
H95	H	1.845263	-0.103691	-0.630111
N96	N	1.661471	-0.769940	0.017321
N97	N	1.661488	-0.826730	0.017319
H98	H	1.593230	-0.853259	-0.007998
N99	N	2.043961	-0.164661	0.159184
N100	N	2.128428	-0.131814	0.190509
H101	H	2.196726	-0.151156	0.215828
N102	N	1.854799	0.263528	-0.351703
N103	N	1.966528	0.281677	-0.323174
H104	H	1.967263	0.321456	-0.301745
H105	H	2.119012	-0.331347	0.187000
H106	H	2.119048	-0.446721	0.186997
H107	H	2.024445	-0.628895	0.151916
H108	H	1.681044	-0.646929	0.024583
H109	H	1.841806	-0.003528	-0.738950
N110	N	1.566782	-0.482291	-0.017792
N111	N	1.482308	-0.458312	-0.049118
H112	H	1.414030	-0.484824	-0.074441
H113	H	1.586387	-0.359298	-0.010519
N114	N	1.661275	-0.056186	0.017326
N115	N	1.661287	0.000606	0.017336
H116	H	1.593020	0.019978	-0.007974
H117	H	1.841942	0.196357	-0.738945
H118	H	1.845529	0.196552	-0.631169
H119	H	1.859968	0.197310	-0.192340
N120	N	1.850818	0.263330	-0.471789
N121	N	1.851732	0.312551	-0.445249
H122	H	1.851054	0.352264	-0.466666
