data_functionalizedCrystal
_audit_creation_method	'MofGen! by Chris Wilmer'
_symmetry_space_group_name_H-M	'P1'
_symmetry_Int_Tables_number	1
_symmetry_cell_setting	triclinic
loop_
_symmetry_equiv_pos_as_xyz
  x,y,z
_cell_length_a	23.532407
_cell_length_b	15.995350
_cell_length_c	14.472310
_cell_angle_alpha	89.998838
_cell_angle_beta	90.007660
_cell_angle_gamma	83.170526
loop_
_atom_site_label
_atom_site_type_symbol
_atom_site_fract_x
_atom_site_fract_y
_atom_site_fract_z
O1	O	-0.755658	-0.101635	-0.076721
O2	O	-0.255658	0.398365	0.423279
O3	O	-0.589851	-0.116342	-0.076748
O4	O	-0.089851	0.383658	0.423252
O5	O	-0.677287	0.012937	-0.076733
O6	O	-0.177287	0.512937	0.423267
O7	O	-0.668222	-0.230914	-0.076736
O8	O	-0.168222	0.269086	0.423264
O9	O	-0.677265	0.012929	0.076949
O10	O	-0.177265	0.512929	0.576949
O11	O	-0.589829	-0.116350	0.076934
O12	O	-0.089829	0.383650	0.576934
O13	O	-0.755636	-0.101643	0.076961
O14	O	-0.255636	0.398357	0.576961
Cu15	Cu	-0.672730	-0.108997	0.090980
Cu16	Cu	-0.172730	0.391003	0.590980
Cu17	Cu	-0.672757	-0.108988	-0.090767
Cu18	Cu	-0.172757	0.391012	0.409233
O19	O	-0.668200	-0.230922	0.076946
O20	O	-0.168200	0.269078	0.576946
C21	C	-0.568623	-0.115971	0.000090
C22	C	-0.068623	0.384029	0.500090
C23	C	-0.505401	-0.114846	0.000079
C24	C	-0.005401	0.385154	0.500079
C25	C	-0.676901	0.044124	0.000106
C26	C	-0.176901	0.544124	0.500106
C27	C	-0.675778	0.137065	0.000101
C28	C	-0.175778	0.637065	0.500101
C29	C	-0.776864	-0.102014	0.000121
C30	C	-0.276864	0.397986	0.500121
C31	C	-0.840086	-0.103140	0.000125
C32	C	-0.340086	0.396860	0.500125
C33	C	-0.106565	-0.184288	0.000120
C34	C	0.393435	0.315712	0.500120
C35	C	-0.047161	-0.183242	0.000126
C36	C	0.452839	0.316758	0.500126
O37	O	-0.010664	-0.247615	0.000159
O38	O	0.489336	0.252385	0.500159
N39	N	-0.024239	-0.106386	0.000125
N40	N	0.475761	0.393614	0.500125
C41	C	-0.060725	-0.030570	0.000129
C42	C	0.439275	0.469430	0.500129
O43	O	-0.035773	0.034898	0.000130
O44	O	0.464227	0.534898	0.500130
C45	C	-0.120128	-0.031617	0.000130
C46	C	0.379872	0.468383	0.500130
C47	C	-0.143047	-0.108478	0.000121
C48	C	0.356953	0.391522	0.500121
C49	C	-0.129484	-0.261143	0.000113
C50	C	0.370516	0.238857	0.500113
C51	C	-0.188885	-0.262188	0.000105
C52	C	0.311115	0.237812	0.500105
C53	C	-0.225366	-0.186379	0.000106
C54	C	0.274634	0.313621	0.500106
C55	C	-0.202447	-0.109524	0.000113
C56	C	0.297553	0.390476	0.500113
C57	C	-0.156613	0.044197	0.000139
C58	C	0.343387	0.544197	0.500139
C59	C	-0.216019	0.043143	0.000141
C60	C	0.283981	0.543143	0.500141
C61	C	-0.238938	-0.033718	0.000132
C62	C	0.261062	0.466282	0.500132
C63	C	-0.298328	-0.034760	0.000106
C64	C	0.201672	0.465240	0.500106
N65	N	-0.321250	-0.111617	0.000107
N66	N	0.178750	0.388383	0.500107
C67	C	-0.284769	-0.187426	0.000107
C68	C	0.215231	0.312574	0.500107
C69	C	0.064026	-0.028378	0.000128
C70	C	0.564026	0.471622	0.500128
C71	C	0.123428	-0.027330	0.000121
C72	C	0.623428	0.472670	0.500121
C73	C	0.136988	-0.180002	0.000120
C74	C	0.636988	0.319998	0.500120
C75	C	0.077585	-0.181049	0.000121
C76	C	0.577585	0.318951	0.500121
C77	C	0.041104	-0.105234	0.000129
C78	C	0.541104	0.394766	0.500129
C79	C	-0.409514	-0.189616	0.000090
C80	C	0.090486	0.310384	0.500090
C81	C	-0.468920	-0.190655	0.000079
C82	C	0.031080	0.309345	0.500079
C83	C	-0.482475	-0.037984	0.000085
C84	C	0.017525	0.462016	0.500085
C85	C	-0.423074	-0.036944	0.000091
C86	C	0.076926	0.463056	0.500091
C87	C	-0.386594	-0.112767	0.000097
C88	C	0.113406	0.387233	0.500097
O89	O	-0.334860	0.029579	0.000077
O90	O	0.165140	0.529579	0.500077
O91	O	-0.309729	-0.252883	0.000118
O92	O	0.190271	0.247117	0.500118
C93	C	-0.668586	-0.262110	0.000105
C94	C	-0.168586	0.237890	0.500105
C95	C	-0.669709	-0.355051	0.000104
C96	C	-0.169709	0.144949	0.500104
N97	N	-0.672716	-0.109003	0.218811
N98	N	-0.172716	0.390997	0.718811
C99	C	-0.671743	0.474779	0.000103
C100	C	-0.171743	0.974779	0.500103
C101	C	-0.609473	0.426827	-0.000251
C102	C	-0.109473	0.926827	0.499749
C103	C	-0.610596	0.330146	0.000095
C104	C	-0.110596	0.830146	0.500095
C105	C	-0.673744	0.307235	0.000101
C106	C	-0.173744	0.807235	0.500101
C107	C	-0.704445	0.348564	0.087865
C108	C	-0.204445	0.848564	0.587865
C109	C	-0.702881	0.445187	0.087938
C110	C	-0.202881	0.945187	0.587938
C111	C	-0.704193	0.445564	-0.086827
C112	C	-0.204193	0.945564	0.413173
C113	C	-0.704178	0.348619	-0.087987
C114	C	-0.204178	0.848619	0.412013
C115	C	-0.674879	0.212547	0.000104
C116	C	-0.174879	0.712547	0.500104
C117	C	-0.670610	0.569468	0.000107
C118	C	-0.170610	1.069468	0.500107
N119	N	-0.672776	-0.108976	-0.218598
N120	N	-0.172776	0.391024	0.281402
C121	C	-0.672756	-0.108985	0.592902
C122	C	-0.172756	0.391015	1.092902
C123	C	-0.625814	-0.177930	0.553728
C124	C	-0.125814	0.322070	1.053728
C125	C	-0.625922	-0.178179	0.446640
C126	C	-0.125922	0.321821	0.946640
C127	C	-0.672735	-0.108994	0.407311
C128	C	-0.172735	0.391006	0.907311
C129	C	-0.732158	-0.127581	0.446157
C130	C	-0.232158	0.372419	0.946157
C131	C	-0.731894	-0.128071	0.553279
C132	C	-0.231894	0.371929	1.053279
C133	C	-0.660806	-0.021245	0.553430
C134	C	-0.160806	0.478755	1.053430
C135	C	-0.659443	-0.021842	0.446302
C136	C	-0.159443	0.478158	0.946302
C137	C	-0.672728	-0.108997	0.302423
C138	C	-0.172728	0.391003	0.802423
C139	C	-0.672768	-0.108983	0.697790
C140	C	-0.172768	0.391017	1.197790
H141	H	-0.487576	-0.253247	0.000071
H142	H	0.012424	0.246753	0.500071
H143	H	-0.750838	0.334824	0.091133
H144	H	-0.250838	0.834824	0.591133
H145	H	-0.680475	0.463299	0.153538
H146	H	-0.180475	0.963299	0.653538
H147	H	-0.379819	-0.251358	0.000098
H148	H	0.120181	0.248642	0.500098
Br149	Br	-0.717862	0.064261	0.595649
Br150	Br	-0.217862	0.564261	1.095649
H151	H	0.034326	0.033364	0.000127
H152	H	0.534326	0.533364	0.500127
H153	H	-0.683103	0.320002	0.153170
H154	H	-0.183103	0.820002	0.653170
H155	H	-0.137964	0.106785	0.000147
H156	H	0.362036	0.606785	0.500147
H157	H	-0.681732	0.321187	-0.152912
H158	H	-0.181732	0.821187	0.347088
Br159	Br	-0.531996	0.064895	0.000087
Br160	Br	-0.031996	0.564895	0.500087
Br161	Br	0.046488	-0.285363	0.000109
Br162	Br	0.546488	0.214637	0.500109
Br163	Br	-0.749446	-0.234696	0.594914
Br164	Br	-0.249446	0.265304	1.094914
H165	H	-0.618416	-0.003249	0.580491
H166	H	-0.118416	0.496751	1.080491
Br167	Br	-0.638614	-0.286730	0.403907
Br168	Br	-0.138614	0.213270	0.903907
Br169	Br	-0.670271	0.479509	-0.197698
Br170	Br	-0.170271	0.979509	0.302302
H171	H	-0.245720	0.104882	0.000148
H172	H	0.254280	0.604882	0.500148
Br173	Br	-0.780715	0.499136	-0.087805
Br174	Br	-0.280715	0.999136	0.412195
H175	H	-0.748598	0.477815	0.091924
H176	H	-0.248598	0.977815	0.591924
H177	H	-0.207539	-0.324776	0.000098
H178	H	0.292461	0.175224	0.500098
H179	H	-0.767916	-0.079808	0.579191
H180	H	-0.267916	0.420192	1.079191
Br181	Br	-0.570372	0.282440	-0.104764
Br182	Br	-0.070372	0.782440	0.395236
Br183	Br	-0.791773	-0.046076	0.403703
Br184	Br	-0.291773	0.453924	0.903703
Br185	Br	-0.391969	0.067368	0.000106
Br186	Br	0.108031	0.567368	0.500106
H187	H	-0.750229	0.333640	-0.093281
H188	H	-0.250229	0.833640	0.406719
H189	H	-0.581753	-0.167177	0.420377
H190	H	-0.081753	0.332823	0.920377
H191	H	-0.099787	-0.322879	0.000116
H192	H	0.400213	0.177121	0.500116
Br193	Br	-0.551950	-0.159895	0.596670
Br194	Br	-0.051950	0.340105	1.096670
Br195	Br	-0.638362	-0.285864	0.598558
Br196	Br	-0.138362	0.214136	1.098558
H197	H	0.166702	-0.241730	0.000124
H198	H	0.666702	0.258270	0.500124
Br199	Br	-0.750133	-0.232986	0.401431
Br200	Br	-0.250133	0.267014	0.901431
Br201	Br	-0.568001	0.457370	-0.105154
Br202	Br	-0.068001	0.957370	0.394846
H203	H	-0.615732	-0.007724	0.420913
H204	H	-0.115732	0.492276	0.920913
Br205	Br	-0.570066	0.283352	0.105116
Br206	Br	-0.070066	0.783352	0.605116
Br207	Br	0.154524	0.076985	0.000105
Br208	Br	0.654524	0.576985	0.500105
Br209	Br	-0.568038	0.459534	0.103731
Br210	Br	-0.068038	0.959534	0.603731
Br211	Br	-0.712733	0.067618	0.401701
Br212	Br	-0.212733	0.567618	0.901701
