data_functionalizedCrystal
_audit_creation_method	'MofGen! by Chris Wilmer'
_symmetry_space_group_name_H-M	'P1'
_symmetry_Int_Tables_number	1
_symmetry_cell_setting	triclinic
loop_
_symmetry_equiv_pos_as_xyz
  x,y,z
_cell_length_a	21.395362
_cell_length_b	11.169416
_cell_length_c	11.169409
_cell_angle_alpha	89.969126
_cell_angle_beta	89.957440
_cell_angle_gamma	90.026221
loop_
_atom_site_label
_atom_site_type_symbol
_atom_site_fract_x
_atom_site_fract_y
_atom_site_fract_z
Zn1	Zn	0.957940	-0.477201	-0.679283
Zn2	Zn	0.957882	-0.677942	-0.478605
Zn3	Zn	0.853157	-0.477327	-0.478538
Zn4	Zn	0.853161	-0.677896	-0.679171
O5	O	0.905535	-0.577591	-0.578899
O6	O	1.045610	-0.503796	-0.652738
O7	O	0.943964	-0.651401	-0.310647
O8	O	0.867079	-0.309360	-0.505186
O9	O	1.045567	-0.651279	-0.505301
O10	O	0.944063	-0.309268	-0.652673
O11	O	0.867023	-0.504010	-0.310597
O12	O	0.765480	-0.503966	-0.505077
O13	O	0.867086	-0.651202	-0.847135
O14	O	0.765483	-0.651324	-0.652481
O15	O	0.944066	-0.503752	-0.847218
O16	O	0.943968	-0.845885	-0.505192
O17	O	0.867030	-0.845852	-0.652546
C18	C	0.742747	-0.577655	-0.578760
C19	C	0.673106	-0.577711	-0.578729
C20	C	0.640411	-0.654542	-0.655367
C21	C	0.574975	-0.654512	-0.655421
C22	C	0.542238	-0.577665	-0.578814
C23	C	0.574941	-0.500819	-0.502171
C24	C	0.640375	-0.500842	-0.502128
C25	C	0.438513	-0.568034	-0.470767
C26	C	0.373080	-0.568019	-0.470808
C27	C	0.340417	-0.577586	-0.578947
C28	C	0.373195	-0.587194	-0.687049
C29	C	0.438630	-0.587217	-0.687006
C30	C	0.471285	-0.577631	-0.578853
C31	C	0.236769	-0.654389	-0.655650
C32	C	0.171333	-0.654352	-0.655705
C33	C	0.171299	-0.500664	-0.502445
C34	C	0.236735	-0.500696	-0.502400
C35	C	0.269466	-0.577565	-0.579001
C36	C	0.905510	-0.889416	-0.578890
C37	C	0.905557	-1.022816	-0.578926
C38	C	1.068958	-0.577529	-0.579040
C39	C	1.138599	-0.577502	-0.579100
C40	C	0.905583	-0.577458	-0.891942
C41	C	0.905603	-0.577401	-1.025342
C42	C	0.905577	-0.264549	-0.578935
C43	C	0.905595	-0.131149	-0.578950
C44	C	0.905523	-0.577638	-0.267075
C45	C	0.905624	-0.577356	-0.133675
H46	H	0.667056	-0.717133	-0.717743
F47	F	0.338439	-0.597371	-0.802148
H48	H	0.548350	-0.717077	-0.717833
F49	F	0.473512	-0.597436	-0.802052
H50	H	0.465101	-0.560238	-0.382701
H51	H	0.144645	-0.438088	-0.440076
H52	H	0.263355	-0.438138	-0.439987
H53	H	0.548282	-0.438247	-0.439800
F54	F	0.338200	-0.557795	-0.355758
H55	H	0.666995	-0.438273	-0.439720
H56	H	0.144713	-0.716914	-0.718121
F57	F	0.271606	-0.736193	-0.737179
