data_functionalizedCrystal
_audit_creation_method	'MofGen! by Chris Wilmer'
_symmetry_space_group_name_H-M	'P1'
_symmetry_Int_Tables_number	1
_symmetry_cell_setting	triclinic
loop_
_symmetry_equiv_pos_as_xyz
  x,y,z
_cell_length_a	10.654545
_cell_length_b	16.992696
_cell_length_c	9.730223
_cell_angle_alpha	90.013371
_cell_angle_beta	90.000013
_cell_angle_gamma	92.424234
loop_
_atom_site_label
_atom_site_type_symbol
_atom_site_fract_x
_atom_site_fract_y
_atom_site_fract_z
O1	O	1.677358	-0.110174	-0.114304
O2	O	1.312787	-0.120676	-0.114313
O3	O	1.493611	-0.001274	-0.114270
O4	O	1.496534	-0.229575	-0.114346
O5	O	1.493608	-0.001269	0.114310
O6	O	1.312784	-0.120670	0.114267
O7	O	1.677356	-0.110168	0.114276
Zn8	Zn	1.495070	-0.115418	0.150564
Zn9	Zn	1.495073	-0.115426	-0.150600
O10	O	1.496532	-0.229570	0.114234
C11	C	1.265921	-0.119903	-0.000023
C12	C	1.126278	-0.117598	-0.000024
C13	C	1.489849	0.027961	0.000026
C14	C	1.478630	0.115066	0.000047
C15	C	1.060679	-0.116510	0.124576
C16	C	0.929471	-0.114331	0.124576
C17	C	0.929473	-0.114332	-0.124634
C18	C	1.060679	-0.116505	-0.124633
C19	C	1.586880	0.164719	0.000062
C20	C	1.576331	0.246563	0.000068
C21	C	1.457530	0.278753	0.000069
C22	C	1.349271	0.229093	0.000050
C23	C	1.359821	0.147251	0.000034
C24	C	1.413802	0.522588	0.000108
C25	C	1.403259	0.604436	0.000128
C26	C	1.630321	0.621901	0.000143
C27	C	1.640861	0.540056	0.000135
C28	C	1.532602	0.490404	0.000109
N29	N	1.446744	0.362410	0.000080
N30	N	1.543389	0.406748	0.000088
C31	C	1.724222	-0.110942	-0.000017
C32	C	1.863865	-0.113246	-0.000024
C33	C	1.500293	0.741194	-0.000006
C34	C	1.511510	0.654089	0.000143
N35	N	1.495075	-0.115425	-0.356137
C36	C	1.575313	-0.062659	-0.428044
C37	C	1.575318	-0.062654	-0.571927
C38	C	1.414835	-0.168185	-0.571983
C39	C	1.414838	-0.168192	-0.428102
N40	N	1.495077	-0.115413	0.356100
H41	H	0.876066	-0.113446	0.226038
H42	H	1.640649	-0.019693	-0.369453
O43	O	0.865673	-0.113417	-0.245635
C44	C	0.782335	-0.179977	-0.253096
H45	H	0.816691	-0.228035	-0.182404
H46	H	0.778353	-0.202722	-0.363308
H47	H	0.684575	-0.162998	-0.219611
O48	O	1.337068	-0.219530	-0.358181
C49	C	1.409065	-0.268398	-0.274959
H50	H	1.508272	-0.270412	-0.318328
H51	H	1.363873	-0.330411	-0.273353
H52	H	1.413267	-0.243888	-0.165903
H53	H	1.640657	-0.019688	-0.630470
O54	O	1.124339	-0.117702	-0.245713
C55	C	1.084838	-0.184986	-0.321561
H56	H	1.043577	-0.231795	-0.248676
H57	H	1.168636	-0.209181	-0.378084
H58	H	1.010361	-0.168392	-0.399254
O59	O	1.702382	0.133584	-0.000004
C60	C	1.795663	0.194963	0.000041
H61	H	1.754856	0.250739	-0.043220
H62	H	1.878110	0.177423	-0.066330
H63	H	1.829452	0.206360	0.109703
O64	O	1.681453	0.294825	-0.000161
C65	C	1.682140	0.342690	-0.118524
H66	H	1.620894	0.313064	-0.201273
H67	H	1.782432	0.351333	-0.158256
H68	H	1.643652	0.402375	-0.091757
O69	O	1.124444	-0.117703	0.245580
C70	C	1.192940	-0.186775	0.253007
H71	H	1.148214	-0.233530	0.182284
H72	H	1.191933	-0.209560	0.363206
H73	H	1.294058	-0.173088	0.219539
H74	H	1.349506	-0.211146	-0.630591
H75	H	1.737601	0.513854	0.000135
H76	H	1.718458	0.662336	0.000162
H77	H	1.306512	0.630641	0.000151
H78	H	1.325649	0.482170	0.000086
O79	O	1.233963	0.260489	0.000111
C80	C	1.247859	0.343373	0.000099
H81	H	1.343986	0.362060	0.043381
H82	H	1.171344	0.368902	0.066467
H83	H	1.239485	0.366179	-0.109556
O84	O	1.254539	0.099128	0.000080
C85	C	1.147418	0.145087	0.000050
H86	H	1.173176	0.205989	0.043345
H87	H	1.071061	0.115333	0.066396
H88	H	1.111397	0.151101	-0.109613
