data_functionalizedCrystal
_audit_creation_method	'MofGen! by Chris Wilmer'
_symmetry_space_group_name_H-M	'P1'
_symmetry_Int_Tables_number	1
_symmetry_cell_setting	triclinic
loop_
_symmetry_equiv_pos_as_xyz
  x,y,z
_cell_length_a	11.026607
_cell_length_b	9.016244
_cell_length_c	11.026607
_cell_angle_alpha	90.005017
_cell_angle_beta	108.586017
_cell_angle_gamma	90.001196
loop_
_atom_site_label
_atom_site_type_symbol
_atom_site_fract_x
_atom_site_fract_y
_atom_site_fract_z
O1	O	1.726730	0.123337	0.533627
O2	O	1.360150	0.123339	0.472863
O3	O	1.513058	0.123333	0.319955
O4	O	1.573822	0.123343	0.686535
O5	O	1.513047	-0.123348	0.319939
O6	O	1.360139	-0.123342	0.472847
O7	O	1.726719	-0.123344	0.533611
Cu8	Cu	1.543428	-0.145867	0.503227
Cu9	Cu	1.543441	0.145862	0.503247
O10	O	1.573810	-0.123338	0.686519
C11	C	1.312485	-0.000001	0.461645
C12	C	1.170471	-0.000000	0.428228
N13	N	1.543427	-0.351053	0.503215
C14	C	1.116821	0.000003	0.520498
C15	C	0.970043	0.000004	0.485962
C16	C	1.625685	-0.586043	0.421857
C17	C	1.625322	-0.414152	0.421405
C18	C	1.404134	-0.413478	0.445131
C19	C	1.404599	-0.585423	0.444537
C20	C	1.599375	-0.585553	0.642772
C21	C	1.602192	-0.413597	0.642528
C22	C	1.774384	-0.000001	0.544828
C23	C	1.916398	0.000008	0.578245
C24	C	1.501843	-0.000006	0.272287
C25	C	1.468426	-0.000000	0.130273
N26	N	1.543449	0.351048	0.503251
C27	C	1.560695	0.000001	0.076624
C28	C	1.526160	0.000007	-0.070155
C29	C	1.585026	0.000004	0.734187
C30	C	1.618443	0.000008	0.876200
H31	H	1.179555	-0.000002	0.625061
N32	N	1.337256	-0.000013	0.051567
N33	N	1.294661	-0.103992	-0.025199
H34	H	1.202019	-0.104003	-0.080786
N35	N	0.891382	-0.000015	0.354771
N36	N	0.899375	-0.104000	0.282723
H37	H	0.843822	-0.104015	0.190069
N38	N	0.995096	-0.000010	0.709424
N39	N	1.114218	-0.000021	0.737296
H40	H	1.169800	-0.000038	0.829940
N41	N	1.691879	-0.000024	0.155291
N42	N	1.778645	-0.000034	0.104927
H43	H	1.871298	-0.000055	0.160482
N44	N	1.091787	-0.000037	0.297051
N45	N	1.015037	-0.104028	0.254451
H46	H	0.959469	-0.104058	0.161803
N47	N	1.754035	-0.361215	0.470301
N48	N	1.844762	-0.451260	0.504994
H49	H	1.935669	-0.413881	0.539567
H50	H	1.728563	-0.627382	0.460536
H51	H	1.723013	0.000119	-0.061072
H52	H	1.587312	-0.629272	0.319537
H53	H	1.421590	0.000017	-0.132884
N54	N	1.576832	-0.362582	0.292254
N55	N	1.543139	-0.453581	0.202172
H56	H	1.508933	-0.417163	0.110950
H57	H	1.539747	-0.626244	0.703686
N58	N	1.348330	-0.635744	0.315774
N59	N	1.308991	-0.543876	0.226973
H60	H	1.269250	-0.579407	0.136030
H61	H	1.340067	-0.627040	0.500055
N62	N	1.323990	-0.362232	0.515991
N63	N	1.351481	-0.392434	0.632276
H64	H	1.294882	-0.356242	0.682325
N65	N	1.347453	-0.359469	0.317602
N66	N	1.409379	-0.275022	0.269246
H67	H	1.369354	-0.236878	0.179177
N68	N	1.726041	-0.639955	0.703784
N69	N	1.776637	-0.726125	0.645167
H70	H	1.866097	-0.764552	0.688245
H71	H	1.704809	-0.372797	0.685930
N72	N	1.534711	-0.359701	0.724875
N73	N	1.441789	-0.273940	0.682033
H74	H	1.394120	-0.235874	0.740186
