data_functionalizedCrystal
_audit_creation_method	'MofGen! by Chris Wilmer'
_symmetry_space_group_name_H-M	'P1'
_symmetry_Int_Tables_number	1
_symmetry_cell_setting	triclinic
loop_
_symmetry_equiv_pos_as_xyz
  x,y,z
_cell_length_a	15.944493
_cell_length_b	15.944551
_cell_length_c	14.421503
_cell_angle_alpha	89.998474
_cell_angle_beta	90.006921
_cell_angle_gamma	83.486891
loop_
_atom_site_label
_atom_site_type_symbol
_atom_site_fract_x
_atom_site_fract_y
_atom_site_fract_z
O1	O	1.114559	0.108091	0.077101
O2	O	0.870003	0.121498	0.077106
O3	O	0.998959	-0.007482	0.077095
O4	O	0.985603	0.237071	0.077112
O5	O	0.998939	-0.007467	-0.077128
O6	O	0.869982	0.121513	-0.077117
O7	O	1.114539	0.108105	-0.077122
Cu8	Cu	0.992259	0.114810	-0.091201
Cu9	Cu	0.992283	0.114793	0.091186
O10	O	0.985582	0.237085	-0.077111
C11	C	0.838698	0.120957	-0.000005
C12	C	0.745449	0.119314	-0.000003
C13	C	0.509689	0.195235	0.000002
C14	C	0.459121	0.154301	-0.076045
C15	C	0.574728	0.116270	-0.000005
C16	C	0.459146	0.154268	0.076008
C17	C	0.409819	0.113336	-0.000003
C18	C	0.525388	0.075358	-0.076115
C19	C	0.525416	0.075336	0.076005
C20	C	0.474880	0.034345	-0.000060
C21	C	0.669728	0.117963	-0.000007
C22	C	0.314821	0.111637	-0.000008
C23	C	0.998395	-0.038768	-0.000017
C24	C	0.996732	-0.132014	-0.000017
C25	C	0.912826	-0.346853	-0.000003
C26	C	0.951779	-0.407871	-0.076045
C27	C	0.993725	-0.302739	-0.000010
C28	C	0.951818	-0.407869	0.076007
C29	C	0.990814	-0.467651	0.000001
C30	C	1.032700	-0.362529	-0.076115
C31	C	1.032728	-0.362521	0.076006
C32	C	1.071741	-0.423521	-0.000055
C33	C	0.995399	-0.207737	-0.000017
C34	C	0.989146	-0.562652	0.000002
C35	C	1.145844	0.108646	-0.000009
C36	C	1.239092	0.110289	-0.000004
C37	C	0.986147	0.268372	0.000003
C38	C	0.987809	0.361617	0.000009
N39	N	0.992248	0.114822	-0.219483
C40	C	0.933111	0.174929	-0.530931
C41	C	0.916114	0.099264	-0.469108
C42	C	0.992282	0.114789	-0.591372
C43	C	1.009222	0.190469	-0.469101
C44	C	0.992263	0.114809	-0.408650
C45	C	0.975248	0.039085	-0.530909
C46	C	1.068390	0.130340	-0.530908
C47	C	1.051425	0.054619	-0.469113
C48	C	0.992291	0.114778	-0.696633
C49	C	0.992255	0.114811	-0.303391
N50	N	0.992301	0.114775	0.219467
H51	H	0.845675	-0.313532	-0.000077
C52	C	0.563934	0.030843	-0.161821
C53	C	0.621802	-0.037429	-0.134788
C54	C	0.657335	-0.078446	-0.213714
H55	H	0.520620	0.010900	-0.198151
H56	H	0.592113	0.069276	-0.197363
H57	H	0.593623	-0.075856	-0.099262
H58	H	0.665131	-0.017510	-0.098470
H59	H	0.685514	-0.040013	-0.249255
H60	H	0.614016	-0.098383	-0.250038
H61	H	0.696608	-0.124768	-0.195383
C62	C	0.956055	-0.046331	-0.566768
C63	C	0.944158	-0.099349	-0.491656
C64	C	0.926484	-0.178041	-0.524654
H65	H	0.906255	-0.039286	-0.603429
H66	H	1.001948	-0.070802	-0.603433
H67	H	0.898269	-0.074885	-0.455006
H68	H	0.993948	-0.106419	-0.454988
H69	H	0.972378	-0.202511	-0.561319
H70	H	0.876686	-0.170987	-0.561315
H71	H	0.918418	-0.214026	-0.473697
C72	C	0.420356	0.198707	-0.161721
C73	C	0.332914	0.195860	-0.161000
C74	C	0.297177	0.236757	-0.239909
H75	H	0.431909	0.255855	-0.161711
H76	H	0.443868	0.171219	-0.215751
H77	H	0.309410	0.223351	-0.106984
H78	H	0.321337	0.138723	-0.161024
H79	H	0.320690	0.209269	-0.293939
H80	H	0.308736	0.293903	-0.239892
H81	H	0.237846	0.234825	-0.239435
C82	C	0.454388	-0.056463	0.000022
C83	C	0.489447	-0.097891	0.078946
C84	C	0.470602	-0.181547	0.079042
H85	H	0.394899	-0.057162	0.000578
H86	H	0.477330	-0.084415	-0.054005
H87	H	0.466502	-0.069946	0.132959
H88	H	0.548936	-0.097215	0.078407
H89	H	0.493543	-0.209499	0.025015
H90	H	0.411112	-0.182238	0.079596
H91	H	0.494392	-0.209669	0.132586
C92	C	0.905989	-0.434606	-0.161684
C93	C	0.822828	-0.395438	-0.161323
C94	C	0.780614	-0.420050	-0.240189
H95	H	0.934076	-0.418330	-0.215749
H96	H	0.905665	-0.494153	-0.161350
H97	H	0.823157	-0.335904	-0.161666
H98	H	0.794718	-0.411709	-0.107276
H99	H	0.780289	-0.479596	-0.239855
H100	H	0.808708	-0.403772	-0.294248
H101	H	0.724183	-0.393484	-0.239951
C102	C	1.078458	-0.335821	0.161695
C103	C	1.161150	-0.376197	0.162282
C104	C	1.203290	-0.351627	0.241218
H105	H	1.079720	-0.276408	0.160843
H106	H	1.049693	-0.351195	0.215700
H107	H	1.189908	-0.360818	0.108291
H108	H	1.159913	-0.435610	0.163147
H109	H	1.174525	-0.367000	0.295223
H110	H	1.204546	-0.292213	0.240360
H111	H	1.259398	-0.379024	0.241631
C112	C	0.866433	0.242638	-0.567312
C113	C	0.867818	0.242261	-0.664385
C114	C	0.806413	0.304625	-0.697932
H115	H	0.812338	0.231530	-0.546249
H116	H	0.877946	0.296313	-0.545293
H117	H	0.856298	0.188599	-0.686396
H118	H	0.921898	0.253379	-0.685474
H119	H	0.817926	0.358300	-0.675912
H120	H	0.752322	0.293512	-0.676862
H121	H	0.807349	0.304383	-0.763799
H122	H	0.917599	-0.427945	0.140300
H123	H	0.851745	0.086116	-0.441955
H124	H	1.023570	0.254464	-0.441969
C125	C	0.563980	0.031047	0.161837
C126	C	0.530270	0.072684	0.241245
C127	C	0.565786	0.031925	0.320337
H128	H	0.551483	-0.025799	0.162512
H129	H	0.623443	0.032013	0.160954
H130	H	0.470821	0.071709	0.242127
H131	H	0.542765	0.129527	0.240601
H132	H	0.625249	0.032891	0.319454
H133	H	0.553286	-0.024920	0.321002
H134	H	0.542924	0.060174	0.374224
C135	C	0.420686	0.198873	0.161704
C136	C	0.438004	0.283018	0.161355
C137	C	0.402607	0.324134	0.240288
H138	H	0.361333	0.197141	0.161475
H139	H	0.444295	0.171422	0.215719
H140	H	0.414392	0.310461	0.107355
H141	H	0.497350	0.284774	0.161598
H142	H	0.426215	0.296683	0.294303
H143	H	0.343255	0.322396	0.240052
H144	H	0.414358	0.381228	0.240066
H145	H	1.066880	-0.342540	-0.140473
C146	C	1.161370	-0.467719	-0.000301
C147	C	1.203313	-0.444734	-0.080059
C148	C	1.285875	-0.485442	-0.080328
H149	H	1.190430	-0.451538	0.053140
H150	H	1.159861	-0.527112	0.000161
H151	H	1.204826	-0.385353	-0.080513
H152	H	1.174278	-0.460916	-0.133514
H153	H	1.284366	-0.544836	-0.079866
H154	H	1.314927	-0.469258	-0.026883
H155	H	1.314341	-0.469859	-0.134447
C156	C	1.118122	-0.013179	-0.432955
C157	C	1.117871	-0.011981	-0.335878
C158	C	1.179302	-0.074419	-0.302534
H159	H	1.106017	-0.066920	-0.454134
H160	H	1.172076	-0.002594	-0.454998
H161	H	1.063929	-0.022572	-0.313844
H162	H	1.129985	0.041745	-0.314674
H163	H	1.233256	-0.063834	-0.324578
H164	H	1.167192	-0.128156	-0.323720
H165	H	1.179145	-0.073610	-0.236665
H166	H	1.132739	0.143515	-0.558077
H167	H	0.525313	0.263254	-0.000064
