data_functionalizedCrystal
_audit_creation_method	'MofGen! by Chris Wilmer'
_symmetry_space_group_name_H-M	'P1'
_symmetry_Int_Tables_number	1
_symmetry_cell_setting	triclinic
loop_
_symmetry_equiv_pos_as_xyz
  x,y,z
_cell_length_a	12.645330
_cell_length_b	16.120530
_cell_length_c	16.120297
_cell_angle_alpha	89.871860
_cell_angle_beta	92.876762
_cell_angle_gamma	92.886558
loop_
_atom_site_label
_atom_site_type_symbol
_atom_site_fract_x
_atom_site_fract_y
_atom_site_fract_z
Zn1	Zn	-0.537081	-1.247482	-0.534595
Zn2	Zn	-0.037081	-0.747482	-0.034595
Zn3	Zn	-0.705843	-1.254445	-0.395547
Zn4	Zn	-0.205843	-0.754445	0.104453
Zn5	Zn	-0.519167	-1.115471	-0.388512
Zn6	Zn	-0.019167	-0.615471	0.111488
Zn7	Zn	-0.704866	-1.108402	-0.527517
Zn8	Zn	-0.204866	-0.608402	-0.027517
O9	O	-0.616739	-1.181450	-0.461543
O10	O	-0.116739	-0.681450	0.038457
O11	O	-0.567373	-1.364772	-0.522057
O12	O	-0.067373	-0.864772	-0.022057
O13	O	-0.673991	-1.241883	-0.278248
O14	O	-0.173991	-0.741883	0.221752
O15	O	-0.373200	-1.133026	-0.407909
O16	O	0.126800	-0.633026	0.092091
O17	O	-0.691362	-1.369888	-0.419899
O18	O	-0.191362	-0.869888	0.080101
O19	O	-0.386361	-1.230014	-0.515235
O20	O	0.113639	-0.730014	-0.015235
O21	O	-0.536842	-1.139779	-0.273080
O22	O	-0.036842	-0.639779	0.226920
O23	O	-0.535895	-0.998166	-0.401045
O24	O	-0.035895	-0.498166	0.098955
O25	O	-0.689698	-1.120978	-0.644821
O26	O	-0.189698	-0.620978	-0.144821
O27	O	-0.672327	-0.992972	-0.503171
O28	O	-0.172327	-0.492972	-0.003171
O29	O	-0.566427	-1.223160	-0.650022
O30	O	-0.066427	-0.723160	-0.150022
O31	O	-0.854056	-1.235028	-0.413035
O32	O	-0.354056	-0.735028	0.086965
O33	O	-0.853339	-1.127731	-0.509992
O34	O	-0.353339	-0.627731	-0.009992
C35	C	-0.602062	-0.965397	-0.450577
C36	C	-0.102062	-0.465397	0.049423
C37	C	-0.595810	-0.872967	-0.445905
C38	C	-0.095810	-0.372967	0.054095
C39	C	-0.892164	-1.181390	-0.461528
C40	C	-0.392164	-0.681390	0.038472
C41	C	-1.009999	-1.181439	-0.461554
C42	C	-0.509999	-0.681439	0.038446
C43	C	-0.629952	-1.170504	-0.678438
C44	C	-0.129952	-0.670504	-0.178438
C45	C	-0.635582	-1.165839	-0.770865
C46	C	-0.135582	-0.665839	-0.270865
C47	C	-1.177186	-1.114193	-0.522761
C48	C	-0.677186	-0.614193	-0.022761
C49	C	-1.054592	-1.113876	-0.522537
C50	C	-0.554592	-0.613876	-0.022537
C51	C	-1.047614	-1.162161	-0.372717
C52	C	-0.547614	-0.662161	0.127283
C53	C	-1.170210	-1.161751	-0.373088
C54	C	-0.670210	-0.661751	0.126912
C55	C	-1.184441	-1.268390	-0.488492
C56	C	-0.684441	-0.768390	0.011508
C57	C	-1.061915	-1.267753	-0.490381
C58	C	-0.561915	-0.767753	0.009619
C59	C	-0.340242	-1.181532	-0.461577
C60	C	0.159758	-0.681532	0.038423
C61	C	-0.222415	-1.181567	-0.461592
C62	C	0.277585	-0.681567	0.038408
C63	C	-0.631475	-1.398347	-0.472552
C64	C	-0.131475	-0.898347	0.027448
C65	C	-0.637754	-1.490775	-0.477244
C66	C	-0.137754	-0.990775	0.022756
C67	C	-0.584371	-0.703737	-0.437383
C68	C	-0.084371	-0.203737	0.062617
C69	C	-0.649190	-0.660000	-0.485763
C70	C	-0.149190	-0.160000	0.014237
C71	C	-0.642825	-0.565835	-0.481022
C72	C	-0.142825	-0.065835	0.018978
C73	C	-0.590734	-0.797911	-0.442124
C74	C	-0.090734	-0.297911	0.057876
C75	C	-0.645836	-1.157292	-0.940091
C76	C	-0.145836	-0.657292	-0.440091
C77	C	-0.587337	-1.205771	-0.983855
C78	C	-0.087337	-0.705771	-0.483855
C79	C	-0.593042	-1.201016	-1.078018
C80	C	-0.093042	-0.701016	-0.578018
C81	C	-0.640132	-1.162047	-0.845919
C82	C	-0.140132	-0.662047	-0.345919
C83	C	-0.603505	-1.192401	-0.245494
C84	C	-0.103505	-0.692401	0.254506
C85	C	-0.597587	-1.197227	-0.153075
C86	C	-0.097587	-0.697227	0.346925
H87	H	-1.211590	-1.125592	-0.588700
H88	H	-0.711590	-0.625592	-0.088700
H89	H	-1.011500	-1.099513	-0.350136
H90	H	-0.511500	-0.599513	0.149864
H91	H	-0.700199	-1.112221	-0.973339
H92	H	-0.200199	-0.612221	-0.473339
N93	N	-0.504548	-0.659669	-0.377790
N94	N	-0.004548	-0.159669	0.122210
H95	H	-0.518288	-0.677720	-0.319101
H96	H	-0.018288	-0.177720	0.180899
H97	H	-0.430651	-0.674105	-0.391609
H98	H	0.069349	-0.174105	0.108391
N99	N	-1.009055	-1.225351	-0.310426
N100	N	-0.509055	-0.725351	0.189574
H101	H	-1.038148	-1.282575	-0.327649
H102	H	-0.538148	-0.782575	0.172351
H103	H	-0.929026	-1.224004	-0.308154
H104	H	-0.429026	-0.724004	0.191846
H105	H	-1.220602	-1.286844	-0.552405
H106	H	-0.720602	-0.786844	-0.052405
N107	N	-1.008788	-1.028501	-0.498459
N108	N	-0.508788	-0.528501	0.001541
H109	H	-1.068248	-0.990927	-0.487945
H110	H	-0.568248	-0.490927	0.012055
H111	H	-0.961526	-1.032629	-0.446372
H112	H	-0.461526	-0.532629	0.053628
H113	H	-1.029426	-1.125422	-0.588270
H114	H	-0.529426	-0.625422	-0.088270
N115	N	-0.729046	-0.704074	-0.545334
N116	N	-0.229046	-0.204074	-0.045334
H117	H	-0.771422	-0.661764	-0.576959
H118	H	-0.271422	-0.161764	-0.076959
H119	H	-0.690718	-0.738193	-0.585658
H120	H	-0.190718	-0.238193	-0.085658
H121	H	-0.532968	-1.250846	-0.950605
H122	H	-0.032968	-0.750846	-0.450605
H123	H	-1.032010	-1.320237	-0.449427
H124	H	-0.532010	-0.820237	0.050573
H125	H	-1.037930	-1.282372	-0.555782
H126	H	-0.537930	-0.782372	-0.055782
H127	H	-1.193374	-1.098415	-0.350817
H128	H	-0.693374	-0.598415	0.149183
N129	N	-1.211089	-1.029334	-0.498974
N130	N	-0.711089	-0.529334	0.001026
H131	H	-1.291043	-1.029079	-0.501877
H132	H	-0.791043	-0.529079	-0.001877
H133	H	-1.183168	-1.015699	-0.440540
H134	H	-0.683168	-0.515699	0.059460
N135	N	-1.223324	-1.334814	-0.429560
N136	N	-0.723324	-0.834814	0.070440
H137	H	-1.160674	-1.362399	-0.402148
H138	H	-0.660674	-0.862399	0.097852
H139	H	-1.265347	-1.308782	-0.385695
H140	H	-0.765347	-0.808782	0.114305
N141	N	-1.209490	-1.224244	-0.310342
N142	N	-0.709490	-0.724244	0.189658
H143	H	-1.147163	-1.251934	-0.282561
H144	H	-0.647163	-0.751934	0.217439
H145	H	-1.249165	-1.194988	-0.267119
H146	H	-0.749165	-0.694988	0.232881
