data_functionalizedCrystal
_audit_creation_method	'MofGen! by Chris Wilmer'
_symmetry_space_group_name_H-M	'P1'
_symmetry_Int_Tables_number	1
_symmetry_cell_setting	triclinic
loop_
_symmetry_equiv_pos_as_xyz
  x,y,z
_cell_length_a	21.295418
_cell_length_b	21.295418
_cell_length_c	19.805399
_cell_angle_alpha	89.958059
_cell_angle_beta	90.029155
_cell_angle_gamma	89.954392
loop_
_atom_site_label
_atom_site_type_symbol
_atom_site_fract_x
_atom_site_fract_y
_atom_site_fract_z
Zn1	Zn	-0.250318	-0.962333	0.383116
Zn2	Zn	0.083016	-0.628999	0.716450
Zn3	Zn	0.416349	-0.295666	1.049783
Zn4	Zn	-0.355587	-0.962252	0.269925
Zn5	Zn	-0.022253	-0.628918	0.603258
Zn6	Zn	0.311080	-0.295585	0.936592
Zn7	Zn	-0.250369	-0.857067	0.269897
Zn8	Zn	0.082965	-0.523733	0.603230
Zn9	Zn	0.416298	-0.190400	0.936563
Zn10	Zn	-0.355587	-0.857031	0.383028
Zn11	Zn	-0.022253	-0.523698	0.716361
Zn12	Zn	0.311080	-0.190364	1.049694
O13	O	-0.302965	-0.909671	0.326491
O14	O	0.030368	-0.576337	0.659825
O15	O	0.363702	-0.243004	0.993158
O16	O	-0.264261	-1.050411	0.368150
O17	O	0.069073	-0.717078	0.701484
O18	O	0.402406	-0.383745	1.034817
O19	O	-0.341650	-0.948280	0.175205
O20	O	-0.008317	-0.614946	0.508538
O21	O	0.325016	-0.281613	0.841871
O22	O	-0.162272	-0.871079	0.284941
O23	O	0.171061	-0.537746	0.618274
O24	O	0.504394	-0.204413	0.951608
O25	O	-0.341601	-1.050352	0.284989
O26	O	-0.008268	-0.717019	0.618322
O27	O	0.325066	-0.383685	0.951656
O28	O	-0.162235	-0.948418	0.368123
O29	O	0.171098	-0.615084	0.701456
O30	O	0.504432	-0.281751	1.034790
O31	O	-0.264347	-0.871001	0.175184
O32	O	0.068986	-0.537667	0.508517
O33	O	0.402319	-0.204334	0.841851
O34	O	-0.264347	-0.768973	0.284855
O35	O	0.068986	-0.435639	0.618188
O36	O	0.402319	-0.102306	0.951521
O37	O	-0.341601	-0.871018	0.477756
O38	O	-0.008268	-0.537685	0.811089
O39	O	0.325066	-0.204352	1.144423
O40	O	-0.341650	-0.768946	0.367971
O41	O	-0.008317	-0.435613	0.701305
O42	O	0.325016	-0.102280	1.034638
O43	O	-0.264261	-0.948383	0.477821
O44	O	0.069073	-0.615050	0.811155
O45	O	0.402406	-0.281716	1.144488
O46	O	-0.443676	-0.948245	0.284903
O47	O	-0.110343	-0.614912	0.618236
O48	O	0.222991	-0.281578	0.951570
O49	O	-0.443676	-0.870940	0.367999
O50	O	-0.110343	-0.537607	0.701332
O51	O	0.222991	-0.204273	1.034666
C52	C	-0.303005	-0.746119	0.326401
C53	C	0.030329	-0.412786	0.659734
C54	C	0.363662	-0.079452	0.993068
C55	C	-0.303037	-0.676151	0.326378
C56	C	0.030296	-0.342817	0.659711
C57	C	0.363630	-0.009484	0.993045
C58	C	-0.466517	-0.909597	0.326459
C59	C	-0.133183	-0.576264	0.659792
C60	C	0.200150	-0.242930	0.993126
C61	C	-0.536485	-0.909623	0.326468
C62	C	-0.203151	-0.576290	0.659801
C63	C	0.130182	-0.242956	0.993135
C64	C	-1.035921	-0.950074	0.283333
C65	C	-0.702588	-0.616741	0.616666
C66	C	-0.369255	-0.283408	0.949999
C67	C	-0.970179	-0.950050	0.283317
C68	C	-0.636846	-0.616717	0.616650
C69	C	-0.303512	-0.283384	0.949983
C70	C	-0.937324	-0.909759	0.326539
C71	C	-0.603991	-0.576426	0.659872
C72	C	-0.270657	-0.243092	0.993206
C73	C	-0.970217	-0.869477	0.369768
C74	C	-0.636883	-0.536144	0.703101
C75	C	-0.303550	-0.202811	1.036435
C76	C	-1.035958	-0.869498	0.369778
C77	C	-0.702625	-0.536165	0.703111
C78	C	-0.369291	-0.202831	1.036445
N79	N	-0.834074	-0.904864	0.385764
N80	N	-0.500740	-0.571531	0.719097
N81	N	-0.167407	-0.238198	1.052430
N82	N	-0.771622	-0.904849	0.385752
N83	N	-0.438289	-0.571515	0.719086
N84	N	-0.104956	-0.238182	1.052419
C85	C	-0.739249	-0.909694	0.326510
C86	C	-0.405916	-0.576360	0.659844
C87	C	-0.072583	-0.243027	0.993177
N88	N	-0.771687	-0.914567	0.267279
N89	N	-0.438354	-0.581234	0.600612
N90	N	-0.105020	-0.247901	0.933946
N91	N	-0.834144	-0.914587	0.267291
N92	N	-0.500811	-0.581253	0.600625
N93	N	-0.167477	-0.247920	0.933958
C94	C	-0.866039	-0.909732	0.326533
C95	C	-0.532705	-0.576399	0.659866
C96	C	-0.199372	-0.243065	0.993199
C97	C	-0.635079	-0.949944	0.283263
C98	C	-0.301745	-0.616610	0.616596
C99	C	0.031588	-0.283277	0.949930
C100	C	-0.569335	-0.949915	0.283246
C101	C	-0.236002	-0.616582	0.616579
C102	C	0.097332	-0.283249	0.949913
C103	C	-0.569374	-0.869346	0.369704
C104	C	-0.236041	-0.536012	0.703037
C105	C	0.097292	-0.202679	1.036370
C106	C	-0.635117	-0.869371	0.369715
C107	C	-0.301783	-0.536037	0.703048
C108	C	0.031550	-0.202704	1.036381
C109	C	-0.667965	-0.909673	0.326495
C110	C	-0.334632	-0.576340	0.659829
C111	C	-0.001298	-0.243006	0.993162
C112	C	-0.343344	-0.643287	0.369590
C113	C	-0.010010	-0.309954	0.702923
C114	C	0.323323	0.023380	1.036256
C115	C	-0.343331	-0.577544	0.369615
C116	C	-0.009997	-0.244211	0.702948
C117	C	0.323336	0.089122	1.036282
C118	C	-0.303018	-0.544668	0.326417
C119	C	0.030315	-0.211335	0.659750
C120	C	0.363649	0.121998	0.993083
C121	C	-0.262704	-0.577540	0.283202
C122	C	0.070629	-0.244207	0.616535
C123	C	0.403963	0.089127	0.949869
C124	C	-0.262713	-0.643281	0.283183
C125	C	0.070620	-0.309948	0.616516
C126	C	0.403953	0.023385	0.949849
N127	N	-0.298104	-0.441398	0.267209
N128	N	0.035229	-0.108064	0.600542
N129	N	0.368562	0.225269	0.933875
N130	N	-0.298099	-0.378946	0.267229
N131	N	0.035234	-0.045613	0.600562
N132	N	0.368568	0.287720	0.933896
C133	C	-0.302986	-0.346594	0.326473
C134	C	0.030347	-0.013260	0.659806
C135	C	0.363680	0.320073	0.993140
N136	N	-0.307891	-0.379052	0.385698
N137	N	0.025442	-0.045718	0.719031
N138	N	0.358775	0.287615	1.052364
N139	N	-0.307900	-0.441509	0.385677
N140	N	0.025433	-0.108175	0.719010
N141	N	0.358767	0.225158	1.052343
C142	C	-0.303003	-0.473383	0.326433
C143	C	0.030330	-0.140050	0.659766
C144	C	0.363664	0.193284	0.993100
C145	C	-0.343281	-0.242444	0.369716
C146	C	-0.009948	0.090889	0.703049
C147	C	0.323386	0.424222	1.036383
C148	C	-0.343264	-0.176700	0.369742
C149	C	-0.009931	0.156633	0.703076
C150	C	0.323403	0.489966	1.036409
C151	C	-0.262640	-0.176697	0.283323
C152	C	0.070693	0.156636	0.616657
C153	C	0.404026	0.489969	0.949990
C154	C	-0.262654	-0.242440	0.283303
C155	C	0.070679	0.090893	0.616636
C156	C	0.404012	0.424227	0.949969
C157	C	-0.302978	-0.275309	0.326498
C158	C	0.030355	0.058024	0.659832
C159	C	0.363689	0.391357	0.993165
C160	C	-0.138775	-0.909762	0.326539
C161	C	0.194559	-0.576428	0.659872
C162	C	0.527892	-0.243095	0.993205
C163	C	-0.068806	-0.909800	0.326559
C164	C	0.264527	-0.576467	0.659892
C165	C	0.597860	-0.243134	0.993225
C166	C	-0.302925	-0.909706	0.503034
C167	C	0.030408	-0.576373	0.836368
C168	C	0.363741	-0.243039	1.169701
C169	C	-0.302908	-0.909721	0.578266
C170	C	0.030425	-0.576388	0.911600
C171	C	0.363758	-0.243054	1.244933
C172	C	-0.302936	-0.073861	0.326563
C173	C	0.030398	0.259473	0.659897
C174	C	0.363731	0.592806	0.993230
C175	C	-0.302950	-0.143829	0.326544
C176	C	0.030383	0.189504	0.659878
C177	C	0.363717	0.522838	0.993211
C178	C	-0.302959	-0.909672	0.150635
C179	C	0.030374	-0.576338	0.483969
C180	C	0.363708	-0.243005	0.817302
C181	C	-0.302798	-0.909779	0.075404
C182	C	0.030535	-0.576445	0.408737
C183	C	0.363868	-0.243112	0.742071
C184	C	-0.262635	-0.950006	0.613645
C185	C	0.070698	-0.616672	0.946979
C186	C	0.404032	-0.283339	1.280312
C187	C	-0.262617	-0.950012	0.684334
C188	C	0.070717	-0.616679	1.017667
C189	C	0.404050	-0.283345	1.351001
C190	C	-0.302875	-0.909737	0.719642
C191	C	0.030458	-0.576403	1.052975
C192	C	0.363791	-0.243070	1.386309
C193	C	-0.343150	-0.869447	0.684258
C194	C	-0.009817	-0.536114	1.017591
C195	C	0.323516	-0.202781	1.350924
C196	C	-0.343165	-0.869438	0.613571
C197	C	-0.009832	-0.536105	0.946904
C198	C	0.323502	-0.202772	1.280237
C199	C	-0.343092	-0.869483	0.969331
C200	C	-0.009758	-0.536150	1.302665
C201	C	0.323575	-0.202816	1.635998
C202	C	-0.343075	-0.869497	1.040023
C203	C	-0.009742	-0.536163	1.373357
C204	C	0.323591	-0.202830	1.706690
C205	C	-0.262544	-0.950057	1.040095
C206	C	0.070790	-0.616723	1.373428
C207	C	0.404123	-0.283390	1.706761
C208	C	-0.262558	-0.950048	0.969407
C209	C	0.070775	-0.616714	1.302741
C210	C	0.404109	-0.283381	1.636074
C211	C	-0.302830	-0.909756	0.934029
C212	C	0.030503	-0.576423	1.267363
C213	C	0.363836	-0.243090	1.600696
C214	C	-0.302849	-0.909749	0.857381
C215	C	0.030484	-0.576416	1.190714
C216	C	0.363818	-0.243082	1.524048
C217	C	-0.302861	-0.909747	0.796289
C218	C	0.030473	-0.576413	1.129622
C219	C	0.363806	-0.243080	1.462956
H220	H	-1.062663	-0.982890	0.248138
H221	H	-0.729329	-0.649556	0.581471
H222	H	-0.395996	-0.316223	0.914804
C223	C	-0.387699	-0.679439	0.417108
C224	C	-0.054365	-0.346106	0.750442
C225	C	0.278968	-0.012773	1.083775
N226	N	-0.421107	-0.706671	0.452900
N227	N	-0.087774	-0.373337	0.786234
N228	N	0.245559	-0.040004	1.119567
H229	H	-0.229835	-0.269198	0.248112
H230	H	0.103498	0.064135	0.581445
H231	H	0.436831	0.397469	0.914778
C232	C	-0.387429	-0.825138	0.723099
C233	C	-0.054096	-0.491804	1.056432
C234	C	0.279237	-0.158471	1.389766
N235	N	-0.420781	-0.791762	0.752354
N236	N	-0.087447	-0.458429	1.085687
N237	N	0.245886	-0.125096	1.419020
C238	C	-0.218235	-0.994371	1.079017
C239	C	0.115098	-0.661037	1.412350
C240	C	0.448432	-0.327704	1.745683
N241	N	-0.184862	-1.027747	1.108332
N242	N	0.148471	-0.694413	1.441665
N243	N	0.481804	-0.361080	1.774998
C244	C	-0.387675	-0.541387	0.417151
C245	C	-0.054341	-0.208053	0.750484
C246	C	0.278992	0.125280	1.083818
N247	N	-0.421076	-0.514155	0.452954
N248	N	-0.087742	-0.180822	0.786287
N249	N	0.245591	0.152512	1.119621
C250	C	-0.218314	-0.994330	0.723248
C251	C	0.115019	-0.660996	1.056581
C252	C	0.448353	-0.327663	1.389915
N253	N	-0.184943	-1.027712	0.752557
N254	N	0.148390	-0.694378	1.085891
N255	N	0.481723	-0.361045	1.419224
C256	C	-0.387612	-0.140550	0.417275
C257	C	-0.054279	0.192783	0.750609
C258	C	0.279055	0.526116	1.083942
N259	N	-0.421019	-0.113322	0.453075
N260	N	-0.087685	0.220012	0.786408
N261	N	0.245648	0.553345	1.119742
C262	C	-0.387361	-0.825184	1.078861
C263	C	-0.054027	-0.491851	1.412194
C264	C	0.279306	-0.158517	1.745527
N265	N	-0.420714	-0.791809	1.108113
N266	N	-0.087381	-0.458475	1.441446
N267	N	0.245952	-0.125142	1.774780
C268	C	-0.933998	-0.994363	0.235769
C269	C	-0.600665	-0.661030	0.569102
C270	C	-0.267332	-0.327696	0.902436
N271	N	-0.906749	-1.027742	0.199959
N272	N	-0.573415	-0.694408	0.533292
N273	N	-0.240082	-0.361075	0.866625
C274	C	-0.934075	-0.825158	0.417314
C275	C	-0.600742	-0.491825	0.750648
C276	C	-0.267408	-0.158491	1.083981
N277	N	-0.906853	-0.791774	0.453126
N278	N	-0.573520	-0.458441	0.786460
N279	N	-0.240186	-0.125108	1.119793
C280	C	-0.218295	-0.140537	0.235805
C281	C	0.115038	0.192796	0.569138
C282	C	0.448371	0.526129	0.902471
N283	N	-0.184893	-0.113299	0.200013
N284	N	0.148441	0.220035	0.533347
N285	N	0.481774	0.553368	0.866680
C286	C	-1.072133	-0.825194	0.417335
C287	C	-0.738799	-0.491861	0.750669
C288	C	-0.405466	-0.158527	1.084002
N289	N	-1.099380	-0.791825	0.453158
N290	N	-0.766047	-0.458492	0.786491
N291	N	-0.432713	-0.125158	1.119824
C292	C	-0.671214	-0.994271	0.235715
C293	C	-0.337881	-0.660938	0.569048
C294	C	-0.004548	-0.327604	0.902382
N295	N	-0.698430	-1.027657	0.199900
N296	N	-0.365096	-0.694324	0.533234
N297	N	-0.031763	-0.360991	0.866567
H298	H	-0.375953	-0.836628	0.584766
H299	H	-0.042620	-0.503295	0.918099
H300	H	0.290713	-0.169961	1.251432
H301	H	-0.542624	-0.836537	0.404893
H302	H	-0.209291	-0.503204	0.738227
H303	H	0.124043	-0.169870	1.071560
H304	H	-0.542560	-0.982709	0.248042
H305	H	-0.209226	-0.649376	0.581375
H306	H	0.124107	-0.316043	0.914709
H307	H	-0.229854	-0.982805	0.584903
H308	H	0.103480	-0.649471	0.918236
H309	H	0.436813	-0.316138	1.251569
H310	H	-0.661892	-0.836577	0.404916
H311	H	-0.328559	-0.503244	0.738250
H312	H	0.004775	-0.169910	1.071583
H313	H	-0.229880	-0.550768	0.248031
H314	H	0.103453	-0.217435	0.581364
H315	H	0.436787	0.115899	0.914698
H316	H	-0.229889	-0.670039	0.247994
H317	H	0.103444	-0.336705	0.581328
H318	H	0.436778	-0.003372	0.914661
C319	C	-0.218268	-0.994351	0.930573
C320	C	0.115065	-0.661018	1.263906
C321	C	0.448398	-0.327685	1.597239
N322	N	-0.184905	-1.027719	0.901323
N323	N	0.148428	-0.694386	1.234657
N324	N	0.481762	-0.361052	1.567990
H325	H	-0.376112	-0.269208	0.404892
H326	H	-0.042778	0.064125	0.738225
H327	H	0.290555	0.397459	1.071558
C328	C	-0.387391	-0.825159	0.930425
C329	C	-0.054057	-0.491826	1.263758
C330	C	0.279276	-0.158493	1.597091
N331	N	-0.420758	-0.791772	0.901118
N332	N	-0.087424	-0.458438	1.234451
N333	N	0.245909	-0.125105	1.567784
