data_functionalizedCrystal
_audit_creation_method	'MofGen! by Chris Wilmer'
_symmetry_space_group_name_H-M	'P1'
_symmetry_Int_Tables_number	1
_symmetry_cell_setting	triclinic
loop_
_symmetry_equiv_pos_as_xyz
  x,y,z
_cell_length_a	16.959455
_cell_length_b	16.959453
_cell_length_c	17.077396
_cell_angle_alpha	89.970936
_cell_angle_beta	89.975476
_cell_angle_gamma	90.017008
loop_
_atom_site_label
_atom_site_type_symbol
_atom_site_fract_x
_atom_site_fract_y
_atom_site_fract_z
Zn1	Zn	1.208417	-0.314744	-0.443945
Zn2	Zn	1.708417	0.185256	0.056055
Zn3	Zn	1.208330	-0.446932	-0.312677
Zn4	Zn	1.708330	0.053068	0.187323
Zn5	Zn	1.076236	-0.314765	-0.312681
Zn6	Zn	1.576236	0.185235	0.187319
Zn7	Zn	1.076210	-0.446878	-0.443889
Zn8	Zn	1.576210	0.053122	0.056111
O9	O	1.142298	-0.380830	-0.378298
O10	O	1.642298	0.119170	0.121702
O11	O	1.319016	-0.332294	-0.426553
O12	O	1.819016	0.167706	0.073447
O13	O	1.190782	-0.429431	-0.202831
O14	O	1.690782	0.070569	0.297169
O15	O	1.093817	-0.204151	-0.330118
O16	O	1.593817	0.295849	0.169882
O17	O	1.318952	-0.429411	-0.330112
O18	O	1.818952	0.070589	0.169888
O19	O	1.190930	-0.204136	-0.426557
O20	O	1.690930	0.295864	0.073443
O21	O	1.093732	-0.332328	-0.202834
O22	O	1.593732	0.167672	0.297166
O23	O	0.965621	-0.332276	-0.330065
O24	O	1.465621	0.167724	0.169935
O25	O	1.093773	-0.429319	-0.553744
O26	O	1.593773	0.070681	-0.053744
O27	O	0.965603	-0.429339	-0.426463
O28	O	1.465603	0.070661	0.073537
O29	O	1.190905	-0.332241	-0.553784
O30	O	1.690905	0.167759	-0.053784
O31	O	1.190757	-0.557536	-0.330058
O32	O	1.690757	-0.057536	0.169942
O33	O	1.093689	-0.557496	-0.426459
O34	O	1.593689	-0.057496	0.073541
C35	C	0.936932	-0.380804	-0.378259
C36	C	1.436932	0.119196	0.121741
C37	C	0.849075	-0.380812	-0.378260
C38	C	1.349075	0.119188	0.121740
C39	C	0.477556	-0.431349	-0.328055
C40	C	0.977556	0.068651	0.171945
C41	C	0.477643	-0.330376	-0.428636
C42	C	0.977643	0.169624	0.071364
C43	C	0.560189	-0.330363	-0.428617
C44	C	1.060189	0.169637	0.071383
C45	C	0.601422	-0.380845	-0.378317
C46	C	1.101422	0.119155	0.121683
C47	C	0.560109	-0.431339	-0.328036
C48	C	1.060109	0.068661	0.171964
C49	C	0.601509	-0.279875	-0.478903
C50	C	1.101509	0.220125	0.021097
C51	C	0.684059	-0.279861	-0.478886
C52	C	1.184059	0.220139	0.021114
C53	C	0.725294	-0.330339	-0.428582
C54	C	1.225294	0.169661	0.071418
C55	C	0.683976	-0.380835	-0.378298
C56	C	1.183976	0.119165	0.121702
C57	C	0.725209	-0.431316	-0.327998
C58	C	1.225209	0.068684	0.172002
C59	C	0.683892	-0.481809	-0.277710
C60	C	1.183892	0.018191	0.222290
C61	C	0.601344	-0.481817	-0.277732
C62	C	1.101344	0.018183	0.222268
C63	C	0.807842	-0.330331	-0.428560
C64	C	1.307842	0.169669	0.071440
C65	C	0.807762	-0.431306	-0.327979
C66	C	1.307762	0.068694	0.172021
C67	C	1.142232	-0.586196	-0.378269
C68	C	1.642232	-0.086196	0.121731
C69	C	1.142276	-0.674053	-0.378283
C70	C	1.642276	-0.174053	0.121717
C71	C	1.192929	-1.045462	-0.428609
C72	C	1.692929	-0.545462	0.071391
C73	C	1.091887	-1.045594	-0.328104
C74	C	1.591887	-0.545594	0.171896
C75	C	1.091858	-0.963049	-0.328086
C76	C	1.591858	-0.463049	0.171914
C77	C	1.142364	-0.921706	-0.378331
C78	C	1.642364	-0.421706	0.121669
C79	C	1.192900	-0.962908	-0.428594
C80	C	1.692900	-0.462908	0.071406
C81	C	1.041318	-0.921840	-0.277830
C82	C	1.541318	-0.421840	0.222170
C83	C	1.041286	-0.839289	-0.277811
C84	C	1.541286	-0.339289	0.222189
C85	C	1.091797	-0.797944	-0.328052
C86	C	1.591797	-0.297944	0.171948
C87	C	1.142335	-0.839152	-0.378316
C88	C	1.642335	-0.339152	0.121684
C89	C	1.192841	-0.797809	-0.428561
C90	C	1.692841	-0.297809	0.071439
C91	C	1.243384	-0.839015	-0.478822
C92	C	1.743384	-0.339015	0.021178
C93	C	1.243411	-0.921564	-0.478835
C94	C	1.743411	-0.421564	0.021165
C95	C	1.091770	-0.715396	-0.328039
C96	C	1.591770	-0.215396	0.171961
C97	C	1.192812	-0.715255	-0.428546
C98	C	1.692812	-0.215255	0.071454
C99	C	1.348466	-0.380856	-0.378338
C100	C	1.848466	0.119144	0.121662
C101	C	1.436323	-0.380868	-0.378355
C102	C	1.936323	0.119132	0.121645
C103	C	1.142346	-0.380772	-0.583043
C104	C	1.642346	0.119228	-0.083043
C105	C	1.142366	-0.380747	-0.670292
C106	C	1.642366	0.119253	-0.170292
C107	C	1.142386	-0.174662	-0.378344
C108	C	1.642386	0.325338	0.121656
C109	C	1.142423	-0.086805	-0.378364
C110	C	1.642423	0.413195	0.121636
C111	C	1.192945	-0.330194	-0.711305
C112	C	1.692945	0.169806	-0.211305
C113	C	1.192954	-0.330168	-0.793285
C114	C	1.692954	0.169832	-0.293285
C115	C	1.142389	-0.380699	-0.834252
C116	C	1.642389	0.119301	-0.334252
C117	C	1.091805	-0.431254	-0.793234
C118	C	1.591805	0.068746	-0.293234
C119	C	1.091792	-0.431275	-0.711255
C120	C	1.591792	0.068725	-0.211255
C121	C	1.091837	-0.431206	-0.964104
C122	C	1.591837	0.068794	-0.464104
C123	C	1.091850	-0.431186	-1.046088
C124	C	1.591850	0.068814	-0.546088
C125	C	1.192999	-0.330098	-1.046135
C126	C	1.692999	0.169902	-0.546135
C127	C	1.192986	-0.330120	-0.964156
C128	C	1.692986	0.169880	-0.464156
C129	C	1.142403	-0.380676	-0.923143
C130	C	1.642403	0.119324	-0.423143
C131	C	1.142296	-0.380831	-0.174350
C132	C	1.642296	0.119169	0.325650
C133	C	1.142429	-0.380633	-0.087101
C134	C	1.642429	0.119367	0.412899
H135	H	0.717692	-0.238746	-0.519834
H136	H	1.217692	0.261254	-0.019834
H137	H	1.050598	-0.472433	-0.677863
H138	H	1.550598	0.027567	-0.177863
Cl139	Cl	1.256576	-0.266648	-0.844841
Cl140	Cl	1.756576	0.233352	-0.344841
Cl141	Cl	0.735737	-0.545274	-0.214484
Cl142	Cl	1.235737	-0.045274	0.285516
Cl143	Cl	1.256314	-0.663288	-0.491711
Cl144	Cl	1.756314	-0.163288	0.008289
Cl145	Cl	0.549670	-0.216428	-0.542143
Cl146	Cl	1.049670	0.283572	-0.042143
H147	H	1.284503	-0.805344	-0.519735
H148	H	1.784503	-0.305344	-0.019735
H149	H	1.000132	-0.805744	-0.236885
H150	H	1.500132	-0.305744	0.263115
Cl151	Cl	0.859779	-0.266864	-0.491778
Cl152	Cl	1.359779	0.233136	0.008222
Cl153	Cl	1.256590	-0.266543	-1.097693
Cl154	Cl	1.756590	0.233457	-0.597693
H155	H	1.234165	-0.288978	-0.930803
H156	H	1.734165	0.211022	-0.430803
H157	H	1.050615	-0.681849	-0.287121
H158	H	1.550615	-0.181849	0.212879
Cl159	Cl	0.977813	-0.973817	-0.214685
Cl160	Cl	1.477813	-0.473817	0.285315
H161	H	1.284560	-0.955121	-0.519755
H162	H	1.784560	-0.455121	-0.019755
Cl163	Cl	1.256520	-0.266669	-0.659812
Cl164	Cl	1.756520	0.233331	-0.159812
H165	H	1.050764	-1.079261	-0.287201
H166	H	1.550764	-0.579261	0.212799
H167	H	0.841328	-0.472412	-0.287016
H168	H	1.341328	0.027588	0.212984
H169	H	1.234082	-1.079016	-0.469528
H170	H	1.734082	-0.579016	0.030472
Cl171	Cl	0.549398	-0.545289	-0.214521
Cl172	Cl	1.049398	-0.045289	0.285479
H173	H	0.444067	-0.289281	-0.469593
H174	H	0.944067	0.210719	0.030407
H175	H	0.443912	-0.472456	-0.287110
H176	H	0.943912	0.027544	0.212890
H177	H	1.050674	-0.472331	-1.079441
H178	H	1.550674	0.027669	-0.579441
Cl179	Cl	1.028233	-0.494776	-0.844734
Cl180	Cl	1.528233	0.005224	-0.344734
Cl181	Cl	1.028244	-0.494763	-0.912546
Cl182	Cl	1.528244	0.005237	-0.412546
