data_functionalizedCrystal
_audit_creation_method	'MofGen! by Chris Wilmer'
_symmetry_space_group_name_H-M	'P1'
_symmetry_Int_Tables_number	1
_symmetry_cell_setting	triclinic
loop_
_symmetry_equiv_pos_as_xyz
  x,y,z
_cell_length_a	8.497374
_cell_length_b	8.497374
_cell_length_c	16.120530
_cell_angle_alpha	92.900151
_cell_angle_beta	92.902542
_cell_angle_gamma	90.004389
loop_
_atom_site_label
_atom_site_type_symbol
_atom_site_fract_x
_atom_site_fract_y
_atom_site_fract_z
Zn1	Zn	0.750812	1.014365	1.274554
Zn2	Zn	1.250812	1.514365	1.774554
Zn3	Zn	1.014560	0.750630	1.274547
Zn4	Zn	1.514560	1.250630	1.774547
Zn5	Zn	0.737393	0.737223	1.135175
Zn6	Zn	1.237393	1.237223	1.635175
Zn7	Zn	1.001146	1.000991	1.135156
Zn8	Zn	1.501146	1.500991	1.635156
O9	O	0.875978	0.875802	1.204858
O10	O	1.375978	1.375802	1.704858
O11	O	0.797028	0.990588	1.391220
O12	O	1.297028	1.490588	1.891220
O13	O	0.977792	0.528090	1.256064
O14	O	1.477792	1.028090	1.756064
O15	O	0.518412	0.773972	1.153675
O16	O	1.018412	1.273972	1.653675
O17	O	0.990803	0.796823	1.391214
O18	O	1.490803	1.296823	1.891214
O19	O	0.528270	0.977588	1.256076
O20	O	1.028270	1.477588	1.756076
O21	O	0.774159	0.518239	1.153668
O22	O	1.274159	1.018239	1.653668
O23	O	0.761151	0.761004	1.018506
O24	O	1.261151	1.261004	1.518506
O25	O	0.967940	1.223527	1.153642
O26	O	1.467940	1.723527	1.653642
O27	O	0.954929	0.954793	1.018492
O28	O	1.454929	1.454793	1.518492
O29	O	0.784021	1.233353	1.256058
O30	O	1.284021	1.733353	1.756058
O31	O	1.233542	0.783855	1.256045
O32	O	1.733542	1.283855	1.756045
O33	O	1.223687	0.967794	1.153635
O34	O	1.723687	1.467794	1.653635
C35	C	0.855130	0.854993	0.988248
C36	C	1.355130	1.354993	1.488248
C37	C	0.846249	0.846128	0.895582
C38	C	1.346249	1.346128	1.395582
C39	C	1.285857	0.875824	1.204847
C40	C	1.785857	1.375824	1.704847
C41	C	1.464503	0.875800	1.204870
C42	C	1.964503	1.375800	1.704870
C43	C	0.876004	1.465923	1.204863
C44	C	1.376004	1.965923	1.704863
C45	C	0.875995	1.287278	1.204854
C46	C	1.375995	1.787278	1.704854
C47	C	0.829998	0.829957	0.725919
C48	C	1.329998	1.329957	1.225919
C49	C	0.922074	0.921762	0.684637
C50	C	1.422074	1.421762	1.184637
C51	C	0.913032	0.912764	0.590231
C52	C	1.413032	1.412764	1.090231
C53	C	0.839038	0.838953	0.820334
C54	C	1.339038	1.338953	1.320334
C55	C	0.896909	0.896693	1.422313
C56	C	1.396909	1.396693	1.922313
C57	C	0.905828	0.905596	1.514980
C58	C	1.405828	1.405596	2.014980
H59	H	1.007692	1.007118	0.720195
H60	H	1.507692	1.507118	1.220195
H61	H	0.744385	0.744610	0.690363
H62	H	1.244385	1.244610	1.190363
