data_functionalizedCrystal
_audit_creation_method	'MofGen! by Chris Wilmer'
_symmetry_space_group_name_H-M	'P1'
_symmetry_Int_Tables_number	1
_symmetry_cell_setting	triclinic
loop_
_symmetry_equiv_pos_as_xyz
  x,y,z
_cell_length_a	17.019282
_cell_length_b	17.038272
_cell_length_c	14.048226
_cell_angle_alpha	89.993466
_cell_angle_beta	93.874761
_cell_angle_gamma	87.241387
loop_
_atom_site_label
_atom_site_type_symbol
_atom_site_fract_x
_atom_site_fract_y
_atom_site_fract_z
O1	O	1.053361	0.099546	0.007218
O2	O	1.386694	0.432879	0.340551
O3	O	1.720028	0.766212	0.673885
O4	O	0.824549	0.112259	-0.011547
O5	O	1.157883	0.445592	0.321786
O6	O	1.491216	0.778926	0.655119
O7	O	0.937595	-0.007912	-0.002269
O8	O	1.270929	0.325421	0.331065
O9	O	1.604262	0.658755	0.664398
O10	O	0.940315	0.219716	-0.002061
O11	O	1.273648	0.553050	0.331273
O12	O	1.606982	0.886383	0.664606
O13	O	0.937580	-0.007919	0.156051
O14	O	1.270914	0.325414	0.489385
O15	O	1.604247	0.658748	0.822718
O16	O	0.824534	0.112252	0.146773
O17	O	1.157868	0.445585	0.480106
O18	O	1.491201	0.778918	0.813439
O19	O	1.053346	0.099539	0.165538
O20	O	1.386679	0.432872	0.498872
O21	O	1.720013	0.766205	0.832205
Zn22	Zn	0.938938	0.105894	0.181292
Zn23	Zn	1.272271	0.439227	0.514625
Zn24	Zn	1.605604	0.772561	0.847959
Zn25	Zn	0.938958	0.105903	-0.027301
Zn26	Zn	1.272291	0.439237	0.306032
Zn27	Zn	1.605624	0.772570	0.639365
O28	O	0.940300	0.219709	0.156259
O29	O	1.273633	0.553043	0.489593
O30	O	1.606967	0.886376	0.822926
C31	C	0.795121	0.111775	0.065200
C32	C	1.128454	0.445109	0.398533
C33	C	1.461787	0.778442	0.731866
C34	C	0.707454	0.110336	0.058010
C35	C	1.040787	0.443669	0.391344
C36	C	1.374120	0.777002	0.724677
C37	C	0.935114	-0.037041	0.076688
C38	C	1.268447	0.296292	0.410022
C39	C	1.601781	0.629625	0.743355
C40	C	0.927734	-0.123828	0.076083
C41	C	1.261067	0.209506	0.409416
C42	C	1.594400	0.542839	0.742750
C43	C	0.666264	0.109654	0.140935
C44	C	0.999597	0.442987	0.474268
C45	C	1.332931	0.776320	0.807602
C46	C	0.583893	0.108288	0.134182
C47	C	0.917226	0.441622	0.467516
C48	C	1.250559	0.774955	0.800849
C49	C	0.542712	0.107611	0.044504
C50	C	0.876045	0.440944	0.377837
C51	C	1.209379	0.774278	0.711171
C52	C	0.583907	0.108291	-0.038427
C53	C	0.917241	0.441624	0.294906
C54	C	1.250574	0.774957	0.628240
C55	C	0.666278	0.109650	-0.031674
C56	C	0.999611	0.442984	0.301660
C57	C	1.332944	0.776317	0.634993
C58	C	0.294007	0.103501	0.019795
C59	C	0.627341	0.436834	0.353128
C60	C	0.960674	0.770168	0.686462
C61	C	0.211631	0.102144	0.013047
C62	C	0.544965	0.435477	0.346381
C63	C	0.878298	0.768810	0.679714
C64	C	0.211622	0.102140	0.185658
C65	C	0.544956	0.435473	0.518991
C66	C	0.878289	0.768807	0.852324
C67	C	0.293994	0.103504	0.192403
C68	C	0.627327	0.436838	0.525737
C69	C	0.960660	0.770171	0.859070
C70	C	0.335182	0.104180	0.109472
C71	C	0.668516	0.437513	0.442806
C72	C	1.001849	0.770847	0.776139
C73	C	0.458515	0.106218	0.037599
C74	C	0.791848	0.439551	0.370933
C75	C	1.125182	0.772885	0.704266
C76	C	0.419378	0.105567	0.116378
C77	C	0.752712	0.438901	0.449711
C78	C	1.086045	0.772234	0.783044
C79	C	0.995494	-0.174004	0.081641
C80	C	1.328827	0.159330	0.414974
C81	C	1.662160	0.492663	0.748308
C82	C	0.988554	-0.255548	0.081063
C83	C	1.321888	0.077786	0.414396
C84	C	1.655221	0.411119	0.747730
C85	C	0.913854	-0.286914	0.074933
C86	C	1.247188	0.046419	0.408267
C87	C	1.580521	0.379752	0.741600
C88	C	0.846090	-0.236732	0.069372
C89	C	1.179423	0.096601	0.402705
C90	C	1.512756	0.429935	0.736039
C91	C	0.853030	-0.155189	0.069943
C92	C	1.186363	0.178144	0.403277
C93	C	1.519696	0.511477	0.736610
C94	C	0.889337	-0.532650	0.072910
C95	C	1.222670	-0.199317	0.406243
C96	C	1.556003	0.134017	0.739576
C97	C	0.882402	-0.614199	0.072341
C98	C	1.215735	-0.280866	0.405675
C99	C	1.549068	0.052468	0.739008
C100	C	1.024867	-0.633009	0.084031
C101	C	1.358201	-0.299676	0.417364
C102	C	1.691534	0.033657	0.750697
C103	C	1.031801	-0.551464	0.084607
C104	C	1.365134	-0.218131	0.417941
C105	C	1.698467	0.115202	0.751274
C106	C	0.964036	-0.501289	0.079041
C107	C	1.297369	-0.167956	0.412374
C108	C	1.630702	0.165378	0.745707
C109	C	0.906760	-0.370265	0.074345
C110	C	1.240093	-0.036932	0.407679
C111	C	1.573426	0.296401	0.741012
C112	C	0.971131	-0.417939	0.079622
C113	C	1.304465	-0.084606	0.412955
C114	C	1.637798	0.248727	0.746289
C115	C	1.082775	0.100022	0.088789
C116	C	1.416108	0.433355	0.422122
C117	C	1.749441	0.766689	0.755456
C118	C	1.170442	0.101462	0.095972
C119	C	1.503775	0.434795	0.429306
C120	C	1.837108	0.768128	0.762639
C121	C	0.942781	0.248839	0.077300
C122	C	1.276115	0.582172	0.410634
C123	C	1.609448	0.915505	0.743967
C124	C	0.950162	0.335625	0.077900
C125	C	1.283495	0.668958	0.411233
C126	C	1.616828	1.002292	0.744566
N127	N	0.938930	0.105887	0.323652
N128	N	1.272263	0.439221	0.656986
N129	N	1.605597	0.772554	0.990319
N130	N	0.938971	0.105904	-0.169661
N131	N	1.272305	0.439237	0.163672
N132	N	1.605638	0.772571	0.497006
C133	C	0.989005	0.052698	0.377580
C134	C	1.322338	0.386031	0.710914
C135	C	1.655672	0.719364	1.044247
C136	C	0.989010	0.052697	0.477238
C137	C	1.322344	0.386030	0.810572
C138	C	1.655677	0.719364	1.143905
C139	C	0.938944	0.105891	0.522967
C140	C	1.272277	0.439224	0.856300
C141	C	1.605611	0.772557	1.189634
C142	C	0.888863	0.159083	0.469031
C143	C	1.222197	0.492416	0.802365
C144	C	1.555530	0.825750	1.135698
C145	C	0.888855	0.159079	0.369375
C146	C	1.222188	0.492412	0.702708
C147	C	1.555521	0.825746	1.036041
C148	C	0.888887	0.159089	0.676747
C149	C	1.222220	0.492422	1.010081
C150	C	1.555553	0.825755	1.343414
C151	C	0.888896	0.159094	0.776411
C152	C	1.222229	0.492427	1.109744
C153	C	1.555563	0.825760	1.443078
C154	C	0.989042	0.052707	0.784611
C155	C	1.322376	0.386040	1.117945
C156	C	1.655709	0.719373	1.451278
C157	C	0.989033	0.052703	0.684955
C158	C	1.322367	0.386036	1.018288
C159	C	1.655700	0.719369	1.351621
C160	C	0.938954	0.105896	0.631026
C161	C	1.272287	0.439229	0.964359
C162	C	1.605620	0.772563	1.297693
H163	H	0.699787	0.110212	0.213961
H164	H	1.033121	0.443545	0.547294
H165	H	1.366454	0.776878	0.880627
Cl166	Cl	0.825951	0.225967	0.833890
Cl167	Cl	1.159284	0.559300	1.167223
Cl168	Cl	1.492617	0.892634	1.500557
H169	H	0.848103	0.202402	0.632841
H170	H	1.181437	0.535735	0.966175
H171	H	1.514770	0.869069	1.299508
H172	H	0.821569	-0.639734	0.067365
H173	H	1.154903	-0.306401	0.400698
H174	H	1.488236	0.026933	0.734032
H175	H	1.043732	-0.296398	0.085591
H176	H	1.377065	0.036935	0.418924
H177	H	1.710398	0.370268	0.752258
Cl178	Cl	0.345758	0.104361	0.305147
Cl179	Cl	0.679091	0.437695	0.638480
Cl180	Cl	1.012424	0.771028	0.971813
H181	H	0.550372	0.107734	-0.111445
H182	H	0.883705	0.441067	0.221888
H183	H	1.217039	0.774400	0.555221
Cl184	Cl	0.825918	0.225953	0.526516
Cl185	Cl	1.159251	0.559286	0.859849
Cl186	Cl	1.492584	0.892619	1.193182
Cl187	Cl	0.804145	-0.469583	0.065909
Cl188	Cl	1.137479	-0.136250	0.399243
Cl189	Cl	1.470812	0.197084	0.732576
Cl190	Cl	0.718059	0.110504	-0.135927
Cl191	Cl	1.051393	0.443838	0.197407
Cl192	Cl	1.384726	0.777171	0.530740
H193	H	0.327533	0.104049	-0.047734
H194	H	0.660867	0.437382	0.285600
H195	H	0.994200	0.770715	0.618933
H196	H	0.550361	0.107720	0.201709
H197	H	0.883694	0.441053	0.535042
H198	H	1.217027	0.774387	0.868375
Cl199	Cl	0.159838	0.101287	0.289907
Cl200	Cl	0.493171	0.434620	0.623240
Cl201	Cl	0.826505	0.767953	0.956573
Cl202	Cl	1.051954	-0.014175	0.320105
Cl203	Cl	1.385287	0.319158	0.653438
Cl204	Cl	1.718620	0.652491	0.986771
H205	H	0.848077	0.202390	0.325467
H206	H	1.181411	0.535724	0.658800
H207	H	1.514744	0.869057	0.992133
H208	H	0.178104	0.101594	-0.059983
H209	H	0.511437	0.434928	0.273350
H210	H	0.844771	0.768261	0.606683
Cl211	Cl	0.471150	0.106416	0.229112
Cl212	Cl	0.804483	0.439750	0.562446
Cl213	Cl	1.137816	0.773083	0.895779
Cl214	Cl	1.089407	-0.134580	0.089357
Cl215	Cl	1.422740	0.198753	0.422690
Cl216	Cl	1.756073	0.532087	0.756024
Cl217	Cl	0.406740	0.105332	-0.075136
Cl218	Cl	0.740074	0.438665	0.258198
Cl219	Cl	1.073407	0.771998	0.591531
Cl220	Cl	1.125713	-0.512038	0.092283
Cl221	Cl	1.459046	-0.178705	0.425616
Cl222	Cl	1.792379	0.154628	0.758949
H223	H	1.080037	-0.673870	0.088561
H224	H	1.413371	-0.340537	0.421894
H225	H	1.746704	-0.007204	0.755227
H226	H	1.029818	0.009395	0.828526
H227	H	1.363152	0.342728	1.161859
H228	H	1.696485	0.676061	1.495192
Cl229	Cl	0.767842	-0.092110	0.062952
Cl230	Cl	1.101175	0.241223	0.396285
Cl231	Cl	1.434509	0.574556	0.729619
Cl232	Cl	0.752181	-0.276164	0.061654
Cl233	Cl	1.085514	0.057169	0.394988
Cl234	Cl	1.418847	0.390502	0.728321
H235	H	1.031952	-0.392397	0.084592
H236	H	1.365285	-0.059064	0.417925
H237	H	1.698618	0.274269	0.751258
Cl238	Cl	0.812854	-0.409705	0.066635
Cl239	Cl	1.146187	-0.076372	0.399968
Cl240	Cl	1.479521	0.256962	0.733301
H241	H	1.029785	0.009386	0.521147
H242	H	1.363118	0.342719	0.854480
H243	H	1.696451	0.676052	1.187813
H244	H	1.029805	0.009392	0.647723
H245	H	1.363138	0.342726	0.981057
H246	H	1.696472	0.676059	1.314390
