data_functionalizedCrystal
_audit_creation_method	'MofGen! by Chris Wilmer'
_symmetry_space_group_name_H-M	'P1'
_symmetry_Int_Tables_number	1
_symmetry_cell_setting	triclinic
loop_
_symmetry_equiv_pos_as_xyz
  x,y,z
_cell_length_a	10.654545
_cell_length_b	11.026607
_cell_length_c	9.130313
_cell_angle_alpha	89.997484
_cell_angle_beta	89.996934
_cell_angle_gamma	96.534548
loop_
_atom_site_label
_atom_site_type_symbol
_atom_site_fract_x
_atom_site_fract_y
_atom_site_fract_z
O1	O	1.704905	0.170741	-0.121780
O2	O	2.204905	0.670741	0.378220
O3	O	1.342959	0.187016	-0.121786
O4	O	1.842959	0.687016	0.378214
O5	O	1.493935	0.001973	-0.121778
O6	O	1.993935	0.501973	0.378222
O7	O	1.553930	0.355783	-0.121788
O8	O	2.053930	0.855783	0.378212
O9	O	1.493920	0.001968	0.121821
O10	O	1.993920	0.501968	0.621821
O11	O	1.342945	0.187011	0.121813
O12	O	1.842945	0.687011	0.621813
O13	O	1.704891	0.170735	0.121819
O14	O	2.204891	0.670735	0.621819
Cu15	Cu	1.523917	0.178872	0.144058
Cu16	Cu	2.023917	0.678872	0.644058
Cu17	Cu	1.523934	0.178879	-0.144025
Cu18	Cu	2.023934	0.678879	0.355975
O19	O	1.553916	0.355778	0.121811
O20	O	2.053916	0.855778	0.621811
C21	C	1.295895	0.185819	0.000013
C22	C	1.795895	0.685819	0.500013
C23	C	1.155676	0.182248	0.000011
C24	C	1.655676	0.682248	0.500011
C25	C	1.089798	0.180563	0.132797
C26	C	1.589798	0.680563	0.632797
C27	C	0.958046	0.177187	0.132797
C28	C	1.458046	0.677187	0.632797
C29	C	0.958061	0.177185	-0.132787
C30	C	1.458061	0.677185	0.367213
C31	C	1.089810	0.180552	-0.132786
C32	C	1.589810	0.680552	0.367214
C33	C	1.482859	-0.043333	0.000019
C34	C	1.982859	0.456667	0.500019
C35	C	1.449865	-0.178324	0.000014
C36	C	1.949865	0.321676	0.500014
C37	C	1.540968	-0.251365	0.000013
C38	C	2.040968	0.248635	0.500013
C39	C	1.506869	-0.390886	0.000007
C40	C	2.006869	0.109114	0.500007
C41	C	1.751955	0.171932	0.000017
C42	C	2.251955	0.671932	0.500017
C43	C	1.892174	0.175504	0.000010
C44	C	2.392174	0.675504	0.500010
C45	C	1.564991	0.401085	0.000010
C46	C	2.064991	0.901085	0.500010
C47	C	1.597985	0.536076	0.000006
C48	C	2.097985	1.036076	0.500006
N49	N	1.523914	0.178867	0.346681
N50	N	2.023914	0.678867	0.846681
N51	N	1.523944	0.178874	-0.346648
N52	N	2.023944	0.678874	0.153352
C53	C	1.590802	0.096965	0.423336
C54	C	2.090802	0.596965	0.923336
C55	C	1.590814	0.096965	0.576673
C56	C	2.090814	0.596965	1.076673
C57	C	1.457048	0.260780	0.576686
C58	C	1.957048	0.760780	1.076686
C59	C	1.457029	0.260773	0.423352
C60	C	1.957029	0.760773	0.923352
H61	H	0.904417	0.175806	-0.240906
H62	H	1.404417	0.675806	0.259094
H63	H	1.644209	-0.210606	0.000024
H64	H	2.144209	0.289394	0.500024
H65	H	1.701234	-0.423173	-0.000102
H66	H	2.201234	0.076827	0.499898
H67	H	1.143448	0.181920	-0.240923
H68	H	1.643448	0.681920	0.259077
H69	H	1.403621	-0.431639	-0.000004
H70	H	1.903621	0.068361	0.499996
H71	H	1.645279	0.030272	0.639082
H72	H	2.145279	0.530272	1.139082
H73	H	1.346624	-0.219083	0.000003
H74	H	1.846624	0.280917	0.500003
H75	H	1.645261	0.030270	0.360915
H76	H	2.145261	0.530270	0.860915
H77	H	1.402594	0.327469	0.639127
H78	H	1.902594	0.827469	1.139127
H79	H	1.402555	0.327468	0.360935
H80	H	1.902555	0.827468	0.860935
H81	H	0.904415	0.175816	0.240926
H82	H	1.404415	0.675816	0.740926
H83	H	1.143423	0.181944	0.240929
H84	H	1.643423	0.681944	0.740929
