data_functionalizedCrystal
_audit_creation_method	'MofGen! by Chris Wilmer'
_symmetry_space_group_name_H-M	'P1'
_symmetry_Int_Tables_number	1
_symmetry_cell_setting	triclinic
loop_
_symmetry_equiv_pos_as_xyz
  x,y,z
_cell_length_a	14.044220
_cell_length_b	17.699083
_cell_length_c	16.176319
_cell_angle_alpha	90.001389
_cell_angle_beta	89.992517
_cell_angle_gamma	91.764054
loop_
_atom_site_label
_atom_site_type_symbol
_atom_site_fract_x
_atom_site_fract_y
_atom_site_fract_z
O1	O	0.119850	-1.012346	-0.068632
O2	O	0.135443	-0.793044	-0.068659
O3	O	-0.010330	-0.899403	-0.068638
O4	O	0.265624	-0.905987	-0.068653
O5	O	-0.010340	-0.899387	0.068855
O6	O	0.135434	-0.793027	0.068834
O7	O	0.119841	-1.012330	0.068861
Cu8	Cu	0.127637	-0.902677	0.081402
Cu9	Cu	0.127648	-0.902696	-0.081200
O10	O	0.265614	-0.905970	0.068840
C11	C	-0.045643	-0.896513	0.000109
C12	C	-0.150849	-0.887917	0.000109
C13	C	0.134880	-0.764800	0.000084
C14	C	0.133204	-0.680666	0.000074
C15	C	0.120404	-1.040574	0.000116
C16	C	0.122081	-1.124707	0.000121
C17	C	-0.343474	-0.872202	0.000095
C18	C	-0.401248	-0.933168	0.000100
C19	C	-0.508431	-0.924424	0.000092
C20	C	-0.236281	-0.880945	0.000102
C21	C	0.300927	-0.908860	0.000091
C22	C	0.406133	-0.917456	0.000086
N23	N	0.127628	-0.902668	0.195767
C24	C	0.218769	-0.637948	0.000069
C25	C	0.217189	-0.558895	0.000080
C26	C	0.130041	-0.522563	0.000089
C27	C	0.044469	-0.565287	0.000096
C28	C	0.046050	-0.644338	0.000092
C29	C	0.038089	-0.246484	0.000117
C30	C	0.036514	-0.167427	0.000120
C31	C	0.209227	-0.161041	0.000106
C32	C	0.210809	-0.240092	0.000101
C33	C	0.125237	-0.282809	0.000112
C34	C	0.126952	-0.368527	0.000102
C35	C	0.128325	-0.436847	0.000094
N36	N	0.127648	-0.902710	-0.195565
C37	C	0.063106	-0.949782	0.239041
C38	C	0.063105	-0.949786	0.325588
C39	C	0.127632	-0.902679	0.368860
C40	C	0.192157	-0.855561	0.325580
C41	C	0.192153	-0.855554	0.239034
C42	C	0.192175	-0.855588	0.674608
C43	C	0.192176	-0.855600	0.761160
C44	C	0.063127	-0.949820	0.761161
C45	C	0.063123	-0.949813	0.674616
C46	C	0.127644	-0.902692	0.631344
C47	C	0.127643	-0.902687	0.537500
C48	C	0.127638	-0.902687	0.462702
H49	H	-0.374508	-0.813445	0.000085
O50	O	-0.360150	-1.011008	0.000111
H51	H	-0.384576	-1.042171	0.056151
H52	H	0.010565	-0.988144	0.203814
H53	H	0.289735	-0.667523	0.000061
O54	O	0.261768	-0.804772	0.627941
H55	H	0.335635	-0.819408	0.644536
O56	O	0.261789	-0.804803	0.807837
H57	H	0.306656	-0.772036	0.763208
O58	O	-0.006474	-1.000644	0.807829
H59	H	-0.052499	-0.965689	0.847264
O60	O	0.309477	-0.512817	0.000075
H61	H	0.370341	-0.551362	0.000058
H62	H	-0.023626	-0.679119	0.000095
O63	O	0.304802	-0.279282	0.000103
H64	H	0.364038	-0.236295	0.000113
O65	O	-0.006483	-1.000600	0.372268
H66	H	0.033365	-1.040064	0.411694
H67	H	0.278904	-0.126251	0.000101
O68	O	0.261737	-0.804739	0.192346
H69	H	0.335610	-0.819366	0.208929
H70	H	-0.034456	-0.137848	0.000128
H71	H	-0.026488	-0.535699	0.000116
H72	H	0.244692	-0.817202	0.360817
O73	O	-0.006477	-1.000615	0.627942
H74	H	-0.051353	-1.033371	0.672573
H75	H	-0.031590	-0.281255	0.000127
