data_functionalizedCrystal
_audit_creation_method	'MofGen! by Chris Wilmer'
_symmetry_space_group_name_H-M	'P1'
_symmetry_Int_Tables_number	1
_symmetry_cell_setting	triclinic
loop_
_symmetry_equiv_pos_as_xyz
  x,y,z
_cell_length_a	29.839131
_cell_length_b	15.298001
_cell_length_c	15.297908
_cell_angle_alpha	110.814472
_cell_angle_beta	99.652446
_cell_angle_gamma	80.300766
loop_
_atom_site_label
_atom_site_type_symbol
_atom_site_fract_x
_atom_site_fract_y
_atom_site_fract_z
Zn1	Zn	-0.115212	-1.512928	-0.772433
Zn2	Zn	0.384788	-1.012928	-0.272433
Zn3	Zn	-0.179266	-1.485867	-0.616877
Zn4	Zn	0.320734	-0.985867	-0.116877
Zn5	Zn	-0.115204	-1.330475	-0.589953
Zn6	Zn	0.384796	-0.830475	-0.089953
Zn7	Zn	-0.201381	-1.357273	-0.745381
Zn8	Zn	0.298619	-0.857273	-0.245381
O9	O	-0.152766	-1.421636	-0.681161
O10	O	0.347234	-0.921636	-0.181161
O11	O	-0.114457	-1.639512	-0.774388
O12	O	0.385543	-1.139512	-0.274388
O13	O	-0.161510	-1.442714	-0.483158
O14	O	0.338490	-0.942714	0.016842
O15	O	-0.052333	-1.354788	-0.614213
O16	O	0.447667	-0.854788	-0.114213
O17	O	-0.161518	-1.619631	-0.660101
O18	O	0.338482	-1.119631	-0.160101
O19	O	-0.052339	-1.488835	-0.748281
O20	O	0.447661	-0.988835	-0.248281
O21	O	-0.114444	-1.328548	-0.463377
O22	O	0.385556	-0.828548	0.036623
O23	O	-0.135888	-1.203856	-0.587982
O24	O	0.364112	-0.703856	-0.087982
O25	O	-0.199208	-1.400461	-0.879117
O26	O	0.300792	-0.900461	-0.379117
O27	O	-0.199201	-1.223544	-0.702174
O28	O	0.300799	-0.723544	-0.202174
O29	O	-0.135901	-1.514820	-0.898993
O30	O	0.364099	-1.014820	-0.398993
O31	O	-0.245072	-1.468698	-0.633870
O32	O	0.254928	-0.968698	-0.133870
O33	O	-0.261319	-1.374221	-0.728281
O34	O	0.238681	-0.874221	-0.228281
C35	C	-0.169943	-1.179947	-0.639221
C36	C	0.330057	-0.679947	-0.139221
C37	C	-0.177304	-1.076555	-0.621301
C38	C	0.322696	-0.576555	-0.121301
C39	C	-0.205212	-1.017613	-0.553285
C40	C	0.294788	-0.517613	-0.053285
C41	C	-0.212130	-0.920472	-0.536452
C42	C	0.287870	-0.420472	-0.036452
C43	C	-0.191137	-0.882264	-0.587630
C44	C	0.308863	-0.382264	-0.087630
C45	C	-0.163226	-0.941205	-0.655644
C46	C	0.336774	-0.441205	-0.155644
C47	C	-0.156311	-1.038357	-0.672483
C48	C	0.343689	-0.538357	-0.172483
C49	C	-0.142236	-0.903007	-0.706829
C50	C	0.357764	-0.403007	-0.206829
C51	C	-0.114325	-0.961949	-0.774842
C52	C	0.385675	-0.461949	-0.274842
C53	C	-0.107410	-1.059090	-0.791677
C54	C	0.392590	-0.559090	-0.291677
C55	C	-0.128403	-1.097299	-0.740500
C56	C	0.371597	-0.597299	-0.240500
C57	C	-0.149151	-0.805856	-0.689990
C58	C	0.350849	-0.305856	-0.189990
C59	C	-0.100249	-0.826599	-0.809188
C60	C	0.399751	-0.326599	-0.309188
C61	C	-0.093332	-0.923740	-0.826020
C62	C	0.406668	-0.423740	-0.326020
C63	C	-0.269497	-1.421460	-0.681086
C64	C	0.230503	-0.921460	-0.181086
C65	C	-0.319431	-1.421475	-0.681100
C66	C	0.180569	-0.921475	-0.181100
C67	C	-0.620592	-1.470953	-0.632107
C68	C	-0.120592	-0.970953	-0.132107
C69	C	-0.808260	-1.471074	-0.632163
C70	C	-0.308260	-0.971074	-0.132163
O71	O	-0.825319	-1.513003	-0.590449
O72	O	-0.325319	-1.013003	-0.090449
N73	N	-0.840199	-1.421841	-0.681265
N74	N	-0.340199	-0.921841	-0.181265
C75	C	-0.825220	-1.372578	-0.730361
C76	C	-0.325220	-0.872578	-0.230361
O77	O	-0.856692	-1.330713	-0.772134
O78	O	-0.356692	-0.830713	-0.272134
C79	C	-0.637553	-1.372463	-0.730310
C80	C	-0.137553	-0.872463	-0.230310
C81	C	-0.605615	-1.421692	-0.681197
C82	C	-0.105615	-0.921692	-0.181197
C83	C	-0.588655	-1.520179	-0.582999
C84	C	-0.088655	-1.020179	-0.082999
C85	C	-0.541741	-1.520144	-0.582981
C86	C	-0.041741	-1.020144	-0.082981
C87	C	-0.526764	-1.470883	-0.632071
C88	C	-0.026764	-0.970883	-0.132071
C89	C	-0.558701	-1.421657	-0.681179
C90	C	-0.058701	-0.921657	-0.181179
C91	C	-0.622574	-1.323207	-0.779411
C92	C	-0.122574	-0.823207	-0.279411
C93	C	-0.575654	-1.323185	-0.779396
C94	C	-0.075654	-0.823185	-0.279396
C95	C	-0.543716	-1.372414	-0.730283
C96	C	-0.043716	-0.872414	-0.230283
C97	C	-0.496810	-1.372362	-0.730252
C98	C	0.003190	-0.872362	-0.230252
N99	N	-0.464871	-1.421595	-0.681150
N100	N	0.035129	-0.921595	-0.181150
C101	C	-0.479848	-1.470856	-0.632060
C102	C	0.020152	-0.970856	-0.132060
C103	C	-0.923747	-1.372641	-0.730383
C104	C	-0.423747	-0.872641	-0.230383
C105	C	-0.970663	-1.372668	-0.730394
C106	C	-0.470663	-0.872668	-0.230394
C107	C	-0.953700	-1.471165	-0.632197
C108	C	-0.453700	-0.971165	-0.132197
C109	C	-0.906783	-1.471132	-0.632181
C110	C	-0.406783	-0.971132	-0.132181
C111	C	-0.891807	-1.421874	-0.681281
C112	C	-0.391807	-0.921874	-0.181281
C113	C	-0.381326	-1.470778	-0.632026
C114	C	0.118674	-0.970778	-0.132026
C115	C	-0.334408	-1.470736	-0.632009
C116	C	0.165592	-0.970736	-0.132009
C117	C	-0.351376	-1.372242	-0.730210
C118	C	0.148624	-0.872242	-0.230210
C119	C	-0.398289	-1.372281	-0.730223
C120	C	0.101711	-0.872281	-0.230223
C121	C	-0.413262	-1.421555	-0.681129
C122	C	0.086738	-0.921555	-0.181129
O123	O	-0.479718	-1.330463	-0.771953
O124	O	0.020282	-0.830463	-0.271953
O125	O	-0.448368	-1.512732	-0.590310
O126	O	0.051632	-1.012732	-0.090310
C127	C	-0.667506	-1.470988	-0.632125
C128	C	-0.167506	-0.970988	-0.132125
C129	C	-0.699443	-1.421762	-0.681233
C130	C	-0.199443	-0.921762	-0.181233
C131	C	-0.684466	-1.372501	-0.730323
C132	C	-0.184466	-0.872501	-0.230323
C133	C	-0.746360	-1.421789	-0.681244
C134	C	-0.246360	-0.921789	-0.181244
C135	C	-0.761337	-1.471050	-0.632154
C136	C	-0.261337	-0.971050	-0.132154
C137	C	-0.729397	-1.520284	-0.583052
C138	C	-0.229397	-1.020284	-0.083052
C139	C	-0.682483	-1.520249	-0.583034
C140	C	-0.182483	-1.020249	-0.083034
C141	C	-0.716406	-1.323268	-0.779425
C142	C	-0.216406	-0.823268	-0.279425
C143	C	-0.763319	-1.323306	-0.779438
C144	C	-0.263319	-0.823306	-0.279438
C145	C	-0.778296	-1.372567	-0.730347
C146	C	-0.278296	-0.872567	-0.230347
C147	C	-0.035578	-1.421841	-0.681261
C148	C	0.464422	-0.921841	-0.181261
C149	C	0.014360	-1.421929	-0.681304
C150	C	0.514360	-0.921929	-0.181304
C151	C	-0.170022	-1.463648	-0.923744
C152	C	0.329978	-0.963648	-0.423744
C153	C	-0.177376	-1.481551	-1.027119
C154	C	0.322624	-0.981551	-0.527119
C155	C	-0.135518	-0.664266	-0.723256
C156	C	0.364482	-0.164266	-0.223256
C157	C	-0.128157	-0.767657	-0.741171
C158	C	0.371843	-0.267657	-0.241171
C159	C	-0.100086	-1.294267	-1.277329
C160	C	0.399914	-0.794267	-0.777329
C161	C	-0.093172	-1.277447	-1.180203
C162	C	0.406828	-0.777447	-0.680203
C163	C	-0.114223	-1.328471	-1.141927
C164	C	0.385777	-0.828471	-0.641927
C165	C	-0.142188	-1.396319	-1.200786
C166	C	0.357812	-0.896319	-0.700786
C167	C	-0.149099	-1.413145	-1.297922
C168	C	0.350901	-0.913145	-0.797922
C169	C	-0.163236	-1.447350	-1.162521
C170	C	0.336764	-0.947350	-0.662521
C171	C	-0.191201	-1.515197	-1.221380
C172	C	0.308799	-1.015197	-0.721380
C173	C	-0.198111	-1.532020	-1.318505
C174	C	0.301889	-1.032020	-0.818505
C175	C	-0.177061	-1.480996	-1.356782
C176	C	0.322939	-0.980996	-0.856782
C177	C	-0.156324	-1.430524	-1.065385
C178	C	0.343676	-0.930524	-0.565385
C179	C	-0.205337	-1.549402	-1.085978
C180	C	0.294663	-1.049402	-0.585978
C181	C	-0.212251	-1.566221	-1.183104
C182	C	0.287749	-1.066221	-0.683104
C183	C	-0.135541	-1.379840	-0.439531
C184	C	0.364459	-0.879840	0.060469
C185	C	-0.128048	-1.362117	-0.336188
C186	C	0.371952	-0.862117	0.163812
H187	H	-0.308405	-1.510823	-0.592012
H188	H	0.191595	-1.010823	-0.092012
H189	H	-0.911558	-1.332527	-0.770367
H190	H	-0.411558	-0.832527	-0.270367
H191	H	-0.133554	-1.375283	-1.017471
H192	H	0.366446	-0.875283	-0.517471
H193	H	-0.171877	-0.757875	-0.634613
H194	H	0.328123	-0.257875	-0.134613
H195	H	-0.222304	-1.048733	-0.511627
H196	H	0.277696	-0.548733	-0.011627
H197	H	-0.083156	-0.795491	-0.850862
H198	H	0.416844	-0.295491	-0.350862
H199	H	-0.220878	-1.587273	-1.366428
H200	H	0.279122	-1.087273	-0.866428
H201	H	-0.234855	-0.872489	-0.481076
H202	H	0.265145	-0.372489	0.018924
H203	H	-0.196771	-0.803167	-0.573921
H204	H	0.303229	-0.303167	-0.073921
H205	H	-0.339174	-1.332131	-0.770176
H206	H	0.160826	-0.832131	-0.270176
H207	H	-0.122771	-1.176398	-0.754198
H208	H	0.377229	-0.676398	-0.254198
H209	H	-0.648571	-1.283114	-0.819399
H210	H	-0.148571	-0.783114	-0.319399
H211	H	-0.182691	-1.494681	-1.435867
H212	H	0.317309	-0.994681	-0.935867
H213	H	-0.880781	-1.511219	-0.592190
H214	H	-0.380781	-1.011219	-0.092190
H215	H	-0.082947	-1.252735	-1.308504
H216	H	0.417053	-0.752735	-0.808504
H217	H	-0.108592	-1.314773	-1.062843
H218	H	0.391408	-0.814773	-0.562843
H219	H	-0.393510	-1.510905	-0.592051
H220	H	0.106490	-1.010905	-0.092051
H221	H	-0.222477	-1.590952	-1.054815
H222	H	0.277523	-1.090952	-0.554815
H223	H	-0.084688	-1.107080	-0.847067
H224	H	0.415312	-0.607080	-0.347067
H225	H	-0.070607	-0.971744	-0.881397
H226	H	0.429393	-0.471744	-0.381397
H227	H	-0.070404	-1.222205	-1.132287
H228	H	0.429596	-0.722205	-0.632287
H229	H	-0.515739	-1.560234	-0.542993
H230	H	-0.015739	-1.060234	-0.042993
H231	H	-0.600843	-1.560298	-0.543024
H232	H	-0.100843	-1.060298	-0.043024
H233	H	-0.656482	-1.560336	-0.543042
H234	H	-0.156482	-1.060336	-0.043042
H235	H	-0.965902	-1.511276	-0.592226
H236	H	-0.465902	-1.011276	-0.092226
H237	H	-0.235019	-1.621464	-1.231040
H238	H	0.264981	-1.121464	-0.731040
H239	H	-0.704216	-1.283155	-0.819401
H240	H	-0.204216	-0.783155	-0.319401
H241	H	-0.996664	-1.332570	-0.770377
H242	H	-0.496664	-0.832570	-0.270377
H243	H	-0.563464	-1.283074	-0.819383
H244	H	-0.063464	-0.783074	-0.319383
H245	H	-0.424294	-1.332198	-0.770218
H246	H	0.075706	-0.832198	-0.270218
H247	H	-0.741599	-1.560391	-0.543078
H248	H	-0.241599	-1.060391	-0.043078
H249	H	-0.789320	-1.283209	-0.819429
H250	H	-0.289320	-0.783209	-0.319429
