data_functionalizedCrystal
_audit_creation_method	'MofGen! by Chris Wilmer'
_symmetry_space_group_name_H-M	'P1'
_symmetry_Int_Tables_number	1
_symmetry_cell_setting	triclinic
loop_
_symmetry_equiv_pos_as_xyz
  x,y,z
_cell_length_a	6.817900
_cell_length_b	11.168121
_cell_length_c	11.102193
_cell_angle_alpha	91.985837
_cell_angle_beta	108.604059
_cell_angle_gamma	108.508496
loop_
_atom_site_label
_atom_site_type_symbol
_atom_site_fract_x
_atom_site_fract_y
_atom_site_fract_z
V1	V	-4.111009	-0.174714	-0.396268
O2	O	-4.070572	0.008386	-0.388714
O3	O	-4.087289	-0.346419	-0.393568
O4	O	-4.087791	-0.172030	-0.569089
O5	O	-4.070066	-0.167209	-0.211978
V6	V	-4.588176	-0.152812	-0.374224
O7	O	-4.386209	-0.222756	-0.444623
O8	O	-4.763172	-0.104770	-0.325869
O9	O	-4.388689	0.018893	-0.376924
O10	O	-4.746009	-0.335912	-0.381778
O11	O	-4.746515	-0.160317	-0.558515
O12	O	-4.388187	-0.155496	-0.201403
C13	C	-3.937478	-0.388277	-0.387320
C14	C	-3.999539	-0.528648	-0.386264
C15	C	-4.202064	-0.597341	-0.391822
C16	C	-4.266211	-0.742422	-0.390731
C17	C	-3.938117	-0.165825	-0.611213
C18	C	-4.000581	-0.164767	-0.752495
C19	C	-4.120240	-0.396044	-0.788836
C20	C	-4.209406	-0.511180	-0.873379
C21	C	-4.268095	-0.510179	-1.006125
C22	C	-4.237619	-0.394029	-1.054329
C23	C	-4.148453	-0.278893	-0.969786
C24	C	-4.089763	-0.279907	-0.837039
C25	C	-4.028810	-0.047620	-0.933446
C26	C	-3.970105	-0.048618	-0.800699
C27	C	-3.998334	0.068529	-0.981650
C28	C	-3.909152	0.183668	-0.897106
C29	C	-3.850459	0.182663	-0.764353
C30	C	-3.880939	0.066518	-0.716156
C31	C	-4.201842	0.060744	-0.383169
C32	C	-4.119021	0.201114	-0.384233
C33	C	-4.201202	-0.161705	-0.159273
C34	C	-4.117976	-0.162756	-0.017989
H35	H	-3.945518	-0.739842	-0.379471
O36	O	-4.354829	-0.621906	-1.088438
C37	C	-4.400031	-0.596104	-1.215933
H38	H	-4.420535	-0.498776	-1.220688
H39	H	-4.558541	-0.672932	-1.281442
H40	H	-4.257577	-0.595740	-1.248767
O41	O	-4.352473	-0.539474	-0.398681
C42	C	-4.535838	-0.592683	-0.512860
H43	H	-4.484254	-0.637238	-0.586178
H44	H	-4.599924	-0.514542	-0.553493
H45	H	-4.671609	-0.669293	-0.491239
O46	O	-4.473037	-0.812962	-0.396223
C47	C	-4.460508	-0.872475	-0.285423
H48	H	-4.290353	-0.880814	-0.242903
H49	H	-4.592074	-0.971849	-0.312267
H50	H	-4.488967	-0.812888	-0.211505
H51	H	-4.234219	-0.605747	-0.834117
O52	O	-4.294299	-0.392881	-1.183243
C53	C	-4.106275	-0.323147	-1.211497
H54	H	-3.979217	-0.254208	-1.122343
H55	H	-4.155459	-0.266970	-1.292750
H56	H	-4.032109	-0.391871	-1.242246
O57	O	-4.055701	0.069330	-1.110634
C58	C	-4.282953	0.000260	-1.171097
H59	H	-4.342348	-0.069842	-1.107258
H60	H	-4.312301	-0.054567	-1.267454
H61	H	-4.377970	0.069335	-1.187473
H62	H	-3.777866	0.276421	-0.695524
O63	O	-3.879612	0.296374	-0.944143
C64	C	-3.950608	0.272565	-1.079438
H65	H	-3.946137	0.175511	-1.110934
H66	H	-3.836720	0.350158	-1.114850
H67	H	-4.126369	0.272775	-1.121933
H68	H	-3.833142	0.065688	-0.608070
H69	H	-3.873644	-0.577247	-0.380706
H70	H	-4.072427	-0.396870	-0.680748
