data_functionalizedCrystal
_audit_creation_method	'MofGen! by Chris Wilmer'
_symmetry_space_group_name_H-M	'P1'
_symmetry_Int_Tables_number	1
_symmetry_cell_setting	triclinic
loop_
_symmetry_equiv_pos_as_xyz
  x,y,z
_cell_length_a	14.044220
_cell_length_b	16.109301
_cell_length_c	15.186229
_cell_angle_alpha	90.013398
_cell_angle_beta	90.002347
_cell_angle_gamma	88.325179
loop_
_atom_site_label
_atom_site_type_symbol
_atom_site_fract_x
_atom_site_fract_y
_atom_site_fract_z
O1	O	-1.257648	-0.200445	-0.073140
O2	O	-0.757648	0.299555	0.426860
O3	O	-0.981681	-0.193213	-0.073163
O4	O	-0.481681	0.306787	0.426837
O5	O	-1.127246	-0.076362	-0.073142
O6	O	-0.627246	0.423638	0.426858
O7	O	-1.112084	-0.317296	-0.073161
O8	O	-0.612084	0.182704	0.426839
O9	O	-1.127226	-0.076340	0.073315
O10	O	-0.627226	0.423660	0.573315
O11	O	-0.981662	-0.193191	0.073295
O12	O	-0.481662	0.306809	0.573295
O13	O	-1.257629	-0.200423	0.073317
O14	O	-0.757629	0.299577	0.573317
Zn15	Zn	-1.119642	-0.196803	0.096559
Zn16	Zn	-0.619642	0.303197	0.596559
Zn17	Zn	-1.119668	-0.196833	-0.096405
Zn18	Zn	-0.619668	0.303167	0.403595
O19	O	-1.112064	-0.317274	0.073296
O20	O	-0.612064	0.182726	0.573296
C21	C	-1.126622	-0.045330	0.000087
C22	C	-0.626622	0.454670	0.500087
C23	C	-1.124780	0.047102	0.000088
C24	C	-0.624780	0.547102	0.500088
C25	C	-0.946358	-0.190036	0.000063
C26	C	-0.446358	0.309964	0.500063
C27	C	-0.841135	-0.180592	0.000055
C28	C	-0.341135	0.319408	0.500055
C29	C	-1.292952	-0.203600	0.000089
C30	C	-0.792952	0.296400	0.500089
C31	C	-1.398175	-0.213044	0.000091
C32	C	-0.898175	0.286956	0.500091
C33	C	-0.648479	-0.163326	0.000074
C34	C	-0.148479	0.336674	0.500074
C35	C	-0.590825	-0.230306	0.000072
C36	C	-0.090825	0.269694	0.500072
C37	C	-0.483625	-0.220699	0.000083
C38	C	0.016375	0.279301	0.500083
C39	C	-0.755690	-0.172932	0.000064
C40	C	-0.255690	0.327068	0.500064
C41	C	-1.112688	-0.348305	0.000065
C42	C	-0.612688	0.151695	0.500065
C43	C	-1.114529	-0.440738	0.000058
C44	C	-0.614529	0.059262	0.500058
N45	N	-1.119631	-0.196784	0.228252
N46	N	-0.619631	0.303216	0.728252
C47	C	-1.206874	0.263266	0.000081
C48	C	-0.706874	0.763266	0.500081
C49	C	-1.205137	0.350116	0.000073
C50	C	-0.705137	0.850116	0.500073
C51	C	-1.032429	0.343091	0.000063
C52	C	-0.532429	0.843091	0.500063
C53	C	-1.034168	0.256243	0.000064
C54	C	-0.534168	0.756243	0.500064
C55	C	-1.121393	0.216333	0.000078
C56	C	-0.621393	0.716333	0.500078
C57	C	-1.117917	0.390031	0.000069
C58	C	-0.617917	0.890031	0.500069
C59	C	-1.116032	0.484197	0.000061
C60	C	-0.616032	0.984197	0.500061
C61	C	-1.123278	0.122161	0.000084
C62	C	-0.623278	0.622161	0.500084
N63	N	-1.119686	-0.196846	-0.228097
N64	N	-0.619686	0.303154	0.271903
C65	C	-1.062193	-0.142107	0.546203
C66	C	-0.562193	0.357893	1.046203
C67	C	-1.062185	-0.142095	0.454014
C68	C	-0.562185	0.357905	0.954014
C69	C	-1.177131	-0.251525	0.453958
C70	C	-0.677131	0.248475	0.953958
C71	C	-1.177143	-0.251533	0.546146
C72	C	-0.677143	0.248467	1.046146
C73	C	-1.119669	-0.196825	0.592266
C74	C	-0.619669	0.303175	1.092266
C75	C	-1.119648	-0.196805	0.407888
C76	C	-0.619648	0.303195	0.907888
C77	C	-1.119640	-0.196791	0.307932
C78	C	-0.619640	0.303209	0.807932
C79	C	-1.119678	-0.196837	0.692228
C80	C	-0.619678	0.303163	1.192228
H81	H	-0.621976	-0.294863	0.000063
H82	H	-0.121976	0.205137	0.500063
N83	N	-0.609393	-0.082349	0.000087
N84	N	-0.109393	0.417651	0.500087
N85	N	-0.521100	-0.074564	0.000094
N86	N	-0.021100	0.425436	0.500094
H87	H	-0.493484	-0.017374	0.000101
H88	H	0.006516	0.482626	0.500101
H89	H	-0.964554	0.218029	0.000059
H90	H	-0.464554	0.718029	0.500059
N91	N	-1.235854	-0.307444	0.593186
N92	N	-0.735854	0.192556	1.093186
N93	N	-1.224481	-0.384076	0.582863
N94	N	-0.724481	0.115924	1.082863
H95	H	-1.265946	-0.423562	0.616083
H96	H	-0.765946	0.076438	1.116083
H97	H	-1.015395	-0.097560	0.583752
H98	H	-0.515395	0.402440	1.083752
N99	N	-1.295968	0.222497	0.000105
N100	N	-0.795968	0.722497	0.500105
N101	N	-1.353585	0.234564	0.061845
N102	N	-0.853585	0.734564	0.561845
H103	H	-1.416511	0.205772	0.061863
H104	H	-0.916511	0.705772	0.561863
H105	H	-1.274744	0.388326	0.000074
H106	H	-0.774744	0.888326	0.500074
H107	H	-0.961413	0.375597	0.000054
H108	H	-0.461413	0.875597	0.500054
H109	H	-1.015384	-0.097537	0.416513
H110	H	-0.515384	0.402463	0.916513
H111	H	-1.223923	-0.296067	0.416395
H112	H	-0.723923	0.203933	0.916395
