data_functionalizedCrystal
_audit_creation_method	'MofGen! by Chris Wilmer'
_symmetry_space_group_name_H-M	'P1'
_symmetry_Int_Tables_number	1
_symmetry_cell_setting	triclinic
loop_
_symmetry_equiv_pos_as_xyz
  x,y,z
_cell_length_a	22.863218
_cell_length_b	22.862586
_cell_length_c	22.858745
_cell_angle_alpha	60.006856
_cell_angle_beta	60.013818
_cell_angle_gamma	59.991795
loop_
_atom_site_label
_atom_site_type_symbol
_atom_site_fract_x
_atom_site_fract_y
_atom_site_fract_z
O1	O	0.081006	-0.854581	0.714630
O2	O	0.581006	-0.354581	1.214630
O3	O	0.030492	-0.665350	0.575795
O4	O	0.530492	-0.165350	1.075795
O5	O	0.150314	-0.785089	0.575706
O6	O	0.650314	-0.285089	1.075706
O7	O	-0.038816	-0.734841	0.714718
O8	O	0.461184	-0.234841	1.214718
O9	O	0.190066	-0.745348	0.615369
O10	O	0.690066	-0.245348	1.115369
O11	O	0.070244	-0.625609	0.615458
O12	O	0.570244	-0.125609	1.115458
O13	O	0.120758	-0.814840	0.754293
O14	O	0.620758	-0.314840	1.254293
Zn15	Zn	0.101812	-0.713914	0.691173
Zn16	Zn	0.601812	-0.213914	1.191173
Zn17	Zn	0.049438	-0.766275	0.638915
Zn18	Zn	0.549438	-0.266275	1.138915
O19	O	0.000936	-0.695100	0.754381
O20	O	0.500936	-0.195100	1.254381
N21	N	0.137558	-0.678184	0.726840
N22	N	0.637558	-0.178184	1.226840
N23	N	0.013698	-0.802011	0.603247
N24	N	0.513698	-0.302011	1.103247
C25	C	0.187224	-0.518558	0.776483
C26	C	0.687224	-0.018558	1.276483
C27	C	0.187235	-0.628552	0.776467
C28	C	0.687235	-0.128552	1.276467
C29	C	0.214753	-0.601061	0.803961
C30	C	0.714753	-0.101061	1.303961
C31	C	0.334724	-0.580392	0.740801
C32	C	0.834724	-0.080392	1.240801
C33	C	0.409718	-0.605392	0.715784
C34	C	0.909718	-0.105392	1.215784
C35	C	0.409746	-0.726732	0.762051
C36	C	0.909746	-0.226732	1.262051
C37	C	0.334754	-0.701730	0.787070
C38	C	0.834754	-0.201730	1.287070
C39	C	0.205297	-0.481049	0.702756
C40	C	0.705297	0.018951	1.202756
C41	C	0.180267	-0.406048	0.677779
C42	C	0.680267	0.093952	1.177779
C43	C	0.119099	-0.406071	0.800259
C44	C	0.619099	0.093929	1.300259
C45	C	0.144128	-0.481071	0.825236
C46	C	0.644128	0.018929	1.325236
C47	C	0.113501	-0.610437	0.794610
C48	C	0.613501	-0.110437	1.294610
C49	C	0.088492	-0.635428	0.769607
C50	C	0.588492	-0.135428	1.269607
C51	C	0.210943	-0.696652	0.708337
C52	C	0.710943	-0.196652	1.208337
C53	C	0.235956	-0.671660	0.733331
C54	C	0.735956	-0.171660	1.233331
C55	C	0.113585	-0.610461	0.923980
C56	C	0.613585	-0.110461	1.423980
C57	C	0.088635	-0.635476	0.998978
C58	C	0.588635	-0.135476	1.498978
C59	C	0.211128	-0.696714	0.998930
C60	C	0.711128	-0.196714	1.498930
C61	C	0.236077	-0.671700	0.923930
C62	C	0.736077	-0.171700	1.423930
C63	C	0.187303	-0.628571	0.886457
C64	C	0.687303	-0.128571	1.386457
C65	C	0.297246	-0.628559	0.776441
C66	C	0.797246	-0.128559	1.276441
C67	C	-0.117796	-0.823430	0.581283
C68	C	0.382204	-0.323430	1.081283
C69	C	-0.007671	-0.823587	0.471446
C70	C	0.492329	-0.323587	0.971446
C71	C	-0.007879	-0.933535	0.581483
C72	C	0.492121	-0.433535	1.081483
C73	C	-0.007861	-0.823583	0.581554
C74	C	0.492139	-0.323583	1.081554
C75	C	-0.035301	-0.851035	0.553942
C76	C	0.464699	-0.351035	1.053942
N77	N	0.446162	-0.678198	0.726752
N78	N	0.946162	-0.178198	1.226752
O79	O	0.691234	-0.690164	0.550341
O80	O	1.191234	-0.190164	1.050341
O81	O	0.691462	-0.829422	0.739388
O82	O	1.191462	-0.329422	1.239388
O83	O	0.691373	-0.829102	0.619485
O84	O	1.191373	-0.329102	1.119485
O85	O	0.691323	-0.690484	0.670244
O86	O	1.191323	-0.190484	1.170244
O87	O	0.572233	-0.789455	0.659278
O88	O	1.072233	-0.289455	1.159278
O89	O	0.572322	-0.789775	0.779181
O90	O	1.072322	-0.289775	1.279181
O91	O	0.572094	-0.650517	0.590134
O92	O	1.072094	-0.150517	1.090134
Zn93	Zn	0.553292	-0.713851	0.690976
Zn94	Zn	1.053292	-0.213851	1.190976
Zn95	Zn	0.710264	-0.766088	0.638547
Zn96	Zn	1.210264	-0.266088	1.138547
O97	O	0.572183	-0.650837	0.710037
O98	O	1.072183	-0.150837	1.210037
N99	N	0.817394	-0.801741	0.602763
N100	N	1.317394	-0.301741	1.102763
N101	N	0.137538	-0.369628	0.726874
N102	N	0.637538	0.130372	1.226874
O103	O	-0.038795	-0.124419	0.714761
O104	O	0.461205	0.375581	1.214761
O105	O	0.150256	-0.124417	0.575522
O106	O	0.650256	0.375583	1.075522
O107	O	0.030331	-0.124432	0.575860
O108	O	0.530331	0.375568	1.075860
O109	O	0.081131	-0.124404	0.714423
O110	O	0.581131	0.375596	1.214423
O111	O	0.070086	-0.243584	0.615573
O112	O	0.570086	0.256416	1.115573
O113	O	0.190011	-0.243569	0.615236
O114	O	0.690011	0.256431	1.115236
O115	O	0.000960	-0.243571	0.754474
O116	O	0.500960	0.256429	1.254474
Zn117	Zn	0.101797	-0.262488	0.691160
Zn118	Zn	0.601797	0.237512	1.191160
Zn119	Zn	0.049419	-0.105500	0.638836
Zn120	Zn	0.549419	0.394500	1.138836
O121	O	0.120885	-0.243556	0.754137
O122	O	0.620885	0.256444	1.254137
N123	N	0.013669	0.001640	0.603123
N124	N	0.513669	0.501640	1.103123
N125	N	0.137749	-0.678230	1.035381
N126	N	0.637749	-0.178230	1.535381
O127	O	0.125655	-0.854547	1.280566
O128	O	0.625655	-0.354547	1.780566
O129	O	-0.013567	-0.665426	1.280590
O130	O	0.486433	-0.165426	1.780590
O131	O	-0.013245	-0.785328	1.280537
O132	O	0.486755	-0.285328	1.780537
O133	O	0.125333	-0.734644	1.280618
O134	O	0.625333	-0.234644	1.780618
O135	O	0.026456	-0.745599	1.161392
O136	O	0.526456	-0.245599	1.661392
O137	O	0.026134	-0.625697	1.161444
O138	O	0.526134	-0.125697	1.661444
O139	O	0.165355	-0.814817	1.161420
O140	O	0.665355	-0.314817	1.661420
Zn141	Zn	0.102048	-0.713949	1.142516
Zn142	Zn	0.602048	-0.213949	1.642516
Zn143	Zn	0.049740	-0.766294	1.299495
Zn144	Zn	0.549740	-0.266294	1.799495
O145	O	0.165033	-0.694915	1.161473
O146	O	0.665033	-0.194915	1.661473
N147	N	0.014038	-0.802020	1.406629
N148	N	0.514038	-0.302020	1.906629
C149	C	0.045634	-0.621635	0.576499
C150	C	0.545634	-0.121635	1.076499
C151	C	0.194019	-0.769918	0.576389
C152	C	0.694019	-0.269918	1.076389
C153	C	0.105616	-0.858555	0.753588
C154	C	0.605616	-0.358555	1.253588
C155	C	-0.042769	-0.710272	0.753698
C156	C	0.457231	-0.210272	1.253698
C157	C	0.631920	-0.828776	0.783102
C158	C	1.131920	-0.328776	1.283102
C159	C	0.631811	-0.828380	0.634616
C160	C	1.131811	-0.328380	1.134616
C161	C	0.631633	-0.651162	0.546422
C162	C	1.131633	-0.151162	1.046422
C163	C	0.631745	-0.651559	0.694907
C164	C	1.131745	-0.151559	1.194907
C165	C	0.193900	-0.183846	0.576155
C166	C	0.693900	0.316154	1.076155
C167	C	0.045437	-0.184012	0.576622
C168	C	0.545437	0.315988	1.076622
C169	C	-0.042734	-0.183994	0.753792
C170	C	0.457266	0.316006	1.253792
C171	C	0.105780	-0.183977	0.753375
C172	C	0.605780	0.316023	1.253375
C173	C	-0.012889	-0.621735	1.221020
C174	C	0.487111	-0.121735	1.721020
C175	C	-0.012483	-0.770211	1.220931
C176	C	0.487517	-0.270211	1.720931
C177	C	0.164678	-0.858508	1.220991
C178	C	0.664678	-0.358508	1.720991
C179	C	0.164280	-0.710023	1.221052
C180	C	0.664280	-0.210023	1.721052
H181	H	0.028603	-0.620718	1.029520
H182	H	0.528603	-0.120718	1.529520
C183	C	-0.071275	-0.784824	1.220831
C184	C	0.428725	-0.284824	1.720831
H185	H	-0.112967	-0.743400	1.220822
H186	H	0.387033	-0.243400	1.720822
H187	H	-0.054699	-0.796182	1.179260
H188	H	0.445301	-0.296182	1.679260
H189	H	-0.082439	-0.823902	1.262362
H190	H	0.417561	-0.323902	1.762362
H191	H	-0.097027	-0.183996	0.797505
H192	H	0.402973	0.316004	1.297505
H193	H	0.208389	-0.912821	1.220975
H194	H	0.708389	-0.412821	1.720975
C195	C	0.267397	-0.784381	0.517411
C196	C	0.767397	-0.284381	1.017411
H197	H	0.267514	-0.742908	0.475777
H198	H	0.767514	-0.242908	0.975777
H199	H	0.303839	-0.795720	0.533858
H200	H	0.803839	-0.295720	1.033858
H201	H	0.276100	-0.823434	0.506201
H202	H	0.776100	-0.323434	1.006201
C203	C	-0.116151	-0.695808	0.812671
C204	C	0.383849	-0.195808	1.312671
H205	H	-0.146207	-0.648384	0.795294
H206	H	0.353793	-0.148384	1.295294
H207	H	-0.137623	-0.728913	0.825720
H208	H	0.362377	-0.228913	1.325720
H209	H	-0.109895	-0.701192	0.853381
H210	H	0.390105	-0.201192	1.353381
C211	C	0.223097	-0.695379	1.221070
C212	C	0.723097	-0.195379	1.721070
H213	H	0.205591	-0.647936	1.221076
H214	H	0.705591	-0.147936	1.721076
H215	H	0.236155	-0.728433	1.262617
H216	H	0.736155	-0.228433	1.762617
H217	H	0.263831	-0.700722	1.179515
H218	H	0.763831	-0.200722	1.679515
H219	H	0.631977	-0.872492	0.837399
H220	H	1.131977	-0.372492	1.337399
H221	H	0.631832	-0.871926	0.623751
H222	H	1.131832	-0.371926	1.123751
H223	H	0.073862	-0.575336	0.893474
H224	H	0.573862	-0.075336	1.393474
C225	C	0.631718	-0.592727	0.709574
C226	C	1.131718	-0.092727	1.209574
H227	H	0.631665	-0.551022	0.668174
H228	H	1.131665	-0.051022	1.168174
H229	H	0.590192	-0.581605	0.748673
H230	H	1.090192	-0.081605	1.248673
H231	H	0.673291	-0.609256	0.720915
H232	H	1.173291	-0.109256	1.220915
C233	C	0.264781	-0.744147	1.040141
C234	C	0.764781	-0.244147	1.540141
H235	H	0.312258	-0.751352	1.007049
H236	H	0.812258	-0.251352	1.507049
H237	H	0.257593	-0.721258	1.069404
H238	H	0.757593	-0.221258	1.569404
H239	H	0.257599	-0.789106	1.069388
H240	H	0.757599	-0.289106	1.569388
C241	C	0.030751	-0.184028	0.517816
C242	C	0.530751	0.315972	1.017816
H243	H	-0.016683	-0.184037	0.535332
H244	H	0.483317	0.315963	1.035332
H245	H	0.036073	-0.142482	0.477069
H246	H	0.536073	0.357518	0.977069
H247	H	0.063801	-0.225588	0.504778
H248	H	0.563801	0.274412	1.004778
C249	C	0.317171	-0.691625	0.882659
C250	C	0.817171	-0.191625	1.382659
H251	H	0.342642	-0.720885	0.915720
H252	H	0.842642	-0.220885	1.415720
H253	H	0.329455	-0.717064	0.853397
H254	H	0.829455	-0.217064	1.353397
H255	H	0.329446	-0.649212	0.853408
H256	H	0.829446	-0.149212	1.353408
H257	H	0.116656	-0.183968	0.796904
H258	H	0.616656	0.316032	1.296904
C259	C	-0.071937	-0.548359	1.221017
C260	C	0.428063	-0.048359	1.721017
H261	H	-0.113518	-0.548278	1.220991
H262	H	0.386482	-0.048278	1.720991
H263	H	-0.083212	-0.539611	1.262572
H264	H	0.416788	-0.039611	1.762572
H265	H	-0.055510	-0.511918	1.179469
H266	H	0.444490	-0.011918	1.679469
C267	C	0.007386	-0.615510	0.789564
C268	C	0.507386	-0.115510	1.289564
H269	H	-0.018050	-0.586265	0.818842
H270	H	0.481950	-0.086265	1.318842
H271	H	-0.004946	-0.590057	0.747171
H272	H	0.495054	-0.090057	1.247171
H273	H	-0.004884	-0.657926	0.815006
H274	H	0.495116	-0.157926	1.315006
C275	C	0.267079	-0.183362	0.516938
C276	C	0.767079	0.316638	1.016938
H277	H	0.267093	-0.183271	0.475324
H278	H	0.767093	0.316729	0.975324
H279	H	0.275558	-0.141708	0.505806
H280	H	0.775558	0.358292	1.005806
H281	H	0.303730	-0.224813	0.533145
H282	H	0.803730	0.275187	1.033145
H283	H	0.073825	-0.575337	0.829731
H284	H	0.573825	-0.075337	1.329731
C285	C	0.631535	-0.592093	0.473083
C286	C	1.131535	-0.092093	0.973083
H287	H	0.631503	-0.550495	0.473028
H288	H	1.131503	-0.050495	0.973028
H289	H	0.673064	-0.608491	0.436608
H290	H	1.173064	-0.108491	0.936608
H291	H	0.589966	-0.580842	0.464373
H292	H	1.089966	-0.080842	0.964373
C293	C	0.264539	-0.744070	0.660894
C294	C	0.764539	-0.244070	1.160894
H295	H	0.312033	-0.751274	0.653671
H296	H	0.812033	-0.251274	1.153671
H297	H	0.257352	-0.789023	0.683784
H298	H	0.757352	-0.289023	1.183784
H299	H	0.257306	-0.721156	0.615946
H300	H	0.757306	-0.221156	1.115946
H301	H	0.304240	-0.740958	0.816091
H302	H	0.804240	-0.240958	1.316091
C303	C	0.317062	-0.691576	0.713373
C304	C	0.817062	-0.191576	1.213373
H305	H	0.342498	-0.720831	0.684104
H306	H	0.842498	-0.220831	1.184104
H307	H	0.329333	-0.649165	0.687935
H308	H	0.829333	-0.149165	1.187935
H309	H	0.329392	-0.717034	0.755770
H310	H	0.829392	-0.217034	1.255770
H311	H	0.440232	-0.566167	0.686761
H312	H	0.940232	-0.066167	1.186761
C313	C	0.451012	-0.807219	0.773734
C314	C	0.951012	-0.307219	1.273734
H315	H	0.501043	-0.815209	0.753725
H316	H	1.001043	-0.315209	1.253725
H317	H	0.438751	-0.833371	0.823604
H318	H	0.938751	-0.333371	1.323604
H319	H	0.438708	-0.822728	0.751067
H320	H	0.938708	-0.322728	1.251067
C321	C	0.293467	-0.499906	0.729110
C322	C	0.793467	0.000094	1.229110
H323	H	0.243436	-0.491911	0.749108
H324	H	0.743436	0.008089	1.249108
H325	H	0.305774	-0.484393	0.751768
H326	H	0.805774	0.015607	1.251768
H327	H	0.305731	-0.473760	0.679234
H328	H	0.805731	0.026240	1.179234
C329	C	0.252700	-0.522286	0.649134
C330	C	0.752700	-0.022286	1.149134
H331	H	0.265025	-0.572326	0.674569
H332	H	0.765025	-0.072326	1.174569
H333	H	0.227236	-0.509992	0.619889
H334	H	0.727236	-0.009992	1.119889
H335	H	0.295095	-0.509988	0.619869
H336	H	0.795095	-0.009988	1.119869
C337	C	0.200142	-0.364781	0.596678
C338	C	0.700142	0.135219	1.096678
H339	H	0.179060	-0.314745	0.588784
H340	H	0.679060	0.185255	1.088784
H341	H	0.250737	-0.377068	0.575598
H342	H	0.750737	0.122932	1.075598
H343	H	0.182875	-0.377066	0.575619
H344	H	0.682875	0.122934	1.075619
C345	C	0.071698	-0.364833	0.853884
C346	C	0.571698	0.135167	1.353884
H347	H	0.064522	-0.397914	0.901373
H348	H	0.564522	0.102086	1.401373
H349	H	0.094588	-0.335569	0.846671
H350	H	0.594588	0.164431	1.346671
H351	H	0.026729	-0.335583	0.846699
H352	H	0.526729	0.164417	1.346699
H353	H	0.129402	-0.511613	0.885274
H354	H	0.629402	-0.011613	1.385274
C355	C	0.031066	-0.548206	0.517589
C356	C	0.531066	-0.048206	1.017589
H357	H	0.072502	-0.548015	0.475929
H358	H	0.572502	-0.048015	0.975929
H359	H	-0.008005	-0.539508	0.506414
H360	H	0.491995	-0.039508	1.006414
H361	H	0.019725	-0.511792	0.534078
H362	H	0.519725	-0.011792	1.034078
H363	H	0.116407	-0.912913	0.797192
H364	H	0.616407	-0.412913	1.297192
