data_functionalizedCrystal
_audit_creation_method	'MofGen! by Chris Wilmer'
_symmetry_space_group_name_H-M	'P1'
_symmetry_Int_Tables_number	1
_symmetry_cell_setting	triclinic
loop_
_symmetry_equiv_pos_as_xyz
  x,y,z
_cell_length_a	11.792241
_cell_length_b	18.266242
_cell_length_c	11.792241
_cell_angle_alpha	90.006463
_cell_angle_beta	84.193416
_cell_angle_gamma	90.004822
loop_
_atom_site_label
_atom_site_type_symbol
_atom_site_fract_x
_atom_site_fract_y
_atom_site_fract_z
O1	O	1.506916	0.060810	0.155570
O2	O	2.006916	0.560810	0.655570
O3	O	1.176575	0.060827	0.171603
O4	O	1.676575	0.560827	0.671603
O5	O	1.349762	0.060813	-0.001584
O6	O	1.849762	0.560813	0.498416
O7	O	1.333729	0.060824	0.328757
O8	O	1.833729	0.560824	0.828757
O9	O	1.349732	-0.060949	-0.001594
O10	O	1.849732	0.439051	0.498406
O11	O	1.176545	-0.060935	0.171593
O12	O	1.676545	0.439065	0.671593
O13	O	1.506886	-0.060952	0.155560
O14	O	2.006886	0.439048	0.655560
Zn15	Zn	1.341711	-0.080276	0.163575
Zn16	Zn	1.841711	0.419724	0.663575
Zn17	Zn	1.341750	0.080151	0.163588
Zn18	Zn	1.841750	0.580151	0.663588
O19	O	1.333699	-0.060938	0.328747
O20	O	1.833699	0.439062	0.828747
C21	C	1.134269	-0.000052	0.170591
C22	C	1.634269	0.499948	0.670591
C23	C	1.008255	-0.000045	0.167576
C24	C	1.508255	0.499955	0.667576
C25	C	0.777543	-0.000066	0.162034
C26	C	1.277543	0.499934	0.662034
C27	C	0.905928	-0.000055	0.165113
C28	C	1.405928	0.499945	0.665113
N29	N	1.341693	-0.189763	0.163567
N30	N	1.841693	0.310237	0.663567
C31	C	1.418406	-0.228078	0.086917
C32	C	1.918406	0.271922	0.586917
C33	C	1.418413	-0.304723	0.086912
C34	C	1.918413	0.195277	0.586912
C35	C	1.341718	-0.343049	0.163576
C36	C	1.841718	0.156951	0.663576
C37	C	1.264991	-0.304725	0.240231
C38	C	1.764991	0.195275	0.740231
C39	C	1.264978	-0.228082	0.240226
C40	C	1.764978	0.271918	0.740226
N41	N	1.327889	-0.463378	0.263918
N42	N	1.827889	0.036622	0.763918
N43	N	1.327908	-0.536186	0.263919
N44	N	1.827908	-0.036186	0.763919
C45	C	1.341750	-0.573972	0.163593
C46	C	1.841750	-0.073972	0.663593
N47	N	1.355595	-0.536199	0.063262
N48	N	1.855595	-0.036199	0.563262
N49	N	1.355582	-0.463384	0.063262
N50	N	1.855582	0.036616	0.563262
C51	C	1.341723	-0.426156	0.163589
C52	C	1.841723	0.073844	0.663589
C53	C	1.418475	-0.695394	0.086931
C54	C	1.918475	-0.195394	0.586931
C55	C	1.418474	-0.772040	0.086924
C56	C	1.918474	-0.272040	0.586924
C57	C	1.265058	-0.772041	0.240253
C58	C	1.765058	-0.272041	0.740253
C59	C	1.265053	-0.695397	0.240250
C60	C	1.765053	-0.195397	0.740250
C61	C	1.341768	-0.657078	0.163590
C62	C	1.841768	-0.157078	0.663590
C63	C	1.549192	-0.000071	0.156572
C64	C	2.049192	0.499929	0.656572
C65	C	1.675206	-0.000073	0.159587
C66	C	2.175206	0.499927	0.659587
N67	N	1.341777	0.189638	0.163588
N68	N	1.841777	0.689638	0.663588
C69	C	1.348740	-0.000068	-0.043880
C70	C	1.848740	0.499932	0.456120
C71	C	1.345726	-0.000067	-0.169894
C72	C	1.845726	0.499933	0.330106
C73	C	1.340183	-0.000054	-0.400606
C74	C	1.840183	0.499946	0.099394
C75	C	1.343262	-0.000061	-0.272221
C76	C	1.843262	0.499939	0.227779
C77	C	1.334721	-0.000055	0.371043
C78	C	1.834721	0.499945	0.871043
C79	C	1.337736	-0.000051	0.497057
C80	C	1.837736	0.499949	0.997057
H81	H	1.480868	-0.196880	0.024494
H82	H	1.980868	0.303120	0.524494
O83	O	1.493007	-0.658052	0.012636
O84	O	1.993007	-0.158052	0.512636
C85	C	1.476571	-0.582188	0.029091
C86	C	1.976571	-0.082188	0.529091
H87	H	1.434609	-0.571733	0.119014
H88	H	1.934609	-0.071733	0.619014
H89	H	1.562466	-0.553076	0.017162
H90	H	2.062466	-0.053076	0.517162
H91	H	1.419350	-0.560409	-0.035596
H92	H	1.919350	-0.060409	0.464404
O93	O	1.493108	-0.809149	0.012423
O94	O	1.993108	-0.309149	0.512423
C95	C	1.560794	-0.758888	-0.055251
C96	C	2.060794	-0.258888	0.444749
H97	H	1.562345	-0.704250	-0.008708
H98	H	2.062345	-0.204250	0.491292
H99	H	1.651330	-0.781024	-0.071942
H100	H	2.151330	-0.281024	0.428058
H101	H	1.523439	-0.750749	-0.139824
H102	H	2.023439	-0.250749	0.360176
O103	O	1.190603	-0.809183	0.314879
O104	O	1.690603	-0.309183	0.814879
C105	C	1.209752	-0.790457	0.427363
C106	C	1.709752	-0.290457	0.927363
H107	H	1.253492	-0.734804	0.427518
H108	H	1.753492	-0.234804	0.927518
H109	H	1.124781	-0.787840	0.482684
H110	H	1.624781	-0.287840	0.982684
H111	H	1.266466	-0.833584	0.462845
H112	H	1.766466	-0.333584	0.962845
H113	H	1.480884	-0.335924	0.024493
H114	H	1.980884	0.164076	0.524493
O115	O	1.190443	-0.342034	0.314547
O116	O	1.690443	0.157966	0.814547
C117	C	1.120047	-0.386371	0.253288
C118	C	1.620047	0.113629	0.753288
H119	H	1.164714	-0.397856	0.164778
H120	H	1.664714	0.102144	0.664778
H121	H	1.102393	-0.440265	0.300546
H122	H	1.602393	0.059735	0.800546
H123	H	1.036113	-0.356847	0.245007
H124	H	1.536113	0.143153	0.745007
O125	O	1.190701	-0.658094	0.314771
O126	O	1.690701	-0.158094	0.814771
C127	C	1.251910	-0.613763	0.385220
C128	C	1.751910	-0.113763	0.885220
H129	H	1.340440	-0.602274	0.340606
H130	H	1.840440	-0.102274	0.840606
H131	H	1.204640	-0.559872	0.402862
H132	H	1.704640	-0.059872	0.902862
H133	H	1.260143	-0.643295	0.469156
H134	H	1.760143	-0.143295	0.969156
H135	H	1.202508	-0.196885	0.302644
H136	H	1.702508	0.303115	0.802644
