data_functionalizedCrystal
_audit_creation_method	'MofGen! by Chris Wilmer'
_symmetry_space_group_name_H-M	'P1'
_symmetry_Int_Tables_number	1
_symmetry_cell_setting	triclinic
loop_
_symmetry_equiv_pos_as_xyz
  x,y,z
_cell_length_a	11.169417
_cell_length_b	12.759400
_cell_length_c	11.169409
_cell_angle_alpha	89.966891
_cell_angle_beta	89.980487
_cell_angle_gamma	90.015894
loop_
_atom_site_label
_atom_site_type_symbol
_atom_site_fract_x
_atom_site_fract_y
_atom_site_fract_z
Zn1	Zn	1.834926	-0.418146	-0.678526
Zn2	Zn	1.834801	-0.593872	-0.477841
Zn3	Zn	1.634212	-0.418211	-0.477862
Zn4	Zn	1.634205	-0.593788	-0.678486
O5	O	1.734536	-0.506004	-0.578179
O6	O	2.002859	-0.441465	-0.651913
O7	O	1.808143	-0.570633	-0.309894
O8	O	1.660893	-0.271182	-0.504506
O9	O	2.002767	-0.570570	-0.504470
O10	O	1.808357	-0.271134	-0.651933
O11	O	1.660771	-0.441576	-0.309909
O12	O	1.466262	-0.441494	-0.504467
O13	O	1.660880	-0.570426	-0.846442
O14	O	1.466256	-0.570489	-0.651865
O15	O	1.808350	-0.441383	-0.846471
O16	O	1.808135	-0.740882	-0.504431
O17	O	1.660758	-0.740820	-0.651845
C18	C	1.422711	-0.505990	-0.578165
C19	C	1.289311	-0.506009	-0.578188
C20	C	1.734465	-0.778972	-0.578157
C21	C	1.734544	-0.895748	-0.578189
C22	C	1.811295	-0.950495	-0.655019
C23	C	1.811363	-1.060219	-0.655052
C24	C	1.657925	-1.060439	-0.501413
C25	C	1.657852	-0.950717	-0.501387
C26	C	1.854272	-1.210041	-0.796667
C27	C	1.931042	-1.264791	-0.873487
C28	C	2.048117	-1.229080	-0.892004
C29	C	2.088445	-1.138620	-0.833683
C30	C	2.011682	-1.083875	-0.756854
C31	C	1.894591	-1.119584	-0.738360
C32	C	1.614955	-0.800894	-0.359770
C33	C	1.538197	-0.746147	-0.282934
C34	C	1.421120	-0.781856	-0.264405
C35	C	1.380796	-0.872320	-0.322705
C36	C	1.457554	-0.927067	-0.399541
C37	C	1.574630	-0.891351	-0.418072
C38	C	2.047578	-0.506019	-0.578193
C39	C	2.180978	-0.506026	-0.578199
C40	C	1.734628	-0.505888	-0.891221
C41	C	1.734667	-0.505838	-1.024621
C42	C	1.734640	-0.231971	-0.578226
C43	C	1.734684	-0.115194	-0.578247
C44	C	1.734513	-0.506045	-0.266354
C45	C	1.734707	-0.505798	-0.132955
H46	H	1.873741	-0.905742	-0.717557
F47	F	2.213060	-1.100628	-0.853381
H48	H	1.595487	-1.105209	-0.438882
H49	H	1.358626	-0.737272	-0.201835
F50	F	2.129819	-1.287355	-0.973761
F51	F	2.054596	-0.987607	-0.694785
F52	F	1.888119	-1.361065	-0.935551
F53	F	1.729660	-1.248044	-0.776983
F54	F	1.414632	-1.023346	-0.461593
F55	F	1.256192	-0.910333	-0.302978
H56	H	1.571042	-0.672490	-0.235458
F57	F	1.739565	-0.762884	-0.379485
