data_functionalizedCrystal
_audit_creation_method	'MofGen! by Chris Wilmer'
_symmetry_space_group_name_H-M	'P1'
_symmetry_Int_Tables_number	1
_symmetry_cell_setting	triclinic
loop_
_symmetry_equiv_pos_as_xyz
  x,y,z
_cell_length_a	15.944545
_cell_length_b	14.421503
_cell_length_c	11.026607
_cell_angle_alpha	90.007200
_cell_angle_beta	83.958906
_cell_angle_gamma	90.004847
loop_
_atom_site_label
_atom_site_type_symbol
_atom_site_fract_x
_atom_site_fract_y
_atom_site_fract_z
O1	O	1.138184	0.077048	-0.156457
O2	O	0.896552	0.077062	-0.175761
O3	O	0.997341	0.077053	0.010545
O4	O	1.037394	0.077057	-0.342763
O5	O	0.997324	-0.077171	0.010517
O6	O	0.896534	-0.077161	-0.175789
O7	O	1.138167	-0.077176	-0.156485
Cu8	Cu	1.017349	-0.091250	-0.166140
Cu9	Cu	1.017369	0.091137	-0.166107
O10	O	1.037377	-0.077166	-0.342791
C11	C	0.865128	-0.000047	-0.174975
C12	C	0.771519	-0.000042	-0.172577
C13	C	0.482346	-0.000053	-0.049929
C14	C	0.541858	-0.076095	-0.109073
C15	C	0.434582	-0.000058	-0.164023
C16	C	0.541860	0.075957	-0.109076
C17	C	0.600130	-0.000048	-0.168219
C18	C	0.492861	-0.076162	-0.223137
C19	C	0.492858	0.075958	-0.223124
C20	C	0.552349	-0.000102	-0.282352
C21	C	0.339214	-0.000064	-0.161602
C22	C	0.695497	-0.000049	-0.170649
N23	N	1.017341	-0.219531	-0.166162
C24	C	0.970719	-0.469181	-0.252271
C25	C	1.050180	-0.530988	-0.275828
C26	C	1.017357	-0.408693	-0.166133
C27	C	0.937919	-0.530980	-0.142604
C28	C	1.017366	-0.591414	-0.166108
C29	C	1.096865	-0.469139	-0.189745
C30	C	0.984546	-0.469126	-0.056473
C31	C	1.064055	-0.530905	-0.079983
C32	C	1.017351	-0.303432	-0.166151
C33	C	1.017380	-0.696673	-0.166089
C34	C	1.169590	-0.000064	-0.157271
C35	C	1.263199	-0.000063	-0.159670
C36	C	0.989944	-0.000057	0.055742
C37	C	0.967917	-0.000053	0.190457
N38	N	1.017383	0.219418	-0.166075
C39	C	1.044774	-0.000054	-0.387988
C40	C	1.066801	-0.000053	-0.522704
C41	C	1.028737	-0.000055	0.264260
C42	C	1.005973	-0.000050	0.403495
H43	H	0.451839	-0.000128	0.048331
F44	F	0.919247	-0.433752	-0.347557
F45	F	0.570142	-0.160126	-0.046110
F46	F	1.118826	-0.000055	0.212121
H47	H	0.563498	0.140241	-0.060860
F48	F	0.850107	-0.566487	-0.116604
H49	H	1.135729	0.000013	0.437409
H50	H	0.937045	-0.000040	0.443384
F51	F	0.464713	-0.160282	-0.286087
H52	H	1.077940	-0.558160	-0.368554
F53	F	0.877828	-0.000039	0.242596
H54	H	0.471196	0.140249	-0.271255
F55	F	0.592027	-0.000154	-0.410884
F56	F	1.184719	-0.433787	-0.215883
H57	H	1.103554	-0.557836	-0.007124
H58	H	0.956767	-0.441932	0.036223
