data_functionalizedCrystal
_audit_creation_method	'MofGen! by Chris Wilmer'
_symmetry_space_group_name_H-M	'P1'
_symmetry_Int_Tables_number	1
_symmetry_cell_setting	triclinic
loop_
_symmetry_equiv_pos_as_xyz
  x,y,z
_cell_length_a	15.995350
_cell_length_b	15.995292
_cell_length_c	12.376457
_cell_angle_alpha	78.708290
_cell_angle_beta	101.278656
_cell_angle_gamma	83.480495
loop_
_atom_site_label
_atom_site_type_symbol
_atom_site_fract_x
_atom_site_fract_y
_atom_site_fract_z
O1	O	0.091638	1.127078	-0.094031
O2	O	0.105017	0.883295	-0.094026
O3	O	-0.023561	1.011851	-0.094028
O4	O	0.220217	0.998523	-0.094029
O5	O	0.008540	0.979723	0.093985
O6	O	0.137118	0.851168	0.093987
O7	O	0.123739	1.094951	0.093981
Zn8	Zn	0.135525	0.967959	0.123835
Zn9	Zn	0.093231	1.010288	-0.123880
O10	O	0.252317	0.966396	0.093983
C11	C	0.120523	0.836036	-0.000019
C12	C	0.118891	0.743083	-0.000017
C13	C	0.112888	0.405347	-0.000030
C14	C	0.205620	0.428731	-0.000450
C15	C	0.207457	0.525333	-0.000022
C16	C	0.115867	0.572902	-0.000024
C17	C	0.087800	0.525454	0.107337
C18	C	0.086697	0.428649	0.107422
C19	C	0.048297	0.465328	-0.106384
C20	C	0.051495	0.562062	-0.107798
C21	C	0.117546	0.667596	-0.000017
C22	C	0.111207	0.310651	-0.000029
C23	C	-0.038706	0.995236	-0.000024
C24	C	-0.131657	0.993586	-0.000030
C25	C	-0.469402	0.987653	-0.000026
C26	C	-0.422021	0.896170	-0.000446
C27	C	-0.325259	0.897750	-0.000022
C28	C	-0.301843	0.990596	-0.000029
C29	C	-0.324599	1.017408	0.107333
C30	C	-0.421219	1.015092	0.107423
C31	C	-0.458082	1.053518	-0.106383
C32	C	-0.361379	1.053739	-0.107802
C33	C	-0.207145	0.992263	-0.000026
C34	C	-0.564099	0.985986	-0.000021
C35	C	0.267462	0.983010	-0.000024
C36	C	0.360411	0.984663	-0.000025
C37	C	0.108232	1.142211	-0.000028
C38	C	0.109863	1.235165	-0.000037
N39	N	0.164389	0.939076	0.292894
N40	N	0.064360	1.039177	-0.292938
C41	C	-0.002659	1.106222	0.647877
C42	C	-0.022861	1.126432	0.529536
C43	C	0.023949	1.079595	0.470370
C44	C	0.090966	1.012544	0.529555
C45	C	0.111175	0.992336	0.647907
C46	C	0.137783	0.965709	0.470400
C47	C	0.204800	0.898658	0.529585
C48	C	0.225005	0.878453	0.647926
C49	C	0.178194	0.925291	0.707092
C50	C	0.117575	0.985917	0.352049
C51	C	0.231409	0.872031	0.352079
C52	C	0.251611	0.851821	0.470419
H53	H	0.254265	0.386629	0.076110
Br54	Br	0.315968	0.787469	0.728252
H55	H	0.269528	0.833893	0.303906
Br56	Br	0.342559	0.760824	0.550753
Br57	Br	0.026628	1.076912	0.271740
Br58	Br	-0.511249	1.166234	-0.107596
H59	H	0.257176	0.530563	0.077069
H60	H	0.071716	0.594204	-0.187223
H61	H	0.228246	0.413891	-0.077444
H62	H	0.230649	0.557511	-0.076985
H63	H	0.132533	0.388118	0.187678
Br64	Br	0.073494	0.441300	-0.242014
Br65	Br	-0.023406	0.577420	0.113986
Br66	Br	-0.066173	1.169791	0.728173
Br67	Br	-0.515450	1.026796	-0.242013
Br68	Br	-0.113805	1.217427	0.449215
H69	H	-0.347139	1.122554	-0.114289
H70	H	0.007498	1.096053	0.374012
H71	H	-0.425810	0.968449	0.187682
H72	H	-0.016464	0.596141	-0.114284
H73	H	0.019485	0.413265	0.112297
Br74	Br	0.164237	0.536127	0.240512
H75	H	-0.309969	0.875404	-0.076983
Br76	Br	-0.065766	0.442221	-0.107593
Br77	Br	-0.433343	0.813533	0.126774
Br78	Br	-0.474801	0.857101	-0.128772
Br79	Br	-0.256856	0.816226	0.128469
Br80	Br	-0.473609	1.125734	0.115548
H81	H	0.194640	0.908834	0.803454
H82	H	-0.309807	1.084937	0.111321
Br83	Br	-0.338018	1.021796	-0.240202
Br84	Br	-0.254550	0.942378	0.240508
