data_functionalizedCrystal
_audit_creation_method	'MofGen! by Chris Wilmer'
_symmetry_space_group_name_H-M	'P1'
_symmetry_Int_Tables_number	1
_symmetry_cell_setting	triclinic
loop_
_symmetry_equiv_pos_as_xyz
  x,y,z
_cell_length_a	10.685980
_cell_length_b	12.645330
_cell_length_c	10.686551
_cell_angle_alpha	85.593389
_cell_angle_beta	81.591741
_cell_angle_gamma	94.379365
loop_
_atom_site_label
_atom_site_type_symbol
_atom_site_fract_x
_atom_site_fract_y
_atom_site_fract_z
Zn1	Zn	1.995799	-0.237609	-0.866702
Zn2	Zn	2.495799	0.262391	-0.366702
Zn3	Zn	1.979386	-0.429655	-0.654437
Zn4	Zn	2.479386	0.070345	-0.154437
Zn5	Zn	1.767228	-0.267114	-0.638166
Zn6	Zn	2.267228	0.232886	-0.138166
Zn7	Zn	1.783509	-0.429552	-0.850347
Zn8	Zn	2.283509	0.070448	-0.350347
O9	O	1.881481	-0.340982	-0.752413
O10	O	2.381481	0.159018	-0.252413
O11	O	2.171255	-0.250779	-0.852198
O12	O	2.671255	0.249221	-0.352198
O13	O	1.937559	-0.420485	-0.474646
O14	O	2.437559	0.079515	0.025354
O15	O	1.797603	-0.114847	-0.668517
O16	O	2.297603	0.385153	-0.168517
O17	O	2.159196	-0.391875	-0.696248
O18	O	2.659196	0.108125	-0.196248
O19	O	1.965534	-0.093170	-0.836421
O20	O	2.465534	0.406830	-0.336421
O21	O	1.781688	-0.301066	-0.462692
O22	O	2.281688	0.198934	0.037308
O23	O	1.591755	-0.300966	-0.652659
O24	O	2.091755	0.199034	-0.152659
O25	O	1.825353	-0.391699	-1.030149
O26	O	2.325353	0.108301	-0.530149
O27	O	1.603717	-0.420309	-0.808547
O28	O	2.103717	0.079691	-0.308547
O29	O	1.981322	-0.250679	-1.042165
O30	O	2.481322	0.249321	-0.542165
O31	O	1.953347	-0.577995	-0.680390
O32	O	2.453347	-0.077995	-0.180390
O33	O	1.809438	-0.577919	-0.824324
O34	O	2.309438	-0.077919	-0.324324
C35	C	1.551677	-0.363829	-0.727063
C36	C	2.051677	0.136171	-0.227063
C37	C	1.410589	-0.373626	-0.716249
C38	C	1.910589	0.126374	-0.216249
C39	C	1.881415	-0.616419	-0.752378
C40	C	2.381415	-0.116419	-0.252378
C41	C	1.881506	-0.734240	-0.752415
C42	C	2.381506	-0.234240	-0.252415
C43	C	1.971867	-0.901833	-0.661654
C44	C	2.471867	-0.401833	-0.161654
C45	C	1.972204	-0.779234	-0.661919
C46	C	2.472204	-0.279234	-0.161919
C47	C	1.928056	-0.766809	-0.889001
C48	C	2.428056	-0.266809	-0.389001
C49	C	1.928793	-0.889390	-0.888539
C50	C	2.428793	-0.389390	-0.388539
C51	C	1.744657	-0.913250	-0.707905
C52	C	2.244657	-0.413250	-0.207905
C53	C	1.745070	-0.790810	-0.704953
C54	C	2.245070	-0.290810	-0.204953
C55	C	2.212571	-0.318047	-0.777863
C56	C	2.712571	0.181953	-0.277863
C57	C	2.353663	-0.308274	-0.788708
C58	C	2.853663	0.191726	-0.288708
C59	C	1.906984	-0.317887	-1.083503
C60	C	2.406984	0.182113	-0.583503
C61	C	1.917853	-0.308045	-1.224593
C62	C	2.417853	0.191955	-0.724593
C63	C	1.881583	-0.064466	-0.752479
C64	C	2.381583	0.435534	-0.252479
C65	C	1.881627	0.053368	-0.752506
C66	C	2.381627	0.553368	-0.252506
C67	C	1.856149	-0.363907	-0.422617
C68	C	2.356149	0.136093	0.077383
C69	C	1.845526	-0.373433	-0.281546
C70	C	2.345526	0.126567	0.218454
H71	H	1.412863	-0.244821	-0.859014
H72	H	1.912863	0.255179	-0.359014
Cl73	Cl	2.081450	-0.705720	-0.946102
Cl74	Cl	2.581450	-0.205720	-0.446102
Cl75	Cl	1.682357	-0.974942	-0.555981
Cl76	Cl	2.182357	-0.474942	-0.055981
Cl77	Cl	1.737088	-0.471498	-1.190183
Cl78	Cl	2.237088	0.028502	-0.690183
H79	H	1.988099	-0.244533	-1.283779
H80	H	2.488099	0.255467	-0.783779
H81	H	1.677295	-0.942331	-0.773950
H82	H	2.177295	-0.442331	-0.273950
Cl83	Cl	1.830350	-0.721145	-0.996997
Cl84	Cl	2.330350	-0.221145	-0.496997
H85	H	1.941889	-0.757699	-0.560966
H86	H	2.441889	-0.257699	-0.060966
Cl87	Cl	1.319185	-0.471589	-0.607676
Cl88	Cl	1.819185	0.028411	-0.107676
H89	H	1.941813	-0.939854	-0.560432
H90	H	2.441813	-0.439854	-0.060432
Cl91	Cl	1.691155	-0.759528	-0.549691
Cl92	Cl	2.191155	-0.259528	-0.049691
H93	H	2.072554	-0.924143	-0.691677
H94	H	2.572554	-0.424143	-0.191677
H95	H	2.029217	-0.909076	-0.925122
H96	H	2.529217	-0.409076	-0.425122
Cl97	Cl	2.128511	-0.720738	-0.708737
Cl98	Cl	2.628511	-0.220738	-0.208737
H99	H	1.866507	-0.918511	-0.959120
H100	H	2.366507	-0.418511	-0.459120
Cl101	Cl	1.634372	-0.744645	-0.798349
Cl102	Cl	2.134372	-0.244645	-0.298349
