data_functionalizedCrystal
_audit_creation_method	'MofGen! by Chris Wilmer'
_symmetry_space_group_name_H-M	'P1'
_symmetry_Int_Tables_number	1
_symmetry_cell_setting	triclinic
loop_
_symmetry_equiv_pos_as_xyz
  x,y,z
_cell_length_a	17.699083
_cell_length_b	23.532407
_cell_length_c	16.176319
_cell_angle_alpha	89.988536
_cell_angle_beta	89.998611
_cell_angle_gamma	83.065847
loop_
_atom_site_label
_atom_site_type_symbol
_atom_site_fract_x
_atom_site_fract_y
_atom_site_fract_z
O1	O	1.003713	0.072020	-0.068639
O2	O	1.503713	0.572020	0.431361
O3	O	0.783287	0.081390	-0.068667
O4	O	1.283287	0.581390	0.431333
O5	O	0.900147	-0.006208	-0.068637
O6	O	1.400147	0.493792	0.431363
O7	O	0.886853	0.159618	-0.068669
O8	O	1.386853	0.659618	0.431331
O9	O	0.900131	-0.006213	0.068856
O10	O	1.400131	0.493787	0.568856
O11	O	0.783271	0.081384	0.068826
O12	O	1.283271	0.581384	0.568826
O13	O	1.003697	0.072014	0.068854
O14	O	1.503697	0.572014	0.568854
Cu15	Cu	0.893483	0.076699	0.081394
Cu16	Cu	1.393483	0.576699	0.581394
Cu17	Cu	0.893502	0.076705	-0.081207
Cu18	Cu	1.393502	0.576705	0.418793
O19	O	0.886837	0.159612	0.068824
O20	O	1.386837	0.659612	0.568824
C21	C	0.755084	0.081051	0.000076
C22	C	1.255084	0.581051	0.500076
C23	C	0.671071	0.080044	0.000066
C24	C	1.171071	0.580044	0.500066
C25	C	0.622189	0.131462	0.000056
C26	C	1.122189	0.631462	0.500056
C27	C	0.543251	0.130512	0.000067
C28	C	1.043251	0.630512	0.500067
C29	C	0.513196	0.078144	0.000082
C30	C	1.013196	0.578144	0.500082
C31	C	0.562084	0.026722	0.000094
C32	C	1.062084	0.526722	0.500094
C33	C	0.641021	0.027672	0.000089
C34	C	1.141021	0.527672	0.500089
C35	C	0.243740	0.022888	0.000115
C36	C	0.743740	0.522888	0.500115
C37	C	0.164797	0.021942	0.000117
C38	C	0.664797	0.521942	0.500117
C39	C	0.145970	0.125728	0.000093
C40	C	0.645970	0.625728	0.500093
C41	C	0.224907	0.126678	0.000088
C42	C	0.724907	0.626678	0.500088
C43	C	0.273788	0.075257	0.000105
C44	C	0.773788	0.575257	0.500105
C45	C	0.359382	0.076287	0.000094
C46	C	0.859382	0.576287	0.500094
C47	C	0.427603	0.077113	0.000086
C48	C	0.927603	0.577113	0.500086
C49	C	0.899801	-0.027427	0.000111
C50	C	1.399801	0.472573	0.500111
C51	C	0.898783	-0.090647	0.000118
C52	C	1.398783	0.409353	0.500118
C53	C	0.961554	-0.489570	0.000080
C54	C	1.461554	0.010430	0.500080
C55	C	0.960609	-0.548973	0.000074
C56	C	1.460609	-0.048973	0.500074
O57	O	1.018799	-0.585550	0.000051
O58	O	1.518799	-0.085550	0.500051
N59	N	0.891136	-0.571799	0.000066
N60	N	1.391136	-0.071799	0.500066
C61	C	0.822604	-0.535218	0.000055
C62	C	1.322604	-0.035218	0.500055
O63	O	0.763424	-0.560088	0.000047
O64	O	1.263424	-0.060088	0.500047
C65	C	0.823550	-0.475816	0.000056
C66	C	1.323550	0.024184	0.500056
C67	C	0.893028	-0.452994	0.000073
C68	C	1.393028	0.047006	0.500073
C69	C	1.031026	-0.466747	0.000096
C70	C	1.531026	0.033253	0.500096
C71	C	1.031972	-0.407348	0.000104
C72	C	1.531972	0.092652	0.500104
C73	C	0.963445	-0.370772	0.000096
C74	C	1.463445	0.129228	0.500096
C75	C	0.893973	-0.393595	0.000080
C76	C	1.393973	0.106405	0.500080
C77	C	0.755019	-0.439237	0.000040
C78	C	1.255019	0.060763	0.500040
C79	C	0.755971	-0.379832	0.000039
C80	C	1.255971	0.120168	0.500039
C81	C	0.825448	-0.357009	0.000056
C82	C	1.325448	0.142991	0.500056
C83	C	0.826391	-0.297620	0.000081
C84	C	1.326391	0.202380	0.500081
N85	N	0.895864	-0.274795	0.000089
N86	N	1.395864	0.225205	0.500089
C87	C	0.964391	-0.311371	0.000097
C88	C	1.464391	0.188629	0.500097
C89	C	0.820622	-0.659966	0.000053
C90	C	1.320622	-0.159966	0.500053
C91	C	0.819674	-0.719367	0.000058
C92	C	1.319674	-0.219367	0.500058
C93	C	0.957680	-0.733118	0.000075
C94	C	1.457680	-0.233118	0.500075
C95	C	0.958626	-0.673716	0.000076
C96	C	1.458626	-0.173716	0.500076
C97	C	0.890095	-0.637141	0.000061
C98	C	1.390095	-0.137141	0.500061
C99	C	0.966371	-0.186628	0.000114
C100	C	1.466371	0.313372	0.500114
C101	C	0.967310	-0.127223	0.000125
C102	C	1.467310	0.372777	0.500125
C103	C	0.829305	-0.113478	0.000104
C104	C	1.329305	0.386522	0.500104
C105	C	0.828365	-0.172877	0.000097
C106	C	1.328365	0.327123	0.500097
C107	C	0.896904	-0.209452	0.000099
C108	C	1.396904	0.290548	0.500099
O109	O	0.768232	-0.261008	0.000100
O110	O	1.268232	0.238992	0.500100
O111	O	1.023560	-0.286493	0.000094
O112	O	1.523560	0.213507	0.500094
C113	C	1.031901	0.072353	0.000109
C114	C	1.531901	0.572353	0.500109
C115	C	1.115914	0.073360	0.000114
C116	C	1.615914	0.573360	0.500114
C117	C	0.887184	0.180832	0.000073
C118	C	1.387184	0.680832	0.500073
C119	C	0.888202	0.244052	0.000062
C120	C	1.388202	0.744052	0.500062
N121	N	0.893475	0.076694	0.195759
N122	N	1.393475	0.576694	0.695759
N123	N	0.893516	0.076706	-0.195573
N124	N	1.393516	0.576706	0.304427
C125	C	0.945236	0.037921	0.239037
C126	C	1.445236	0.537921	0.739037
C127	C	0.945240	0.037921	0.325584
C128	C	1.445240	0.537921	0.825584
C129	C	0.893486	0.076696	0.368852
C130	C	1.393486	0.576696	0.868852
C131	C	0.841719	0.115470	0.325568
C132	C	1.341719	0.615470	0.825568
C133	C	0.841713	0.115467	0.239023
C134	C	1.341713	0.615467	0.739023
C135	C	0.841745	0.115481	0.674597
C136	C	1.341745	0.615481	1.174597
C137	C	0.841758	0.115481	0.761148
C138	C	1.341758	0.615481	1.261148
C139	C	0.945273	0.037934	0.761158
C140	C	1.445273	0.537934	1.261158
C141	C	0.945266	0.037932	0.674612
C142	C	1.445266	0.537932	1.174612
C143	C	0.893497	0.076704	0.631336
C144	C	1.393497	0.576704	1.131336
C145	C	0.893493	0.076703	0.537492
C146	C	1.393493	0.576703	1.037492
C147	C	0.893493	0.076700	0.462695
C148	C	1.393493	0.576700	0.962695
H149	H	0.283530	-0.018983	0.000129
H150	H	0.783530	0.481017	0.500129
O151	O	0.098378	0.175628	0.000122
O152	O	0.598378	0.675628	0.500122
C153	C	0.022260	0.163564	0.000112
C154	C	0.522260	0.663564	0.500112
H155	H	0.019569	0.118837	0.026156
H156	H	0.519569	0.618837	0.526156
H157	H	-0.013750	0.196347	0.040022
H158	H	0.486250	0.696347	0.540022
H159	H	-0.000590	0.165755	-0.065850
H160	H	0.499410	0.665755	0.434150
O161	O	0.752203	-0.741561	0.000196
O162	O	1.252203	-0.241561	0.500196
C163	C	0.747520	-0.775534	0.071389
C164	C	1.247520	-0.275534	0.571389
H165	H	0.786957	-0.761549	0.121169
H166	H	1.286957	-0.261549	0.621169
H167	H	0.686477	-0.770125	0.095280
H168	H	1.186477	-0.270125	0.595280
H169	H	0.765336	-0.822399	0.055285
H170	H	1.265336	-0.322399	0.555285
H171	H	1.022182	-0.216401	0.000113
H172	H	1.522182	0.283599	0.500113
H173	H	0.140330	-0.020705	0.000130
H174	H	0.640330	0.479295	0.500130
O175	O	0.495801	0.180476	-0.000092
O176	O	0.995801	0.680476	0.499908
C177	C	0.509374	0.212283	-0.071303
C178	C	1.009374	0.712283	0.428697
H179	H	0.536577	0.182178	-0.121067
H180	H	1.036577	0.682178	0.378933
H181	H	0.453192	0.235200	-0.095207
H182	H	0.953192	0.735200	0.404793
H183	H	0.549328	0.245189	-0.055218
H184	H	1.049328	0.745189	0.444782
H185	H	1.088547	-0.388773	0.000114
H186	H	1.588547	0.111227	0.500114
O187	O	0.791434	0.153200	0.632694
O188	O	1.291434	0.653200	1.132694
C189	C	0.745749	0.187415	0.689445
C190	C	1.245749	0.687415	1.189445
H191	H	0.776783	0.188029	0.751131
H192	H	1.276783	0.688029	1.251131
H193	H	0.733853	0.232907	0.664427
H194	H	1.233853	0.732907	1.164427
H195	H	0.689669	0.168975	0.698667
H196	H	1.189669	0.668975	1.198667
O197	O	0.253976	0.177599	0.000111
O198	O	0.753976	0.677599	0.500111
C199	C	0.193903	0.222779	0.000086
C200	C	0.693903	0.722779	0.500086
H201	H	0.140394	0.206888	0.026121
H202	H	0.640394	0.706888	0.526121
H203	H	0.210127	0.259345	0.039997
H204	H	0.710127	0.759345	0.539997
H205	H	0.182612	0.238639	-0.065879
H206	H	0.682612	0.738639	0.434121
H207	H	0.764811	-0.630189	0.000048
H208	H	1.264811	-0.130189	0.500048
H209	H	0.799610	0.147058	0.796376
H210	H	1.299610	0.647058	1.296376
O211	O	0.995503	0.000301	0.632478
O212	O	1.495503	0.500301	1.132478
C213	C	1.041959	0.030677	0.582284
C214	C	1.541959	0.530677	1.082284
H215	H	1.043082	0.075572	0.608347
H216	H	1.543082	0.575572	1.108347
H217	H	1.102235	0.007287	0.581172
H218	H	1.602235	0.507287	1.081172
H219	H	1.018127	0.033733	0.516746
H220	H	1.518127	0.533733	1.016746
O221	O	0.532765	-0.024099	0.000073
O222	O	1.032765	0.475901	0.500073
C223	C	0.452611	-0.013914	0.000093
C224	C	0.952611	0.486086	0.500093
H225	H	0.433736	0.030556	-0.025947
H226	H	0.933736	0.530556	0.474053
H227	H	0.428624	-0.047416	-0.039816
H228	H	0.928624	0.452584	0.460184
H229	H	0.430657	-0.016645	0.066057
H230	H	0.930657	0.483355	0.566057
H231	H	0.680820	-0.014197	0.000096
H232	H	1.180820	0.485803	0.500096
O233	O	1.034757	-0.104988	0.000028
O234	O	1.534757	0.395012	0.500028
C235	C	1.039451	-0.071038	-0.071187
C236	C	1.539451	0.428962	0.428813
H237	H	0.979686	-0.056161	-0.094933
H238	H	1.479686	0.443839	0.405067
H239	H	1.069322	-0.032182	-0.055164
H240	H	1.569322	0.467818	0.444836
H241	H	1.073140	-0.097317	-0.121050
H242	H	1.573140	0.402683	0.378950
H243	H	0.773512	-0.083687	0.000101
H244	H	1.273512	0.416313	0.500101
O245	O	0.995523	0.000186	0.803108
O246	O	1.495523	0.500186	1.303108
C247	C	0.983634	-0.056179	0.781992
C248	C	1.483634	0.443821	1.281992
H249	H	0.954457	-0.056081	0.719157
H250	H	1.454457	0.443919	1.219157
H251	H	1.040734	-0.084281	0.779035
H252	H	1.540734	0.415719	1.279035
H253	H	0.946096	-0.073756	0.830709
H254	H	1.446096	0.426244	1.330709
H255	H	0.698442	-0.457808	0.000021
H256	H	1.198442	0.042192	0.500021
O257	O	0.995422	0.000202	0.367656
O258	O	1.495422	0.500202	0.867656
C259	C	0.955171	-0.034892	0.417749
C260	C	1.455171	0.465108	0.917749
H261	H	0.895490	-0.035801	0.391680
H262	H	1.395490	0.464199	0.891680
H263	H	0.986400	-0.080186	0.418736
H264	H	1.486400	0.419814	0.918736
H265	H	0.951077	-0.017067	0.483337
H266	H	1.451077	0.482933	0.983337
H267	H	1.086833	-0.496522	0.000099
H268	H	1.586833	0.003478	0.500099
H269	H	0.987383	0.006349	0.203814
H270	H	1.487383	0.506349	0.703814
O271	O	1.026183	-0.651644	0.000047
O272	O	1.526183	-0.151644	0.500047
C273	C	1.086458	-0.696671	0.000077
C274	C	1.586458	-0.196671	0.500077
H275	H	1.065550	-0.736994	-0.025952
H276	H	1.565550	-0.236994	0.474048
H277	H	1.134997	-0.684319	-0.039837
H278	H	1.634997	-0.184319	0.460163
H279	H	1.107567	-0.705111	0.066042
H280	H	1.607567	-0.205111	0.566042
O281	O	0.791339	0.153078	0.367561
O282	O	1.291339	0.653078	0.867561
C283	C	0.716490	0.143896	0.346413
C284	C	1.216490	0.643896	0.846413
H285	H	0.716467	0.098298	0.322636
H286	H	1.216467	0.598298	0.822636
H287	H	0.678463	0.150481	0.403332
H288	H	1.178463	0.650481	0.903332
H289	H	0.694013	0.175483	0.296170
H290	H	1.194013	0.675483	0.796170
O291	O	0.689327	-0.344384	0.000062
O292	O	1.189327	0.155616	0.500062
C293	C	0.627809	-0.377271	0.000024
C294	C	1.127809	0.122729	0.500024
H295	H	0.647363	-0.421635	0.026055
H296	H	1.147363	0.078365	0.526055
H297	H	0.579814	-0.355308	0.039933
H298	H	1.079814	0.144692	0.539933
H299	H	0.606506	-0.381465	-0.065944
H300	H	1.106506	0.118535	0.434056
H301	H	1.013478	-0.762909	0.000079
H302	H	1.513478	-0.262909	0.500079
O303	O	0.760810	-0.194956	0.000047
O304	O	1.260810	0.305044	0.500047
C305	C	0.700530	-0.149932	0.000066
C306	C	1.200530	0.350068	0.500066
H307	H	0.721440	-0.109598	-0.025946
H308	H	1.221440	0.390402	0.474054
H309	H	0.652005	-0.162273	-0.039869
H310	H	1.152005	0.337727	0.460131
H311	H	0.679401	-0.141517	0.066026
H312	H	1.179401	0.358483	0.566026
H313	H	0.646653	0.174106	0.000044
H314	H	1.146653	0.674106	0.500044
H315	H	0.799563	0.147039	0.203787
H316	H	1.299563	0.647039	0.703787
