data_functionalizedCrystal
_audit_creation_method	'MofGen! by Chris Wilmer'
_symmetry_space_group_name_H-M	'P1'
_symmetry_Int_Tables_number	1
_symmetry_cell_setting	triclinic
loop_
_symmetry_equiv_pos_as_xyz
  x,y,z
_cell_length_a	12.645331
_cell_length_b	12.645323
_cell_length_c	12.645330
_cell_angle_alpha	90.024870
_cell_angle_beta	89.983329
_cell_angle_gamma	89.977324
loop_
_atom_site_label
_atom_site_type_symbol
_atom_site_fract_x
_atom_site_fract_y
_atom_site_fract_z
Zn1	Zn	1.620731	-0.599446	0.422060
Zn2	Zn	1.620613	-0.422186	0.599348
Zn3	Zn	1.443446	-0.422191	0.422096
Zn4	Zn	1.443428	-0.599402	0.599279
O5	O	1.532054	-0.510806	0.510695
O6	O	1.769063	-0.575949	0.445591
O7	O	1.597069	-0.273840	0.575879
O8	O	1.467020	-0.445724	0.273744
O9	O	1.768976	-0.445717	0.575844
O10	O	1.597271	-0.575953	0.273717
O11	O	1.466906	-0.273843	0.445653
O12	O	1.295096	-0.445681	0.445585
O13	O	1.466989	-0.747755	0.575726
O14	O	1.295083	-0.575877	0.575761
O15	O	1.597253	-0.747788	0.445524
O16	O	1.597052	-0.445674	0.747686
O17	O	1.466874	-0.575873	0.747635
C18	C	1.256625	-0.510776	0.510670
C19	C	1.138795	-0.510788	0.510685
C20	C	1.532132	-0.787312	0.510614
C21	C	1.532166	-0.905142	0.510579
C22	C	0.971204	-0.429333	0.428415
C23	C	1.093763	-0.428974	0.428628
C24	C	1.094274	-0.480273	0.622359
C25	C	0.971676	-0.479717	0.621910
C26	C	0.971645	-0.623072	0.482344
C27	C	1.094251	-0.622448	0.479849
C28	C	1.449964	-1.072685	0.592103
C29	C	1.450179	-0.950125	0.592506
C30	C	1.643865	-0.949662	0.540899
C31	C	1.643414	-1.072260	0.541410
C32	C	1.503724	-1.072340	0.398278
C33	C	1.501232	-0.949733	0.398951
C34	C	1.808560	-0.510838	0.510722
C35	C	1.926390	-0.510851	0.510733
C36	C	1.531977	-0.510791	0.786125
C37	C	1.532041	-0.510821	0.903955
C38	C	1.532038	-0.235377	0.510701
C39	C	1.532210	-0.117547	0.510437
C40	C	1.532161	-0.510844	0.234190
C41	C	1.532206	-0.510861	0.116360
C42	C	1.450484	-0.592982	1.071531
C43	C	1.450067	-0.592717	0.948972
C44	C	1.501796	-0.399099	0.948549
C45	C	1.501298	-0.399597	1.071147
C46	C	1.644342	-0.539475	1.071047
C47	C	1.643654	-0.541918	0.948440
H48	H	1.123864	-0.448100	0.345817
H49	H	1.671932	-0.619558	1.101891
F50	F	1.341917	-0.910777	0.567701
F51	F	0.934231	-0.372486	0.653374
F52	F	1.399114	-1.112730	0.362154
F53	F	1.577127	-0.316935	0.910441
H54	H	1.366889	-1.102159	0.573311
F55	F	1.395767	-0.366841	0.908542
H56	H	1.667560	-1.100871	0.623400
H57	H	0.941740	-0.448254	0.345355
F58	F	0.932925	-0.553933	0.704793
F59	F	1.132389	-0.555448	0.704669
H60	H	1.124909	-0.686433	0.535432
H61	H	1.705227	-0.479663	1.100036
H62	H	1.666463	-0.624140	0.919290
F63	F	0.933768	-0.702462	0.560710
H64	H	1.124930	-0.399115	0.646847
F65	F	0.930866	-0.321278	0.452650
H66	H	1.468585	-1.103504	0.674731
F67	F	1.341406	-0.567943	0.910753
F68	F	1.727434	-0.469439	0.908373
H69	H	1.468983	-0.920811	0.675654
H70	H	0.940749	-0.650823	0.402333
F71	F	1.394155	-0.367914	1.108650
F72	F	1.726113	-0.911583	0.465613
H73	H	1.468990	-0.675558	0.918818
F74	F	1.132037	-0.320277	0.453148
F75	F	1.342506	-0.568538	1.111937
H76	H	1.706772	-1.101938	0.484511
H77	H	1.123355	-0.645458	0.397670
F78	F	1.675968	-0.909552	0.646943
H79	H	1.558238	-0.336324	1.100805
F80	F	1.393784	-0.911710	0.369066
H81	H	1.556760	-0.919112	0.334889
H82	H	1.563628	-1.101353	0.337434
H83	H	1.469234	-0.676094	1.100944
