data_functionalizedCrystal
_audit_creation_method	'MofGen! by Chris Wilmer'
_symmetry_space_group_name_H-M	'P1'
_symmetry_Int_Tables_number	1
_symmetry_cell_setting	triclinic
loop_
_symmetry_equiv_pos_as_xyz
  x,y,z
_cell_length_a	19.121242
_cell_length_b	19.121102
_cell_length_c	19.121063
_cell_angle_alpha	90.126902
_cell_angle_beta	85.049781
_cell_angle_gamma	94.784228
loop_
_atom_site_label
_atom_site_type_symbol
_atom_site_fract_x
_atom_site_fract_y
_atom_site_fract_z
Zn1	Zn	-0.457771	-1.078457	0.345224
Zn2	Zn	0.042229	-0.578457	0.845224
Zn3	Zn	-0.344690	-1.068767	0.457443
Zn4	Zn	0.155310	-0.568767	0.957443
Zn5	Zn	-0.334683	-0.956216	0.334774
Zn6	Zn	0.165317	-0.456216	0.834774
Zn7	Zn	-0.457299	-0.956163	0.457393
Zn8	Zn	0.042701	-0.456163	0.957393
O9	O	-0.398611	-1.014901	0.398709
O10	O	0.101389	-0.514901	0.898709
O11	O	-0.447156	-1.175455	0.364504
O12	O	0.052844	-0.675455	0.864504
O13	O	-0.244723	-1.049804	0.436818
O14	O	0.255277	-0.549804	0.936818
O15	O	-0.347020	-0.976510	0.237880
O16	O	0.152980	-0.476510	0.737880
O17	O	-0.364076	-1.168336	0.446951
O18	O	0.135924	-0.668336	0.946951
O19	O	-0.437453	-1.066320	0.245557
O20	O	0.062547	-0.566320	0.745557
O21	O	-0.237370	-0.967113	0.346693
O22	O	0.262630	-0.467113	0.846693
O23	O	-0.346563	-0.857926	0.346646
O24	O	0.153437	-0.357926	0.846646
O25	O	-0.556002	-0.976419	0.446867
O26	O	-0.056002	-0.476419	0.946867
O27	O	-0.436649	-0.857887	0.436734
O28	O	0.063351	-0.357887	0.936734
O29	O	-0.556349	-1.066268	0.364456
O30	O	-0.056349	-0.566268	0.864456
O31	O	-0.363619	-1.049752	0.555717
O32	O	0.136381	-0.549752	1.055717
O33	O	-0.446352	-0.967022	0.555681
O34	O	0.053648	-0.467022	1.055681
C35	C	-0.390469	-0.832423	0.390551
C36	C	0.109531	-0.332423	0.890551
C37	C	-0.387003	-0.754358	0.387079
C38	C	0.112997	-0.254358	0.887079
C39	C	-0.406036	-1.007350	0.581183
C40	C	0.093964	-0.507350	1.081183
C41	C	-0.409240	-1.004184	0.659251
C42	C	0.090760	-0.504184	1.159251
C43	C	-0.582467	-1.022418	0.406822
C44	C	-0.082467	-0.522418	0.906822
C45	C	-0.660815	-1.025622	0.410279
C46	C	-0.160815	-0.525622	0.910279
C47	C	-1.104133	-1.045937	0.432224
C48	C	-0.604133	-0.545937	0.932224
C49	C	-1.030516	-1.042917	0.428971
C50	C	-0.530516	-0.542917	0.928971
C51	C	-0.989887	-0.998359	0.380418
C52	C	-0.489887	-0.498359	0.880418
C53	C	-1.022879	-0.956813	0.335121
C54	C	-0.522879	-0.456813	0.835121
C55	C	-1.096495	-0.959830	0.338378
C56	C	-0.596495	-0.459830	0.838378
C57	C	-0.767423	-0.987093	0.368239
C58	C	-0.267423	-0.487093	0.868239
C59	C	-0.693802	-0.984081	0.364984
C60	C	-0.193802	-0.484081	0.864984
C61	C	-0.701444	-1.070184	0.458835
C62	C	-0.201444	-0.570184	0.958835
C63	C	-0.775061	-1.073200	0.462085
C64	C	-0.275061	-0.573200	0.962085
C65	C	-0.808047	-1.031652	0.416790
C66	C	-0.308047	-0.531652	0.916790
C67	C	-0.914638	-0.995272	0.377090
C68	C	-0.414638	-0.495272	0.877090
C69	C	-0.883294	-1.034735	0.420122
C70	C	-0.383294	-0.534735	0.920122
C71	C	-0.215470	-1.007455	0.390578
C72	C	0.284530	-0.507455	0.890578
C73	C	-0.137120	-1.004396	0.386929
C74	C	0.362880	-0.504396	0.886929
C75	C	-0.406785	-1.198092	0.406899
C76	C	0.093215	-0.698092	0.906899
C77	C	-0.410269	-1.276157	0.410389
C78	C	0.089731	-0.776157	0.910389
C79	C	-0.432210	-0.717675	0.432416
C80	C	0.067790	-0.217675	0.932416
C81	C	-0.428956	-0.644325	0.429144
C82	C	0.071044	-0.144325	0.929144
C83	C	-0.380492	-0.607659	0.380538
C84	C	0.119508	-0.107659	0.880538
C85	C	-0.335284	-0.644347	0.335196
C86	C	0.164716	-0.144347	0.835196
C87	C	-0.338541	-0.717696	0.338465
C88	C	0.161459	-0.217696	0.838465
C89	C	-0.368317	-0.386194	0.368315
C90	C	0.131683	0.113806	0.868315
C91	C	-0.365062	-0.312840	0.365051
C92	C	0.134938	0.187160	0.865051
C93	C	-0.458736	-0.312823	0.458999
C94	C	0.041264	0.187177	0.958999
C95	C	-0.461986	-0.386173	0.462267
C96	C	0.038014	0.113827	0.962267
C97	C	-0.416780	-0.422854	0.416922
C98	C	0.083220	0.077146	0.916922
C99	C	-0.377164	-0.532683	0.377194
C100	C	0.122836	-0.032683	0.877194
C101	C	-0.420112	-0.497829	0.420263
C102	C	0.079888	0.002171	0.920263
C103	C	-0.391173	-1.022502	0.215523
C104	C	0.108827	-0.522502	0.715523
C105	C	-0.388003	-1.025741	0.137460
C106	C	0.111997	-0.525741	0.637460
C107	C	-0.367708	-1.045806	0.695926
C108	C	0.132292	-0.545806	1.195926
C109	C	-0.370725	-1.042834	0.769279
C110	C	0.129275	-0.542834	1.269279
C111	C	-0.415270	-0.998235	0.805955
C112	C	0.084730	-0.498235	1.305955
C113	C	-0.456806	-0.956611	0.769275
C114	C	0.043194	-0.456611	1.269275
C115	C	-0.453792	-0.959588	0.695924
C116	C	0.046208	-0.459588	1.195924
C117	C	-0.426525	-0.987093	1.027429
C118	C	0.073475	-0.487093	1.527429
C119	C	-0.429534	-0.984118	1.100785
C120	C	0.070466	-0.484118	1.600785
C121	C	-0.343454	-1.070342	1.100784
C122	C	0.156546	-0.570342	1.600784
C123	C	-0.340442	-1.073312	1.027431
C124	C	0.159558	-0.573312	1.527431
C125	C	-0.381980	-1.031691	0.990757
C126	C	0.118020	-0.531691	1.490757
C127	C	-0.418353	-0.995194	0.880933
C128	C	0.081647	-0.495194	1.380933
C129	C	-0.378900	-1.034736	0.915781
C130	C	0.121100	-0.534736	1.415781
H131	H	-1.003661	-1.076736	0.465863
H132	H	-0.503661	-0.576736	0.965863
H133	H	-1.137208	-1.082225	0.471758
H134	H	-0.637208	-0.582225	0.971758
O135	O	-0.477652	-0.604688	0.478042
O136	O	0.022348	-0.104688	0.978042
H137	H	-0.445937	-0.568504	0.510782
H138	H	0.054063	-0.068504	1.010782
H139	H	-0.881550	-0.958994	0.337558
H140	H	-0.381550	-0.458994	0.837558
O141	O	-0.979057	-0.908755	0.282753
O142	O	-0.479057	-0.408755	0.782753
H143	H	-1.014366	-0.880371	0.251807
H144	H	-0.514366	-0.380371	0.751807
H145	H	-0.325601	-0.282989	0.325463
H146	H	0.174399	0.217011	0.825463
H147	H	-0.674579	-1.104010	0.495712
H148	H	-0.174579	-0.604010	0.995712
O149	O	-0.472386	-0.537380	0.472678
O150	O	0.027614	-0.037380	0.972678
H151	H	-0.461831	-0.520530	0.526620
H152	H	0.038169	-0.020530	1.026620
O153	O	-1.132080	-0.915040	0.289512
O154	O	-0.632080	-0.415040	0.789512
H155	H	-1.165302	-0.879370	0.320823
H156	H	-0.665302	-0.379370	0.820823
H157	H	-0.331432	-1.082120	0.666068
H158	H	0.168568	-0.582120	1.166068
H159	H	-0.501449	-0.416021	0.501848
H160	H	-0.001449	0.083979	1.001848
H161	H	-0.660724	-0.947797	0.325441
H162	H	-0.160724	-0.447797	0.825441
H163	H	-0.454620	-0.958880	0.910803
H164	H	0.045380	-0.458880	1.410803
H165	H	-0.471672	-0.747523	0.471999
H166	H	0.028328	-0.247523	0.971999
H167	H	-0.916377	-1.071012	0.459655
H168	H	-0.416377	-0.571012	0.959655
O169	O	-0.289776	-0.757258	0.289566
O170	O	0.210224	-0.257258	0.789566
H171	H	-0.321414	-0.793444	0.256760
H172	H	0.178586	-0.293444	0.756760
H173	H	-0.808137	-1.109484	0.501622
H174	H	-0.308137	-0.609484	1.001622
H175	H	-0.794271	-0.953260	0.331358
H176	H	-0.294271	-0.453260	0.831358
O177	O	-0.507456	-0.273231	0.507915
O178	O	-0.007456	0.226769	1.007915
H179	H	-0.498111	-0.284529	0.563099
H180	H	0.001889	0.215471	1.063099
O181	O	-0.324889	-0.493120	0.324785
O182	O	0.175111	0.006880	0.824785
H183	H	-0.335442	-0.509959	0.270840
H184	H	0.164558	-0.009959	0.770840
O185	O	-0.325927	-1.087721	0.808838
O186	O	0.174073	-0.587721	1.308838
H187	H	-0.294439	-1.119226	0.771011
H188	H	0.205561	-0.619226	1.271011
H189	H	-0.331502	-0.416051	0.331398
H190	H	0.168498	0.083949	0.831398
H191	H	-0.304170	-1.109628	0.997570
H192	H	0.195830	-0.609628	1.497570
H193	H	-0.295827	-0.614488	0.295617
H194	H	0.204173	-0.114488	0.795617
H195	H	-0.309637	-1.104229	1.130651
H196	H	0.190363	-0.604229	1.630651
H197	H	-0.465821	-0.947809	1.130646
H198	H	0.034179	-0.447809	1.630646
H199	H	-0.460346	-0.953203	0.997575
H200	H	0.039654	-0.453203	1.497575
O201	O	-0.504844	-0.908498	0.808827
O202	O	-0.004844	-0.408498	1.308827
H203	H	-0.499955	-0.913411	0.865994
H204	H	0.000045	-0.413411	1.365994
O205	O	-0.498577	-0.914688	0.656361
O206	O	0.001423	-0.414688	1.156361
H207	H	-0.530051	-0.883168	0.694185
H208	H	-0.030051	-0.383168	1.194185
O209	O	-0.330868	-1.082848	0.876224
O210	O	0.169132	-0.582848	1.376224
H211	H	-0.292207	-1.051331	0.839859
H212	H	0.207793	-0.551331	1.339859
