data_functionalizedCrystal
_audit_creation_method	'MofGen! by Chris Wilmer'
_symmetry_space_group_name_H-M	'P1'
_symmetry_Int_Tables_number	1
_symmetry_cell_setting	triclinic
loop_
_symmetry_equiv_pos_as_xyz
  x,y,z
_cell_length_a	12.811438
_cell_length_b	14.044190
_cell_length_c	11.892095
_cell_angle_alpha	94.240074
_cell_angle_beta	80.666371
_cell_angle_gamma	88.596362
loop_
_atom_site_label
_atom_site_type_symbol
_atom_site_fract_x
_atom_site_fract_y
_atom_site_fract_z
O1	O	1.420305	0.112338	-0.239607
O2	O	1.920305	0.612338	0.260393
O3	O	1.113968	0.128241	-0.208209
O4	O	1.613968	0.628241	0.291791
O5	O	1.262533	-0.017681	-0.223414
O6	O	1.762533	0.482319	0.276586
O7	O	1.271740	0.258261	-0.224402
O8	O	1.771740	0.758261	0.275598
O9	O	1.250144	-0.005533	-0.034138
O10	O	1.750144	0.494467	0.465862
O11	O	1.101579	0.140389	-0.018934
O12	O	1.601579	0.640389	0.481066
O13	O	1.407916	0.124486	-0.050331
O14	O	1.907916	0.624486	0.449669
Zn15	Zn	1.252781	0.134367	-0.004581
Zn16	Zn	1.752781	0.634367	0.495419
Zn17	Zn	1.269103	0.118361	-0.253959
Zn18	Zn	1.769103	0.618361	0.246041
O19	O	1.259351	0.270409	-0.035127
O20	O	1.759351	0.770409	0.464873
C21	C	1.068332	0.133796	-0.109528
C22	C	1.568332	0.633796	0.390472
C23	C	0.950808	0.132239	-0.097482
C24	C	1.450808	0.632239	0.402518
C25	C	0.778411	0.136666	0.022665
C26	C	1.278411	0.636666	0.522665
C27	C	0.888835	0.138130	0.011351
C28	C	1.388835	0.638130	0.511351
C29	C	0.902350	0.124886	-0.195008
C30	C	1.402350	0.624886	0.304992
C31	C	0.791926	0.123422	-0.183695
C32	C	1.291926	0.623422	0.316305
C33	C	0.729960	0.129311	-0.074855
C34	C	1.229960	0.629311	0.425145
C35	C	0.619535	0.127840	-0.063542
C36	C	1.119535	0.627840	0.436458
C37	C	0.633052	0.114603	-0.269900
C38	C	1.133052	0.614603	0.230100
C39	C	0.743476	0.116067	-0.281214
C40	C	1.243476	0.616067	0.218786
C41	C	1.252312	-0.046911	-0.128360
C42	C	1.752312	0.453089	0.371640
C43	C	1.240301	-0.152104	-0.127119
C44	C	1.740301	0.347896	0.372881
C45	C	1.303527	-0.402562	-0.133644
C46	C	1.803527	0.097438	0.366356
C47	C	1.218363	-0.344706	-0.124907
C48	C	1.718363	0.155294	0.375093
C49	C	1.230572	-0.237533	-0.126138
C50	C	1.730572	0.262467	0.373862
C51	C	1.291319	-0.509745	-0.132413
C52	C	1.791319	-0.009745	0.367587
C53	C	1.453552	0.118931	-0.149014
C54	C	1.953552	0.618931	0.350986
C55	C	1.571077	0.120488	-0.161068
C56	C	2.071077	0.620488	0.338932
C57	C	1.269572	0.299638	-0.130183
C58	C	1.769572	0.799638	0.369817
C59	C	1.281584	0.404831	-0.131431
C60	C	1.781584	0.904831	0.368569
N61	N	1.241648	0.145289	0.165613
N62	N	1.741648	0.645289	0.665613
N63	N	1.280243	0.107431	-0.424154
N64	N	1.780243	0.607431	0.075846
C65	C	1.357701	0.031370	0.390383
C66	C	1.857701	0.531370	0.890383
C67	C	1.349928	0.039012	0.509520
C68	C	1.849928	0.539012	1.009520
C69	C	1.218325	0.168210	0.523027
C70	C	1.718325	0.668210	1.023027
C71	C	1.226098	0.160568	0.403890
C72	C	1.726098	0.660568	0.903890
C73	C	1.295789	0.092147	0.337572
C74	C	1.795789	0.592147	0.837572
C75	C	1.303567	0.084510	0.218432
C76	C	1.803567	0.584510	0.718432
C77	C	1.171959	0.213703	0.231941
C78	C	1.671959	0.713703	0.731941
C79	C	1.164186	0.221344	0.351079
C80	C	1.664186	0.721344	0.851079
H81	H	0.593592	0.108618	-0.349308
H82	H	1.093592	0.608618	0.150692
H83	H	1.161575	0.223910	0.577040
H84	H	1.661575	0.723910	1.077040
Cl85	Cl	1.076574	0.307353	0.434458
Cl86	Cl	1.576574	0.807353	0.934458
H87	H	1.121549	0.263194	0.188929
H88	H	1.621549	0.763194	0.688929
Cl89	Cl	1.427762	-0.037398	0.575909
Cl90	Cl	1.927762	0.462602	1.075909
H91	H	0.727957	0.141467	0.111287
H92	H	1.227957	0.641467	0.611287
Cl93	Cl	1.091635	-0.392497	-0.111920
Cl94	Cl	1.591635	0.107503	0.388080
Cl95	Cl	1.430245	-0.354768	-0.146614
Cl96	Cl	1.930245	0.145232	0.353386
Cl97	Cl	0.541636	0.135238	0.073283
Cl98	Cl	1.041636	0.635238	0.573283
Cl99	Cl	1.391181	-0.001501	0.135062
Cl100	Cl	1.891181	0.498499	0.635062
Cl101	Cl	0.980267	0.117483	-0.331824
Cl102	Cl	1.480267	0.617483	0.168176
H103	H	1.414455	-0.024334	0.336385
H104	H	1.914455	0.475666	0.836385
H105	H	0.793943	0.111277	-0.369828
H106	H	1.293943	0.611277	0.130172
Cl107	Cl	0.949740	0.147380	0.133952
Cl108	Cl	1.449740	0.647380	0.633952
