data_functionalizedCrystal
_audit_creation_method	'MofGen! by Chris Wilmer'
_symmetry_space_group_name_H-M	'P1'
_symmetry_Int_Tables_number	1
_symmetry_cell_setting	triclinic
loop_
_symmetry_equiv_pos_as_xyz
  x,y,z
_cell_length_a	18.215407
_cell_length_b	16.120484
_cell_length_c	18.215399
_cell_angle_alpha	92.867230
_cell_angle_beta	89.983176
_cell_angle_gamma	92.926015
loop_
_atom_site_label
_atom_site_type_symbol
_atom_site_fract_x
_atom_site_fract_y
_atom_site_fract_z
Zn1	Zn	1.110191	-0.331886	-0.430959
Zn2	Zn	1.443524	0.001447	-0.097626
Zn3	Zn	1.776858	0.334781	0.235708
Zn4	Zn	1.103863	-0.471313	-0.314128
Zn5	Zn	1.437197	-0.137980	0.019205
Zn6	Zn	1.770530	0.195354	0.352538
Zn7	Zn	0.987128	-0.331919	-0.307908
Zn8	Zn	1.320462	0.001414	0.025426
Zn9	Zn	1.653795	0.334748	0.358759
Zn10	Zn	0.980849	-0.471261	-0.437151
Zn11	Zn	1.314182	-0.137927	-0.103818
Zn12	Zn	1.647516	0.195406	0.229516
O13	O	1.045508	-0.401595	-0.372536
O14	O	1.378841	-0.068261	-0.039203
O15	O	1.712175	0.265072	0.294130
O16	O	1.212335	-0.350389	-0.415473
O17	O	1.545669	-0.017056	-0.082140
O18	O	1.879002	0.316277	0.251194
O19	O	1.088358	-0.452858	-0.210320
O20	O	1.421691	-0.119525	0.123013
O21	O	1.755025	0.213809	0.456346
O22	O	1.008729	-0.215249	-0.319036
O23	O	1.342062	0.118084	0.014297
O24	O	1.675396	0.451418	0.347631
O25	O	1.207687	-0.452826	-0.329638
O26	O	1.541020	-0.119492	0.003695
O27	O	1.874353	0.213841	0.337029
O28	O	1.099142	-0.215225	-0.409441
O29	O	1.432476	0.118109	-0.076108
O30	O	1.765809	0.451442	0.257225
O31	O	1.002593	-0.350446	-0.205750
O32	O	1.335927	-0.017112	0.127583
O33	O	1.669260	0.316221	0.460916
O34	O	0.883312	-0.350395	-0.325040
O35	O	1.216645	-0.017062	0.008293
O36	O	1.549978	0.316272	0.341626
O37	O	0.998027	-0.452737	-0.539312
O38	O	1.331360	-0.119403	-0.205979
O39	O	1.664694	0.213930	0.127354
O40	O	0.878698	-0.452769	-0.419995
O41	O	1.212032	-0.119435	-0.086661
O42	O	1.545365	0.213898	0.246672
O43	O	1.093054	-0.350339	-0.534763
O44	O	1.426387	-0.017005	-0.201430
O45	O	1.759720	0.316328	0.131904
O46	O	1.082269	-0.587972	-0.335642
O47	O	1.415603	-0.254638	-0.002309
O48	O	1.748936	0.078695	0.331025
O49	O	0.991891	-0.587933	-0.426026
O50	O	1.325225	-0.254600	-0.092693
O51	O	1.658558	0.078733	0.240640
C52	C	0.854302	-0.401580	-0.372515
C53	C	1.187636	-0.068247	-0.039181
C54	C	1.520969	0.265086	0.294152
C55	C	0.772503	-0.401594	-0.372524
C56	C	1.105836	-0.068261	-0.039190
C57	C	1.439169	0.265072	0.294143
C58	C	0.581922	-0.454984	-0.421911
C59	C	0.915256	-0.121651	-0.088578
C60	C	1.248589	0.211682	0.244755
C61	C	0.505063	-0.454987	-0.421920
C62	C	0.838397	-0.121654	-0.088587
C63	C	1.171730	0.211680	0.244746
C64	C	0.509845	-0.348220	-0.323179
C65	C	0.843178	-0.014887	0.010155
C66	C	1.176512	0.318446	0.343488
C67	C	0.586703	-0.348214	-0.323173
C68	C	0.920036	-0.014881	0.010160
C69	C	1.253369	0.318453	0.343493
C70	C	0.622739	-0.401601	-0.372539
C71	C	0.956072	-0.068267	-0.039205
C72	C	1.289406	0.265066	0.294128
C73	C	0.469023	-0.401610	-0.372553
C74	C	0.802356	-0.068276	-0.039220
C75	C	1.135689	0.265057	0.294113
C76	C	0.385689	-0.401612	-0.372563
C77	C	0.719022	-0.068279	-0.039230
C78	C	1.052355	0.265055	0.294104
C79	C	0.706078	-0.401597	-0.372530
C80	C	1.039411	-0.068264	-0.039197
C81	C	1.372745	0.265069	0.294136
C82	C	1.035732	-0.618203	-0.382197
C83	C	1.369066	-0.284869	-0.048864
C84	C	1.702399	0.048464	0.284469
C85	C	1.031617	-0.710869	-0.386355
C86	C	1.364951	-0.377535	-0.053021
C87	C	1.698284	-0.044202	0.280312
C88	C	1.024109	-0.880530	-0.393960
C89	C	1.357443	-0.547197	-0.060627
C90	C	1.690776	-0.213863	0.272706
C91	C	1.067038	-0.921819	-0.351125
C92	C	1.400372	-0.588485	-0.017791
C93	C	1.733705	-0.255152	0.315542
C94	C	1.062861	-1.016224	-0.355356
C95	C	1.396194	-0.682891	-0.022023
C96	C	1.729528	-0.349558	0.311310
C97	C	1.028286	-0.786116	-0.389729
C98	C	1.361619	-0.452783	-0.056396
C99	C	1.694952	-0.119449	0.276937
C100	C	1.237460	-0.401610	-0.372559
C101	C	1.570793	-0.068276	-0.039225
C102	C	1.904127	0.265057	0.294108
C103	C	1.319259	-0.401616	-0.372568
C104	C	1.652592	-0.068283	-0.039235
C105	C	1.985925	0.265051	0.294098
C106	C	1.045546	-0.401528	-0.564487
C107	C	1.378879	-0.068195	-0.231153
C108	C	1.712212	0.265139	0.102180
C109	C	1.045562	-0.401500	-0.646284
C110	C	1.378895	-0.068166	-0.312951
C111	C	1.712228	0.265167	0.020382
C112	C	1.055342	-0.184141	-0.362854
C113	C	1.388675	0.149192	-0.029521
C114	C	1.722009	0.482526	0.303813
C115	C	1.059533	-0.091475	-0.358728
C116	C	1.392866	0.241858	-0.025395
C117	C	1.726199	0.575192	0.307939
C118	C	1.000946	-0.348138	-0.832098
C119	C	1.334279	-0.014804	-0.498764
C120	C	1.667612	0.318529	-0.165431
C121	C	1.000959	-0.348121	-0.908956
C122	C	1.334292	-0.014788	-0.575623
C123	C	1.667626	0.318546	-0.242289
C124	C	1.090270	-0.454762	-0.913704
C125	C	1.423604	-0.121429	-0.580371
C126	C	1.756937	0.211904	-0.247037
C127	C	1.090252	-0.454783	-0.836848
C128	C	1.423586	-0.121449	-0.503514
C129	C	1.756919	0.211884	-0.170181
C130	C	1.045591	-0.401466	-0.796046
C131	C	1.378925	-0.068132	-0.462713
C132	C	1.712258	0.265201	-0.129380
C133	C	1.045623	-0.401428	-0.949761
C134	C	1.378956	-0.068095	-0.616427
C135	C	1.712289	0.265238	-0.283094
C136	C	1.045638	-0.401411	-1.033094
C137	C	1.378971	-0.068077	-0.699760
C138	C	1.712304	0.265256	-0.366427
C139	C	1.045575	-0.401484	-0.712708
C140	C	1.378908	-0.068151	-0.379375
C141	C	1.712242	0.265182	-0.046041
C142	C	1.045515	-0.401601	-0.181331
C143	C	1.378849	-0.068268	0.152003
C144	C	1.712182	0.265066	0.485336
C145	C	1.045652	-0.401394	-0.099523
C146	C	1.378986	-0.068061	0.233811
C147	C	1.712319	0.265272	0.567144
H148	H	0.480495	-0.304756	-0.282986
H149	H	0.813828	0.028577	0.050347
H150	H	1.147161	0.361911	0.383681
H151	H	0.611261	-0.498453	-0.462109
H152	H	0.944594	-0.165120	-0.128776
H153	H	1.277927	0.168214	0.204557
C154	C	1.138649	-0.512654	-0.797566
C155	C	1.471983	-0.179320	-0.464233
C156	C	1.805316	0.154013	-0.130899
C157	C	1.129056	-0.501276	-0.721527
C158	C	1.462390	-0.167943	-0.388193
C159	C	1.795723	0.165390	-0.054860
C160	C	1.173615	-0.554580	-0.685318
C161	C	1.506948	-0.221247	-0.351984
C162	C	1.840282	0.112087	-0.018651
H163	H	1.188679	-0.500506	-0.809533
H164	H	1.522013	-0.167173	-0.476200
H165	H	1.855346	0.166160	-0.142867
H166	H	1.125341	-0.568684	-0.812610
H167	H	1.458675	-0.235351	-0.479276
H168	H	1.792008	0.097983	-0.145943
H169	H	1.142369	-0.445259	-0.706489
H170	H	1.475702	-0.111926	-0.373156
H171	H	1.809036	0.221408	-0.039822
H172	H	1.079036	-0.513430	-0.709538
H173	H	1.412370	-0.180096	-0.376205
H174	H	1.745703	0.153237	-0.042871
H175	H	1.160307	-0.610610	-0.700361
H176	H	1.493640	-0.277277	-0.367028
H177	H	1.826973	0.056056	-0.033694
H178	H	1.223642	-0.542428	-0.697291
H179	H	1.556975	-0.209095	-0.363957
H180	H	1.890309	0.124238	-0.030624
H181	H	1.167107	-0.546873	-0.633722
H182	H	1.500440	-0.213540	-0.300389
H183	H	1.833774	0.119793	0.032945
H184	H	1.126633	-0.498170	-0.946934
H185	H	1.459966	-0.164837	-0.613600
H186	H	1.793299	0.168496	-0.280267
H187	H	0.471834	-0.498456	-0.462125
H188	H	0.805167	-0.165122	-0.128792
H189	H	1.138500	0.168211	0.204541
H190	H	0.619937	-0.304738	-0.282968
H191	H	0.953270	0.028596	0.050365
H192	H	1.286604	0.361929	0.383699
H193	H	1.106928	-0.886266	-0.311273
H194	H	1.440262	-0.552933	0.022060
H195	H	1.773595	-0.219599	0.355393
H196	H	0.984221	-0.916080	-0.433808
H197	H	1.317555	-0.582747	-0.100474
H198	H	1.650888	-0.249414	0.232859
C199	C	0.952371	-0.290229	-0.787930
C200	C	1.285704	0.043104	-0.454597
C201	C	1.619038	0.376437	-0.121263
C202	C	0.913259	-0.243542	-0.835958
C203	C	1.246593	0.089792	-0.502624
C204	C	1.579926	0.423125	-0.169291
C205	C	0.868494	-0.190198	-0.795300
C206	C	1.201827	0.143136	-0.461967
C207	C	1.535161	0.476469	-0.128633
H208	H	0.982075	-0.253836	-0.756328
H209	H	1.315408	0.079497	-0.422995
H210	H	1.648741	0.412830	-0.089661
H211	H	0.918820	-0.322113	-0.759380
H212	H	1.252153	0.011220	-0.426047
H213	H	1.585486	0.344554	-0.092714
H214	H	0.946806	-0.211660	-0.864495
H215	H	1.280140	0.121673	-0.531162
H216	H	1.613473	0.455006	-0.197828
H217	H	0.883542	-0.279913	-0.867560
H218	H	1.216875	0.053421	-0.534227
H219	H	1.550208	0.386754	-0.200894
H220	H	0.834943	-0.222081	-0.766750
H221	H	1.168276	0.111252	-0.433417
H222	H	1.501610	0.444586	-0.100084
H223	H	0.898203	-0.153810	-0.763700
H224	H	1.231537	0.179523	-0.430366
H225	H	1.564870	0.512857	-0.097033
H226	H	0.841947	-0.158519	-0.827881
H227	H	1.175280	0.174814	-0.494547
H228	H	1.508613	0.508148	-0.161214
C229	C	0.952385	-0.290361	-0.948139
C230	C	1.285718	0.042972	-0.614806
C231	C	1.619052	0.376306	-0.281473
C232	C	0.903076	-0.337556	-0.994337
C233	C	1.236409	-0.004223	-0.661004
C234	C	1.569743	0.329110	-0.327671
C235	C	0.858306	-0.284377	-1.030436
C236	C	1.191640	0.048956	-0.697102
C237	C	1.524973	0.382289	-0.363769
H238	H	0.982095	-0.254011	-0.976571
H239	H	1.315428	0.079323	-0.643238
H240	H	1.648761	0.412656	-0.309905
H241	H	0.925742	-0.258631	-0.912851
H242	H	1.259075	0.074703	-0.579518
H243	H	1.592408	0.408036	-0.246185
H244	H	0.929717	-0.369272	-1.029621
H245	H	1.263050	-0.035939	-0.696288
H246	H	1.596383	0.297394	-0.362954
H247	H	0.873350	-0.373905	-0.965923
H248	H	1.206683	-0.040571	-0.632590
H249	H	1.540017	0.292762	-0.299257
H250	H	0.831663	-0.252647	-0.995147
H251	H	1.164997	0.080686	-0.661814
H252	H	1.498330	0.414020	-0.328481
H253	H	0.888022	-0.248030	-1.058864
H254	H	1.221355	0.085304	-0.725530
H255	H	1.554689	0.418637	-0.392197
H256	H	0.824841	-0.316392	-1.061780
H257	H	1.158174	0.016942	-0.728446
H258	H	1.491507	0.350275	-0.395113
