data_functionalizedCrystal
_audit_creation_method	'MofGen! by Chris Wilmer'
_symmetry_space_group_name_H-M	'P1'
_symmetry_Int_Tables_number	1
_symmetry_cell_setting	triclinic
loop_
_symmetry_equiv_pos_as_xyz
  x,y,z
_cell_length_a	16.625548
_cell_length_b	19.805405
_cell_length_c	19.805399
_cell_angle_alpha	90.029301
_cell_angle_beta	89.981391
_cell_angle_gamma	89.972522
loop_
_atom_site_label
_atom_site_type_symbol
_atom_site_fract_x
_atom_site_fract_y
_atom_site_fract_z
Zn1	Zn	1.232643	0.269460	-0.382694
Zn2	Zn	1.232541	0.382648	-0.269502
Zn3	Zn	1.097809	0.269480	-0.269521
Zn4	Zn	1.097766	0.382614	-0.382651
O5	O	1.165190	0.326051	-0.326092
O6	O	1.345462	0.284480	-0.367689
O7	O	1.214645	0.367659	-0.174788
O8	O	1.115756	0.174761	-0.284559
O9	O	1.345387	0.367639	-0.284528
O10	O	1.214817	0.174746	-0.367707
O11	O	1.115657	0.284515	-0.174802
O12	O	0.984971	0.284482	-0.284517
O13	O	1.115682	0.367581	-0.477373
O14	O	0.984939	0.367601	-0.367634
O15	O	1.214775	0.284447	-0.477405
O16	O	1.214602	0.477360	-0.284486
O17	O	1.115583	0.477335	-0.367616
C18	C	0.955699	0.326041	-0.326073
C19	C	0.866078	0.326053	-0.326081
C20	C	1.165099	0.501907	-0.326059
C21	C	1.165134	0.577139	-0.326068
C22	C	1.165235	0.326008	-0.502635
C23	C	1.165254	0.325990	-0.577867
C24	C	0.537902	0.326057	-0.326110
C25	C	0.629211	0.326054	-0.326100
C26	C	0.701987	0.326056	-0.326095
C27	C	0.793301	0.326052	-0.326086
C28	C	1.375499	0.326061	-0.326111
C29	C	1.465120	0.326065	-0.326120
C30	C	1.165303	0.149508	-0.326140
C31	C	1.165351	0.074276	-0.326160
C32	C	1.216743	0.612473	-0.282828
C33	C	1.216778	0.683162	-0.282843
C34	C	1.165198	0.718514	-0.326095
C35	C	1.113586	0.683174	-0.369340
C36	C	1.113557	0.612487	-0.369328
C37	C	1.113705	0.968248	-0.369390
C38	C	1.113737	1.038940	-0.369398
C39	C	1.216926	1.038922	-0.282905
C40	C	1.216896	0.968235	-0.282893
C41	C	1.165288	0.932901	-0.326140
C42	C	1.165253	0.856253	-0.326124
C43	C	1.165229	0.795161	-0.326108
C44	C	1.216853	0.282700	-0.613229
C45	C	1.216862	0.282680	-0.683917
C46	C	1.165274	0.325954	-0.719243
C47	C	1.113669	0.369246	-0.683876
C48	C	1.113658	0.369262	-0.613189
C49	C	1.113715	0.369183	-0.968949
C50	C	1.113732	0.369166	-1.039642
C51	C	1.216919	0.282601	-1.039678
C52	C	1.216907	0.282617	-0.968991
C53	C	1.165300	0.325906	-0.933630
C54	C	1.165290	0.325926	-0.856982
C55	C	1.165287	0.325938	-0.795890
C56	C	1.165191	0.326044	-0.150236
C57	C	1.165328	0.325872	-0.075005
H58	H	1.258742	0.583694	-0.247604
Cl59	Cl	1.048837	0.423605	-0.924505
Cl60	Cl	1.281663	0.727579	-0.228483
Cl61	Cl	1.048747	0.727618	-0.423719
H62	H	1.258895	0.939453	-0.247670
H63	H	1.258951	1.067699	-0.247693
Cl64	Cl	1.048874	0.423571	-1.084050
Cl65	Cl	1.048785	0.423684	-0.568734
H66	H	1.258938	0.247351	-1.068477
H67	H	1.071736	1.067722	-0.404624
Cl68	Cl	1.048825	0.923838	-0.423757
Cl69	Cl	1.048676	0.568066	-0.423692
H70	H	1.258881	0.247430	-0.712705
H71	H	1.258865	0.247463	-0.584472
H72	H	1.258918	0.247381	-0.940232
Cl73	Cl	1.048813	0.423646	-0.728285
