data_functionalizedCrystal
_audit_creation_method	'MofGen! by Chris Wilmer'
_symmetry_space_group_name_H-M	'P1'
_symmetry_Int_Tables_number	1
_symmetry_cell_setting	triclinic
loop_
_symmetry_equiv_pos_as_xyz
  x,y,z
_cell_length_a	15.995292
_cell_length_b	19.188930
_cell_length_c	14.472311
_cell_angle_alpha	90.014772
_cell_angle_beta	90.005304
_cell_angle_gamma	83.306699
loop_
_atom_site_label
_atom_site_type_symbol
_atom_site_fract_x
_atom_site_fract_y
_atom_site_fract_z
O1	O	1.110686	0.089808	0.076877
O2	O	0.866863	0.100964	0.076874
O3	O	0.995811	-0.006253	0.076857
O4	O	0.981738	0.197025	0.076893
O5	O	0.995802	-0.006267	-0.076825
O6	O	0.866854	0.100950	-0.076808
O7	O	1.110677	0.089794	-0.076805
Cu8	Cu	0.988765	0.095371	-0.090839
Cu9	Cu	0.988775	0.095387	0.090908
O10	O	0.981729	0.197011	-0.076789
C11	C	0.835665	0.100503	0.000033
C12	C	0.742717	0.099142	0.000031
C13	C	0.404997	0.094138	0.000041
C14	C	0.428026	0.171524	0.000397
C15	C	0.524696	0.172995	0.000047
C16	C	0.572543	0.096621	0.000036
C17	C	0.543578	0.057923	-0.087727
C18	C	0.446791	0.056992	-0.087797
C19	C	0.446952	0.055427	0.086968
C20	C	0.543434	0.058295	0.088124
C21	C	0.667234	0.098020	0.000031
C22	C	0.310306	0.092736	0.000040
C23	C	0.995351	-0.032272	0.000014
C24	C	0.993983	-0.109780	0.000006
C25	C	1.069645	-0.154524	0.000002
C26	C	1.068360	-0.227351	0.000017
C27	C	0.991408	-0.255430	0.000017
C28	C	0.915736	-0.210676	0.000026
C29	C	0.917023	-0.137851	0.000020
N30	N	0.932584	-0.363579	-0.052285
N31	N	0.931367	-0.432761	-0.052281
C32	C	0.987524	-0.474848	0.000035
N33	N	1.044959	-0.445142	0.052337
N34	N	1.046179	-0.375954	0.052330
C35	C	0.990003	-0.334396	0.000023
C36	C	1.061798	-0.598560	0.000049
C37	C	1.060510	-0.671388	0.000070
C38	C	0.907884	-0.654711	0.000069
C39	C	0.909174	-0.581885	0.000058
C40	C	0.986134	-0.553814	0.000044
C41	C	1.141875	0.090255	0.000038
C42	C	1.234823	0.091616	0.000046
C43	C	0.982190	0.223030	0.000057
C44	C	0.983558	0.300538	0.000071
N45	N	0.988764	0.095359	-0.218670
C46	C	0.988776	0.095382	-0.592761
C47	C	1.057996	0.038204	-0.553575
C48	C	1.057817	0.037993	-0.446488
C49	C	0.988771	0.095371	-0.407170
C50	C	0.901469	0.079475	-0.446065
C51	C	0.901879	0.079071	-0.553187
C52	C	1.006070	0.168624	-0.553253
C53	C	1.008055	0.168133	-0.446124
C54	C	0.988762	0.095366	-0.302282
C55	C	0.988779	0.095385	-0.697649
N56	N	0.988783	0.095393	0.218739
H57	H	0.543615	0.203296	0.062962
Br58	Br	0.811300	-0.248781	0.000037
Br59	Br	0.806484	-0.521156	0.000062
Br60	Br	0.803447	-0.692811	0.000078
H61	H	1.122720	0.047456	-0.420189
H62	H	0.433167	-0.001534	0.087553
Br63	Br	0.576838	0.102692	-0.196578
Br64	Br	0.814330	-0.077122	0.000028
H65	H	1.047137	-0.015842	-0.580516
H66	H	0.419872	0.083781	-0.153394
H67	H	1.129975	-0.263789	0.000018
H68	H	0.561904	0.086470	0.153051
H69	H	1.124463	-0.575704	0.000042
H70	H	0.418540	0.079621	0.153487
H71	H	1.132311	-0.131674	-0.000006
H72	H	0.398895	0.201181	-0.062178
Br73	Br	0.381189	0.221254	0.105303
H74	H	1.123118	0.047514	-0.579327
Br75	Br	1.039435	-0.052598	-0.403798
H76	H	0.886596	0.025656	-0.578192
Br77	Br	0.598719	-0.034622	0.096946
Br78	Br	0.813474	0.145841	-0.596399
H79	H	1.122126	-0.707819	0.000072
Br80	Br	0.813563	0.147038	-0.403624
Br81	Br	0.875355	-0.008539	-0.401385
Br82	Br	0.555186	0.223788	-0.104977
H83	H	1.068354	0.183906	-0.580258
H84	H	1.072276	0.180196	-0.420702
Br85	Br	0.422879	-0.037573	-0.094513
H86	H	0.960885	0.212674	-0.419357
Br87	Br	0.597023	-0.035754	-0.093178
H88	H	0.955590	0.211175	-0.578598
