data_functionalizedCrystal
_audit_creation_method	'MofGen! by Chris Wilmer'
_symmetry_space_group_name_H-M	'P1'
_symmetry_Int_Tables_number	1
_symmetry_cell_setting	triclinic
loop_
_symmetry_equiv_pos_as_xyz
  x,y,z
_cell_length_a	13.897449
_cell_length_b	18.050589
_cell_length_c	13.897441
_cell_angle_alpha	89.972127
_cell_angle_beta	89.979267
_cell_angle_gamma	90.029500
loop_
_atom_site_label
_atom_site_type_symbol
_atom_site_fract_x
_atom_site_fract_y
_atom_site_fract_z
Zn1	Zn	1.474632	-0.295610	-0.545399
Zn2	Zn	1.974632	0.204390	-0.045399
Zn3	Zn	1.474496	-0.419815	-0.384108
Zn4	Zn	1.974496	0.080185	0.115892
Zn5	Zn	1.313321	-0.295646	-0.384118
Zn6	Zn	1.813321	0.204354	0.115882
Zn7	Zn	1.313273	-0.419766	-0.545361
Zn8	Zn	1.813273	0.080234	-0.045361
O9	O	1.393931	-0.357709	-0.464747
O10	O	1.893931	0.142291	0.035253
O11	O	1.609596	-0.312092	-0.524016
O12	O	2.109596	0.187908	-0.024016
O13	O	1.453079	-0.403379	-0.249128
O14	O	1.953079	0.096621	0.250872
O15	O	1.334796	-0.191716	-0.405532
O16	O	1.834796	0.308284	0.094468
O17	O	1.609496	-0.403344	-0.405516
O18	O	2.109496	0.096656	0.094484
O19	O	1.453311	-0.191690	-0.524025
O20	O	1.953311	0.308310	-0.024025
O21	O	1.334665	-0.312152	-0.249135
O22	O	1.834665	0.187848	0.250865
O23	O	1.178333	-0.312105	-0.405495
O24	O	1.678333	0.187895	0.094505
O25	O	1.334715	-0.403261	-0.680348
O26	O	1.834715	0.096739	-0.180348
O27	O	1.178298	-0.403295	-0.523960
O28	O	1.678298	0.096705	-0.023960
O29	O	1.453264	-0.312045	-0.680376
O30	O	1.953264	0.187955	-0.180376
O31	O	1.453033	-0.523733	-0.405479
O32	O	1.953033	-0.023733	0.094521
O33	O	1.334583	-0.523697	-0.523951
O34	O	1.834583	-0.023697	-0.023951
C35	C	1.143316	-0.357699	-0.464725
C36	C	1.643316	0.142301	0.035275
C37	C	1.036102	-0.357713	-0.464738
C38	C	1.536102	0.142287	0.035262
C39	C	0.839807	-0.357716	-0.464763
C40	C	1.339807	0.142284	0.035237
C41	C	0.949040	-0.357712	-0.464747
C42	C	1.449040	0.142288	0.035253
C43	C	1.393814	-0.550661	-0.464731
C44	C	1.893814	-0.050661	0.035269
C45	C	1.393853	-0.633207	-0.464756
C46	C	1.893853	-0.133207	0.035244
C47	C	1.329503	-0.832665	-0.529158
C48	C	1.829503	-0.332665	-0.029158
C49	C	1.305986	-0.882111	-0.441140
C50	C	1.805986	-0.382111	0.058860
C51	C	1.393947	-0.784337	-0.464769
C52	C	1.893947	-0.284337	0.035231
C53	C	1.417512	-0.881973	-0.552797
C54	C	1.917512	-0.381973	-0.052797
C55	C	1.394037	-0.930323	-0.464789
C56	C	1.894037	-0.430323	0.035211
C57	C	1.370384	-0.832696	-0.376703
C58	C	1.870384	-0.332696	0.123297
C59	C	1.481951	-0.832554	-0.488420
C60	C	1.981951	-0.332554	0.011580
C61	C	1.458467	-0.881977	-0.400341
C62	C	1.958467	-0.381977	0.099659
C63	C	1.393893	-0.700239	-0.464758
C64	C	1.893893	-0.200239	0.035242
C65	C	1.394092	-1.014419	-0.464789
C66	C	1.894092	-0.514419	0.035211
C67	C	1.645524	-0.357720	-0.464769
C68	C	2.145524	0.142280	0.035231
C69	C	1.752738	-0.357724	-0.464779
C70	C	2.252738	0.142276	0.035221
C71	C	1.393999	-0.357644	-0.716340
C72	C	1.893999	0.142356	-0.216340
C73	C	1.394028	-0.357616	-0.823554
C74	C	1.894028	0.142384	-0.323554
C75	C	1.394074	-0.164004	-0.464784
C76	C	1.894074	0.335996	0.035216
C77	C	1.394135	-0.081458	-0.464800
C78	C	1.894135	0.418542	0.035200
C79	C	1.394055	-0.357565	-1.019849
C80	C	1.894055	0.142435	-0.519849
C81	C	1.394037	-0.357595	-0.910616
C82	C	1.894037	0.142405	-0.410616
C83	C	1.393918	-0.357721	-0.214132
C84	C	1.893918	0.142279	0.285868
C85	C	1.394076	-0.357540	-0.106919
C86	C	1.894076	0.142460	0.393081
H87	H	1.274924	-0.811012	-0.583534
H88	H	1.774924	-0.311012	-0.083534
C89	C	1.443914	-0.910734	-0.652133
C90	C	1.943914	-0.410734	-0.152133
C91	C	1.376170	-0.885732	-0.719236
C92	C	1.876170	-0.385732	-0.219236
C93	C	1.400460	-0.912201	-0.810756
C94	C	1.900460	-0.412201	-0.310756
H95	H	1.444316	-0.963354	-0.651417
H96	H	1.944316	-0.463354	-0.151417
H97	H	1.505942	-0.893015	-0.669421
H98	H	2.005942	-0.393015	-0.169421
H99	H	1.314159	-0.903455	-0.701952
H100	H	1.814159	-0.403455	-0.201952
H101	H	1.375758	-0.833115	-0.719982
H102	H	1.875758	-0.333115	-0.219982
H103	H	1.462487	-0.894481	-0.828044
H104	H	1.962487	-0.394481	-0.328044
H105	H	1.400862	-0.964820	-0.810030
H106	H	1.900862	-0.464820	-0.310030
H107	H	1.354505	-0.895235	-0.856297
H108	H	1.854505	-0.395235	-0.356297
C109	C	1.581158	-0.803648	-0.515191
C110	C	2.081158	-0.303648	-0.015191
C111	C	1.642757	-0.863496	-0.532730
C112	C	2.142757	-0.363496	-0.032730
C113	C	1.734150	-0.836895	-0.557418
C114	C	2.234150	-0.336895	-0.057418
H115	H	1.605980	-0.774716	-0.463795
H116	H	2.105980	-0.274716	0.036205
H117	H	1.576546	-0.773946	-0.571455
H118	H	2.076546	-0.273946	-0.071455
H119	H	1.647372	-0.893185	-0.476473
H120	H	2.147372	-0.393185	0.023527
H121	H	1.617965	-0.892434	-0.584130
H122	H	2.117965	-0.392434	-0.084130
H123	H	1.729538	-0.807194	-0.613682
H124	H	2.229538	-0.307194	-0.113682
H125	H	1.758963	-0.807963	-0.506018
H126	H	2.258963	-0.307963	-0.006018
H127	H	1.775953	-0.877497	-0.569329
H128	H	2.275953	-0.377497	-0.069329
C129	C	1.206737	-0.911098	-0.414651
C130	C	1.706737	-0.411098	0.085349
C131	C	1.139507	-0.886134	-0.482293
C132	C	1.639507	-0.386134	0.017707
C133	C	1.048071	-0.912826	-0.457937
C134	C	1.548071	-0.412826	0.042063
H135	H	1.189455	-0.893517	-0.352598
H136	H	1.689455	-0.393517	0.147402
H137	H	1.207595	-0.963726	-0.414317
H138	H	1.707595	-0.463726	0.085683
H139	H	1.138646	-0.833517	-0.482617
H140	H	1.638646	-0.333517	0.017383
H141	H	1.156758	-0.903712	-0.544352
H142	H	1.656758	-0.403712	-0.044352
H143	H	1.048929	-0.965454	-0.457602
H144	H	1.548929	-0.465454	0.042398
H145	H	1.030798	-0.895244	-0.395882
H146	H	1.530798	-0.395244	0.104118
H147	H	1.002446	-0.895897	-0.503832
H148	H	1.502446	-0.395897	-0.003832
H149	H	1.350403	-0.811140	-0.302246
H150	H	1.850403	-0.311140	0.197754
H151	H	1.513005	-0.903493	-0.345834
H152	H	2.013005	-0.403493	0.154166
