data_functionalizedCrystal
_audit_creation_method	'MofGen! by Chris Wilmer'
_symmetry_space_group_name_H-M	'P1'
_symmetry_Int_Tables_number	1
_symmetry_cell_setting	triclinic
loop_
_symmetry_equiv_pos_as_xyz
  x,y,z
_cell_length_a	10.654550
_cell_length_b	12.837942
_cell_length_c	9.130313
_cell_angle_alpha	89.996012
_cell_angle_beta	89.999724
_cell_angle_gamma	89.656935
loop_
_atom_site_label
_atom_site_type_symbol
_atom_site_fract_x
_atom_site_fract_y
_atom_site_fract_z
O1	O	1.683741	0.145723	-0.121688
O2	O	1.319778	0.159606	-0.121715
O3	O	1.493689	0.001704	-0.121693
O4	O	1.509830	0.303626	-0.121710
O5	O	1.493675	0.001699	0.121906
O6	O	1.319764	0.159602	0.121884
O7	O	1.683728	0.145718	0.121911
Cu8	Cu	1.501745	0.152660	0.144140
Cu9	Cu	1.501761	0.152665	-0.143944
O10	O	1.509816	0.303621	0.121889
C11	C	1.272862	0.158585	0.000081
C12	C	1.133086	0.155535	0.000071
C13	C	1.063746	0.248505	0.000070
C14	C	0.932411	0.245633	0.000096
C15	C	0.939770	0.056812	0.000117
C16	C	1.071101	0.059685	0.000102
C17	C	1.488230	-0.036958	0.000105
C18	C	1.471967	-0.152152	0.000101
C19	C	1.667472	-0.391705	0.000085
C20	C	1.652197	-0.499941	0.000082
C21	C	1.426146	-0.476861	0.000080
C22	C	1.441420	-0.368626	0.000084
C23	C	1.562087	-0.326052	0.000088
C24	C	1.577360	-0.217814	0.000103
C25	C	1.351309	-0.194737	0.000091
C26	C	1.336035	-0.302972	0.000087
C27	C	1.730644	0.146740	0.000111
C28	C	1.870420	0.149790	0.000112
C29	C	1.515276	0.342283	0.000087
C30	C	1.531538	0.457477	0.000081
N31	N	1.501742	0.152655	0.346762
N32	N	1.501772	0.152661	-0.346567
C33	C	1.578782	0.082766	0.423424
C34	C	1.578794	0.082766	0.576761
C35	C	1.424723	0.222554	0.576761
C36	C	1.424706	0.222548	0.423427
H37	H	0.875960	0.321340	0.000098
N38	N	1.661849	0.007381	0.340714
H39	H	1.752491	0.020010	0.367375
H40	H	1.638461	-0.066333	0.367442
N41	N	0.872899	-0.046557	0.000133
H42	H	0.897356	-0.087332	-0.090167
H43	H	0.897387	-0.087250	0.090497
N44	N	1.130603	0.351880	0.000035
H45	H	1.066743	0.410340	0.000040
H46	H	1.184944	0.357188	0.090331
H47	H	1.127560	-0.016027	0.000107
N48	N	1.707500	-0.171890	0.000117
H49	H	1.771942	-0.229909	0.000110
H50	H	1.718762	-0.127477	-0.090185
N51	N	1.296011	-0.522795	0.000063
H52	H	1.249247	-0.498927	0.090363
H53	H	1.249365	-0.498892	-0.090301
H54	H	1.765723	-0.357041	0.000103
H55	H	1.237791	-0.337651	0.000078
N56	N	1.237633	-0.123925	0.000102
H57	H	1.265615	-0.048897	0.000109
H58	H	1.185608	-0.137796	-0.090204
H59	H	1.738013	-0.553393	0.000074
H60	H	1.641526	0.025854	0.639174
N61	N	1.341638	0.297936	0.659449
H62	H	1.353340	0.287338	0.768219
H63	H	1.364953	0.371651	0.632629
N64	N	1.341598	0.297924	0.340729
H65	H	1.292803	0.342206	0.412560
H66	H	1.395188	0.344160	0.277086
