data_functionalizedCrystal
_audit_creation_method	'MofGen! by Chris Wilmer'
_symmetry_space_group_name_H-M	'P1'
_symmetry_Int_Tables_number	1
_symmetry_cell_setting	triclinic
loop_
_symmetry_equiv_pos_as_xyz
  x,y,z
_cell_length_a	9.065218
_cell_length_b	15.995350
_cell_length_c	7.540329
_cell_angle_alpha	89.998640
_cell_angle_beta	89.996962
_cell_angle_gamma	84.254130
loop_
_atom_site_label
_atom_site_type_symbol
_atom_site_fract_x
_atom_site_fract_y
_atom_site_fract_z
O1	O	1.957508	0.122770	-0.147477
O2	O	1.527986	0.132840	-0.147479
O3	O	1.754488	0.006007	-0.147476
O4	O	1.731005	0.249604	-0.147480
O5	O	1.754474	0.006005	0.147489
O6	O	1.527972	0.132839	0.147486
O7	O	1.957494	0.122769	0.147488
Cu8	Cu	1.742732	0.127804	0.174420
Cu9	Cu	1.742748	0.127805	-0.174411
O10	O	1.730992	0.249602	0.147485
C11	C	1.473015	0.131872	0.000003
C12	C	1.309240	0.128978	0.000002
C13	C	1.753510	-0.025196	0.000003
C14	C	1.750600	-0.118169	-0.000007
C15	C	1.740148	-0.455995	-0.000001
C16	C	1.578837	-0.409785	-0.000663
C17	C	1.581748	-0.313072	0.000001
C18	C	1.745332	-0.288396	-0.000005
C19	C	1.824889	-0.328871	0.168432
C20	C	1.820836	-0.425537	0.168573
C21	C	1.824184	-0.425868	-0.166858
C22	C	1.824146	-0.328923	-0.169084
C23	C	1.748271	-0.193676	-0.000001
C24	C	1.737214	-0.550716	0.000007
C25	C	2.012465	0.123737	0.000002
C26	C	2.176239	0.126631	-0.000009
C27	C	1.731969	0.280805	0.000002
C28	C	1.734880	0.373778	0.000001
N29	N	1.742731	0.127802	0.419768
N30	N	1.742760	0.127801	-0.419759
H31	H	1.519211	-0.285124	-0.120740
N32	N	1.758030	-0.452148	-0.327002
N33	N	1.648130	-0.493407	-0.320096
H34	H	1.601396	-0.511969	-0.433189
H35	H	1.769622	-0.300909	0.293781
H36	H	1.514368	-0.428805	-0.121452
N37	N	1.973786	-0.308498	-0.181856
N38	N	2.025014	-0.263543	-0.066028
H39	H	2.130702	-0.249113	-0.075040
N40	N	1.498315	-0.434983	0.150021
N41	N	1.559215	-0.486826	0.257897
H42	H	1.502351	-0.504625	0.364321
N43	N	1.969396	-0.464874	0.178222
N44	N	2.008031	-0.512208	0.305401
H45	H	2.112949	-0.539989	0.312230
H46	H	1.762812	-0.444279	0.294486
H47	H	1.765980	-0.302115	-0.293689
H48	H	1.945069	-0.313834	0.174691
N49	N	1.973388	-0.464572	-0.168252
N50	N	2.017813	-0.514139	-0.047023
H51	H	2.123187	-0.541474	-0.047988
H52	H	1.518779	-0.285686	0.120949
