data_functionalizedCrystal
_audit_creation_method	'MofGen! by Chris Wilmer'
_symmetry_space_group_name_H-M	'P1'
_symmetry_Int_Tables_number	1
_symmetry_cell_setting	triclinic
loop_
_symmetry_equiv_pos_as_xyz
  x,y,z
_cell_length_a	10.654550
_cell_length_b	10.540539
_cell_length_c	9.730223
_cell_angle_alpha	89.997733
_cell_angle_beta	89.999957
_cell_angle_gamma	84.505211
loop_
_atom_site_label
_atom_site_type_symbol
_atom_site_fract_x
_atom_site_fract_y
_atom_site_fract_z
O1	O	1.667902	0.178301	-0.114180
O2	O	1.302429	0.195288	-0.114205
O3	O	1.493504	0.002085	-0.114190
O4	O	1.476827	0.371504	-0.114195
O5	O	1.493491	0.002079	0.114390
O6	O	1.302417	0.195282	0.114375
O7	O	1.667889	0.178295	0.114400
Zn8	Zn	1.485151	0.186788	0.150679
Zn9	Zn	1.485167	0.186795	-0.150484
O10	O	1.476815	0.371498	0.114385
C11	C	1.255625	0.194038	0.000082
C12	C	1.116180	0.190306	0.000072
C13	C	1.492247	-0.045221	0.000097
C14	C	1.488505	-0.186167	0.000090
C15	C	1.036735	0.304061	0.000075
C16	C	0.905712	0.300547	0.000099
C17	C	0.933594	0.069513	0.000112
C18	C	1.064614	0.073029	0.000098
C19	C	1.345134	-0.369543	-0.000433
C20	C	1.348927	-0.222926	0.000082
C21	C	1.555670	-0.247852	0.130624
C22	C	1.550906	-0.394395	0.130734
C23	C	1.553759	-0.394908	-0.129204
C24	C	1.555044	-0.247927	-0.130930
C25	C	1.714694	0.179545	0.000110
C26	C	1.854139	0.183277	0.000110
C27	C	1.478072	0.418804	0.000095
C28	C	1.481813	0.559750	0.000093
N29	N	1.485149	0.186782	0.356216
N30	N	1.485179	0.186791	-0.356021
C31	C	1.569786	0.101269	0.428148
C32	C	1.569799	0.101269	0.572031
C33	C	1.400533	0.272309	0.572037
C34	C	1.400516	0.272301	0.428156
H35	H	1.078715	0.399556	0.000064
N36	N	1.656169	0.013889	0.354616
N37	N	1.615545	-0.065255	0.274350
H38	H	1.676537	-0.126975	0.222403
H39	H	1.331628	0.341938	0.630625
N40	N	1.497104	-0.434435	-0.253337
N41	N	1.541687	-0.406885	-0.367136
H42	H	1.501663	-0.434799	-0.454802
H43	H	0.891593	-0.025970	0.000141
H44	H	1.654576	-0.442170	-0.130075
H45	H	1.129302	-0.019610	0.000100
H46	H	0.841032	0.393178	0.000104
H47	H	1.296078	-0.180301	-0.093491
H48	H	1.295697	-0.181153	0.093803
N49	N	1.497120	-0.194389	0.252470
N50	N	1.405942	-0.110875	0.243510
H51	H	1.364583	-0.073117	0.329560
N52	N	1.488622	-0.429741	0.253138
N53	N	1.448965	-0.346217	0.337888
H54	H	1.404973	-0.371172	0.424339
H55	H	1.290216	-0.399732	0.092644
N56	N	1.676836	-0.454606	0.138190
N57	N	1.767957	-0.388361	0.143305
H58	H	1.856894	-0.430878	0.148581
N59	N	1.275984	-0.405389	-0.117877
N60	N	1.326621	-0.483472	-0.202561
H61	H	1.277786	-0.508794	-0.285514
N62	N	1.684257	-0.219856	0.136709
N63	N	1.727936	-0.153969	0.044688
H64	H	1.818752	-0.134195	0.048980
H65	H	1.505901	-0.207048	-0.227496
H66	H	1.656808	-0.223742	-0.138805
H67	H	1.638716	0.031634	0.630595
N68	N	1.314057	0.359676	0.354693
N69	N	1.316821	0.477033	0.370748
H70	H	1.255760	0.538738	0.318866
