data_functionalizedCrystal
_audit_creation_method	'MofGen! by Chris Wilmer'
_symmetry_space_group_name_H-M	'P1'
_symmetry_Int_Tables_number	1
_symmetry_cell_setting	triclinic
loop_
_symmetry_equiv_pos_as_xyz
  x,y,z
_cell_length_a	12.837943
_cell_length_b	12.811415
_cell_length_c	7.088929
_cell_angle_alpha	78.355812
_cell_angle_beta	96.865797
_cell_angle_gamma	89.411917
loop_
_atom_site_label
_atom_site_type_symbol
_atom_site_fract_x
_atom_site_fract_y
_atom_site_fract_z
O1	O	1.362733	0.285737	-0.208488
O2	O	1.061026	0.272108	-0.206137
O3	O	1.221250	0.125258	-0.180662
O4	O	1.202508	0.432586	-0.233964
O5	O	1.242662	0.105584	0.140726
O6	O	1.082438	0.252434	0.115251
O7	O	1.384145	0.266062	0.112900
Cu8	Cu	1.235247	0.257452	0.143421
Cu9	Cu	1.209924	0.280719	-0.236658
O10	O	1.223921	0.412912	0.087425
C11	C	1.033145	0.257667	-0.044646
C12	C	0.918167	0.243935	-0.042270
C13	C	1.231562	0.075812	-0.013102
C14	C	1.230377	-0.042214	0.007355
C15	C	0.676007	0.409016	-0.070873
C16	C	0.567975	0.396119	-0.068640
C17	C	0.594070	0.205244	-0.035556
C18	C	0.702102	0.218141	-0.037789
C19	C	0.743066	0.320031	-0.055451
C20	C	0.851099	0.332928	-0.057699
C21	C	0.877193	0.142053	-0.024601
C22	C	0.769161	0.129155	-0.022367
C23	C	1.204785	-0.242534	-0.304621
C24	C	1.203670	-0.353429	-0.285409
C25	C	1.227027	-0.374899	0.064990
C26	C	1.228141	-0.264004	0.045778
C27	C	1.217021	-0.197826	-0.139034
C28	C	1.218143	-0.086929	-0.158244
C29	C	1.241492	-0.108401	0.192153
C30	C	1.240378	-0.219296	0.211365
C31	C	1.412026	0.280504	-0.048595
C32	C	1.527002	0.294236	-0.050984
C33	C	1.213608	0.462359	-0.080139
C34	C	1.214792	0.580385	-0.100609
N35	N	1.253065	0.241087	0.410748
N36	N	1.192114	0.297076	-0.503984
H37	H	0.884450	0.415891	-0.072077
H38	H	1.128945	0.355096	0.404305
H39	H	1.316246	0.183071	0.502468
H40	H	0.709360	0.491979	-0.085258
C41	C	0.494213	0.494010	-0.085604
N42	N	0.438655	0.567747	-0.098380
H43	H	0.560708	0.122280	-0.021016
H44	H	0.735795	0.046198	-0.007965
C45	C	1.190234	-0.402605	-0.467568
N46	N	1.180122	-0.439644	-0.604778
C47	C	1.252605	-0.292104	0.414647
N48	N	1.261817	-0.346942	0.567763
C49	C	1.205907	-0.014134	-0.361539
N50	N	1.196686	0.040693	-0.514666
H51	H	0.931804	0.069595	-0.012056
H52	H	1.195739	-0.188651	-0.455101
C53	C	1.239235	-0.447713	0.268266
N54	N	1.248425	-0.502558	0.421376
H55	H	1.251460	-0.071988	0.326986
