data_functionalizedCrystal
_audit_creation_method	'MofGen! by Chris Wilmer'
_symmetry_space_group_name_H-M	'P1'
_symmetry_Int_Tables_number	1
_symmetry_cell_setting	triclinic
loop_
_symmetry_equiv_pos_as_xyz
  x,y,z
_cell_length_a	14.853567
_cell_length_b	16.109301
_cell_length_c	14.586319
_cell_angle_alpha	90.000787
_cell_angle_beta	90.000002
_cell_angle_gamma	96.451795
loop_
_atom_site_label
_atom_site_type_symbol
_atom_site_fract_x
_atom_site_fract_y
_atom_site_fract_z
O1	O	0.115881	-1.103294	-0.076175
O2	O	0.130302	-0.861252	-0.076188
O3	O	-0.008149	-0.988738	-0.076184
O4	O	0.254332	-0.975807	-0.076179
O5	O	-0.008151	-0.988729	0.076297
O6	O	0.130300	-0.861243	0.076293
O7	O	0.115879	-1.103285	0.076306
Cu8	Cu	0.123089	-0.982263	0.090222
Cu9	Cu	0.123091	-0.982274	-0.090104
O10	O	0.254330	-0.975799	0.076302
C11	C	0.129717	-0.830272	0.000050
C12	C	0.127965	-0.737974	0.000045
C13	C	-0.041738	-0.988148	0.000054
C14	C	-0.141819	-0.986392	0.000046
N15	N	0.123087	-0.982262	0.217054
C16	C	-0.554215	-0.903241	0.000059
C17	C	-0.575746	-1.054697	0.000067
C18	C	-0.481715	-1.056348	0.000062
C19	C	-0.423930	-0.981444	0.000056
C20	C	-0.460175	-0.904889	0.000056
C21	C	-0.445463	-1.132901	0.000071
C22	C	-0.351426	-1.134555	0.000067
C23	C	-0.293639	-1.059650	0.000055
C24	C	-0.329890	-0.983093	0.000054
C25	C	-0.272104	-0.908189	0.000048
C26	C	-0.308353	-0.831630	0.000040
C27	C	-0.402388	-0.829984	0.000044
C28	C	-0.199604	-1.061296	0.000051
C29	C	-0.178064	-0.909837	0.000046
C30	C	0.287918	-0.976389	0.000062
C31	C	0.387999	-0.978145	0.000064
C32	C	0.116464	-1.134265	0.000066
C33	C	0.118215	-1.226563	0.000065
C34	C	0.206047	-0.515811	0.000057
C35	C	0.204395	-0.429089	0.000063
C36	C	0.040127	-0.448732	0.000056
C37	C	0.041781	-0.535453	0.000057
C38	C	0.124743	-0.568990	0.000052
C39	C	0.121437	-0.395546	0.000058
C40	C	0.119645	-0.301518	0.000064
C41	C	0.126536	-0.663025	0.000048
N42	N	0.123087	-0.982281	-0.216936
C43	C	0.061801	-1.038731	0.452062
C44	C	0.061799	-1.038734	0.548044
C45	C	0.184375	-0.925806	0.548049
C46	C	0.184372	-0.925800	0.452070
C47	C	0.123086	-0.982268	0.404079
C48	C	0.123087	-0.982276	0.596039
C49	C	0.123085	-0.982278	0.700107
C50	C	0.123087	-0.982265	0.300005
H51	H	-0.131020	-0.848840	0.000037
H52	H	-0.261292	-0.770643	0.000042
H53	H	-0.431911	-0.767654	0.000039
Cl54	Cl	0.310343	-0.557969	0.000057
H55	H	0.270600	-0.385793	0.000068
H56	H	0.234274	-0.879832	0.587133
H57	H	-0.583733	-0.840908	0.000049
H58	H	-0.622800	-1.115680	0.000079
Cl59	Cl	-0.064163	-0.406565	0.000055
Cl60	Cl	-0.060439	-0.602312	0.000058
H61	H	-0.492518	-1.193884	0.000084
Cl62	Cl	0.261418	-0.854808	0.391741
H63	H	-0.321921	-1.196894	0.000072
Cl64	Cl	-0.154037	-1.157533	0.000078
H65	H	0.011897	-1.084709	0.412990
Cl66	Cl	-0.015250	-1.109718	0.608363
