data_functionalizedCrystal
_audit_creation_method	'MofGen! by Chris Wilmer'
_symmetry_space_group_name_H-M	'P1'
_symmetry_Int_Tables_number	1
_symmetry_cell_setting	triclinic
loop_
_symmetry_equiv_pos_as_xyz
  x,y,z
_cell_length_a	14.853558
_cell_length_b	14.853559
_cell_length_c	13.930277
_cell_angle_alpha	89.997639
_cell_angle_beta	89.993309
_cell_angle_gamma	83.631294
loop_
_atom_site_label
_atom_site_type_symbol
_atom_site_fract_x
_atom_site_fract_y
_atom_site_fract_z
O1	O	1.196370	0.117664	-0.079814
O2	O	0.933909	0.131694	-0.079818
O3	O	1.072154	-0.006551	-0.079815
O4	O	1.058125	0.255910	-0.079817
O5	O	1.072135	-0.006554	0.079847
O6	O	0.933890	0.131691	0.079844
O7	O	1.196351	0.117661	0.079848
Zn8	Zn	1.065117	0.124676	0.105195
Zn9	Zn	1.065142	0.124680	-0.105166
O10	O	1.058105	0.255907	0.079844
C11	C	0.900310	0.131059	0.000012
C12	C	0.800226	0.129158	0.000010
C13	C	0.753217	0.128268	-0.087025
C14	C	0.753194	0.128254	0.087045
C15	C	0.659161	0.126464	0.087046
C16	C	0.612151	0.125574	0.000011
C17	C	0.659175	0.126475	-0.087026
C18	C	0.612131	0.125554	0.174082
C19	C	0.518091	0.123762	0.174087
C20	C	0.471079	0.122879	0.087050
C21	C	0.518109	0.123781	0.000010
C22	C	0.471099	0.122891	-0.087025
C23	C	0.518126	0.123800	-0.174067
C24	C	0.612162	0.125592	-0.174062
C25	C	0.377043	0.121087	0.087046
C26	C	0.377057	0.121098	-0.087027
C27	C	1.071510	-0.040142	0.000014
C28	C	1.069609	-0.140226	0.000009
C29	C	1.061556	-0.563399	-0.087023
C30	C	1.061535	-0.563397	0.087046
C31	C	1.063328	-0.469364	0.087047
C32	C	1.064234	-0.422343	0.000011
C33	C	1.063347	-0.469357	-0.087025
C34	C	1.064207	-0.422342	0.174082
C35	C	1.065999	-0.328303	0.174086
C36	C	1.066912	-0.281282	0.087050
C37	C	1.066025	-0.328301	0.000009
C38	C	1.066931	-0.281281	-0.087026
C39	C	1.066051	-0.328299	-0.174067
C40	C	1.064259	-0.422336	-0.174062
C41	C	1.068704	-0.187246	0.087044
C42	C	1.068722	-0.187239	-0.087028
C43	C	1.229949	0.118297	0.000015
C44	C	1.330033	0.120197	0.000010
C45	C	1.058749	0.289497	0.000013
C46	C	1.060650	0.389581	0.000012
N47	N	1.065106	0.124673	0.248761
N48	N	1.065160	0.124676	-0.248732
C49	C	1.003925	0.185871	0.701029
C50	C	1.126385	0.063482	0.701001
C51	C	1.126374	0.063479	0.600506
C52	C	1.065139	0.124674	0.550267
C53	C	1.003914	0.185872	0.600524
C54	C	1.187603	0.002288	0.550241
C55	C	1.187596	0.002283	0.449739
C56	C	1.126356	0.063475	0.399499
C57	C	1.065128	0.124675	0.449762
C58	C	1.003893	0.185870	0.399524
C59	C	0.942660	0.247066	0.449785
C60	C	0.942674	0.247063	0.550284
C61	C	1.126342	0.063478	0.299000
C62	C	1.003882	0.185870	0.299018
H63	H	0.650414	0.126270	0.244941
O64	O	1.066955	-0.277600	0.267964
H65	H	1.068350	-0.204310	0.253344
H66	H	1.237454	-0.047546	0.408822
O67	O	1.253645	-0.063710	0.604428
H68	H	1.323933	-0.052087	0.585133
O69	O	1.067020	-0.277574	-0.267937
H70	H	1.066100	-0.326060	-0.328463
O71	O	0.467409	0.122830	-0.267933
H72	H	0.493422	0.061773	-0.309665
O73	O	1.069693	-0.136532	-0.180909
H74	H	1.131908	-0.101653	-0.185079
H75	H	0.791476	0.128972	0.157905
H76	H	0.954013	0.235700	0.258120
O77	O	1.192431	-0.002519	0.755180
H78	H	1.182150	0.007759	0.833507
O79	O	1.192373	-0.002520	0.244786
H80	H	1.234953	-0.045074	0.296604
H81	H	0.650460	0.126330	-0.244927
O82	O	0.467368	0.122797	0.267960
H83	H	0.515856	0.123724	0.328480
H84	H	0.954068	0.235693	0.741955
H85	H	1.063464	-0.460632	0.244942
H86	H	0.892806	0.296895	0.408869
O87	O	1.069661	-0.136534	0.180912
H88	H	1.007915	-0.146622	0.222649
H89	H	0.791510	0.129012	-0.157892
O90	O	0.326317	0.120111	0.180912
H91	H	0.374804	0.121033	0.241433
O92	O	0.876647	0.313074	0.604494
H93	H	0.832798	0.275050	0.650307
O94	O	0.326356	0.120116	-0.180901
H95	H	0.374859	0.121035	-0.241420
O96	O	1.063295	-0.473050	-0.267932
H97	H	1.125044	-0.462979	-0.309670
O98	O	1.060576	-0.614106	0.180918
H99	H	1.059192	-0.687396	0.166297
H100	H	1.060843	-0.601686	-0.157890
