data_functionalizedCrystal
_audit_creation_method	'MofGen! by Chris Wilmer'
_symmetry_space_group_name_H-M	'P1'
_symmetry_Int_Tables_number	1
_symmetry_cell_setting	triclinic
loop_
_symmetry_equiv_pos_as_xyz
  x,y,z
_cell_length_a	16.109301
_cell_length_b	16.109301
_cell_length_c	14.586319
_cell_angle_alpha	90.005214
_cell_angle_beta	90.000787
_cell_angle_gamma	83.461481
loop_
_atom_site_label
_atom_site_type_symbol
_atom_site_fract_x
_atom_site_fract_y
_atom_site_fract_z
O1	O	-1.103131	-0.106866	-0.076185
O2	O	-0.769797	0.226467	0.257148
O3	O	-0.436464	0.559801	0.590481
O4	O	-0.861069	-0.120165	-0.076200
O5	O	-0.527735	0.213168	0.257133
O6	O	-0.194402	0.546501	0.590466
O7	O	-0.988749	0.007515	-0.076183
O8	O	-0.655416	0.340849	0.257150
O9	O	-0.322083	0.674182	0.590484
O10	O	-0.975450	-0.234547	-0.076203
O11	O	-0.642117	0.098787	0.257131
O12	O	-0.308783	0.432120	0.590464
O13	O	-0.988741	0.007517	0.076298
O14	O	-0.655407	0.340850	0.409631
O15	O	-0.322074	0.674184	0.742964
O16	O	-0.861060	-0.120164	0.076281
O17	O	-0.527727	0.213170	0.409614
O18	O	-0.194393	0.546503	0.742947
O19	O	-1.103122	-0.106864	0.076295
O20	O	-0.769789	0.226469	0.409629
O21	O	-0.436455	0.559802	0.742962
Cu22	Cu	-0.982090	-0.113514	0.090211
Cu23	Cu	-0.648757	0.219820	0.423544
Cu24	Cu	-0.315423	0.553153	0.756877
Cu25	Cu	-0.982101	-0.113516	-0.090115
Cu26	Cu	-0.648767	0.219817	0.243218
Cu27	Cu	-0.315434	0.553151	0.576551
O28	O	-0.975441	-0.234545	0.076278
O29	O	-0.642108	0.098788	0.409612
O30	O	-0.308775	0.432122	0.742945
C31	C	-0.830090	-0.119626	0.000038
C32	C	-0.496756	0.213708	0.333372
C33	C	-0.163423	0.547041	0.666705
C34	C	-0.737794	-0.118011	0.000033
C35	C	-0.404461	0.215323	0.333366
C36	C	-0.071128	0.548656	0.666700
C37	C	-0.988206	0.038491	0.000058
C38	C	-0.654873	0.371824	0.333391
C39	C	-0.321540	0.705158	0.666724
C40	C	-0.986591	0.130786	0.000059
C41	C	-0.653258	0.464120	0.333392
C42	C	-0.319925	0.797453	0.666726
C43	C	-1.134101	-0.107404	0.000055
C44	C	-0.800768	0.225929	0.333388
C45	C	-0.467435	0.559263	0.666722
C46	C	-1.226397	-0.109019	0.000054
C47	C	-0.893063	0.224314	0.333388
C48	C	-0.559730	0.557648	0.666721
C49	C	-0.975984	-0.265521	0.000035
C50	C	-0.642651	0.067813	0.333369
C51	C	-0.309318	0.401146	0.666702
C52	C	-0.977600	-0.357816	0.000028
C53	C	-0.644266	-0.024483	0.333362
C54	C	-0.310933	0.308851	0.666695
C55	C	-0.515522	-0.190018	0.000038
C56	C	-0.182188	0.143315	0.333371
C57	C	0.151145	0.476648	0.666704
C58	C	-0.428801	-0.188494	0.000044
C59	C	-0.095468	0.144839	0.333377
C60	C	0.237865	0.478172	0.666710
C61	C	-0.448676	-0.037006	0.000052
C62	C	-0.115342	0.296328	0.333386
C63	C	0.217991	0.629661	0.666719
C64	C	-0.535394	-0.038530	0.000053
C65	C	-0.202061	0.294803	0.333386
C66	C	0.131272	0.628136	0.666719
C67	C	-0.568815	-0.115039	0.000041
C68	C	-0.235482	0.218294	0.333374
C69	C	0.097852	0.551627	0.666708
C70	C	-0.395376	-0.111990	0.000046
C71	C	-0.062042	0.221343	0.333380
C72	C	0.271291	0.554676	0.666713
C73	C	-0.301350	-0.110337	0.000053
C74	C	0.031984	0.222996	0.333386
C75	C	0.365317	0.556329	0.666720
C76	C	-0.662847	-0.116693	0.000036
C77	C	-0.329514	0.216641	0.333369
C78	C	0.003820	0.549974	0.666703
N79	N	-0.982089	-0.113512	0.217042
N80	N	-0.648755	0.219822	0.550376
N81	N	-0.315422	0.553155	0.883709
C82	C	-1.058599	0.353059	0.000049
C83	C	-0.725266	0.686392	0.333382
C84	C	-0.391932	1.019725	0.666716
C85	C	-1.057075	0.439779	0.000041
C86	C	-0.723742	0.773112	0.333375
C87	C	-0.390408	1.106446	0.666708
C88	C	-0.905586	0.419905	0.000036
C89	C	-0.572253	0.753238	0.333369
C90	C	-0.238919	1.086571	0.666702
C91	C	-0.907111	0.333186	0.000037
C92	C	-0.573778	0.666519	0.333370
C93	C	-0.240444	0.999853	0.666703
C94	C	-0.983620	0.299766	0.000048
C95	C	-0.650287	0.633099	0.333381
C96	C	-0.316953	0.966432	0.666715
C97	C	-0.980571	0.473205	0.000039
C98	C	-0.647238	0.806538	0.333373
C99	C	-0.313904	1.139871	0.666706
C100	C	-0.978918	0.567231	0.000031
C101	C	-0.645585	0.900564	0.333364
C102	C	-0.312251	1.233897	0.666698
C103	C	-0.985273	0.205734	0.000055
C104	C	-0.651940	0.539067	0.333388
C105	C	-0.318607	0.872400	0.666721
N106	N	-0.982109	-0.113511	-0.216947
N107	N	-0.648775	0.219822	0.116386
N108	N	-0.315442	0.553155	0.449719
C109	C	-1.038644	-0.056994	0.452057
C110	C	-0.705311	0.276340	0.785390
C111	C	-0.371978	0.609673	1.118723
C112	C	-1.038647	-0.056992	0.548038
C113	C	-0.705314	0.276342	0.881371
C114	C	-0.371980	0.609675	1.214704
C115	C	-0.925547	-0.170032	0.548032
C116	C	-0.592213	0.163301	0.881365
C117	C	-0.258880	0.496634	1.214699
C118	C	-0.925541	-0.170030	0.452052
C119	C	-0.592208	0.163304	0.785386
C120	C	-0.258874	0.496637	1.118719
C121	C	-0.982095	-0.113511	0.404067
C122	C	-0.648761	0.219822	0.737401
C123	C	-0.315428	0.553155	1.070734
C124	C	-0.982103	-0.113512	0.596028
C125	C	-0.648769	0.219822	0.929361
C126	C	-0.315436	0.553155	1.262695
C127	C	-0.982105	-0.113510	0.700095
C128	C	-0.648772	0.219823	1.033428
C129	C	-0.315438	0.553157	1.366762
C130	C	-0.982092	-0.113512	0.299993
C131	C	-0.648758	0.219822	0.633327
C132	C	-0.315425	0.553155	0.966660
H133	H	-0.542730	-0.252317	0.000035
H134	H	-0.209396	0.081017	0.333368
H135	H	0.123937	0.414350	0.666702
H136	H	-0.578788	0.022530	0.000058
H137	H	-0.245455	0.355864	0.333391
H138	H	0.087878	0.689197	0.666725
F139	F	-0.865363	-0.230182	0.599107
F140	F	-0.532030	0.103151	0.932441
F141	F	-0.198697	0.436484	1.265774
F142	F	-0.372086	-0.268298	0.000042
F143	F	-0.038753	0.065036	0.333375
F144	F	0.294581	0.398369	0.666709
F145	F	-1.140026	0.317493	0.000060
F146	F	-0.806693	0.650827	0.333393
F147	F	-0.473360	0.984160	0.666727
H148	H	-0.879487	-0.216053	0.412977
H149	H	-0.546154	0.117280	0.746310
H150	H	-0.212821	0.450613	1.079644
F151	F	-0.413100	0.044416	0.000061
F152	F	-0.079766	0.377749	0.333394
F153	F	0.253567	0.711083	0.666727
F154	F	-1.136878	0.496495	0.000040
F155	F	-0.803545	0.829828	0.333374
F156	F	-0.470211	1.163161	0.666707
H157	H	-0.843295	0.447127	0.000028
H158	H	-0.509962	0.780460	0.333361
H159	H	-0.176628	1.113793	0.666695
H160	H	-0.846050	0.289792	0.000033
H161	H	-0.512717	0.623126	0.333366
H162	H	-0.179384	0.956459	0.666700
F163	F	-1.098832	0.003160	0.400991
F164	F	-0.765498	0.336494	0.734324
F165	F	-0.432165	0.669827	1.067657
F166	F	-1.098833	0.003164	0.599108
F167	F	-0.765500	0.336497	0.932442
F168	F	-0.432166	0.669830	1.265775
