data_functionalizedCrystal
_audit_creation_method	'MofGen! by Chris Wilmer'
_symmetry_space_group_name_H-M	'P1'
_symmetry_Int_Tables_number	1
_symmetry_cell_setting	triclinic
loop_
_symmetry_equiv_pos_as_xyz
  x,y,z
_cell_length_a	15.186229
_cell_length_b	16.109301
_cell_length_c	16.109301
_cell_angle_alpha	96.538519
_cell_angle_beta	89.994299
_cell_angle_gamma	90.001245
loop_
_atom_site_label
_atom_site_type_symbol
_atom_site_fract_x
_atom_site_fract_y
_atom_site_fract_z
O1	O	-0.073176	-1.103131	0.106867
O2	O	0.260158	-0.769798	0.440200
O3	O	0.593491	-0.436465	0.773533
O4	O	-0.073190	-0.861069	0.120166
O5	O	0.260143	-0.527736	0.453499
O6	O	0.593477	-0.194403	0.786833
O7	O	-0.073174	-0.988750	-0.007515
O8	O	0.260160	-0.655417	0.325819
O9	O	0.593493	-0.322083	0.659152
O10	O	-0.073192	-0.975451	0.234547
O11	O	0.260141	-0.642117	0.567881
O12	O	0.593474	-0.308784	0.901214
O13	O	0.073284	-0.988740	-0.007518
O14	O	0.406617	-0.655407	0.325816
O15	O	0.739950	-0.322073	0.659149
O16	O	0.073267	-0.861059	0.120163
O17	O	0.406601	-0.527726	0.453496
O18	O	0.739934	-0.194393	0.786830
O19	O	0.073282	-1.103121	0.106864
O20	O	0.406615	-0.769788	0.440197
O21	O	0.739948	-0.436455	0.773530
Zn22	Zn	0.096528	-0.982089	0.113513
Zn23	Zn	0.429861	-0.648756	0.446846
Zn24	Zn	0.763194	-0.315422	0.780180
Zn25	Zn	-0.096436	-0.982102	0.113517
Zn26	Zn	0.236897	-0.648769	0.446850
Zn27	Zn	0.570231	-0.315435	0.780183
O28	O	0.073265	-0.975441	0.234544
O29	O	0.406598	-0.642107	0.567878
O30	O	0.739932	-0.308774	0.901211
C31	C	0.000037	-0.830090	0.119626
C32	C	0.333370	-0.496756	0.452959
C33	C	0.666704	-0.163423	0.786292
C34	C	0.000032	-0.737794	0.118011
C35	C	0.333365	-0.404461	0.451344
C36	C	0.666698	-0.071128	0.784677
N37	N	0.228220	-0.982086	0.113510
N38	N	0.561554	-0.648753	0.446843
N39	N	0.894887	-0.315419	0.780176
C40	C	0.000056	-0.988206	-0.038491
C41	C	0.333389	-0.654873	0.294842
C42	C	0.666722	-0.321540	0.628176
C43	C	0.000057	-0.986591	-0.130786
C44	C	0.333390	-0.653258	0.202547
C45	C	0.666723	-0.319925	0.535880
N46	N	-0.228129	-0.982111	0.113513
N47	N	0.105205	-0.648778	0.446847
N48	N	0.438538	-0.315445	0.780180
C49	C	0.546146	-1.038646	0.056992
C50	C	0.879479	-0.705313	0.390325
C51	C	1.212813	-0.371979	0.723658
C52	C	0.453956	-1.038644	0.056992
C53	C	0.787290	-0.705310	0.390325
C54	C	1.120623	-0.371977	0.723659
C55	C	0.453952	-0.925549	0.170038
C56	C	0.787285	-0.592215	0.503371
C57	C	1.120619	-0.258882	0.836704
C58	C	0.546140	-0.925556	0.170041
C59	C	0.879473	-0.592222	0.503374
C60	C	1.212807	-0.258889	0.836707
C61	C	0.592235	-0.982103	0.113513
C62	C	0.925568	-0.648770	0.446846
C63	C	1.258901	-0.315437	0.780180
C64	C	0.407857	-0.982094	0.113510
C65	C	0.741190	-0.648761	0.446844
C66	C	1.074524	-0.315427	0.780177
C67	C	0.307901	-0.982091	0.113511
C68	C	0.641234	-0.648758	0.446844
C69	C	0.974567	-0.315424	0.780178
C70	C	0.692197	-0.982107	0.113513
C71	C	1.025530	-0.648774	0.446846
C72	C	1.358864	-0.315441	0.780180
C73	C	0.000053	-1.134101	0.107404
C74	C	0.333386	-0.800768	0.440737
C75	C	0.666719	-0.467435	0.774071
C76	C	0.000052	-1.226397	0.109019
C77	C	0.333385	-0.893063	0.442352
C78	C	0.666719	-0.559730	0.775686
C79	C	0.000036	-0.515522	0.190018
C80	C	0.333370	-0.182188	0.523352
C81	C	0.666703	0.151145	0.856685
C82	C	0.000042	-0.428801	0.188494
C83	C	0.333375	-0.095468	0.521828
C84	C	0.666709	0.237865	0.855161
C85	C	0.000050	-0.448676	0.037006
C86	C	0.333383	-0.115342	0.370339
C87	C	0.666717	0.217991	0.703672
C88	C	0.000051	-0.535394	0.038530
C89	C	0.333384	-0.202061	0.371864
C90	C	0.666717	0.131272	0.705197
C91	C	0.000039	-0.568815	0.115039
C92	C	0.333373	-0.235482	0.448373
C93	C	0.666706	0.097852	0.781706
C94	C	0.000045	-0.395376	0.111990
C95	C	0.333378	-0.062042	0.445324
C96	C	0.666711	0.271291	0.778657
C97	C	0.000051	-0.301350	0.110337
C98	C	0.333384	0.031984	0.443671
C99	C	0.666717	0.365317	0.777004
C100	C	0.000035	-0.662847	0.116693
C101	C	0.333368	-0.329514	0.450026
C102	C	0.666701	0.003820	0.783359
C103	C	0.000047	-1.058599	-0.353059
C104	C	0.333380	-0.725266	-0.019725
C105	C	0.666714	-0.391932	0.313608
C106	C	0.000040	-1.057075	-0.439779
C107	C	0.333373	-0.723742	-0.106446
C108	C	0.666706	-0.390408	0.226888
C109	C	0.000034	-0.905586	-0.419905
C110	C	0.333367	-0.572253	-0.086571
C111	C	0.666701	-0.238919	0.246762
C112	C	0.000035	-0.907111	-0.333186
C113	C	0.333369	-0.573778	0.000147
C114	C	0.666702	-0.240444	0.333481
C115	C	0.000046	-0.983620	-0.299766
C116	C	0.333379	-0.650287	0.033568
C117	C	0.666713	-0.316953	0.366901
C118	C	0.000038	-0.980571	-0.473205
C119	C	0.333371	-0.647238	-0.139871
C120	C	0.666704	-0.313904	0.193462
C121	C	0.000030	-0.978918	-0.567231
C122	C	0.333363	-0.645585	-0.233897
C123	C	0.666696	-0.312251	0.099436
C124	C	0.000052	-0.985273	-0.205734
C125	C	0.333386	-0.651940	0.127600
C126	C	0.666719	-0.318607	0.460933
C127	C	0.000034	-0.975984	0.265521
C128	C	0.333367	-0.642651	0.598854
C129	C	0.666701	-0.309318	0.932187
C130	C	0.000027	-0.977600	0.357816
C131	C	0.333360	-0.644266	0.691149
C132	C	0.666694	-0.310933	1.024483
H133	H	0.583674	-1.084692	0.010964
H134	H	0.917007	-0.751358	0.344298
H135	H	1.250341	-0.418025	0.677631
C136	C	0.403239	-0.863343	0.232208
C137	C	0.736573	-0.530010	0.565542
C138	C	1.069906	-0.196676	0.898875
N139	N	0.365043	-0.816486	0.279034
N140	N	0.698377	-0.483153	0.612367
N141	N	1.031710	-0.149819	0.945701
C142	C	0.000030	-0.824624	-0.274560
C143	C	0.333363	-0.491291	0.058774
C144	C	0.666697	-0.157957	0.392107
N145	N	0.000023	-0.762497	-0.230402
N146	N	0.333356	-0.429164	0.102931
N147	N	0.666689	-0.095830	0.436264
H148	H	0.000065	-0.421454	-0.025285
H149	H	0.333398	-0.088121	0.308048
H150	H	0.666731	0.245213	0.641381
H151	H	0.000027	-0.843295	-0.447127
H152	H	0.333360	-0.509962	-0.113793
H153	H	0.666694	-0.176628	0.219540
C154	C	0.403263	-1.100842	-0.005189
C155	C	0.736596	-0.767509	0.328144
C156	C	1.069930	-0.434176	0.661478
N157	N	0.365082	-1.147693	-0.052027
N158	N	0.698415	-0.814360	0.281306
N159	N	1.031748	-0.481026	0.614640
H160	H	0.000056	-0.578788	-0.022530
H161	H	0.333389	-0.245455	0.310803
H162	H	0.666722	0.087878	0.644136
H163	H	0.583668	-0.879511	0.216071
H164	H	0.917001	-0.546178	0.549404
H165	H	1.250334	-0.212845	0.882738
H166	H	0.000039	-1.118130	-0.483168
H167	H	0.333372	-0.784797	-0.149834
H168	H	0.666705	-0.451464	0.183499
H169	H	0.000034	-0.542730	0.252317
H170	H	0.333367	-0.209396	0.585650
H171	H	0.666700	0.123937	0.918983
H172	H	0.000041	-0.385413	0.249550
H173	H	0.333375	-0.052080	0.582883
H174	H	0.666708	0.281254	0.916217
C175	C	0.000049	-1.142761	-0.316300
C176	C	0.333383	-0.809427	0.017034
C177	C	0.666716	-0.476094	0.350367
N178	N	0.000047	-1.206154	-0.288615
N179	N	0.333380	-0.872821	0.044718
N180	N	0.666714	-0.539487	0.378051
