data_functionalizedCrystal
_audit_creation_method	'MofGen! by Chris Wilmer'
_symmetry_space_group_name_H-M	'P1'
_symmetry_Int_Tables_number	1
_symmetry_cell_setting	triclinic
loop_
_symmetry_equiv_pos_as_xyz
  x,y,z
_cell_length_a	15.995300
_cell_length_b	15.995350
_cell_length_c	17.766277
_cell_angle_alpha	89.995869
_cell_angle_beta	89.989053
_cell_angle_gamma	83.482091
loop_
_atom_site_label
_atom_site_type_symbol
_atom_site_fract_x
_atom_site_fract_y
_atom_site_fract_z
O1	O	1.111018	0.107727	-0.062618
O2	O	0.867237	0.121099	-0.062613
O3	O	0.995791	-0.007476	-0.062615
O4	O	0.982463	0.236302	-0.062616
O5	O	0.995768	-0.007482	0.062574
O6	O	0.867214	0.121092	0.062575
O7	O	1.110995	0.107721	0.062570
Cu8	Cu	0.989102	0.114406	0.074004
Cu9	Cu	0.989129	0.114414	-0.074046
O10	O	0.982441	0.236295	0.062572
C11	C	0.836030	0.120550	-0.000018
C12	C	0.743077	0.118915	-0.000016
C13	C	0.995229	-0.038674	-0.000022
C14	C	0.993577	-0.131624	-0.000026
C15	C	0.572894	0.115896	-0.000022
C16	C	0.525428	0.207443	-0.000021
C17	C	0.428740	0.205773	-0.000307
C18	C	0.405337	0.112924	-0.000027
C19	C	0.446483	0.067507	-0.071375
C20	C	0.543116	0.069824	-0.071432
C21	C	0.543370	0.068461	0.070935
C22	C	0.446425	0.068469	0.071871
C23	C	0.310642	0.111239	-0.000032
C24	C	0.667590	0.117577	-0.000022
C25	C	0.987644	-0.469370	-0.000024
C26	C	0.896090	-0.421920	-0.000303
C27	C	0.897743	-0.325230	-0.000020
C28	C	0.990587	-0.301810	-0.000025
C29	C	1.035732	-0.342900	0.071461
C30	C	1.033432	-0.439535	0.071521
C31	C	1.035349	-0.439886	-0.070842
C32	C	1.035327	-0.342941	-0.071787
C33	C	0.992255	-0.207113	-0.000024
C34	C	0.985979	-0.564068	-0.000020
C35	C	1.142202	0.108269	-0.000026
C36	C	1.235154	0.109904	-0.000033
C37	C	0.983003	0.267493	-0.000022
C38	C	0.984655	0.360443	-0.000023
N39	N	0.989090	0.114400	0.178134
N40	N	0.989148	0.114413	-0.178177
C41	C	1.046032	0.057495	0.217520
C42	C	1.046037	0.057491	0.296322
C43	C	0.989107	0.114406	0.335735
C44	C	0.932154	0.171316	0.296339
C45	C	0.932145	0.171312	0.217539
C46	C	0.978136	0.190665	0.460572
C47	C	0.978151	0.190669	0.539371
C48	C	0.989130	0.114417	0.578781
C49	C	1.000112	0.038156	0.539382
C50	C	1.000103	0.038153	0.460582
C51	C	0.989110	0.114416	0.421180
C52	C	1.046080	0.057503	0.703613
C53	C	1.046079	0.057498	0.782416
C54	C	0.932201	0.171330	0.782432
C55	C	0.932198	0.171328	0.703630
C56	C	0.989142	0.114415	0.664225
H57	H	0.400268	0.241460	0.050826
N58	N	1.107513	-0.003867	0.824901
H59	H	1.143590	-0.039911	0.787978
H60	H	1.144516	0.028229	0.857575
H61	H	1.004358	-0.314515	0.124662
H62	H	0.885845	0.217668	0.814521
H63	H	0.885833	0.217668	0.671560
N64	N	0.551404	0.255457	-0.067693
H65	H	0.520625	0.314193	-0.067264
H66	H	0.614062	0.258702	-0.065897
H67	H	1.103942	-0.328786	0.074116
H68	H	0.969214	0.252765	0.571444
N69	N	0.567399	0.113197	-0.142340
H70	H	0.630288	0.115136	-0.143086
H71	H	0.550287	0.081060	-0.187676
H72	H	0.859506	-0.440442	-0.051567
H73	H	0.543910	0.244231	0.051135
N74	N	1.107478	-0.003881	0.661092
H75	H	1.166907	0.005777	0.674784
H76	H	1.097762	-0.063286	0.674823
N77	N	0.847821	-0.447861	0.067229
H78	H	0.829553	-0.396793	0.099151
H79	H	0.796608	-0.473970	0.049720
N80	N	0.850735	-0.287561	-0.067895
H81	H	0.828750	-0.333762	-0.098269
H82	H	0.802042	-0.246196	-0.050760
N83	N	0.966296	0.272914	0.418069
H84	H	0.959350	0.321223	0.454983
H85	H	1.017160	0.277817	0.385363
H86	H	1.103034	-0.327591	-0.076107
N87	N	0.391860	0.252838	-0.068453
H88	H	0.362059	0.213674	-0.100908
H89	H	0.350428	0.301621	-0.051625
H90	H	0.861998	-0.297361	0.051313
H91	H	0.575390	0.002600	-0.074481
H92	H	1.009042	-0.023941	0.428507
H93	H	1.005425	-0.460417	-0.125024
H94	H	0.431086	0.000775	0.076390
N95	N	0.991665	-0.306759	-0.141836
H96	H	1.032843	-0.278718	-0.173587
H97	H	0.969787	-0.353446	-0.171642
N98	N	0.989803	-0.463782	0.142306
H99	H	0.972241	-0.411720	0.173177
H100	H	0.938413	-0.491725	0.128396
H101	H	1.102851	-0.471659	-0.071326
H102	H	0.418107	0.098649	-0.124672
N103	N	1.122463	-0.482276	0.075818
H104	H	1.163028	-0.438317	0.077669
H105	H	1.129155	-0.518165	0.122675
H106	H	1.092397	0.011151	0.185439
N107	N	1.107453	-0.003889	0.338816
H108	H	1.143524	-0.039944	0.301895
H109	H	1.144465	0.028190	0.371496
N110	N	0.570509	0.108375	0.142593
H111	H	0.602222	0.157615	0.129782
H112	H	0.519224	0.128651	0.173549
N113	N	1.011958	-0.044096	0.581875
H114	H	1.010294	-0.032526	0.637773
H115	H	0.965410	-0.078986	0.568113
H116	H	0.885800	0.217656	0.328433
H117	H	0.885775	0.217652	0.185470
H118	H	0.575151	0.000964	0.071622
H119	H	0.432384	-0.000716	-0.073827
H120	H	0.419076	0.101635	0.124655
