data_functionalizedCrystal
_audit_creation_method	'MofGen! by Chris Wilmer'
_symmetry_space_group_name_H-M	'P1'
_symmetry_Int_Tables_number	1
_symmetry_cell_setting	triclinic
loop_
_symmetry_equiv_pos_as_xyz
  x,y,z
_cell_length_a	16.959447
_cell_length_b	12.759401
_cell_length_c	12.759400
_cell_angle_alpha	89.985155
_cell_angle_beta	89.972414
_cell_angle_gamma	90.012257
loop_
_atom_site_label
_atom_site_type_symbol
_atom_site_fract_x
_atom_site_fract_y
_atom_site_fract_z
Zn1	Zn	-0.446880	-1.606191	-0.418241
Zn2	Zn	-0.314708	-1.606104	-0.593948
Zn3	Zn	-0.314722	-1.430512	-0.418284
Zn4	Zn	-0.446851	-1.430481	-0.593879
O5	O	-0.380790	-1.518322	-0.506088
O6	O	-0.429353	-1.753200	-0.441560
O7	O	-0.204099	-1.582788	-0.570692
O8	O	-0.332272	-1.453865	-0.271257
O9	O	-0.332247	-1.753137	-0.570651
O10	O	-0.429367	-1.582936	-0.271226
O11	O	-0.204110	-1.453781	-0.441633
O12	O	-0.332244	-1.283487	-0.441566
O13	O	-0.557466	-1.453813	-0.570534
O14	O	-0.429318	-1.283464	-0.570575
O15	O	-0.557487	-1.582906	-0.441493
O16	O	-0.332219	-1.582759	-0.740960
O17	O	-0.429304	-1.453729	-0.740909
C18	C	-0.380774	-1.518260	-0.779055
C19	C	-0.380793	-1.518329	-0.895832
C20	C	-0.380780	-1.245355	-0.506069
C21	C	-0.380794	-1.128578	-0.506086
C22	C	-0.586959	-1.518366	-0.506001
C23	C	-0.674815	-1.518384	-0.505964
C24	C	-1.046283	-1.451297	-0.573039
C25	C	-1.046300	-1.585723	-0.438668
C26	C	-0.963754	-1.585695	-0.438690
C27	C	-0.922469	-1.518468	-0.505889
C28	C	-0.963729	-1.451269	-0.573065
C29	C	-0.922487	-1.652900	-0.371522
C30	C	-0.839936	-1.652875	-0.371543
C31	C	-0.798649	-1.585643	-0.438737
C32	C	-0.839915	-1.518440	-0.505915
C33	C	-0.798630	-1.451214	-0.573114
C34	C	-0.839894	-1.384005	-0.640288
C35	C	-0.922442	-1.384036	-0.640259
C36	C	-0.716101	-1.585611	-0.438765
C37	C	-0.716076	-1.451186	-0.573140
C38	C	-0.175424	-1.518339	-0.506099
C39	C	-0.087568	-1.518524	-0.505840
C40	C	-0.380802	-1.792355	-0.506108
C41	C	-0.380806	-1.909132	-0.506117
C42	C	-0.431257	-1.073732	-0.573368
C43	C	-0.431266	-0.964008	-0.573381
C44	C	-0.330341	-0.963986	-0.438827
C45	C	-0.330337	-1.073708	-0.438809
C46	C	-0.481714	-1.128602	-0.640645
C47	C	-0.532180	-1.073756	-0.707934
C48	C	-0.532189	-0.964032	-0.707947
C49	C	-0.481731	-0.909154	-0.640671
C50	C	-0.330297	-1.585589	-0.950685
C51	C	-0.330321	-1.585654	-1.060409
C52	C	-0.431341	-1.451189	-1.060417
C53	C	-0.431320	-1.451131	-0.950695
C54	C	-0.279771	-1.652788	-0.895822
C55	C	-0.229270	-1.720053	-0.950676
C56	C	-0.229294	-1.720117	-1.060400
C57	C	-0.279819	-1.652917	-1.115270
C58	C	-0.380824	-1.518413	-0.232055
C59	C	-0.380839	-1.518452	-0.115278
H60	H	-0.682467	-1.396431	-0.627853
C61	C	-0.542993	-0.840623	-0.849297
C62	C	-0.587662	-0.903740	-0.781903
H63	H	-0.577241	-0.803398	-0.894952
H64	H	-0.508505	-0.883408	-0.889417
H65	H	-0.512948	-0.792243	-0.809224
H66	H	-0.617702	-0.952125	-0.821975
H67	H	-0.622163	-0.860951	-0.741779
H68	H	-0.956047	-1.329322	-0.694952
H69	H	-0.573266	-1.118445	-0.762700
H70	H	-0.188179	-1.774895	-1.105059
C71	C	-0.224859	-1.726222	-1.272445
C72	C	-0.279849	-1.652990	-1.235882
H73	H	-0.224873	-1.726259	-1.346904
H74	H	-0.238569	-1.793984	-1.247555
H75	H	-0.173836	-1.708075	-1.247686
H76	H	-0.330872	-1.671142	-1.260635
H77	H	-0.266143	-1.585214	-1.260782
H78	H	-0.472475	-1.396477	-1.105101
C79	C	-1.071749	-1.636968	-0.260765
C80	C	-1.091679	-1.659618	-0.364808
H81	H	-1.099764	-1.682594	-0.215166
H82	H	-1.085288	-1.566396	-0.245390
H83	H	-1.016680	-1.646571	-0.251175
H84	H	-1.146748	-1.650007	-0.374399
H85	H	-1.078145	-1.730207	-0.380187
C86	C	-0.556986	-0.752037	-0.613974
C87	C	-0.481752	-0.788543	-0.640642
H88	H	-0.557000	-0.677579	-0.613954
H89	H	-0.570729	-0.776907	-0.546214
H90	H	-0.594251	-0.776856	-0.663684
H91	H	-0.444487	-0.763730	-0.590928
H92	H	-0.468000	-0.763662	-0.708413
H93	H	-0.289260	-0.919296	-0.384055
H94	H	-0.289252	-1.118365	-0.384014
H95	H	-1.079884	-1.396575	-0.627727
C96	C	-0.747027	-1.369356	-0.781627
C97	C	-0.794500	-1.310118	-0.714152
H98	H	-0.718996	-1.323742	-0.827221
H99	H	-0.779228	-1.415107	-0.821809
H100	H	-0.710651	-1.409379	-0.741609
H101	H	-0.830880	-1.270100	-0.754170
H102	H	-0.762296	-1.264348	-0.673967
C103	C	-0.947938	-1.704155	-0.193621
C104	C	-0.967870	-1.726793	-0.297665
H105	H	-0.975957	-1.749780	-0.148026
H106	H	-0.961469	-1.633582	-0.178241
H107	H	-0.892869	-1.713768	-0.184033
H108	H	-1.022938	-1.717172	-0.307255
H109	H	-0.954344	-1.797383	-0.313051
C110	C	-0.531179	-1.318228	-0.961715
C111	C	-0.486830	-1.377203	-0.890392
H112	H	-0.565449	-1.272589	-0.924483
H113	H	-0.561444	-1.364001	-1.004448
H114	H	-0.496718	-1.278083	-1.004573
H115	H	-0.521291	-1.417354	-0.847539
H116	H	-0.456562	-1.331424	-0.847641
H117	H	-0.806346	-1.707600	-0.316845
C118	C	-0.224737	-1.725907	-0.738639
C119	C	-0.279746	-1.652722	-0.775213
H120	H	-0.224726	-1.725867	-0.664180
H121	H	-0.173731	-1.707787	-0.763523
H122	H	-0.238456	-1.793706	-0.763396
H123	H	-0.266023	-1.584922	-0.750462
H124	H	-0.330762	-1.670837	-0.750318
H125	H	-0.188138	-1.774771	-0.905995
H126	H	-0.682507	-1.640334	-0.384076
H127	H	-0.481711	-1.217945	-0.640643
