data_functionalizedCrystal
_audit_creation_method	'MofGen! by Chris Wilmer'
_symmetry_space_group_name_H-M	'P1'
_symmetry_Int_Tables_number	1
_symmetry_cell_setting	triclinic
loop_
_symmetry_equiv_pos_as_xyz
  x,y,z
_cell_length_a	19.851628
_cell_length_b	14.809374
_cell_length_c	14.809374
_cell_angle_alpha	60.797835
_cell_angle_beta	90.004296
_cell_angle_gamma	67.424787
loop_
_atom_site_label
_atom_site_type_symbol
_atom_site_fract_x
_atom_site_fract_y
_atom_site_fract_z
Zr1	Zr	0.744092	0.955109	-0.203554
O2	O	0.661571	1.113040	-0.350726
O3	O	0.757706	0.777341	-0.145475
O4	O	0.785262	0.926485	-0.332010
O5	O	0.625568	0.993393	-0.031794
O6	O	0.896121	0.926471	-0.331992
O7	O	0.634015	0.963896	-0.164191
O8	O	0.846829	0.659680	0.001686
O9	O	0.674861	1.260185	-0.365472
O10	O	0.860360	0.857796	-0.136353
O11	O	0.771323	0.879820	-0.037560
O12	O	0.803767	1.055418	-0.257181
O13	O	0.714730	1.077441	-0.158388
Zr14	Zr	0.907427	1.002131	0.007632
Zr15	Zr	0.920899	0.955087	-0.203525
Zr16	Zr	0.730620	1.002153	0.007604
Zr17	Zr	0.765287	1.189787	-0.227071
Zr18	Zr	0.886232	0.767453	0.031150
O19	O	0.893813	1.179900	-0.050447
O20	O	0.912969	1.113009	-0.350686
O21	O	0.642415	1.179931	-0.050487
O22	O	0.989948	0.844200	0.154805
O23	O	1.009104	0.777310	-0.145434
O24	O	0.738550	0.844231	0.154764
O25	O	1.025951	0.963848	-0.164128
O26	O	0.866257	1.030755	0.136089
O27	O	0.755398	1.030769	0.136071
O28	O	1.017504	0.993344	-0.031731
O29	O	0.815399	1.260167	-0.365449
O30	O	0.836120	0.697073	0.169528
O31	O	0.976659	0.697056	0.169550
O32	O	0.987367	0.659662	0.001708
O33	O	0.664152	1.297578	-0.197630
O34	O	0.804691	1.297561	-0.197607
O35	O	0.847752	0.901823	0.061260
O36	O	0.936789	0.879799	-0.037533
O37	O	0.880196	1.077421	-0.158362
O38	O	0.791159	1.099444	-0.059569
C39	C	0.799247	0.685074	-0.068544
C40	C	0.790250	0.585447	-0.058560
C41	C	0.830406	0.530105	-0.103117
C42	C	0.821107	0.427135	-0.092799
C43	C	0.604600	0.978648	-0.097996
C44	C	0.529541	0.978657	-0.098008
C45	C	0.317334	1.086388	-0.163853
C46	C	0.292057	1.017828	-0.196895
C47	C	0.392129	0.978630	-0.097977
C48	C	0.283668	1.047194	-0.064954
C49	C	0.259393	0.978614	-0.097948
C50	C	0.367844	0.910058	-0.131073
C51	C	0.359451	0.939453	0.000918
C52	C	0.334217	0.870811	-0.032092
C53	C	0.468594	0.978643	-0.097996
C54	C	0.182933	0.978591	-0.097929
C55	C	1.046919	0.978593	-0.097925
C56	C	1.121978	0.978584	-0.097913
C57	C	0.842611	0.919775	-0.362087
C58	C	0.848330	0.899804	-0.451728
C59	C	0.852272	1.272167	-0.127378
C60	C	0.861270	1.371794	-0.137362
C61	C	0.822806	0.988934	-0.551633
C62	C	0.828717	0.968295	-0.644284
C63	C	0.808908	1.037465	0.166165
C64	C	0.803189	1.057436	0.255807
C65	C	1.020407	0.685046	-0.068508
C66	C	1.086468	0.585410	-0.058512
C67	C	0.782396	0.743918	0.195582
C68	C	0.767679	0.664263	0.295208
C69	C	1.003555	0.743891	0.195618
C70	C	1.063898	0.664226	0.295256
C71	C	0.647964	1.213349	-0.391539
C72	C	0.587622	1.293014	-0.491177
C73	C	0.631112	1.272194	-0.127413
C74	C	0.565051	1.371830	-0.137409
C75	C	0.869123	1.213322	-0.391504
C76	C	0.883840	1.292978	-0.491129
C77	C	1.077597	0.527132	-0.105409
C78	C	1.139664	0.433522	-0.096038
C79	C	1.210602	0.398186	-0.039763
C80	C	1.219472	0.456473	0.007135
C81	C	1.157406	0.550087	-0.002243
C82	C	0.800662	0.638343	0.393585
C83	C	0.786831	0.563513	0.487201
C84	C	0.740021	0.514598	0.482438
C85	C	0.707034	0.540524	0.384050
C86	C	0.720861	0.615360	0.290436
C87	C	1.138719	0.615319	0.290478
C88	C	1.195425	0.540476	0.384089
C89	C	1.177308	0.514536	0.482477
C90	C	1.102480	0.563453	0.487252
C91	C	1.045776	0.638300	0.393642
C92	C	0.512801	1.341933	-0.486400
C93	C	0.456098	1.416805	-0.580014
C94	C	0.474215	1.442749	-0.678403
C95	C	0.549043	1.393827	-0.683177
C96	C	0.605746	1.318964	-0.589565
C97	C	0.573924	1.430116	-0.090522
C98	C	0.511860	1.523747	-0.099919
C99	C	0.440923	1.559085	-0.156198
C100	C	0.432052	1.500795	-0.203091
C101	C	0.494116	1.407171	-0.193700
C102	C	0.930654	1.341870	-0.486332
C103	C	0.944497	1.416705	-0.579932
C104	C	0.911521	1.442651	-0.678328
C105	C	0.864705	1.393750	-0.683123
C106	C	0.850867	1.318910	-0.589524
H107	H	0.779842	0.398285	-0.047008
H108	H	0.310939	1.177485	-0.219627
Cl109	Cl	0.571806	1.426450	-0.806875
Cl110	Cl	0.482947	1.333901	-0.252644
H111	H	0.902540	0.400636	-0.183146
Cl112	Cl	0.972120	1.309268	-0.362645
Cl113	Cl	0.859514	0.699819	0.399601
H114	H	0.984853	0.678111	0.397547
Cl115	Cl	0.523028	1.597004	-0.040954
H116	H	0.812745	1.279109	-0.593445
Cl117	Cl	0.342868	1.545231	-0.273833
Cl118	Cl	0.404584	0.888387	0.129991
Cl119	Cl	1.161514	0.647920	0.166801
H120	H	0.748987	0.556593	-0.012772
Cl121	Cl	0.928923	1.536743	-0.795988
H122	H	0.262830	1.050943	-0.280517
Cl123	Cl	0.722648	0.420518	0.600136
H124	H	1.132427	0.386075	-0.134230
Cl125	Cl	1.003348	1.478174	-0.573880
H126	H	0.837859	1.414887	-0.763250
H127	H	0.404082	0.852108	-0.159085
H128	H	0.871674	0.558950	-0.148898
Cl129	Cl	1.288620	0.280494	-0.027980
H130	H	1.256349	0.500654	0.380182
H131	H	0.813698	0.542413	0.567302
Cl132	Cl	1.248603	0.420437	0.600151
H133	H	0.340764	0.779616	0.023626
Cl134	Cl	0.490006	1.309333	-0.362723
Cl135	Cl	0.782315	1.130343	-0.577797
Cl136	Cl	0.227573	1.136722	-0.021852
Cl137	Cl	0.888831	0.758395	-0.425564
Cl138	Cl	0.648190	0.479018	0.378081
H139	H	0.854949	0.876701	-0.627337
H140	H	0.776961	1.149031	-0.761142
Cl141	Cl	0.402922	1.536865	-0.796079
Cl142	Cl	0.988427	0.571538	-0.176167
H143	H	1.277238	0.427688	0.052954
Cl144	Cl	0.699804	1.257464	-0.595588
H145	H	1.087739	0.542321	0.567372
H146	H	1.164639	0.597527	0.035954
H147	H	0.694002	0.636451	0.210338
H148	H	0.395174	1.456626	-0.576106
H149	H	0.631678	1.401353	-0.044688
H150	H	0.390393	1.635322	-0.163836
