data_functionalizedCrystal
_audit_creation_method	'MofGen! by Chris Wilmer'
_symmetry_space_group_name_H-M	'P1'
_symmetry_Int_Tables_number	1
_symmetry_cell_setting	triclinic
loop_
_symmetry_equiv_pos_as_xyz
  x,y,z
_cell_length_a	19.077105
_cell_length_b	16.625546
_cell_length_c	19.077237
_cell_angle_alpha	92.269570
_cell_angle_beta	85.486555
_cell_angle_gamma	87.718759
loop_
_atom_site_label
_atom_site_type_symbol
_atom_site_fract_x
_atom_site_fract_y
_atom_site_fract_z
Zn1	Zn	1.093696	-0.391756	-0.441830
Zn2	Zn	1.593696	0.108244	0.058170
Zn3	Zn	1.088891	-0.520951	-0.323939
Zn4	Zn	1.588891	-0.020951	0.176061
Zn5	Zn	0.971087	-0.380489	-0.319228
Zn6	Zn	1.471087	0.119511	0.180772
Zn7	Zn	0.975779	-0.520895	-0.437056
Zn8	Zn	1.475779	-0.020895	0.062944
O9	O	1.032363	-0.453523	-0.380513
O10	O	1.532363	0.046477	0.119487
O11	O	1.191709	-0.413633	-0.430160
O12	O	1.691709	0.086367	0.069840
O13	O	1.069289	-0.497627	-0.224666
O14	O	1.569289	0.002373	0.275334
O15	O	0.987398	-0.269154	-0.335518
O16	O	1.487398	0.230846	0.164482
O17	O	1.188178	-0.508552	-0.343547
O18	O	1.688178	-0.008552	0.156453
O19	O	1.077479	-0.277432	-0.425592
O20	O	1.577479	0.222568	0.074408
O21	O	0.982739	-0.394430	-0.221204
O22	O	1.482739	0.105570	0.278796
O23	O	0.873059	-0.394375	-0.330889
O24	O	1.373059	0.105625	0.169111
O25	O	0.995396	-0.508456	-0.536338
O26	O	1.495396	-0.008456	-0.036338
O27	O	0.876506	-0.497531	-0.417457
O28	O	1.376506	0.002469	0.082543
O29	O	1.082029	-0.413579	-0.539845
O30	O	1.582029	0.086421	-0.039845
O31	O	1.073839	-0.633773	-0.338919
O32	O	1.573839	-0.133773	0.161081
O33	O	0.990736	-0.633731	-0.422025
O34	O	1.490736	-0.133731	0.077975
C35	C	0.849204	-0.444725	-0.373144
C36	C	1.349204	0.055275	0.126856
C37	C	0.770848	-0.440981	-0.370009
C38	C	1.270848	0.059019	0.129991
C39	C	0.735847	-0.493004	-0.413536
C40	C	1.235847	0.006996	0.086464
C41	C	0.662224	-0.489476	-0.410593
C42	C	1.162224	0.010524	0.089407
C43	C	0.623603	-0.433928	-0.364119
C44	C	1.123603	0.066072	0.135881
C45	C	0.658609	-0.381900	-0.320590
C46	C	1.158609	0.118100	0.179410
C47	C	0.732231	-0.385424	-0.323537
C48	C	1.232231	0.114576	0.176463
C49	C	0.403222	-0.417616	-0.350482
C50	C	0.903222	0.082384	0.149518
C51	C	0.329595	-0.414097	-0.347537
C52	C	0.829595	0.085903	0.152463
C53	C	0.333215	-0.521673	-0.437541
C54	C	0.833215	-0.021673	0.062459
C55	C	0.406838	-0.525196	-0.440481
C56	C	0.906838	-0.025196	0.059519
C57	C	0.441838	-0.473164	-0.396955
C58	C	0.941838	0.026836	0.103045
N59	N	0.548348	-0.430323	-0.361108
N60	N	1.048348	0.069677	0.138892
N61	N	0.517092	-0.476767	-0.399970
N62	N	1.017092	0.023233	0.100030
C63	C	1.032295	-0.663009	-0.380481
C64	C	1.532295	-0.163009	0.119519
C65	C	1.032332	-0.752632	-0.380494
C66	C	1.532332	-0.252632	0.119506
C67	C	1.032457	-1.080817	-0.380572
C68	C	1.532457	-0.580817	0.119428
C69	C	1.032420	-0.989506	-0.380552
C70	C	1.532420	-0.489506	0.119448
C71	C	1.032394	-0.916728	-0.380532
C72	C	1.532394	-0.416728	0.119468
C73	C	1.032358	-0.825411	-0.380513
C74	C	1.532358	-0.325411	0.119487
C75	C	1.216237	-0.462356	-0.387912
C76	C	1.716237	0.037644	0.112088
C77	C	1.294594	-0.466120	-0.391064
C78	C	1.794594	0.033880	0.108936
C79	C	1.039772	-0.462268	-0.564385
C80	C	1.539772	0.037732	-0.064385
C81	C	1.042929	-0.465995	-0.642741
C82	C	1.542929	0.034005	-0.142741
C83	C	1.032451	-0.243220	-0.380562
C84	C	1.532451	0.256780	0.119438
C85	C	1.032489	-0.153602	-0.380583
C86	C	1.532489	0.346398	0.119417
C87	C	1.065576	-0.492783	-1.083993
C88	C	1.565576	0.007217	-0.583993
C89	C	1.062599	-0.489276	-1.010369
C90	C	1.562599	0.010724	-0.510369
C91	C	1.016053	-0.433789	-0.971763
C92	C	1.516053	0.066211	-0.471763
C93	C	0.972476	-0.381812	-1.006784
C94	C	1.472476	0.118188	-0.506784
C95	C	0.975450	-0.385324	-1.080407
C96	C	1.475450	0.114676	-0.580407
C97	C	1.002325	-0.417529	-0.751384
C98	C	1.502325	0.082471	-0.251384
C99	C	0.999356	-0.414020	-0.677757
C100	C	1.499356	0.085980	-0.177757
C101	C	1.089479	-0.521485	-0.681347
C102	C	1.589479	-0.021485	-0.181347
C103	C	1.092451	-0.524988	-0.754970
C104	C	1.592451	-0.024988	-0.254970
C105	C	1.048872	-0.473014	-0.789985
C106	C	1.548872	0.026986	-0.289985
N107	N	1.013011	-0.430202	-0.896508
N108	N	1.513011	0.069798	-0.396508
N109	N	1.051911	-0.476606	-0.865238
N110	N	1.551911	0.023394	-0.365238
C111	C	1.025024	-0.444755	-0.197358
C112	C	1.525024	0.055245	0.302642
C113	C	1.022004	-0.440808	-0.119009
C114	C	1.522004	0.059192	0.380991
H115	H	0.760728	-0.343057	-0.288096
H116	H	1.260728	0.156943	0.211904
F117	F	1.135856	-0.576796	-0.644076
F118	F	1.635856	-0.076796	-0.144076
F119	F	0.929076	-0.330002	-1.117673
F120	F	1.429076	0.169998	-0.617673
H121	H	0.934574	-0.336638	-0.975346
H122	H	1.434574	0.163362	-0.475346
F123	F	0.624976	-0.544847	-0.456921
F124	F	1.124976	-0.044847	0.043079
H125	H	0.767287	-0.538240	-0.451378
H126	H	1.267287	-0.038240	0.048622
H127	H	0.438278	-0.570431	-0.478324
H128	H	0.938278	-0.070431	0.021676
H129	H	0.961453	-0.368831	-0.646326
H130	H	1.461453	0.131169	-0.146326
H131	H	1.103483	-0.537962	-1.115421
H132	H	1.603483	-0.037962	-0.615421
F133	F	0.440462	-0.362237	-0.304159
F134	F	0.940462	0.137763	0.195841
H135	H	0.304710	-0.564033	-0.472979
H136	H	0.804710	-0.064033	0.027021
F137	F	0.288493	-0.354977	-0.298066
F138	F	0.788493	0.145023	0.201934
F139	F	0.617504	-0.322776	-0.271133
F140	F	1.117504	0.177224	0.228867
H141	H	1.098072	-0.531609	-0.981862
H142	H	1.598072	-0.031609	-0.481862
F143	F	0.955918	-0.362241	-0.788639
F144	F	1.455918	0.137759	-0.288639
H145	H	1.130354	-0.570172	-0.786398
H146	H	1.630354	-0.070172	-0.286398
