data_functionalizedCrystal
_audit_creation_method	'MofGen! by Chris Wilmer'
_symmetry_space_group_name_H-M	'P1'
_symmetry_Int_Tables_number	1
_symmetry_cell_setting	triclinic
loop_
_symmetry_equiv_pos_as_xyz
  x,y,z
_cell_length_a	10.654562
_cell_length_b	10.489741
_cell_length_c	9.130313
_cell_angle_alpha	89.999004
_cell_angle_beta	89.996930
_cell_angle_gamma	84.514639
loop_
_atom_site_label
_atom_site_type_symbol
_atom_site_fract_x
_atom_site_fract_y
_atom_site_fract_z
O1	O	1.667909	0.179233	-0.121895
O2	O	1.302440	0.196286	-0.121877
O3	O	1.493491	0.002158	-0.121877
O4	O	1.476858	0.373361	-0.121894
O5	O	1.493488	0.002163	0.121721
O6	O	1.302438	0.196291	0.121722
O7	O	1.667906	0.179239	0.121704
Cu8	Cu	1.485172	0.187765	0.143956
Cu9	Cu	1.485175	0.187759	-0.144128
O10	O	1.476856	0.373366	0.121705
C11	C	1.255641	0.195033	-0.000075
C12	C	1.116197	0.191277	-0.000068
C13	C	1.050664	0.189528	0.132707
C14	C	0.919640	0.186009	0.132682
C15	C	0.919692	0.185993	-0.132902
C16	C	1.050715	0.189503	-0.132877
C17	C	1.116145	0.191301	0.265516
C18	C	1.050612	0.189554	0.398301
C19	C	0.919588	0.186034	0.398276
C20	C	0.854097	0.184263	0.265467
C21	C	1.492233	-0.045370	-0.000079
C22	C	1.488475	-0.186998	-0.000081
C23	C	1.366915	-0.255085	-0.000086
C24	C	1.424338	-0.347230	0.120018
C25	C	1.424369	-0.347210	-0.120151
C26	C	1.545947	-0.277278	0.120122
C27	C	1.545962	-0.277248	-0.120155
C28	C	1.603472	-0.369366	-0.000022
C29	C	1.714706	0.180492	-0.000101
C30	C	1.854150	0.184248	-0.000118
C31	C	1.478113	0.420895	-0.000097
C32	C	1.481872	0.562523	-0.000104
N33	N	1.485179	0.187769	0.346578
N34	N	1.485177	0.187746	-0.346751
C35	C	1.569798	0.101839	0.423230
C36	C	1.569795	0.101823	0.576567
C37	C	1.400549	0.273680	0.576587
C38	C	1.400548	0.273688	0.423253
C39	C	1.654430	0.015920	0.346555
C40	C	1.739056	-0.070017	0.423207
C41	C	1.739053	-0.070032	0.576544
C42	C	1.654423	0.015889	0.653229
H43	H	1.103944	0.190986	0.506429
H44	H	1.654443	0.015927	0.221701
Br45	Br	1.770203	-0.451820	0.000070
Br46	Br	1.853886	-0.186669	0.680571
Br47	Br	1.139662	0.191869	-0.313073
H48	H	1.372902	-0.378217	0.221562
Br49	Br	1.338607	-0.398824	-0.289377
Br50	Br	1.293961	0.196092	0.265556
Br51	Br	0.676283	0.179443	0.265437
Br52	Br	1.654409	0.015849	0.861331
H53	H	0.866236	0.184601	0.506396
H54	H	1.597336	-0.246466	0.221774
Br55	Br	1.200334	-0.172259	0.000109
H56	H	0.866359	0.184554	-0.241029
Br57	Br	1.631623	-0.225542	-0.289413
H58	H	1.807953	-0.139978	0.360762
H59	H	1.331648	0.343635	0.639034
Br60	Br	1.285696	0.390304	0.319221
