data_functionalizedCrystal
_audit_creation_method	'MofGen! by Chris Wilmer'
_symmetry_space_group_name_H-M	'P1'
_symmetry_Int_Tables_number	1
_symmetry_cell_setting	triclinic
loop_
_symmetry_equiv_pos_as_xyz
  x,y,z
_cell_length_a	19.077236
_cell_length_b	19.077713
_cell_length_c	19.077174
_cell_angle_alpha	94.475462
_cell_angle_beta	85.294282
_cell_angle_gamma	90.118033
loop_
_atom_site_label
_atom_site_type_symbol
_atom_site_fract_x
_atom_site_fract_y
_atom_site_fract_z
Zn1	Zn	1.104346	-0.254104	-0.452610
Zn2	Zn	1.437679	0.079229	-0.119277
Zn3	Zn	1.771013	0.412563	0.214056
Zn4	Zn	1.104254	-0.367254	-0.339459
Zn5	Zn	1.437588	-0.033921	-0.006125
Zn6	Zn	1.770921	0.299412	0.327208
Zn7	Zn	0.981728	-0.254115	-0.329994
Zn8	Zn	1.315061	0.079219	0.003340
Zn9	Zn	1.648395	0.412552	0.336673
Zn10	Zn	0.991522	-0.376293	-0.452942
Zn11	Zn	1.324856	-0.042960	-0.119608
Zn12	Zn	1.658189	0.290373	0.213725
O13	O	1.045463	-0.312942	-0.393751
O14	O	1.378796	0.020392	-0.060418
O15	O	1.712129	0.353725	0.272916
O16	O	1.202829	-0.265326	-0.441423
O17	O	1.536162	0.068007	-0.108090
O18	O	1.869495	0.401340	0.225244
O19	O	1.083864	-0.348468	-0.239395
O20	O	1.417197	-0.015134	0.093939
O21	O	1.750530	0.318199	0.427272
O22	O	0.993933	-0.155627	-0.342159
O23	O	1.327266	0.177706	-0.008826
O24	O	1.660599	0.511039	0.324507
O25	O	1.202761	-0.348457	-0.358291
O26	O	1.536095	-0.015124	-0.024958
O27	O	1.869428	0.318209	0.308376
O28	O	1.084020	-0.155620	-0.432245
O29	O	1.417353	0.177714	-0.098912
O30	O	1.750686	0.511047	0.234421
O31	O	0.993844	-0.265345	-0.232441
O32	O	1.327177	0.067989	0.100892
O33	O	1.660511	0.401322	0.434226
O34	O	0.884532	-0.274109	-0.342481
O35	O	1.217865	0.059224	-0.009147
O36	O	1.551199	0.392557	0.324186
O37	O	1.010626	-0.363863	-0.551706
O38	O	1.343959	-0.030530	-0.218373
O39	O	1.677293	0.302804	0.114961
O40	O	0.891728	-0.363873	-0.432810
O41	O	1.225061	-0.030540	-0.099476
O42	O	1.558395	0.302793	0.233857
O43	O	1.093517	-0.274091	-0.551463
O44	O	1.426850	0.059242	-0.218129
O45	O	1.760184	0.392576	0.115204
O46	O	1.093361	-0.466939	-0.358612
O47	O	1.426694	-0.133606	-0.025279
O48	O	1.760028	0.199727	0.308054
O49	O	1.010537	-0.473580	-0.441987
O50	O	1.343870	-0.140247	-0.108654
O51	O	1.677204	0.193087	0.224679
C52	C	0.862592	-0.319974	-0.386654
C53	C	1.195925	0.013360	-0.053321
C54	C	1.529258	0.346693	0.280012
C55	C	0.784360	-0.323000	-0.383636
C56	C	1.117693	0.010334	-0.050303
C57	C	1.451027	0.343667	0.283031
C58	C	0.747648	-0.281214	-0.425572
C59	C	1.080981	0.052120	-0.092239
C60	C	1.414315	0.385453	0.241095
C61	C	0.674141	-0.284053	-0.422730
C62	C	1.007474	0.049280	-0.089396
C63	C	1.340807	0.382613	0.243937
C64	C	0.637347	-0.328683	-0.377954
C65	C	0.970680	0.004650	-0.044621
C66	C	1.304013	0.337983	0.288712
C67	C	0.674064	-0.370471	-0.336013
C68	C	1.007397	-0.037138	-0.002680
C69	C	1.340730	0.296196	0.330653
C70	C	0.747569	-0.367627	-0.338853
C71	C	1.080903	-0.034294	-0.005519
C72	C	1.414236	0.299039	0.327814
C73	C	0.417503	-0.341818	-0.364810
C74	C	0.750837	-0.008485	-0.031477
C75	C	1.084170	0.324848	0.301856
C76	C	0.343993	-0.344660	-0.361976
C77	C	0.677326	-0.011327	-0.028643
C78	C	1.010659	0.322006	0.304691
C79	C	0.344075	-0.258241	-0.448692
C80	C	0.677408	0.075092	-0.115358
C81	C	1.010741	0.408425	0.217975
C82	C	0.417582	-0.255405	-0.451530
C83	C	0.750915	0.077929	-0.118197
C84	C	1.084249	0.411262	0.215137
C85	C	0.454292	-0.297190	-0.409586
C86	C	0.787626	0.036144	-0.076253
C87	C	1.120959	0.369477	0.257080
N88	N	0.562211	-0.331589	-0.375049
N89	N	0.895544	0.001745	-0.041716
N90	N	1.228877	0.335078	0.291617
N91	N	0.529427	-0.294280	-0.412488
N92	N	0.862760	0.039053	-0.079155
N93	N	1.196094	0.372386	0.254179
C94	C	1.053022	-0.495796	-0.401379
C95	C	1.386355	-0.162462	-0.068046
C96	C	1.719688	0.170871	0.265288
C97	C	1.056321	-0.574020	-0.404668
C98	C	1.389654	-0.240687	-0.071335
C99	C	1.722987	0.092647	0.261998
C100	C	1.079980	-1.014331	-0.428239
C101	C	1.413313	-0.680998	-0.094906
C102	C	1.746646	-0.347664	0.238427
C103	C	1.076872	-0.940831	-0.425142
C104	C	1.410205	-0.607498	-0.091809
C105	C	1.743538	-0.274164	0.241524
C106	C	1.028449	-0.904149	-0.376662
C107	C	1.361782	-0.570816	-0.043328
C108	C	1.695115	-0.237482	0.290005
C109	C	0.983136	-0.940970	-0.331271
C110	C	1.316469	-0.607637	0.002062
C111	C	1.649802	-0.274304	0.335396
C112	C	0.986248	-1.014469	-0.334365
C113	C	1.319581	-0.681135	-0.001032
C114	C	1.652914	-0.347802	0.332302
C115	C	1.014120	-0.684340	-0.362372
C116	C	1.347453	-0.351006	-0.029038
C117	C	1.680786	-0.017673	0.304295
C118	C	1.011010	-0.610836	-0.359282
C119	C	1.344343	-0.277503	-0.025949
C120	C	1.677676	0.055830	0.307384
C121	C	1.104747	-0.610702	-0.453153
C122	C	1.438080	-0.277369	-0.119820
C123	C	1.771414	0.055965	0.213514
C124	C	1.107852	-0.684202	-0.456246
C125	C	1.441185	-0.350869	-0.122913
C126	C	1.774518	-0.017535	0.210421
C127	C	1.062541	-0.721017	-0.410853
C128	C	1.395875	-0.387683	-0.077519
C129	C	1.729208	-0.054350	0.255814
N130	N	1.025269	-0.829021	-0.373496
N131	N	1.358603	-0.495687	-0.040163
N132	N	1.691936	-0.162354	0.293170
N133	N	1.065725	-0.796144	-0.414015
N134	N	1.399058	-0.462810	-0.080682
N135	N	1.732391	-0.129477	0.252652
C136	C	1.229048	-0.305882	-0.400876
C137	C	1.562381	0.027451	-0.067543
C138	C	1.895715	0.360784	0.265791
C139	C	1.307281	-0.302874	-0.403912
C140	C	1.640614	0.030459	-0.070579
C141	C	1.973948	0.363792	0.262755
C142	C	1.053174	-0.319984	-0.577921
C143	C	1.386508	0.013349	-0.244587
C144	C	1.719841	0.346683	0.088746
C145	C	1.056460	-0.322985	-0.656403
C146	C	1.389794	0.010348	-0.323069
C147	C	1.723127	0.343682	0.010264
C148	C	1.037894	-0.129373	-0.386110
C149	C	1.371227	0.203960	-0.052776
C150	C	1.704561	0.537293	0.280557
C151	C	1.034669	-0.051147	-0.382853
C152	C	1.368002	0.282186	-0.049520
C153	C	1.701335	0.615519	0.283813
C154	C	1.011138	-0.281118	-0.689653
C155	C	1.344471	0.052215	-0.356319
C156	C	1.677805	0.385549	-0.022986
C157	C	1.014223	-0.283944	-0.763395
C158	C	1.347557	0.049390	-0.430062
C159	C	1.680890	0.382723	-0.096728
C160	C	1.062635	-0.328633	-0.803886
C161	C	1.395968	0.004700	-0.470553
C162	C	1.729302	0.338033	-0.137219
C163	C	1.107960	-0.370505	-0.770631
C164	C	1.441293	-0.037172	-0.437298
C165	C	1.774626	0.296162	-0.103964
C166	C	1.104870	-0.367683	-0.696890
C167	C	1.438204	-0.034349	-0.363557
C168	C	1.771537	0.298984	-0.030223
C169	C	1.076897	-0.341719	-1.024817
C170	C	1.410230	-0.008386	-0.691484
C171	C	1.743563	0.324948	-0.358150
C172	C	1.079984	-0.344537	-1.098563
C173	C	1.413317	-0.011203	-0.765229
C174	C	1.746651	0.322130	-0.431896
C175	C	0.986246	-0.257976	-1.091322
C176	C	1.319580	0.075357	-0.757988
C177	C	1.652913	0.408691	-0.424655
C178	C	0.983164	-0.255154	-1.017580
C179	C	1.316498	0.078179	-0.684246
C180	C	1.649831	0.411512	-0.350913
C181	C	1.028486	-0.297029	-0.984331
C182	C	1.361819	0.036305	-0.650998
C183	C	1.695153	0.369638	-0.317664
N184	N	1.065791	-0.331521	-0.879263
N185	N	1.399125	0.001812	-0.545929
N186	N	1.732458	0.335146	-0.212596
N187	N	1.025326	-0.294144	-0.908956
N188	N	1.358659	0.039189	-0.575622
N189	N	1.691993	0.372522	-0.242289
C190	C	1.037819	-0.305874	-0.210298
C191	C	1.371153	0.027459	0.123036
C192	C	1.704486	0.360792	0.456369
C193	C	1.034661	-0.302670	-0.131813
C194	C	1.367995	0.030664	0.201520
C195	C	1.701328	0.363997	0.534854
H196	H	0.777459	-0.401654	-0.304703
H197	H	1.110793	-0.068320	0.028630
H198	H	1.444126	0.265013	0.361964
H199	H	0.943740	-0.218765	-0.984616
H200	H	1.277074	0.114568	-0.651283
H201	H	1.610407	0.447901	-0.317950
C202	C	0.833903	-0.272018	-0.523364
C203	C	1.167236	0.061315	-0.190030
C204	C	1.500569	0.394649	0.143303
C205	C	0.788089	-0.232156	-0.474793
C206	C	1.121422	0.101177	-0.141460
C207	C	1.454755	0.434511	0.191874
H208	H	0.858863	-0.241729	-0.553752
H209	H	1.192197	0.091604	-0.220419
H210	H	1.525530	0.424938	0.112914
H211	H	0.866286	-0.296491	-0.498795
H212	H	1.199619	0.036843	-0.165462
H213	H	1.532952	0.370176	0.167872
H214	H	0.807625	-0.304861	-0.550492
H215	H	1.140958	0.028472	-0.217159
H216	H	1.474292	0.361806	0.116174
H217	H	0.814367	-0.199316	-0.447661
H218	H	1.147700	0.134017	-0.114328
H219	H	1.481033	0.467350	0.219006
H220	H	0.755701	-0.207672	-0.499364
H221	H	1.089035	0.125662	-0.166031
H222	H	1.422368	0.458995	0.167303
C223	C	1.120130	-1.040128	-0.550107
C224	C	1.453463	-0.706794	-0.216774
C225	C	1.786797	-0.373461	0.116559
C226	C	1.133204	-1.054651	-0.481535
C227	C	1.466537	-0.721317	-0.148201
C228	C	1.799870	-0.387984	0.185132
H229	H	1.152992	-1.065016	-0.583009
H230	H	1.486325	-0.731683	-0.249675
H231	H	1.819659	-0.398350	0.083658
H232	H	1.073779	-1.054433	-0.559070
H233	H	1.407112	-0.721099	-0.225737
H234	H	1.740445	-0.387766	0.107596
H235	H	1.124766	-0.991084	-0.554750
H236	H	1.458099	-0.657751	-0.221417
H237	H	1.791432	-0.324417	0.111917
H238	H	1.128563	-1.103694	-0.476890
H239	H	1.461896	-0.770361	-0.143557
H240	H	1.795230	-0.437027	0.189776
H241	H	1.179566	-1.040350	-0.472569
H242	H	1.512900	-0.707017	-0.139236
H243	H	1.846233	-0.373683	0.194098
C244	C	0.894671	-1.100498	-0.324294
C245	C	1.228004	-0.767165	0.009039
C246	C	1.561338	-0.433832	0.342373
C247	C	0.936440	-1.054942	-0.284478
C248	C	1.269773	-0.721609	0.048855
C249	C	1.603106	-0.388276	0.382189
H250	H	0.863926	-1.125487	-0.293492
H251	H	1.197259	-0.792153	0.039841
H252	H	1.530593	-0.458820	0.373175
H253	H	0.867798	-1.074054	-0.352778
H254	H	1.201132	-0.740721	-0.019444
H255	H	1.534465	-0.407387	0.313889
H256	H	0.923964	-1.132858	-0.353607
H257	H	1.257297	-0.799525	-0.020274
H258	H	1.590631	-0.466192	0.313060
H259	H	0.907147	-1.022579	-0.255168
H260	H	1.240480	-0.689246	0.078165
H261	H	1.573813	-0.355912	0.411498
H262	H	0.963314	-1.081389	-0.255982
H263	H	1.296648	-0.748055	0.077351
H264	H	1.629981	-0.414722	0.410684
H265	H	0.971720	-0.244723	-0.656690
H266	H	1.305053	0.088611	-0.323357
H267	H	1.638386	0.421944	0.009977
C268	C	0.949353	-0.223872	-1.201146
C269	C	1.282686	0.109462	-0.867813
C270	C	1.616019	0.442795	-0.534479
C271	C	0.936423	-0.211957	-1.127871
C272	C	1.269757	0.121376	-0.794537
C273	C	1.603090	0.454709	-0.461204
H274	H	0.918587	-0.195465	-1.223707
H275	H	1.251921	0.137869	-0.890374
H276	H	1.585254	0.471202	-0.557041
H277	H	0.996718	-0.212211	-1.214635
H278	H	1.330052	0.121122	-0.881301
H279	H	1.663385	0.454456	-0.547968
H280	H	0.941509	-0.272020	-1.214790
H281	H	1.274842	0.061313	-0.881457
H282	H	1.608176	0.394647	-0.548124
H283	H	0.944272	-0.163810	-1.114225
H284	H	1.277606	0.169523	-0.780892
H285	H	1.610939	0.502856	-0.447559
H286	H	0.889047	-0.223613	-1.114376
H287	H	1.222380	0.109720	-0.781043
H288	H	1.555713	0.443053	-0.447710
H289	H	1.113768	-0.910856	-0.462099
H290	H	1.447101	-0.577522	-0.128765
H291	H	1.780435	-0.244189	0.204568
H292	H	0.977224	-0.714305	-0.325409
H293	H	1.310558	-0.380972	0.007924
H294	H	1.643891	-0.047639	0.341257
H295	H	0.943711	-0.911099	-0.291794
H296	H	1.277044	-0.577766	0.041540
H297	H	1.610378	-0.244433	0.374873
H298	H	1.119410	-0.380929	-1.131529
H299	H	1.452743	-0.047596	-0.798196
H300	H	1.786076	0.285738	-0.464862
C301	C	0.894577	-0.255105	-0.780025
C302	C	1.227910	0.078228	-0.446691
C303	C	1.561243	0.411562	-0.113358
C304	C	0.964399	-0.237918	-0.799934
C305	C	1.297732	0.095415	-0.466601
C306	C	1.631066	0.428749	-0.133268
H307	H	0.863815	-0.226686	-0.802577
H308	H	1.197149	0.106648	-0.469244
H309	H	1.530482	0.439981	-0.135911
H310	H	0.886733	-0.303243	-0.793683
H311	H	1.220067	0.030090	-0.460350
H312	H	1.553400	0.363424	-0.127016
H313	H	0.885827	-0.247030	-0.730310
H314	H	1.219161	0.086303	-0.396977
H315	H	1.552494	0.419636	-0.063644
H316	H	0.973150	-0.245998	-0.849648
H317	H	1.306483	0.087336	-0.516315
H318	H	1.639817	0.420669	-0.182982
H319	H	0.972246	-0.189769	-0.786281
H320	H	1.305579	0.143565	-0.452947
H321	H	1.638912	0.476898	-0.119614
C322	C	0.561498	-0.250042	-0.456884
C323	C	0.894831	0.083292	-0.123551
C324	C	1.228165	0.416625	0.209783
C325	C	0.633786	-0.238126	-0.468832
C326	C	0.967120	0.095207	-0.135499
C327	C	1.300453	0.428541	0.197834
H328	H	0.536587	-0.221683	-0.485345
H329	H	0.869920	0.111650	-0.152012
H330	H	1.203253	0.444983	0.181321
H331	H	0.551847	-0.298198	-0.468643
H332	H	0.885181	0.035136	-0.135310
H333	H	1.218514	0.368469	0.198023
H334	H	0.547034	-0.238313	-0.408560
H335	H	0.880367	0.095021	-0.075227
H336	H	1.213701	0.428354	0.258106
H337	H	0.648252	-0.249860	-0.517155
H338	H	0.981585	0.083473	-0.183822
H339	H	1.314918	0.416807	0.149511
H340	H	0.643442	-0.189959	-0.457078
H341	H	0.976775	0.143374	-0.123744
H342	H	1.310108	0.476707	0.209589
C343	C	1.200224	-0.676681	-0.548694
C344	C	1.533557	-0.343348	-0.215360
C345	C	1.866890	-0.010014	0.117973
C346	C	1.161099	-0.724519	-0.509518
C347	C	1.494432	-0.391186	-0.176185
C348	C	1.827766	-0.057852	0.157148
H349	H	1.233102	-0.701572	-0.581575
H350	H	1.566435	-0.368239	-0.248242
H351	H	1.899769	-0.034906	0.085091
H352	H	1.169462	-0.650258	-0.573298
H353	H	1.502795	-0.316925	-0.239965
H354	H	1.836128	0.016408	0.093369
H355	H	1.224651	-0.645776	-0.517774
H356	H	1.557984	-0.312443	-0.184441
H357	H	1.891318	0.020890	0.148892
H358	H	1.136667	-0.755421	-0.540437
H359	H	1.470001	-0.422087	-0.207104
H360	H	1.803334	-0.088754	0.126229
H361	H	1.191865	-0.750954	-0.484913
H362	H	1.525199	-0.417620	-0.151579
H363	H	1.858532	-0.084287	0.181754
C364	C	0.257726	-0.353853	-0.264191
C365	C	0.591059	-0.020520	0.069142
C366	C	0.924393	0.312814	0.402476
C367	C	0.303547	-0.393718	-0.312751
C368	C	0.636881	-0.060385	0.020582
C369	C	0.970214	0.272949	0.353915
H370	H	0.232755	-0.384140	-0.233808
H371	H	0.566088	-0.050807	0.099526
H372	H	0.899422	0.282527	0.432859
H373	H	0.283994	-0.321013	-0.237062
H374	H	0.617327	0.012321	0.096272
H375	H	0.950660	0.345654	0.429605
H376	H	0.225346	-0.329379	-0.288773
H377	H	0.558679	0.003954	0.044560
H378	H	0.892012	0.337288	0.377894
H379	H	0.335931	-0.418188	-0.288169
H380	H	0.669265	-0.084855	0.045164
H381	H	1.002598	0.248479	0.378497
H382	H	0.277278	-0.426571	-0.339884
H383	H	0.610611	-0.093238	-0.006550
H384	H	0.943944	0.240096	0.326783
C385	C	1.169876	-0.427546	-1.039392
C386	C	1.503209	-0.094212	-0.706058
C387	C	1.836542	0.239121	-0.372725
C388	C	1.126726	-0.387734	-0.988276
C389	C	1.460059	-0.054401	-0.654943
C390	C	1.793393	0.278933	-0.321610
H391	H	1.200644	-0.455949	-1.016829
H392	H	1.533978	-0.122615	-0.683496
H393	H	1.867311	0.210718	-0.350163
H394	H	1.141526	-0.456750	-1.068079
H395	H	1.474860	-0.123417	-0.734746
H396	H	1.808193	0.209917	-0.401412
H397	H	1.196729	-0.396936	-1.067925
H398	H	1.530063	-0.063602	-0.734592
H399	H	1.863396	0.269731	-0.401259
H400	H	1.099868	-0.418344	-0.959746
H401	H	1.433202	-0.085011	-0.626412
H402	H	1.766535	0.248322	-0.293079
H403	H	1.155079	-0.358527	-0.959577
H404	H	1.488412	-0.025194	-0.626243
H405	H	1.821746	0.308139	-0.292910
H406	H	1.141638	-0.580721	-0.490110
H407	H	1.474971	-0.247387	-0.156776
H408	H	1.808304	0.085946	0.176557
H409	H	1.141782	-0.401770	-0.669819
H410	H	1.475115	-0.068436	-0.336486
H411	H	1.808449	0.264897	-0.003152
H412	H	0.447384	-0.375843	-0.330658
H413	H	0.780718	-0.042510	0.002676
H414	H	1.114051	0.290823	0.336009
H415	H	1.147374	-0.406896	-0.803605
H416	H	1.480707	-0.073563	-0.470271
H417	H	1.814041	0.259771	-0.136938
H418	H	0.447535	-0.219065	-0.487994
H419	H	0.780868	0.114268	-0.154660
H420	H	1.114202	0.447602	0.178673
H421	H	0.314177	-0.224221	-0.482839
H422	H	0.647511	0.109112	-0.149505
H423	H	0.980844	0.442445	0.183828
H424	H	0.644100	-0.406806	-0.299553
H425	H	0.977433	-0.073473	0.033781
H426	H	1.310767	0.259861	0.367114
H427	H	0.971575	-0.580973	-0.319802
H428	H	1.304908	-0.247640	0.013532
H429	H	1.638242	0.085693	0.346865
