data_functionalizedCrystal
_audit_creation_method	'MofGen! by Chris Wilmer'
_symmetry_space_group_name_H-M	'P1'
_symmetry_Int_Tables_number	1
_symmetry_cell_setting	triclinic
loop_
_symmetry_equiv_pos_as_xyz
  x,y,z
_cell_length_a	15.995350
_cell_length_b	23.532357
_cell_length_c	15.072220
_cell_angle_alpha	89.993295
_cell_angle_beta	89.991149
_cell_angle_gamma	83.160334
loop_
_atom_site_label
_atom_site_type_symbol
_atom_site_fract_x
_atom_site_fract_y
_atom_site_fract_z
O1	O	1.110366	0.073406	-0.073718
O2	O	1.360366	0.323406	0.176282
O3	O	1.610366	0.573406	0.426282
O4	O	1.860366	0.823406	0.676282
O5	O	0.866513	0.082471	-0.073738
O6	O	1.116513	0.332471	0.176262
O7	O	1.366513	0.582471	0.426262
O8	O	1.616513	0.832471	0.676262
O9	O	0.995815	-0.004967	-0.073709
O10	O	1.245815	0.245033	0.176291
O11	O	1.495815	0.495033	0.426291
O12	O	1.745815	0.745033	0.676291
O13	O	0.981064	0.160843	-0.073747
O14	O	1.231064	0.410843	0.176253
O15	O	1.481064	0.660843	0.426253
O16	O	1.731064	0.910843	0.676253
O17	O	0.995783	-0.004962	0.073856
O18	O	1.245783	0.245038	0.323856
O19	O	1.495783	0.495038	0.573856
O20	O	1.745783	0.745038	0.823856
O21	O	0.866481	0.082476	0.073827
O22	O	1.116481	0.332476	0.323827
O23	O	1.366481	0.582476	0.573827
O24	O	1.616481	0.832476	0.823827
O25	O	1.110334	0.073410	0.073847
O26	O	1.360334	0.323410	0.323847
O27	O	1.610334	0.573410	0.573847
O28	O	1.860334	0.823410	0.823847
Zn29	Zn	0.988403	0.077944	0.097266
Zn30	Zn	1.238403	0.327944	0.347266
Zn31	Zn	1.488403	0.577944	0.597266
Zn32	Zn	1.738403	0.827944	0.847266
Zn33	Zn	0.988444	0.077937	-0.097157
Zn34	Zn	1.238444	0.327937	0.152843
Zn35	Zn	1.488444	0.577937	0.402843
Zn36	Zn	1.738444	0.827937	0.652843
O37	O	0.981032	0.160848	0.073818
O38	O	1.231032	0.410848	0.323818
O39	O	1.481032	0.660848	0.573818
O40	O	1.731032	0.910848	0.823818
C41	C	0.835305	0.082098	0.000042
C42	C	1.085305	0.332098	0.250042
C43	C	1.335305	0.582098	0.500042
C44	C	1.585305	0.832098	0.750042
C45	C	0.742365	0.080975	0.000036
C46	C	0.992365	0.330975	0.250036
C47	C	1.242365	0.580975	0.500036
C48	C	1.492365	0.830975	0.750036
C49	C	0.404652	0.076940	0.000055
C50	C	0.654652	0.326940	0.250055
C51	C	0.904652	0.576940	0.500055
C52	C	1.154652	0.826940	0.750055
C53	C	0.452620	0.014668	0.000398
C54	C	0.702620	0.264668	0.250398
C55	C	0.952620	0.514668	0.500398
C56	C	1.202620	0.764668	0.750398
C57	C	0.549301	0.015792	0.000059
C58	C	0.799301	0.265792	0.250059
C59	C	1.049301	0.515792	0.500059
C60	C	1.299301	0.765792	0.750059
C61	C	0.572195	0.078941	0.000046
C62	C	0.822195	0.328941	0.250046
C63	C	1.072195	0.578941	0.500046
C64	C	1.322195	0.828941	0.750046
C65	C	0.530863	0.109653	-0.084224
C66	C	0.780863	0.359653	0.165776
C67	C	1.030863	0.609653	0.415776
C68	C	1.280863	0.859653	0.665776
C69	C	0.434240	0.108089	-0.084288
C70	C	0.684240	0.358089	0.165712
C71	C	0.934240	0.608089	0.415712
C72	C	1.184240	0.858089	0.665712
C73	C	0.433854	0.109381	0.083520
C74	C	0.683854	0.359381	0.333520
C75	C	0.933854	0.609381	0.583520
C76	C	1.183854	0.859381	0.833520
C77	C	0.530800	0.109366	0.084628
C78	C	0.780800	0.359366	0.334628
C79	C	1.030800	0.609366	0.584628
C80	C	1.280800	0.859366	0.834628
C81	C	0.666883	0.080076	0.000038
C82	C	0.916883	0.330076	0.250038
C83	C	1.166883	0.580076	0.500038
C84	C	1.416883	0.830076	0.750038
C85	C	0.309964	0.075807	0.000057
C86	C	0.559964	0.325807	0.250057
C87	C	0.809964	0.575807	0.500057
C88	C	1.059964	0.825807	0.750057
C89	C	0.995430	-0.026183	0.000076
C90	C	1.245430	0.223817	0.250076
C91	C	1.495430	0.473817	0.500076
C92	C	1.745430	0.723817	0.750076
C93	C	0.994321	-0.089406	0.000084
C94	C	1.244321	0.160594	0.250084
C95	C	1.494321	0.410594	0.500084
C96	C	1.744321	0.660594	0.750084
C97	C	0.987374	-0.481446	-0.080402
C98	C	1.237374	-0.231446	0.169598
C99	C	1.487374	0.018554	0.419598
C100	C	1.737374	0.268554	0.669598
C101	C	0.986319	-0.540850	-0.080407
C102	C	1.236319	-0.290850	0.169593
C103	C	1.486319	-0.040850	0.419593
C104	C	1.736319	0.209150	0.669593
O105	O	0.985760	-0.571571	-0.148816
O106	O	1.235760	-0.321571	0.101184
O107	O	1.485760	-0.071571	0.351184
O108	O	1.735760	0.178429	0.601184
N109	N	0.985779	-0.570560	0.000029
N110	N	1.235779	-0.320560	0.250029
N111	N	1.485779	-0.070560	0.500029
N112	N	1.735779	0.179440	0.750029
C113	C	0.986285	-0.540864	0.080476
C114	C	1.236285	-0.290864	0.330476
C115	C	1.486285	-0.040864	0.580476
C116	C	1.736285	0.209136	0.830476
O117	O	0.985728	-0.571589	0.148894
O118	O	1.235728	-0.321589	0.398894
O119	O	1.485728	-0.071589	0.648894
O120	O	1.735728	0.178411	0.898894
C121	C	0.987333	-0.481461	0.080481
C122	C	1.237333	-0.231461	0.330481
C123	C	1.487333	0.018539	0.580481
C124	C	1.737333	0.268539	0.830481
C125	C	0.987882	-0.451754	0.000039
C126	C	1.237882	-0.201754	0.250039
C127	C	1.487882	0.048246	0.500039
C128	C	1.737882	0.298246	0.750039
C129	C	0.987922	-0.451740	-0.160837
C130	C	1.237922	-0.201740	0.089163
C131	C	1.487922	0.048260	0.339163
C132	C	1.737922	0.298260	0.589163
C133	C	0.988978	-0.392340	-0.160832
C134	C	1.238978	-0.142340	0.089168
C135	C	1.488978	0.107660	0.339168
C136	C	1.738978	0.357660	0.589168
C137	C	0.989486	-0.362648	-0.080391
C138	C	1.239486	-0.112648	0.169609
C139	C	1.489486	0.137352	0.419609
C140	C	1.739486	0.387352	0.669609
C141	C	0.988938	-0.392355	0.000044
C142	C	1.238938	-0.142355	0.250044
C143	C	1.488938	0.107645	0.500044
C144	C	1.738938	0.357645	0.750044
C145	C	0.987833	-0.451764	0.160927
C146	C	1.237833	-0.201764	0.410927
C147	C	1.487833	0.048236	0.660927
C148	C	1.737833	0.298236	0.910927
C149	C	0.988881	-0.392357	0.160924
C150	C	1.238881	-0.142357	0.410924
C151	C	1.488881	0.107643	0.660924
C152	C	1.738881	0.357643	0.910924
C153	C	0.989430	-0.362651	0.080482
C154	C	1.239430	-0.112651	0.330482
C155	C	1.489430	0.137349	0.580482
C156	C	1.739430	0.387349	0.830482
C157	C	0.990502	-0.303263	0.080491
C158	C	1.240502	-0.053263	0.330491
C159	C	1.490502	0.196737	0.580491
C160	C	1.740502	0.446737	0.830491
N161	N	0.991043	-0.273553	0.000054
N162	N	1.241043	-0.023553	0.250054
N163	N	1.491043	0.226447	0.500054
N164	N	1.741043	0.476447	0.750054
C165	C	0.990534	-0.303245	-0.080387
C166	C	1.240534	-0.053245	0.169613
C167	C	1.490534	0.196755	0.419613
C168	C	1.740534	0.446755	0.669613
C169	C	0.984082	-0.665614	0.080461
C170	C	1.234082	-0.415614	0.330461
C171	C	1.484082	-0.165614	0.580461
C172	C	1.734082	0.084386	0.830461
C173	C	0.983039	-0.725016	0.080458
C174	C	1.233039	-0.475016	0.330458
C175	C	1.483039	-0.225016	0.580458
C176	C	1.733039	0.024984	0.830458
C177	C	0.983072	-0.724998	-0.080426
C178	C	1.233072	-0.474998	0.169574
C179	C	1.483072	-0.224998	0.419574
C180	C	1.733072	0.025002	0.669574
C181	C	0.984121	-0.665595	-0.080422
C182	C	1.234121	-0.415595	0.169578
C183	C	1.484121	-0.165595	0.419578
C184	C	1.734121	0.084405	0.669578
C185	C	0.984622	-0.635903	0.000025
C186	C	1.234622	-0.385903	0.250025
C187	C	1.484622	-0.135903	0.500025
C188	C	1.734622	0.114097	0.750025
C189	C	0.992753	-0.178502	-0.080369
C190	C	1.242753	0.071498	0.169631
C191	C	1.492753	0.321498	0.419631
C192	C	1.742753	0.571498	0.669631
C193	C	0.993812	-0.119098	-0.080357
C194	C	1.243812	0.130902	0.169643
C195	C	1.493812	0.380902	0.419643
C196	C	1.743812	0.630902	0.669643
C197	C	0.993775	-0.119121	0.080527
C198	C	1.243775	0.130879	0.330527
C199	C	1.493775	0.380879	0.580527
C200	C	1.743775	0.630879	0.830527
C201	C	0.992720	-0.178520	0.080515
C202	C	1.242720	0.071480	0.330515
C203	C	1.492720	0.321480	0.580515
C204	C	1.742720	0.571480	0.830515
C205	C	0.992206	-0.208209	0.000059
C206	C	1.242206	0.041791	0.250059
C207	C	1.492206	0.291791	0.500059
C208	C	1.742206	0.541791	0.750059
O209	O	0.991059	-0.272504	0.148865
O210	O	1.241059	-0.022504	0.398865
O211	O	1.491059	0.227496	0.648865
O212	O	1.741059	0.477496	0.898865
O213	O	0.991081	-0.272511	-0.148792
O214	O	1.241081	-0.022511	0.101208
O215	O	1.491081	0.227489	0.351208
O216	O	1.741081	0.477489	0.601208
C217	C	1.141542	0.073783	0.000064
C218	C	1.391542	0.323783	0.250064
C219	C	1.641542	0.573783	0.500064
C220	C	1.891542	0.823783	0.750064
C221	C	1.234482	0.074906	0.000065
C222	C	1.484482	0.324906	0.250065
C223	C	1.734482	0.574906	0.500065
C224	C	1.984482	0.824906	0.750065
C225	C	0.981417	0.182064	0.000031
C226	C	1.231417	0.432064	0.250031
C227	C	1.481417	0.682064	0.500031
C228	C	1.731417	0.932064	0.750031
C229	C	0.982527	0.245287	0.000017
C230	C	1.232527	0.495287	0.250017
C231	C	1.482527	0.745287	0.500017
C232	C	1.732527	0.995287	0.750017
N233	N	0.988380	0.077948	0.229955
N234	N	1.238380	0.327948	0.479955
N235	N	1.488380	0.577948	0.729955
N236	N	1.738380	0.827948	0.979955
N237	N	0.988474	0.077929	-0.229846
N238	N	1.238474	0.327929	0.020154
N239	N	1.488474	0.577929	0.270154
N240	N	1.738474	0.827929	0.520154
C241	C	0.988443	0.077935	0.589156
C242	C	1.238443	0.327935	0.839156
C243	C	1.488443	0.577935	1.089156
C244	C	1.738443	0.827935	1.339156
C245	C	0.919026	0.124564	0.551534
C246	C	1.169026	0.374564	0.801534
C247	C	1.419026	0.624564	1.051534
C248	C	1.669026	0.874564	1.301534
C249	C	0.919183	0.124735	0.448708
C250	C	1.169183	0.374735	0.698708
C251	C	1.419183	0.624735	0.948708
C252	C	1.669183	0.874735	1.198708
C253	C	0.988411	0.077941	0.410952
C254	C	1.238411	0.327941	0.660952
C255	C	1.488411	0.577941	0.910952
C256	C	1.738411	0.827941	1.160952
C257	C	1.075664	0.090920	0.448247
C258	C	1.325664	0.340920	0.698247
C259	C	1.575664	0.590920	0.948247
C260	C	1.825664	0.840920	1.198247
C261	C	1.075275	0.091252	0.551105
C262	C	1.325275	0.341252	0.801105
C263	C	1.575275	0.591252	1.051105
C264	C	1.825275	0.841252	1.301105
C265	C	0.971386	0.018189	0.551269
C266	C	1.221386	0.268189	0.801269
C267	C	1.471386	0.518189	1.051269
C268	C	1.721386	0.768189	1.301269
C269	C	0.969378	0.018587	0.448405
C270	C	1.219378	0.268587	0.698405
C271	C	1.469378	0.518587	0.948405
C272	C	1.719378	0.768587	1.198405
C273	C	0.988398	0.077944	0.310239
C274	C	1.238398	0.327944	0.560239
C275	C	1.488398	0.577944	0.810239
C276	C	1.738398	0.827944	1.060239
C277	C	0.988461	0.077934	0.689870
C278	C	1.238461	0.327934	0.939870
C279	C	1.488461	0.577934	1.189870
C280	C	1.738461	0.827934	1.439870
H281	H	0.559434	0.088318	-0.146931
H282	H	0.809434	0.338318	0.103069
H283	H	1.059434	0.588318	0.353069
H284	H	1.309434	0.838318	0.603069
H285	H	0.853942	0.116959	0.576292
H286	H	1.103942	0.366959	0.826292
H287	H	1.353942	0.616959	1.076292
H288	H	1.603942	0.866959	1.326292
H289	H	0.558295	0.086947	0.146971
H290	H	0.808295	0.336947	0.396971
H291	H	1.058295	0.586947	0.646971
H292	H	1.308295	0.836947	0.896971
H293	H	0.982605	-0.749199	0.145962
H294	H	1.232605	-0.499199	0.395962
H295	H	1.482605	-0.249199	0.645962
H296	H	1.732605	0.000801	0.895962
H297	H	0.401600	0.153807	-0.088122
H298	H	0.651600	0.403807	0.161878
H299	H	0.901600	0.653807	0.411878
H300	H	1.151600	0.903807	0.661878
H301	H	0.987505	-0.475909	-0.226346
H302	H	1.237505	-0.225909	0.023654
H303	H	1.487505	0.024091	0.273654
H304	H	1.737505	0.274091	0.523654
H305	H	0.929713	0.168652	0.577364
H306	H	1.179713	0.418652	0.827364
H307	H	1.429713	0.668652	1.077364
H308	H	1.679713	0.918652	1.327364
H309	H	0.989421	-0.368158	-0.226336
H310	H	1.239421	-0.118158	0.023664
H311	H	1.489421	0.131842	0.273664
H312	H	1.739421	0.381842	0.523664
H313	H	0.930022	0.169072	0.424085
H314	H	1.180022	0.419072	0.674085
H315	H	1.430022	0.669072	0.924085
H316	H	1.680022	0.919072	1.174085
H317	H	0.982656	-0.749184	-0.145925
H318	H	1.232656	-0.499184	0.104075
H319	H	1.482656	-0.249184	0.354075
H320	H	1.732656	0.000816	0.604075
H321	H	1.128532	0.057861	0.423789
H322	H	1.378532	0.307861	0.673789
H323	H	1.628532	0.557861	0.923789
H324	H	1.878532	0.807861	1.173789
H325	H	0.984566	-0.641412	-0.145925
H326	H	1.234566	-0.391412	0.104075
H327	H	1.484566	-0.141412	0.354075
H328	H	1.734566	0.108588	0.604075
H329	H	1.090383	0.134824	0.575078
H330	H	1.340383	0.384824	0.825078
H331	H	1.590383	0.634824	1.075078
H332	H	1.840383	0.884824	1.325078
H333	H	0.577924	-0.008349	0.060468
H334	H	0.827924	0.241651	0.310468
H335	H	1.077924	0.491651	0.560468
H336	H	1.327924	0.741651	0.810468
H337	H	1.128516	0.058628	0.575991
H338	H	1.378516	0.308628	0.825991
H339	H	1.628516	0.558628	1.075991
H340	H	1.878516	0.808628	1.325991
H341	H	0.545769	0.155417	0.089708
H342	H	0.795769	0.405417	0.339708
H343	H	1.045769	0.655417	0.589708
H344	H	1.295769	0.905417	0.839708
H345	H	0.413480	0.089025	0.147395
H346	H	0.663480	0.339025	0.397395
H347	H	0.913480	0.589025	0.647395
H348	H	1.163480	0.839025	0.897395
H349	H	0.994192	-0.094935	0.146020
H350	H	1.244192	0.155065	0.396020
H351	H	1.494192	0.405065	0.646020
H352	H	1.744192	0.655065	0.896020
H353	H	0.401699	0.155293	0.084080
H354	H	0.651699	0.405293	0.334080
H355	H	0.901699	0.655293	0.584080
H356	H	1.151699	0.905293	0.834080
H357	H	0.854310	0.117002	0.423494
H358	H	1.104310	0.367002	0.673494
H359	H	1.354310	0.617002	0.923494
H360	H	1.604310	0.867002	1.173494
H361	H	1.091147	0.133996	0.422469
H362	H	1.341147	0.383996	0.672469
H363	H	1.591147	0.633996	0.922469
H364	H	1.841147	0.883996	1.172469
H365	H	0.909170	0.005708	0.577257
H366	H	1.159170	0.255708	0.827257
H367	H	1.409170	0.505708	1.077257
H368	H	1.659170	0.755708	1.327257
H369	H	0.544590	0.156047	-0.087368
H370	H	0.794590	0.406047	0.162632
H371	H	1.044590	0.656047	0.412632
H372	H	1.294590	0.906047	0.662632
H373	H	0.905196	0.008737	0.424030
H374	H	1.155196	0.258737	0.674030
H375	H	1.405196	0.508737	0.924030
H376	H	1.655196	0.758737	1.174030
H377	H	1.022014	-0.016512	0.575598
H378	H	1.272014	0.233488	0.825598
H379	H	1.522014	0.483488	1.075598
H380	H	1.772014	0.733488	1.325598
H381	H	0.994261	-0.094914	-0.145865
H382	H	1.244261	0.155086	0.104135
H383	H	1.494261	0.405086	0.354135
H384	H	1.744261	0.655086	0.604135
H385	H	0.992330	-0.202668	-0.145884
H386	H	1.242330	0.047332	0.104116
H387	H	1.492330	0.297332	0.354116
H388	H	1.742330	0.547332	0.604116
H389	H	0.984492	-0.641442	0.145975
H390	H	1.234492	-0.391442	0.395975
H391	H	1.484492	-0.141442	0.645975
H392	H	1.734492	0.108558	0.895975
H393	H	1.016692	-0.017738	0.422708
H394	H	1.266692	0.232262	0.672708
H395	H	1.516692	0.482262	0.922708
H396	H	1.766692	0.732262	1.172708
H397	H	0.434299	-0.010221	0.060833
H398	H	0.684299	0.239779	0.310833
H399	H	0.934299	0.489779	0.560833
H400	H	1.184299	0.739779	0.810833
H401	H	0.433252	-0.010111	-0.059691
H402	H	0.683252	0.239889	0.190309
H403	H	0.933252	0.489889	0.440309
H404	H	1.183252	0.739889	0.690309
H405	H	0.989277	-0.368184	0.226435
H406	H	1.239277	-0.118184	0.476435
H407	H	1.489277	0.131816	0.726435
H408	H	1.739277	0.381816	0.976435
H409	H	0.577380	-0.008516	-0.060444
H410	H	0.827380	0.241484	0.189556
H411	H	1.077380	0.491484	0.439556
H412	H	1.327380	0.741484	0.689556
H413	H	0.987388	-0.475942	0.226431
H414	H	1.237388	-0.225942	0.476431
H415	H	1.487388	0.024058	0.726431
H416	H	1.737388	0.274058	0.976431
H417	H	0.416138	0.085688	-0.147273
H418	H	0.666138	0.335688	0.102727
H419	H	0.916138	0.585688	0.352727
H420	H	1.166138	0.835688	0.602727
H421	H	0.992281	-0.202709	0.146017
H422	H	1.242281	0.047291	0.396017
H423	H	1.492281	0.297291	0.646017
H424	H	1.742281	0.547291	0.896017
