data_functionalizedCrystal
_audit_creation_method	'MofGen! by Chris Wilmer'
_symmetry_space_group_name_H-M	'P1'
_symmetry_Int_Tables_number	1
_symmetry_cell_setting	triclinic
loop_
_symmetry_equiv_pos_as_xyz
  x,y,z
_cell_length_a	21.606444
_cell_length_b	23.196402
_cell_length_c	23.196401
_cell_angle_alpha	60.008822
_cell_angle_beta	90.014117
_cell_angle_gamma	60.001110
loop_
_atom_site_label
_atom_site_type_symbol
_atom_site_fract_x
_atom_site_fract_y
_atom_site_fract_z
Zr1	Zr	0.596233	0.630998	-0.075619
O2	O	0.497389	0.751265	-0.167667
O3	O	0.626532	0.510733	-0.047405
O4	O	0.626505	0.631000	-0.167670
O5	O	0.497440	0.630997	0.047470
O6	O	0.728357	0.631000	-0.167669
O7	O	0.497416	0.630998	-0.047401
O8	O	0.728406	0.415864	0.047464
O9	O	0.497391	0.846132	-0.167663
O10	O	0.715468	0.560199	-0.035366
O11	O	0.639475	0.560198	0.035434
O12	O	0.639443	0.701797	-0.106163
O13	O	0.563450	0.701796	-0.035362
Zr14	Zr	0.758714	0.630996	0.075692
Zr15	Zr	0.758676	0.630998	-0.075616
Zr16	Zr	0.596272	0.630996	0.075690
Zr17	Zr	0.596238	0.782301	-0.075612
Zr18	Zr	0.758710	0.479693	0.075686
O19	O	0.728416	0.751262	0.047478
O20	O	0.728360	0.751265	-0.167663
O21	O	0.497444	0.751262	0.047475
O22	O	0.857559	0.510729	0.167740
O23	O	0.857504	0.510732	-0.047401
O24	O	0.626587	0.510729	0.167737
O25	O	0.857508	0.630998	-0.047396
O26	O	0.728443	0.630994	0.167744
O27	O	0.626591	0.630995	0.167742
O28	O	0.857532	0.630996	0.047475
O29	O	0.626511	0.846132	-0.167661
O30	O	0.728437	0.415862	0.167734
O31	O	0.857556	0.415862	0.167736
O32	O	0.857526	0.415864	0.047466
O33	O	0.497422	0.846131	-0.047392
O34	O	0.626542	0.846130	-0.047390
O35	O	0.715505	0.560197	0.106237
O36	O	0.791497	0.560198	0.035436
O37	O	0.715472	0.701796	-0.035360
O38	O	0.639480	0.701795	0.035440
C39	C	0.677468	0.441741	0.000029
C40	C	0.677466	0.377509	0.000026
C41	C	0.717129	0.347339	-0.036934
C42	C	0.717136	0.286978	-0.036928
C43	C	0.677466	0.256801	0.000028
C44	C	0.637802	0.286975	0.036996
C45	C	0.637802	0.347329	0.036995
C46	C	0.611005	0.194772	-0.005248
C47	C	0.611003	0.134422	-0.005252
C48	C	0.677467	0.070646	0.000035
C49	C	0.743933	0.067234	0.005311
C50	C	0.743933	0.127588	0.005310
C51	C	0.677462	0.191357	0.000033
C52	C	0.717141	-0.024975	-0.036920
C53	C	0.717150	-0.085341	-0.036909
C54	C	0.637809	-0.085337	0.037009
C55	C	0.637807	-0.024978	0.037003
C56	C	0.677471	0.005202	0.000035
C57	C	0.474284	0.630997	0.000034
C58	C	0.405323	0.630997	0.000033
C59	C	0.372911	0.631001	-0.052234
C60	C	0.308117	0.630996	-0.052232
C61	C	0.275733	0.630995	0.000036
C62	C	0.308151	0.630989	0.052308
C63	C	0.372946	0.630988	0.052308
C64	C	0.046837	0.630995	0.052311
C65	C	-0.017965	0.631000	0.052306
C66	C	-0.017993	0.631004	-0.052229
C67	C	0.046803	0.631002	-0.052229
C68	C	0.079217	0.630992	0.000045
C69	C	0.149475	0.630995	0.000042
C70	C	0.205473	0.630998	0.000036
C71	C	0.880664	0.630997	0.000040
C72	C	0.949625	0.630997	0.000041
C73	C	0.677425	0.631000	-0.189228
C74	C	0.677409	0.631001	-0.253462
C75	C	0.677480	0.820253	0.000045
C76	C	0.677481	0.884485	0.000048
C77	C	0.637728	0.704911	-0.320590
C78	C	0.637748	0.704913	-0.380946
C79	C	0.677437	0.630999	-0.374168
C80	C	0.717126	0.557079	-0.307028
C81	C	0.717112	0.557080	-0.246675
C82	C	0.671799	0.574371	-0.441488
C83	C	0.671808	0.574373	-0.501842
C84	C	0.677485	0.630993	-0.560316
C85	C	0.683138	0.687624	-0.558436
C86	C	0.683124	0.687625	-0.498083
C87	C	0.677457	0.630990	-0.439607
C88	C	0.637823	0.704909	-0.692891
C89	C	0.637848	0.704908	-0.753246
C90	C	0.717222	0.557072	-0.679326
C91	C	0.717202	0.557076	-0.618974
C92	C	0.677499	0.630997	-0.625761
C93	C	0.677523	0.630994	0.189301
C94	C	0.677539	0.630993	0.253536
C95	C	0.880659	0.441741	0.000032
C96	C	0.949618	0.377509	0.000030
C97	C	0.677517	0.441738	0.189293
C98	C	0.677532	0.377505	0.253525
C99	C	0.880707	0.441738	0.189296
C100	C	0.949683	0.377505	0.253529
C101	C	0.474241	0.820257	-0.189222
C102	C	0.405265	0.884489	-0.253455
C103	C	0.474289	0.820254	0.000042
C104	C	0.405330	0.884485	0.000044
C105	C	0.677431	0.820256	-0.189219
C106	C	0.677416	0.884489	-0.253451
C107	C	0.942315	0.347345	-0.036935
C108	C	1.007103	0.287001	-0.036951
C109	C	1.079193	0.256817	0.000003
C110	C	1.086494	0.286986	0.036969
C111	C	1.021707	0.347334	0.036981
C112	C	0.717225	0.347340	0.320653
C113	C	0.717236	0.286995	0.381012
C114	C	0.677557	0.256812	0.374240
C115	C	0.637859	0.286983	0.307105
C116	C	0.637844	0.347331	0.246748
C117	C	1.021749	0.347341	0.246736
C118	C	1.086565	0.286996	0.307084
C119	C	1.079313	0.256811	0.374224
C120	C	1.007240	0.286981	0.381015
C121	C	0.942425	0.347329	0.320668
C122	C	0.333199	0.914661	-0.246663
C123	C	0.268383	0.975025	-0.307010
C124	C	0.275635	1.005212	-0.374150
C125	C	0.347708	0.975038	-0.380941
C126	C	0.412522	0.914680	-0.320594
C127	C	0.412633	0.914655	0.037003
C128	C	0.347845	0.975016	0.037002
C129	C	0.275755	1.005202	0.000046
C130	C	0.268453	0.975030	-0.036918
C131	C	0.333241	0.914674	-0.036921
C132	C	0.717103	0.914653	-0.246657
C133	C	0.717104	0.974999	-0.307004
C134	C	0.677414	1.005183	-0.374144
C135	C	0.637726	0.975013	-0.380937
C136	C	0.637730	0.914665	-0.320591
H137	H	0.798057	0.015300	0.009625
H138	H	0.605495	0.765101	-0.698418
Br139	Br	0.583858	0.873742	-0.329825
H140	H	1.131941	0.207678	-0.000011
Br141	Br	-0.061916	0.630999	0.123245
H142	H	0.471200	0.890115	-0.326133
H143	H	0.281728	0.630998	-0.094791
Br144	Br	0.690841	0.764473	-0.637790
Br145	Br	0.771085	0.388285	0.329863
Br146	Br	1.184337	0.246011	0.087120
H147	H	0.605412	0.999599	-0.435611
Br148	Br	0.583972	0.388259	0.155647
H149	H	0.209749	0.999617	-0.067007
Br150	Br	0.583973	0.388275	0.087160
H151	H	1.132096	0.207672	0.423357
H152	H	0.667171	0.528265	-0.393880
H153	H	1.001144	0.262444	-0.067054
H154	H	0.327284	0.890112	-0.067015
H155	H	1.145244	0.262437	0.301542
H156	H	0.749511	0.496890	-0.564314
H157	H	0.327280	0.890085	-0.191999
H158	H	0.399336	0.630984	0.094870
H159	H	-0.044389	0.631008	-0.094792
Br160	Br	0.090823	0.630984	0.123251
Br161	Br	0.997411	0.246008	0.472139
H162	H	0.749428	0.371908	-0.067034
Br163	Br	1.031631	0.388258	0.087157
Br164	Br	0.770974	0.015983	-0.087086
Br165	Br	0.770965	1.015934	-0.297768
Br166	Br	0.583998	0.805224	-0.844354
H167	H	0.605554	0.262399	0.301602
Br168	Br	0.770974	0.873702	-0.155545
H169	H	0.749435	0.262409	-0.067026
Br170	Br	0.510461	0.873704	0.087162
H171	H	0.883749	0.371881	0.326208
H172	H	0.073166	0.631008	-0.094792
Br173	Br	0.771117	0.246060	0.472115
H174	H	0.677575	0.207673	0.423393
H175	H	0.209704	0.999582	-0.301467
H176	H	0.223007	1.054348	0.000054
Br177	Br	1.031611	0.388296	0.155626
Br178	Br	0.187663	1.087129	-0.456044
H179	H	0.798053	0.124806	0.009609
Br180	Br	0.357537	1.016014	-0.472065
H181	H	0.399271	0.631007	-0.094799
H182	H	0.677416	1.054323	-0.423276
Br183	Br	0.770981	-0.126285	-0.087075
Br184	Br	0.583972	-0.126287	0.087166
H185	H	0.749426	0.496891	-0.192014
H186	H	0.605507	-0.000411	0.067097
Br187	Br	0.520795	0.281322	-0.012422
Br188	Br	0.520799	0.139062	-0.012419
Br189	Br	0.357771	1.015949	0.087172
H190	H	0.605504	0.262400	0.067086
Br191	Br	0.771100	0.456758	-0.670121
Br192	Br	0.264208	0.630979	0.123249
Br193	Br	0.583826	0.805232	-0.329803
Br194	Br	0.583894	0.805227	-0.472061
H195	H	0.667201	0.528264	-0.503367
Br196	Br	0.690795	0.764478	-0.495532
H197	H	0.749443	0.496898	-0.301514
Br198	Br	0.844487	0.388298	-0.087096
