data_functionalizedCrystal
_audit_creation_method	'MofGen! by Chris Wilmer'
_symmetry_space_group_name_H-M	'P1'
_symmetry_Int_Tables_number	1
_symmetry_cell_setting	triclinic
loop_
_symmetry_equiv_pos_as_xyz
  x,y,z
_cell_length_a	16.625548
_cell_length_b	21.395361
_cell_length_c	21.395356
_cell_angle_alpha	90.030681
_cell_angle_beta	89.976434
_cell_angle_gamma	89.968224
loop_
_atom_site_label
_atom_site_type_symbol
_atom_site_fract_x
_atom_site_fract_y
_atom_site_fract_z
Zn1	Zn	1.232658	0.249437	-0.354248
Zn2	Zn	1.732658	0.749437	0.145752
Zn3	Zn	1.232535	0.354213	-0.249465
Zn4	Zn	1.732535	0.854213	0.250535
Zn5	Zn	1.097813	0.249455	-0.249485
Zn6	Zn	1.597813	0.749455	0.250515
Zn7	Zn	1.097771	0.354182	-0.354205
Zn8	Zn	1.597771	0.854182	0.145795
O9	O	1.165194	0.301822	-0.301851
O10	O	1.665194	0.801822	0.198149
O11	O	1.345474	0.263340	-0.340358
O12	O	1.845474	0.763340	0.159642
O13	O	1.214630	0.340338	-0.161790
O14	O	1.714630	0.840338	0.338210
O15	O	1.115770	0.161775	-0.263408
O16	O	1.615770	0.661775	0.236592
O17	O	1.345384	0.340319	-0.263374
O18	O	1.845384	0.840319	0.236626
O19	O	1.214840	0.161761	-0.340377
O20	O	1.714840	0.661761	0.159623
O21	O	1.115650	0.263373	-0.161804
O22	O	1.615650	0.763373	0.338196
O23	O	0.984975	0.263343	-0.263366
O24	O	1.484975	0.763343	0.236634
O25	O	1.115698	0.340267	-0.441889
O26	O	1.615698	0.840267	0.058111
O27	O	0.984944	0.340285	-0.340304
O28	O	1.484944	0.840285	0.159696
O29	O	1.214799	0.263310	-0.441920
O30	O	1.714799	0.763310	0.058080
O31	O	1.214589	0.441887	-0.263333
O32	O	1.714589	0.941887	0.236667
O33	O	1.115579	0.441864	-0.340285
O34	O	1.615579	0.941864	0.159715
C35	C	0.955703	0.301813	-0.301833
C36	C	1.455703	0.801813	0.198167
C37	C	0.866082	0.301824	-0.301841
C38	C	1.366082	0.801824	0.198159
C39	C	1.165258	0.301783	-0.465274
C40	C	1.665258	0.801783	0.034726
C41	C	1.165285	0.301766	-0.534915
C42	C	1.665285	0.801766	-0.034915
C43	C	1.165088	0.464609	-0.301816
C44	C	1.665088	0.964609	0.198184
C45	C	1.165116	0.534251	-0.301822
C46	C	1.665116	1.034251	0.198178
C47	C	0.537907	0.301828	-0.301867
C48	C	1.037907	0.801828	0.198133
C49	C	0.629215	0.301825	-0.301858
C50	C	1.129215	0.801825	0.198142
C51	C	0.701992	0.301827	-0.301853
C52	C	1.201992	0.801827	0.198147
C53	C	0.793306	0.301823	-0.301845
C54	C	1.293306	0.801823	0.198155
C55	C	1.375503	0.301831	-0.301869
C56	C	1.875503	0.801831	0.198131
C57	C	1.465124	0.301835	-0.301876
C58	C	1.965124	0.801835	0.198124
C59	C	1.165323	0.138399	-0.301899
C60	C	1.665323	0.638399	0.198101
C61	C	1.165378	0.068757	-0.301920
C62	C	1.665378	0.568757	0.198080
C63	C	1.216716	0.566955	-0.261794
C64	C	1.716716	1.066955	0.238206
C65	C	1.216754	0.632390	-0.261808
C66	C	1.716754	1.132390	0.238192
C67	C	1.165177	0.665119	-0.301843
C68	C	1.665177	1.165119	0.198157
C69	C	1.113573	0.632407	-0.341879
C70	C	1.613573	1.132407	0.158121
C71	C	1.113542	0.566973	-0.341868
C72	C	1.613542	1.066973	0.158132
C73	C	1.092577	0.768834	-0.306753
C74	C	1.592577	1.268834	0.193247
C75	C	1.092606	0.834267	-0.306760
C76	C	1.592606	1.334267	0.193240
C77	C	1.165271	0.866940	-0.301880
C78	C	1.665271	1.366940	0.198120
C79	C	1.237909	0.834171	-0.296981
C80	C	1.737909	1.334171	0.203019
C81	C	1.237878	0.768737	-0.296970
C82	C	1.737878	1.268737	0.203030
C83	C	1.165204	0.736071	-0.301860
C84	C	1.665204	1.236071	0.198140
C85	C	1.216916	0.970596	-0.261865
C86	C	1.716916	1.470596	0.238135
C87	C	1.216955	1.036033	-0.261884
C88	C	1.716955	1.536033	0.238116
C89	C	1.113766	1.036048	-0.341952
C90	C	1.613766	1.536048	0.158048
C91	C	1.113735	0.970613	-0.341936
C92	C	1.613735	1.470613	0.158064
C93	C	1.165308	0.937891	-0.301890
C94	C	1.665308	1.437891	0.198110
C95	C	1.113760	0.261686	-0.567626
C96	C	1.613760	0.761686	-0.067626
C97	C	1.113757	0.261675	-0.633062
C98	C	1.613757	0.761675	-0.133062
C99	C	1.165294	0.301737	-0.665784
C100	C	1.665294	0.801737	-0.165784
C101	C	1.216822	0.341825	-0.633065
C102	C	1.716822	0.841825	-0.133065
C103	C	1.216818	0.341840	-0.567631
C104	C	1.716818	0.841840	-0.067631
C105	C	1.237941	0.306662	-0.769470
C106	C	1.737941	0.806662	-0.269470
C107	C	1.237947	0.306642	-0.834903
C108	C	1.737947	0.806642	-0.334903
C109	C	1.165307	0.301694	-0.867605
C110	C	1.665307	0.801694	-0.367605
C111	C	1.092658	0.296753	-0.834865
C112	C	1.592658	0.796753	-0.334865
C113	C	1.092654	0.296767	-0.769431
C114	C	1.592654	0.796767	-0.269431
C115	C	1.165304	0.301725	-0.736736
C116	C	1.665304	0.801725	-0.236736
C117	C	1.113775	0.261599	-0.971268
C118	C	1.613775	0.761599	-0.471268
C119	C	1.113771	0.261592	-1.036705
C120	C	1.613771	0.761592	-0.536705
C121	C	1.216843	0.341739	-1.036707
C122	C	1.716843	0.841739	-0.536707
C123	C	1.216840	0.341749	-0.971271
C124	C	1.716840	0.841749	-0.471271
C125	C	1.165307	0.301676	-0.938556
C126	C	1.665307	0.801676	-0.438556
C127	C	1.165177	0.301815	-0.139063
C128	C	1.665177	0.801815	0.360937
C129	C	1.165307	0.301655	-0.069422
C130	C	1.665307	0.801655	0.430578
H131	H	1.258776	0.659023	-0.229213
H132	H	1.758776	1.159023	0.270787
H133	H	1.033399	0.742239	-0.310729
H134	H	1.533399	1.242239	0.189271
H135	H	1.297099	0.310685	-0.742849
H136	H	1.797099	0.810685	-0.242849
C137	C	1.012711	0.870310	-0.312153
C138	C	1.512711	1.370310	0.187847
H139	H	1.023134	0.913959	-0.311455
H140	H	1.523134	1.413959	0.188545
H141	H	0.986908	0.859577	-0.350280
H142	H	1.486908	1.359577	0.149720
H143	H	0.978804	0.859635	-0.278044
H144	H	1.478804	1.359635	0.221956
C145	C	1.057087	0.217528	-0.935275
C146	C	1.557087	0.717528	-0.435275
H147	H	1.064472	0.223271	-0.891620
H148	H	1.564472	0.723271	-0.391620
H149	H	1.002905	0.226692	-0.945978
H150	H	1.502905	0.726692	-0.445978
H151	H	1.068926	0.175427	-0.946018
H152	H	1.568926	0.675427	-0.446018
C153	C	1.057085	0.217581	-0.669054
C154	C	1.557085	0.717581	-0.169054
H155	H	1.064467	0.223314	-0.712710
H156	H	1.564467	0.723314	-0.212710
H157	H	1.068924	0.175488	-0.658346
H158	H	1.568924	0.675488	-0.158346
H159	H	1.002895	0.226748	-0.658317
H160	H	1.502895	0.726748	-0.158317
C161	C	1.057072	0.217611	-0.531643
C162	C	1.557072	0.717611	-0.031643
H163	H	1.026381	0.193741	-0.560500
H164	H	1.526381	0.693741	-0.060500
H165	H	1.087936	0.190320	-0.506133
H166	H	1.587936	0.690320	-0.006133
H167	H	1.021913	0.241584	-0.506101
H168	H	1.521913	0.741584	-0.006101
C169	C	1.012747	0.291343	-0.733420
C170	C	1.512747	0.791343	-0.233420
H171	H	0.969482	0.288399	-0.762263
H172	H	1.469482	0.788399	-0.262263
H173	H	1.013818	0.255032	-0.707902
H174	H	1.513818	0.755032	-0.207902
H175	H	1.005638	0.327263	-0.707885
H176	H	1.505638	0.827263	-0.207885
H177	H	1.258779	0.374477	-0.540998
H178	H	1.758779	0.874477	-0.040998
H179	H	1.071775	1.062696	-0.374552
H180	H	1.571775	1.562696	0.125448
H181	H	1.258799	0.374386	-0.944638
H182	H	1.758799	0.874386	-0.444638
H183	H	1.071713	0.943984	-0.374528
H184	H	1.571713	1.443984	0.125472
H185	H	1.297080	0.860771	-0.293008
H186	H	1.797080	1.360771	0.206992
H187	H	1.071579	0.659059	-0.374477
H188	H	1.571579	1.159059	0.125523
C189	C	1.056775	0.530997	-0.385898
C190	C	1.556775	1.030997	0.114102
H191	H	1.026059	0.559858	-0.409743
H192	H	1.526059	1.059858	0.090257
H193	H	1.087587	0.505427	-0.413213
H194	H	1.587587	1.005427	0.086787
H195	H	1.021643	0.505516	-0.361895
H196	H	1.521643	1.005516	0.138105
H197	H	1.071807	0.228956	-1.063337
H198	H	1.571807	0.728956	-0.563337
C199	C	1.273531	0.385810	-1.072690
C200	C	1.773531	0.885810	-0.572690
H201	H	1.304215	0.409685	-1.043834
H202	H	1.804215	0.909685	-0.543834
H203	H	1.308683	0.361842	-1.098236
H204	H	1.808683	0.861842	-0.598236
H205	H	1.242659	0.413105	-1.098196
H206	H	1.742659	0.913105	-0.598196
H207	H	1.297102	0.310663	-0.861554
H208	H	1.797102	0.810663	-0.361554
H209	H	1.033508	0.292719	-0.861490
H210	H	1.533508	0.792719	-0.361490
C211	C	1.273516	0.385890	-0.669054
C212	C	1.773516	0.885890	-0.169054
H213	H	1.304200	0.409766	-0.640198
H214	H	1.804200	0.909766	-0.140198
H215	H	1.308669	0.361917	-0.694595
H216	H	1.808669	0.861917	-0.194595
H217	H	1.242650	0.413184	-0.694564
H218	H	1.742650	0.913184	-0.194564
C219	C	1.273427	0.530961	-0.217733
C220	C	1.773427	1.030961	0.282267
H221	H	1.266010	0.487306	-0.223449
H222	H	1.766010	0.987306	0.276551
H223	H	1.327608	0.541632	-0.226924
H224	H	1.827608	1.041632	0.273076
H225	H	1.261630	0.541732	-0.175633
H226	H	1.761630	1.041732	0.324367
C227	C	1.317774	0.732693	-0.291591
C228	C	1.817774	1.232693	0.208409
H229	H	1.361058	0.761519	-0.288691
H230	H	1.861058	1.261519	0.211309
H231	H	1.316741	0.707191	-0.255270
H232	H	1.816741	1.207191	0.244730
H233	H	1.324818	0.707141	-0.327507
H234	H	1.824818	1.207141	0.172493
H235	H	1.258913	0.943953	-0.229259
H236	H	1.758913	1.443953	0.270741
H237	H	1.258979	1.062660	-0.229289
H238	H	1.758979	1.562660	0.270711
