data_functionalizedCrystal
_audit_creation_method	'MofGen! by Chris Wilmer'
_symmetry_space_group_name_H-M	'P1'
_symmetry_Int_Tables_number	1
_symmetry_cell_setting	triclinic
loop_
_symmetry_equiv_pos_as_xyz
  x,y,z
_cell_length_a	17.019372
_cell_length_b	19.188940
_cell_length_c	16.098538
_cell_angle_alpha	92.713234
_cell_angle_beta	91.135695
_cell_angle_gamma	83.270614
loop_
_atom_site_label
_atom_site_type_symbol
_atom_site_fract_x
_atom_site_fract_y
_atom_site_fract_z
O1	O	1.046071	0.089183	0.005700
O2	O	0.817209	0.099791	-0.010701
O3	O	0.938241	-0.007135	-0.002021
O4	O	0.925040	0.196110	-0.002980
O5	O	0.931171	-0.000914	0.135985
O6	O	0.810139	0.106013	0.127305
O7	O	1.039001	0.095405	0.143706
Zn8	Zn	0.923448	0.101697	0.157417
Zn9	Zn	0.932763	0.093499	-0.024412
O10	O	0.917970	0.202331	0.135026
C11	C	0.784394	0.102378	0.056203
C12	C	0.697150	0.100808	0.049951
C13	C	0.203910	0.091734	0.010762
C14	C	0.285885	0.093209	0.016647
C15	C	0.323010	0.097344	0.094818
C16	C	0.278156	0.099995	0.167107
C17	C	0.196183	0.098515	0.161221
C18	C	0.570323	0.101979	0.116355
C19	C	0.652302	0.103462	0.122236
C20	C	0.660025	0.096674	-0.028225
C21	C	0.578049	0.095198	-0.034105
C22	C	0.533203	0.097846	0.038185
C23	C	0.406801	0.098854	0.100836
C24	C	0.449414	0.096331	0.032166
C25	C	0.934277	-0.030037	0.066951
C26	C	0.932990	-0.107548	0.066858
C27	C	0.919980	-0.657462	0.141409
C28	C	0.921180	-0.584631	0.141500
C29	C	0.925638	-0.551600	0.066317
C30	C	0.928876	-0.591403	-0.008963
C31	C	0.927667	-0.664232	-0.009052
N32	N	0.975128	-0.444871	0.013666
N33	N	0.976278	-0.375687	0.013756
C34	C	0.929278	-0.332173	0.066581
N35	N	0.881095	-0.360456	0.119326
N36	N	0.879949	-0.429647	0.119239
C37	C	0.926949	-0.472630	0.066405
C38	C	0.927337	-0.213407	0.141955
C39	C	0.928533	-0.140574	0.142042
C40	C	0.936236	-0.147349	-0.008423
C41	C	0.935033	-0.220179	-0.008509
C42	C	0.930587	-0.253204	0.066683
C43	C	1.071816	0.092818	0.076799
C44	C	1.159062	0.094387	0.083046
C45	C	0.921934	0.225233	0.066052
C46	C	0.923221	0.302744	0.066139
N47	N	0.917096	0.107290	0.281510
N48	N	0.939121	0.087900	-0.148505
C49	C	0.968485	0.061923	0.328781
C50	C	0.964050	0.065843	0.415652
C51	C	0.908228	0.115134	0.455251
C52	C	0.856833	0.160504	0.407974
C53	C	0.861266	0.156580	0.321104
C54	C	0.892159	0.129346	0.717348
C55	C	0.887731	0.133268	0.804224
C56	C	0.994947	0.038605	0.811896
C57	C	0.999378	0.034689	0.725025
C58	C	0.947981	0.080056	0.677755
C59	C	0.903694	0.119143	0.544047
C60	C	0.952512	0.076043	0.588961
H61	H	0.173688	0.088372	-0.052893
H62	H	0.419184	0.092962	-0.031480
C63	C	0.917634	-0.541289	0.223137
C64	C	0.919628	-0.470439	0.207118
C65	C	0.916353	-0.430492	0.282301
H66	H	0.961665	-0.556968	0.257371
H67	H	0.870017	-0.546564	0.250765
H68	H	0.967239	-0.465167	0.179503
H69	H	0.875600	-0.454738	0.172897
H70	H	0.868736	-0.435767	0.309928
H71	H	0.960385	-0.446177	0.316528
H72	H	0.917698	-0.382416	0.271441
C73	C	0.836319	0.178690	0.666182
C74	C	0.786503	0.222709	0.719459
C75	C	0.735058	0.268182	0.672352
H76	H	0.805341	0.152037	0.629962
H77	H	0.866197	0.206340	0.634315
H78	H	0.756628	0.195062	0.751312
H79	H	0.817458	0.249377	0.755679
H80	H	0.764936	0.295833	0.640485
H81	H	0.704086	0.241524	0.636134
H82	H	0.701257	0.298059	0.708493
C83	C	0.805385	0.205725	0.269729
C84	C	0.759935	0.166149	0.216455
C85	C	0.708438	0.211396	0.169124
H86	H	0.835195	0.233350	0.237771
H87	H	0.771462	0.235633	0.305723
H88	H	0.793854	0.136253	0.180464
H89	H	0.730108	0.138525	0.248391
H90	H	0.674514	0.241304	0.205119
H91	H	0.738254	0.239019	0.137171
H92	H	0.677588	0.184550	0.132978
H93	H	0.533820	0.104125	0.175218
C94	C	1.050611	-0.010732	0.863255
C95	C	1.006345	-0.051344	0.910138
C96	C	1.057594	-0.096811	0.957452
H97	H	1.081529	0.015922	0.899539
H98	H	1.084478	-0.040691	0.827257
H99	H	0.972491	-0.021388	0.946133
H100	H	0.975428	-0.078012	0.873875
H101	H	1.091461	-0.126771	0.921454
H102	H	1.088510	-0.070152	0.993731
H103	H	1.027568	-0.124376	0.989262
H104	H	1.005894	0.028900	0.454139
C105	C	1.013146	0.022457	0.546123
C106	C	1.057197	-0.016449	0.606109
C107	C	1.113055	-0.065822	0.566670
H108	H	1.047573	0.046054	0.514561
H109	H	0.986723	-0.008253	0.510249
H110	H	1.083619	0.014256	0.641968
H111	H	1.022791	-0.040062	0.637674
H112	H	1.086632	-0.096532	0.530796
H113	H	1.147477	-0.042219	0.535109
H114	H	1.142945	-0.092230	0.607363
H115	H	0.322397	0.091044	-0.042214
C116	C	0.318601	0.104519	0.251903
C117	C	0.399986	0.105269	0.241589
C118	C	0.437265	0.109447	0.319686
H119	H	0.309805	0.065011	0.282363
H120	H	0.297485	0.146364	0.281413
H121	H	0.421095	0.063428	0.212093
H122	H	0.408805	0.144774	0.211143
H123	H	0.416149	0.151292	0.349195
H124	H	0.428463	0.069939	0.350139
H125	H	0.492487	0.109963	0.312698
H126	H	0.547828	0.091831	-0.097760
C127	C	0.938450	-0.263288	-0.090304
C128	C	0.873481	-0.239902	-0.140526
C129	C	0.876609	-0.279590	-0.215890
H130	H	0.937060	-0.311405	-0.079713
H131	H	0.986034	-0.257947	-0.117958
H132	H	0.825909	-0.245249	-0.112877
H133	H	0.874858	-0.191791	-0.151139
H134	H	0.924192	-0.274249	-0.243544
H135	H	0.875220	-0.327704	-0.205291
H136	H	0.832532	-0.263724	-0.249977
H137	H	0.696547	0.094517	-0.087079
C138	C	0.796182	0.213913	0.451070
C139	C	0.745672	0.178843	0.497543
C140	C	0.689798	0.228023	0.537262
H141	H	0.766128	0.240395	0.410566
H142	H	0.822602	0.244577	0.487009
H143	H	0.719253	0.148191	0.461607
H144	H	0.775703	0.152364	0.538061
H145	H	0.716218	0.258686	0.573201
H146	H	0.659749	0.254502	0.496752
H147	H	0.655524	0.204235	0.568804
H148	H	0.682525	0.106834	0.185895
C149	C	0.933581	-0.555443	-0.090543
C150	C	0.866904	-0.506116	-0.099712
C151	C	0.871207	-0.472972	-0.174853
H152	H	0.935299	-0.589499	-0.135455
H153	H	0.980010	-0.532352	-0.090376
H154	H	0.820487	-0.529206	-0.099887
H155	H	0.865173	-0.472046	-0.054819
H156	H	0.917636	-0.449880	-0.174685
H157	H	0.872927	-0.507033	-0.219758
H158	H	0.825972	-0.439495	-0.181080
H159	H	1.013945	0.021787	0.296546
H160	H	0.858244	0.159279	0.576295
H161	H	0.437037	0.102222	0.164483
H162	H	0.916359	-0.684346	0.202636
C163	C	0.931233	-0.707325	-0.090863
C164	C	0.935407	-0.662815	-0.156688
C165	C	0.938703	-0.702490	-0.232063
H166	H	0.885118	-0.730663	-0.097419
H167	H	0.976765	-0.741087	-0.090790
H168	H	0.889880	-0.629065	-0.156762
H169	H	0.981520	-0.639476	-0.150160
H170	H	0.984235	-0.736252	-0.231990
H171	H	0.892587	-0.725826	-0.238610
H172	H	0.941543	-0.672297	-0.276734
H173	H	0.159667	0.100683	0.220083
H174	H	1.044833	-0.005448	0.692785
C175	C	0.925052	-0.097492	0.223859
C176	C	0.920924	-0.142009	0.289686
C177	C	0.917729	-0.102347	0.365069
H178	H	0.879547	-0.063712	0.223867
H179	H	0.971201	-0.074179	0.230341
H180	H	0.874779	-0.165311	0.283206
H181	H	0.966423	-0.175789	0.289705
H182	H	0.963879	-0.079034	0.371551
H183	H	0.872225	-0.068569	0.365069
H184	H	0.914935	-0.132547	0.409742
H185	H	0.923710	-0.240296	0.203179
H186	H	0.939857	-0.120455	-0.069639
C187	C	0.827076	0.186676	0.847328
C188	C	0.776574	0.151598	0.893803
C189	C	0.720701	0.200772	0.933532
H190	H	0.797015	0.213159	0.806828
H191	H	0.853497	0.217339	0.883266
H192	H	0.750155	0.120947	0.857867
H193	H	0.806613	0.125119	0.934316
H194	H	0.747122	0.231436	0.969470
H195	H	0.690646	0.227253	0.893027
H196	H	0.686434	0.176980	0.965076
