data_functionalizedCrystal
_audit_creation_method	'MofGen! by Chris Wilmer'
_symmetry_space_group_name_H-M	'P1'
_symmetry_Int_Tables_number	1
_symmetry_cell_setting	triclinic
loop_
_symmetry_equiv_pos_as_xyz
  x,y,z
_cell_length_a	14.971486
_cell_length_b	10.654549
_cell_length_c	14.048226
_cell_angle_alpha	89.994687
_cell_angle_beta	89.998499
_cell_angle_gamma	84.050523
loop_
_atom_site_label
_atom_site_type_symbol
_atom_site_fract_x
_atom_site_fract_y
_atom_site_fract_z
O1	O	1.187840	0.163659	-0.079049
O2	O	0.927546	0.183257	-0.079074
O3	O	1.063675	-0.009345	-0.079057
O4	O	1.051711	0.356261	-0.079066
O5	O	1.063659	-0.009357	0.079264
O6	O	0.927530	0.183246	0.079247
O7	O	1.187823	0.163647	0.079273
Zn8	Zn	1.057674	0.173445	0.104397
Zn9	Zn	1.057696	0.173460	-0.104198
O10	O	1.051694	0.356250	0.079255
C11	C	0.894209	0.182375	0.000083
C12	C	0.794897	0.179748	0.000073
C13	C	0.738289	0.292897	0.000072
C14	C	0.644976	0.290422	0.000086
C15	C	0.608273	0.174796	0.000095
C16	C	0.664889	0.061639	0.000099
C17	C	0.758200	0.064116	0.000092
C18	C	0.470398	0.056485	0.000112
C19	C	0.377080	0.054007	0.000118
C20	C	0.357174	0.282791	0.000107
C21	C	0.450485	0.285267	0.000099
C22	C	0.507095	0.172109	0.000102
C23	C	1.062788	-0.056139	0.000102
C24	C	1.060157	-0.195554	0.000099
C25	C	1.217996	-0.487232	0.000119
C26	C	1.300625	-0.436581	0.000129
C27	C	1.303100	-0.305590	0.000128
C28	C	1.222938	-0.225244	0.000120
C29	C	1.140310	-0.275895	0.000110
C30	C	1.137843	-0.406891	0.000108
C31	C	0.977528	-0.246205	0.000089
C32	C	0.975051	-0.377196	0.000083
C33	C	0.897366	-0.165859	0.000080
C34	C	0.814736	-0.216510	0.000063
C35	C	0.812264	-0.347510	0.000063
C36	C	0.892423	-0.427847	0.000073
C37	C	1.221161	0.164529	0.000113
C38	C	1.320472	0.167156	0.000117
C39	C	1.052582	0.403044	0.000094
C40	C	1.055213	0.542459	0.000091
N41	N	1.057665	0.173434	0.246757
N42	N	1.057711	0.173461	-0.246559
C43	C	1.117963	0.088185	0.296583
C44	C	1.117969	0.088184	0.396241
C45	C	1.057681	0.173439	0.446071
C46	C	0.997377	0.258692	0.396238
C47	C	0.997368	0.258686	0.296582
C48	C	0.997403	0.258702	0.603952
C49	C	0.997414	0.258710	0.703615
C50	C	1.118004	0.088199	0.703611
C51	C	1.117995	0.088193	0.603955
C52	C	1.057692	0.173448	0.554129
H53	H	0.634998	-0.032505	0.000120
H54	H	0.749475	-0.151083	0.000063
N55	N	0.723142	-0.402137	0.000065
H56	H	0.672742	-0.331359	0.000063
H57	H	0.718571	-0.455833	-0.058626
N58	N	1.392219	-0.250955	0.000144
H59	H	1.381618	-0.155781	0.000145
H60	H	1.427315	-0.280339	0.058845
H61	H	1.167104	0.018782	0.744185
H62	H	0.311078	0.374928	0.000109
N63	N	0.889756	-0.569130	0.000066
H64	H	0.953074	-0.612337	0.000074
H65	H	0.857160	-0.594754	0.058756
H66	H	1.167059	0.018765	0.256018
H67	H	1.224961	-0.118586	0.000131
N68	N	0.900037	-0.024577	0.000074
H69	H	0.868680	0.012802	-0.058620
H70	H	0.868686	0.012701	0.058798
H71	H	0.347200	-0.040145	0.000126
N72	N	0.777877	0.417605	0.000067
H73	H	0.816144	0.423738	-0.058627
H74	H	0.727806	0.488837	0.000107
H75	H	1.167089	0.018778	0.563383
H76	H	0.948286	0.328105	0.436816
N77	N	0.932339	0.350636	0.242834
H78	H	0.892438	0.302546	0.201500
H79	H	0.894209	0.404629	0.289578
H80	H	0.598889	0.382559	0.000084
N81	N	0.531458	-0.065561	0.000121
H82	H	0.494049	-0.139186	0.000125
H83	H	0.570604	-0.069511	-0.058573
N84	N	1.183034	-0.003720	0.449982
H85	H	1.221239	-0.057708	0.403293
H86	H	1.222858	0.044507	0.491301
H87	H	0.948321	0.328132	0.744182
N88	N	0.932360	0.350647	0.550209
H89	H	0.894171	0.404661	0.596896
H90	H	0.966942	0.406243	0.508849
H91	H	0.480366	0.379420	0.000083
H92	H	1.215989	-0.593894	0.000108
N93	N	1.387077	-0.523247	0.000145
H94	H	1.389688	-0.578253	-0.058544
H95	H	1.439749	-0.471200	0.000190
H96	H	0.804290	-0.028022	0.000092
