data_functionalizedCrystal
_audit_creation_method	'MofGen! by Chris Wilmer'
_symmetry_space_group_name_H-M	'P1'
_symmetry_Int_Tables_number	1
_symmetry_cell_setting	triclinic
loop_
_symmetry_equiv_pos_as_xyz
  x,y,z
_cell_length_a	19.188930
_cell_length_b	17.699083
_cell_length_c	16.776229
_cell_angle_alpha	89.999727
_cell_angle_beta	90.008536
_cell_angle_gamma	83.213899
loop_
_atom_site_label
_atom_site_type_symbol
_atom_site_fract_x
_atom_site_fract_y
_atom_site_fract_z
O1	O	0.088291	1.003961	0.066185
O2	O	0.099778	0.783568	0.066213
O3	O	-0.007614	0.900124	0.066183
O4	O	0.195683	0.887404	0.066215
O5	O	-0.007614	0.900111	-0.066394
O6	O	0.099778	0.783554	-0.066364
O7	O	0.088291	1.003948	-0.066391
Zn8	Zn	0.094035	0.893749	-0.087427
Zn9	Zn	0.094035	0.893766	0.087249
O10	O	0.195683	0.887391	-0.066361
C11	C	0.099367	0.755365	-0.000072
C12	C	0.098132	0.671348	-0.000062
C13	C	0.161169	0.622644	-0.000053
C14	C	0.160004	0.543702	-0.000063
C15	C	0.095802	0.513466	-0.000078
C16	C	0.032761	0.562176	-0.000090
C17	C	0.033926	0.641117	-0.000085
C18	C	0.028060	0.243819	-0.000111
C19	C	0.026900	0.164873	-0.000113
C20	C	0.154139	0.146405	-0.000088
C21	C	0.155304	0.225345	-0.000084
C22	C	0.092263	0.274049	-0.000100
C23	C	0.093526	0.359646	-0.000090
C24	C	0.094538	0.427870	-0.000082
C25	C	-0.033625	0.899706	-0.000108
C26	C	-0.111131	0.898469	-0.000114
C27	C	-0.155978	0.966861	-0.000127
C28	C	-0.228804	0.965699	-0.000114
C29	C	-0.256778	0.896142	-0.000105
C30	C	-0.211921	0.827741	-0.000088
C31	C	-0.139097	0.828905	-0.000093
N32	N	-0.364843	0.842969	-0.045216
N33	N	-0.434023	0.841869	-0.045213
C34	C	-0.476191	0.892632	-0.000088
N35	N	-0.446567	0.944549	0.045024
N36	N	-0.377381	0.945652	0.045018
C37	C	-0.335742	0.894873	-0.000099
C38	C	-0.600004	0.959769	-0.000085
C39	C	-0.672830	0.958604	-0.000067
C40	C	-0.655946	0.820644	-0.000049
C41	C	-0.583121	0.821811	-0.000059
C42	C	-0.555155	0.891375	-0.000081
C43	C	0.221695	0.887810	-0.000069
C44	C	0.299201	0.889046	-0.000057
C45	C	0.088703	1.032151	-0.000104
C46	C	0.089938	1.116167	-0.000109
N47	N	0.094034	0.893743	-0.206638
C48	C	0.136329	0.939502	-0.248350
C49	C	0.136326	0.939511	-0.331803
C50	C	0.094032	0.893755	-0.373541
C51	C	0.051732	0.847994	-0.331823
C52	C	0.051731	0.847990	-0.248372
C53	C	0.051733	0.848009	-0.668370
C54	C	0.051738	0.848015	-0.751826
C55	C	0.136328	0.939530	-0.751800
C56	C	0.136327	0.939526	-0.668350
C57	C	0.094025	0.893768	-0.626639
C58	C	0.094027	0.893760	-0.536150
C59	C	0.094033	0.893758	-0.464028
N60	N	0.094030	0.893779	0.206460
H61	H	-0.133213	1.023506	-0.000142
H62	H	-0.025384	0.140258	-0.000126
N63	N	-0.534747	0.748043	-0.000064
H64	H	-0.484369	0.759334	-0.000070
H65	H	-0.543780	0.717721	0.049087
N66	N	0.006109	0.798673	-0.796847
H67	H	0.036546	0.761524	-0.831466
H68	H	-0.020685	0.769738	-0.757710
H69	H	0.017291	0.810728	-0.214411
H70	H	0.017287	0.810751	-0.634419
H71	H	-0.017406	0.680771	-0.000093
H72	H	0.170774	0.976757	-0.214373
H73	H	-0.102582	0.773210	-0.000083
N74	N	-0.277192	1.039463	-0.000131
H75	H	-0.268206	1.069836	0.049006
H76	H	-0.268196	1.069752	-0.049319
N77	N	0.230416	0.655253	-0.000027
H78	H	0.270172	0.612418	-0.000023
H79	H	0.233674	0.687608	-0.049171
H80	H	-0.234702	0.771107	-0.000079
H81	H	-0.678722	0.764009	-0.000038
N82	N	-0.569833	1.034794	-0.000105
H83	H	-0.609297	1.077945	-0.000104
H84	H	-0.539974	1.038286	0.049038
N85	N	0.006117	0.798644	-0.376844
H86	H	0.019953	0.743532	-0.362319
H87	H	-0.044686	0.813807	-0.362316
N88	N	-0.721205	1.032373	-0.000077
H89	H	-0.692435	1.076615	-0.000094
H90	H	-0.751797	1.034883	-0.049222
N91	N	0.181910	0.988902	-0.376793
H92	H	0.208695	1.017896	-0.337690
H93	H	0.216088	0.955824	-0.411436
N94	N	-0.036483	0.529559	-0.000105
H95	H	-0.064096	0.547333	0.049036
H96	H	-0.064039	0.547342	-0.049289
N97	N	0.228015	0.491206	-0.000067
H98	H	0.230397	0.458027	0.049069
H99	H	0.230340	0.458105	-0.049256
N100	N	0.181940	0.988878	-0.623329
H101	H	0.232760	0.973783	-0.637841
H102	H	0.168041	1.043972	-0.637870
N103	N	0.224550	0.257958	-0.000057
H104	H	0.264308	0.215124	-0.000052
H105	H	0.227807	0.290313	-0.049201
N106	N	0.222137	0.093875	-0.000073
H107	H	0.211660	0.039278	-0.000081
H108	H	0.250125	0.103645	-0.049212
H109	H	-0.023272	0.283465	-0.000125
N110	N	0.181954	0.988887	-0.796788
H111	H	0.175537	0.981951	-0.855988
H112	H	0.168099	1.043975	-0.782198
