data_functionalizedCrystal
_audit_creation_method	'MofGen! by Chris Wilmer'
_symmetry_space_group_name_H-M	'P1'
_symmetry_Int_Tables_number	1
_symmetry_cell_setting	triclinic
loop_
_symmetry_equiv_pos_as_xyz
  x,y,z
_cell_length_a	14.560432
_cell_length_b	20.875492
_cell_length_c	20.875652
_cell_angle_alpha	55.987722
_cell_angle_beta	89.998877
_cell_angle_gamma	58.318761
loop_
_atom_site_label
_atom_site_type_symbol
_atom_site_fract_x
_atom_site_fract_y
_atom_site_fract_z
Zr1	Zr	0.822236	0.750559	-0.127964
O2	O	0.658433	0.900576	-0.242397
O3	O	0.880038	0.606271	-0.087569
O4	O	0.860973	0.758824	-0.234734
O5	O	0.683906	0.739505	0.014807
O6	O	1.012110	0.758827	-0.234734
O7	O	0.677497	0.748023	-0.095233
O8	O	1.046214	0.485937	0.028516
O9	O	0.649803	1.012395	-0.248443
O10	O	1.008316	0.663499	-0.076763
O11	O	0.900306	0.657140	0.005359
O12	O	0.877860	0.836752	-0.167908
O13	O	0.769850	0.830393	-0.085786
Zr14	Zr	1.073505	0.736979	0.047537
Zr15	Zr	1.063283	0.750564	-0.127964
Zr16	Zr	0.832458	0.736974	0.047538
Zr17	Zr	0.808473	0.928897	-0.137606
Zr18	Zr	1.087268	0.558641	0.057179
O19	O	1.015703	0.881267	0.007143
O20	O	1.001170	0.900582	-0.242398
O21	O	0.672966	0.881260	0.007143
O22	O	1.237309	0.586962	0.161970
O23	O	1.222775	0.606278	-0.087570
O24	O	0.894571	0.586955	0.161971
O25	O	1.211835	0.748033	-0.095234
O26	O	1.034768	0.728713	0.154307
O27	O	0.883631	0.728711	0.154307
O28	O	1.218244	0.739515	0.014806
O29	O	0.841403	1.012398	-0.248443
O30	O	1.054338	0.475139	0.168016
O31	O	1.245938	0.475143	0.168016
O32	O	1.237814	0.485941	0.028516
O33	O	0.657927	1.001597	-0.108942
O34	O	0.849527	1.001600	-0.108943
O35	O	1.017881	0.650786	0.087481
O36	O	1.125891	0.657145	0.005359
O37	O	0.995435	0.830398	-0.085786
O38	O	0.887425	0.824039	-0.003664
C39	C	0.965087	0.520695	-0.028153
C40	C	0.970930	0.444986	-0.024060
C41	C	0.882121	0.475733	-0.086103
C42	C	0.887612	0.404611	-0.082286
C43	C	0.981908	0.302743	-0.016422
C44	C	1.070725	0.271996	0.045624
C45	C	1.065238	0.343117	0.041804
C46	C	1.008141	0.082926	0.001859
C47	C	1.013620	0.011805	0.005676
C48	C	0.830507	0.144426	-0.122236
C49	C	0.825025	0.215542	-0.126048
C50	C	0.913845	0.184789	-0.064004
N51	N	0.987521	0.230044	-0.012518
N52	N	0.908235	0.257488	-0.067912
C53	C	0.646358	0.743763	-0.040213
C54	C	0.544027	0.743761	-0.040212
C55	C	0.680207	0.562884	0.054936
C56	C	0.700219	0.472449	0.102506
C57	C	0.604066	0.472453	0.102503
C58	C	0.487891	0.562902	0.054928
C59	C	0.467879	0.653337	0.007358
C60	C	0.564041	0.653323	0.007364
C61	C	0.331702	0.834212	-0.087784
C62	C	0.427852	0.834210	-0.087788
C63	C	0.215527	0.924661	-0.135360
C64	C	0.195513	1.015099	-0.182936
C65	C	0.291674	1.015091	-0.182932
C66	C	0.407840	0.924646	-0.135358
C67	C	1.249383	0.743775	-0.040214
C68	C	1.351714	0.743777	-0.040214
C69	C	0.935085	0.760761	-0.259739
C70	C	0.930746	0.766528	-0.334244
C71	C	0.930654	0.966843	-0.052274
C72	C	0.924811	1.042552	-0.056367
C73	C	0.898941	0.808733	-0.758753
C74	C	0.903026	0.803306	-0.688744
C75	C	0.973173	0.710156	-0.606165
C76	C	1.039230	0.622425	-0.593596
C77	C	1.035137	0.627853	-0.663604
C78	C	0.992710	0.684226	-0.391683
C79	C	0.996800	0.678805	-0.321674
C80	C	0.860594	0.859687	-0.416827
C81	C	0.856513	0.865106	-0.486832
C82	C	0.922565	0.777376	-0.474257
N83	N	0.977354	0.704607	-0.534603
N84	N	0.918377	0.782926	-0.545819
C85	C	0.960656	0.726777	0.179312
C86	C	0.964995	0.721009	0.253817
C87	C	1.266599	0.520701	-0.028154
C88	C	1.374773	0.444993	-0.024061
C89	C	0.977872	0.503702	0.191373
C90	C	0.988054	0.422226	0.269971
C91	C	1.279385	0.503708	0.191372
C92	C	1.391898	0.422234	0.269970
C93	C	0.616356	0.983830	-0.271799
C94	C	0.503843	1.065304	-0.350397
C95	C	0.629142	0.966837	-0.052273
C96	C	0.520968	1.042544	-0.056366
C97	C	0.917869	0.983835	-0.271799
C98	C	0.907687	1.065312	-0.350398
C99	C	1.364199	0.412758	-0.065012
C100	C	1.465829	0.341634	-0.061184
C101	C	1.578032	0.302741	-0.016397
C102	C	1.588603	0.334984	0.024555
C103	C	1.486974	0.406112	0.020721
C104	C	1.054209	0.380646	0.349755
C105	C	1.063772	0.304100	0.423613
C106	C	1.007186	0.269130	0.417684
C107	C	0.941023	0.310717	0.337891
C108	C	0.931454	0.387267	0.264035
C109	C	1.501125	0.387292	0.264014
C110	C	1.606851	0.310748	0.337857
C111	C	1.603347	0.269144	0.417657
C112	C	1.494108	0.304093	0.423612
C113	C	1.388385	0.380640	0.349768
C114	C	0.394616	1.100255	-0.344441
C115	C	0.288888	1.176820	-0.418286
C116	C	0.292391	1.218429	-0.498086
C117	C	0.401630	1.183475	-0.504040
C118	C	0.507355	1.106916	-0.430196
C119	C	0.531541	1.074788	-0.015422
C120	C	0.429908	1.145933	-0.019271
C121	C	0.317705	1.184828	-0.064060
C122	C	0.307134	1.152582	-0.105009
C123	C	0.408765	1.081444	-0.101165
C124	C	0.964288	1.100257	-0.344442
C125	C	0.954743	1.176803	-0.418286
C126	C	0.888591	1.218407	-0.498085
C127	C	0.831989	1.183454	-0.504039
C128	C	0.841540	1.106905	-0.430196
H129	H	0.815295	0.429655	-0.132809
H130	H	1.090409	-0.071145	0.059315
C131	C	1.037062	1.054500	-0.256670
H132	H	1.034646	1.003908	-0.213536
H133	H	1.117021	1.026272	-0.249031
H134	H	1.004402	1.105097	-0.253291
H135	H	0.758506	0.562872	0.054936
C136	C	0.405476	1.229238	-0.591820
H137	H	0.485668	1.197466	-0.584800
H138	H	0.369605	1.219830	-0.620270
H139	H	0.363537	1.298653	-0.624540
C140	C	0.654951	1.032015	0.033850
H141	H	0.646674	1.061422	0.057673
H142	H	0.702452	0.961717	0.078050
H143	H	0.691853	1.046541	-0.003786
C144	C	0.441551	1.181394	0.025774
H145	H	0.364958	1.229343	0.017064
H146	H	0.488724	1.125960	0.084931
H147	H	0.478140	1.210776	0.003099
C148	C	1.017721	0.184923	0.498928
H149	H	0.974542	0.170050	0.483976
H150	H	1.098865	0.126978	0.533596
H151	H	0.986236	0.205803	0.529329
H152	H	1.660776	0.244824	-0.013281
C153	C	1.073958	0.576334	-0.230835
H154	H	1.112702	0.524862	-0.233372
H155	H	1.131653	0.570458	-0.201551
H156	H	1.025107	0.570463	-0.201547
H157	H	1.080465	0.057875	0.052379
C158	C	0.878800	0.272233	0.331381
H159	H	0.893994	0.220679	0.386799
H160	H	0.795701	0.325535	0.299536
H161	H	0.908345	0.246716	0.303807
H162	H	1.491274	0.270207	0.488594
C163	C	1.268243	0.419057	0.356331
H164	H	1.281310	0.383303	0.414435
H165	H	1.221596	0.488192	0.327178
H166	H	1.227712	0.409353	0.331445
H167	H	1.088923	0.556419	-0.653364
C168	C	0.390738	1.054509	-0.256671
H169	H	0.310535	1.086308	-0.263713
H170	H	0.432665	0.985098	-0.223942
H171	H	0.426598	1.063925	-0.228218
C172	C	1.712031	0.292187	0.073825
H173	H	1.771035	0.245202	0.070247
H174	H	1.715316	0.344879	0.049908
H175	H	1.725897	0.260054	0.131728
H176	H	1.457199	0.315391	-0.094533
H177	H	0.275366	1.088734	-0.221659
C178	C	0.627499	1.068467	-0.436757
H179	H	0.614433	1.104209	-0.494861
H180	H	0.668067	1.078138	-0.411863
H181	H	0.674112	0.999331	-0.407610
C182	C	1.498621	0.441551	0.065783
H183	H	1.580004	0.408188	0.093010
H184	H	1.456229	0.511574	0.025167
H185	H	1.466838	0.426731	0.106990
H186	H	0.806817	0.931111	-0.427055
H187	H	1.147507	0.189048	0.099249
H188	H	0.748254	0.298487	-0.179693
C189	C	0.778395	0.587783	-0.158554
H190	H	0.726297	0.595906	-0.194962
H191	H	0.736378	0.616153	-0.135282
H192	H	0.808522	0.620415	-0.190131
H193	H	0.206294	1.280767	-0.558208
H194	H	0.841824	0.884587	-0.825990
H195	H	0.234960	1.242753	-0.067184
C196	C	0.168742	1.215247	-0.411720
H197	H	0.181808	1.179485	-0.353616
H198	H	0.122110	1.284378	-0.440864
H199	H	0.128197	1.205562	-0.436619
H200	H	0.215765	1.184262	-0.141476
C201	C	1.116454	0.419106	0.356289
H202	H	1.101296	0.470648	0.300881
H203	H	1.086923	0.444610	0.383871
H204	H	1.199554	0.365783	0.388141
C205	C	0.759214	1.229233	-0.591822
H206	H	0.761627	1.279835	-0.634941
H207	H	0.791853	1.178657	-0.595220
H208	H	0.679246	1.257475	-0.599466
C209	C	0.397128	1.045969	-0.146194
H210	H	0.473718	0.998033	-0.137498
H211	H	0.360543	1.016589	-0.123519
H212	H	0.349950	1.101407	-0.205356
C213	C	0.858693	0.432992	0.176276
H214	H	0.861085	0.483596	0.133132
H215	H	0.891360	0.382387	0.172912
H216	H	0.778729	0.461220	0.168637
H217	H	0.795442	1.078461	-0.435057
C218	C	0.830367	0.899803	-0.702574
H219	H	0.788015	0.956056	-0.761781
H220	H	0.775863	0.901445	-0.677239
H221	H	0.882404	0.901448	-0.677245
H222	H	0.880822	1.280738	-0.558207
C223	C	0.732822	0.178246	-0.190484
H224	H	0.749597	0.121303	-0.178782
H225	H	0.658235	0.215016	-0.189968
H226	H	0.730386	0.219277	-0.244813
C227	C	1.162922	0.309295	0.110055
H228	H	1.219862	0.238440	0.149833
H229	H	1.200657	0.336416	0.083800
H230	H	1.128513	0.332150	0.138649
C231	C	0.626069	0.372980	0.154829
H232	H	0.552162	0.385942	0.148015
H233	H	0.667542	0.338821	0.135595
H234	H	0.672063	0.332814	0.213167
H235	H	0.486142	0.924631	-0.135353
H236	H	0.794818	0.398807	0.141243
C237	C	0.382127	0.562905	0.054931
H238	H	0.410684	0.496092	0.090074
H239	H	0.337490	0.593304	0.076143
H240	H	0.332965	0.599312	-0.001429
C241	C	1.016998	1.215247	-0.411726
H242	H	1.001853	1.266788	-0.467129
H243	H	0.987462	1.240748	-0.384142
H244	H	1.100096	1.161918	-0.379868
H245	H	0.137239	0.924658	-0.135354
H246	H	0.100921	1.088735	-0.221664
H247	H	1.046498	0.612790	-0.381434
C248	C	0.779347	0.967572	-0.577665
H249	H	0.740584	1.019041	-0.575124
H250	H	0.828184	0.973453	-0.606958
H251	H	0.721649	0.973442	-0.606945
H252	H	1.096340	0.546580	-0.526353
H253	H	1.272846	0.444425	-0.101492
H254	H	1.117652	0.270248	0.488576
H255	H	1.504000	0.421156	0.199043
H256	H	1.695788	0.282301	0.332994
H257	H	1.689443	0.206814	0.477778
