data_functionalizedCrystal
_audit_creation_method	'MofGen! by Chris Wilmer'
_symmetry_space_group_name_H-M	'P1'
_symmetry_Int_Tables_number	1
_symmetry_cell_setting	triclinic
loop_
_symmetry_equiv_pos_as_xyz
  x,y,z
_cell_length_a	12.759401
_cell_length_b	14.908520
_cell_length_c	12.759393
_cell_angle_alpha	93.262473
_cell_angle_beta	89.980623
_cell_angle_gamma	93.322290
loop_
_atom_site_label
_atom_site_type_symbol
_atom_site_fract_x
_atom_site_fract_y
_atom_site_fract_z
Zn1	Zn	1.582070	-0.359064	-0.618104
Zn2	Zn	1.571801	-0.509950	-0.452551
Zn3	Zn	1.406368	-0.359115	-0.442445
Zn4	Zn	1.396201	-0.509885	-0.628186
O5	O	1.489110	-0.434503	-0.535322
O6	O	1.727728	-0.379085	-0.596154
O7	O	1.549813	-0.489990	-0.304193
O8	O	1.438228	-0.232864	-0.457298
O9	O	1.720184	-0.489941	-0.474523
O10	O	1.567315	-0.232826	-0.586354
O11	O	1.428271	-0.379172	-0.296767
O12	O	1.257999	-0.379109	-0.467073
O13	O	1.420900	-0.489829	-0.773866
O14	O	1.250530	-0.489879	-0.603536
O15	O	1.557457	-0.379021	-0.766460
O16	O	1.539955	-0.636186	-0.484298
O17	O	1.410943	-0.636138	-0.613336
C18	C	1.216143	-0.434493	-0.535302
C19	C	1.099366	-0.434510	-0.535321
C20	C	0.938706	-0.376888	-0.598776
C21	C	1.048430	-0.376886	-0.598765
C22	C	1.040570	-0.492147	-0.471892
C23	C	0.930848	-0.492154	-0.471909
C24	C	0.943245	-0.310340	-0.672022
C25	C	1.052970	-0.310338	-0.672011
C26	C	1.473260	-0.668896	-0.551031
C27	C	1.466575	-0.769170	-0.557786
C28	C	1.588492	-0.957584	-0.436222
C29	C	1.582215	-1.051800	-0.442566
C30	C	1.447749	-1.051820	-0.576823
C31	C	1.454026	-0.957604	-0.570479
C32	C	1.524399	-0.910489	-0.500175
C33	C	1.530670	-0.816271	-0.493826
C34	C	1.396211	-0.816293	-0.628088
C35	C	1.389933	-0.910509	-0.634432
C36	C	1.763143	-0.434514	-0.535341
C37	C	1.879919	-0.434519	-0.535350
C38	C	1.489190	-0.434412	-0.809349
C39	C	1.489224	-0.434374	-0.926123
C40	C	1.505051	-0.199196	-0.519574
C41	C	1.511844	-0.098922	-0.512863
C42	C	1.560338	-0.376670	-0.977130
C43	C	1.560366	-0.376638	-1.086852
C44	C	1.418160	-0.492019	-1.094551
C45	C	1.418129	-0.492047	-0.984831
C46	C	1.642443	-0.310059	-0.972686
C47	C	1.642470	-0.310026	-1.082408
C48	C	1.489096	-0.434529	-0.262356
C49	C	1.489282	-0.434314	-0.145565
H50	H	1.587969	-0.777911	-0.436579
O51	O	1.333792	-0.770583	-0.690105
C52	C	1.227556	-0.793724	-0.668616
H53	H	1.220579	-0.819688	-0.586429
H54	H	1.179768	-0.731800	-0.673438
H55	H	1.196415	-0.848396	-0.728602
O56	O	0.873690	-0.548241	-0.410463
C57	C	0.806294	-0.606553	-0.474095
H58	H	0.839019	-0.612192	-0.557206
H59	H	0.800344	-0.675948	-0.440630
H60	H	0.725022	-0.578672	-0.475905
O61	O	1.379261	-1.097493	-0.645061
C62	C	1.276082	-1.074595	-0.620449
H63	H	1.278473	-1.006217	-0.575450
H64	H	1.229148	-1.071359	-0.696015
H65	H	1.237192	-1.127689	-0.569983
O66	O	1.737991	-0.332508	-1.119409
C67	C	1.758944	-0.418935	-1.088260
H68	H	1.681848	-0.457903	-1.071355
H69	H	1.802237	-0.456395	-1.153847
H70	H	1.809688	-0.412394	-1.014391
H71	H	1.332640	-0.948883	-0.691674
H72	H	1.617828	-0.243643	-1.112000
O73	O	1.094090	-0.226996	-0.640366
C74	C	1.058670	-0.203897	-0.538224
H75	H	1.034810	-0.267794	-0.497037
H76	H	1.124392	-0.164530	-0.491986
H77	H	0.988167	-0.160688	-0.543052
H78	H	1.085340	-0.335439	-0.750939
H79	H	1.645785	-0.919222	-0.378970
H80	H	1.634408	-1.090141	-0.390491
O81	O	1.090213	-0.548043	-0.410293
C82	C	1.199662	-0.535701	-0.423900
H83	H	1.219373	-0.466112	-0.453774
H84	H	1.240918	-0.541742	-0.345593
H85	H	1.227200	-0.589266	-0.483335
O86	O	1.349208	-0.548016	-1.151742
C87	C	1.364463	-0.535601	-1.259522
H88	H	1.447548	-0.506055	-1.272541
H89	H	1.352769	-0.603165	-1.305737
H90	H	1.305408	-0.487548	-1.287441
O91	O	1.348994	-0.548170	-0.935449
C92	C	1.286232	-0.599045	-1.010796
H93	H	1.329080	-0.602167	-1.089218
H94	H	1.270172	-0.670127	-0.983837
H95	H	1.208696	-0.565981	-1.020260
O96	O	1.621894	-0.226742	-0.931636
C97	C	1.522833	-0.203700	-0.967029
H98	H	1.473126	-0.267622	-0.990794
H99	H	1.481835	-0.164365	-0.901327
H100	H	1.533432	-0.160480	-1.037582
O101	O	0.907877	-0.231108	-0.632292
C102	C	0.848416	-0.192572	-0.709358
H103	H	0.817501	-0.247486	-0.769150
H104	H	0.779563	-0.158414	-0.670514
H105	H	0.900100	-0.140655	-0.750727
H106	H	1.718028	-0.335103	-0.940332
H107	H	0.912239	-0.329133	-0.754622
