data_functionalizedCrystal
_audit_creation_method	'MofGen! by Chris Wilmer'
_symmetry_space_group_name_H-M	'P1'
_symmetry_Int_Tables_number	1
_symmetry_cell_setting	triclinic
loop_
_symmetry_equiv_pos_as_xyz
  x,y,z
_cell_length_a	12.759401
_cell_length_b	18.050589
_cell_length_c	12.759393
_cell_angle_alpha	90.029546
_cell_angle_beta	90.020938
_cell_angle_gamma	90.029746
loop_
_atom_site_label
_atom_site_type_symbol
_atom_site_fract_x
_atom_site_fract_y
_atom_site_fract_z
Zn1	Zn	1.606168	-0.295593	0.594027
Zn2	Zn	2.106168	0.204407	1.094027
Zn3	Zn	1.606017	-0.419801	0.418350
Zn4	Zn	2.106017	0.080199	0.918350
Zn5	Zn	1.430466	-0.295633	0.418362
Zn6	Zn	1.930466	0.204367	0.918362
Zn7	Zn	1.430417	-0.419749	0.593987
Zn8	Zn	1.930417	0.080251	1.093987
O9	O	1.518267	-0.357694	0.506182
O10	O	2.018267	0.142306	1.006182
O11	O	1.753169	-0.312075	0.570735
O12	O	2.253169	0.187925	1.070735
O13	O	1.582688	-0.403368	0.271331
O14	O	2.082688	0.096632	0.771331
O15	O	1.453857	-0.191703	0.441686
O16	O	1.953857	0.308297	0.941686
O17	O	1.753058	-0.403330	0.441666
O18	O	2.253058	0.096670	0.941666
O19	O	1.582944	-0.191674	0.570746
O20	O	2.082944	0.308326	1.070746
O21	O	1.453711	-0.312142	0.271339
O22	O	1.953711	0.187858	0.771339
O23	O	1.283439	-0.312092	0.441648
O24	O	1.783439	0.187908	0.941648
O25	O	1.453773	-0.403241	0.741014
O26	O	1.953773	0.096759	1.241014
O27	O	1.283402	-0.403280	0.570679
O28	O	1.783402	0.096720	1.070679
O29	O	1.582896	-0.312025	0.741043
O30	O	2.082896	0.187975	1.241043
O31	O	1.582640	-0.523719	0.441627
O32	O	2.082640	-0.023719	0.941627
O33	O	1.453627	-0.523681	0.570667
O34	O	1.953627	-0.023681	1.070667
C35	C	1.245300	-0.357685	0.506161
C36	C	1.745300	0.142315	1.006161
C37	C	1.128523	-0.357699	0.506177
C38	C	1.628523	0.142301	1.006177
C39	C	1.518140	-0.550646	0.506164
C40	C	2.018140	-0.050646	1.006164
C41	C	1.518182	-0.633192	0.506192
C42	C	2.018182	-0.133192	1.006192
C43	C	1.073670	-0.405253	0.573257
C44	C	1.573670	0.094747	1.073257
C45	C	0.963946	-0.405256	0.573278
C46	C	1.463946	0.094744	1.073278
C47	C	0.963938	-0.310149	0.439129
C48	C	1.463938	0.189851	0.939129
C49	C	1.073660	-0.310143	0.439114
C50	C	1.573660	0.189857	0.939114
C51	C	1.448094	-0.832649	0.576339
C52	C	1.948094	-0.332649	1.076339
C53	C	1.422478	-0.882097	0.480470
C54	C	1.922478	-0.382097	0.980470
C55	C	1.518285	-0.784322	0.506206
C56	C	2.018285	-0.284322	1.006206
C57	C	1.543953	-0.881956	0.602085
C58	C	2.043953	-0.381956	1.102085
C59	C	1.518383	-0.930307	0.506227
C60	C	2.018383	-0.430307	1.006227
C61	C	1.492619	-0.832683	0.410286
C62	C	1.992619	-0.332683	0.910286
C63	C	1.614139	-0.832538	0.531966
C64	C	2.114139	-0.332538	1.031966
C65	C	1.588559	-0.881964	0.436031
C66	C	2.088559	-0.381964	0.936031
C67	C	1.518226	-0.700224	0.506194
C68	C	2.018226	-0.200224	1.006194
C69	C	1.518442	-1.014404	0.506228
C70	C	2.018442	-0.514404	1.006228
C71	C	1.792300	-0.357704	0.506203
C72	C	2.292300	0.142296	1.006203
C73	C	1.909077	-0.357708	0.506212
C74	C	2.409077	0.142292	1.006212
C75	C	1.518346	-0.357623	0.780215
C76	C	2.018346	0.142377	1.280215
C77	C	1.518379	-0.357592	0.896992
C78	C	2.018379	0.142408	1.396992
C79	C	1.518423	-0.163989	0.506222
C80	C	2.018423	0.336011	1.006222
C81	C	1.518489	-0.081443	0.506239
C82	C	2.018489	0.418557	1.006239
C83	C	1.518249	-0.357712	0.233214
C84	C	2.018249	0.142288	0.733214
C85	C	1.518419	-0.357533	0.116438
C86	C	2.018419	0.142467	0.616438
C87	C	1.585619	-0.310088	0.951871
C88	C	2.085619	0.189912	1.451871
C89	C	1.585637	-0.310056	1.061595
C90	C	2.085637	0.189944	1.561595
C91	C	1.451172	-0.405039	1.061552
C92	C	1.951172	0.094961	1.561552
C93	C	1.451150	-0.405067	0.951829
C94	C	1.951150	0.094933	1.451829
H95	H	1.118336	-0.443974	0.627867
H96	H	1.618336	0.056026	1.127867
H97	H	0.919289	-0.443978	0.627904
H98	H	1.419289	0.056022	1.127904
C99	C	0.795737	-0.267928	0.379586
C100	C	1.295737	0.232072	0.879586
C101	C	0.903629	-0.257880	0.365412
C102	C	1.403629	0.242120	0.865412
H103	H	0.758509	-0.235661	0.334069
H104	H	1.258509	0.264339	0.834069
H105	H	0.777804	-0.257121	0.450197
H106	H	1.277804	0.242879	0.950197
H107	H	0.777727	-0.317816	0.364085
H108	H	1.277727	0.182184	0.864085
H109	H	0.921640	-0.207993	0.380920
H110	H	1.421640	0.292007	0.880920
H111	H	0.921569	-0.268682	0.294784
H112	H	1.421569	0.231318	0.794784
C113	C	1.062640	-0.216137	0.306500
C114	C	1.562640	0.283863	0.806500
C115	C	1.133963	-0.257870	0.365369
C116	C	1.633963	0.242130	0.865369
H117	H	1.099872	-0.183870	0.260973
H118	H	1.599872	0.316130	0.760973
H119	H	1.019888	-0.187770	0.352347
H120	H	1.519888	0.312230	0.852347
H121	H	1.019802	-0.248469	0.266240
H122	H	1.519802	0.251531	0.766240
H123	H	1.176797	-0.225538	0.405636
H124	H	1.676797	0.274462	0.905636
H125	H	1.176734	-0.286238	0.319516
H126	H	1.676734	0.213762	0.819516
H127	H	1.695134	-0.810755	0.553780
H128	H	2.195134	-0.310755	1.053780
H129	H	1.470854	-0.811128	0.329188
H130	H	1.970854	-0.311128	0.829188
C131	C	1.726980	-0.299711	1.185025
C132	C	2.226980	0.200289	1.685025
C133	C	1.659544	-0.257838	1.121924
C134	C	2.159544	0.242162	1.621924
H135	H	1.772601	-0.267469	1.222274
H136	H	2.272601	0.232531	1.722274
H137	H	1.767135	-0.332073	1.142225
H138	H	2.267135	0.167927	1.642225
H139	H	1.686936	-0.327978	1.233382
H140	H	2.186936	0.172022	1.733382
H141	H	1.699588	-0.229575	1.073562
H142	H	2.199588	0.270425	1.573562
H143	H	1.619385	-0.225463	1.164728
H144	H	2.119385	0.274537	1.664728
H145	H	1.396439	-0.443693	1.106214
H146	H	1.896439	0.056307	1.606214
H147	H	1.388648	-0.810995	0.635565
H148	H	1.888648	-0.310995	1.135565
H149	H	1.396388	-0.443750	0.907146
H150	H	1.896388	0.056250	1.407146
H151	H	1.341464	-0.903882	0.458702
H152	H	1.841464	-0.403882	0.958702
H153	H	1.647959	-0.903481	0.376662
H154	H	2.147959	-0.403481	0.876662
H155	H	1.565624	-0.903600	0.683161
H156	H	2.065624	-0.403600	1.183161
H157	H	1.640358	-0.271430	0.907225
H158	H	2.140358	0.228570	1.407225
