data_functionalizedCrystal
_audit_creation_method	'MofGen! by Chris Wilmer'
_symmetry_space_group_name_H-M	'P1'
_symmetry_Int_Tables_number	1
_symmetry_cell_setting	triclinic
loop_
_symmetry_equiv_pos_as_xyz
  x,y,z
_cell_length_a	10.654541
_cell_length_b	10.868271
_cell_length_c	10.654545
_cell_angle_alpha	90.002785
_cell_angle_beta	84.484678
_cell_angle_gamma	90.002963
loop_
_atom_site_label
_atom_site_type_symbol
_atom_site_fract_x
_atom_site_fract_y
_atom_site_fract_z
O1	O	1.667844	0.102278	0.176385
O2	O	1.302365	0.102288	0.193194
O3	O	1.493507	0.102282	0.002050
O4	O	1.476703	0.102284	0.367529
O5	O	1.493491	-0.102363	0.002043
O6	O	1.302349	-0.102357	0.193187
O7	O	1.667828	-0.102367	0.176378
Zn8	Zn	1.485086	-0.134854	0.184781
Zn9	Zn	1.485107	0.134774	0.184791
O10	O	1.476687	-0.102361	0.367521
C11	C	1.255559	-0.000033	0.191957
C12	C	1.116116	-0.000029	0.188266
N13	N	1.485081	-0.318868	0.184773
C14	C	1.088146	-0.000012	0.416831
C15	C	1.008652	0.000001	0.529374
C16	C	0.877634	0.000002	0.525898
C17	C	0.826108	-0.000014	0.409867
C18	C	0.905602	-0.000027	0.297324
C19	C	1.036622	-0.000025	0.300812
C20	C	0.933572	-0.000053	0.068763
C21	C	1.064590	-0.000045	0.072235
C22	C	0.882046	-0.000069	-0.047269
C23	C	0.961540	-0.000073	-0.159814
C24	C	1.092565	-0.000073	-0.156334
C25	C	1.144084	-0.000058	-0.040308
C26	C	1.485101	-0.569874	0.184788
C27	C	1.485086	-0.430196	0.184784
C28	C	1.714634	-0.000043	0.177615
C29	C	1.854078	-0.000039	0.181306
C30	C	1.492265	-0.000038	-0.044751
C31	C	1.488572	-0.000031	-0.184195
N32	N	1.485122	0.318788	0.184789
C33	C	1.488605	0.223079	-0.184195
C34	C	1.486891	0.334633	-0.249705
C35	C	1.483422	0.334635	-0.380724
C36	C	1.481663	0.223070	-0.446235
C37	C	1.483377	0.111515	-0.380725
C38	C	1.486849	0.111526	-0.249703
C39	C	1.483335	-0.111592	-0.380724
C40	C	1.486813	-0.111596	-0.249706
C41	C	1.481576	-0.223157	-0.446235
C42	C	1.483299	-0.334714	-0.380726
C43	C	1.486770	-0.334711	-0.249699
C44	C	1.488527	-0.223151	-0.184196
C45	C	1.477929	-0.000038	0.414323
C46	C	1.481621	-0.000037	0.553766
H47	H	1.194826	0.000014	0.419672
H48	H	1.050619	0.000011	0.623844
O49	O	1.488461	0.442919	-0.185901
C50	C	1.383807	0.572462	-0.024719
C51	C	1.381879	0.449779	-0.096858
H52	H	1.297632	0.578060	0.047269
H53	H	1.473123	0.578018	0.025970
H54	H	1.382056	0.652180	-0.094068
H55	H	1.383583	0.369991	-0.027595
H56	H	1.292570	0.444330	-0.147567
H57	H	1.157283	-0.000088	-0.247981
H58	H	0.812909	0.000004	0.617541
O59	O	0.754804	-0.000118	-0.050874
C60	C	0.582137	-0.000042	-0.181288
C61	C	0.726259	-0.000023	-0.177381
H62	H	0.559013	0.000061	-0.283559
H63	H	0.540293	-0.085695	-0.131653
H64	H	0.540405	0.085592	-0.131528
H65	H	0.768100	-0.085599	-0.227155
H66	H	0.768012	0.085687	-0.226976
H67	H	0.719425	-0.000028	0.407048
H68	H	0.919576	-0.000085	-0.254278
O69	O	1.481416	-0.442998	-0.444478
C70	C	1.368812	-0.572501	-0.579052
C71	C	1.370798	-0.449812	-0.506931
H72	H	1.279374	-0.578061	-0.629543
H73	H	1.454856	-0.578105	-0.651207
H74	H	1.370704	-0.652213	-0.509714
H75	H	1.368865	-0.370029	-0.576174
H76	H	1.284763	-0.444315	-0.434758
H77	H	1.488146	-0.425552	-0.196366
O78	O	1.481913	0.442925	-0.444511
C79	C	1.586654	0.572451	-0.605651
C80	C	1.588508	0.449755	-0.533540
H81	H	1.672839	0.578025	-0.677629
H82	H	1.497348	0.578054	-0.656351
H83	H	1.588439	0.652157	-0.536284
H84	H	1.586769	0.369980	-0.602823
H85	H	1.677806	0.444259	-0.482821
H86	H	1.250764	-0.000044	-0.037463
H87	H	1.491444	0.223089	-0.077514
H88	H	1.478823	0.223081	-0.552915
H89	H	1.478744	-0.223148	-0.552916
H90	H	1.491359	-0.223137	-0.077514
