data_functionalizedCrystal
_audit_creation_method	'MofGen! by Chris Wilmer'
_symmetry_space_group_name_H-M	'P1'
_symmetry_Int_Tables_number	1
_symmetry_cell_setting	triclinic
loop_
_symmetry_equiv_pos_as_xyz
  x,y,z
_cell_length_a	10.654550
_cell_length_b	15.944499
_cell_length_c	9.730223
_cell_angle_alpha	90.001915
_cell_angle_beta	89.996251
_cell_angle_gamma	83.981256
loop_
_atom_site_label
_atom_site_type_symbol
_atom_site_fract_x
_atom_site_fract_y
_atom_site_fract_z
O1	O	1.666275	0.117975	-0.114392
O2	O	1.300648	0.129216	-0.114369
O3	O	1.493480	0.001376	-0.114383
O4	O	1.473443	0.245815	-0.114378
O5	O	1.493477	0.001379	0.114197
O6	O	1.300646	0.129219	0.114211
O7	O	1.666273	0.117979	0.114188
Zn8	Zn	1.483459	0.123599	0.150491
Zn9	Zn	1.483462	0.123595	-0.150672
O10	O	1.473441	0.245819	0.114202
C11	C	1.253860	0.128392	-0.000076
C12	C	1.114449	0.125923	-0.000068
C13	C	1.492658	-0.029922	-0.000097
C14	C	1.490199	-0.123185	-0.000107
C15	C	1.033969	0.201193	-0.000086
C16	C	0.902978	0.198868	-0.000110
C17	C	0.932962	0.045996	-0.000103
C18	C	1.063950	0.048322	-0.000069
C19	C	1.084468	0.278794	-0.000085
C20	C	1.003986	0.354070	-0.000104
C21	C	0.872996	0.351745	-0.000128
C22	C	0.822488	0.274144	-0.000132
C23	C	1.602229	-0.414072	-0.000107
C24	C	1.543992	-0.353382	0.112604
C25	C	1.481264	-0.458873	-0.000090
C26	C	1.543962	-0.353392	-0.112758
C27	C	1.485660	-0.293939	-0.000101
C28	C	1.422993	-0.399411	0.112713
C29	C	1.422980	-0.399427	-0.112750
C30	C	1.364654	-0.338756	-0.000012
C31	C	1.478735	-0.553888	-0.000083
C32	C	1.488180	-0.198925	-0.000098
C33	C	1.713061	0.118802	-0.000108
C34	C	1.852471	0.121272	-0.000125
C35	C	1.474262	0.277116	-0.000087
C36	C	1.476722	0.370379	-0.000086
N37	N	1.483466	0.123602	0.356028
N38	N	1.483464	0.123586	-0.356209
C39	C	1.568873	0.067014	0.427948
C40	C	1.568870	0.067003	0.571830
C41	C	1.398048	0.180177	0.571861
C42	C	1.398046	0.180182	0.427981
C43	C	1.654293	0.010433	0.355994
C44	C	1.739709	-0.046159	0.427914
C45	C	1.739706	-0.046169	0.571797
C46	C	1.654287	0.010412	0.643760
H47	H	1.045119	0.417251	-0.000089
H48	H	1.264178	-0.306155	0.000060
O49	O	1.150768	-0.032859	-0.000059
H50	H	1.093649	-0.087211	-0.000088
H51	H	1.328498	0.226261	0.369424
O52	O	1.735198	-0.457462	-0.000114
H53	H	1.749668	-0.497932	0.092532
H54	H	1.654283	0.010394	0.760919
O55	O	1.355297	-0.426514	-0.238954
H56	H	1.405718	-0.408299	-0.332379
H57	H	1.328504	0.226244	0.630463
H58	H	1.595156	-0.332994	0.207883
H59	H	1.191125	0.280696	-0.000071
O60	O	1.611757	-0.326405	-0.238970
H61	H	1.546330	-0.282755	-0.300918
O62	O	1.355289	-0.426267	0.239075
H63	H	1.256989	-0.395325	0.239377
H64	H	1.654306	0.010438	0.238838
O65	O	0.786184	0.432929	-0.000134
H66	H	0.804148	0.470021	-0.093302
O67	O	0.681205	0.271630	-0.000155
H68	H	0.633723	0.337008	-0.000171
O69	O	1.831807	-0.107206	0.350310
H70	H	1.817461	-0.097695	0.238177
O71	O	1.831838	-0.107201	0.649364
H72	H	1.815880	-0.172784	0.621727
O73	O	0.878494	-0.037700	-0.000119
H74	H	0.773889	-0.026671	-0.000158
