data_functionalizedCrystal
_audit_creation_method	'MofGen! by Chris Wilmer'
_symmetry_space_group_name_H-M	'P1'
_symmetry_Int_Tables_number	1
_symmetry_cell_setting	triclinic
loop_
_symmetry_equiv_pos_as_xyz
  x,y,z
_cell_length_a	16.959455
_cell_length_b	16.120484
_cell_length_c	16.959447
_cell_angle_alpha	87.133462
_cell_angle_beta	90.014322
_cell_angle_gamma	92.922454
loop_
_atom_site_label
_atom_site_type_symbol
_atom_site_fract_x
_atom_site_fract_y
_atom_site_fract_z
Zn1	Zn	1.192394	-0.331957	0.462851
Zn2	Zn	1.185600	-0.471386	0.337369
Zn3	Zn	1.060221	-0.331984	0.330690
Zn4	Zn	1.053474	-0.471323	0.469504
O5	O	1.122922	-0.401662	0.400103
O6	O	1.302103	-0.350468	0.446216
O7	O	1.168949	-0.452931	0.225874
O8	O	1.083421	-0.215315	0.342642
O9	O	1.297112	-0.452905	0.354025
O10	O	1.180528	-0.215296	0.439740
O11	O	1.076833	-0.350513	0.220967
O12	O	0.948716	-0.350452	0.349093
O13	O	1.071921	-0.452799	0.579231
O14	O	0.943759	-0.452824	0.451079
O15	O	1.173985	-0.350408	0.574343
O16	O	1.162407	-0.588043	0.360476
O17	O	1.065334	-0.587997	0.457556
C18	C	0.917557	-0.401635	0.400084
C19	C	0.829700	-0.401643	0.400095
C20	C	0.460783	-0.348314	0.347103
C21	C	0.455662	-0.455080	0.453153
C22	C	0.538208	-0.455068	0.453147
C23	C	0.582046	-0.401679	0.400118
C24	C	0.543337	-0.348302	0.347094
C25	C	0.576923	-0.508450	0.506165
C26	C	0.659474	-0.508441	0.506161
C27	C	0.703314	-0.455047	0.453135
C28	C	0.664600	-0.401667	0.400109
C29	C	0.708437	-0.348278	0.347080
C30	C	0.669725	-0.294893	0.294058
C31	C	0.587176	-0.294908	0.294068
C32	C	0.785863	-0.455032	0.453125
C33	C	0.790991	-0.348266	0.347071
C34	C	1.112422	-0.618270	0.410480
C35	C	1.108003	-0.710935	0.414945
C36	C	1.099938	-0.880596	0.423114
C37	C	1.146048	-0.921888	0.377106
C38	C	1.141561	-1.016293	0.381651
C39	C	1.104424	-0.786182	0.418570
C40	C	1.329089	-0.401691	0.400123
C41	C	1.416945	-0.401703	0.400132
C42	C	1.122959	-0.401593	0.606268
C43	C	1.122974	-0.401564	0.694124
C44	C	1.133485	-0.184209	0.389704
C45	C	1.137986	-0.091544	0.385272
C46	C	1.122935	-0.401671	0.194738
C47	C	1.123084	-0.401466	0.106872
C48	C	1.069933	-0.454787	1.068143
C49	C	1.176213	-0.348166	1.063048
C50	C	1.176191	-0.348183	0.980503
C51	C	1.123040	-0.401504	0.941774
C52	C	1.069911	-0.454808	0.985590
C53	C	1.229324	-0.294887	0.936681
C54	C	1.229305	-0.294903	0.854130
C55	C	1.176150	-0.348221	0.815400
C56	C	1.123018	-0.401525	0.859221
C57	C	1.069867	-0.454846	0.820492
C58	C	1.016731	-0.508148	0.864312
C59	C	1.016755	-0.508125	0.946860
C60	C	1.176125	-0.348243	0.732853
C61	C	1.069845	-0.454867	0.737940
H62	H	0.429260	-0.304847	0.303935
H63	H	0.541224	-0.551923	0.549333
O64	O	1.227656	-0.296355	0.690316
C65	C	1.272950	-0.154560	0.658323
C66	C	1.214531	-0.213231	0.706526
H67	H	1.262370	-0.087342	0.671424
H68	H	1.263803	-0.163659	0.592658
H69	H	1.335971	-0.169254	0.675243
H70	H	1.151488	-0.198573	0.689673
H71	H	1.223747	-0.204120	0.772178
O72	O	1.197228	-0.879614	0.326017
C73	C	1.297111	-0.888560	0.226204
C74	C	1.239205	-0.936542	0.284039
H75	H	1.331054	-0.934565	0.192239
H76	H	1.340376	-0.847744	0.260561
H77	H	1.262727	-0.847837	0.182956
H78	H	1.273524	-0.977310	0.327301
H79	H	1.195941	-0.977305	0.249631
H80	H	0.690987	-0.551910	0.549336
O81	O	0.549697	-0.242981	0.242532
C82	C	0.563483	-0.137122	0.137305
C83	C	0.606032	-0.195867	0.195640
H84	H	0.609009	-0.099028	0.099366
H85	H	0.526971	-0.093527	0.171536
H86	H	0.522955	-0.175370	0.097787
H87	H	0.646599	-0.157686	0.235172
H88	H	0.642493	-0.239464	0.161360
H89	H	1.026555	-0.498281	0.706413
H90	H	0.419964	-0.498552	0.496322
H91	H	1.057096	-0.916143	0.465913
H92	H	1.219490	-0.304759	1.094586
H93	H	0.973458	-0.551565	0.832769
H94	H	0.817378	-0.498500	0.496292
O95	O	0.965220	-0.559872	0.989546
C96	C	0.918125	-0.607054	1.118974
C97	C	0.976540	-0.548423	1.070726
H98	H	0.927246	-0.597805	1.184616
H99	H	0.928733	-0.674304	1.106015
H100	H	0.855104	-0.592416	1.102001
H101	H	1.039584	-0.562986	1.087671
H102	H	0.965864	-0.481190	1.083690
H103	H	0.826679	-0.304784	0.303892
O104	O	1.280883	-0.243129	0.974424
C105	C	1.328056	-0.195896	1.099344
C106	C	1.269607	-0.254539	1.056695
H107	H	1.318971	-0.205113	1.165867
H108	H	1.317449	-0.128651	1.079965
H109	H	1.391065	-0.210552	1.083766
H110	H	1.206575	-0.239959	1.072252
H111	H	1.280283	-0.321766	1.076076
O112	O	1.018394	-0.506535	1.110824
C113	C	0.971281	-0.553719	1.240245
C114	C	1.029703	-0.495087	1.192006
H115	H	0.980392	-0.544471	1.305889
H116	H	0.981892	-0.620969	1.227287
H117	H	0.908262	-0.539082	1.223263
H118	H	1.092744	-0.509649	1.208960
H119	H	1.019023	-0.427855	1.204969
O120	O	1.280943	-0.243046	0.811686
C121	C	1.386391	-0.137321	0.815353
C122	C	1.327944	-0.195995	0.863518
H123	H	1.424418	-0.099278	0.857239
H124	H	1.352247	-0.093675	0.774648
H125	H	1.425817	-0.175622	0.778509
H126	H	1.288504	-0.157761	0.900408
H127	H	1.362138	-0.239643	0.904174
H128	H	0.705428	-0.251427	0.250878
