data_functionalizedCrystal
_audit_creation_method	'MofGen! by Chris Wilmer'
_symmetry_space_group_name_H-M	'P1'
_symmetry_Int_Tables_number	1
_symmetry_cell_setting	triclinic
loop_
_symmetry_equiv_pos_as_xyz
  x,y,z
_cell_length_a	18.215407
_cell_length_b	12.759400
_cell_length_c	18.215387
_cell_angle_alpha	89.912008
_cell_angle_beta	89.942217
_cell_angle_gamma	90.015132
loop_
_atom_site_label
_atom_site_type_symbol
_atom_site_fract_x
_atom_site_fract_y
_atom_site_fract_z
Zn1	Zn	1.125400	-0.417607	-0.416134
Zn2	Zn	1.125249	-0.593498	-0.293075
Zn3	Zn	1.002251	-0.417835	-0.293081
Zn4	Zn	1.002320	-0.593245	-0.416100
O5	O	1.063805	-0.505546	-0.354598
O6	O	1.228364	-0.440949	-0.399822
O7	O	1.108840	-0.570398	-0.190091
O8	O	1.018621	-0.270784	-0.309421
O9	O	1.228253	-0.570176	-0.309411
O10	O	1.109098	-0.270616	-0.399828
O11	O	1.018475	-0.441339	-0.190096
O12	O	0.899276	-0.441094	-0.309388
O13	O	1.018739	-0.569745	-0.519089
O14	O	0.899327	-0.569967	-0.399770
O15	O	1.109165	-0.440704	-0.519114
O16	O	1.108908	-0.740486	-0.309378
O17	O	1.018593	-0.740300	-0.399764
C18	C	0.872599	-0.505529	-0.354577
C19	C	0.790800	-0.505546	-0.354585
C20	C	0.602652	-0.572756	-0.401587
C21	C	0.525793	-0.572759	-0.401597
C22	C	0.525710	-0.438356	-0.307624
C23	C	0.602568	-0.438348	-0.307619
C24	C	0.641036	-0.505554	-0.354600
C25	C	0.487320	-0.505565	-0.354614
C26	C	0.403987	-0.505568	-0.354623
C27	C	0.724375	-0.505550	-0.354591
C28	C	1.063761	-0.778514	-0.354582
C29	C	1.063810	-0.895290	-0.354600
C30	C	1.110889	-0.950214	-0.307588
C31	C	1.110934	-1.059938	-0.307611
C32	C	1.016815	-1.059805	-0.401660
C33	C	1.016774	-0.950083	-0.401640
C34	C	1.157925	-0.895422	-0.260548
C35	C	1.205008	-0.950346	-0.213532
C36	C	1.205053	-1.060070	-0.213555
C37	C	1.158016	-1.114870	-0.260594
C38	C	1.255758	-0.505565	-0.354619
C39	C	1.337557	-0.505573	-0.354628
C40	C	1.063977	-0.505171	-0.546551
C41	C	1.064050	-0.505010	-0.628350
C42	C	1.063869	-0.231513	-0.354629
C43	C	1.063896	-0.114736	-0.354643
C44	C	1.063676	-0.505845	-0.163391
C45	C	1.063745	-0.505709	-0.081592
C46	C	1.110664	-0.437636	0.183258
C47	C	1.110611	-0.437752	0.106399
C48	C	1.017127	-0.573087	0.106805
C49	C	1.017176	-0.572965	0.183662
C50	C	1.063949	-0.505241	0.221887
C51	C	1.063847	-0.505479	0.068171
C52	C	1.063789	-0.505605	-0.015163
C53	C	1.064005	-0.505113	0.305225
H54	H	0.633821	-0.383618	-0.269356
Cl55	Cl	0.477345	-0.353876	-0.248564
H56	H	1.157892	-0.806079	-0.260523
H57	H	0.979130	-0.628017	0.215114
H58	H	1.148650	-0.382699	0.074951
H59	H	1.243395	-1.104786	-0.175277
H60	H	0.978519	-1.104432	-0.439956
H61	H	0.979047	-0.628228	0.075673
H62	H	0.494543	-0.627480	-0.439860
Cl63	Cl	1.169461	-0.352493	0.231309
H64	H	1.243308	-0.905722	-0.175238
H65	H	1.158062	-1.204215	-0.260614
Cl66	Cl	0.651010	-0.657239	-0.460652
H67	H	0.978438	-0.905364	-0.439922
