data_functionalizedCrystal
_audit_creation_method	'MofGen! by Chris Wilmer'
_symmetry_space_group_name_H-M	'P1'
_symmetry_Int_Tables_number	1
_symmetry_cell_setting	triclinic
loop_
_symmetry_equiv_pos_as_xyz
  x,y,z
_cell_length_a	17.038272
_cell_length_b	17.000383
_cell_length_c	16.098538
_cell_angle_alpha	92.506243
_cell_angle_beta	87.069734
_cell_angle_gamma	83.355930
loop_
_atom_site_label
_atom_site_type_symbol
_atom_site_fract_x
_atom_site_fract_y
_atom_site_fract_z
O1	O	1.029308	0.168741	-0.069150
O2	O	1.362641	0.502074	0.264183
O3	O	1.695974	0.835407	0.597517
O4	O	0.801865	0.166008	-0.069174
O5	O	1.135199	0.499341	0.264159
O6	O	1.468532	0.832674	0.597492
O7	O	0.929708	0.052464	-0.069157
O8	O	1.263041	0.385798	0.264176
O9	O	1.596374	0.719131	0.597509
O10	O	0.901465	0.282284	-0.069167
O11	O	1.234799	0.615617	0.264166
O12	O	1.568132	0.948950	0.597500
O13	O	0.922242	0.059069	0.069354
O14	O	1.255575	0.392403	0.402688
O15	O	1.588908	0.725736	0.736021
O16	O	0.794399	0.172612	0.069337
O17	O	1.127733	0.505946	0.402671
O18	O	1.461066	0.839279	0.736004
O19	O	1.021842	0.175345	0.069362
O20	O	1.355175	0.508679	0.402695
O21	O	1.688508	0.842012	0.736029
Zn22	Zn	0.906935	0.175028	0.091342
Zn23	Zn	1.240268	0.508361	0.424675
Zn24	Zn	1.573602	0.841694	0.758008
Zn25	Zn	0.916772	0.166325	-0.091154
Zn26	Zn	1.250105	0.499659	0.242179
Zn27	Zn	1.583439	0.832992	0.575513
O28	O	0.893999	0.288889	0.069345
O29	O	1.227333	0.622222	0.402678
O30	O	1.560666	0.955555	0.736012
C31	C	0.769174	0.166825	0.000078
C32	C	1.102508	0.500159	0.333412
C33	C	1.435841	0.833492	0.666745
C34	C	0.682890	0.159412	0.000069
C35	C	1.016223	0.492745	0.333402
C36	C	1.349556	0.826079	0.666736
C37	C	0.628115	0.227470	0.000067
C38	C	0.961448	0.560804	0.333400
C39	C	1.294781	0.894137	0.666734
C40	C	0.547041	0.220501	0.000079
C41	C	0.880374	0.553834	0.333412
C42	C	1.213708	0.887168	0.666745
C43	C	0.520744	0.145472	0.000087
C44	C	0.854077	0.478806	0.333420
C45	C	1.187410	0.812139	0.666753
C46	C	0.575525	0.077409	0.000091
C47	C	0.908859	0.410743	0.333425
C48	C	1.242192	0.744076	0.666758
C49	C	0.656597	0.084379	0.000086
C50	C	0.989930	0.417713	0.333419
C51	C	1.323264	0.751046	0.666752
C52	C	0.276671	0.120848	0.000110
C53	C	0.610004	0.454181	0.333443
C54	C	0.943338	0.787514	0.666777
C55	C	0.195592	0.113882	0.000113
C56	C	0.528926	0.447216	0.333447
C57	C	0.862259	0.780549	0.666780
C58	C	0.167114	0.256975	0.000102
C59	C	0.500447	0.590308	0.333436
C60	C	0.833780	0.923642	0.666769
C61	C	0.248189	0.263938	0.000091
C62	C	0.581522	0.597272	0.333425
C63	C	0.914855	0.930605	0.666758
C64	C	0.302963	0.195875	0.000100
C65	C	0.636296	0.529209	0.333434
C66	C	0.969629	0.862542	0.666767
C67	C	0.437874	0.138347	0.000096
C68	C	0.771207	0.471680	0.333429
C69	C	1.104540	0.805013	0.666763
C70	C	0.385831	0.203002	0.000097
C71	C	0.719164	0.536335	0.333430
C72	C	1.052497	0.869669	0.666764
C73	C	0.927491	0.026216	0.000098
C74	C	1.260825	0.359549	0.333431
C75	C	1.594158	0.692883	0.666764
C76	C	0.932002	-0.061837	0.000095
C77	C	1.265335	0.271496	0.333429
C78	C	1.598669	0.604829	0.666762
C79	C	0.961126	-0.560082	0.000095
C80	C	1.294459	-0.226749	0.333429
C81	C	1.627793	0.106585	0.666762
C82	C	0.956882	-0.477346	0.000100
C83	C	1.290215	-0.144013	0.333433
C84	C	1.623548	0.189320	0.666767
C85	C	0.883216	-0.431340	0.000088
C86	C	1.216550	-0.098007	0.333421
C87	C	1.549883	0.235326	0.666755
C88	C	0.813790	-0.468074	0.000080
C89	C	1.147124	-0.134740	0.333413
C90	C	1.480457	0.198593	0.666747
C91	C	0.818035	-0.550808	0.000081
C92	C	1.151368	-0.217474	0.333415
C93	C	1.484702	0.115859	0.666748
C94	C	0.866820	-0.181305	0.000089
C95	C	1.200154	0.152029	0.333422
C96	C	1.533487	0.485362	0.666755
C97	C	0.862581	-0.098565	0.000085
C98	C	1.195914	0.234768	0.333418
C99	C	1.529248	0.568101	0.666752
C100	C	1.005673	-0.107844	0.000106
C101	C	1.339007	0.225490	0.333440
C102	C	1.672340	0.558823	0.666773
C103	C	1.009912	-0.190579	0.000103
C104	C	1.343245	0.142754	0.333436
C105	C	1.676578	0.476088	0.666769
C106	C	0.940485	-0.227305	0.000099
C107	C	1.273819	0.106028	0.333432
C108	C	1.607152	0.439362	0.666766
C109	C	0.878876	-0.346771	0.000090
C110	C	1.212210	-0.013438	0.333423
C111	C	1.545543	0.319896	0.666757
C112	C	0.944826	-0.311873	0.000103
C113	C	1.278159	0.021461	0.333436
C114	C	1.611493	0.354794	0.666770
C115	C	1.054533	0.174528	0.000107
C116	C	1.387866	0.507861	0.333441
C117	C	1.721199	0.841194	0.666774
C118	C	1.140818	0.181941	0.000111
C119	C	1.474151	0.515274	0.333444
C120	C	1.807484	0.848607	0.666778
C121	C	0.896216	0.315137	0.000088
C122	C	1.229549	0.648470	0.333421
C123	C	1.562882	0.981804	0.666755
C124	C	0.891705	0.403190	0.000085
C125	C	1.225039	0.736523	0.333418
C126	C	1.558372	1.069857	0.666752
N127	N	0.900227	0.180966	0.215890
N128	N	1.233561	0.514300	0.549223
N129	N	1.566894	0.847633	0.882556
N130	N	0.923486	0.160381	-0.215702
N131	N	1.256819	0.493714	0.117631
N132	N	1.590153	0.827047	0.450964
C133	C	0.954506	0.132794	0.259482
C134	C	1.287839	0.466127	0.592815
C135	C	1.621173	0.799460	0.926149
C136	C	0.949820	0.136956	0.346670
C137	C	1.283154	0.470289	0.680004
C138	C	1.616487	0.803623	1.013337
C139	C	0.890859	0.189296	0.390265
C140	C	1.224192	0.522629	0.723598
C141	C	1.557526	0.855963	1.056932
C142	C	0.836575	0.237471	0.346667
C143	C	1.169908	0.570804	0.680000
C144	C	1.503242	0.904137	1.013333
C145	C	0.841258	0.233303	0.259480
C146	C	1.174591	0.566637	0.592813
C147	C	1.507924	0.899970	0.926146
C148	C	0.873885	0.204388	0.653513
C149	C	1.207218	0.537722	0.986846
C150	C	1.540551	0.871055	1.320179
C151	C	0.869207	0.208553	0.740706
C152	C	1.202541	0.541887	1.074039
C153	C	1.535874	0.875220	1.407372
C154	C	0.982453	0.108037	0.740703
C155	C	1.315786	0.441371	1.074037
C156	C	1.649119	0.774704	1.407370
C157	C	0.987133	0.103878	0.653515
C158	C	1.320466	0.437212	0.986848
C159	C	1.653800	0.770545	1.320182
C160	C	0.932846	0.152050	0.609924
C161	C	1.266180	0.485383	0.943258
C162	C	1.599513	0.818717	1.276591
C163	C	0.886070	0.193554	0.479385
C164	C	1.219403	0.526887	0.812719
C165	C	1.552736	0.860220	1.146052
C166	C	0.937633	0.147788	0.520805
C167	C	1.270966	0.481121	0.854139
C168	C	1.604299	0.814454	1.187472
H169	H	0.416452	0.077259	0.000126
H170	H	0.749786	0.410593	0.333460
H171	H	1.083119	0.743926	0.666793
Br172	Br	0.092775	0.349341	0.000091
Br173	Br	0.426108	0.682674	0.333424
Br174	Br	0.759441	1.016008	0.666758
H175	H	0.802591	-0.061109	0.000078
H176	H	1.135924	0.272225	0.333411
H177	H	1.469257	0.605558	0.666745
Br178	Br	1.051101	-0.427505	0.000093
Br179	Br	1.384435	-0.094172	0.333427
Br180	Br	1.717768	0.239162	0.666760
H181	H	1.069898	-0.228032	0.000116
H182	H	1.403231	0.105301	0.333449
H183	H	1.736565	0.438635	0.666783
H184	H	1.002522	0.090177	0.223993
H185	H	1.335855	0.423510	0.557327
H186	H	1.669188	0.756843	0.890660
Br187	Br	0.539837	-0.024416	0.000111
Br188	Br	0.873170	0.308917	0.333444
Br189	Br	1.206504	0.642250	0.666777
Br190	Br	1.067155	0.032849	0.594350
Br191	Br	1.400488	0.366182	0.927683
Br192	Br	1.733822	0.699516	1.261016
H193	H	0.174186	0.052782	0.000119
H194	H	0.507519	0.386115	0.333452
H195	H	0.840853	0.719449	0.666786
H196	H	1.021113	-0.597535	0.000098
H197	H	1.354446	-0.264202	0.333431
H198	H	1.687780	0.069131	0.666765
H199	H	0.649518	0.288566	0.000060
H200	H	0.982852	0.621900	0.333393
H201	H	1.316185	0.955233	0.666727
H202	H	0.502446	0.275921	0.000076
H203	H	0.835779	0.609255	0.333409
H204	H	1.169112	0.942588	0.666743
H205	H	0.818898	-0.309304	0.000077
H206	H	1.152231	0.024029	0.333411
H207	H	1.485565	0.357363	0.666744
Br208	Br	0.772599	-0.231137	0.000078
Br209	Br	1.105932	0.102196	0.333411
Br210	Br	1.439266	0.435530	0.666744
Br211	Br	1.023483	0.071575	0.405834
Br212	Br	1.356816	0.404908	0.739168
Br213	Br	1.690149	0.738242	1.072501
Br214	Br	0.806051	0.264586	0.538553
Br215	Br	1.139384	0.597919	0.871886
Br216	Br	1.472718	0.931252	1.205219
Br217	Br	0.713814	-0.405638	0.000071
Br218	Br	1.047147	-0.072304	0.333404
Br219	Br	1.380480	0.261029	0.666737
H220	H	0.321259	0.065426	0.000118
H221	H	0.654592	0.398759	0.333451
H222	H	0.987926	0.732092	0.666785
Br223	Br	0.723817	-0.600653	0.000076
Br224	Br	1.057150	-0.267320	0.333409
Br225	Br	1.390483	0.066013	0.666743
Br226	Br	0.730936	-0.007989	0.000096
Br227	Br	1.064269	0.325345	0.333429
Br228	Br	1.397603	0.658678	0.666762
Br229	Br	1.099889	-0.057997	0.000113
Br230	Br	1.433223	0.275336	0.333446
Br231	Br	1.766556	0.608670	0.666780
Br232	Br	1.056123	0.042663	0.799865
Br233	Br	1.389456	0.375997	1.133198
Br234	Br	1.722789	0.709330	1.466532
Br235	Br	0.283872	0.365766	0.000071
Br236	Br	0.617205	0.699099	0.333405
Br237	Br	0.950539	1.032433	0.666738
H238	H	0.821191	0.251178	0.776196
H239	H	1.154525	0.584511	1.109529
H240	H	1.487858	0.917845	1.442863
H241	H	0.407245	0.264090	0.000095
H242	H	0.740579	0.597423	0.333428
H243	H	1.073912	0.930757	0.666762
Br244	Br	0.756549	0.308499	0.405827
Br245	Br	1.089882	0.641832	0.739160
Br246	Br	1.423215	0.975165	1.072494
H247	H	0.797057	0.272530	0.223988
H248	H	1.130391	0.605863	0.557321
H249	H	1.463724	0.939196	0.890654
H250	H	1.004804	-0.349334	0.000117
H251	H	1.338137	-0.016001	0.333450
H252	H	1.671470	0.317333	0.666783
H253	H	0.829683	0.243613	0.618028
H254	H	1.163017	0.576946	0.951361
H255	H	1.496350	0.910280	1.284695
H256	H	0.985637	0.105170	0.485308
H257	H	1.318970	0.438503	0.818641
H258	H	1.652303	0.771836	1.151975
