data_functionalizedCrystal
_audit_creation_method	'MofGen! by Chris Wilmer'
_symmetry_space_group_name_H-M	'P1'
_symmetry_Int_Tables_number	1
_symmetry_cell_setting	triclinic
loop_
_symmetry_equiv_pos_as_xyz
  x,y,z
_cell_length_a	10.489711
_cell_length_b	10.489711
_cell_length_c	18.366186
_cell_angle_alpha	90.000763
_cell_angle_beta	90.007060
_cell_angle_gamma	84.527009
loop_
_atom_site_label
_atom_site_type_symbol
_atom_site_fract_x
_atom_site_fract_y
_atom_site_fract_z
O1	O	1.694059	0.179789	0.060569
O2	O	1.322856	0.196722	0.060565
O3	O	1.516924	0.002654	0.060569
O4	O	1.499991	0.373856	0.060565
O5	O	1.516903	0.002649	-0.060530
O6	O	1.322835	0.196717	-0.060535
O7	O	1.694038	0.179784	-0.060530
Zn8	Zn	1.508433	0.188250	-0.079760
Zn9	Zn	1.508461	0.188256	0.079794
O10	O	1.499970	0.373852	-0.060534
C11	C	1.275314	0.195448	0.000014
C12	C	1.133683	0.191646	0.000013
C13	C	0.951284	0.308352	0.000020
C14	C	1.043446	0.250058	0.059728
C15	C	1.043398	0.250022	-0.059667
C16	C	0.973508	0.126514	0.059786
C17	C	0.973451	0.126495	-0.059663
C18	C	1.065585	0.068112	0.000060
C19	C	1.515642	-0.044880	0.000021
C20	C	1.511840	-0.186511	0.000028
C21	C	1.628547	-0.368910	0.000022
C22	C	1.570240	-0.276762	-0.059687
C23	C	1.570229	-0.276782	0.059708
C24	C	1.446695	-0.346700	-0.059744
C25	C	1.446702	-0.346729	0.059704
C26	C	1.388306	-0.254609	-0.000019
C27	C	1.741580	0.181057	0.000022
C28	C	1.883211	0.184859	0.000028
C29	C	1.501251	0.421386	0.000015
C30	C	1.505054	0.563017	0.000013
N31	N	1.508424	0.188245	-0.188651
C32	C	1.594415	0.102342	-0.773199
C33	C	1.594417	0.102345	-0.696971
C34	C	1.508461	0.188244	-0.658862
C35	C	1.422519	0.274170	-0.696987
C36	C	1.422529	0.274173	-0.773213
C37	C	1.392428	0.203850	-0.538109
C38	C	1.392417	0.203838	-0.461884
C39	C	1.508432	0.188242	-0.423754
C40	C	1.624463	0.172631	-0.461859
C41	C	1.624473	0.172634	-0.538085
C42	C	1.508442	0.188251	-0.576207
C43	C	1.594376	0.102331	-0.302984
C44	C	1.594379	0.102342	-0.226755
C45	C	1.422470	0.274162	-0.226772
C46	C	1.422478	0.274156	-0.303000
C47	C	1.508429	0.188234	-0.341101
N48	N	1.508480	0.188251	0.188685
H49	H	0.901583	0.409855	0.000078
H50	H	1.394500	-0.377742	0.110184
Cl51	Cl	1.231451	-0.178228	-0.000065
H52	H	1.622513	-0.245826	0.110186
H53	H	0.942713	0.074312	0.110323
Cl54	Cl	1.314486	0.382181	-0.821133
Cl55	Cl	1.702472	-0.005666	-0.821098
H56	H	1.074444	0.302317	0.110203
H57	H	1.730049	-0.418611	-0.000036
H58	H	1.622485	-0.245783	-0.110165
Cl59	Cl	1.246556	0.223576	-0.413990
Cl60	Cl	1.366079	-0.394254	-0.137770
H61	H	1.115054	-0.033485	0.000091
H62	H	1.718934	0.159940	-0.430815
H63	H	1.664398	0.032385	-0.665932
Cl64	Cl	0.925542	0.045884	-0.137601
H65	H	1.664366	0.032371	-0.334007
H66	H	1.718949	0.159927	-0.569107
H67	H	1.664365	0.032389	-0.195720
H68	H	1.074340	0.302294	-0.110146
Cl69	Cl	1.314421	0.382160	-0.178868
Cl70	Cl	1.314433	0.382155	-0.350921
Cl71	Cl	1.246566	0.223464	-0.586036
H72	H	1.352535	0.344113	-0.665955
