data_functionalizedCrystal
_audit_creation_method	'MofGen! by Chris Wilmer'
_symmetry_space_group_name_H-M	'P1'
_symmetry_Int_Tables_number	1
_symmetry_cell_setting	triclinic
loop_
_symmetry_equiv_pos_as_xyz
  x,y,z
_cell_length_a	20.919287
_cell_length_b	14.628931
_cell_length_c	14.628931
_cell_angle_alpha	60.000000
_cell_angle_beta	86.844449
_cell_angle_gamma	58.213065
loop_
_atom_site_label
_atom_site_type_symbol
_atom_site_fract_x
_atom_site_fract_y
_atom_site_fract_z
Zr1	Zr	0.616754	1.000582	-0.168513
O2	O	0.514529	1.191286	-0.306426
O3	O	0.648092	0.809876	-0.126234
O4	O	0.648092	1.000581	-0.316940
O5	O	0.514528	1.000582	0.034711
O6	O	0.753449	1.000582	-0.325234
O7	O	0.514528	1.000581	-0.115721
O8	O	0.753448	0.659445	0.015904
O9	O	0.514529	1.341718	-0.306427
O10	O	0.740084	0.888317	-0.114393
O11	O	0.661457	0.888317	0.004062
O12	O	0.661457	1.112847	-0.220469
O13	O	0.582830	1.112847	-0.102014
Zr14	Zr	0.784786	1.000583	0.058181
Zr15	Zr	0.784787	1.000582	-0.181740
Zr16	Zr	0.616754	1.000582	0.071409
Zr17	Zr	0.616754	1.240503	-0.168513
Zr18	Zr	0.784786	0.760662	0.058181
O19	O	0.753449	1.191288	0.015903
O20	O	0.753449	1.191287	-0.325234
O21	O	0.514528	1.191287	0.034711
O22	O	0.887012	0.809879	0.196095
O23	O	0.887012	0.809878	-0.145042
O24	O	0.648091	0.809877	0.214903
O25	O	0.887012	1.000583	-0.145042
O26	O	0.753449	1.000583	0.206609
O27	O	0.648091	1.000583	0.214902
O28	O	0.887012	1.000584	0.005389
O29	O	0.648092	1.341719	-0.316941
O30	O	0.753448	0.659446	0.206609
O31	O	0.887012	0.659447	0.196095
O32	O	0.887012	0.659446	0.005390
O33	O	0.514529	1.341719	-0.115721
O34	O	0.648092	1.341719	-0.126235
O35	O	0.740083	0.888317	0.110138
O36	O	0.818710	0.888317	-0.008317
O37	O	0.740084	1.112848	-0.114393
O38	O	0.661457	1.112848	0.004062
C39	C	0.700770	0.700477	-0.055165
C40	C	0.700770	0.598624	-0.055165
C41	C	0.739774	0.553215	-0.113927
C42	C	0.739775	0.447945	-0.113928
C43	C	0.490587	1.000581	-0.038620
C44	C	0.419253	1.000581	-0.033005
C45	C	0.385740	1.000584	-0.113243
C46	C	0.318716	1.000577	-0.107961
C47	C	0.285204	1.000576	-0.022445
C48	C	0.318723	1.000569	0.057801
C49	C	0.385749	1.000567	0.052523
C50	C	0.082832	1.000574	-0.002359
C51	C	0.015801	1.000581	0.002912
C52	C	0.015799	1.000586	-0.162850
C53	C	0.082824	1.000592	-0.168124
C54	C	0.116339	1.000578	-0.087875
C55	C	0.216693	1.000573	-0.017047
C56	C	0.184852	1.000572	-0.093271
C57	C	0.910953	1.000583	-0.071711
C58	C	0.982287	1.000584	-0.077327
C59	C	0.700771	1.000581	-0.355271
C60	C	0.700771	1.000581	-0.457123
C61	C	0.700771	1.300688	-0.055166
C62	C	0.700771	1.402541	-0.055166
C63	C	0.661767	1.111963	-0.555154
C64	C	0.661766	1.111966	-0.660425
C65	C	0.700770	1.000583	0.244939
C66	C	0.700770	1.000583	0.346792
C67	C	0.910953	0.700478	-0.071711
C68	C	0.982287	0.598626	-0.077326
C69	C	0.700770	0.700478	0.244940
C70	C	0.700769	0.598625	0.346793
C71	C	0.910953	0.700479	0.228394
C72	C	0.982286	0.598627	0.324632
C73	C	0.490588	1.300686	-0.338726
C74	C	0.419254	1.402538	-0.434963
C75	C	0.490588	1.300686	-0.038621
C76	C	0.419254	1.402539	-0.033005
C77	C	0.700771	1.300687	-0.355271
C78	C	0.700771	1.402539	-0.457124
C79	C	0.974744	0.550794	-0.135344
C80	C	1.041763	0.455106	-0.140642
C81	C	1.116325	0.407245	-0.087915
C82	C	1.123867	0.455086	-0.029895
C83	C	1.056848	0.550779	-0.024605
C84	C	1.056835	0.550796	0.307993
C85	C	1.123867	0.455108	0.398409
C86	C	1.116349	0.407247	0.505462
C87	C	1.041793	0.455087	0.522099
C88	C	0.974762	0.550779	0.431684
C89	C	0.344705	1.450380	-0.418325
C90	C	0.277673	1.546098	-0.508740
C91	C	0.285191	1.593964	-0.615794
C92	C	0.359748	1.546118	-0.632431
C93	C	0.426778	1.450409	-0.542016
C94	C	0.426797	1.450380	0.025002
C95	C	0.359777	1.546095	0.030274
C96	C	0.285215	1.593960	-0.022456
C97	C	0.277674	1.546114	-0.080472
C98	C	0.344692	1.450408	-0.085749
C99	C	0.739773	0.553217	0.444823
C100	C	0.739774	0.447946	0.550094
H101	H	0.773170	0.592266	-0.164230
N102	N	0.201507	1.594985	-0.134296
N103	N	0.181505	1.520211	-0.107848
H104	H	0.127710	1.554720	-0.145852
N105	N	0.658878	0.451491	0.007967
N106	N	0.622212	0.408845	0.063215
H107	H	0.592625	0.443420	0.107806
N108	N	0.781679	0.602188	0.452348
N109	N	0.854054	0.527484	0.496510
H110	H	0.883652	0.562068	0.501827
N111	N	1.200032	0.406163	0.023989
N112	N	1.220033	0.352738	0.125745
H113	H	1.273826	0.318177	0.163809
N114	N	0.284500	1.000552	-0.189915
N115	N	0.323733	0.909916	-0.203174
H116	H	0.299573	0.909891	-0.261057
H117	H	1.062972	0.589751	0.220832
N118	N	1.200012	0.406268	0.381380
N119	N	1.206707	0.449008	0.285788
H120	H	1.260482	0.414517	0.273757
H121	H	1.063001	0.589711	0.022646
N122	N	0.116944	1.000677	0.079626
N123	N	0.077604	1.091374	0.092788
H124	H	0.101658	1.091484	0.150700
H125	H	0.667374	0.559572	0.340801
H126	H	0.773165	0.408900	-0.164241
H127	H	0.110108	1.000593	-0.237759
H128	H	0.365860	1.585103	-0.719604
H129	H	-0.011495	1.000596	-0.228185
N130	N	0.337028	1.401499	-0.308972
N131	N	0.396873	1.316051	-0.228242
H132	H	0.391447	1.281538	-0.151011
H133	H	1.035607	0.416166	-0.187887
H134	H	0.628378	1.207320	-0.561146
H135	H	0.914038	0.589762	-0.178295
N136	N	0.619866	1.231588	-0.765933
N137	N	0.619919	1.231421	-0.851299
H138	H	0.590324	1.315907	-0.925818
H139	H	1.035683	0.416104	0.609274
H140	H	0.291436	1.000560	0.127435
H141	H	1.170936	0.329327	0.579074
N142	N	0.201528	1.594945	-0.491711
N143	N	0.194834	1.552179	-0.396119
H144	H	0.141059	1.586674	-0.384088
N145	N	0.216709	1.691732	-0.708132
N146	N	0.150154	1.734428	-0.693249
H147	H	0.101785	1.803475	-0.758459
N148	N	0.658895	0.451482	0.437382
N149	N	0.676309	0.376757	0.407397
H150	H	0.646741	0.411320	0.332883
N151	N	0.658893	0.549614	0.007973
N152	N	0.694660	0.432102	0.082277
H153	H	0.665085	0.397488	0.126875
H154	H	0.734165	0.905225	-0.451132
H155	H	-0.011483	1.000581	0.072553
N156	N	0.502920	1.401538	-0.559042
N157	N	0.522889	1.348164	-0.610564
H158	H	0.576663	1.313654	-0.622598
N159	N	0.419961	1.000580	-0.200602
N160	N	0.390032	1.000570	-0.272230
H161	H	0.414201	1.000557	-0.333926
N162	N	0.419978	1.000552	0.134498
N163	N	0.390052	1.000548	0.210849
H164	H	0.414227	1.000531	0.268751
N165	N	0.219072	1.000568	-0.180626
N166	N	0.189147	1.000570	-0.252266
H167	H	0.213320	1.000566	-0.313962
H168	H	1.170890	0.329324	-0.092230
N169	N	0.742668	0.880960	-0.547701
N170	N	0.796673	0.854918	-0.485504
H171	H	0.826264	0.770435	-0.410981
N172	N	0.502948	1.401510	0.078880
N173	N	0.509658	1.444258	0.130661
H174	H	0.563438	1.409753	0.168712
H175	H	0.189401	1.000576	0.052581
N176	N	0.367506	1.594942	0.089540
N177	N	0.434086	1.552178	0.136622
H178	H	0.439547	1.586673	0.178479
H179	H	0.230651	1.671890	-0.018151
N180	N	0.336967	1.401557	-0.145008
N181	N	0.270386	1.444312	-0.192078
H182	H	0.264923	1.409817	-0.233934
N183	N	0.781672	0.398941	0.655602
N184	N	0.781616	0.313491	0.740968
H185	H	0.811209	0.278876	0.815488
H186	H	0.914064	0.589711	0.445248
