data_functionalizedCrystal
_audit_creation_method	'MofGen! by Chris Wilmer'
_symmetry_space_group_name_H-M	'P1'
_symmetry_Int_Tables_number	1
_symmetry_cell_setting	triclinic
loop_
_symmetry_equiv_pos_as_xyz
  x,y,z
_cell_length_a	10.540510
_cell_length_b	16.176319
_cell_length_c	17.699092
_cell_angle_alpha	89.994879
_cell_angle_beta	83.899839
_cell_angle_gamma	89.992361
loop_
_atom_site_label
_atom_site_type_symbol
_atom_site_fract_x
_atom_site_fract_y
_atom_site_fract_z
O1	O	1.683971	-0.068748	0.106554
O2	O	1.314369	-0.068749	0.116627
O3	O	1.509607	-0.068747	0.001469
O4	O	1.488733	-0.068750	0.221712
O5	O	1.509580	0.068747	0.001461
O6	O	1.314342	0.068745	0.116619
O7	O	1.683944	0.068745	0.106547
Cu8	Cu	1.499141	0.081299	0.111582
Cu9	Cu	1.499172	-0.081303	0.111591
O10	O	1.488706	0.068743	0.221705
C11	C	1.267066	-0.000002	0.115873
C12	C	1.126157	-0.000002	0.113627
C13	C	0.907242	-0.000319	0.193627
C14	C	1.053794	-0.000005	0.196022
C15	C	1.082151	0.078512	0.071444
C16	C	0.935423	0.078573	0.069632
C17	C	0.935679	-0.077783	0.067925
C18	C	1.081949	-0.078815	0.071833
C19	C	1.508843	-0.000001	-0.026737
C20	C	1.506594	-0.000005	-0.110769
C21	C	1.731247	-0.000003	0.107301
C22	C	1.872156	-0.000009	0.109547
N23	N	1.499128	0.195664	0.111576
N24	N	1.499195	-0.195668	0.111592
C25	C	1.585605	0.238929	0.060605
C26	C	1.585611	0.325476	0.060604
C27	C	1.499146	0.368757	0.111578
C28	C	1.412659	0.325486	0.162552
C29	C	1.412648	0.238940	0.162548
C30	C	1.412703	0.674514	0.162566
C31	C	1.412723	0.761066	0.162567
C32	C	1.585666	0.761050	0.060622
C33	C	1.585655	0.674505	0.060619
C34	C	1.499164	0.631241	0.111589
C35	C	1.499157	0.537397	0.111588
C36	C	1.499158	0.462599	0.111583
C37	C	1.505555	-0.074953	-0.150239
C38	C	1.503434	-0.074954	-0.229195
C39	C	1.502361	-0.000006	-0.268681
C40	C	1.503396	0.074948	-0.229205
C41	C	1.505508	0.074948	-0.150249
C42	C	1.494876	0.074949	-0.547625
C43	C	1.492767	0.074943	-0.626587
C44	C	1.492801	-0.074953	-0.626571
C45	C	1.494913	-0.074953	-0.547615
C46	C	1.495942	0.000000	-0.508146
C47	C	1.498240	0.000001	-0.422532
C48	C	1.500072	-0.000005	-0.354294
C49	C	1.489469	-0.000004	0.249910
C50	C	1.491719	-0.000006	0.333942
H51	H	1.081581	0.056371	0.229217
H52	H	1.132115	-0.083556	0.011679
O53	O	1.328584	0.632453	0.211979
C54	C	1.250410	0.582390	0.171008
H55	H	1.248439	0.608479	0.111309
H56	H	1.149432	0.581416	0.201323
H57	H	1.290143	0.516795	0.167263
O58	O	1.491818	-0.147840	-0.664797
C59	C	1.493177	-0.213989	-0.613011
H60	H	1.534878	-0.192020	-0.559656
H61	H	1.554150	-0.266420	-0.640298
H62	H	1.391605	-0.237017	-0.597202
H63	H	0.894670	0.137262	0.098454
H64	H	1.506436	-0.135985	-0.118096
H65	H	1.502593	-0.135985	-0.261329
H66	H	0.864714	-0.056627	0.225730
H67	H	1.491890	0.135979	-0.658734
O68	O	1.506557	0.147827	-0.112026
C69	C	1.505117	0.213980	-0.163803
H70	H	1.543807	0.192013	-0.223001
H71	H	1.567297	0.266408	-0.145462
H72	H	1.403087	0.237011	-0.164813
H73	H	1.342308	0.796303	0.204078
O74	O	0.884386	-0.148802	0.098884
C75	C	0.828940	-0.194207	0.042853
H76	H	0.804835	-0.150659	-0.004214
H77	H	0.738049	-0.225462	0.069474
H78	H	0.899097	-0.243214	0.017990
O79	O	0.909164	0.082946	-0.003851
C80	C	0.837378	0.154849	-0.014178
H81	H	0.786462	0.175292	0.042806
H82	H	0.763856	0.141186	-0.055318
H83	H	0.903764	0.206210	-0.038372
O84	O	0.854690	0.066411	0.231823
C85	C	0.886987	0.065320	0.307104
H86	H	0.911098	-0.000581	0.323393
H87	H	0.802814	0.088752	0.347154
H88	H	0.973162	0.106905	0.311642
O89	O	1.495712	-0.147719	-0.509181
C90	C	1.386984	-0.152180	-0.455568
H91	H	1.350724	-0.087093	-0.441069
H92	H	1.413107	-0.183944	-0.401841
H93	H	1.309204	-0.189110	-0.480440
O94	O	1.495968	0.147830	-0.509415
C95	C	1.494559	0.213978	-0.561200
H96	H	1.533202	0.191992	-0.620399
H97	H	1.556794	0.266386	-0.542878
H98	H	1.392544	0.237044	-0.562196
O99	O	1.669618	0.802989	0.010996
C100	C	1.649195	0.781865	-0.064044
H101	H	1.600264	0.719033	-0.064227
H102	H	1.744719	0.778896	-0.100775
H103	H	1.586090	0.830584	-0.087808
H104	H	1.110019	-0.136900	0.102525
H105	H	1.130647	0.081433	0.010786
H106	H	0.914653	-0.078312	0.006062
O107	O	1.088237	-0.067055	0.235472
C108	C	1.148143	-0.040684	0.298809
H109	H	1.188271	0.024170	0.287895
H110	H	1.229058	-0.084960	0.308381
H111	H	1.075546	-0.039940	0.351365
O112	O	1.669670	0.367599	0.011200
C113	C	1.747864	0.417629	0.052188
H114	H	1.697116	0.430589	0.111123
H115	H	1.768050	0.478492	0.020717
H116	H	1.841654	0.384264	0.057868
H117	H	1.112460	0.136941	0.100733
H118	H	1.342228	0.203715	0.204053
O119	O	1.669648	0.197018	0.011015
C120	C	1.745995	0.253769	-0.033961
H121	H	1.693964	0.315469	-0.035108
H122	H	1.765544	0.228771	-0.094295
H123	H	1.840210	0.262956	-0.008849
H124	H	1.342251	0.360730	0.204053
O125	O	1.669378	0.632440	0.010958
C126	C	1.601363	0.582511	-0.036123
H127	H	1.502038	0.569492	-0.006441
H128	H	1.654360	0.521671	-0.047974
H129	H	1.592693	0.615993	-0.092023
O130	O	1.502412	0.147680	-0.267681
C131	C	1.500300	0.131611	-0.345832
H132	H	1.540190	0.067196	-0.359528
H133	H	1.561098	0.179475	-0.380316
H134	H	1.397907	0.135167	-0.360847
