data_functionalizedCrystal
_audit_creation_method	'MofGen! by Chris Wilmer'
_symmetry_space_group_name_H-M	'P1'
_symmetry_Int_Tables_number	1
_symmetry_cell_setting	triclinic
loop_
_symmetry_equiv_pos_as_xyz
  x,y,z
_cell_length_a	19.805407
_cell_length_b	11.169416
_cell_length_c	11.169409
_cell_angle_alpha	90.027704
_cell_angle_beta	89.975047
_cell_angle_gamma	89.985977
loop_
_atom_site_label
_atom_site_type_symbol
_atom_site_fract_x
_atom_site_fract_y
_atom_site_fract_z
Zn1	Zn	1.034833	0.477648	-0.678746
Zn2	Zn	1.034768	0.678388	-0.478079
Zn3	Zn	0.921639	0.477725	-0.478062
Zn4	Zn	0.921640	0.678294	-0.678706
O5	O	0.978220	0.578014	-0.578398
O6	O	1.129541	0.504284	-0.652150
O7	O	1.019733	0.651841	-0.310127
O8	O	0.936682	0.309765	-0.504693
O9	O	1.129493	0.651767	-0.504721
O10	O	1.019845	0.309708	-0.652134
O11	O	0.936618	0.504415	-0.310114
O12	O	0.826923	0.504323	-0.504654
O13	O	0.936683	0.651607	-0.846661
O14	O	0.826923	0.651681	-0.652066
O15	O	1.019846	0.504192	-0.846690
O16	O	1.019734	0.846325	-0.504683
O17	O	0.936619	0.846256	-0.652082
C18	C	0.802364	0.578001	-0.578355
C19	C	0.727132	0.578025	-0.578365
C20	C	0.265370	0.501363	-0.655328
C21	C	0.336058	0.501365	-0.655320
C22	C	0.371370	0.578032	-0.578437
C23	C	0.335990	0.654710	-0.501566
C24	C	0.265303	0.654713	-0.501582
C25	C	0.621064	0.654701	-0.501503
C26	C	0.691756	0.654690	-0.501490
C27	C	0.691819	0.501353	-0.655241
C28	C	0.621131	0.501356	-0.655256
C29	C	0.585758	0.578038	-0.578391
C30	C	0.509109	0.578036	-0.578402
C31	C	0.448017	0.578028	-0.578418
C32	C	0.978188	0.889838	-0.578406
C33	C	0.978236	1.023238	-0.578450
C34	C	0.978272	0.577880	-0.891441
C35	C	0.978294	0.577824	-1.024841
C36	C	1.154763	0.578027	-0.578442
C37	C	1.229995	0.578033	-0.578461
C38	C	0.978266	1.264971	-0.578432
C39	C	0.978273	1.131571	-0.578488
C40	C	0.978207	0.578060	-0.266573
C41	C	0.978316	0.577779	-0.133174
H42	H	0.592384	0.438921	-0.717858
H43	H	0.592271	0.717137	-0.438910
F44	F	0.373704	0.419767	-0.737138
H45	H	0.720628	0.438918	-0.717832
F46	F	0.227655	0.736324	-0.419777
H47	H	0.720505	0.717126	-0.438881
F48	F	0.373574	0.736311	-0.419747
H49	H	0.236624	0.438924	-0.717928
