data_functionalizedCrystal
_audit_creation_method	'MofGen! by Chris Wilmer'
_symmetry_space_group_name_H-M	'P1'
_symmetry_Int_Tables_number	1
_symmetry_cell_setting	triclinic
loop_
_symmetry_equiv_pos_as_xyz
  x,y,z
_cell_length_a	15.944551
_cell_length_b	17.699083
_cell_length_c	16.776229
_cell_angle_alpha	90.000273
_cell_angle_beta	90.004368
_cell_angle_gamma	96.609123
loop_
_atom_site_label
_atom_site_type_symbol
_atom_site_fract_x
_atom_site_fract_y
_atom_site_fract_z
O1	O	0.106218	-1.004259	0.066178
O2	O	0.120038	-0.783904	0.066204
O3	O	-0.009160	-0.900099	0.066183
O4	O	0.235415	-0.888064	0.066199
O5	O	-0.009160	-0.900086	-0.066393
O6	O	0.120037	-0.783891	-0.066372
O7	O	0.106218	-1.004246	-0.066398
Zn8	Zn	0.113128	-0.894066	-0.087435
Zn9	Zn	0.113128	-0.894083	0.087241
O10	O	0.235415	-0.888051	-0.066377
C11	C	0.119542	-0.755700	-0.000080
C12	C	0.118057	-0.671679	-0.000071
C13	C	-0.040453	-0.899593	-0.000105
C14	C	-0.133696	-0.898095	-0.000105
C15	C	0.106713	-1.032450	-0.000112
C16	C	0.108199	-1.116471	-0.000116
C17	C	-0.348393	-0.822492	-0.000085
C18	C	-0.409484	-0.857593	-0.065458
C19	C	-0.304416	-0.895385	-0.000099
C20	C	-0.409468	-0.857623	0.065252
C21	C	-0.469323	-0.892762	-0.000089
C22	C	-0.364279	-0.930506	-0.065525
C23	C	-0.364256	-0.930526	0.065244
C24	C	-0.425329	-0.965680	-0.000145
C25	C	-0.209417	-0.896894	-0.000105
C26	C	-0.564321	-0.891259	-0.000089
C27	C	0.266708	-0.888557	-0.000087
C28	C	0.359951	-0.890055	-0.000082
N29	N	0.113127	-0.894060	-0.206646
C30	C	0.193893	-0.623187	-0.000066
C31	C	0.192492	-0.544242	-0.000076
C32	C	0.115254	-0.513789	-0.000086
C33	C	0.039412	-0.562287	-0.000093
C34	C	0.040814	-0.641231	-0.000088
C35	C	0.033758	-0.243914	-0.000113
C36	C	0.032362	-0.164964	-0.000115
C37	C	0.185436	-0.146925	-0.000101
C38	C	0.186837	-0.225869	-0.000096
C39	C	0.110996	-0.274360	-0.000108
C40	C	0.112516	-0.359962	-0.000098
C41	C	0.113733	-0.428189	-0.000090
C42	C	0.164009	-0.939962	-0.248362
C43	C	0.164006	-0.939970	-0.331814
C44	C	0.113124	-0.894072	-0.373549
C45	C	0.062236	-0.848168	-0.331827
C46	C	0.062235	-0.848164	-0.248376
C47	C	0.062237	-0.848184	-0.668374
C48	C	0.062243	-0.848189	-0.751831
C49	C	0.164008	-0.939989	-0.751812
C50	C	0.164007	-0.939985	-0.668361
C51	C	0.113116	-0.894085	-0.626647
C52	C	0.113119	-0.894077	-0.536158
C53	C	0.113125	-0.894075	-0.464036
N54	N	0.113122	-0.894096	0.206452
H55	H	-0.429528	-0.826756	-0.120718
H56	H	-0.344190	-0.961336	0.120506
O57	O	-0.308466	-0.750325	-0.000006
C58	C	-0.258108	-0.738840	0.068985
H59	H	-0.283357	-0.781036	0.117002
H60	H	-0.190217	-0.747838	0.054042
C61	C	-0.229688	-0.605315	0.040696
C62	C	-0.260704	-0.657136	0.099673
H63	H	-0.231286	-0.554915	0.059625
H64	H	-0.263613	-0.613052	-0.005786
H65	H	-0.173115	-0.612822	0.028249
H66	H	-0.317279	-0.649635	0.112112
H67	H	-0.226789	-0.649396	0.146159
O68	O	-0.433329	-0.820950	0.131269
C69	C	-0.409136	-0.858740	0.200075
H70	H	-0.401636	-0.920345	0.184720
H71	H	-0.346555	-0.829168	0.223191
C72	C	-0.486587	-0.781081	0.283610
C73	C	-0.477383	-0.856748	0.264753
H74	H	-0.528683	-0.779850	0.323509
H75	H	-0.502885	-0.755619	0.237255
H76	H	-0.434432	-0.756447	0.302869
H77	H	-0.529535	-0.881378	0.245485
H78	H	-0.461096	-0.882215	0.311107
O79	O	0.213564	-0.984498	-0.792299
C80	C	0.298851	-0.963537	-0.771886
H81	H	0.307054	-0.902502	-0.748953
H82	H	0.318293	-1.003206	-0.723440
C83	C	0.344592	-1.044466	-0.874179
C84	C	0.354669	-0.969499	-0.846018
H85	H	0.379025	-1.048147	-0.919905
H86	H	0.287133	-1.058591	-0.887930
H87	H	0.360794	-1.077515	-0.833800
H88	H	0.338458	-0.936453	-0.886393
H89	H	0.412127	-0.955369	-0.832276
O90	O	-0.340367	-0.967199	-0.131509
C91	C	-0.252072	-0.968154	-0.130724
H92	H	-0.221773	-0.919572	-0.091978
H93	H	-0.236437	-1.024669	-0.105460
C94	C	-0.254884	-1.018148	-0.263923
C95	C	-0.217670	-0.958476	-0.216340
H96	H	-0.233663	-1.012182	-0.316735
H97	H	-0.314371	-1.017508	-0.264452
H98	H	-0.241852	-1.065238	-0.242860
H99	H	-0.230712	-0.911388	-0.237397
H100	H	-0.158185	-0.959108	-0.215817
H101	H	-0.030538	-0.140173	-0.000124
H102	H	-0.458615	-1.026238	-0.000189
H103	H	-0.023476	-0.537486	-0.000112
H104	H	-0.027997	-0.283386	-0.000123
O105	O	0.213480	-0.984451	-0.372428
C106	C	0.270870	-0.938305	-0.420687
H107	H	0.244805	-0.882151	-0.433192
H108	H	0.334029	-0.926716	-0.388526
C109	C	0.315462	-1.048375	-0.484594
C110	C	0.283446	-0.979409	-0.499959
H111	H	0.323223	-1.073730	-0.533491
H112	H	0.276800	-1.079465	-0.452079
H113	H	0.368092	-1.038708	-0.457791
H114	H	0.230812	-0.989077	-0.526752
H115	H	0.322099	-0.948321	-0.532480
H116	H	0.256789	-0.647975	-0.000058
H117	H	0.205444	-0.977357	-0.634385
H118	H	0.254246	-0.504763	-0.000072
O119	O	0.213460	-0.984617	-0.207948
C120	C	0.258384	-1.025119	-0.262667
H121	H	0.223605	-1.029538	-0.322155
H122	H	0.324361	-0.993941	-0.271539
C123	C	0.308032	-1.100081	-0.157030
C124	C	0.265311	-1.105514	-0.230093
H125	H	0.312309	-1.149672	-0.136936
H126	H	0.277769	-1.072793	-0.120164
H127	H	0.363008	-1.074097	-0.164433
H128	H	0.210333	-1.131490	-0.222687
H129	H	0.295565	-1.132809	-0.266957
H130	H	-0.020940	-0.680713	-0.000091
O131	O	0.012856	-0.803641	-0.627736
C132	C	0.023787	-0.813450	-0.545131
H133	H	0.047619	-0.870784	-0.533716
H134	H	0.071737	-0.765996	-0.521465
C135	C	-0.090509	-0.740399	-0.516303
C136	C	-0.061245	-0.810821	-0.502283
H137	H	-0.142958	-0.738774	-0.489872
H138	H	-0.097872	-0.733788	-0.571956
H139	H	-0.050543	-0.700862	-0.496582
H140	H	-0.101205	-0.850356	-0.522014
H141	H	-0.053890	-0.817439	-0.446633
O142	O	0.261940	-0.255324	-0.000123
C143	C	0.328576	-0.195595	-0.000103
H144	H	0.305140	-0.141965	-0.025206
H145	H	0.351964	-0.184422	0.063502
C146	C	0.430218	-0.283753	-0.021258
C147	C	0.401435	-0.217886	-0.052097
H148	H	0.475162	-0.297504	-0.053327
H149	H	0.385324	-0.323995	-0.021269
H150	H	0.449701	-0.274434	0.031745
H151	H	0.381942	-0.227209	-0.105095
H152	H	0.446327	-0.177647	-0.052096
O153	O	0.012731	-0.803585	-0.792251
C154	C	-0.032174	-0.763058	-0.737541
H155	H	-0.037123	-0.794382	-0.678051
H156	H	0.002504	-0.703648	-0.728665
C157	C	-0.115310	-0.718252	-0.843193
C158	C	-0.121394	-0.756729	-0.770129
H159	H	-0.170343	-0.714344	-0.863295
H160	H	-0.085054	-0.745554	-0.880053
H161	H	-0.086407	-0.668748	-0.835787
H162	H	-0.150286	-0.806235	-0.777538
H163	H	-0.151657	-0.729435	-0.733271
O164	O	0.259033	-0.099711	-0.000133
C165	C	0.241241	-0.023502	-0.000122
H166	H	0.175273	-0.020472	-0.025232
H167	H	0.244468	-0.000667	0.063480
C168	C	0.387579	0.021084	-0.021269
C169	C	0.306559	0.024806	-0.052115
H170	H	0.427872	0.050884	-0.053337
H171	H	0.399568	-0.030259	-0.021273
H172	H	0.390256	0.040112	0.031732
H173	H	0.303880	0.005770	-0.105111
H174	H	0.294572	0.076148	-0.052121
H175	H	0.020803	-0.810801	-0.365814
H176	H	0.020801	-0.810786	-0.214412
