data_functionalizedCrystal
_audit_creation_method	'MofGen! by Chris Wilmer'
_symmetry_space_group_name_H-M	'P1'
_symmetry_Int_Tables_number	1
_symmetry_cell_setting	triclinic
loop_
_symmetry_equiv_pos_as_xyz
  x,y,z
_cell_length_a	8.597366
_cell_length_b	17.699083
_cell_length_c	16.176319
_cell_angle_alpha	90.007696
_cell_angle_beta	97.694587
_cell_angle_gamma	95.685316
loop_
_atom_site_label
_atom_site_type_symbol
_atom_site_fract_x
_atom_site_fract_y
_atom_site_fract_z
O1	O	2.081957	-0.112952	0.079546
O2	O	1.625002	-0.121620	0.046996
O3	O	1.866390	-0.007204	0.064198
O4	O	1.840569	-0.227368	0.062344
O5	O	1.866356	-0.007196	0.201689
O6	O	1.624969	-0.121613	0.184487
O7	O	2.081924	-0.112944	0.217037
Cu8	Cu	1.853443	-0.117278	0.213316
Cu9	Cu	1.853483	-0.117287	0.050717
O10	O	1.840536	-0.227361	0.199835
C11	C	1.566519	-0.120686	0.111577
C12	C	1.392308	-0.117905	0.099168
C13	C	1.865448	0.021005	0.132878
C14	C	1.862672	0.105046	0.132680
C15	C	2.140407	-0.113878	0.152454
C16	C	2.314618	-0.116659	0.164858
C17	C	1.841478	-0.255569	0.131153
C18	C	1.844254	-0.339610	0.131345
C19	C	2.004362	0.152494	0.142774
C20	C	2.001744	0.231459	0.142580
C21	C	1.857436	0.262974	0.132298
C22	C	1.715736	0.215520	0.122201
C23	C	1.718355	0.136557	0.122389
C24	C	1.705171	0.533971	0.121442
C25	C	1.702563	0.612941	0.121257
C26	C	1.988560	0.628873	0.141633
C27	C	1.991179	0.549909	0.141821
C28	C	1.849480	0.502462	0.131720
C29	C	1.852320	0.416839	0.131928
C30	C	1.854595	0.348595	0.132096
N31	N	1.853427	-0.117271	0.327680
N32	N	1.853511	-0.117288	-0.063646
C33	C	1.960346	-0.066628	0.378563
C34	C	1.960354	-0.066628	0.465111
C35	C	1.853449	-0.117274	0.500774
C36	C	1.746520	-0.167918	0.449884
C37	C	1.746505	-0.167915	0.363337
C38	C	1.746573	-0.167933	0.798916
C39	C	1.746599	-0.167934	0.885469
C40	C	1.960421	-0.066646	0.900690
C41	C	1.960407	-0.066642	0.814143
C42	C	1.853473	-0.117284	0.763260
C43	C	1.853463	-0.117283	0.669415
C44	C	1.853465	-0.117279	0.594618
H45	H	2.121874	0.126840	0.151152
F46	F	2.074138	-0.012726	0.340617
F47	F	1.632772	-0.221831	0.744769
H48	H	1.598237	0.241187	0.113824
F49	F	1.305049	-0.116508	0.013240
F50	F	1.632735	-0.221817	0.487839
H51	H	2.047413	-0.025390	0.506540
F52	F	1.401886	-0.118045	0.250790
H53	H	2.117122	0.270088	0.150802
H54	H	1.659539	-0.209178	0.914503
F55	F	2.144771	0.516373	0.152764
F56	F	2.139371	0.679376	0.152381
H57	H	2.047464	-0.025404	0.785110
H58	H	1.585043	0.638597	0.112886
H59	H	1.589790	0.495349	0.113217
H60	H	2.047489	-0.025408	0.942128
F61	F	1.632703	-0.221814	0.309184
H62	H	1.602977	0.097925	0.114169
