data_functionalizedCrystal
_audit_creation_method	'MofGen! by Chris Wilmer'
_symmetry_space_group_name_H-M	'P1'
_symmetry_Int_Tables_number	1
_symmetry_cell_setting	triclinic
loop_
_symmetry_equiv_pos_as_xyz
  x,y,z
_cell_length_a	11.169416
_cell_length_b	12.759395
_cell_length_c	11.169409
_cell_angle_alpha	90.020949
_cell_angle_beta	90.030874
_cell_angle_gamma	90.007817
loop_
_atom_site_label
_atom_site_type_symbol
_atom_site_fract_x
_atom_site_fract_y
_atom_site_fract_z
Zn1	Zn	0.477791	-1.606303	-0.678591
Zn2	Zn	0.678531	-1.606207	-0.477913
Zn3	Zn	0.477852	-1.430601	-0.477921
Zn4	Zn	0.678422	-1.430607	-0.678554
O5	O	0.578149	-1.518429	-0.578245
O6	O	0.504440	-1.753312	-0.651983
O7	O	0.651982	-1.582869	-0.309964
O8	O	0.309894	-1.453946	-0.504560
O9	O	0.651923	-1.753240	-0.504545
O10	O	0.309849	-1.583034	-0.651991
O11	O	0.504544	-1.453852	-0.309970
O12	O	0.504438	-1.283580	-0.504524
O13	O	0.651736	-1.453957	-0.846509
O14	O	0.651795	-1.283585	-0.651928
O15	O	0.504333	-1.583040	-0.846536
O16	O	0.846466	-1.582875	-0.504509
O17	O	0.846386	-1.453863	-0.651919
C18	C	0.578112	-1.245462	-0.578223
C19	C	0.578125	-1.128685	-0.578242
C20	C	0.265107	-1.518500	-0.578280
C21	C	0.131707	-1.518530	-0.578295
C22	C	0.424799	-1.128740	-0.732017
C23	C	0.348148	-1.073907	-0.808912
C24	C	0.348164	-0.964185	-0.808925
C25	C	0.424837	-0.909294	-0.732031
C26	C	0.501488	-0.964128	-0.655135
C27	C	0.501466	-1.073852	-0.655134
C28	C	0.654807	-0.964073	-0.501356
C29	C	0.654798	-1.073795	-0.501348
C30	C	0.731479	-0.909182	-0.424462
C31	C	0.808138	-0.964016	-0.347571
C32	C	0.808120	-1.073744	-0.347563
C33	C	0.731449	-1.128628	-0.424453
C34	C	0.889974	-1.518388	-0.578236
C35	C	1.023374	-1.518466	-0.578272
C36	C	0.578016	-1.518510	-0.891287
C37	C	0.577959	-1.518544	-1.024687
C38	C	0.578175	-0.792463	-0.578261
C39	C	0.578155	-0.909240	-0.578252
C40	C	0.578195	-1.518410	-0.266420
C41	C	0.577914	-1.518579	-0.133021
H42	H	0.424773	-1.218081	-0.732009
O43	O	0.882650	-0.910859	-0.272772
C44	C	0.950333	-0.982780	-0.204929
H45	H	0.901165	-1.060996	-0.200852
H46	H	0.963028	-0.951042	-0.110348
H47	H	1.041535	-0.994458	-0.248723
H48	H	0.285741	-0.919540	-0.871533
H49	H	0.285721	-1.118611	-0.871516
H50	H	0.424834	-0.819953	-0.732038
O51	O	0.731436	-1.235211	-0.424667
C52	C	0.762424	-1.271912	-0.539627
H53	H	0.742021	-1.208706	-0.608798
H54	H	0.708299	-1.345322	-0.561053
H55	H	0.862006	-1.291387	-0.541990
O56	O	0.731603	-0.802599	-0.424666
C57	C	0.762546	-0.765989	-0.539648
H58	H	0.814919	-0.829241	-0.589164
H59	H	0.820099	-0.692582	-0.530959
H60	H	0.677646	-0.746538	-0.591797
H61	H	0.870535	-1.118383	-0.284941
