data_functionalizedCrystal
_audit_creation_method	'MofGen! by Chris Wilmer'
_symmetry_space_group_name_H-M	'P1'
_symmetry_Int_Tables_number	1
_symmetry_cell_setting	triclinic
loop_
_symmetry_equiv_pos_as_xyz
  x,y,z
_cell_length_a	10.654550
_cell_length_b	16.992695
_cell_length_c	16.053810
_cell_angle_alpha	92.752725
_cell_angle_beta	87.403399
_cell_angle_gamma	87.576563
loop_
_atom_site_label
_atom_site_type_symbol
_atom_site_fract_x
_atom_site_fract_y
_atom_site_fract_z
O1	O	-1.682315	-0.106900	0.069499
O2	O	-1.317743	-0.117398	0.069486
O3	O	-1.498567	0.002001	0.069486
O4	O	-1.501491	-0.226299	0.069500
O5	O	-1.488657	-0.004569	-0.069373
O6	O	-1.307833	-0.123969	-0.069373
O7	O	-1.672405	-0.113470	-0.069359
Zn8	Zn	-1.488546	-0.119762	-0.091413
Zn9	Zn	-1.501602	-0.111106	0.091540
O10	O	-1.491581	-0.232869	-0.069359
C11	C	-1.265923	-0.119913	0.000055
C12	C	-1.126280	-0.117607	0.000050
C13	C	-1.489852	0.027949	0.000057
C14	C	-1.478632	0.115054	0.000057
C15	C	-1.724225	-0.110955	0.000074
C16	C	-1.863868	-0.113261	0.000084
C17	C	-1.052871	-0.187907	0.000066
C18	C	-0.921663	-0.185734	0.000080
C19	C	-0.937287	-0.042956	0.000066
C20	C	-1.068492	-0.045129	0.000045
C21	C	-1.110659	-0.260384	0.000071
C22	C	-1.037249	-0.330690	0.000088
C23	C	-0.906042	-0.328517	0.000102
C24	C	-0.848244	-0.256039	0.000099
C25	C	-1.500296	-0.258817	0.000072
C26	C	-1.511516	-0.345922	0.000078
N27	N	-1.479644	-0.125670	-0.216273
C28	C	-1.586883	0.164706	0.000060
C29	C	-1.576335	0.246551	0.000067
C30	C	-1.457534	0.278741	0.000066
C31	C	-1.349275	0.229083	0.000065
C32	C	-1.359825	0.147240	0.000064
C33	C	-1.413807	0.522577	0.000076
C34	C	-1.403265	0.604426	0.000075
C35	C	-1.630326	0.621888	0.000078
C36	C	-1.640866	0.540043	0.000072
C37	C	-1.532607	0.490392	0.000076
N38	N	-1.446748	0.362399	0.000071
N39	N	-1.543394	0.406736	0.000076
C40	C	-1.433551	-0.155984	-0.739905
C41	C	-1.439807	-0.151867	-0.652498
C42	C	-1.523032	-0.096961	-0.608788
C43	C	-1.599997	-0.046163	-0.652490
C44	C	-1.593734	-0.050277	-0.739895
C45	C	-1.550346	-0.078986	-0.347379
C46	C	-1.556606	-0.074877	-0.259968
C47	C	-1.396413	-0.180581	-0.259983
C48	C	-1.390163	-0.184693	-0.347389
C49	C	-1.467123	-0.133893	-0.391083
N50	N	-1.529431	-0.092753	-0.519445
N51	N	-1.460717	-0.138098	-0.480425
N52	N	-1.510513	-0.105192	0.216400
H53	H	-1.217494	-0.262161	0.000063
H54	H	-1.084316	-0.389699	0.000083
H55	H	-1.667756	-0.001453	-0.616896
H56	H	-1.128264	0.012115	0.000034
H57	H	-1.271675	0.106814	0.000061
Br58	Br	-1.654791	-0.010047	-0.406673
H59	H	-0.846274	-0.385764	0.000108
Br60	Br	-1.188043	0.272770	0.000077
Br61	Br	-1.669570	-0.000358	-0.200653
H62	H	-0.741405	-0.254277	0.000098
H63	H	-1.333755	-0.221939	-0.224399
H64	H	-1.325655	0.482161	0.000078
H65	H	-0.890219	0.016053	0.000077
H66	H	-1.365787	-0.200698	-0.775488
H67	H	-1.718464	0.662322	0.000077
Br68	Br	-1.748121	0.121027	0.000050
Br69	Br	-1.335353	-0.220797	-0.593195
H70	H	-1.656403	-0.008916	-0.775471
H71	H	-1.664484	0.286974	0.000068
Br72	Br	-1.277220	-0.259212	-0.406711
H73	H	-1.737606	0.513840	0.000073
Br74	Br	-1.242023	0.648112	0.000064
