data_functionalizedCrystal
_audit_creation_method	'MofGen! by Chris Wilmer'
_symmetry_space_group_name_H-M	'P1'
_symmetry_Int_Tables_number	1
_symmetry_cell_setting	triclinic
loop_
_symmetry_equiv_pos_as_xyz
  x,y,z
_cell_length_a	19.121063
_cell_length_b	17.638686
_cell_length_c	17.640968
_cell_angle_alpha	114.307628
_cell_angle_beta	98.351500
_cell_angle_gamma	81.676033
loop_
_atom_site_label
_atom_site_type_symbol
_atom_site_fract_x
_atom_site_fract_y
_atom_site_fract_z
Zn1	Zn	-0.388282	1.338519	0.735687
Zn2	Zn	-0.523526	1.305137	0.603248
Zn3	Zn	-0.388249	1.172848	0.570080
Zn4	Zn	-0.484517	1.196815	0.711660
O5	O	-0.446144	1.253330	0.655169
O6	O	-0.422562	1.448759	0.742055
O7	O	-0.521893	1.263588	0.484170
O8	O	-0.291365	1.198764	0.588223
O9	O	-0.521925	1.424233	0.644752
O10	O	-0.291389	1.320482	0.709894
O11	O	-0.422506	1.166395	0.459802
O12	O	-0.384680	1.061359	0.564925
O13	O	-0.455439	1.239613	0.829525
O14	O	-0.455407	1.078968	0.668943
O15	O	-0.384736	1.343723	0.847178
O16	O	-0.615240	1.286828	0.621454
O17	O	-0.586580	1.207244	0.701104
C18	C	-0.415808	1.040432	0.610728
C19	C	-0.402844	0.949357	0.591736
C20	C	-0.626033	1.246041	0.662293
C21	C	-0.702997	1.243003	0.665384
C22	C	-0.544751	0.695670	0.799660
C23	C	-0.532566	0.610087	0.781793
C24	C	-0.458757	0.591757	0.673636
C25	C	-0.470939	0.677340	0.691491
C26	C	-0.513936	0.729290	0.754504
C27	C	-0.440123	0.710960	0.646336
C28	C	-0.452301	0.796535	0.664192
C29	C	-0.495294	0.848492	0.727204
C30	C	-0.526113	0.814866	0.772361
C31	C	-0.397123	0.659009	0.583327
C32	C	-0.366307	0.692628	0.538171
C33	C	-0.378489	0.778205	0.556023
C34	C	-0.421482	0.830161	0.619035
C35	C	-0.347669	0.811830	0.510867
C36	C	-0.359847	0.897406	0.528723
C37	C	-0.433659	0.915737	0.636892
C38	C	-0.754053	1.283061	0.625419
C39	C	-0.826368	1.280210	0.628332
C40	C	-0.847625	1.237296	0.671205
C41	C	-0.796563	1.197237	0.711176
C42	C	-0.724250	1.200093	0.708267
C43	C	-1.065220	1.226600	0.682063
C44	C	-1.137540	1.223745	0.684966
C45	C	-1.167339	1.306720	0.602123
C46	C	-1.095023	1.309568	0.599214
C47	C	-1.043967	1.269513	0.639188
C48	C	-0.921542	1.234378	0.674181
C49	C	-0.970052	1.272436	0.636217
C50	C	-0.265553	1.260673	0.648039
C51	C	-0.188596	1.263803	0.645001
C52	C	-0.415740	1.298065	0.868917
C53	C	-0.402783	1.317129	0.960004
C54	C	-0.476598	1.467059	0.699783
C55	C	-0.489577	1.558138	0.718796
C56	C	-0.476386	1.208818	0.442260
C57	C	-0.489170	1.189921	0.351198
C58	C	-0.544239	1.108836	1.213630
C59	C	-0.532059	1.126767	1.299223
C60	C	-0.458441	1.235167	1.317593
C61	C	-0.470613	1.217242	1.231999
C62	C	-0.513513	1.154077	1.180024
C63	C	-0.439887	1.262483	1.198393
C64	C	-0.452061	1.244563	1.112807
C65	C	-0.494961	1.181402	1.060827
C66	C	-0.525687	1.136157	1.094438
C67	C	-0.396992	1.325652	1.250371
C68	C	-0.366266	1.370893	1.216765
C69	C	-0.378435	1.352969	1.131176
C70	C	-0.421335	1.289808	1.079196
C71	C	-0.347709	1.398214	1.097565
C72	C	-0.359883	1.380294	1.011979
C73	C	-0.433509	1.271888	0.993610
H74	H	-0.468676	0.958037	0.688199
F75	F	-0.944173	1.188706	0.719809
H76	H	-0.736751	1.318002	0.590502
F77	F	-0.947426	1.318111	0.590593
F78	F	-0.880703	1.322848	0.585797
H79	H	-0.579153	1.057381	1.171304
F80	F	-1.010891	1.183969	0.724606
F81	F	-0.564763	1.078608	1.334985
H82	H	-0.682679	1.167475	0.740813
F83	F	-0.301902	0.756533	0.443814
H84	H	-0.423514	1.286598	1.359923
F85	F	-0.384160	0.567931	0.564326
H86	H	-0.561129	0.857167	0.823668
F87	F	-0.571340	1.068922	1.039116
H88	H	-0.468423	1.220433	0.951284
H89	H	-0.557660	0.582719	0.818572
H90	H	-1.077718	1.344512	0.564303
H91	H	-0.504876	1.166816	0.991139
F92	F	-0.508253	0.939571	0.746210
F93	F	-0.590521	0.750963	0.866719
F94	F	-1.221681	1.349350	0.559587
H95	H	-0.331297	0.650320	0.486868
H96	H	-0.387083	1.340243	1.320060
F97	F	-0.320612	1.438118	1.272089
H98	H	-0.813876	1.162300	0.746089
H99	H	-0.312786	1.449649	1.139897
H100	H	-0.334862	1.417133	0.984617
H101	H	-0.334748	0.924781	0.491959
H102	H	-1.154843	1.188812	0.719895
H103	H	-0.423747	0.549448	0.622333
