data_functionalizedCrystal
_audit_creation_method	'MofGen! by Chris Wilmer'
_symmetry_space_group_name_H-M	'P1'
_symmetry_Int_Tables_number	1
_symmetry_cell_setting	triclinic
loop_
_symmetry_equiv_pos_as_xyz
  x,y,z
_cell_length_a	13.033409
_cell_length_b	12.594516
_cell_length_c	13.032268
_cell_angle_alpha	82.848693
_cell_angle_beta	74.837427
_cell_angle_gamma	82.848522
loop_
_atom_site_label
_atom_site_type_symbol
_atom_site_fract_x
_atom_site_fract_y
_atom_site_fract_z
Zn1	Zn	1.547434	-0.674617	0.393958
Zn2	Zn	1.569885	-0.832559	0.216370
Zn3	Zn	1.392387	-0.634582	0.238963
Zn4	Zn	1.369802	-0.832519	0.416521
O5	O	1.469877	-0.743569	0.316453
O6	O	1.699035	-0.712340	0.351502
O7	O	1.565187	-0.789559	0.070737
O8	O	1.413010	-0.490955	0.259536
O9	O	1.715529	-0.828379	0.221029
O10	O	1.526922	-0.520369	0.373410
O11	O	1.434780	-0.644106	0.087336
O12	O	1.240768	-0.644067	0.281415
O13	O	1.374518	-0.828311	0.562157
O14	O	1.224175	-0.789491	0.411865
O15	O	1.505023	-0.712301	0.545580
O16	O	1.543287	-0.981491	0.242907
O17	O	1.396287	-0.981461	0.389957
C18	C	1.193935	-0.712431	0.351541
C19	C	1.075883	-0.699139	0.366577
C20	C	0.909409	-0.736778	0.324166
C21	C	1.031423	-0.750519	0.308620
C22	C	1.469799	-1.020100	0.316448
C23	C	1.469858	-1.138415	0.316470
C24	C	1.389967	-1.278457	0.396407
C25	C	1.483482	-1.221406	0.410144
C26	C	1.376347	-1.193901	0.302779
C27	C	1.563586	-1.292185	0.330268
C28	C	1.456392	-1.264674	0.222866
C29	C	1.549978	-1.207658	0.236557
C30	C	1.746896	-0.774830	0.281228
C31	C	1.864945	-0.788151	0.266218
C32	C	1.434747	-0.774768	0.593484
C33	C	1.419776	-0.788063	0.711539
C34	C	1.469981	-0.465965	0.316477
C35	C	1.470025	-0.347666	0.316487
C36	C	1.504931	-0.712422	0.040491
C37	C	1.520107	-0.698851	-0.077589
C38	C	1.477673	-0.736590	0.755969
C39	C	1.462202	-0.750330	0.877984
H40	H	1.023624	-0.644981	0.427705
H41	H	1.581128	-0.644601	0.870124
H42	H	1.297195	-1.151185	0.291191
C43	C	1.337333	-0.861335	0.782180
N44	N	1.275234	-0.916525	0.835386
C45	C	0.838810	-0.663597	0.406726
N46	N	0.785637	-0.608469	0.468906
C47	C	1.102020	-0.823686	0.226041
N48	N	1.155195	-0.878791	0.163841
C49	C	1.641437	-1.165914	0.145242
N50	N	1.710327	-1.134465	0.076470
C51	C	0.935545	-0.861314	0.183642
N52	N	0.988721	-0.916419	0.121443
C53	C	1.298696	-1.320481	0.487769
N54	N	1.229955	-1.352136	0.556584
H55	H	1.494951	-1.201948	0.489309
C56	C	1.670531	-1.349728	0.346056
N57	N	1.751078	-1.393073	0.357953
C58	C	1.560110	-0.663310	0.685329
N59	N	1.622203	-0.608114	0.632124
C60	C	1.440852	-1.291001	0.115957
N61	N	1.429135	-1.310833	0.035435
H62	H	1.401169	-0.804565	0.930275
