data_functionalizedCrystal
_audit_creation_method	'MofGen! by Chris Wilmer'
_symmetry_space_group_name_H-M	'P1'
_symmetry_Int_Tables_number	1
_symmetry_cell_setting	triclinic
loop_
_symmetry_equiv_pos_as_xyz
  x,y,z
_cell_length_a	12.827893
_cell_length_b	13.032721
_cell_length_c	12.827885
_cell_angle_alpha	97.149059
_cell_angle_beta	89.980728
_cell_angle_gamma	97.204243
loop_
_atom_site_label
_atom_site_type_symbol
_atom_site_fract_x
_atom_site_fract_y
_atom_site_fract_z
Zn1	Zn	1.544800	-0.415987	-0.643639
Zn2	Zn	1.522480	-0.590766	-0.491081
Zn3	Zn	1.370035	-0.416038	-0.468919
Zn4	Zn	1.347823	-0.590688	-0.665772
O5	O	1.446284	-0.503370	-0.567353
O6	O	1.688074	-0.439183	-0.623413
O7	O	1.502212	-0.567642	-0.341912
O8	O	1.411855	-0.269794	-0.473559
O9	O	1.671675	-0.567593	-0.511330
O10	O	1.540254	-0.269756	-0.601924
O11	O	1.390211	-0.439270	-0.325630
O12	O	1.220854	-0.439194	-0.495020
O13	O	1.373998	-0.567460	-0.809065
O14	O	1.204535	-0.567509	-0.639647
O15	O	1.518716	-0.439108	-0.792804
O16	O	1.480674	-0.736993	-0.532792
O17	O	1.352354	-0.736936	-0.661136
C18	C	1.174777	-0.503350	-0.567331
C19	C	1.058622	-0.503366	-0.567350
C20	C	0.998735	-0.566810	-0.511791
C21	C	0.878682	-0.566828	-0.511809
C22	C	1.411710	-0.774882	-0.601793
C23	C	1.397015	-0.891037	-0.616562
C24	C	1.454009	-0.942815	-0.559692
C25	C	1.438823	-1.062867	-0.574955
C26	C	1.718852	-0.503391	-0.567375
C27	C	1.835004	-0.503400	-0.567384
C28	C	1.446369	-0.503270	-0.839910
C29	C	1.446405	-0.503227	-0.956058
C30	C	1.481022	-0.230797	-0.532800
C31	C	1.495825	-0.114643	-0.518076
C32	C	1.501873	-0.566678	-1.135935
C33	C	1.501837	-0.566723	-1.015890
C34	C	1.446270	-0.503394	-0.295846
C35	C	1.446473	-0.503143	-0.179661
H36	H	0.886468	-0.449076	-0.614948
H37	H	0.827213	-0.621142	-0.464240
C38	C	0.937618	-0.489147	-0.706038
C39	C	1.007863	-0.430057	-0.631585
H40	H	0.906280	-0.443885	-0.745690
H41	H	0.974429	-0.534668	-0.751742
H42	H	0.884496	-0.528950	-0.671172
H43	H	1.060990	-0.390259	-0.666452
H44	H	0.971051	-0.384517	-0.585876
H45	H	1.036342	-0.621115	-0.464215
H46	H	1.514053	-0.898270	-0.499707
H47	H	1.555872	-1.070100	-0.458087
H48	H	1.549324	-0.621043	-1.187373
H49	H	1.549271	-0.621114	-0.978255
H50	H	1.378784	-1.107411	-0.634951
H51	H	1.398978	-0.448825	-0.993685
C52	C	1.316604	-1.058453	-0.696990
C53	C	1.315961	-0.951164	-0.697547
H54	H	1.266559	-1.095568	-0.746985
H55	H	1.384571	-1.076209	-0.714591
H56	H	1.299101	-1.076344	-0.629018
H57	H	1.333472	-0.933271	-0.765517
H58	H	1.247979	-0.933400	-0.679952
C59	C	1.307821	-0.488775	-1.054949
C60	C	1.382405	-0.429754	-1.110231
H61	H	1.268273	-0.443464	-1.012084
H62	H	1.262029	-0.534235	-1.103292
H63	H	1.342586	-0.528639	-1.011966
H64	H	1.347640	-0.389896	-1.153221
H65	H	1.428203	-0.384275	-1.061883
