data_functionalizedCrystal
_audit_creation_method	'MofGen! by Chris Wilmer'
_symmetry_space_group_name_H-M	'P1'
_symmetry_Int_Tables_number	1
_symmetry_cell_setting	triclinic
loop_
_symmetry_equiv_pos_as_xyz
  x,y,z
_cell_length_a	15.995350
_cell_length_b	10.723023
_cell_length_c	9.198806
_cell_angle_alpha	89.997827
_cell_angle_beta	89.999704
_cell_angle_gamma	83.979961
loop_
_atom_site_label
_atom_site_type_symbol
_atom_site_fract_x
_atom_site_fract_y
_atom_site_fract_z
O1	O	1.111909	0.160839	-0.120766
O2	O	0.868247	0.180701	-0.120796
O3	O	0.995699	-0.010878	-0.120774
O4	O	0.984457	0.352418	-0.120787
O5	O	0.995689	-0.010878	0.121011
O6	O	0.868237	0.180701	0.120990
O7	O	1.111898	0.160839	0.121019
Cu8	Cu	0.990067	0.170770	0.143081
Cu9	Cu	0.990079	0.170770	-0.142858
O10	O	0.984447	0.352418	0.120998
C11	C	0.837043	0.179880	0.000093
C12	C	0.744078	0.177418	0.000082
C13	C	0.994876	-0.057367	0.000117
C14	C	0.992429	-0.195890	0.000112
C15	C	0.988803	-0.400818	0.125353
C16	C	0.991332	-0.257647	0.125361
C17	C	0.406280	0.168577	0.000113
C18	C	0.452931	0.032138	0.000657
C19	C	0.549635	0.034601	0.000102
C20	C	0.573866	0.172962	0.000098
C21	C	0.533171	0.240259	-0.137970
C22	C	0.436515	0.236832	-0.138075
C23	C	0.436181	0.239650	0.136880
C24	C	0.533126	0.239618	0.138694
C25	C	0.668578	0.175448	0.000085
C26	C	0.311568	0.166096	0.000116
C27	C	1.143103	0.161660	0.000127
C28	C	1.236068	0.164122	0.000129
C29	C	0.985270	0.398907	0.000104
C30	C	0.987717	0.537430	0.000099
N31	N	0.990065	0.170769	0.344195
N32	N	0.990088	0.170761	-0.343972
C33	C	1.043578	0.089978	0.416401
C34	C	1.043591	0.089974	0.583813
H35	H	0.987856	-0.453943	0.232581
H36	H	0.944274	0.239937	0.593944
H37	H	0.992270	-0.204543	0.232595
F38	F	0.395114	0.367759	-0.146269
H39	H	1.089409	0.020810	0.645907
F40	F	0.991214	-0.265291	-0.140063
F41	F	0.586394	-0.034544	0.129465
H42	H	0.549070	0.340516	0.147031
F43	F	0.988944	-0.393136	-0.140062
H44	H	0.433029	-0.022148	-0.097807
F45	F	0.428302	-0.039147	0.130077
F46	F	0.585633	-0.034726	-0.129689
F47	F	0.569910	0.179167	-0.272275
F48	F	0.412220	0.172686	-0.272972
H49	H	0.547880	0.341910	-0.143106
H50	H	0.415385	0.195045	0.241532
H51	H	0.560157	0.190492	0.240837
H52	H	0.404997	0.340245	0.137811
H53	H	1.089380	0.020809	0.354283
H54	H	0.944256	0.239928	0.406316
