data_functionalizedCrystal
_audit_creation_method	'MofGen! by Chris Wilmer'
_symmetry_space_group_name_H-M	'P1'
_symmetry_Int_Tables_number	1
_symmetry_cell_setting	triclinic
loop_
_symmetry_equiv_pos_as_xyz
  x,y,z
_cell_length_a	19.188930
_cell_length_b	11.026607
_cell_length_c	17.666332
_cell_angle_alpha	90.001957
_cell_angle_beta	90.023133
_cell_angle_gamma	95.865398
loop_
_atom_site_label
_atom_site_type_symbol
_atom_site_fract_x
_atom_site_fract_y
_atom_site_fract_z
O1	O	-0.945445	-0.151400	-0.063195
O2	O	-0.445445	0.348600	0.436805
O3	O	-0.744731	-0.171782	-0.063143
O4	O	-0.244731	0.328218	0.436857
O5	O	-0.828453	0.014974	-0.063162
O6	O	-0.328453	0.514974	0.436838
O7	O	-0.861723	-0.338156	-0.063176
O8	O	-0.361723	0.161844	0.436824
O9	O	-0.828433	0.014979	0.062735
O10	O	-0.328433	0.514979	0.562735
O11	O	-0.744711	-0.171776	0.062754
O12	O	-0.244711	0.328224	0.562754
O13	O	-0.945425	-0.151395	0.062702
O14	O	-0.445425	0.348605	0.562702
Cu15	Cu	-0.845066	-0.161585	0.074223
Cu16	Cu	-0.345066	0.338415	0.574223
Cu17	Cu	-0.845090	-0.161592	-0.074664
Cu18	Cu	-0.345090	0.338408	0.425336
O19	O	-0.861703	-0.338150	0.062721
O20	O	-0.361703	0.161850	0.562721
C21	C	-0.718626	-0.171119	-0.000188
C22	C	-0.218626	0.328881	0.499812
C23	C	-0.640869	-0.169138	-0.000168
C24	C	-0.140869	0.330862	0.499832
C25	C	-0.822305	0.060155	-0.000213
C26	C	-0.322305	0.560155	0.499787
C27	C	-0.804009	0.194772	-0.000211
C28	C	-0.304009	0.694772	0.499789
C29	C	-0.971530	-0.152058	-0.000255
C30	C	-0.471530	0.347942	0.499745
C31	C	-1.049287	-0.154039	-0.000280
C32	C	-0.549287	0.345961	0.499720
C33	C	-0.609911	-0.278720	-0.000184
C34	C	-0.109911	0.221280	0.499816
C35	C	-0.536850	-0.276858	-0.000193
C36	C	-0.036850	0.223142	0.499807
C37	C	-0.494749	-0.165409	-0.000200
C38	C	0.005251	0.334591	0.499800
C39	C	-0.525716	-0.055812	-0.000179
C40	C	-0.025716	0.444188	0.499821
C41	C	-0.598776	-0.057677	-0.000164
C42	C	-0.098776	0.442323	0.499836
N43	N	-0.375919	-0.080221	-0.043075
N44	N	0.124081	0.419779	0.456925
N45	N	-0.306516	-0.078458	-0.043092
N46	N	0.193484	0.421542	0.456908
C47	C	-0.274624	-0.159784	-0.000246
C48	C	0.225376	0.340216	0.499754
N49	N	-0.314759	-0.242960	0.042608
N50	N	0.185241	0.257040	0.542608
N51	N	-0.384168	-0.244727	0.042621
N52	N	0.115832	0.255273	0.542621
C53	C	-0.415528	-0.163375	-0.000217
C54	C	0.084472	0.336625	0.499783
C55	C	-0.164445	-0.267356	-0.000270
C56	C	0.335555	0.232644	0.499730
C57	C	-0.091382	-0.265490	-0.000274
C58	C	0.408618	0.234510	0.499726
C59	C	-0.080250	-0.044441	-0.000268
C60	C	0.419750	0.455559	0.499732
C61	C	-0.153311	-0.046310	-0.000257
C62	C	0.346689	0.453690	0.499743
C63	C	-0.195405	-0.157771	-0.000261
C64	C	0.304595	0.342229	0.499739
C65	C	-0.867851	-0.383331	-0.000230
C66	C	-0.367851	0.116669	0.499770
C67	C	-0.886147	-0.517948	-0.000237
C68	C	-0.386147	-0.017948	0.499763
N69	N	-0.845055	-0.161580	0.178943
N70	N	-0.345055	0.338420	0.678943
C71	C	-0.854529	0.268845	-0.000225
C72	C	-0.354529	0.768845	0.499775
C73	C	-0.835620	0.407979	-0.000223
C74	C	-0.335620	0.907979	0.499777
N75	N	-0.845105	-0.161587	-0.179384
N76	N	-0.345105	0.338413	0.320616
C77	C	-0.896615	-0.234956	0.218532
C78	C	-0.396615	0.265044	0.718532
C79	C	-0.896626	-0.234952	0.297779
C80	C	-0.396626	0.265048	0.797779
C81	C	-0.845065	-0.161587	0.337435
C82	C	-0.345065	0.338413	0.837435
C83	C	-0.793501	-0.088196	0.297836
C84	C	-0.293501	0.411804	0.797836
C85	C	-0.793496	-0.088193	0.218590
C86	C	-0.293496	0.411807	0.718590
N87	N	-0.783536	-0.158599	0.461890
N88	N	-0.283536	0.341401	0.961890
N89	N	-0.783544	-0.158610	0.537171
N90	N	-0.283544	0.341390	1.037171
C91	C	-0.845079	-0.161591	0.576199
C92	C	-0.345079	0.338409	1.076199
N93	N	-0.906609	-0.164586	0.537103
N94	N	-0.406609	0.335414	1.037103
N95	N	-0.906602	-0.164582	0.461815
N96	N	-0.406602	0.335418	0.961815
C97	C	-0.845065	-0.161582	0.423364
C98	C	-0.345065	0.338418	0.923364
C99	C	-0.896655	-0.234967	0.701717
C100	C	-0.396655	0.265033	1.201717
C101	C	-0.896666	-0.234955	0.780966
C102	C	-0.396666	0.265045	1.280966
C103	C	-0.793535	-0.088206	0.781022
C104	C	-0.293535	0.411794	1.281022
C105	C	-0.793529	-0.088211	0.701774
C106	C	-0.293529	0.411789	1.201774
C107	C	-0.845089	-0.161598	0.662127
C108	C	-0.345089	0.338402	1.162127
H109	H	-0.644179	-0.369480	-0.000190
H110	H	-0.144179	0.130520	0.499810
N111	N	-0.058014	-0.383713	-0.000279
N112	N	0.441986	0.116287	0.499721
H113	H	-0.027971	-0.387897	-0.046950
H114	H	0.472029	0.112103	0.453050
H115	H	-0.027970	-0.387811	0.046421
H116	H	0.472030	0.112189	0.546421
H117	H	-0.778364	0.447561	-0.000213
H118	H	-0.278364	0.947561	0.499787
H119	H	-0.938602	-0.294708	0.186255
H120	H	-0.438602	0.205292	0.686255
H121	H	-0.943403	0.442472	-0.000308
H122	H	-0.443403	0.942472	0.499692
N123	N	-0.503447	-0.395054	-0.000212
N124	N	-0.003447	0.104946	0.499788
H125	H	-0.541199	-0.465945	-0.000212
H126	H	-0.041199	0.034055	0.499788
H127	H	-0.473404	-0.399081	-0.046892
H128	H	0.026596	0.100919	0.453108
N129	N	-0.480317	0.064399	-0.000192
N130	N	0.019683	0.564399	0.499808
H131	H	-0.490571	0.112392	0.046484
H132	H	0.009429	0.612392	0.546484
H133	H	-0.429352	0.048859	-0.000236
H134	H	0.070648	0.548859	0.499764
H135	H	-0.198719	-0.358114	-0.000263
H136	H	0.301281	0.141886	0.499737
H137	H	-0.623981	0.031561	-0.000151
H138	H	-0.123981	0.531561	0.499849
N139	N	-0.728170	0.247193	-0.000199
N140	N	-0.228170	0.747193	0.499801
H141	H	-0.725412	0.339155	-0.000201
H142	H	-0.225412	0.839155	0.499799
H143	H	-0.704178	0.218691	0.046479
H144	H	-0.204178	0.718691	0.546479
H145	H	-0.938613	-0.294707	0.330019
H146	H	-0.438613	0.205293	0.830019
N147	N	-0.952300	-0.314054	0.823670
N148	N	-0.452300	0.185946	1.323670
H149	H	-0.984964	-0.360530	0.786525
H150	H	-0.484964	0.139470	1.286525
H151	H	-0.929347	-0.373475	0.856575
H152	H	-0.429347	0.126525	1.356575
N153	N	-0.034852	0.075769	-0.000267
N154	N	0.465148	0.575769	0.499733
H155	H	0.016129	0.060324	-0.000277
H156	H	0.516129	0.560324	0.499723
H157	H	-0.045216	0.123707	-0.046934
H158	H	0.454784	0.623707	0.453066
H159	H	-0.178517	0.042924	-0.000248
H160	H	0.321483	0.542924	0.499752
N161	N	-0.737907	-0.009089	0.659071
N162	N	-0.237907	0.490911	1.159071
H163	H	-0.745726	-0.020220	0.602852
H164	H	-0.245726	0.479780	1.102852
H165	H	-0.740609	0.079171	0.672923
H166	H	-0.240609	0.579171	1.172923
H167	H	-0.751520	-0.028461	0.330129
H168	H	-0.251520	0.471539	0.830129
N169	N	-0.930367	0.216423	-0.000234
N170	N	-0.430367	0.716423	0.499766
H171	H	-0.940228	0.164576	-0.046902
H172	H	-0.440228	0.664576	0.453098
H173	H	-0.940148	0.164658	0.046469
H174	H	-0.440148	0.664658	0.546469
N175	N	-0.737883	-0.009047	0.175885
N176	N	-0.237883	0.490953	0.675885
H177	H	-0.705221	0.037437	0.213028
H178	H	-0.205221	0.537437	0.713028
H179	H	-0.710412	-0.062068	0.143019
H180	H	-0.210412	0.437932	0.643019
H181	H	-0.938638	-0.294722	0.669434
H182	H	-0.438638	0.205278	1.169434
H183	H	-0.751554	-0.028469	0.813308
H184	H	-0.251554	0.471531	1.313308
