data_functionalizedCrystal
_audit_creation_method	'MofGen! by Chris Wilmer'
_symmetry_space_group_name_H-M	'P1'
_symmetry_Int_Tables_number	1
_symmetry_cell_setting	triclinic
loop_
_symmetry_equiv_pos_as_xyz
  x,y,z
_cell_length_a	19.188940
_cell_length_b	19.288864
_cell_length_c	17.766277
_cell_angle_alpha	89.976791
_cell_angle_beta	90.006813
_cell_angle_gamma	96.857520
loop_
_atom_site_label
_atom_site_type_symbol
_atom_site_fract_x
_atom_site_fract_y
_atom_site_fract_z
O1	O	0.087099	-0.921363	0.062836
O2	O	0.587099	-0.421363	0.562836
O3	O	0.098848	-0.719103	0.062785
O4	O	0.598848	-0.219103	0.562785
O5	O	-0.008682	-0.826066	0.062806
O6	O	0.491318	-0.326066	0.562806
O7	O	0.194629	-0.814400	0.062815
O8	O	0.694629	-0.314400	0.562815
O9	O	-0.008688	-0.826047	-0.062382
O10	O	0.491312	-0.326047	0.437618
O11	O	0.098843	-0.719084	-0.062404
O12	O	0.598843	-0.219084	0.437596
O13	O	0.087093	-0.921344	-0.062352
O14	O	0.587093	-0.421344	0.437648
Cu15	Cu	0.092968	-0.820212	-0.073809
Cu16	Cu	0.592968	-0.320212	0.426191
Cu17	Cu	0.092974	-0.820235	0.074241
Cu18	Cu	0.592974	-0.320235	0.574241
O19	O	0.194624	-0.814381	-0.062374
O20	O	0.694624	-0.314381	0.437626
C21	C	0.098467	-0.693217	0.000184
C22	C	0.598467	-0.193217	0.500184
C23	C	0.097333	-0.616114	0.000164
C24	C	0.597333	-0.116114	0.500164
N25	N	0.092963	-0.820202	-0.177939
N26	N	0.592963	-0.320202	0.322061
C27	C	-0.034696	-0.825678	0.000212
C28	C	0.465304	-0.325678	0.500212
C29	C	-0.112200	-0.824540	0.000212
C30	C	0.387800	-0.324540	0.500212
C31	C	-0.665461	-0.816438	-0.068012
C32	C	-0.165461	-0.316438	0.431988
C33	C	-0.592637	-0.817499	-0.068016
C34	C	-0.092637	-0.317499	0.431984
C35	C	-0.556215	-0.818043	0.000223
C36	C	-0.056215	-0.318043	0.500223
C37	C	-0.592620	-0.817508	0.068472
C38	C	-0.092620	-0.317508	0.568472
C39	C	-0.665442	-0.816440	0.068474
C40	C	-0.165442	-0.316440	0.568474
N41	N	-0.447191	-0.859253	0.051026
N42	N	0.052809	-0.359253	0.551026
N43	N	-0.378014	-0.860269	0.051019
N44	N	0.121986	-0.360269	0.551019
C45	C	-0.336806	-0.821260	0.000221
C46	C	0.163194	-0.321260	0.500221
N47	N	-0.367390	-0.781205	-0.050581
N48	N	0.132610	-0.281205	0.449419
N49	N	-0.436574	-0.780192	-0.050577
N50	N	0.063426	-0.280192	0.449423
C51	C	-0.477251	-0.819201	0.000229
C52	C	0.022749	-0.319201	0.500229
C53	C	-0.221444	-0.822941	-0.068027
C54	C	0.278556	-0.322941	0.431973
C55	C	-0.148617	-0.823998	-0.068028
C56	C	0.351383	-0.323998	0.431972
C57	C	-0.148603	-0.824014	0.068462
C58	C	0.351397	-0.324014	0.568462
C59	C	-0.221427	-0.822950	0.068461
C60	C	0.278573	-0.322950	0.568461
C61	C	-0.257843	-0.822417	0.000214
C62	C	0.242157	-0.322417	0.500214
C63	C	0.220637	-0.814769	0.000222
C64	C	0.720637	-0.314769	0.500222
C65	C	0.298141	-0.815907	0.000227
C66	C	0.798141	-0.315907	0.500227
C67	C	0.087474	-0.947230	0.000250
C68	C	0.587474	-0.447230	0.500250
C69	C	0.088609	-1.024333	0.000275
C70	C	0.588609	-0.524333	0.500275
C71	C	0.160427	-0.571424	0.000179
C72	C	0.660427	-0.071424	0.500179
C73	C	0.159360	-0.498977	0.000187
C74	C	0.659360	0.001023	0.500187
C75	C	0.095197	-0.471222	0.000196
C76	C	0.595197	0.028778	0.500196
C77	C	0.032094	-0.515922	0.000177
C78	C	0.532094	-0.015922	0.500177
C79	C	0.033162	-0.588367	0.000161
C80	C	0.533162	-0.088367	0.500161
C81	C	0.044759	-0.362962	0.044078
C82	C	0.544759	0.137038	0.544078
C83	C	0.043693	-0.290517	0.044099
C84	C	0.543693	0.209483	0.544099
C85	C	0.091900	-0.247777	0.000241
C86	C	0.591900	0.252223	0.500241
C87	C	0.141184	-0.277488	-0.043627
C88	C	0.641184	0.222512	0.456373
C89	C	0.142252	-0.349934	-0.043643
C90	C	0.642252	0.150066	0.456357
C91	C	0.094031	-0.392668	0.000213
C92	C	0.594031	0.107332	0.500213
C93	C	0.153842	-0.124531	0.000264
C94	C	0.653842	0.375469	0.500264
C95	C	0.152773	-0.052083	0.000267
C96	C	0.652773	0.447917	0.500267
C97	C	0.025506	-0.069029	0.000265
C98	C	0.525506	0.430971	0.500265
C99	C	0.026576	-0.141476	0.000254
C100	C	0.526576	0.358524	0.500254
C101	C	0.090746	-0.169222	0.000257
C102	C	0.590746	0.330778	0.500257
C103	C	0.045372	-0.867580	-0.217316
C104	C	0.545372	-0.367580	0.282684
C105	C	0.045368	-0.867584	-0.296118
C106	C	0.545368	-0.367584	0.203882
C107	C	0.092968	-0.820217	-0.335540
C108	C	0.592968	-0.320217	0.164460
C109	C	0.140563	-0.772829	-0.296153
C110	C	0.640563	-0.272829	0.203847
C111	C	0.140560	-0.772822	-0.217352
C112	C	0.640560	-0.272822	0.282648
C113	C	0.156585	-0.810925	-0.460376
C114	C	0.656585	-0.310925	0.039624
C115	C	0.156588	-0.810937	-0.539175
C116	C	0.656588	-0.310937	-0.039175
C117	C	0.092977	-0.820235	-0.578586
C118	C	0.592977	-0.320235	-0.078586
C119	C	0.029358	-0.829536	-0.539188
C120	C	0.529358	-0.329536	-0.039188
C121	C	0.029356	-0.829529	-0.460388
C122	C	0.529356	-0.329529	0.039612
C123	C	0.092976	-0.820219	-0.420985
C124	C	0.592976	-0.320219	0.079015
C125	C	0.045378	-0.867621	-0.703409
C126	C	0.545378	-0.367621	-0.203409
C127	C	0.045374	-0.867620	-0.782212
C128	C	0.545374	-0.367620	-0.282212
C129	C	0.140575	-0.772868	-0.782245
C130	C	0.640575	-0.272868	-0.282245
C131	C	0.140573	-0.772865	-0.703444
C132	C	0.640573	-0.272865	-0.203444
C133	C	0.092975	-0.820245	-0.664030
C134	C	0.592975	-0.320245	-0.164030
N135	N	0.092973	-0.820251	0.178372
N136	N	0.592973	-0.320251	0.678372
H137	H	-0.695107	-0.816003	-0.123584
H138	H	-0.195107	-0.316003	0.376416
Cl139	Cl	-0.102858	-0.824652	-0.153823
Cl140	Cl	0.397142	-0.324652	0.346177
Cl141	Cl	-0.050617	-0.841213	-0.410862
Cl142	Cl	0.449383	-0.341213	0.089138
H143	H	-0.562960	-0.817948	0.124033
H144	H	-0.062960	-0.317948	0.624033
H145	H	0.003566	-0.266331	0.079822
H146	H	0.503566	0.233669	0.579822
H147	H	-0.118947	-0.824448	0.124024
H148	H	0.381053	-0.324448	0.624024
Cl149	Cl	-0.546872	-0.818174	-0.153810
Cl150	Cl	-0.046872	-0.318174	0.346190
Cl151	Cl	-0.015850	-0.416686	0.099219
Cl152	Cl	0.484150	0.083314	0.599219
Cl153	Cl	0.201791	-0.223765	-0.098765
Cl154	Cl	0.701791	0.276235	0.401235
Cl155	Cl	0.234511	-0.159416	0.000260
Cl156	Cl	0.734511	0.340584	0.500260
H157	H	-0.022440	-0.837107	-0.571275
H158	H	0.477560	-0.337107	-0.071275
H159	H	0.212679	-0.594010	0.000183
H160	H	0.712679	-0.094010	0.500183
H161	H	-0.251095	-0.822501	-0.123597
H162	H	0.248905	-0.322501	0.376403
H163	H	0.208388	-0.803341	-0.428295
H164	H	0.708388	-0.303341	0.071705
H165	H	-0.695076	-0.816006	0.124044
H166	H	-0.195076	-0.316006	0.624044
H167	H	0.179329	-0.734297	-0.814342
H168	H	0.679329	-0.234297	-0.314342
Cl169	Cl	-0.267187	-0.822289	0.154253
Cl170	Cl	0.232813	-0.322289	0.654253
Cl171	Cl	0.238684	-0.442786	0.000204
Cl172	Cl	0.738684	0.057214	0.500204
H173	H	0.006613	-0.906158	-0.185228
H174	H	0.506613	-0.406158	0.314772
Cl175	Cl	0.204202	-0.387284	-0.098792
Cl176	Cl	0.704202	0.112716	0.401208
Cl177	Cl	0.232099	0.004100	0.000282
Cl178	Cl	0.732099	0.504100	0.500282
H179	H	0.006619	-0.906198	-0.671318
H180	H	0.506619	-0.406198	-0.171318
Cl181	Cl	0.200395	-0.713256	-0.167846
Cl182	Cl	0.700395	-0.213256	0.332154
Cl183	Cl	-0.055158	-0.034145	0.000267
Cl184	Cl	0.444842	0.465855	0.500267
Cl185	Cl	-0.014464	-0.927182	-0.831719
Cl186	Cl	0.485536	-0.427182	-0.331719
H187	H	-0.024802	-0.177863	0.000246
H188	H	0.475198	0.322137	0.500246
Cl189	Cl	-0.048569	-0.481031	0.000184
Cl190	Cl	0.451431	0.018969	0.500184
Cl191	Cl	-0.014466	-0.927152	-0.345630
Cl192	Cl	0.485534	-0.427152	0.154370
Cl193	Cl	0.200408	-0.713305	-0.653936
Cl194	Cl	0.700408	-0.213305	-0.153936
Cl195	Cl	-0.046162	-0.644552	0.000144
Cl196	Cl	0.453838	-0.144552	0.500144
H197	H	0.208390	-0.803368	-0.571247
H198	H	0.708390	-0.303368	-0.071247
Cl199	Cl	0.200400	-0.713278	-0.345709
Cl200	Cl	0.700400	-0.213278	0.154291
