data_functionalizedCrystal
_audit_creation_method	'MofGen! by Chris Wilmer'
_symmetry_space_group_name_H-M	'P1'
_symmetry_Int_Tables_number	1
_symmetry_cell_setting	triclinic
loop_
_symmetry_equiv_pos_as_xyz
  x,y,z
_cell_length_a	11.792241
_cell_length_b	11.792241
_cell_length_c	9.730223
_cell_angle_alpha	90.003015
_cell_angle_beta	90.001474
_cell_angle_gamma	84.193416
loop_
_atom_site_label
_atom_site_type_symbol
_atom_site_fract_x
_atom_site_fract_y
_atom_site_fract_z
O1	O	1.506911	0.155564	0.114157
O2	O	1.176570	0.171597	0.114189
O3	O	1.349757	-0.001590	0.114163
O4	O	1.333724	0.328751	0.114183
O5	O	1.349737	-0.001588	-0.114417
O6	O	1.176550	0.171599	-0.114391
O7	O	1.506891	0.155566	-0.114423
Zn8	Zn	1.341718	0.163582	-0.150699
Zn9	Zn	1.341744	0.163581	0.150465
O10	O	1.333704	0.328753	-0.114396
C11	C	1.134269	0.170591	-0.000097
C12	C	1.008255	0.167576	-0.000085
C13	C	1.348740	-0.043880	-0.000127
C14	C	1.345726	-0.169894	-0.000125
C15	C	0.777543	0.162034	-0.000125
C16	C	0.905928	0.165113	-0.000103
C17	C	1.340183	-0.400606	-0.000102
C18	C	1.343262	-0.272221	-0.000114
C19	C	1.549192	0.156572	-0.000134
C20	C	1.675206	0.159587	-0.000137
C21	C	1.334721	0.371043	-0.000104
C22	C	1.337736	0.497057	-0.000097
N23	N	1.341708	0.163583	-0.356235
C24	C	1.411006	0.232875	-0.572040
C25	C	1.410976	0.232885	-0.428157
C26	C	1.272457	0.094276	-0.428204
C27	C	1.272481	0.094274	-0.572085
C28	C	1.480286	0.302173	-0.643954
C29	C	1.549537	0.371482	-0.571995
C30	C	1.549507	0.371491	-0.428112
C31	C	1.480228	0.302191	-0.356188
N32	N	1.341762	0.163571	0.356001
H33	H	1.605933	0.427911	-0.630565
H34	H	1.605885	0.427934	-0.369527
H35	H	1.480321	0.302171	-0.761110
O36	O	1.205381	0.026886	-0.642142
C37	C	1.274126	-0.050118	-0.725331
H38	H	1.358559	-0.014231	-0.746860
H39	H	1.290968	-0.135321	-0.669884
C40	C	1.108713	-0.111690	-0.835579
C41	C	1.212411	-0.067609	-0.862031
H42	H	1.070643	-0.122485	-0.919900
H43	H	1.062397	-0.059815	-0.779530
H44	H	1.122762	-0.182689	-0.789370
H45	H	1.198359	0.003395	-0.908223
H46	H	1.258723	-0.119472	-0.918091
H47	H	1.480198	0.302215	-0.239028
O48	O	1.205273	0.026990	-0.358128
C49	C	1.220080	0.041874	-0.215705
H50	H	1.306238	0.074811	-0.196031
H51	H	1.149285	0.106060	-0.174890
C52	C	1.109682	-0.113516	-0.166005
C53	C	1.215507	-0.073072	-0.141840
H54	H	1.106856	-0.184418	-0.120439
H55	H	1.099702	-0.123542	-0.261958
H56	H	1.050697	-0.060017	-0.131992
H57	H	1.274488	-0.126564	-0.175868
H58	H	1.225496	-0.063058	-0.045891
