data_functionalizedCrystal
_audit_creation_method	'MofGen! by Chris Wilmer'
_symmetry_space_group_name_H-M	'P1'
_symmetry_Int_Tables_number	1
_symmetry_cell_setting	triclinic
loop_
_symmetry_equiv_pos_as_xyz
  x,y,z
_cell_length_a	21.395362
_cell_length_b	10.686285
_cell_length_c	21.395356
_cell_angle_alpha	85.612989
_cell_angle_beta	89.964230
_cell_angle_gamma	85.645931
loop_
_atom_site_label
_atom_site_type_symbol
_atom_site_fract_x
_atom_site_fract_y
_atom_site_fract_z
Zn1	Zn	0.977030	-0.501856	-0.335535
Zn2	Zn	0.985028	-0.712853	-0.222748
Zn3	Zn	0.872263	-0.501941	-0.230733
Zn4	Zn	0.880295	-0.712853	-0.327453
O5	O	0.928654	-0.607376	-0.279117
O6	O	1.065767	-0.529810	-0.320614
O7	O	0.970056	-0.684911	-0.136128
O8	O	0.879452	-0.325359	-0.251360
O9	O	1.071644	-0.684828	-0.237750
O10	O	0.956423	-0.325296	-0.328357
O11	O	0.887207	-0.529954	-0.141995
O12	O	0.785652	-0.529954	-0.243523
O13	O	0.893141	-0.684828	-0.416204
O14	O	0.791553	-0.684910	-0.314582
O15	O	0.964212	-0.529809	-0.422142
O16	O	0.977844	-0.889423	-0.229913
O17	O	0.900897	-0.889423	-0.306840
C18	C	0.765869	-0.607442	-0.279042
C19	C	0.696230	-0.607501	-0.279024
C20	C	0.666610	-0.688294	-0.315960
C21	C	0.601173	-0.688263	-0.315990
C22	C	0.565360	-0.607453	-0.279070
C23	C	0.594987	-0.526644	-0.242131
C24	C	0.660422	-0.526669	-0.242108
C25	C	0.461254	-0.597302	-0.223050
C26	C	0.395821	-0.597286	-0.223072
C27	C	0.363536	-0.607370	-0.279143
C28	C	0.396694	-0.617496	-0.335192
C29	C	0.462129	-0.617520	-0.335169
C30	C	0.494406	-0.607417	-0.279092
C31	C	0.262962	-0.688134	-0.316114
C32	C	0.197524	-0.688094	-0.316144
C33	C	0.191339	-0.526482	-0.242280
C34	C	0.256776	-0.526515	-0.242256
C35	C	0.292584	-0.607348	-0.279171
C36	C	0.941127	-0.935206	-0.266647
C37	C	0.946520	-1.075453	-0.261333
C38	C	1.092075	-0.607309	-0.279193
C39	C	1.161715	-0.607281	-0.279226
C40	C	0.928680	-0.607309	-0.442543
C41	C	0.928691	-0.607281	-0.512186
C42	C	0.916149	-0.278265	-0.291651
C43	C	0.910821	-0.138017	-0.296992
C44	C	0.971891	-0.687702	-1.010938
C45	C	0.971881	-0.687742	-0.945501
C46	C	0.928743	-0.607081	-0.915832
C47	C	0.885602	-0.526396	-0.951604
C48	C	0.885609	-0.526368	-1.017040
C49	C	0.919466	-0.493448	-0.816488
C50	C	0.919463	-0.493474	-0.751054
C51	C	0.928719	-0.607170	-0.714008
C52	C	0.937990	-0.720843	-0.742403
C53	C	0.937997	-0.720814	-0.807838
C54	C	0.928731	-0.607104	-0.844879
C55	C	0.971844	-0.687899	-0.607289
C56	C	0.971830	-0.687942	-0.541850
C57	C	0.885554	-0.526584	-0.547955
C58	C	0.885565	-0.526554	-0.613392
C59	C	0.928713	-0.607209	-0.643055
C60	C	0.928660	-0.607351	-0.116331
C61	C	0.928757	-0.607023	-0.046702
H62	H	0.280893	-0.460731	-0.212175
H63	H	0.487535	-0.589085	-0.177388
H64	H	0.695761	-0.754112	-0.346021
O65	O	0.864870	-1.066844	-0.342817
H66	H	0.816666	-1.092177	-0.331053
H67	H	0.981208	-1.129190	-0.226731
O68	O	0.909487	-0.370811	-0.856445
H69	H	0.903051	-0.291774	-0.825709
H70	H	1.006952	-0.753652	-0.512731
O71	O	1.018411	-0.774726	-1.042932
H72	H	1.048395	-0.830851	-1.007064
H73	H	0.368829	-0.589049	-0.177433
O74	O	1.018407	-0.774760	-0.906916
H75	H	1.048124	-0.718267	-0.879269
O76	O	0.947981	-0.843408	-0.838467
H77	H	0.954410	-0.922480	-0.801718
O78	O	0.947968	-0.843488	-0.702456
H79	H	0.946397	-0.824419	-0.652185
O80	O	1.018370	-0.774905	-0.639289
H81	H	1.048355	-0.831033	-0.603423
H82	H	0.850429	-0.460911	-0.523799
H83	H	0.850443	-0.460851	-0.642512
O84	O	0.909475	-0.370877	-0.720429
H85	H	0.903031	-0.291814	-0.757181
H86	H	0.370409	-0.625705	-0.380850
H87	H	0.565823	-0.460846	-0.212073
O88	O	0.692376	-0.439549	-0.202255
H89	H	0.656483	-0.383358	-0.176581
O90	O	0.839077	-0.439386	-0.919610
H91	H	0.846323	-0.452948	-0.868100
H92	H	0.850484	-0.460666	-1.046159
O93	O	0.301593	-0.775266	-0.355948
H94	H	0.333805	-0.839412	-0.325414
O95	O	0.569229	-0.775458	-0.355813
H96	H	0.581023	-0.754007	-0.405822
O97	O	0.497894	-0.628415	-0.395617
H98	H	0.464456	-0.635411	-0.434615
H99	H	0.173409	-0.753883	-0.346227
H100	H	0.162180	-0.460679	-0.212223
