data_functionalizedCrystal
_audit_creation_method	'MofGen! by Chris Wilmer'
_symmetry_space_group_name_H-M	'P1'
_symmetry_Int_Tables_number	1
_symmetry_cell_setting	triclinic
loop_
_symmetry_equiv_pos_as_xyz
  x,y,z
_cell_length_a	19.121424
_cell_length_b	19.121063
_cell_length_c	13.033255
_cell_angle_alpha	99.873279
_cell_angle_beta	84.912480
_cell_angle_gamma	94.804615
loop_
_atom_site_label
_atom_site_type_symbol
_atom_site_fract_x
_atom_site_fract_y
_atom_site_fract_z
Zn1	Zn	1.107777	-0.278253	-0.538418
Zn2	Zn	1.607777	0.221747	-0.038418
Zn3	Zn	1.088998	-0.382266	-0.371451
Zn4	Zn	1.588998	0.117734	0.128549
Zn5	Zn	0.976447	-0.269639	-0.371452
Zn6	Zn	1.476447	0.230361	0.128548
Zn7	Zn	0.986323	-0.402174	-0.553896
Zn8	Zn	1.486323	0.097826	-0.053896
O9	O	1.039886	-0.333083	-0.458804
O10	O	1.539886	0.166917	0.041196
O11	O	1.203218	-0.287324	-0.509791
O12	O	1.703218	0.212676	-0.009791
O13	O	1.062076	-0.355389	-0.225222
O14	O	1.562076	0.144611	0.274778
O15	O	0.997593	-0.171785	-0.387124
O16	O	1.497593	0.328215	0.112876
O17	O	1.189421	-0.363742	-0.387121
O18	O	1.689421	0.136258	0.112879
O19	O	1.094081	-0.178114	-0.509792
O20	O	1.594081	0.321886	-0.009792
O21	O	0.979385	-0.272643	-0.225223
O22	O	1.479385	0.227357	0.274777
O23	O	0.879825	-0.291947	-0.402132
O24	O	1.379825	0.208053	0.097868
O25	O	1.014426	-0.397672	-0.698072
O26	O	1.514426	0.102328	-0.198072
O27	O	0.887081	-0.389319	-0.536172
O28	O	1.387081	0.110681	-0.036172
O29	O	1.103658	-0.306627	-0.686700
O30	O	1.603658	0.193373	-0.186700
O31	O	1.071653	-0.483903	-0.402130
O32	O	1.571653	0.016097	0.097870
O33	O	0.996218	-0.498529	-0.536171
O34	O	1.496218	0.001471	-0.036171
C35	C	0.858060	-0.341859	-0.470832
C36	C	1.358060	0.158141	0.029168
C37	C	0.780276	-0.345633	-0.476004
C38	C	1.280276	0.154367	0.023996
C39	C	0.340539	-0.369505	-0.508831
C40	C	0.840539	0.130495	-0.008831
C41	C	0.413624	-0.365963	-0.503952
C42	C	0.913624	0.134037	-0.003952
C43	C	0.446378	-0.313431	-0.431832
C44	C	0.946378	0.186569	0.068168
C45	C	0.406041	-0.264443	-0.364578
C46	C	0.906041	0.235557	0.135422
C47	C	0.332957	-0.267989	-0.369452
C48	C	0.832957	0.232011	0.130548
C49	C	0.666855	-0.300190	-0.413624
C50	C	1.166855	0.199810	0.086376
C51	C	0.739945	-0.296647	-0.408757
C52	C	1.239945	0.203353	0.091243
C53	C	0.747523	-0.398168	-0.548131
C54	C	1.247523	0.101832	-0.048131
C55	C	0.674437	-0.401706	-0.553003
C56	C	1.174437	0.098294	-0.053003
C57	C	0.634107	-0.352720	-0.485746
C58	C	1.134107	0.147280	0.014254
C59	C	0.521082	-0.309808	-0.426846
C60	C	1.021082	0.190192	0.073154
C61	C	0.559403	-0.356347	-0.490727
C62	C	1.059403	0.143653	0.009273
C63	C	1.032990	-0.516886	-0.470851
C64	C	1.532990	-0.016886	0.029149
C65	C	1.030107	-0.595517	-0.476036
C66	C	1.530107	-0.095517	0.023964
C67	C	1.068067	-0.624823	-0.408736
C68	C	1.568067	-0.124823	0.091264
C69	C	1.065360	-0.698706	-0.413618
C70	C	1.565360	-0.198706	0.086382
C71	C	1.024689	-0.743282	-0.485795
C72	C	1.524689	-0.243282	0.014205
C73	C	0.986728	-0.713972	-0.553102
C74	C	1.486728	-0.213972	-0.053102
C75	C	0.989439	-0.640090	-0.548224
C76	C	1.489439	-0.140090	-0.048224
C77	C	1.014539	-0.966740	-0.504016
C78	C	1.514539	-0.466740	-0.004016
C79	C	1.011829	-1.040626	-0.508886
C80	C	1.511829	-0.540626	-0.008886
C81	C	1.090463	-1.025355	-0.369404
C82	C	1.590463	-0.525355	0.130596
C83	C	1.093167	-0.951472	-0.364528
C84	C	1.593167	-0.451472	0.135472
C85	C	1.055209	-0.922169	-0.431838
C86	C	1.555209	-0.422169	0.068162
C87	C	1.021919	-0.818803	-0.490785
C88	C	1.521919	-0.318803	0.009215
C89	C	1.057983	-0.846650	-0.426853
C90	C	1.557983	-0.346650	0.073147
C91	C	1.222422	-0.324273	-0.446730
C92	C	1.722422	0.175727	0.053270
C93	C	1.300208	-0.320519	-0.441584
C94	C	1.800208	0.179481	0.058416
C95	C	1.062238	-0.355331	-0.731362
C96	C	1.562238	0.144669	-0.231362
C97	C	1.071764	-0.364812	-0.847510
C98	C	1.571764	0.135188	-0.347510
C99	C	1.046830	-0.148563	-0.446732
C100	C	1.546830	0.351437	0.053268
C101	C	1.049789	-0.069932	-0.441587
C102	C	1.549789	0.430068	0.058413
C103	C	1.044945	-0.337894	-1.019341
C104	C	1.544945	0.162106	-0.519341
C105	C	1.035095	-0.328094	-0.899297
C106	C	1.535095	0.171906	-0.399297
C107	C	1.017663	-0.310868	-0.187301
C108	C	1.517663	0.189132	0.312699
C109	C	1.008281	-0.301182	-0.071132
C110	C	1.508281	0.198818	0.428868
H111	H	0.446458	-0.405854	-0.558709
H112	H	0.946458	0.094146	-0.058709
H113	H	1.110450	-0.403500	-0.892037
H114	H	1.610450	0.096500	-0.392037
O115	O	0.962084	-0.255118	-1.017908
O116	O	1.462084	0.244882	-0.517908
C117	C	0.910214	-0.292463	-0.960426
C118	C	1.410214	0.207537	-0.460426
H119	H	0.931555	-0.343567	-0.946055
H120	H	1.431555	0.156433	-0.446055
H121	H	0.895663	-0.257878	-0.882370
H122	H	1.395663	0.242122	-0.382370
H123	H	0.861482	-0.306143	-1.006370
H124	H	1.361482	0.193857	-0.506370
O125	O	0.308835	-0.420595	-0.578926
O126	O	0.808835	0.079405	-0.078926
C127	C	0.360110	-0.463059	-0.637251
C128	C	0.860110	0.036941	-0.137251
H129	H	0.408594	-0.459444	-0.591123
H130	H	0.908594	0.040556	-0.091123
H131	H	0.337812	-0.520732	-0.653328
H132	H	0.837812	-0.020732	-0.153328
H133	H	0.375385	-0.443341	-0.714463
H134	H	0.875385	0.056659	-0.214463
H135	H	0.647774	-0.444484	-0.611729
H136	H	1.147774	0.055516	-0.111729
H137	H	0.958529	-0.616231	-0.603028
H138	H	1.458529	-0.116231	-0.103028
H139	H	0.953616	-0.750272	-0.611874
H140	H	1.453616	-0.250272	-0.111874
O141	O	1.091182	-0.384000	-1.072337
O142	O	1.591182	0.116000	-0.572337
C143	C	1.159351	-0.363007	-1.040134
C144	C	1.659351	0.136993	-0.540134
H145	H	1.155368	-0.329317	-0.958989
H146	H	1.655368	0.170683	-0.458989
H147	H	1.188515	-0.412255	-1.037773
H148	H	1.688515	0.087745	-0.537773
H149	H	1.189291	-0.330475	-1.097599
H150	H	1.689291	0.169525	-0.597599
O151	O	0.988994	-0.281944	-0.846019
O152	O	1.488994	0.218056	-0.346019
C153	C	0.989412	-0.282442	-0.738023
C154	C	1.489412	0.217558	-0.238023
H155	H	1.041342	-0.301804	-0.721158
H156	H	1.541342	0.198196	-0.221158
H157	H	0.983273	-0.226314	-0.693318
H158	H	1.483273	0.273686	-0.193318
H159	H	0.943960	-0.319608	-0.712265
H160	H	1.443960	0.180392	-0.212265
O161	O	0.977700	-0.938371	-0.569536
O162	O	1.477700	-0.438371	-0.069536
C163	C	1.000824	-0.964138	-0.673885
C164	C	1.500824	-0.464138	-0.173885
H165	H	1.025946	-1.016633	-0.677842
H166	H	1.525946	-0.516633	-0.177842
H167	H	0.954029	-0.972966	-0.724181
H168	H	1.454029	-0.472966	-0.224181
H169	H	1.041194	-0.923653	-0.704012
H170	H	1.541194	-0.423653	-0.204012
H171	H	0.780367	-0.438050	-0.602887
H172	H	1.280367	0.061950	-0.102887
H173	H	1.091100	-0.810354	-0.368090
H174	H	1.591100	-0.310354	0.131910
O175	O	0.771645	-0.245598	-0.338589
O176	O	1.271645	0.254402	0.161411
C177	C	0.720379	-0.203114	-0.280281
C178	C	1.220379	0.296886	0.219719
H179	H	0.666892	-0.234309	-0.281973
H180	H	1.166892	0.265691	0.218027
H181	H	0.735012	-0.187752	-0.196059
H182	H	1.235012	0.312248	0.303941
H183	H	0.717777	-0.152929	-0.315659
H184	H	1.217777	0.347071	0.184341
H185	H	0.432714	-0.221674	-0.305851
H186	H	0.932714	0.278326	0.194149
O187	O	0.627655	-0.252710	-0.348146
O188	O	1.127655	0.247290	0.151854
C189	C	0.578331	-0.289473	-0.286022
C190	C	1.078331	0.210527	0.213978
H191	H	0.597733	-0.343589	-0.281690
H192	H	1.097733	0.156411	0.218310
H193	H	0.571891	-0.257314	-0.204015
H194	H	1.071891	0.242686	0.295985
H195	H	0.525487	-0.297245	-0.322124
H196	H	1.025487	0.202755	0.177876
H197	H	0.300120	-0.228097	-0.314695
H198	H	0.800120	0.271903	0.185305
O199	O	0.982310	-0.862027	-0.560842
O200	O	1.482310	-0.362027	-0.060842
C201	C	0.911348	-0.845555	-0.541328
C202	C	1.411348	-0.345555	-0.041328
H203	H	0.908590	-0.788715	-0.497712
H204	H	1.408590	-0.288715	0.002288
H205	H	0.886199	-0.850706	-0.618616
H206	H	1.386199	-0.350706	-0.118616
H207	H	0.881875	-0.883923	-0.491877
H208	H	1.381875	-0.383923	0.008123
H209	H	1.101182	-0.588533	-0.349958
H210	H	1.601182	-0.088533	0.150042
O211	O	0.527678	-0.407344	-0.560925
O212	O	1.027678	0.092656	-0.060925
C213	C	0.554663	-0.399614	-0.662913
C214	C	1.054663	0.100386	-0.162913
H215	H	0.608932	-0.370037	-0.659828
H216	H	1.108932	0.129963	-0.159828
H217	H	0.559085	-0.454411	-0.712836
H218	H	1.059085	0.045589	-0.212836
H219	H	0.517794	-0.368146	-0.698546
H220	H	1.017794	0.131854	-0.198546
O221	O	0.552828	-0.258689	-0.356838
O222	O	1.052828	0.241311	0.143162
C223	C	0.539521	-0.190948	-0.376435
C224	C	1.039521	0.309052	0.123565
H225	H	0.489816	-0.195372	-0.420056
H226	H	0.989816	0.304628	0.079944
H227	H	0.532016	-0.153119	-0.299180
H228	H	1.032016	0.346881	0.200820
H229	H	0.585970	-0.169575	-0.425913
H230	H	1.085970	0.330425	0.074087
H231	H	1.096270	-0.722563	-0.358815
H232	H	1.596270	-0.222563	0.141185
H233	H	1.121367	-1.049223	-0.314605
H234	H	1.621367	-0.549223	0.185395
O235	O	1.132725	-0.908103	-0.294557
O236	O	1.632725	-0.408103	0.205443
C237	C	1.184356	-0.868001	-0.348296
C238	C	1.684356	-0.368001	0.151704
H239	H	1.166529	-0.864592	-0.428364
H240	H	1.666529	-0.364592	0.071636
H241	H	1.192169	-0.812122	-0.301697
H242	H	1.692169	-0.312122	0.198303
H243	H	1.236118	-0.894859	-0.358281
H244	H	1.736118	-0.394859	0.141719
H245	H	0.978720	-1.076920	-0.567679
H246	H	1.478720	-0.576920	-0.067679
