data_functionalizedCrystal
_audit_creation_method	'MofGen! by Chris Wilmer'
_symmetry_space_group_name_H-M	'P1'
_symmetry_Int_Tables_number	1
_symmetry_cell_setting	triclinic
loop_
_symmetry_equiv_pos_as_xyz
  x,y,z
_cell_length_a	18.101398
_cell_length_b	14.908520
_cell_length_c	14.908308
_cell_angle_alpha	96.360765
_cell_angle_beta	93.270575
_cell_angle_gamma	93.313158
loop_
_atom_site_label
_atom_site_type_symbol
_atom_site_fract_x
_atom_site_fract_y
_atom_site_fract_z
Zn1	Zn	-1.088443	0.390073	0.532768
Zn2	Zn	-0.588443	0.890073	1.032768
Zn3	Zn	-1.088358	0.532718	0.390138
Zn4	Zn	-0.588358	1.032718	0.890138
Zn5	Zn	-0.972187	0.381354	0.381404
Zn6	Zn	-0.472187	0.881354	0.881404
Zn7	Zn	-0.956994	0.541367	0.541423
Zn8	Zn	-0.456994	1.041367	1.041423
O9	O	-1.026495	0.461378	0.461433
O10	O	-0.526495	0.961378	0.961433
O11	O	-1.192061	0.409024	0.513881
O12	O	-0.692061	0.909024	1.013881
O13	O	-1.079271	0.505371	0.262320
O14	O	-0.579271	1.005371	0.762320
O15	O	-0.994002	0.255847	0.394206
O16	O	-0.494002	0.755847	0.894206
O17	O	-1.192000	0.513825	0.409091
O18	O	-0.692000	1.013825	0.909091
O19	O	-1.079414	0.262253	0.505412
O20	O	-0.579414	0.762253	1.005412
O21	O	-0.993920	0.394165	0.255904
O22	O	-0.493920	0.894165	0.755904
O23	O	-0.866541	0.402551	0.402598
O24	O	-0.366541	0.902551	0.902598
O25	O	-0.968108	0.528566	0.666934
O26	O	-0.468108	1.028566	1.166934
O27	O	-0.855379	0.520112	0.520163
O28	O	-0.355379	1.020112	1.020163
O29	O	-1.064682	0.417411	0.660576
O30	O	-0.564682	0.917411	1.160576
O31	O	-1.064539	0.660529	0.417484
O32	O	-0.564539	1.160529	0.917484
O33	O	-0.968026	0.666883	0.528632
O34	O	-0.468026	1.166883	1.028632
C35	C	-0.834090	0.461325	0.461373
C36	C	-0.334090	0.961325	0.961373
C37	C	-0.751776	0.461325	0.461370
C38	C	-0.251776	0.961325	0.961370
C39	C	-1.014644	0.696550	0.474965
C40	C	-0.514644	1.196550	0.974965
C41	C	-1.009640	0.797159	0.480784
C42	C	-0.509640	1.297159	0.980784
C43	C	-1.014710	0.474926	0.697515
C44	C	-0.514710	0.974926	1.197515
C45	C	-1.009687	0.480699	0.798118
C46	C	-0.509687	0.980699	1.298118
C47	C	-0.452681	0.461364	0.461431
C48	C	0.047319	0.961364	0.961431
C49	C	-0.491004	0.387070	0.387785
C50	C	0.008996	0.887070	0.887785
C51	C	-0.576627	0.387248	0.387504
C52	C	-0.076627	0.887248	0.887504
C53	C	-0.601066	0.461344	0.461400
C54	C	-0.101066	0.961344	0.961400
C55	C	-0.566488	0.555188	0.440835
C56	C	-0.066488	1.055188	0.940835
C57	C	-0.480887	0.554763	0.440324
C58	C	0.019113	1.054763	0.940324
C59	C	-0.480704	0.442653	0.555856
C60	C	0.019296	0.942653	1.055856
C61	C	-0.566487	0.440506	0.555215
C62	C	-0.066487	0.940506	1.055215
C63	C	-0.684926	0.461338	0.461385
C64	C	-0.184926	0.961338	0.961385
C65	C	-0.368820	0.461375	0.461445
C66	C	0.131180	0.961375	0.961445
C67	C	-0.219653	0.461414	0.461480
C68	C	0.280347	0.961414	0.961480
C69	C	-0.301970	0.461382	0.461462
C70	C	0.198030	0.961382	0.961462
C71	C	-1.038412	0.225289	0.447869
C72	C	-0.538412	0.725289	0.947869
C73	C	-1.043490	0.124682	0.442089
C74	C	-0.543490	0.624682	0.942089
C75	C	-1.100829	0.979542	0.376073
C76	C	-0.600829	1.479542	0.876073
C77	C	-1.096130	1.074073	0.381538
C78	C	-0.596130	1.574073	0.881538
C79	C	-0.995548	1.080754	0.497181
C80	C	-0.495548	1.580754	0.997181
C81	C	-1.000246	0.986223	0.491717
C82	C	-0.500246	1.486223	0.991717
C83	C	-1.052888	0.935620	0.431160
C84	C	-0.552888	1.435620	0.931160
C85	C	-1.057583	0.841087	0.425691
C86	C	-0.557583	1.341087	0.925691
C87	C	-0.957004	0.847770	0.541339
C88	C	-0.457004	1.347770	1.041339
C89	C	-0.952306	0.942301	0.546804
C90	C	-0.452306	1.442301	1.046804
C91	C	-1.038281	0.447818	0.226267
C92	C	-0.538281	0.947818	0.726267
C93	C	-1.043460	0.441790	0.125649
C94	C	-0.543460	0.941790	0.625649
C95	C	-1.100812	0.375781	0.980542
C96	C	-0.600812	0.875781	1.480542
C97	C	-1.096096	0.381202	1.075068
C98	C	-0.596096	0.881202	1.575068
C99	C	-0.995535	0.496958	1.081698
C100	C	-0.495535	0.996958	1.581698
C101	C	-1.000252	0.491537	0.987172
C102	C	-0.500252	0.991537	1.487172
C103	C	-1.052893	0.430947	0.936597
C104	C	-0.552893	0.930947	1.436597
C105	C	-1.057612	0.425531	0.842070
C106	C	-0.557612	0.925531	1.342070
C107	C	-0.957048	0.541282	0.848701
C108	C	-0.457048	1.041282	1.348701
C109	C	-0.952332	0.546703	0.943227
C110	C	-0.452332	1.046703	1.443227
H111	H	-0.600383	0.317485	0.399764
H112	H	-0.100383	0.817485	0.899764
Br113	Br	-1.172256	0.910861	0.293874
Br114	Br	-0.672256	1.410861	0.793874
Br115	Br	-0.880892	0.628925	1.011871
Br116	Br	-0.380892	1.128925	1.511871
H117	H	-0.581704	0.611790	0.493040
H118	H	-0.081704	1.111790	0.993040
H119	H	-0.590330	0.572105	0.372750
H120	H	-0.090330	1.072105	0.872750
Br121	Br	-1.161129	0.306327	1.134706
Br122	Br	-0.661129	0.806327	1.634706
H123	H	-0.473169	0.317078	0.399850
H124	H	0.026831	0.817078	0.899850
H125	H	-0.918030	0.586205	0.812911
H126	H	-0.418030	1.086205	1.312911
Br127	Br	-0.924123	1.149446	0.579374
Br128	Br	-0.424123	1.649446	1.079374
Br129	Br	-0.459649	0.406665	0.271654
Br130	Br	0.040351	0.906665	0.771654
H131	H	-0.455291	0.496833	0.610661
H132	H	0.044709	0.996833	1.110661
Br133	Br	-0.880871	1.010985	0.628989
Br134	Br	-0.380871	1.510985	1.128989
Br135	Br	-0.615321	0.407125	0.270702
Br136	Br	-0.115321	0.907125	0.770702
H137	H	-0.463359	0.571278	0.371458
H138	H	0.036641	1.071278	0.871458
Br139	Br	-0.437786	0.649657	0.526320
Br140	Br	0.062214	1.149657	1.026320
Br141	Br	-0.891926	0.788157	0.616089
Br142	Br	-0.391926	1.288157	1.116089
H143	H	-0.582782	0.491118	0.612585
H144	H	-0.082782	0.991118	1.112585
Br145	Br	-0.448465	0.331057	0.588781
Br146	Br	0.051535	0.831057	1.088781
Br147	Br	-0.604609	0.325457	0.581242
Br148	Br	-0.104609	0.825457	1.081242
H149	H	-1.100445	0.799887	0.376380
H150	H	-0.600445	1.299887	0.876380
Br151	Br	-0.924093	0.579171	1.150349
Br152	Br	-0.424093	1.079171	1.650349
H153	H	-1.100476	0.376197	0.800893
H154	H	-0.600476	0.876197	1.300893
H155	H	-1.135170	1.109830	0.336682
H156	H	-0.635170	1.609830	0.836682
H157	H	-1.143678	0.326451	0.939364
H158	H	-0.643678	0.826451	1.439364
