data_functionalizedCrystal
_audit_creation_method	'MofGen! by Chris Wilmer'
_symmetry_space_group_name_H-M	'P1'
_symmetry_Int_Tables_number	1
_symmetry_cell_setting	triclinic
loop_
_symmetry_equiv_pos_as_xyz
  x,y,z
_cell_length_a	25.639242
_cell_length_b	14.908932
_cell_length_c	14.908308
_cell_angle_alpha	89.790170
_cell_angle_beta	93.269512
_cell_angle_gamma	93.294745
loop_
_atom_site_label
_atom_site_type_symbol
_atom_site_fract_x
_atom_site_fract_y
_atom_site_fract_z
Zn1	Zn	0.770105	-0.387409	-0.487995
Zn2	Zn	0.770652	-0.529110	-0.328983
Zn3	Zn	0.687991	-0.378757	-0.337630
Zn4	Zn	0.677945	-0.537711	-0.479271
O5	O	0.726673	-0.458247	-0.408470
O6	O	0.843341	-0.406227	-0.466933
O7	O	0.764120	-0.501944	-0.204305
O8	O	0.702858	-0.254079	-0.364845
O9	O	0.843743	-0.510334	-0.350108
O10	O	0.763187	-0.260436	-0.475318
O11	O	0.703389	-0.391480	-0.210658
O12	O	0.613495	-0.399821	-0.356387
O13	O	0.685737	-0.524994	-0.606253
O14	O	0.606114	-0.516604	-0.460450
O15	O	0.753446	-0.414568	-0.612662
O16	O	0.754379	-0.656076	-0.341649
O17	O	0.686267	-0.662395	-0.452066
C18	C	0.590834	-0.458208	-0.408411
C19	C	0.532720	-0.458214	-0.408406
C20	C	0.734083	-0.223720	-0.422019
C21	C	0.737240	-0.123779	-0.427793
C22	C	0.718410	-0.471705	-0.642995
C23	C	0.714889	-0.477441	-0.742935
C24	C	0.168518	-0.519149	-0.462595
C25	C	0.113913	-0.519155	-0.462609
O26	O	0.082416	-0.570917	-0.508634
N27	N	0.090431	-0.458275	-0.408527
C28	C	0.121557	-0.397378	-0.354434
O29	O	0.096570	-0.345595	-0.308434
C30	C	0.176161	-0.397368	-0.354425
C31	C	0.199640	-0.458259	-0.408505
C32	C	0.191997	-0.580033	-0.516671
C33	C	0.246599	-0.580028	-0.516656
C34	C	0.277721	-0.519138	-0.462565
C35	C	0.254241	-0.458253	-0.408489
C36	C	0.207286	-0.336468	-0.300338
C37	C	0.261893	-0.336463	-0.300334
C38	C	0.285372	-0.397353	-0.354414
C39	C	0.339964	-0.397358	-0.354383
N40	N	0.363446	-0.458238	-0.408465
C41	C	0.332324	-0.519128	-0.462556
C42	C	0.006885	-0.397403	-0.354457
C43	C	-0.047718	-0.397416	-0.354460
C44	C	-0.055358	-0.519192	-0.462637
C45	C	-0.000754	-0.519182	-0.462628
C46	C	0.030367	-0.458283	-0.408539
C47	C	0.446991	-0.519112	-0.462519
C48	C	0.501598	-0.519104	-0.462496
C49	C	0.509233	-0.397325	-0.354323
C50	C	0.454632	-0.397336	-0.354342
C51	C	0.423512	-0.458233	-0.408448
O52	O	0.371495	-0.345620	-0.308384
O53	O	0.357319	-0.570895	-0.508557
C54	C	0.863043	-0.458286	-0.408529
C55	C	0.921155	-0.458303	-0.408555
C56	C	0.719306	-0.691862	-0.394992
C57	C	0.716201	-0.791805	-0.389257
C58	C	0.680341	0.070642	-0.323611
C59	C	0.683306	0.164546	-0.329033
C60	C	0.746132	0.157934	-0.444064
C61	C	0.743167	0.064030	-0.438642
C62	C	0.710271	0.020387	-0.378412
C63	C	0.707309	-0.073518	-0.372986
C64	C	0.770132	-0.080128	-0.488021
C65	C	0.773097	0.013775	-0.493443
C66	C	0.778777	-0.373210	-0.937411
C67	C	0.775470	-0.378596	-1.031314
C68	C	0.704966	-0.493593	-1.024647
C69	C	0.708273	-0.488207	-0.930744
C70	C	0.745180	-0.428015	-0.887129
C71	C	0.748489	-0.422634	-0.793224
C72	C	0.677983	-0.537626	-0.786559
C73	C	0.674676	-0.543012	-0.880462
C74	C	0.734936	-0.444775	-0.174861
C75	C	0.738567	-0.438786	-0.074935
H76	H	0.520711	-0.568691	-0.506535
Cl77	Cl	0.628281	-0.618677	-0.935301
H78	H	0.808831	-0.324204	-0.901899
H79	H	0.188179	-0.286887	-0.256298
H80	H	0.287230	-0.286865	-0.256293
H81	H	0.650627	-0.582254	-0.745609
Cl82	Cl	0.425114	-0.320802	-0.286341
Cl83	Cl	0.152882	-0.656592	-0.584680
H84	H	0.772912	0.193479	-0.493108
H85	H	0.421659	-0.568698	-0.506579
Cl86	Cl	0.817708	-0.309695	-1.094523
Cl87	Cl	0.028756	-0.595730	-0.530618
H88	H	0.265710	-0.629609	-0.560694
Cl89	Cl	0.638993	0.015774	-0.247886
Cl90	Cl	0.645676	0.227720	-0.260139
Cl91	Cl	0.794887	-0.346967	-0.738394
H92	H	0.799879	0.049320	-0.542483
H93	H	0.674918	-0.542598	-1.060174
H94	H	-0.066829	-0.347841	-0.310414
H95	H	-0.080708	-0.568769	-0.506684
Cl96	Cl	0.807765	-0.143311	-0.556912
H97	H	0.032221	-0.347811	-0.310404
Cl98	Cl	0.665955	-0.128381	-0.297267
Cl99	Cl	0.548368	-0.320781	-0.286328
