data_functionalizedCrystal
_audit_creation_method	'MofGen! by Chris Wilmer'
_symmetry_space_group_name_H-M	'P1'
_symmetry_Int_Tables_number	1
_symmetry_cell_setting	triclinic
loop_
_symmetry_equiv_pos_as_xyz
  x,y,z
_cell_length_a	6.817900
_cell_length_b	9.514072
_cell_length_c	10.943624
_cell_angle_alpha	88.513180
_cell_angle_beta	108.838799
_cell_angle_gamma	118.843421
loop_
_atom_site_label
_atom_site_type_symbol
_atom_site_fract_x
_atom_site_fract_y
_atom_site_fract_z
V1	V	-4.173025	-0.222162	-0.403562
O2	O	-4.070428	0.010719	-0.394839
O3	O	-4.207528	-0.440552	-0.401803
O4	O	-4.150098	-0.218726	-0.579113
O5	O	-4.128256	-0.212643	-0.216302
V6	V	-4.642610	-0.194309	-0.381043
O7	O	-4.464858	-0.283260	-0.452961
O8	O	-4.800974	-0.133211	-0.331645
O9	O	-4.384900	0.024081	-0.382802
O10	O	-4.862603	-0.427190	-0.389766
O11	O	-4.804775	-0.203829	-0.568303
O12	O	-4.442331	-0.197745	-0.205492
C13	C	-4.071873	-0.493791	-0.395695
C14	C	-4.181540	-0.672327	-0.395427
C15	C	-3.998612	-0.210828	-0.621870
C16	C	-4.061699	-0.209463	-0.765390
C17	C	-3.904149	-0.200275	-0.842496
C18	C	-4.128826	-0.336665	-0.949107
C19	C	-3.949461	-0.070657	-0.914509
C20	C	-4.285620	-0.345982	-0.870125
C21	C	-4.106143	-0.079853	-0.835503
C22	C	-4.330967	-0.216283	-0.942085
C23	C	-4.183900	0.077311	-0.388907
C24	C	-4.053473	0.255846	-0.389183
C25	C	-4.257159	-0.205648	-0.162729
C26	C	-4.173308	-0.207005	-0.019207
H27	H	-3.859895	-0.669050	-0.383978
N28	N	-4.424384	-0.766560	-0.401936
N29	N	-4.516158	-0.916336	-0.401760
H30	H	-4.687664	-0.982891	-0.406355
N31	N	-4.463224	-0.492105	-0.845032
N32	N	-4.578342	-0.484949	-0.779038
H33	H	-4.703771	-0.588148	-0.761314
N34	N	-4.558145	-0.224849	-0.996388
N35	N	-4.726740	-0.340043	-1.083511
H36	H	-4.887194	-0.346107	-1.121867
N37	N	-3.677214	-0.192023	-0.787960
N38	N	-3.648429	-0.301081	-0.826215
H39	H	-3.488163	-0.295262	-0.787700
N40	N	-4.093150	0.056364	-0.773433
N41	N	-3.945810	0.197512	-0.780595
H42	H	-3.936606	0.293730	-0.736752
N43	N	-3.771970	0.075275	-0.939884
N44	N	-3.559479	0.106592	-0.902806
H45	H	-3.434120	0.209637	-0.920744
N46	N	-4.141671	-0.472864	-1.011120
N47	N	-3.961126	-0.488897	-0.980173
H48	H	-3.970180	-0.585085	-1.023962
