data_functionalizedCrystal
_audit_creation_method	'MofGen! by Chris Wilmer'
_symmetry_space_group_name_H-M	'P1'
_symmetry_Int_Tables_number	1
_symmetry_cell_setting	triclinic
loop_
_symmetry_equiv_pos_as_xyz
  x,y,z
_cell_length_a	14.908571
_cell_length_b	12.594516
_cell_length_c	14.908694
_cell_angle_alpha	93.272928
_cell_angle_beta	83.592472
_cell_angle_gamma	86.712497
loop_
_atom_site_label
_atom_site_type_symbol
_atom_site_fract_x
_atom_site_fract_y
_atom_site_fract_z
Zn1	Zn	1.413379	-0.560363	-0.591545
Zn2	Zn	1.404558	-0.727465	-0.440191
Zn3	Zn	1.253279	-0.538593	-0.431479
Zn4	Zn	1.261990	-0.727382	-0.582790
O5	O	1.333302	-0.638451	-0.511501
O6	O	1.538876	-0.591676	-0.578778
O7	O	1.377154	-0.693334	-0.312369
O8	O	1.274563	-0.392539	-0.452730
O9	O	1.532396	-0.714444	-0.467579
O10	O	1.392187	-0.408534	-0.570330
O11	O	1.266010	-0.554570	-0.305968
O12	O	1.127767	-0.554490	-0.444240
O13	O	1.289409	-0.714303	-0.710617
O14	O	1.134167	-0.693193	-0.555407
O15	O	1.400634	-0.591595	-0.717050
O16	O	1.385600	-0.876395	-0.459089
O17	O	1.280856	-0.876334	-0.563856
C18	C	1.098124	-0.621471	-0.497929
C19	C	0.997515	-0.614234	-0.492144
C20	C	0.815163	-0.745267	-0.596877
C21	C	0.720632	-0.738471	-0.591444
C22	C	0.713921	-0.593842	-0.475853
C23	C	0.808452	-0.600638	-0.481285
C24	C	0.859070	-0.676354	-0.541798
C25	C	0.953602	-0.683154	-0.547225
C26	C	0.946889	-0.538521	-0.431638
C27	C	0.852358	-0.531725	-0.426206
C28	C	1.333242	-0.914987	-0.511489
C29	C	1.333301	-1.033298	-0.511519
C30	C	1.276322	-1.102554	-0.568458
C31	C	1.249505	-1.165879	-0.484594
C32	C	1.360201	-1.180779	-0.595402
C33	C	1.306437	-1.095059	-0.427608
C34	C	1.417175	-1.109959	-0.538474
C35	C	1.390386	-1.173251	-0.454554
C36	C	1.569398	-0.655497	-0.525127
C37	C	1.670008	-0.662762	-0.530933
C38	C	1.346977	-0.655369	-0.747595
C39	C	1.352804	-0.662578	-0.848204
C40	C	1.333387	-0.360838	-0.511535
C41	C	1.333424	-0.242536	-0.511549
C42	C	1.248000	-0.531632	-1.030594
C43	C	1.253472	-0.538402	-1.125125
C44	C	1.369216	-0.682893	-1.131798
C45	C	1.363744	-0.676123	-1.037267
C46	C	1.303135	-0.600489	-0.986668
C47	C	1.297667	-0.593714	-0.892136
C48	C	1.413407	-0.738209	-0.898811
C49	C	1.418879	-0.744979	-0.993342
C50	C	1.319732	-0.621526	-0.276329
C51	C	1.314079	-0.614029	-0.175730
H52	H	0.856377	-0.806923	-0.646144
H53	H	1.228041	-1.071501	-0.616531
H54	H	0.811132	-0.470077	-0.376940
Cl55	Cl	1.395251	-1.238529	-0.704905
H56	H	1.208576	-0.482332	-1.160885
H57	H	0.684888	-0.794585	-0.636297
H58	H	1.283653	-1.057778	-0.356657
Cl59	Cl	1.171817	-0.436542	-0.966981
Cl60	Cl	1.495066	-0.840060	-1.056960
Cl61	Cl	0.650273	-0.498649	-0.399800
H62	H	1.438621	-1.204095	-0.406357
H63	H	0.982647	-0.482409	-0.386787
H64	H	1.178631	-1.190715	-0.461818
H65	H	1.248320	-0.532125	-0.850940
Cl66	Cl	1.526579	-1.071616	-0.573698
Cl67	Cl	1.445391	-0.777981	-1.195423
Cl68	Cl	1.482725	-0.824775	-0.843585
H69	H	0.994814	-0.744808	-0.596496
