data_functionalizedCrystal
_audit_creation_method	'MofGen! by Chris Wilmer'
_symmetry_space_group_name_H-M	'P1'
_symmetry_Int_Tables_number	1
_symmetry_cell_setting	triclinic
loop_
_symmetry_equiv_pos_as_xyz
  x,y,z
_cell_length_a	42.784860
_cell_length_b	42.784822
_cell_length_c	42.784893
_cell_angle_alpha	59.997561
_cell_angle_beta	90.002749
_cell_angle_gamma	120.000052
loop_
_atom_site_label
_atom_site_type_symbol
_atom_site_fract_x
_atom_site_fract_y
_atom_site_fract_z
O1	O	-0.214411	0.275696	-0.009303
O2	O	-0.168960	0.211693	0.009250
O3	O	-0.168960	0.275694	-0.054752
O4	O	-0.214412	0.211695	0.054700
O5	O	-0.220945	0.223709	-0.054752
O6	O	-0.220945	0.159709	0.009251
O7	O	-0.266396	0.223712	-0.009302
Zn8	Zn	-0.251924	0.183456	-0.000026
Zn9	Zn	-0.183432	0.251948	-0.000026
O10	O	-0.266396	0.159711	0.054700
C11	C	-0.356210	0.440761	-0.028198
C12	C	-0.393825	0.422043	-0.028463
C13	C	-0.356212	0.384160	-0.028195
C14	C	-0.393827	0.365528	-0.028460
C15	C	-0.412809	0.384162	-0.028198
C16	C	-0.337314	0.422041	-0.028460
C17	C	-0.264530	0.567003	-0.017954
C18	C	-0.246589	0.602758	-0.015058
C19	C	-0.265929	0.620695	-0.013606
C20	C	-0.246481	0.659458	-0.010458
C21	C	-0.303208	0.602876	-0.015053
C22	C	-0.321144	0.567127	-0.017954
C23	C	-0.301803	0.549191	-0.019404
C24	C	-0.549294	0.339358	-0.017956
C25	C	-0.587945	0.318647	-0.015060
C26	C	-0.607337	0.279917	-0.013603
C27	C	-0.649246	0.257454	-0.010457
C28	C	-0.588072	0.261901	-0.015047
C29	C	-0.549421	0.282615	-0.017950
C30	C	-0.530034	0.321345	-0.019402
C31	C	-0.264536	0.339346	-0.017940
C32	C	-0.246598	0.318630	-0.015035
C33	C	-0.265938	0.279899	-0.013580
C34	C	-0.246492	0.257434	-0.010429
C35	C	-0.303216	0.261886	-0.015025
C36	C	-0.321152	0.282602	-0.017928
C37	C	-0.301807	0.321336	-0.019389
C38	C	-0.321256	0.510424	-0.022546
C39	C	-0.336761	0.479524	-0.025053
C40	C	-0.336763	0.361698	-0.025045
C41	C	-0.321260	0.343795	-0.022536
C42	C	-0.454718	0.361703	-0.025052
C43	C	-0.488123	0.343801	-0.022546
O44	O	-0.772519	0.159724	0.009230
O45	O	-0.663066	0.223728	-0.009325
O46	O	-0.727060	0.159730	0.054678
O47	O	-0.708526	0.223722	-0.054773
O48	O	-0.727058	0.211716	0.054675
O49	O	-0.663065	0.275715	-0.009329
O50	O	-0.772518	0.211710	0.009227
Zn51	Zn	-0.717791	0.251966	-0.000052
Zn52	Zn	-0.717793	0.183472	-0.000047
O53	O	-0.708524	0.275708	-0.054777
C54	C	-0.079140	0.384392	-0.361609
C55	C	-0.041525	0.422272	-0.380505
C56	C	-0.079140	0.384392	-0.305010
C57	C	-0.041525	0.422272	-0.323993
C58	C	-0.022542	0.440990	-0.361608
C59	C	-0.098037	0.365759	-0.323993
C60	C	-0.170818	0.282466	-0.396171
C61	C	-0.188758	0.261629	-0.413985
C62	C	-0.169419	0.279514	-0.451260
C63	C	-0.188866	0.256918	-0.470575
C64	C	-0.132139	0.318240	-0.470720
C65	C	-0.114204	0.339078	-0.452907
C66	C	-0.133545	0.321189	-0.415631
C67	C	0.113944	0.567229	-0.453284
C68	C	0.152595	0.602984	-0.471224
C69	C	0.171986	0.620919	-0.451885
C70	C	0.213895	0.659681	-0.471330
C71	C	0.152721	0.603099	-0.414606
C72	C	0.114069	0.567352	-0.396669
C73	C	0.094683	0.549417	-0.416013
C74	C	-0.170818	0.282466	-0.168524
C75	C	-0.188756	0.261626	-0.129871
C76	C	-0.169417	0.279511	-0.110481
C77	C	-0.188864	0.256916	-0.068570
C78	C	-0.132139	0.318234	-0.129745
C79	C	-0.114202	0.339071	-0.168396
C80	C	-0.133547	0.321186	-0.187784
C81	C	-0.114093	0.343785	-0.396317
C82	C	-0.098589	0.361796	-0.380922
C83	C	-0.098589	0.361796	-0.263101
C84	C	-0.114093	0.343785	-0.229695
C85	C	0.019367	0.479752	-0.381056
C86	C	0.052773	0.510651	-0.396560
C87	C	-0.022778	0.051021	0.028112
C88	C	-0.041761	0.013142	0.028375
C89	C	-0.079378	0.051019	0.028115
C90	C	-0.098274	0.013139	0.028378
C91	C	-0.079377	-0.005578	0.028112
C92	C	-0.041762	0.069652	0.028378
C93	C	0.113708	0.152949	0.017863
C94	C	0.152360	0.173787	0.014965
C95	C	0.171751	0.155903	0.013509
C96	C	0.213662	0.178499	0.010359
C97	C	0.152486	0.117177	0.014954
C98	C	0.113835	0.096339	0.017857
C99	C	0.094447	0.114226	0.019312
C100	C	-0.113936	-0.131814	0.017859
C101	C	-0.131751	-0.167567	0.014961
C102	C	-0.169024	-0.185503	0.013506
C103	C	-0.188341	-0.224265	0.010358
C104	C	-0.188486	-0.167685	0.014954
C105	C	-0.170675	-0.131938	0.017859
C106	C	-0.133396	-0.114002	0.019309
C107	C	-0.113943	0.152940	0.017875
C108	C	-0.131756	0.173779	0.014975
C109	C	-0.169032	0.155893	0.013522
C110	C	-0.188348	0.178487	0.010375
C111	C	-0.188490	0.117171	0.014965
C112	C	-0.170675	0.096335	0.017863
C113	C	-0.133401	0.114221	0.019322
C114	C	0.052537	0.091630	0.022456
C115	C	0.019131	0.073618	0.024964
C116	C	-0.098692	0.073613	0.024970
C117	C	-0.114088	0.091623	0.022465
C118	C	-0.098690	-0.044339	0.024964
C119	C	-0.114085	-0.075237	0.022455
O120	O	-0.220936	0.763044	0.009229
O121	O	-0.266387	0.672146	-0.009326
O122	O	-0.266384	0.672138	0.054678
O123	O	-0.220939	0.763053	-0.054774
O124	O	-0.214398	0.672142	0.054672
O125	O	-0.214400	0.672150	-0.009331
O126	O	-0.168950	0.763048	0.009224
Zn127	Zn	-0.183421	0.717600	-0.000054
Zn128	Zn	-0.251915	0.717594	-0.000047
O129	O	-0.168953	0.763057	-0.054779
O130	O	0.337165	0.763274	-0.496873
O131	O	0.227714	0.672370	-0.451425
O132	O	0.291712	0.672367	-0.451419
O133	O	0.273167	0.763276	-0.496878
O134	O	0.291714	0.672369	-0.503404
O135	O	0.227716	0.672371	-0.503409
O136	O	0.337167	0.763275	-0.548857
Zn137	Zn	0.282441	0.717823	-0.534387
Zn138	Zn	0.282440	0.717822	-0.465895
O139	O	0.273168	0.763277	-0.548863
O140	O	-0.214416	0.211691	-0.548620
O141	O	-0.168961	0.275693	-0.503170
O142	O	-0.168963	0.211690	-0.503165
O143	O	-0.214414	0.275693	-0.548624
O144	O	-0.220946	0.159707	-0.451181
O145	O	-0.220944	0.223709	-0.451186
O146	O	-0.266399	0.159708	-0.496636
Zn147	Zn	-0.251925	0.183455	-0.465657
Zn148	Zn	-0.183435	0.251945	-0.534148
O149	O	-0.266397	0.223710	-0.496640
C150	C	-0.412572	-0.005343	0.361556
C151	C	-0.393589	0.013375	0.380453
C152	C	-0.355973	0.051256	0.304958
C153	C	-0.337077	0.069888	0.323942
C154	C	-0.355974	0.051255	0.361557
C155	C	-0.393589	0.013376	0.323940
C156	C	-0.549057	-0.131582	0.396114
C157	C	-0.587709	-0.167336	0.413927
C158	C	-0.607098	-0.185271	0.451202
C159	C	-0.649009	-0.224034	0.470516
C160	C	-0.587833	-0.167452	0.470663
C161	C	-0.549183	-0.131705	0.452851
C162	C	-0.529795	-0.113769	0.415575
C163	C	-0.321414	0.096062	0.453236
C164	C	-0.303599	0.116774	0.471177
C165	C	-0.266326	0.155503	0.451839
C166	C	-0.247010	0.177966	0.471285
C167	C	-0.246866	0.173518	0.414560
C168	C	-0.264676	0.152803	0.396622
C169	C	-0.301955	0.114074	0.415965
C170	C	-0.321411	0.096065	0.168471
C171	C	-0.303598	0.116780	0.129818
C172	C	-0.266323	0.155509	0.110429
C173	C	-0.247008	0.177973	0.068518
C174	C	-0.246865	0.173524	0.129694
C175	C	-0.264679	0.152808	0.168345
C176	C	-0.301953	0.114076	0.187732
C177	C	-0.487886	-0.075004	0.396262
C178	C	-0.454481	-0.044105	0.380868
C179	C	-0.336660	0.073716	0.263049
C180	C	-0.321265	0.091618	0.229643
C181	C	-0.336661	0.073715	0.381006
C182	C	-0.321266	0.091617	0.396511
C183	C	-0.745866	0.051078	0.361520
C184	C	-0.746126	0.013200	0.380417
C185	C	-0.745879	0.051069	0.304926
C186	C	-0.746138	0.013191	0.323909
C187	C	-0.745865	-0.005522	0.361523
C188	C	-0.746139	0.069705	0.323906
C189	C	-0.735614	0.153012	0.396070
C190	C	-0.732713	0.173854	0.413882
C191	C	-0.731249	0.155974	0.451155
C192	C	-0.728097	0.178574	0.470466
C193	C	-0.732690	0.117250	0.470616
C194	C	-0.735596	0.096409	0.452806
C195	C	-0.737058	0.114292	0.415532
C196	C	-0.735594	-0.131747	0.453199
C197	C	-0.732691	-0.167499	0.471140
C198	C	-0.731239	-0.185437	0.451804
C199	C	-0.728087	-0.224197	0.471249
C200	C	-0.732694	-0.167624	0.414526
C201	C	-0.735603	-0.131879	0.396589
C202	C	-0.737050	-0.113940	0.415930
C203	C	-0.735664	0.152975	0.168443
C204	C	-0.732771	0.173810	0.129791
C205	C	-0.731320	0.155921	0.110404
C206	C	-0.728181	0.178511	0.068494
C207	C	-0.732759	0.117201	0.129668
C208	C	-0.735651	0.096369	0.168319
C209	C	-0.737107	0.114258	0.187704
C210	C	-0.740205	0.091692	0.396222
C211	C	-0.742716	0.073678	0.380830
C212	C	-0.742742	0.073658	0.263018
C213	C	-0.740242	0.091665	0.229613
C214	C	-0.742713	-0.044281	0.380972
C215	C	-0.740201	-0.075178	0.396476
C216	C	-0.689717	0.440717	-0.361622
C217	C	-0.689458	0.421994	-0.380516
C218	C	-0.689705	0.384125	-0.305024
C219	C	-0.689447	0.365488	-0.324004
C220	C	-0.689720	0.384115	-0.361617
C221	C	-0.689443	0.422005	-0.324008
C222	C	-0.699965	0.566959	-0.396188
C223	C	-0.702865	0.602713	-0.414003
C224	C	-0.704328	0.620642	-0.451276
C225	C	-0.707479	0.659404	-0.470592
C226	C	-0.702888	0.602818	-0.470734
C227	C	-0.699983	0.567071	-0.452920
C228	C	-0.698522	0.549142	-0.415646
C229	C	-0.699994	0.339286	-0.453282
C230	C	-0.702898	0.318569	-0.471219
C231	C	-0.704351	0.279840	-0.451879
C232	C	-0.707504	0.257372	-0.471321
C233	C	-0.702896	0.261832	-0.414601
C234	C	-0.699986	0.282552	-0.396668
C235	C	-0.698538	0.321280	-0.416013
C236	C	-0.699919	0.339339	-0.168545
C237	C	-0.702812	0.318629	-0.129893
C238	C	-0.704264	0.279900	-0.110502
C239	C	-0.707403	0.257443	-0.068593
C240	C	-0.702826	0.261881	-0.129763
C241	C	-0.699934	0.282591	-0.168413
C242	C	-0.698477	0.321323	-0.187803
C243	C	-0.695376	0.510377	-0.396332
C244	C	-0.692866	0.479479	-0.380936
C245	C	-0.692842	0.361671	-0.263117
C246	C	-0.695342	0.343774	-0.229712
C247	C	-0.692874	0.361649	-0.381062
C248	C	-0.695386	0.343743	-0.396563
C249	C	-0.356186	0.384135	0.361527
C250	C	-0.393801	0.365499	0.380426
C251	C	-0.356190	0.440736	0.304932
C252	C	-0.393805	0.422015	0.323917
C253	C	-0.412786	0.384132	0.361532
C254	C	-0.337291	0.422018	0.323912
C255	C	-0.264501	0.339331	0.396079
C256	C	-0.246559	0.318620	0.413891
C257	C	-0.265897	0.279887	0.451165
C258	C	-0.246448	0.257424	0.470477
C259	C	-0.303177	0.261869	0.470627
C260	C	-0.321114	0.282584	0.452817
C261	C	-0.301774	0.321317	0.415541
C262	C	-0.549269	0.282194	0.453215
C263	C	-0.587921	0.261354	0.471156
C264	C	-0.607314	0.279236	0.451821
C265	C	-0.649223	0.256641	0.471268
C266	C	-0.588051	0.317966	0.414541
C267	C	-0.549399	0.338809	0.396603
C268	C	-0.530011	0.320917	0.415944
C269	C	-0.264518	0.566990	0.168444
C270	C	-0.246582	0.602744	0.129791
C271	C	-0.265924	0.620680	0.110404
C272	C	-0.246479	0.659446	0.068493
C273	C	-0.303202	0.602857	0.129670
C274	C	-0.321136	0.567102	0.168321
C275	C	-0.301789	0.549174	0.187707
C276	C	-0.321229	0.343773	0.396231
C277	C	-0.336735	0.361675	0.380838
C278	C	-0.336743	0.479502	0.263023
C279	C	-0.321241	0.510404	0.229617
C280	C	-0.454695	0.361533	0.380982
C281	C	-0.488100	0.343519	0.396488
O282	O	-0.708402	0.223813	0.548503
O283	O	-0.726959	0.159804	0.503059
O284	O	-0.662956	0.223814	0.503045
O285	O	-0.772405	0.159803	0.548516
O286	O	-0.662969	0.275791	0.451063
O287	O	-0.726972	0.211781	0.451077
O288	O	-0.708415	0.275790	0.496521
Zn289	Zn	-0.717695	0.252038	0.465545
Zn290	Zn	-0.717679	0.183556	0.534034
O291	O	-0.772418	0.211780	0.496534
C292	C	-0.022798	1.051063	-0.361634
C293	C	-0.041783	1.069695	-0.380528
C294	C	-0.079393	0.994458	-0.305034
C295	C	-0.098293	1.013176	-0.324014
C296	C	-0.079398	1.051059	-0.361629
C297	C	-0.041778	1.013180	-0.324019
C298	C	0.113690	1.095881	-0.396203
C299	C	0.152342	1.116596	-0.414020
C300	C	0.171729	1.155328	-0.451294
C301	C	0.213639	1.177795	-0.470612
C302	C	0.152461	1.173343	-0.470752
C303	C	0.113811	1.152624	-0.452937
C304	C	0.094426	1.113892	-0.415661
C305	C	-0.113969	1.152986	-0.453298
C306	C	-0.131785	1.173823	-0.471235
C307	C	-0.169059	1.155937	-0.451894
C308	C	-0.188378	1.178529	-0.471337
C309	C	-0.188517	1.117208	-0.414615
C310	C	-0.170703	1.096368	-0.396681
C311	C	-0.133425	1.114264	-0.416027
C312	C	-0.113945	0.868208	-0.168550
C313	C	-0.131756	0.832454	-0.129897
C314	C	-0.169030	0.814515	-0.110505
C315	C	-0.188343	0.775749	-0.068595
C316	C	-0.188491	0.832334	-0.129767
C317	C	-0.170679	0.868089	-0.168418
C318	C	-0.133406	0.886021	-0.187808
C319	C	0.052517	1.091432	-0.396346
C320	C	0.019111	1.073527	-0.380949
C321	C	-0.098704	0.955692	-0.263125
C322	C	-0.114097	0.924790	-0.229719
C323	C	-0.098714	1.073655	-0.381075
C324	C	-0.114111	1.091665	-0.396576
H325	H	-0.248782	0.370883	-0.019125
O326	O	-0.704415	0.621940	-0.393022
H327	H	-0.731616	0.619204	-0.390269
H328	H	-0.083618	1.167558	-0.469053
H329	H	-0.128940	0.335270	-0.308751
H330	H	0.098386	0.552847	-0.366318
H331	H	-0.408830	-0.002292	0.308701
H332	H	-0.409046	0.437682	0.308677
O333	O	-0.021591	0.992426	-0.303834
H334	H	-0.020080	0.992254	-0.277855
O335	O	0.173407	0.097904	0.013370
H336	H	0.184175	0.089679	0.037923
O337	O	-0.021600	1.110071	-0.421467
H338	H	-0.041136	1.119933	-0.431473
H339	H	-0.026284	0.437932	-0.308749
H340	H	-0.731506	-0.181999	0.501490
O341	O	0.092778	1.054098	-0.356005
H342	H	0.112666	1.045048	-0.345472
O343	O	-0.731200	0.097899	0.108762
H344	H	-0.704003	0.122407	0.084286
H345	H	-0.115939	1.205357	-0.501586
O346	O	-0.191664	-0.112724	0.019424
H347	H	-0.175392	-0.077411	-0.005134
H348	H	-0.219107	0.230092	-0.114187
O349	O	-0.228963	0.219863	-0.392996
H350	H	-0.238188	0.208381	-0.411646
O351	O	-0.206383	0.621971	-0.013501
H352	H	-0.187344	0.657280	-0.038066
H353	H	-0.026519	-0.002524	0.028802
O354	O	-0.361340	0.547884	0.189103
H355	H	-0.371775	0.566364	0.169131
O356	O	-0.243640	0.381106	0.355876
H357	H	-0.262378	0.392481	0.346758
H358	H	-0.248832	0.167478	0.184028
H359	H	0.098152	0.064808	0.019035
O360	O	-0.361616	0.054289	0.474100
H361	H	-0.380602	0.059867	0.457770
H362	H	-0.689022	0.335005	-0.308760
H363	H	0.098126	1.167293	-0.468783
O364	O	-0.228695	0.812991	-0.108855
H365	H	-0.247682	0.777676	-0.098105
H366	H	-0.318917	0.230335	0.500977
O367	O	-0.073734	-0.112473	0.019431
H368	H	-0.063197	-0.130872	0.017942
O369	O	-0.110766	0.813235	-0.109123
H370	H	-0.127041	0.777924	-0.098373
O371	O	-0.073743	0.887555	-0.189466
H372	H	-0.054045	0.899751	-0.175225
O373	O	-0.414031	0.325127	-0.028985
H374	H	-0.394508	0.315243	-0.029107
H375	H	-0.306171	0.100369	0.308700
H376	H	-0.218868	1.102641	-0.398869
O377	O	-0.324066	0.622219	-0.013482
H378	H	-0.307734	0.657537	-0.038040
O379	O	-0.608695	0.219584	0.511360
H380	H	-0.638828	0.208099	0.520586
O381	O	-0.191686	1.054601	-0.356476
H382	H	-0.220597	1.045663	-0.346037
H383	H	-0.351466	0.267912	0.468666
O384	O	-0.228691	-0.187039	0.013395
H385	H	-0.229373	-0.161185	-0.011928
O386	O	-0.324598	0.097359	0.511373
H387	H	-0.305951	0.118273	0.520594
O388	O	-0.746709	0.110077	0.303718
H389	H	-0.746855	0.119939	0.274320
O390	O	-0.324583	0.097356	0.109037
H391	H	-0.332086	0.063408	0.123339
O392	O	-0.731133	-0.186970	0.393668
H393	H	-0.728865	-0.214818	0.412401
H394	H	-0.703986	0.333302	-0.114213
O395	O	-0.698356	0.381109	-0.189458
H396	H	-0.699849	0.390155	-0.169571
O397	O	-0.608956	0.337269	0.393684
H398	H	-0.608421	0.338485	0.367148
H399	H	-0.351759	0.064523	0.184256
O400	O	-0.737172	-0.112665	0.356386
H401	H	-0.735672	-0.131141	0.345951
O402	O	-0.243656	0.547645	0.189353
H403	H	-0.214725	0.566038	0.169462
H404	H	-0.351496	0.552623	-0.019133
H405	H	0.168026	1.101926	-0.398175
H406	H	-0.698774	0.552366	-0.365839
O407	O	-0.608721	0.338076	-0.013499
H408	H	-0.638854	0.317168	-0.011241
O409	O	0.173367	0.622208	-0.511433
H410	H	0.203499	0.650086	-0.520659
O411	O	-0.698420	0.263130	-0.356464
H412	H	-0.699922	0.232717	-0.346025
H413	H	0.168248	1.204878	-0.501101
O414	O	-0.528355	0.262904	0.474074
H415	H	-0.548241	0.232477	0.503010
H416	H	-0.409064	0.437712	-0.028890
H417	H	-0.736773	-0.117145	0.468950
H418	H	-0.186528	0.882595	-0.184098
H419	H	-0.736825	0.064841	0.184002
H420	H	-0.533275	-0.116983	0.365762
O421	O	0.092798	0.172237	0.019442
H422	H	0.107042	0.206182	-0.006990
O423	O	-0.608486	-0.186544	0.392933
H424	H	-0.594183	-0.198677	0.385418
H425	H	-0.704010	0.230344	-0.113972
O426	O	-0.413989	0.325120	0.421364
H427	H	-0.397880	0.332862	0.439703
O428	O	-0.296376	0.442787	-0.029022
H429	H	-0.286366	0.472326	-0.029159
H430	H	-0.704077	0.617421	-0.501082
H431	H	-0.603861	0.230367	-0.013863
O432	O	-0.206390	0.338065	-0.013483
H433	H	-0.205763	0.339287	0.011834
O434	O	-0.243656	0.547687	-0.019559
H435	H	-0.214715	0.566096	-0.018084
O436	O	-0.698434	0.547844	-0.473902
H437	H	-0.699943	0.566312	-0.502810
O438	O	-0.528379	0.381138	-0.019537
H439	H	-0.548265	0.390190	-0.018054
O440	O	-0.528623	0.380575	0.356397
H441	H	-0.548600	0.389510	0.345961
O442	O	-0.528643	0.263185	-0.019504
H443	H	-0.548619	0.232772	-0.018002
O444	O	-0.361359	0.263172	-0.019485
H445	H	-0.361980	0.261962	-0.044809
O446	O	-0.324078	0.220114	-0.013459
H447	H	-0.305341	0.208738	-0.011202
H448	H	-0.026286	0.437937	-0.411412
O449	O	-0.111278	0.337536	-0.510922
H450	H	-0.108577	0.313032	-0.510884
O451	O	-0.191678	0.263174	-0.189436
H452	H	-0.220610	0.232743	-0.169547
O453	O	-0.698425	0.381059	-0.474146
H454	H	-0.699920	0.390104	-0.503080
H455	H	-0.186571	0.267898	-0.365820
O456	O	-0.608744	-0.186793	0.510863
H457	H	-0.638858	-0.214643	0.519979
O458	O	-0.110753	-0.186765	0.013373
H459	H	-0.081837	-0.168279	0.014858
H460	H	-0.083852	0.370608	-0.468754
O461	O	-0.413774	-0.007372	0.421391
H462	H	-0.443177	-0.036906	0.431399
H463	H	0.168509	0.617707	-0.398861
O464	O	0.093030	0.547895	-0.474150
H465	H	0.112916	0.566296	-0.503086
H466	H	-0.083849	0.370600	-0.184078
H467	H	-0.736771	0.064880	0.468655
O468	O	-0.111276	0.337531	-0.108836
H469	H	-0.130010	0.316541	-0.078724
H470	H	-0.129181	-0.002525	0.028804
O471	O	-0.206657	0.215291	0.108792
H472	H	-0.206685	0.242463	0.084317
H473	H	-0.533500	-0.117201	0.468699
O474	O	-0.324063	0.622206	0.108766
H475	H	-0.305329	0.650068	0.078655
O476	O	-0.296352	0.442778	0.303721
H477	H	-0.286340	0.423387	0.323247
H478	H	-0.689015	0.437675	-0.308771
O479	O	-0.731223	0.215569	0.109013
H480	H	-0.732724	0.224504	0.128988
O481	O	-0.688905	0.442735	-0.421452
H482	H	-0.688774	0.472270	-0.431462
O483	O	-0.021579	0.110025	0.028946
H484	H	0.007822	0.119898	0.029082
H485	H	-0.698765	0.267915	-0.184093
O486	O	-0.110771	0.215542	0.013420
H487	H	-0.081862	0.224475	0.014924
O488	O	-0.073737	0.172234	0.019439
H489	H	-0.063196	0.202665	0.017941
H490	H	-0.216207	0.333291	0.398041
O491	O	0.173141	0.215558	0.013397
H492	H	0.153167	0.224497	0.014890
H493	H	-0.186523	0.064803	0.019044
H494	H	-0.129201	0.997502	-0.308772
H495	H	-0.704083	0.333234	-0.501569
O496	O	-0.228697	0.097872	0.013401
H497	H	-0.237819	0.118861	0.011147
O498	O	-0.206376	0.621968	0.109011
H499	H	-0.195937	0.603496	0.128986
O500	O	-0.737230	0.172273	0.189349
H501	H	-0.739488	0.151279	0.219462
O502	O	-0.206656	0.215275	0.393706
H503	H	-0.197536	0.226651	0.412442
H504	H	-0.248829	0.167471	0.366271
H505	H	-0.746547	-0.002461	0.411323
O506	O	-0.746708	-0.007568	0.303729
H507	H	-0.746852	0.011818	0.274329
O508	O	-0.737199	0.172297	0.355872
H509	H	-0.710769	0.206241	0.336170
O510	O	-0.731152	0.215620	0.392892
H511	H	-0.732652	0.224555	0.363980
O512	O	-0.731118	0.097962	0.510817
H513	H	-0.728855	0.118960	0.519932
H514	H	-0.704075	0.230300	-0.398856
