data_functionalizedCrystal
_audit_creation_method	'MofGen! by Chris Wilmer'
_symmetry_space_group_name_H-M	'P1'
_symmetry_Int_Tables_number	1
_symmetry_cell_setting	triclinic
loop_
_symmetry_equiv_pos_as_xyz
  x,y,z
_cell_length_a	18.050591
_cell_length_b	10.686285
_cell_length_c	10.686551
_cell_angle_alpha	80.915481
_cell_angle_beta	94.403376
_cell_angle_gamma	94.372862
loop_
_atom_site_label
_atom_site_type_symbol
_atom_site_fract_x
_atom_site_fract_y
_atom_site_fract_z
Zn1	Zn	1.186466	0.450288	0.679255
Zn2	Zn	1.186405	0.678868	0.450753
Zn3	Zn	1.053419	0.466628	0.466989
Zn4	Zn	1.071121	0.662473	0.662932
O5	O	1.124353	0.564564	0.564982
O6	O	1.290385	0.480633	0.648980
O7	O	1.161331	0.664413	0.275275
O8	O	1.063685	0.286837	0.508773
O9	O	1.290341	0.648569	0.481100
O10	O	1.161433	0.274832	0.664724
O11	O	1.063627	0.508481	0.287203
O12	O	0.951840	0.492584	0.492945
O13	O	1.093855	0.620627	0.842729
O14	O	0.964846	0.636471	0.636904
O15	O	1.178598	0.464735	0.854722
O16	O	1.178496	0.854316	0.465273
O17	O	1.093797	0.842271	0.621160
C18	C	1.138082	0.894347	0.539711
C19	C	1.144026	1.035427	0.528942
C20	C	0.931396	0.564522	0.564916
C21	C	0.848850	0.564533	0.564915
C22	C	1.138208	0.539029	0.896071
C23	C	1.144113	0.528148	1.037162
C24	C	0.642310	0.486174	0.486833
C25	C	0.596437	0.604347	0.446740
C26	C	0.697724	0.564567	0.564969
C27	C	0.596516	0.446434	0.605056
C28	C	0.551742	0.564590	0.565020
C29	C	0.652939	0.682805	0.524811
C30	C	0.653021	0.524810	0.683187
C31	C	0.607176	0.643060	0.643132
C32	C	0.781820	0.564552	0.564937
C33	C	0.467649	0.564617	0.565052
C34	C	1.318063	0.564607	0.565050
C35	C	1.400611	0.564625	0.565079
C36	C	1.110591	0.233491	0.590380
C37	C	1.104727	0.092407	0.601203
C38	C	1.110590	0.589908	0.235188
C39	C	1.104815	0.600432	0.094126
H40	H	0.571702	0.637991	0.346786
H41	H	1.182214	1.094581	0.458823
H42	H	0.677514	0.782756	0.490817
H43	H	1.182280	0.457939	1.096337
C44	C	0.586627	0.731682	0.731267
C45	C	0.651652	0.787362	0.785081
C46	C	0.632750	0.869023	0.866256
H47	H	0.558536	0.684843	0.796734
H48	H	0.557794	0.796165	0.684349
H49	H	0.680473	0.722888	0.831997
H50	H	0.679752	0.834223	0.719645
H51	H	0.603918	0.933506	0.819338
H52	H	0.604658	0.822175	0.931715
H53	H	0.676866	0.906821	0.902769
C54	C	0.663048	0.397876	0.398518
C55	C	0.598120	0.343822	0.342769
C56	C	0.617195	0.262495	0.261393
H57	H	0.691183	0.332540	0.445577
H58	H	0.691887	0.444724	0.334054
H59	H	0.569293	0.296976	0.407224
H60	H	0.569977	0.409128	0.295687
H61	H	0.646034	0.309342	0.196929
H62	H	0.645331	0.197166	0.308462
H63	H	0.573146	0.225818	0.223549
C64	C	0.685977	0.479656	0.816404
C65	C	0.657302	0.355849	0.857873
C66	C	0.687652	0.314190	0.980580
H67	H	0.673385	0.534362	0.872345
H68	H	0.738612	0.480652	0.815564
H69	H	0.604679	0.354861	0.858722
H70	H	0.669892	0.301114	0.801966
H71	H	0.740287	0.315186	0.979740
H72	H	0.675059	0.368904	1.036509
H73	H	0.668206	0.230179	1.008727
H74	H	1.066535	1.033262	0.671310
H75	H	1.066656	0.670645	1.034957
C76	C	0.563476	0.313292	0.650156
C77	C	0.486031	0.315274	0.650643
C78	C	0.455571	0.192644	0.692152
H79	H	0.583534	0.284380	0.733605
H80	H	0.575281	0.257676	0.594511
H81	H	0.474233	0.370871	0.706287
H82	H	0.465954	0.344163	0.567208
H83	H	0.467375	0.137027	0.636508
H84	H	0.475634	0.163742	0.775599
H85	H	0.403021	0.193970	0.692478
