data_functionalizedCrystal
_audit_creation_method	'MofGen! by Chris Wilmer'
_symmetry_space_group_name_H-M	'P1'
_symmetry_Int_Tables_number	1
_symmetry_cell_setting	triclinic
loop_
_symmetry_equiv_pos_as_xyz
  x,y,z
_cell_length_a	17.699083
_cell_length_b	9.065218
_cell_length_c	7.540329
_cell_angle_alpha	89.998312
_cell_angle_beta	90.004073
_cell_angle_gamma	95.850550
loop_
_atom_site_label
_atom_site_type_symbol
_atom_site_fract_x
_atom_site_fract_y
_atom_site_fract_z
O1	O	0.110973	-1.957107	0.147491
O2	O	0.120075	-1.527552	0.147494
O3	O	0.005429	-1.754466	0.147477
O4	O	0.225618	-1.730194	0.147508
O5	O	0.005428	-1.754458	-0.147488
O6	O	0.120074	-1.527544	-0.147471
O7	O	0.110972	-1.957099	-0.147474
Cu8	Cu	0.115523	-1.742321	-0.174405
Cu9	Cu	0.115524	-1.742330	0.174425
O10	O	0.225617	-1.730186	-0.147457
C11	C	0.119200	-1.472588	0.000012
C12	C	0.116584	-1.308822	0.000012
C13	C	-0.022775	-1.753592	-0.000006
C14	C	-0.106813	-1.750983	-0.000007
N15	N	0.115522	-1.742325	-0.419754
C16	C	-0.154396	-1.884176	-0.000010
C17	C	-0.233358	-1.881716	0.000006
C18	C	-0.264737	-1.746060	0.000012
C19	C	-0.217149	-1.612857	0.000021
C20	C	-0.138188	-1.615319	0.000018
C21	C	-0.535589	-1.602925	0.000035
C22	C	-0.614556	-1.600474	0.000033
C23	C	-0.630760	-1.869322	0.000023
C24	C	-0.551799	-1.871784	0.000020
C25	C	-0.504217	-1.738581	0.000038
C26	C	-0.418597	-1.741251	0.000025
C27	C	-0.350355	-1.743390	0.000013
C28	C	0.253822	-1.731059	0.000030
C29	C	0.337860	-1.733669	0.000042
C30	C	0.111847	-2.012064	0.000012
C31	C	0.114463	-2.175829	0.000023
N32	N	0.115519	-1.742338	0.419774
H33	H	-0.128854	-1.994642	-0.000026
H34	H	-0.640101	-1.490001	0.000035
H35	H	-0.242703	-1.502404	0.000037
C36	C	-0.285699	-2.028224	0.000020
H37	H	-0.337219	-2.007334	0.000051
H38	H	-0.276098	-2.083868	-0.102838
H39	H	-0.276077	-2.083852	0.102896
H40	H	-0.496857	-1.494463	0.000050
H41	H	-0.099446	-1.506859	0.000021
H42	H	-0.526255	-1.982248	0.000006
H43	H	-0.669510	-1.977782	0.000018
