data_functionalizedCrystal
_audit_creation_method	'MofGen! by Chris Wilmer'
_symmetry_space_group_name_H-M	'P1'
_symmetry_Int_Tables_number	1
_symmetry_cell_setting	triclinic
loop_
_symmetry_equiv_pos_as_xyz
  x,y,z
_cell_length_a	13.032831
_cell_length_b	14.908178
_cell_length_c	13.032268
_cell_angle_alpha	86.549870
_cell_angle_beta	89.113023
_cell_angle_gamma	85.691885
loop_
_atom_site_label
_atom_site_type_symbol
_atom_site_fract_x
_atom_site_fract_y
_atom_site_fract_z
Zn1	Zn	1.463993	-0.600635	0.736261
Zn2	Zn	1.963993	-0.100635	1.236261
Zn3	Zn	1.478127	-0.733146	0.554448
Zn4	Zn	1.978127	-0.233146	1.054448
Zn5	Zn	1.315984	-0.563482	0.545260
Zn6	Zn	1.815984	-0.063482	1.045260
Zn7	Zn	1.284651	-0.728337	0.704930
Zn8	Zn	1.784651	-0.228337	1.204930
O9	O	1.385689	-0.656400	0.635225
O10	O	1.885689	-0.156400	1.135225
O11	O	1.608780	-0.635774	0.729101
O12	O	2.108780	-0.135774	1.229101
O13	O	1.475646	-0.697103	0.410317
O14	O	1.975646	-0.197103	0.910317
O15	O	1.342816	-0.443962	0.579863
O16	O	1.842816	0.056038	1.079863
O17	O	1.619164	-0.733129	0.595523
O18	O	2.119164	-0.233129	1.095523
O19	O	1.451557	-0.471258	0.720192
O20	O	1.951557	0.028742	1.220192
O21	O	1.356521	-0.572452	0.403566
O22	O	1.856521	-0.072452	0.903566
O23	O	1.168916	-0.567789	0.549482
O24	O	1.668916	-0.067789	1.049482
O25	O	1.289413	-0.724934	0.851998
O26	O	1.789413	-0.224934	1.351998
O27	O	1.145895	-0.688907	0.666791
O28	O	1.645895	-0.188907	1.166791
O29	O	1.421174	-0.631112	0.875017
O30	O	1.921174	-0.131112	1.375017
O31	O	1.445264	-0.856957	0.565142
O32	O	1.945264	-0.356957	1.065142
O33	O	1.303118	-0.853424	0.675701
O34	O	1.803118	-0.353424	1.175701
C35	C	1.120350	-0.623795	0.603741
C36	C	1.620350	-0.123795	1.103741
C37	C	1.006832	-0.609871	0.590294
C38	C	1.506832	-0.109871	1.090294
C39	C	1.372349	-0.887464	0.618044
C40	C	1.872349	-0.387464	1.118044
C41	C	1.366731	-0.986328	0.610740
C42	C	1.866731	-0.486328	1.110740
C43	C	0.944867	-0.663668	0.642242
C44	C	1.444867	-0.163668	1.142242
C45	C	0.827540	-0.649277	0.628346
C46	C	1.327540	-0.149277	1.128346
C47	C	1.469289	-1.200381	0.743266
C48	C	1.969289	-0.700381	1.243266
C49	C	1.464014	-1.293274	0.736406
C50	C	1.964014	-0.793274	1.236406
C51	C	1.350900	-1.265009	0.590167
C52	C	1.850900	-0.765009	1.090167
C53	C	1.356175	-1.172116	0.597026
C54	C	1.856175	-0.672116	1.097026
C55	C	1.415373	-1.139806	0.673577
C56	C	1.915373	-0.639806	1.173577
C57	C	1.420654	-1.046911	0.680431
C58	C	1.920654	-0.546911	1.180431
C59	C	1.307535	-1.018648	0.534197
C60	C	1.807535	-0.518648	1.034197
C61	C	1.302259	-1.111541	0.527338
C62	C	1.802259	-0.611541	1.027338
C63	C	1.652064	-0.689133	0.666832
C64	C	2.152064	-0.189133	1.166832
C65	C	1.765577	-0.703081	0.680301
C66	C	2.265577	-0.203081	1.180301
C67	C	1.350222	-0.681631	0.901599
C68	C	1.850222	-0.181631	1.401599
C69	C	1.335108	-0.692382	1.015112
C70	C	1.835108	-0.192382	1.515112
C71	C	1.399105	-0.424440	0.652498
C72	C	1.899105	0.075560	1.152498
C73	C	1.404822	-0.325592	0.659858
C74	C	1.904822	0.174408	1.159858
C75	C	1.421080	-0.631211	0.369898
C76	C	1.921080	-0.131211	0.869898
C77	C	1.436406	-0.620233	0.256427
C78	C	1.936406	-0.120233	0.756427
C79	C	1.393563	-0.650755	1.077110
C80	C	1.893563	-0.150755	1.577110
C81	C	1.377943	-0.661866	1.194432
C82	C	1.877943	-0.161866	1.694432
H83	H	0.793735	-0.592559	0.573584
H84	H	1.293735	-0.092559	1.073584
O85	O	1.296320	-0.719968	1.239159
O86	O	1.796320	-0.219968	1.739159
H87	H	1.312488	-0.789999	1.215620
H88	H	1.812488	-0.289999	1.715620
H89	H	1.302699	-1.291333	0.527847
H90	H	1.802699	-0.791333	1.027847
H91	H	1.468859	-1.020606	0.742761
H92	H	1.968859	-0.520606	1.242761
H93	H	0.973022	-0.553156	0.535536
H94	H	1.473022	-0.053156	1.035536
H95	H	1.498014	-0.576359	1.222654
H96	H	1.998014	-0.076359	1.722654
H97	H	0.978677	-0.720376	0.697008
H98	H	1.478677	-0.220376	1.197008
O99	O	1.238430	-1.146391	0.444760
O100	O	1.738430	-0.646391	0.944760
H101	H	1.243828	-1.221163	0.451688
H102	H	1.743828	-0.721163	0.951688
H103	H	1.455168	-0.606886	1.043331
H104	H	1.955168	-0.106886	1.543331
H105	H	1.273493	-0.736241	1.048891
H106	H	1.773493	-0.236241	1.548891
O107	O	1.249372	-0.953315	0.459027
O108	O	1.749372	-0.453315	0.959027
H109	H	1.262979	-0.883291	0.476658
H110	H	1.762979	-0.383291	0.976658
H111	H	1.517499	-1.174074	0.805590
H112	H	2.017499	-0.674074	1.305590
H113	H	0.799380	-0.759792	0.735074
H114	H	1.299380	-0.259792	1.235074
H115	H	1.507912	-1.342592	0.793158
H116	H	2.007912	-0.842592	1.293158
