data_functionalizedCrystal
_audit_creation_method	'MofGen! by Chris Wilmer'
_symmetry_space_group_name_H-M	'P1'
_symmetry_Int_Tables_number	1
_symmetry_cell_setting	triclinic
loop_
_symmetry_equiv_pos_as_xyz
  x,y,z
_cell_length_a	19.288859
_cell_length_b	19.188930
_cell_length_c	18.266242
_cell_angle_alpha	89.989745
_cell_angle_beta	89.990190
_cell_angle_gamma	83.139253
loop_
_atom_site_label
_atom_site_type_symbol
_atom_site_fract_x
_atom_site_fract_y
_atom_site_fract_z
O1	O	0.921362	0.087077	-0.060904
O2	O	0.719102	0.098831	-0.060903
O3	O	0.826069	-0.008702	-0.060889
O4	O	0.814395	0.194611	-0.060917
O5	O	0.826050	-0.008705	0.060873
O6	O	0.719083	0.098828	0.060859
O7	O	0.921344	0.087074	0.060858
Zn8	Zn	0.820211	0.092951	0.080191
Zn9	Zn	0.820235	0.092955	-0.080236
O10	O	0.814377	0.194608	0.060844
C11	C	0.693216	0.098453	-0.000022
C12	C	0.616112	0.097319	-0.000021
C13	C	0.052076	0.152749	-0.000030
C14	C	0.124522	0.153820	-0.000034
C15	C	0.169224	0.090725	-0.000023
C16	C	0.141474	0.026553	-0.000028
C17	C	0.069029	0.025484	-0.000031
C18	C	0.290485	0.043667	0.042645
C19	C	0.362928	0.044739	0.042652
C20	C	0.392670	0.094019	-0.000016
C21	C	0.349958	0.142240	-0.042684
C22	C	0.277513	0.141171	-0.042687
C23	C	0.247780	0.091877	-0.000020
C24	C	0.498967	0.159347	-0.000021
C25	C	0.571415	0.160416	-0.000030
C26	C	0.588366	0.033147	-0.000017
C27	C	0.515919	0.032081	-0.000016
C28	C	0.471223	0.095183	-0.000014
C29	C	0.825681	-0.034714	-0.000006
C30	C	0.824547	-0.112219	0.000000
C31	C	0.887311	-0.157149	0.000004
C32	C	0.886245	-0.229972	-0.000008
C33	C	0.822411	-0.257863	-0.000008
C34	C	0.759638	-0.212923	-0.000016
C35	C	0.760706	-0.140101	-0.000011
N36	N	0.773611	-0.365864	0.041430
N37	N	0.772601	-0.435042	0.041427
C38	C	0.819189	-0.477271	-0.000023
N39	N	0.866837	-0.447709	-0.041461
N40	N	0.867849	-0.378525	-0.041456
C41	C	0.821246	-0.336825	-0.000014
C42	C	0.880803	-0.601165	-0.000034
C43	C	0.879734	-0.673990	-0.000050
C44	C	0.753125	-0.656939	-0.000050
C45	C	0.754195	-0.584116	-0.000041
C46	C	0.818036	-0.556234	-0.000029
C47	C	0.947229	0.087453	-0.000024
C48	C	1.024333	0.088587	-0.000030
C49	C	0.814764	0.220620	-0.000040
C50	C	0.815899	0.298125	-0.000051
N51	N	0.820199	0.092948	0.189678
N52	N	0.820251	0.092953	-0.189722
C53	C	0.862190	0.135189	0.227974
C54	C	0.862202	0.135187	0.304619
C55	C	0.820210	0.092952	0.342965
C56	C	0.778216	0.050702	0.304659
C57	C	0.778211	0.050700	0.228016
N58	N	0.759378	0.091238	0.463318
N59	N	0.759384	0.091244	0.536126
C60	C	0.820223	0.092955	0.573887
N61	N	0.881056	0.094673	0.536090
N62	N	0.881048	0.094671	0.463275
C63	C	0.820211	0.092949	0.426072
C64	C	0.862230	0.135196	0.695291
C65	C	0.862243	0.135189	0.771937
C66	C	0.778251	0.050708	0.771976
C67	C	0.778244	0.050711	0.695331
C68	C	0.820233	0.092959	0.656993
H69	H	0.624762	-0.018227	-0.000014
O70	O	0.382023	0.195400	-0.088708
H71	H	0.369080	0.187996	-0.147182
H72	H	0.896442	0.169585	0.803117
O73	O	0.949658	-0.571090	-0.000035
H74	H	0.953173	-0.538337	0.049599
O75	O	0.684273	-0.687012	-0.000052
H76	H	0.654115	-0.668953	0.049575
O77	O	0.956165	-0.127073	-0.000004
H78	H	0.999630	-0.170556	-0.000014
H79	H	0.896384	0.169588	0.196764
O80	O	0.907487	0.180755	0.345939
H81	H	0.936679	0.210135	0.306404
H82	H	0.594000	0.212667	-0.000036
O83	O	0.732983	0.005130	0.813328
H84	H	0.703791	-0.024254	0.773817
O85	O	0.907516	0.180759	0.653933
H86	H	0.944940	0.147192	0.619002
O87	O	0.686494	-0.535655	-0.000031
H88	H	0.683953	-0.502062	-0.049659
H89	H	0.266276	0.003534	0.077392
O90	O	0.732944	0.005160	0.654018
H91	H	0.703740	-0.024205	0.693556
O92	O	0.450751	0.227402	-0.000032
H93	H	0.482217	0.272201	-0.000046
H94	H	0.744026	0.016313	0.335885
H95	H	0.709593	-0.103518	-0.000014
H96	H	0.744015	0.016301	0.196835
H97	H	0.493332	-0.020168	-0.000012
O98	O	0.003868	0.220807	-0.000031
H99	H	0.013715	0.251528	-0.049663
H100	H	0.147114	0.206071	-0.000026
H101	H	0.937357	-0.266561	-0.000008
H102	H	0.397699	0.005478	0.077398
O103	O	0.231445	0.193178	-0.088701
H104	H	0.246313	0.186180	-0.147178
O105	O	0.189683	-0.041502	-0.000009
H106	H	0.244720	-0.029980	0.000003
H107	H	0.930847	-0.710572	-0.000051
O108	O	0.690788	-0.243002	-0.000006
H109	H	0.687281	-0.275770	-0.049631
O110	O	0.039100	-0.043722	-0.000020
H111	H	0.082352	-0.087419	-0.000008
