data_functionalizedCrystal
_audit_creation_method	'MofGen! by Chris Wilmer'
_symmetry_space_group_name_H-M	'P1'
_symmetry_Int_Tables_number	1
_symmetry_cell_setting	triclinic
loop_
_symmetry_equiv_pos_as_xyz
  x,y,z
_cell_length_a	10.540539
_cell_length_b	10.540539
_cell_length_c	9.016244
_cell_angle_alpha	90.000067
_cell_angle_beta	89.994699
_cell_angle_gamma	95.474508
loop_
_atom_site_label
_atom_site_type_symbol
_atom_site_fract_x
_atom_site_fract_y
_atom_site_fract_z
O1	O	1.685893	-0.178895	-0.123263
O2	O	1.316480	-0.195751	-0.123280
O3	O	1.509614	-0.002617	-0.123269
O4	O	1.492759	-0.372030	-0.123274
O5	O	1.509586	-0.002621	0.123411
O6	O	1.316452	-0.195755	0.123400
O7	O	1.685865	-0.178900	0.123418
Cu8	Cu	1.501156	-0.187328	0.145933
Cu9	Cu	1.501189	-0.187323	-0.145795
O10	O	1.492730	-0.372034	0.123407
C11	C	1.269163	-0.194489	0.000058
C12	C	1.128215	-0.190707	0.000051
C13	C	0.944788	-0.045790	0.000628
C14	C	1.091406	-0.049624	0.000057
C15	C	1.066558	-0.258600	-0.140811
C16	C	0.920014	-0.253785	-0.140914
C17	C	0.919493	-0.256660	0.139608
C18	C	1.066475	-0.257960	0.141455
C19	C	1.508336	0.044684	0.000068
C20	C	1.504554	0.185632	0.000060
C21	C	1.733182	-0.180161	0.000077
C22	C	1.874130	-0.183943	0.000074
C23	C	1.494008	-0.419335	0.000066
C24	C	1.497790	-0.560283	0.000064
N25	N	1.501141	-0.187331	0.351119
C26	C	1.359637	0.369059	-0.000500
C27	C	1.363471	0.222441	0.000055
C28	C	1.572434	0.247287	0.140930
C29	C	1.567619	0.393832	0.141049
C30	C	1.570520	0.394355	-0.139473
C31	C	1.571820	0.247373	-0.141336
N32	N	1.501213	-0.187310	-0.350982
C33	C	1.397510	-0.290298	0.586146
C34	C	1.397739	-0.290684	0.414255
C35	C	1.633864	-0.217464	0.413464
C36	C	1.633298	-0.218193	0.585409
C37	C	1.473367	-0.053892	0.585663
C38	C	1.470322	-0.054757	0.413709
H39	H	1.109159	-0.211434	-0.245643
H40	H	1.669083	0.441800	0.147444
F41	F	1.098131	-0.392408	0.152569
H42	H	0.891816	-0.203602	-0.246209
F43	F	1.420612	-0.418951	0.642577
F44	F	1.707856	0.218072	0.147788
H45	H	0.887935	-0.211004	0.246381
H46	H	1.517429	0.422030	0.246347
H47	H	0.916191	0.009944	0.101649
F48	F	1.119873	-0.193028	0.277663
F49	F	1.342701	-0.024900	0.360453
F50	F	1.703715	0.456084	-0.140709
F51	F	1.286803	0.406440	-0.132543
H52	H	0.872266	-0.358564	0.140559
F53	F	1.510773	0.191609	0.277949
H54	H	1.674681	0.223152	-0.149837
F55	F	1.286883	0.408968	0.130434
H56	H	1.310059	0.179839	-0.100926
F57	F	1.737198	-0.122095	0.360012
H58	H	0.872045	-0.355250	-0.147309
H59	H	1.309661	0.180683	0.101200
H60	H	1.524871	0.425910	-0.246244
H61	H	1.522153	0.206517	-0.245547
H62	H	1.088912	-0.362208	-0.146054
F63	F	1.268199	-0.266950	0.640215
F64	F	1.268823	-0.267050	0.359159
H65	H	1.415639	-0.389668	0.373108
F66	F	1.665130	-0.345420	0.637812
H67	H	1.712941	-0.146204	0.626995
H68	H	1.658762	-0.313702	0.370386
F69	F	1.349517	-0.016425	0.642403
F70	F	1.562515	0.050230	0.357558
H71	H	1.134008	0.003797	0.101034
F72	F	0.905314	0.026763	-0.130666
F73	F	1.145956	0.020413	-0.132361
F74	F	1.572195	0.046302	0.638803
