data_functionalizedCrystal
_audit_creation_method	'MofGen! by Chris Wilmer'
_symmetry_space_group_name_H-M	'P1'
_symmetry_Int_Tables_number	1
_symmetry_cell_setting	triclinic
loop_
_symmetry_equiv_pos_as_xyz
  x,y,z
_cell_length_a	15.944493
_cell_length_b	10.489741
_cell_length_c	9.565339
_cell_angle_alpha	89.999484
_cell_angle_beta	89.997013
_cell_angle_gamma	95.992891
loop_
_atom_site_label
_atom_site_type_symbol
_atom_site_fract_x
_atom_site_fract_y
_atom_site_fract_z
O1	O	1.115541	-0.164141	-0.116241
O2	O	0.871107	-0.184500	-0.116247
O3	O	0.998886	0.011356	-0.116236
O4	O	0.987762	-0.359997	-0.116252
O5	O	0.998876	0.011344	0.116285
O6	O	0.871097	-0.184512	0.116273
O7	O	1.115531	-0.164153	0.116279
Zn8	Zn	0.993312	-0.174335	0.153194
Zn9	Zn	0.993326	-0.174319	-0.153162
O10	O	0.987752	-0.360009	0.116268
C11	C	0.839802	-0.183674	0.000012
C12	C	0.746538	-0.181179	0.000009
C13	C	0.511472	-0.296465	0.000003
C14	C	0.460535	-0.234302	0.114657
C15	C	0.575790	-0.176557	0.000012
C16	C	0.460549	-0.234261	-0.114590
C17	C	0.410853	-0.172101	0.000009
C18	C	0.526081	-0.114426	0.114760
C19	C	0.526099	-0.114403	-0.114589
C20	C	0.475194	-0.052153	0.000092
C21	C	0.670805	-0.179127	0.000015
C22	C	0.315841	-0.169521	0.000016
C23	C	0.998041	0.058870	0.000024
C24	C	0.995527	0.200464	0.000021
C25	C	1.146836	-0.164979	0.000017
C26	C	1.240099	-0.167474	0.000010
C27	C	0.988597	-0.407523	0.000005
C28	C	0.991111	-0.549117	-0.000001
N29	N	0.993309	-0.174345	0.362273
C30	C	0.914225	0.267451	0.000009
C31	C	0.952626	0.360112	0.114654
C32	C	0.952656	0.360099	-0.114592
C33	C	1.033962	0.291260	0.114761
C34	C	1.033980	0.291237	-0.114588
C35	C	1.072440	0.383872	0.000085
N36	N	0.993335	-0.174298	-0.362241
C37	C	0.934198	-0.264892	0.453471
C38	C	1.010253	-0.289624	0.546650
C39	C	0.917287	-0.149623	0.546649
C40	C	1.069403	-0.199134	0.453401
C41	C	0.976387	-0.059083	0.453391
C42	C	1.052497	-0.083766	0.546529
H43	H	0.431919	-0.284919	-0.211507
H44	H	0.918249	0.390580	-0.211526
H45	H	1.068355	0.260685	-0.211516
O46	O	1.152314	0.443757	0.000233
C47	C	1.300917	0.419337	0.001470
C48	C	1.210505	0.351363	0.001320
H49	H	1.347989	0.344667	0.002319
H50	H	1.310673	0.482442	0.098352
H51	H	1.311021	0.481241	-0.096261
H52	H	1.200338	0.289393	0.098985
H53	H	1.200792	0.288336	-0.095627
O54	O	0.874708	-0.356485	0.404773
C55	C	0.825354	-0.581469	0.397115
C56	C	0.892786	-0.477873	0.452334
H57	H	0.839936	-0.679632	0.435569
H58	H	0.825492	-0.580133	0.277939
H59	H	0.760672	-0.561314	0.437038
H60	H	0.957501	-0.497957	0.412514
H61	H	0.892574	-0.479234	0.571508
H62	H	0.554600	-0.063823	0.211787
O63	O	1.027372	-0.405787	0.595772
C64	C	1.047211	-0.535541	0.798598
C65	C	1.027846	-0.403915	0.743162
H66	H	1.047582	-0.534079	0.917769
H67	H	1.111565	-0.557385	0.758752
H68	H	0.996757	-0.612641	0.760298
H69	H	1.078246	-0.326730	0.781439
H70	H	0.963467	-0.382180	0.782997
H71	H	0.431897	-0.284946	0.211581
H72	H	0.527716	-0.399752	0.000106
H73	H	1.133719	-0.220141	0.412614
H74	H	0.962033	0.038340	0.412395
H75	H	0.459107	0.051213	0.000163
H76	H	1.102552	-0.007169	0.587132
H77	H	0.554745	-0.063798	-0.211519
O78	O	1.074878	0.255201	0.230671
C79	C	1.078601	0.250020	0.482433
C80	C	1.032198	0.290956	0.351285
H81	H	1.044104	0.278887	0.579982
H82	H	1.145842	0.299150	0.482945
H83	H	1.080182	0.141621	0.481452
H84	H	1.030553	0.399339	0.352179
H85	H	0.964982	0.241734	0.350823
O86	O	0.834466	0.207135	0.000383
C87	C	0.701514	0.173664	0.121634
C88	C	0.791820	0.242030	0.121393
H89	H	0.667003	0.201872	0.219445
H90	H	0.704126	0.065472	0.120727
H91	H	0.666539	0.203106	0.024838
H92	H	0.826848	0.212693	0.218173
H93	H	0.789148	0.350208	0.122228
O94	O	0.840509	-0.124842	0.595343
C95	C	0.691427	-0.192392	0.603344
C96	C	0.778324	-0.220578	0.548088
H97	H	0.641130	-0.269792	0.565185
H98	H	0.676438	-0.094933	0.563340
H99	H	0.692394	-0.191625	0.722514
H100	H	0.777422	-0.221413	0.428922
H101	H	0.793279	-0.318017	0.588199
H102	H	0.918221	0.390631	0.211577
