data_functionalizedCrystal
_audit_creation_method	'MofGen! by Chris Wilmer'
_symmetry_space_group_name_H-M	'P1'
_symmetry_Int_Tables_number	1
_symmetry_cell_setting	triclinic
loop_
_symmetry_equiv_pos_as_xyz
  x,y,z
_cell_length_a	18.215407
_cell_length_b	16.120444
_cell_length_c	18.215399
_cell_angle_alpha	92.870532
_cell_angle_beta	89.982632
_cell_angle_gamma	92.923925
loop_
_atom_site_label
_atom_site_type_symbol
_atom_site_fract_x
_atom_site_fract_y
_atom_site_fract_z
Zn1	Zn	1.110204	-0.331974	-0.430919
Zn2	Zn	1.103869	-0.471396	-0.314090
Zn3	Zn	0.987136	-0.331994	-0.307872
Zn4	Zn	0.980861	-0.471342	-0.437118
O5	O	1.045517	-0.401676	-0.372500
O6	O	1.212347	-0.350483	-0.415429
O7	O	1.088358	-0.452934	-0.210282
O8	O	1.008739	-0.215325	-0.318999
O9	O	1.207693	-0.452915	-0.329595
O10	O	1.099157	-0.215310	-0.409400
O11	O	1.002595	-0.350517	-0.205714
O12	O	0.883320	-0.350464	-0.325009
O13	O	0.998044	-0.452824	-0.539278
O14	O	0.878710	-0.452843	-0.419965
O15	O	1.093072	-0.350430	-0.534724
O16	O	1.082274	-0.588055	-0.335606
O17	O	0.991901	-0.588015	-0.425994
C18	C	0.854312	-0.401651	-0.372486
C19	C	0.772513	-0.401660	-0.372498
C20	C	0.586737	-0.348433	-0.417271
C21	C	0.509878	-0.348440	-0.417274
C22	C	0.505049	-0.454943	-0.327742
C23	C	0.581907	-0.454931	-0.327736
C24	C	0.622749	-0.401677	-0.372505
C25	C	0.469032	-0.401696	-0.372514
C26	C	0.385698	-0.401704	-0.372516
C27	C	0.706088	-0.401668	-0.372501
C28	C	1.035739	-0.618285	-0.382163
C29	C	1.031623	-0.710951	-0.386322
C30	C	1.067050	-0.921893	-0.351084
C31	C	1.024121	-0.880608	-0.393923
C32	C	1.028296	-0.786202	-0.389692
C33	C	1.062876	-1.016308	-0.355314
C34	C	1.237469	-0.401703	-0.372514
C35	C	1.319267	-0.401714	-0.372520
C36	C	1.045565	-0.401619	-0.564450
C37	C	1.045585	-0.401594	-0.646248
C38	C	1.055354	-0.184222	-0.362814
C39	C	1.059546	-0.091555	-0.358687
C40	C	1.095085	-0.348228	-0.832070
C41	C	1.095095	-0.348204	-0.908927
C42	C	0.996143	-0.454831	-0.913659
C43	C	0.996130	-0.454851	-0.836802
C44	C	1.045605	-0.401551	-0.796010
C45	C	1.045628	-0.401507	-0.949724
C46	C	1.045638	-0.401481	-1.033056
C47	C	1.045594	-0.401575	-0.712672
C48	C	1.045515	-0.401673	-0.181293
C49	C	1.045648	-0.401463	-0.099485
H50	H	0.480561	-0.305082	-0.453726
Cl51	Cl	1.128628	-0.867001	-0.289557
H52	H	0.471786	-0.498301	-0.291294
H53	H	0.984234	-0.916164	-0.433775
H54	H	0.955832	-0.498271	-0.807441
H55	H	1.135369	-0.304826	-0.798858
H56	H	0.611228	-0.498290	-0.291278
H57	H	1.135386	-0.304782	-0.938284
H58	H	0.619988	-0.305068	-0.453722
Cl59	Cl	0.933952	-0.521838	-0.964946
