data_functionalizedCrystal
_audit_creation_method	'MofGen! by Chris Wilmer'
_symmetry_space_group_name_H-M	'P1'
_symmetry_Int_Tables_number	1
_symmetry_cell_setting	triclinic
loop_
_symmetry_equiv_pos_as_xyz
  x,y,z
_cell_length_a	16.109301
_cell_length_b	16.109301
_cell_length_c	7.540329
_cell_angle_alpha	89.994987
_cell_angle_beta	89.999760
_cell_angle_gamma	83.461481
loop_
_atom_site_label
_atom_site_type_symbol
_atom_site_fract_x
_atom_site_fract_y
_atom_site_fract_z
O1	O	1.103130	0.106866	-0.147376
O2	O	1.436463	0.440199	0.185957
O3	O	1.769797	0.773533	0.519291
O4	O	0.861068	0.120165	-0.147405
O5	O	1.194402	0.453499	0.185928
O6	O	1.527735	0.786832	0.519262
O7	O	0.988749	-0.007515	-0.147372
O8	O	1.322082	0.325818	0.185962
O9	O	1.655415	0.659151	0.519295
O10	O	0.975450	0.234547	-0.147409
O11	O	1.308783	0.567880	0.185924
O12	O	1.642116	0.901213	0.519257
O13	O	0.988741	-0.007517	0.147594
O14	O	1.322075	0.325816	0.480927
O15	O	1.655408	0.659150	0.814260
O16	O	0.861061	0.120164	0.147560
O17	O	1.194394	0.453497	0.480894
O18	O	1.527727	0.786830	0.814227
O19	O	1.103123	0.106864	0.147589
O20	O	1.436456	0.440198	0.480922
O21	O	1.769789	0.773531	0.814256
Cu22	Cu	0.982091	0.113514	0.174507
Cu23	Cu	1.315424	0.446847	0.507841
Cu24	Cu	1.648758	0.780181	0.841174
Cu25	Cu	0.982100	0.113516	-0.174323
Cu26	Cu	1.315433	0.446849	0.159010
Cu27	Cu	1.648767	0.780182	0.492344
O28	O	0.975442	0.234545	0.147556
O29	O	1.308775	0.567878	0.480889
O30	O	1.642109	0.901212	0.814222
C31	C	0.830090	0.119626	0.000074
C32	C	1.163423	0.452959	0.333408
C33	C	1.496756	0.786292	0.666741
C34	C	0.737794	0.118011	0.000064
C35	C	1.071128	0.451344	0.333397
C36	C	1.404461	0.784677	0.666730
C37	C	0.515522	0.190018	0.000073
C38	C	0.848855	0.523352	0.333406
C39	C	1.182188	0.856685	0.666740
C40	C	0.428801	0.188494	0.000085
C41	C	0.762135	0.521828	0.333418
C42	C	1.095468	0.855161	0.666751
C43	C	0.448676	0.037006	0.000101
C44	C	0.782009	0.370339	0.333434
C45	C	1.115342	0.703672	0.666768
C46	C	0.535394	0.038530	0.000102
C47	C	0.868728	0.371864	0.333435
C48	C	1.202061	0.705197	0.666769
C49	C	0.568815	0.115039	0.000079
C50	C	0.902148	0.448373	0.333412
C51	C	1.235482	0.781706	0.666746
C52	C	0.395376	0.111990	0.000090
C53	C	0.728709	0.445324	0.333423
C54	C	1.062042	0.778657	0.666756
C55	C	0.301350	0.110337	0.000102
C56	C	0.634683	0.443671	0.333436
C57	C	0.968016	0.777004	0.666769
C58	C	0.662847	0.116693	0.000070
C59	C	0.996180	0.450026	0.333403
C60	C	1.329514	0.783359	0.666736
C61	C	0.988206	-0.038491	0.000112
C62	C	1.321540	0.294842	0.333445
C63	C	1.654873	0.628176	0.666778
C64	C	0.986591	-0.130786	0.000114
C65	C	1.319925	0.202547	0.333448
C66	C	1.653258	0.535880	0.666781
C67	C	1.058599	-0.353059	0.000095
C68	C	1.391932	-0.019725	0.333428
C69	C	1.725266	0.313608	0.666761
C70	C	1.057075	-0.439779	0.000080
C71	C	1.390408	-0.106446	0.333413
C72	C	1.723742	0.226888	0.666747
C73	C	0.905586	-0.419905	0.000069
C74	C	1.238919	-0.086571	0.333402
C75	C	1.572253	0.246762	0.666735
C76	C	0.907111	-0.333186	0.000071
C77	C	1.240444	0.000147	0.333404
C78	C	1.573778	0.333481	0.666738
C79	C	0.983620	-0.299766	0.000093
C80	C	1.316953	0.033568	0.333426
C81	C	1.650287	0.366901	0.666759
C82	C	0.980571	-0.473205	0.000076
C83	C	1.313904	-0.139871	0.333409
C84	C	1.647238	0.193462	0.666743
C85	C	0.978918	-0.567231	0.000060
C86	C	1.312251	-0.233897	0.333393
C87	C	1.645585	0.099436	0.666727
C88	C	0.985273	-0.205734	0.000105
C89	C	1.318607	0.127600	0.333439
C90	C	1.651940	0.460933	0.666772
C91	C	1.134101	0.107404	0.000106
C92	C	1.467435	0.440737	0.333439
C93	C	1.800768	0.774071	0.666773
C94	C	1.226397	0.109019	0.000105
C95	C	1.559730	0.442352	0.333438
C96	C	1.893063	0.775686	0.666772
C97	C	0.975984	0.265521	0.000069
C98	C	1.309318	0.598854	0.333402
C99	C	1.642651	0.932187	0.666735
C100	C	0.977600	0.357816	0.000055
C101	C	1.310933	0.691149	0.333388
C102	C	1.644266	1.024483	0.666721
N103	N	0.982091	0.113512	0.419856
N104	N	1.315424	0.446845	0.753189
N105	N	1.648757	0.780179	1.086522
N106	N	0.982107	0.113511	-0.419672
N107	N	1.315440	0.446844	-0.086338
N108	N	1.648773	0.780178	0.246995
H109	H	0.385413	0.249550	0.000083
H110	H	0.718746	0.582883	0.333417
H111	H	1.052080	0.916217	0.666750
H112	H	1.118130	-0.483168	0.000078
H113	H	1.451464	-0.149834	0.333411
H114	H	1.784797	0.183499	0.666744
O115	O	0.416071	-0.037239	0.000030
O116	O	0.749404	0.296095	0.333363
O117	O	1.082737	0.629428	0.666697
C118	C	0.328102	-0.022509	0.000067
C119	C	0.661436	0.310824	0.333401
C120	C	0.994769	0.644158	0.666734
H121	H	0.307719	0.042379	-0.055781
H122	H	0.641052	0.375712	0.277553
H123	H	0.974385	0.709046	0.610886
H124	H	0.301492	-0.071460	-0.085567
H125	H	0.634826	0.261874	0.247766
H126	H	0.968159	0.595207	0.581099
H127	H	0.303963	-0.026536	0.141576
H128	H	0.637296	0.306798	0.474909
H129	H	0.970629	0.640131	0.808243
O130	O	0.831342	-0.452510	0.000143
O131	O	1.164675	-0.119176	0.333476
O132	O	1.498008	0.214157	0.666810
C133	C	0.846072	-0.540478	0.000103
C134	C	1.179405	-0.207145	0.333436
C135	C	1.512738	0.126189	0.666770
H136	H	0.910958	-0.560864	0.055947
H137	H	1.244292	-0.227531	0.389280
H138	H	1.577625	0.105802	0.722613
H139	H	0.797119	-0.567092	0.085741
H140	H	1.130452	-0.233759	0.419074
H141	H	1.463786	0.099575	0.752408
H142	H	0.842048	-0.564612	-0.141405
H143	H	1.175381	-0.231279	0.191928
H144	H	1.508715	0.102055	0.525261
H145	H	0.578788	-0.022530	0.000112
H146	H	0.912122	0.310803	0.333445
H147	H	1.245455	0.644136	0.666779
H148	H	0.846050	-0.289792	0.000064
H149	H	1.179384	0.043541	0.333397
H150	H	1.512717	0.376874	0.666731
O151	O	0.547849	0.264408	0.000145
O152	O	0.881183	0.597741	0.333478
O153	O	1.214516	0.931075	0.666811
C154	C	0.482211	0.330259	0.000100
C155	C	0.815544	0.663592	0.333433
C156	C	1.148878	0.996925	0.666767
H157	H	0.423309	0.306963	0.055944
H158	H	0.756642	0.640296	0.389277
H159	H	1.089976	0.973630	0.722610
H160	H	0.500316	0.383671	0.085735
H161	H	0.833649	0.717004	0.419069
H162	H	1.166983	1.050338	0.752402
H163	H	0.469932	0.353391	-0.141410
H164	H	0.803265	0.686724	0.191923
H165	H	1.136599	1.020058	0.525257
O166	O	1.132989	-0.320731	0.000016
O167	O	1.466322	0.012602	0.333349
O168	O	1.799655	0.345936	0.666682
C169	C	1.198839	-0.386369	0.000052
C170	C	1.532173	-0.053036	0.333386
C171	C	1.865506	0.280297	0.666719
H172	H	1.175544	-0.445270	-0.055787
H173	H	1.508877	-0.111936	0.277547
H174	H	1.842211	0.221397	0.610880
H175	H	1.252252	-0.368262	-0.085591
H176	H	1.585585	-0.034928	0.247742
H177	H	1.918919	0.298405	0.581075
H178	H	1.221971	-0.398654	0.141559
H179	H	1.555304	-0.065320	0.474893
H180	H	1.888637	0.268013	0.808226
