data_functionalizedCrystal
_audit_creation_method	'MofGen! by Chris Wilmer'
_symmetry_space_group_name_H-M	'P1'
_symmetry_Int_Tables_number	1
_symmetry_cell_setting	triclinic
loop_
_symmetry_equiv_pos_as_xyz
  x,y,z
_cell_length_a	6.817900
_cell_length_b	11.102289
_cell_length_c	10.992410
_cell_angle_alpha	91.891801
_cell_angle_beta	108.764651
_cell_angle_gamma	108.605707
loop_
_atom_site_label
_atom_site_type_symbol
_atom_site_fract_x
_atom_site_fract_y
_atom_site_fract_z
V1	V	-4.113419	-0.175839	-0.400593
O2	O	-4.072416	0.008450	-0.392967
O3	O	-4.090183	-0.348659	-0.397853
O4	O	-4.091024	-0.173134	-0.575305
O5	O	-4.071569	-0.168290	-0.214287
V6	V	-4.590417	-0.153796	-0.378309
O7	O	-4.388992	-0.224192	-0.449474
O8	O	-4.765042	-0.105443	-0.329428
O9	O	-4.390446	0.019024	-0.381049
O10	O	-4.748817	-0.338085	-0.385935
O11	O	-4.749664	-0.161345	-0.564615
O12	O	-4.389605	-0.156501	-0.203597
C13	C	-3.940464	-0.390789	-0.391533
C14	C	-4.002926	-0.532072	-0.390458
C15	C	-4.216309	-0.604920	-0.396362
C16	C	-4.274992	-0.737672	-0.395362
C17	C	-3.906887	-0.724714	-0.382549
C18	C	-3.848211	-0.591966	-0.383558
C19	C	-4.428829	-0.612402	-0.403753
C20	C	-4.487513	-0.745153	-0.402754
C21	C	-3.941535	-0.166888	-0.617890
C22	C	-4.004675	-0.165820	-0.760718
C23	C	-3.871844	-0.156090	-0.955842
C24	C	-3.806286	-0.157727	-0.807358
C25	C	-4.202100	-0.291131	-0.837822
C26	C	-4.266419	-0.290023	-0.986389
C27	C	-4.145329	-0.047376	-0.948357
C28	C	-4.074622	-0.046782	-0.799344
C29	C	-4.203508	0.061147	-0.387365
C30	C	-4.120285	0.202429	-0.388449
C31	C	-4.202436	-0.162751	-0.161005
C32	C	-4.118534	-0.163813	-0.018176
H33	H	-3.658255	-0.067623	-0.754018
H34	H	-4.352427	-0.301578	-0.809019
H35	H	-3.780932	-0.773496	-0.376932
H36	H	-4.428470	-0.559175	-0.313164
H37	H	-4.541136	-0.593181	-0.497194
H38	H	-4.324291	-0.051930	-0.989198
H39	H	-4.619770	-0.803020	-0.497939
H40	H	-4.538406	-0.770122	-0.314989
H41	H	-4.155922	-0.379511	-0.812217
H42	H	-3.755068	-0.065366	-0.974671
H43	H	-3.846512	-0.239751	-1.003834
H44	H	-4.042863	0.047783	-0.968716
H45	H	-3.748706	-0.242550	-0.782544
H46	H	-4.250441	-0.378187	-1.032659
H47	H	-3.931806	0.045918	-0.746986
H48	H	-4.216742	-0.045310	-0.766832
H49	H	-3.674468	-0.532660	-0.378765
H50	H	-4.448369	-0.300919	-1.029020
