data_functionalizedCrystal
_audit_creation_method	'MofGen! by Chris Wilmer'
_symmetry_space_group_name_H-M	'P1'
_symmetry_Int_Tables_number	1
_symmetry_cell_setting	triclinic
loop_
_symmetry_equiv_pos_as_xyz
  x,y,z
_cell_length_a	18.215407
_cell_length_b	19.121063
_cell_length_c	18.215399
_cell_angle_alpha	87.590157
_cell_angle_beta	90.019833
_cell_angle_gamma	92.469446
loop_
_atom_site_label
_atom_site_type_symbol
_atom_site_fract_x
_atom_site_fract_y
_atom_site_fract_z
Zn1	Zn	1.112559	-0.279613	0.428596
Zn2	Zn	1.612559	0.220387	0.928596
Zn3	Zn	1.107212	-0.397068	0.310772
Zn4	Zn	1.607212	0.102932	0.810772
Zn5	Zn	0.989491	-0.279636	0.305544
Zn6	Zn	1.489491	0.220364	0.805544
Zn7	Zn	0.984203	-0.397029	0.433795
Zn8	Zn	1.484203	0.102971	0.933795
O9	O	1.048366	-0.338336	0.369677
O10	O	1.548366	0.161664	0.869677
O11	O	1.214834	-0.295200	0.412978
O12	O	1.714834	0.204800	0.912978
O13	O	1.091570	-0.381516	0.207095
O14	O	1.591570	0.118484	0.707095
O15	O	1.010267	-0.181348	0.317504
O16	O	1.510267	0.318652	0.817504
O17	O	1.210905	-0.381494	0.326414
O18	O	1.710905	0.118506	0.826414
O19	O	1.100685	-0.181331	0.407909
O20	O	1.600685	0.318669	0.907909
O21	O	1.005081	-0.295240	0.203255
O22	O	1.505081	0.204760	0.703255
O23	O	0.885805	-0.295202	0.322545
O24	O	1.385805	0.204798	0.822545
O25	O	1.001255	-0.381427	0.536089
O26	O	1.501255	0.118573	1.036089
O27	O	0.881921	-0.381450	0.416771
O28	O	1.381921	0.118550	0.916771
O29	O	1.095558	-0.295162	0.532269
O30	O	1.595558	0.204838	1.032269
O31	O	1.086443	-0.495348	0.331455
O32	O	1.586443	0.004652	0.831455
O33	O	0.996070	-0.495319	0.421840
O34	O	1.496070	0.004681	0.921840
C35	C	0.857160	-0.338324	0.369655
C36	C	1.357160	0.161676	0.869655
C37	C	0.775361	-0.338336	0.369664
C38	C	1.275361	0.161664	0.869664
C39	C	0.585160	-0.383316	0.418671
C40	C	1.085160	0.116684	0.918671
C41	C	0.508302	-0.383318	0.418681
C42	C	1.008302	0.116682	0.918681
C43	C	0.512323	-0.293369	0.320699
C44	C	1.012323	0.206631	0.820699
C45	C	0.589181	-0.293364	0.320694
C46	C	1.089181	0.206636	0.820694
C47	C	0.625597	-0.338342	0.369679
C48	C	1.125597	0.161658	0.869679
C49	C	0.471881	-0.338349	0.369694
C50	C	0.971881	0.161651	0.869694
C51	C	0.388547	-0.338351	0.369703
C52	C	0.888547	0.161649	0.869703
C53	C	0.708936	-0.338339	0.369671
C54	C	1.208936	0.161661	0.869671
C55	C	1.040122	-0.520817	0.377795
C56	C	1.540122	-0.020817	0.877795
C57	C	1.036663	-0.598883	0.381293
C58	C	1.536663	-0.098883	0.881293
C59	C	1.082127	-0.635551	0.335916
C60	C	1.582127	-0.135551	0.835916
C61	C	1.078878	-0.708902	0.339210
C62	C	1.578878	-0.208902	0.839210
C63	C	1.030161	-0.745585	0.387877
C64	C	1.530161	-0.245585	0.887877
C65	C	0.984695	-0.708912	0.433258
C66	C	1.484695	-0.208912	0.933258
C67	C	0.987948	-0.635562	0.429968
C68	C	1.487948	-0.135562	0.929968
C69	C	1.017985	-0.967055	0.400168
C70	C	1.517985	-0.467055	0.900168
C71	C	1.014733	-1.040410	0.403454
C72	C	1.514733	-0.540410	0.903454
C73	C	1.108918	-1.040394	0.309406
C74	C	1.608918	-0.540394	0.809406
C75	C	1.112164	-0.967043	0.306117
C76	C	1.612164	-0.467043	0.806117
C77	C	1.066701	-0.930377	0.351501
C78	C	1.566701	-0.430377	0.851501
C79	C	1.026837	-0.820561	0.391243
C80	C	1.526837	-0.320561	0.891243
C81	C	1.070029	-0.855401	0.348138
C82	C	1.570029	-0.355401	0.848138
C83	C	1.240319	-0.338349	0.369699
C84	C	1.740319	0.161651	0.869699
C85	C	1.322117	-0.338354	0.369709
C86	C	1.822117	0.161646	0.869709
C87	C	1.048413	-0.338288	0.561628
C88	C	1.548413	0.161712	1.061628
C89	C	1.048433	-0.338267	0.643426
C90	C	1.548433	0.161733	1.143426
C91	C	1.056662	-0.155143	0.361543
C92	C	1.556662	0.344857	0.861543
C93	C	1.060197	-0.077077	0.358077
C94	C	1.560197	0.422923	0.858077
C95	C	1.048364	-0.338334	0.178471
C96	C	1.548364	0.161666	0.678471
C97	C	1.048495	-0.338157	0.096664
C98	C	1.548495	0.161843	0.596664
C99	C	1.097555	-0.293307	0.829630
C100	C	1.597555	0.206693	1.329630
C101	C	1.097565	-0.293287	0.906488
C102	C	1.597565	0.206713	1.406488
C103	C	0.999368	-0.383119	0.910455
C104	C	1.499368	0.116881	1.410455
C105	C	0.999355	-0.383135	0.833598
C106	C	1.499355	0.116865	1.333598
C107	C	1.048453	-0.338231	0.793188
C108	C	1.548453	0.161769	1.293188
C109	C	1.048476	-0.338194	0.946902
C110	C	1.548476	0.161806	1.446902
C111	C	1.048486	-0.338172	1.030235
C112	C	1.548486	0.161828	1.530235
C113	C	1.048442	-0.338251	0.709850
C114	C	1.548442	0.161749	1.209850
H115	H	1.121795	-0.605688	0.296283
H116	H	1.621795	-0.105688	0.796283
C117	C	0.472737	-0.244659	0.267430
C118	C	0.972737	0.255341	0.767430
C119	C	0.426815	-0.284374	0.221950
C120	C	0.926815	0.215626	0.721950
C121	C	0.390345	-0.239526	0.172862
C122	C	0.890345	0.260474	0.672862
H123	H	0.444087	-0.214081	0.294191
H124	H	0.944087	0.285919	0.794191
H125	H	0.507804	-0.217883	0.238208
H126	H	1.007804	0.282117	0.738208
H127	H	0.391753	-0.311139	0.251168
H128	H	0.891753	0.188861	0.751168
H129	H	0.455448	-0.314951	0.195173
H130	H	0.955448	0.185049	0.695173
H131	H	0.425412	-0.212750	0.143641
H132	H	0.925412	0.287250	0.643641
H133	H	0.361699	-0.208950	0.199629
H134	H	0.861699	0.291050	0.699629
H135	H	0.359188	-0.266466	0.141994
H136	H	0.859188	0.233534	0.641994
H137	H	1.115899	-0.738753	0.302259
H138	H	1.615899	-0.238753	0.802259
C139	C	0.973919	-0.860264	0.444153
C140	C	1.473919	-0.360264	0.944153
C141	C	0.934805	-0.812457	0.483202
C142	C	1.434805	-0.312457	0.983202
C143	C	0.886061	-0.849007	0.531958
C144	C	1.386061	-0.349007	1.031958
H145	H	0.940538	-0.888927	0.417337
H146	H	1.440538	-0.388927	0.917337
H147	H	1.000773	-0.888817	0.477564
H148	H	1.500773	-0.388817	0.977564
H149	H	0.907952	-0.783916	0.449796
H150	H	1.407952	-0.283916	0.949796
H151	H	0.968167	-0.783792	0.510033
H152	H	1.468167	-0.283792	1.010033
H153	H	0.912915	-0.877560	0.565369
H154	H	1.412915	-0.377560	1.065369
H155	H	0.852684	-0.877669	0.505136
H156	H	1.352684	-0.377669	1.005136
H157	H	0.859521	-0.816576	0.558463
H158	H	1.359521	-0.316576	1.058463
C159	C	1.150842	-0.244398	0.945952
C160	C	1.650842	0.255602	1.445952
C161	C	1.137972	-0.174913	0.924151
C162	C	1.637972	0.325087	1.424151
C163	C	1.187044	-0.129855	0.960481
C164	C	1.687044	0.370145	1.460481
H165	H	1.143871	-0.250719	0.997521
H166	H	1.643871	0.249281	1.497521
H167	H	1.199835	-0.254642	0.933805
H168	H	1.699835	0.245358	1.433805
H169	H	1.088991	-0.164673	0.936304
H170	H	1.588991	0.335327	1.436304
H171	H	1.144948	-0.168571	0.872588
H172	H	1.644948	0.331429	1.372588
H173	H	1.236037	-0.140098	0.948333
H174	H	1.736037	0.359902	1.448333
H175	H	1.180069	-0.136181	1.012047
H176	H	1.680069	0.363819	1.512047
H177	H	1.178323	-0.082704	0.945689
H178	H	1.678323	0.417296	1.445689
C179	C	0.946188	-0.431962	0.954374
C180	C	1.446188	0.068038	1.454374
C181	C	0.985829	-0.476983	1.000487
C182	C	1.485829	0.023017	1.500487
C183	C	0.936865	-0.521995	1.040948
C184	C	1.436865	-0.021995	1.540948
H185	H	0.915325	-0.405170	0.983223
H186	H	1.415325	0.094830	1.483223
H187	H	0.916952	-0.458760	0.921687
H188	H	1.416952	0.041240	1.421687
H189	H	1.015053	-0.450188	1.033171
H190	H	1.515053	0.049812	1.533171
H191	H	1.016689	-0.503791	0.971657
H192	H	1.516689	-0.003791	1.471657
H193	H	0.907629	-0.548792	1.008260
H194	H	1.407629	-0.048792	1.508260
H195	H	0.906005	-0.495196	1.069792
H196	H	1.406005	0.004804	1.569792
H197	H	0.963754	-0.552551	1.072235
H198	H	1.463754	-0.052551	1.572235
H199	H	0.959365	-0.419717	0.803926
H200	H	1.459365	0.080283	1.303926
C201	C	0.938503	-0.595876	0.479270
C202	C	1.438503	-0.095876	0.979270
C203	C	0.895129	-0.643699	0.522583
C204	C	1.395129	-0.143699	1.022583
C205	C	0.849568	-0.607166	0.568008
C206	C	1.349568	-0.107166	1.068008
H207	H	0.967831	-0.567219	0.510139
H208	H	1.467831	-0.067219	1.010139
H209	H	0.907679	-0.567318	0.449829
H210	H	1.407679	-0.067318	0.949829
H211	H	0.925949	-0.672244	0.552022
H212	H	1.425949	-0.172244	1.052022
H213	H	0.865787	-0.672357	0.491733
H214	H	1.365787	-0.172357	0.991733
H215	H	0.818745	-0.578609	0.538567
H216	H	1.318745	-0.078609	1.038567
H217	H	0.878902	-0.578510	0.598872
H218	H	1.378902	-0.078510	1.098872
H219	H	0.820129	-0.639608	0.597396
H220	H	1.320129	-0.139608	1.097396
H221	H	0.614808	-0.419938	0.458560
H222	H	1.114808	0.080062	0.958560
C223	C	0.632958	-0.244505	0.267416
C224	C	1.132958	0.255495	0.767416
C225	C	0.584617	-0.205135	0.224500
C226	C	1.084617	0.294865	0.724500
C227	C	0.624918	-0.160126	0.175412
C228	C	1.124918	0.339874	0.675412
H229	H	0.664337	-0.213874	0.294174
H230	H	1.164337	0.286126	0.794174
H231	H	0.661702	-0.271318	0.236459
H232	H	1.161702	0.228682	0.736459
H233	H	0.555886	-0.178324	0.255454
H234	H	1.055886	0.321676	0.755454
H235	H	0.553238	-0.235748	0.197727
H236	H	1.053238	0.264252	0.697727
H237	H	0.653662	-0.186939	0.144454
H238	H	1.153662	0.313061	0.644454
H239	H	0.656295	-0.129499	0.202176
H240	H	1.156295	0.370501	0.702176
H241	H	0.592125	-0.133413	0.146283
H242	H	1.092125	0.366587	0.646283
H243	H	0.475381	-0.419940	0.458576
H244	H	0.975381	0.080060	0.958576
H245	H	1.151834	-0.937177	0.266488
H246	H	1.651834	-0.437177	0.766488
C247	C	1.122798	-0.815540	0.295206
C248	C	1.622798	-0.315540	0.795206
C249	C	1.083011	-0.773507	0.246109
C250	C	1.583011	-0.273507	0.746109
C251	C	1.131593	-0.736777	0.197329
C252	C	1.631593	-0.236777	0.697329
H253	H	1.156136	-0.786824	0.322013
H254	H	1.656136	-0.286824	0.822013
H255	H	1.149399	-0.847857	0.268603
H256	H	1.649399	-0.347857	0.768603
H257	H	1.056422	-0.741193	0.272709
H258	H	1.556422	-0.241193	0.772709
H259	H	1.049676	-0.802205	0.219285
H260	H	1.549676	-0.302205	0.719285
H261	H	1.158194	-0.769094	0.170726
H262	H	1.658194	-0.269094	0.670726
H263	H	1.164928	-0.708065	0.224143
H264	H	1.664928	-0.208065	0.724143
H265	H	1.104604	-0.708258	0.164007
H266	H	1.604604	-0.208258	0.664007
H267	H	0.980966	-0.937207	0.437120
H268	H	1.480966	-0.437207	0.937120
H269	H	1.145933	-1.070256	0.272458
H270	H	1.645933	-0.570256	0.772458
C271	C	1.150820	-0.244623	0.785626
C272	C	1.650820	0.255377	1.285626
C273	C	1.140314	-0.254262	0.710517
C274	C	1.640314	0.245738	1.210517
C275	C	1.189372	-0.209429	0.669961
C276	C	1.689372	0.290571	1.169961
H277	H	1.142229	-0.197403	0.796038
H278	H	1.642229	0.302597	1.296038
H279	H	1.199821	-0.254903	0.798644
H280	H	1.699821	0.245097	1.298644
H281	H	1.091324	-0.243977	0.697504
H282	H	1.591324	0.256023	1.197504
H283	H	1.148910	-0.301473	0.700083
H284	H	1.648910	0.198527	1.200083
H285	H	1.238373	-0.219709	0.682979
H286	H	1.738373	0.280291	1.182979
H287	H	1.180778	-0.162211	0.680380
H288	H	1.680778	0.337789	1.180380
H289	H	1.182255	-0.215967	0.618996
H290	H	1.682255	0.284033	1.118996
C291	C	0.961820	-1.080112	0.456376
C292	C	1.461820	-0.580112	0.956376
C293	C	0.922717	-1.032303	0.495433
C294	C	1.422717	-0.532303	0.995433
C295	C	0.873978	-1.068851	0.544195
C296	C	1.373978	-0.568851	1.044195
H297	H	0.928432	-1.108772	0.429565
H298	H	1.428432	-0.608772	0.929565
H299	H	0.988677	-1.108668	0.489782
H300	H	1.488677	-0.608668	0.989782
H301	H	0.895862	-1.003759	0.462032
H302	H	1.395862	-0.503759	0.962032
H303	H	0.956086	-1.003641	0.522259
H304	H	1.456086	-0.503641	1.022259
H305	H	0.900834	-1.097407	0.577601
H306	H	1.400834	-0.597407	1.077601
H307	H	0.840594	-1.097510	0.517378
H308	H	1.340594	-0.597510	1.017378
H309	H	0.847445	-1.036418	0.570706
H310	H	1.347445	-0.536418	1.070706
H311	H	0.945031	-0.738785	0.472887
H312	H	1.445031	-0.238785	0.972887
