data_functionalizedCrystal
_audit_creation_method	'MofGen! by Chris Wilmer'
_symmetry_space_group_name_H-M	'P1'
_symmetry_Int_Tables_number	1
_symmetry_cell_setting	triclinic
loop_
_symmetry_equiv_pos_as_xyz
  x,y,z
_cell_length_a	19.077236
_cell_length_b	21.295416
_cell_length_c	19.076919
_cell_angle_alpha	92.269099
_cell_angle_beta	90.112677
_cell_angle_gamma	87.676979
loop_
_atom_site_label
_atom_site_type_symbol
_atom_site_fract_x
_atom_site_fract_y
_atom_site_fract_z
Zn1	Zn	1.058266	0.228507	0.440531
Zn2	Zn	1.391599	0.561841	0.773864
Zn3	Zn	1.724932	0.895174	1.107197
Zn4	Zn	1.062894	0.329388	0.323019
Zn5	Zn	1.396228	0.662721	0.656353
Zn6	Zn	1.729561	0.996055	0.989686
Zn7	Zn	0.945481	0.228177	0.318311
Zn8	Zn	1.278815	0.561511	0.651644
Zn9	Zn	1.612148	0.894844	0.984977
Zn10	Zn	0.940713	0.337786	0.435757
Zn11	Zn	1.274046	0.671119	0.769090
Zn12	Zn	1.607379	1.004453	1.102424
O13	O	1.001838	0.280965	0.379404
O14	O	1.335172	0.614298	0.712738
O15	O	1.668505	0.947631	1.046071
O16	O	1.157214	0.238513	0.428911
O17	O	1.490547	0.571846	0.762244
O18	O	1.823880	0.905180	1.095578
O19	O	1.051252	0.312309	0.224064
O20	O	1.384585	0.645643	0.557397
O21	O	1.717919	0.978976	0.890731
O22	O	0.960501	0.140131	0.334551
O23	O	1.293834	0.473464	0.667884
O24	O	1.627168	0.806797	1.001218
O25	O	1.160614	0.312629	0.342576
O26	O	1.493948	0.645963	0.675909
O27	O	1.827281	0.979296	1.009242
O28	O	1.043363	0.140373	0.424345
O29	O	1.376696	0.473706	0.757679
O30	O	1.710030	0.807040	1.091012
O31	O	0.964989	0.237950	0.220605
O32	O	1.298322	0.571284	0.553938
O33	O	1.631656	0.904617	0.887271
O34	O	0.846515	0.246094	0.329922
O35	O	1.179848	0.579427	0.663255
O36	O	1.513181	0.912760	0.996589
O37	O	0.952373	0.326943	0.534721
O38	O	1.285707	0.660276	0.868054
O39	O	1.619040	0.993609	1.201387
O40	O	0.843011	0.326623	0.416209
O41	O	1.176344	0.659956	0.749542
O42	O	1.509678	0.993289	1.082876
O43	O	1.038739	0.246656	0.538228
O44	O	1.372072	0.579990	0.871561
O45	O	1.705406	0.913323	1.204895
O46	O	1.046628	0.418593	0.337947
O47	O	1.379961	0.751926	0.671280
O48	O	1.713295	1.085259	1.004613
O49	O	0.956862	0.424763	0.420775
O50	O	1.290195	0.758096	0.754108
O51	O	1.623528	1.091429	1.087441
C52	C	0.819266	0.287234	0.372037
C53	C	1.152599	0.620568	0.705370
C54	C	1.485933	0.953901	1.038704
C55	C	0.741160	0.289932	0.368902
C56	C	1.074493	0.623265	0.702235
C57	C	1.407826	0.956599	1.035569
C58	C	0.702693	0.252678	0.412448
C59	C	1.036026	0.586011	0.745781
C60	C	1.369359	0.919344	1.079114
C61	C	0.629304	0.255209	0.409496
C62	C	0.962637	0.588543	0.742829
C63	C	1.295971	0.921876	1.076162
C64	C	0.594384	0.294999	0.363001
C65	C	0.927717	0.628333	0.696335
C66	C	1.261050	0.961666	1.029668
C67	C	0.632856	0.332255	0.319451
C68	C	0.966189	0.665589	0.652784
C69	C	1.299523	0.998922	0.986117
C70	C	0.706244	0.329720	0.322399
C71	C	1.039577	0.663053	0.655733
C72	C	1.372910	0.996386	0.989066
C73	C	0.375089	0.306710	0.349351
C74	C	0.708422	0.640043	0.682685
C75	C	1.041756	0.973376	1.016018
C76	C	0.301696	0.309244	0.346407
C77	C	0.635030	0.642577	0.679740
C78	C	0.968363	0.975911	1.013074
C79	C	0.298149	0.232197	0.436452
C80	C	0.631483	0.565530	0.769785
C81	C	0.964816	0.898863	1.103118
C82	C	0.371538	0.229668	0.439399
C83	C	0.704872	0.563001	0.772733
C84	C	1.038205	0.896334	1.106066
C85	C	0.410004	0.266921	0.395846
C86	C	0.743338	0.600254	0.729180
C87	C	1.076671	0.933588	1.062513
N88	N	0.519369	0.297589	0.359984
N89	N	0.852702	0.630923	0.693318
N90	N	1.186035	0.964256	1.026651
N91	N	0.485018	0.264327	0.398860
N92	N	0.818352	0.597660	0.732193
N93	N	1.151685	0.930994	1.065527
C94	C	1.001748	0.444518	0.379370
C95	C	1.335081	0.777852	0.712703
C96	C	1.668415	1.111185	1.046036
C97	C	1.001773	0.514486	0.379381
C98	C	1.335106	0.847819	0.712714
C99	C	1.668439	1.181153	1.046048
C100	C	1.048552	0.544119	0.336302
C101	C	1.381886	0.877453	0.669635
C102	C	1.715219	1.210786	1.002968
C103	C	1.048585	0.609861	0.336322
C104	C	1.381918	0.943195	0.669655
C105	C	1.715251	1.276528	1.002989
C106	C	1.001825	0.645968	0.379414
C107	C	1.335159	0.979301	0.712747
C108	C	1.668492	1.312634	1.046080
C109	C	0.955042	0.616327	0.422502
C110	C	1.288376	0.949660	0.755835
C111	C	1.621709	1.282993	1.089168
C112	C	0.955016	0.550586	0.422485
C113	C	1.288349	0.883919	0.755819
C114	C	1.621683	1.217253	1.089152
N115	N	0.940138	0.751549	0.382295
N116	N	1.273472	1.084882	0.715628
N117	N	1.606805	1.418216	1.048962
N118	N	0.940165	0.814000	0.382306
N119	N	1.273499	1.147333	0.715640
N120	N	1.606832	1.480666	1.048973
C121	C	1.001903	0.844042	0.379467
C122	C	1.335236	1.177375	0.712800
C123	C	1.668569	1.510708	1.046133
N124	N	1.063614	0.809273	0.376601
N125	N	1.396947	1.142606	0.709935
N126	N	1.730281	1.475939	1.043268
N127	N	1.063586	0.746816	0.376586
N128	N	1.396919	1.080149	0.709919
N129	N	1.730253	1.413483	1.043253
C130	C	1.001849	0.717253	0.379437
C131	C	1.335182	1.050586	0.712770
C132	C	1.668516	1.383920	1.046103
C133	C	1.048721	0.944960	0.336407
C134	C	1.382055	1.278293	0.669741
C135	C	1.715388	1.611626	1.003074
C136	C	1.048755	1.010703	0.336432
C137	C	1.382088	1.344036	0.669766
C138	C	1.715421	1.677370	1.003099
C139	C	0.955206	1.017167	0.422608
C140	C	1.288540	1.350501	0.755941
C141	C	1.621873	1.683834	1.089275
C142	C	0.955179	0.951425	0.422587
C143	C	1.288512	1.284759	0.755920
C144	C	1.621846	1.618092	1.089253
C145	C	1.001936	0.915325	0.379483
C146	C	1.335269	1.248659	0.712816
C147	C	1.668602	1.581992	1.046149
C148	C	1.185124	0.274671	0.386801
C149	C	1.518457	0.608005	0.720134
C150	C	1.851791	0.941338	1.053468
C151	C	1.263229	0.271989	0.389953
C152	C	1.596563	0.605323	0.723286
C153	C	1.929896	0.938656	1.056620
C154	C	1.001948	1.116773	0.379468
C155	C	1.335281	1.450106	0.712801
C156	C	1.668615	1.783439	1.046134
C157	C	1.001996	1.046805	0.379525
C158	C	1.335329	1.380138	0.712859
C159	C	1.668662	1.713472	1.046192
C160	C	0.994508	0.287773	0.562683
C161	C	1.327841	0.621106	0.896017
C162	C	1.661175	0.954440	1.229350
C163	C	0.991384	0.290674	0.640786
C164	C	1.324718	0.624008	0.974119
C165	C	1.658051	0.957341	1.307453
C166	C	1.009181	0.274136	0.196840
C167	C	1.342514	0.607469	0.530173
C168	C	1.675847	0.940803	0.863507
C169	C	1.012441	0.271053	0.118743
C170	C	1.345774	0.604386	0.452077
C171	C	1.679107	0.937719	0.785410
C172	C	1.034880	0.250239	0.679306
C173	C	1.368214	0.583572	1.012639
C174	C	1.701547	0.916905	1.345972
C175	C	1.031937	0.252963	0.752691
C176	C	1.365270	0.586296	1.086024
C177	C	1.698603	0.919629	1.419358
C178	C	0.985500	0.296126	0.787555
C179	C	1.318833	0.629459	1.120889
C180	C	1.652167	0.962793	1.454222
C181	C	0.941999	0.336564	0.749030
C182	C	1.275332	0.669897	1.082364
C183	C	1.608666	1.003230	1.415697
C184	C	0.944940	0.333836	0.675646
C185	C	1.278273	0.667170	1.008979
C186	C	1.611606	1.000503	1.342313
C187	C	0.971880	0.308763	1.006834
C188	C	1.305214	0.642096	1.340167
C189	C	1.638547	0.975429	1.673501
C190	C	0.968944	0.311489	1.080224
C191	C	1.302278	0.644822	1.413557
C192	C	1.635611	0.978155	1.746890
C193	C	1.058882	0.227886	1.083879
C194	C	1.392215	0.561220	1.417213
C195	C	1.725548	0.894553	1.750546
C196	C	1.061821	0.225165	1.010494
C197	C	1.395154	0.558498	1.343827
C198	C	1.728488	0.891832	1.677161
C199	C	1.018318	0.265600	0.971975
C200	C	1.351651	0.598934	1.305308
C201	C	1.684984	0.932267	1.638642
N202	N	0.982492	0.298913	0.862567
N203	N	1.315825	0.632246	1.195900
N204	N	1.649158	0.965579	1.529234
N205	N	1.021323	0.262810	0.896965
N206	N	1.354656	0.596144	1.230298
N207	N	1.687990	0.929477	1.563631
H208	H	0.604418	0.364650	0.281590
H209	H	0.937752	0.697983	0.614924
H210	H	1.271085	1.031317	0.948257
F211	F	0.925580	0.351798	0.965849
F212	F	1.258913	0.685132	1.299182
F213	F	1.592246	1.018465	1.632515
H214	H	1.086852	1.034829	0.301354
H215	H	1.420186	1.368162	0.634687
H216	H	1.753519	1.701496	0.968020
H217	H	0.273266	0.341649	0.308545
H218	H	0.606600	0.674982	0.641878
H219	H	0.939933	1.008315	0.975212
H220	H	0.597987	0.224874	0.444957
H221	H	0.931321	0.558207	0.778290
H222	H	1.264654	0.891541	1.111624
H223	H	0.904187	0.371706	0.777422
H224	H	1.237520	0.705039	1.110756
H225	H	1.570853	1.038373	1.444089
F226	F	0.416019	0.346347	0.302986
F227	F	0.749352	0.679681	0.636319
F228	F	1.082685	1.013014	0.969652
H229	H	0.909513	0.366757	0.644284
H230	H	1.242847	0.700091	0.977617
H231	H	1.576180	1.033424	1.310950
F232	F	0.257206	0.192551	0.482800
F233	F	0.590539	0.525884	0.816133
F234	F	0.923873	0.859218	1.149467
F235	F	0.919515	0.357429	1.117327
F236	F	1.252848	0.690762	1.450660
F237	F	1.586182	1.024095	1.783994
H238	H	0.731119	0.220278	0.450311
H239	H	1.064453	0.553611	0.783644
H240	H	1.397786	0.886945	1.116977
F241	F	0.905445	1.055590	0.468474
F242	F	1.238778	1.388923	0.801808
F243	F	1.572112	1.722257	1.135141
H244	H	1.067358	0.220037	0.784051
H245	H	1.400691	0.553370	1.117384
H246	H	1.734024	0.886703	1.450718
F247	F	0.747183	0.369372	0.276052
F248	F	1.080516	0.702705	0.609386
F249	F	1.413849	1.036038	0.942719
F250	F	1.084309	0.204301	0.642207
F251	F	1.417642	0.537634	0.975541
F252	F	1.750976	0.870967	1.308874
F253	F	0.408698	0.187321	0.488889
F254	F	0.742031	0.520654	0.822222
F255	F	1.075364	0.853988	1.155556
H256	H	1.086626	0.514728	0.301206
H257	H	1.419959	0.848062	0.634539
H258	H	1.753293	1.181395	0.967872
H259	H	1.086681	0.633994	0.301242
H260	H	1.420014	0.967327	0.634575
H261	H	1.753347	1.300660	0.967909
H262	H	0.917084	0.927296	0.457663
H263	H	1.250417	1.260629	0.790996
H264	H	1.583751	1.593963	1.124330
H265	H	0.916972	0.645729	0.457588
H266	H	1.250305	0.979062	0.790922
H267	H	1.583639	1.312395	1.124255
F268	F	1.111246	0.179225	0.973394
F269	F	1.444579	0.512558	1.306727
F270	F	1.777912	0.845892	1.640061
F271	F	1.105176	0.184854	1.124879
F272	F	1.438509	0.518187	1.458212
F273	F	1.771843	0.851520	1.791546
F274	F	0.905225	0.519047	0.468338
F275	F	1.238558	0.852381	0.801671
F276	F	1.571891	1.185714	1.135005
H277	H	1.086796	0.915566	0.301311
H278	H	1.420129	1.248899	0.634645
H279	H	1.753462	1.582233	0.967978
