data_functionalizedCrystal
_audit_creation_method	'MofGen! by Chris Wilmer'
_symmetry_space_group_name_H-M	'P1'
_symmetry_Int_Tables_number	1
_symmetry_cell_setting	triclinic
loop_
_symmetry_equiv_pos_as_xyz
  x,y,z
_cell_length_a	15.455313
_cell_length_b	16.992694
_cell_length_c	16.992695
_cell_angle_alpha	89.331777
_cell_angle_beta	92.847427
_cell_angle_gamma	92.857794
loop_
_atom_site_label
_atom_site_type_symbol
_atom_site_fract_x
_atom_site_fract_y
_atom_site_fract_z
O1	O	-0.072023	-1.054080	0.163694
O2	O	0.427977	-0.554080	0.663694
O3	O	-0.072048	-0.825681	0.161862
O4	O	0.427952	-0.325681	0.661862
O5	O	-0.072029	-0.938965	0.048579
O6	O	0.427971	-0.438965	0.548579
O7	O	-0.072042	-0.940797	0.276978
O8	O	0.427958	-0.440797	0.776978
O9	O	0.072232	-0.932485	0.055028
O10	O	0.572232	-0.432485	0.555028
O11	O	0.072213	-0.819202	0.168312
O12	O	0.572213	-0.319202	0.668312
O13	O	0.072238	-1.047601	0.170144
O14	O	0.572238	-0.547601	0.670144
Cu15	Cu	0.085398	-0.932809	0.169817
Cu16	Cu	0.585398	-0.432809	0.669817
Cu17	Cu	-0.085207	-0.940473	0.162189
Cu18	Cu	0.414793	-0.440473	0.662189
O19	O	0.072219	-0.934317	0.283428
O20	O	0.572219	-0.434317	0.783428
C21	C	0.000079	-0.793081	0.162731
C22	C	0.500079	-0.293081	0.662731
C23	C	0.000070	-0.705597	0.155702
C24	C	0.500070	-0.205597	0.655702
N25	N	0.205392	-0.927425	0.175181
N26	N	0.705392	-0.427425	0.675181
N27	N	-0.205202	-0.945863	0.156819
N28	N	0.294798	-0.445863	0.656819
C29	C	0.000102	-0.933369	0.022443
C30	C	0.500102	-0.433369	0.522443
C31	C	0.000101	-0.926341	-0.065041
C32	C	0.500101	-0.426341	0.434959
C33	C	0.250795	-0.975571	0.127074
C34	C	0.750795	-0.475571	0.627074
C35	C	0.341602	-0.971507	0.131139
C36	C	0.841602	-0.471507	0.631139
C37	C	0.387005	-0.919301	0.183315
C38	C	0.887005	-0.419301	0.683315
C39	C	0.341596	-0.871149	0.231424
C40	C	0.841596	-0.371149	0.731424
C41	C	0.250791	-0.875210	0.227355
C42	C	0.750791	-0.375210	0.727355
C43	C	0.658584	-0.901772	0.200858
C44	C	1.158584	-0.401772	0.700858
C45	C	0.749395	-0.897717	0.204926
C46	C	1.249395	-0.397717	0.704926
C47	C	0.749395	-0.998074	0.104639
C48	C	1.249395	-0.498074	0.604639
C49	C	0.658588	-1.002133	0.100578
C50	C	1.158588	-0.502133	0.600578
C51	C	0.613187	-0.953979	0.148684
C52	C	1.113187	-0.453979	0.648684
N53	N	0.479825	-0.915147	0.187473
N54	N	0.979825	-0.415147	0.687473
N55	N	0.520369	-0.958129	0.144522
N56	N	1.020369	-0.458129	0.644522
C57	C	0.000109	-1.080201	0.169275
C58	C	0.500109	-0.580201	0.669275
C59	C	0.000113	-1.167685	0.176304
C60	C	0.500113	-0.667685	0.676304
C61	C	0.000066	-0.659607	0.223520
C62	C	0.500066	-0.159607	0.723520
C63	C	0.000079	-0.577405	0.216911
C64	C	0.500079	-0.077405	0.716911
C65	C	0.000088	-0.541197	0.142484
C66	C	0.500088	-0.041197	0.642484
C67	C	0.000094	-0.587193	0.074661
C68	C	0.500094	-0.087193	0.574661
C69	C	0.000088	-0.669393	0.081271
C70	C	0.500088	-0.169393	0.581271
C71	C	0.000113	-0.295881	0.115091
C72	C	0.500113	0.204119	0.615091
C73	C	0.000116	-0.213676	0.108486
C74	C	0.500116	0.286324	0.608486
C75	C	0.000103	-0.203893	0.250737
C76	C	0.500103	0.296107	0.750737
C77	C	0.000091	-0.286095	0.257340
C78	C	0.500091	0.213905	0.757340
C79	C	0.000102	-0.332084	0.189517
C80	C	0.500102	0.167916	0.689517
N81	N	0.000098	-0.457174	0.135727
N82	N	0.500098	0.042826	0.635727
N83	N	0.000098	-0.416105	0.196275
N84	N	0.500098	0.083895	0.696275
C85	C	0.000109	-0.994158	-0.111032
C86	C	0.500109	-0.494158	0.388968
C87	C	0.000100	-0.987550	-0.193233
C88	C	0.500100	-0.487550	0.306767
C89	C	0.000089	-0.913123	-0.229442
C90	C	0.500089	-0.413123	0.270558
C91	C	0.000078	-0.845300	-0.183445
C92	C	0.500078	-0.345300	0.316555
C93	C	0.000081	-0.851910	-0.101246
C94	C	0.500081	-0.351910	0.398754
C95	C	0.000074	-0.885729	-0.474757
C96	C	0.500074	-0.385729	0.025243
C97	C	0.000074	-0.879124	-0.556962
C98	C	0.500074	-0.379124	-0.056962
C99	C	0.000094	-1.021375	-0.566744
C100	C	0.500094	-0.521375	-0.066744
C101	C	0.000102	-1.027977	-0.484543
C102	C	0.500102	-0.527977	0.015457
C103	C	0.000087	-0.960155	-0.438554
C104	C	0.500087	-0.460155	0.061446
N105	N	0.000082	-0.906366	-0.313464
N106	N	0.500082	-0.406366	0.186536
N107	N	0.000087	-0.966913	-0.354533
N108	N	0.500087	-0.466913	0.145467
C109	C	0.000087	-0.939913	0.309563
C110	C	0.500087	-0.439913	0.809563
C111	C	0.000082	-0.946942	0.397047
C112	C	0.500082	-0.446942	0.897047
H113	H	0.213834	-1.018087	0.084591
H114	H	0.713834	-0.518087	0.584591
N115	N	0.201823	-0.823276	0.279240
N116	N	0.701823	-0.323276	0.779240
H117	H	0.217611	-0.835131	0.336393
H118	H	0.717611	-0.335131	0.836393
H119	H	0.137424	-0.833790	0.268679
H120	H	0.637424	-0.333790	0.768679
N121	N	0.000046	-0.698658	0.303795
N122	N	0.500046	-0.198658	0.803795
H123	H	0.000046	-0.657047	0.345754
H124	H	0.500046	-0.157047	0.845754
H125	H	0.053521	-0.730157	0.312030
H126	H	0.553521	-0.230157	0.812030
N127	N	0.000117	-1.060698	-0.242834
N128	N	0.500117	-0.560698	0.257166
H129	H	0.053592	-1.058718	-0.274771
H130	H	0.553592	-0.558718	0.225229
H131	H	-0.053398	-1.063493	-0.279496
H132	H	0.446602	-0.563493	0.220504
N133	N	0.000173	-0.527796	0.290061
N134	N	0.500173	-0.027796	0.790061
H135	H	0.000193	-0.563206	0.338214
H136	H	0.500193	-0.063206	0.838214
H137	H	-0.053271	-0.495828	0.288083
H138	H	0.446729	0.004172	0.788083
N139	N	0.000061	-0.812581	-0.425160
N140	N	0.500061	-0.312581	0.074840
H141	H	0.000058	-0.764431	-0.460574
H142	H	0.500058	-0.264431	0.039426
H143	H	0.053540	-0.809821	-0.388454
H144	H	0.553540	-0.309821	0.111546
N145	N	0.609633	-0.849831	0.252745
N146	N	1.109633	-0.349831	0.752745
H147	H	0.625426	-0.861689	0.309896
H148	H	1.125426	-0.361689	0.809896
H149	H	0.545233	-0.860337	0.242189
H150	H	1.045233	-0.360337	0.742189
N151	N	0.390573	-1.023464	0.079282
N152	N	0.890573	-0.523464	0.579282
H153	H	0.348031	-1.057166	0.045625
H154	H	0.848031	-0.557166	0.545625
H155	H	0.428221	-1.058453	0.113339
H156	H	0.928221	-0.558453	0.613339
H157	H	0.000073	-0.796685	-0.063801
H158	H	0.500073	-0.296685	0.436199
N159	N	0.000098	-0.719001	0.008125
N160	N	0.500098	-0.219001	0.508125
H161	H	0.000104	-0.683591	-0.040027
H162	H	0.500104	-0.183591	0.459973
H163	H	-0.053381	-0.755716	0.005375
H164	H	0.446619	-0.255716	0.505375
N165	N	0.000118	-0.548144	-0.005615
N166	N	0.500118	-0.048144	0.494385
H167	H	0.000121	-0.489092	0.000487
H168	H	0.500121	0.010908	0.500487
H169	H	-0.053357	-0.567042	-0.037915
H170	H	0.446643	-0.067042	0.462085
H171	H	0.000106	-1.076591	-0.604197
H172	H	0.500106	-0.576591	-0.104197
N173	N	0.000108	-0.345485	0.041946
N174	N	0.500108	0.154515	0.541946
H175	H	0.053584	-0.377413	0.043907
H176	H	0.553584	0.122587	0.543907
H177	H	0.000077	-0.310027	-0.006168
H178	H	0.500077	0.189973	0.493832
N179	N	0.609623	-1.058444	0.044303
N180	N	1.109623	-0.558444	0.544303
H181	H	0.625424	-1.114171	0.057615
H182	H	1.125424	-0.614171	0.557615
H183	H	0.625457	-1.045109	-0.011411
H184	H	1.125457	-0.545109	0.488589
N185	N	0.798362	-1.050008	0.052756
N186	N	1.298362	-0.550008	0.552756
H187	H	0.862776	-1.039516	0.063248
H188	H	1.362776	-0.539516	0.563248
H189	H	0.782500	-1.038127	-0.004374
H190	H	1.282500	-0.538127	0.495626
H191	H	0.786359	-0.855202	0.247417
H192	H	1.286359	-0.355202	0.747417
H193	H	0.000063	-0.784700	-0.212933
H194	H	0.500063	-0.284700	0.287067
H195	H	0.000074	-0.315570	0.317946
H196	H	0.500074	0.184430	0.817946
H197	H	0.000096	-0.166440	0.305954
H198	H	0.500096	0.333560	0.805954
H199	H	0.000123	-0.184198	0.047876
H200	H	0.500123	0.315802	0.547876
H201	H	0.378569	-0.828638	0.273904
H202	H	0.878569	-0.328638	0.773904
N203	N	0.000092	-1.108248	-0.445481
N204	N	0.500092	-0.608248	0.054519
H205	H	0.053567	-1.111762	-0.409204
H206	H	0.553567	-0.611762	0.090796
H207	H	0.000057	-1.150169	-0.487131
H208	H	0.500057	-0.650169	0.012869
H209	H	0.000124	-1.054764	-0.081557
H210	H	0.500124	-0.554764	0.418443
N211	N	0.000060	-0.798846	-0.596019
N212	N	0.500060	-0.298846	-0.096019
H213	H	0.000048	-0.756883	-0.554413
H214	H	0.500048	-0.256883	-0.054413
H215	H	-0.053419	-0.795415	-0.632301
H216	H	0.446581	-0.295415	-0.132301
