data_functionalizedCrystal
_audit_creation_method	'MofGen! by Chris Wilmer'
_symmetry_space_group_name_H-M	'P1'
_symmetry_Int_Tables_number	1
_symmetry_cell_setting	triclinic
loop_
_symmetry_equiv_pos_as_xyz
  x,y,z
_cell_length_a	24.447405
_cell_length_b	24.446649
_cell_length_c	24.443239
_cell_angle_alpha	60.006064
_cell_angle_beta	60.011844
_cell_angle_gamma	59.992812
loop_
_atom_site_label
_atom_site_type_symbol
_atom_site_fract_x
_atom_site_fract_y
_atom_site_fract_z
O1	O	0.075907	-0.799232	0.668277
O2	O	0.575907	-0.299232	1.168277
O3	O	0.028634	-0.622262	0.538455
O4	O	0.528634	-0.122262	1.038455
O5	O	0.140702	-0.734230	0.538349
O6	O	0.640702	-0.234230	1.038349
O7	O	-0.036160	-0.687265	0.668384
O8	O	0.463840	-0.187265	1.168384
O9	O	0.177886	-0.697056	0.575424
O10	O	0.677886	-0.197056	1.075424
O11	O	0.065818	-0.585088	0.575530
O12	O	0.565818	-0.085088	1.075530
O13	O	0.113091	-0.762059	0.705353
O14	O	0.613091	-0.262059	1.205353
Cu15	Cu	0.092850	-0.670179	0.643827
Cu16	Cu	0.592850	-0.170179	1.143827
Cu17	Cu	0.048876	-0.714142	0.599981
Cu18	Cu	0.548876	-0.214142	1.099981
O19	O	0.001024	-0.650091	0.705459
O20	O	0.501024	-0.150091	1.205459
N21	N	0.123780	-0.639263	0.674669
N22	N	0.623780	-0.139263	1.174669
N23	N	0.017951	-0.745064	0.569139
N24	N	0.517951	-0.245064	1.069139
C25	C	0.170236	-0.489965	0.721065
C26	C	0.670236	0.010035	1.221065
C27	C	0.170249	-0.592837	0.721058
C28	C	0.670249	-0.092837	1.221058
C29	C	0.195989	-0.567121	0.746758
C30	C	0.695989	-0.067121	1.246758
C31	C	0.308182	-0.547773	0.687664
C32	C	0.808182	-0.047773	1.187664
C33	C	0.378316	-0.571143	0.664253
C34	C	0.878316	-0.071143	1.164253
C35	C	0.378353	-0.684626	0.707525
C36	C	0.878353	-0.184626	1.207525
C37	C	0.308220	-0.661254	0.730938
C38	C	0.808220	-0.161254	1.230938
C39	C	0.187125	-0.454882	0.652117
C40	C	0.687125	0.045118	1.152117
C41	C	0.163710	-0.384741	0.628763
C42	C	0.663710	0.115259	1.128763
C43	C	0.106523	-0.384772	0.743308
C44	C	0.606523	0.115228	1.243308
C45	C	0.129938	-0.454913	0.766662
C46	C	0.629938	0.045087	1.266662
C47	C	0.101291	-0.575906	0.738041
C48	C	0.601291	-0.075906	1.238041
C49	C	0.077897	-0.599283	0.714670
C50	C	0.577897	-0.099283	1.214670
C51	C	0.192412	-0.656523	0.657348
C52	C	0.692412	-0.156523	1.157348
C53	C	0.215809	-0.633146	0.680711
C54	C	0.715809	-0.133146	1.180711
C55	C	0.101393	-0.575928	0.859014
C56	C	0.601393	-0.075928	1.359014
C57	C	0.078071	-0.599328	0.929152
C58	C	0.578071	-0.099328	1.429152
C59	C	0.192636	-0.656582	0.929078
C60	C	0.692636	-0.156582	1.429078
C61	C	0.215955	-0.633184	0.858938
C62	C	0.715955	-0.133184	1.358938
C63	C	0.170332	-0.592855	0.823908
C64	C	0.670332	-0.092855	1.323908
C65	C	0.273137	-0.592827	0.721004
C66	C	0.773137	-0.092827	1.221004
C67	C	-0.131205	-0.791294	0.522327
C68	C	0.368795	-0.291294	1.022327
C69	C	-0.028388	-0.791420	0.522551
C70	C	0.471612	-0.291420	1.022551
C71	C	-0.054056	-0.817099	0.496741
C72	C	0.445944	-0.317099	0.996741
C73	C	-0.073479	-0.929255	0.555734
C74	C	0.426521	-0.429255	1.055734
C75	C	-0.050156	-0.999396	0.579142
C76	C	0.449844	-0.499396	1.079142
C77	C	0.063326	-0.999525	0.536064
C78	C	0.563326	-0.499525	1.036064
C79	C	0.040001	-0.929386	0.512654
C80	C	0.540001	-0.429386	1.012654
C81	C	-0.166365	-0.808188	0.591256
C82	C	0.333635	-0.308188	1.091256
C83	C	-0.236499	-0.784726	0.614512
C84	C	0.263501	-0.284726	1.114512
C85	C	-0.236309	-0.727482	0.499907
C86	C	0.263691	-0.227482	0.999907
C87	C	-0.166175	-0.750944	0.476651
C88	C	0.333825	-0.250944	0.976651
C89	C	-0.045285	-0.722468	0.505590
C90	C	0.454715	-0.222468	1.005590
C91	C	-0.021951	-0.699130	0.529061
C92	C	0.478049	-0.199130	1.029061
C93	C	0.035176	-0.813691	0.586439
C94	C	0.535176	-0.313691	1.086439
C95	C	0.011842	-0.837031	0.562976
C96	C	0.511842	-0.337031	1.062976
C97	C	-0.045097	-0.722476	0.384488
C98	C	0.454903	-0.222476	0.884488
C99	C	-0.021613	-0.699140	0.314350
C100	C	0.478387	-0.199140	0.814350
C101	C	0.035607	-0.813706	0.314419
C102	C	0.535607	-0.313706	0.814419
C103	C	0.012124	-0.837041	0.384558
C104	C	0.512124	-0.337041	0.884558
C105	C	-0.028229	-0.791425	0.419591
C106	C	0.471771	-0.291425	0.919591
C107	C	-0.028402	-0.894253	0.522492
C108	C	0.471598	-0.394253	1.022492
N109	N	0.412405	-0.639229	0.674505
N110	N	0.912405	-0.139229	1.174505
O111	O	0.626552	-0.645384	0.514503
O112	O	1.126552	-0.145384	1.014503
O113	O	0.626802	-0.775625	0.691288
O114	O	1.126802	-0.275625	1.191288
O115	O	0.626698	-0.775326	0.579168
O116	O	1.126698	-0.275326	1.079168
O117	O	0.626656	-0.645683	0.626623
O118	O	1.126656	-0.145683	1.126623
O119	O	0.515277	-0.738265	0.616407
O120	O	1.015277	-0.238265	1.116407
O121	O	0.515382	-0.738564	0.728527
O122	O	1.015382	-0.238564	1.228527
O123	O	0.515131	-0.608323	0.551742
O124	O	1.015131	-0.108323	1.051742
Cu125	Cu	0.505083	-0.670059	0.643535
Cu126	Cu	1.005083	-0.170059	1.143535
Cu127	Cu	0.636850	-0.713889	0.599495
Cu128	Cu	1.136850	-0.213889	1.099495
O129	O	0.515236	-0.608622	0.663862
O130	O	1.015236	-0.108622	1.163862
N131	N	0.729529	-0.744719	0.568518
N132	N	1.229529	-0.244719	1.068518
N133	N	0.123755	-0.350686	0.674680
N134	N	0.623755	0.149314	1.174680
O135	O	-0.036153	-0.136410	0.668391
O136	O	0.463847	0.363590	1.168391
O137	O	0.140633	-0.136380	0.538141
O138	O	0.640633	0.363620	1.038141
O139	O	0.028472	-0.136412	0.538488
O140	O	0.528472	0.363588	1.038488
O141	O	0.076007	-0.136377	0.668044
O142	O	0.576007	0.363623	1.168044
O143	O	0.065663	-0.247842	0.575621
O144	O	0.565663	0.252158	1.075621
O145	O	0.177823	-0.247810	0.575274
O146	O	0.677823	0.252190	1.075274
O147	O	0.001037	-0.247840	0.705524
O148	O	0.501037	0.252160	1.205524
Cu149	Cu	0.092826	-0.258000	0.643789
Cu150	Cu	0.592826	0.242000	1.143789
Cu151	Cu	0.048844	-0.126220	0.599875
Cu152	Cu	0.548844	0.373780	1.099875
O153	O	0.113198	-0.247808	0.705177
O154	O	0.613198	0.252192	1.205177
N155	N	0.017907	-0.033534	0.568986
N156	N	0.517907	0.466466	1.068986
N157	N	0.124013	-0.639306	0.963182
N158	N	0.624013	-0.139306	1.463182
O159	O	0.117754	-0.799195	1.177439
O160	O	0.617754	-0.299195	1.677439
O161	O	-0.012458	-0.622342	1.177485
O162	O	0.487542	-0.122342	1.677485
O163	O	-0.012155	-0.734480	1.177444
O164	O	0.487845	-0.234480	1.677444
O165	O	0.117450	-0.687057	1.177480
O166	O	0.617450	-0.187057	1.677480
O167	O	0.024954	-0.697317	1.066020
O168	O	0.524954	-0.197317	1.566020
O169	O	0.024650	-0.585179	1.066061
O170	O	0.524650	-0.085179	1.566061
O171	O	0.154862	-0.762032	1.066014
O172	O	0.654862	-0.262032	1.566014
Cu173	Cu	0.093145	-0.670212	1.055863
Cu174	Cu	0.593145	-0.170212	1.555863
Cu175	Cu	0.049259	-0.714162	1.187636
Cu176	Cu	0.549259	-0.214162	1.687636
O177	O	0.154559	-0.649894	1.066055
O178	O	0.654559	-0.149894	1.566055
N179	N	0.018389	-0.745075	1.280318
N180	N	0.518389	-0.245075	1.780318
C181	C	0.042795	-0.581375	0.539107
C182	C	0.542795	-0.081375	1.039107
C183	C	0.181576	-0.720034	0.538975
C184	C	0.681576	-0.220034	1.038975
C185	C	0.098930	-0.802946	0.704700
C186	C	0.598930	-0.302946	1.204700
C187	C	-0.039851	-0.664287	0.704832
C188	C	0.460149	-0.164287	1.204832
C189	C	0.571122	-0.775030	0.732180
C190	C	1.071122	-0.275030	1.232180
C191	C	0.570995	-0.774660	0.593332
C192	C	1.070995	-0.274660	1.093332
C193	C	0.570808	-0.608917	0.510851
C194	C	1.070808	-0.108917	1.010851
C195	C	0.570939	-0.609288	0.649698
C196	C	1.070939	-0.109288	1.149698
C197	C	0.181453	-0.191954	0.538725
C198	C	0.681453	0.308046	1.038725
C199	C	0.042602	-0.192131	0.539201
C200	C	0.542602	0.307869	1.039201
C201	C	-0.039829	-0.192128	0.704893
C202	C	0.460171	0.307872	1.204893
C203	C	0.099069	-0.192090	0.704464
C204	C	0.599069	0.307910	1.204464
C205	C	-0.011836	-0.581480	1.121779
C206	C	0.488164	-0.081480	1.621779
C207	C	-0.011453	-0.720342	1.121706
C208	C	0.488547	-0.220342	1.621706
C209	C	0.154240	-0.802894	1.121720
C210	C	0.654240	-0.302894	1.621720
C211	C	0.153865	-0.664024	1.121769
C212	C	0.653865	-0.164024	1.621769
H213	H	0.021932	-0.585534	0.957726
H214	H	0.521932	-0.085534	1.457726
O215	O	0.248863	-0.733285	0.484884
O216	O	0.748863	-0.233285	0.984884
H217	H	0.258343	-0.775969	0.472673
H218	H	0.758343	-0.275969	0.972673
H219	H	0.109031	-0.853782	0.745475
H220	H	0.609031	-0.353782	1.245475
O221	O	0.571025	-0.828615	0.579886
O222	O	1.071025	-0.328615	1.079886
H223	H	0.525655	-0.842887	0.616049
H224	H	1.025655	-0.342887	1.116049
H225	H	0.032695	-0.530537	0.498334
H226	H	0.532695	-0.030537	0.998334
O227	O	0.241552	-0.699999	0.613835
O228	O	0.741552	-0.199999	1.113835
H229	H	0.293431	-0.707839	0.605953
H230	H	0.793431	-0.207839	1.105953
H231	H	0.229790	-0.689406	0.957592
H232	H	0.729790	-0.189406	1.457592
O233	O	0.570936	-0.555339	0.663131
O234	O	1.070936	-0.055339	1.163131
H235	H	0.525492	-0.510855	0.657319
H236	H	1.025492	-0.010855	1.157319
O237	O	0.248578	-0.191623	0.484419
O238	O	0.748578	0.308377	0.984419
H239	H	0.241439	-0.146143	0.440062
H240	H	0.741439	0.353857	0.940062
H241	H	-0.090650	-0.654278	0.745664
H242	H	0.409350	-0.154278	1.245664
H243	H	0.571186	-0.815915	0.782955
H244	H	1.071186	-0.315915	1.282955
H245	H	0.032420	-0.192135	0.498498
H246	H	0.532420	0.307865	0.998498
H247	H	0.570727	-0.568026	0.460082
H248	H	1.070727	-0.068026	0.960082
H249	H	-0.090599	-0.192138	0.745784
H250	H	0.409401	0.307862	1.245784
O251	O	0.112547	-0.192089	0.758388
O252	O	0.612547	0.307911	1.258388
H253	H	0.164385	-0.192085	0.739206
H254	H	0.664385	0.307915	1.239206
O255	O	-0.065994	-0.514204	1.121801
O256	O	0.434006	-0.014204	1.621801
H257	H	-0.047057	-0.481350	1.121821
H258	H	0.452943	0.018650	1.621821
O259	O	-0.065365	-0.733746	1.121618
O260	O	0.434635	-0.233746	1.621618
H261	H	-0.046188	-0.785578	1.121578
H262	H	0.453812	-0.285578	1.621578
O263	O	0.208392	-0.870176	1.121716
O264	O	0.708392	-0.370176	1.621716
H265	H	0.189450	-0.903035	1.121711
H266	H	0.689450	-0.403035	1.621711
H267	H	0.194582	-0.653876	1.121771
H268	H	0.694582	-0.153876	1.621771
H269	H	0.272095	-0.646975	0.830359
H270	H	0.772095	-0.146975	1.330359
O271	O	0.052184	-0.532424	0.821228
O272	O	0.552184	-0.032424	1.321228
H273	H	0.020243	-0.560266	0.834698
H274	H	0.520243	-0.060266	1.334698
O275	O	0.003524	-0.581029	0.732972
O276	O	0.503524	-0.081029	1.232972
H277	H	-0.019413	-0.599915	0.788271
H278	H	0.480587	-0.099915	1.288271
O279	O	0.290184	-0.651405	0.662404
O280	O	0.790184	-0.151405	1.162404
H281	H	0.317936	-0.683367	0.630428
H282	H	0.817936	-0.183367	1.130428
H283	H	0.064189	-0.543085	0.770891
H284	H	0.564189	-0.043085	1.270891
H285	H	0.406920	-0.740344	0.715602
H286	H	0.906920	-0.240344	1.215602
O287	O	0.270417	-0.709848	0.766890
O288	O	0.770417	-0.209848	1.266890
H289	H	0.306598	-0.761354	0.769852
H290	H	0.806598	-0.261354	1.269852
O291	O	0.416118	-0.522550	0.628296
O292	O	0.916118	-0.022550	1.128296
H293	H	0.402624	-0.485045	0.582774
H294	H	0.902624	0.014955	1.082774
O295	O	0.270341	-0.473970	0.676957
O296	O	0.770341	0.026030	1.176957
H297	H	0.306497	-0.446571	0.649845
H298	H	0.806497	0.053429	1.149845
H299	H	0.219934	-0.483420	0.614988
H300	H	0.719934	0.016580	1.114988
H301	H	0.073721	-0.356231	0.780438
H302	H	0.573721	0.143769	1.280438
O303	O	0.181926	-0.346894	0.554393
O304	O	0.681926	0.153106	1.054393
H305	H	0.213888	-0.383052	0.526611
H306	H	0.713888	0.116948	1.026611
H307	H	-0.035357	-0.642993	0.285778
H308	H	0.464643	-0.142993	0.785778
O309	O	0.111694	-0.492760	0.841032
O310	O	0.611694	0.007240	1.341032
H311	H	0.079729	-0.456602	0.868815
H312	H	0.579729	0.043398	1.368815
H313	H	-0.077958	-0.685325	0.413008
H314	H	0.422042	-0.185325	0.913008
O315	O	0.079126	-0.862911	0.276642
O316	O	0.579126	-0.362911	0.776642
H317	H	0.051274	-0.894815	0.290046
H318	H	0.551274	-0.394815	0.790046
O319	O	0.030318	-0.911411	0.422421
O320	O	0.530318	-0.411411	0.922421
H321	H	0.062316	-0.939208	0.386275
H322	H	0.562316	-0.439208	0.886275
H323	H	-0.078038	-0.685325	0.472673
H324	H	0.421962	-0.185325	0.972673
H325	H	-0.035712	-0.642984	0.515253
H326	H	0.464288	-0.142984	1.015253
O327	O	0.078563	-0.862890	0.630040
O328	O	0.578563	-0.362890	1.130040
H329	H	0.124899	-0.894887	0.602262
H330	H	0.624899	-0.394887	1.102262
O331	O	0.030067	-0.911401	0.581257
O332	O	0.530067	-0.411401	1.081257
H333	H	0.061968	-0.939198	0.613302
H334	H	0.561968	-0.439198	1.113302
H335	H	0.076712	-0.900889	0.485585
H336	H	0.576712	-0.400889	0.985585
H337	H	-0.086862	-1.027893	0.606199
H338	H	0.413138	-0.527893	1.106199
O339	O	0.137105	-1.037427	0.525457
O340	O	0.637105	-0.537427	1.025457
H341	H	0.164534	-1.001304	0.498403
H342	H	0.664534	-0.501304	0.998403
H343	H	-0.137894	-0.841050	0.628449
H344	H	0.362106	-0.341050	1.128449
O345	O	-0.147257	-0.891364	0.566349
O346	O	0.352743	-0.391364	1.066349
H347	H	-0.164125	-0.904797	0.541503
H348	H	0.335875	-0.404797	1.041503
O349	O	-0.274445	-0.802948	0.688858
O350	O	0.225555	-0.302948	1.188858
H351	H	-0.261041	-0.784119	0.711919
H352	H	0.238959	-0.284119	1.211919
O353	O	-0.274035	-0.683962	0.450649
O354	O	0.225965	-0.183962	0.950649
H355	H	-0.260541	-0.711809	0.418689
H356	H	0.239459	-0.211809	0.918689
O357	O	-0.128245	-0.732726	0.402302
O358	O	0.371755	-0.232726	0.902302
H359	H	-0.164344	-0.700729	0.374448
H360	H	0.335656	-0.200729	0.874448
