data_functionalizedCrystal
_audit_creation_method	'MofGen! by Chris Wilmer'
_symmetry_space_group_name_H-M	'P1'
_symmetry_Int_Tables_number	1
_symmetry_cell_setting	triclinic
loop_
_symmetry_equiv_pos_as_xyz
  x,y,z
_cell_length_a	15.297327
_cell_length_b	15.297621
_cell_length_c	15.296720
_cell_angle_alpha	88.384271
_cell_angle_beta	107.319222
_cell_angle_gamma	88.375711
loop_
_atom_site_label
_atom_site_type_symbol
_atom_site_fract_x
_atom_site_fract_y
_atom_site_fract_z
Zn1	Zn	-0.695117	-1.116329	-0.823160
Zn2	Zn	-0.823718	-1.116234	-0.694534
Zn3	Zn	-0.644940	-1.005101	-0.644430
Zn4	Zn	-0.814934	-0.946193	-0.814438
O5	O	-0.744677	-1.045964	-0.744141
O6	O	-0.736851	-1.234028	-0.830717
O7	O	-0.782680	-1.126105	-0.562908
O8	O	-0.526633	-1.044550	-0.650820
O9	O	-0.831334	-1.233958	-0.736216
O10	O	-0.563497	-1.126268	-0.782133
O11	O	-0.651333	-1.044457	-0.526097
O12	O	-0.642815	-0.879575	-0.642363
O13	O	-0.816362	-0.944148	-0.940574
O14	O	-0.767709	-0.836295	-0.767267
O15	O	-0.728333	-1.069147	-0.946983
O16	O	-0.947516	-1.068984	-0.727758
O17	O	-0.941062	-0.944056	-0.815851
C18	C	-0.698864	-0.827414	-0.698432
C19	C	-0.679290	-0.733908	-0.678902
C20	C	-0.884543	-0.380291	-0.883684
C21	C	-0.902940	-0.468144	-0.902032
C22	C	-0.847029	-0.534589	-0.846251
C23	C	-0.772718	-0.513174	-0.772119
C24	C	-0.754323	-0.425313	-0.753765
C25	C	-0.716809	-0.579611	-0.716332
C26	C	-0.642498	-0.558196	-0.642199
C27	C	-0.624106	-0.470343	-0.623849
C28	C	-0.680017	-0.403898	-0.679630
C29	C	-0.735204	-0.667471	-0.734686
C30	C	-0.604984	-0.712493	-0.604767
C31	C	-0.586587	-0.624641	-0.586419
C32	C	-0.976698	-1.000136	-0.776320
C33	C	-1.075978	-0.980601	-0.790132
C34	C	-1.369207	-1.185867	-0.645799
C35	C	-1.275928	-1.204221	-0.632817
C36	C	-1.225936	-1.148318	-0.672145
C37	C	-1.269232	-1.074057	-0.724456
C38	C	-1.362518	-1.055697	-0.737434
C39	C	-1.219247	-1.018149	-0.763780
C40	C	-1.262543	-0.943888	-0.816091
C41	C	-1.355821	-0.925532	-0.829067
C42	C	-1.405813	-0.981435	-0.789739
C43	C	-1.125961	-1.036508	-0.750802
C44	C	-1.119272	-0.906339	-0.842437
C45	C	-1.212551	-0.887985	-0.855419
C46	C	-0.511758	-1.091991	-0.711860
C47	C	-0.412501	-1.111604	-0.698104
C48	C	-0.776965	-1.000087	-0.977090
C49	C	-0.790724	-0.980537	-1.076360
C50	C	-0.790662	-0.265371	-0.790020
C51	C	-0.810237	-0.358876	-0.809549
C52	C	-0.646189	-1.185754	-1.369531
C53	C	-0.633264	-1.204127	-1.276264
C54	C	-0.672627	-1.148231	-1.226284
C55	C	-0.724919	-1.073959	-1.269579
C56	C	-0.737851	-1.055587	-1.362857
C57	C	-0.764290	-1.018065	-1.219609
C58	C	-0.816581	-0.943792	-1.262905
C59	C	-0.829510	-0.925424	-1.356173
C60	C	-0.790146	-0.981320	-1.406154
C61	C	-0.751358	-1.036436	-1.126331
C62	C	-0.843020	-0.906269	-1.119657
C63	C	-0.855944	-0.887896	-1.212924
C64	C	-0.712461	-1.091724	-0.512098
C65	C	-0.698484	-1.111487	-0.412829
H66	H	-0.665040	-0.332359	-0.664696
H67	H	-0.563604	-0.452911	-0.563478
C68	C	-0.887037	-0.843725	-1.403797
N69	N	-0.930364	-0.782187	-1.439665
H70	H	-1.481769	-0.966497	-0.800309
H71	H	-1.247816	-0.827521	-0.898011
H72	H	-1.149984	-1.163266	-0.661571
H73	H	-0.708781	-1.096909	-1.091089
H74	H	-0.800667	-0.966364	-1.482100
H75	H	-0.526082	-0.607192	-0.526059
C76	C	-1.064286	-0.844842	-0.885703
N77	N	-1.022864	-0.798527	-0.918287
C78	C	-0.913462	-0.806197	-1.260561
N79	N	-0.956782	-0.744660	-1.296442
C80	C	-0.658399	-1.168440	-1.123684
N81	N	-0.647675	-1.183661	-1.046402
C82	C	-0.575736	-1.285819	-1.228644
N83	N	-0.532399	-1.347351	-1.192774
H84	H	-0.559458	-0.766594	-0.559344
H85	H	-0.614151	-1.231261	-1.410236
H86	H	-1.090718	-1.096972	-0.708210
C87	C	-0.816942	-0.691017	-0.816234
N88	N	-0.878510	-0.708749	-0.877662
H89	H	-0.862013	-0.606121	-0.861195
C90	C	-0.984682	-0.491694	-0.983574
N91	N	-1.046254	-0.509431	-1.044995
H92	H	-0.930062	-0.326186	-0.929088
C93	C	-1.228304	-1.285894	-0.575258
N94	N	-1.192432	-1.347411	-0.531895
H95	H	-1.409917	-1.231371	-0.613778
H96	H	-1.391066	-0.865056	-0.871650
C97	C	-0.886321	-0.844778	-1.064681
N98	N	-0.918933	-0.798467	-1.023268
