data_functionalizedCrystal
_audit_creation_method	'MofGen! by Chris Wilmer'
_symmetry_space_group_name_H-M	'P1'
_symmetry_Int_Tables_number	1
_symmetry_cell_setting	triclinic
loop_
_symmetry_equiv_pos_as_xyz
  x,y,z
_cell_length_a	16.053811
_cell_length_b	16.992697
_cell_length_c	16.956993
_cell_angle_alpha	83.361577
_cell_angle_beta	87.629512
_cell_angle_gamma	92.750493
loop_
_atom_site_label
_atom_site_type_symbol
_atom_site_fract_x
_atom_site_fract_y
_atom_site_fract_z
O1	O	-0.069317	-1.032984	-0.165259
O2	O	-0.069345	-0.804820	-0.163410
O3	O	-0.069319	-0.932608	-0.049130
O4	O	-0.069343	-0.905196	-0.279539
O5	O	0.069539	-0.925575	-0.055393
O6	O	0.069513	-0.797787	-0.169673
O7	O	0.069541	-1.025951	-0.171522
Zn8	Zn	0.091574	-0.910752	-0.171592
Zn9	Zn	-0.091377	-0.920018	-0.163340
O10	O	0.069515	-0.898163	-0.285802
C11	C	0.000081	-0.772245	-0.164165
C12	C	0.000070	-0.685661	-0.157074
N13	N	0.216433	-0.904434	-0.177224
C14	C	0.000063	-0.630987	-0.225488
C15	C	0.000074	-0.549632	-0.218821
C16	C	0.000086	-0.522953	-0.143739
C17	C	0.000096	-0.577633	-0.075320
C18	C	0.000091	-0.658986	-0.081987
C19	C	0.000108	-0.281145	-0.116104
C20	C	0.000110	-0.199785	-0.109441
C21	C	0.000090	-0.171789	-0.252943
C22	C	0.000080	-0.253146	-0.259604
C23	C	0.000094	-0.307819	-0.191185
N24	N	0.000095	-0.439795	-0.136923
N25	N	0.000091	-0.390974	-0.198003
C26	C	0.260138	-0.958825	-0.128617
C27	C	0.347543	-0.954412	-0.132565
C28	C	0.391243	-0.895611	-0.185123
C29	C	0.347532	-0.841215	-0.233732
C30	C	0.260127	-0.845625	-0.229780
C31	C	0.652648	-0.876350	-0.202363
C32	C	0.740059	-0.871946	-0.206313
C33	C	0.740065	-0.985143	-0.105145
C34	C	0.652659	-0.989551	-0.101201
C35	C	0.608955	-0.935151	-0.149806
N36	N	0.480586	-0.891101	-0.189161
N37	N	0.519614	-0.939659	-0.145764
N38	N	0.783764	-0.926337	-0.157707
C39	C	0.000111	-0.930495	-0.022643
C40	C	0.000114	-0.934667	0.065611
C41	C	0.000110	-0.058526	-0.170766
C42	C	0.000103	-0.145111	-0.177855
C43	C	0.000146	-0.965883	0.562921
C44	C	0.000145	-0.961956	0.479996
C45	C	0.000129	-0.888244	0.433606
C46	C	0.000122	-0.818454	0.470144
C47	C	0.000129	-0.822382	0.553067
C48	C	0.000114	-0.868805	0.185073
C49	C	0.000105	-0.864883	0.102145
C50	C	0.000129	-1.008385	0.112002
C51	C	0.000131	-1.012306	0.194926
C52	C	0.000128	-0.942516	0.231457
N53	N	0.000126	-0.884229	0.348843
N54	N	0.000137	-0.946532	0.316218
C55	C	0.000099	-0.900275	0.687710
C56	C	0.000136	-0.896099	0.599454
H57	H	0.000053	-0.652702	-0.286628
C58	C	0.000144	-1.085148	0.071810
N59	N	0.000161	-1.142969	0.041538
H60	H	0.617072	-0.832057	-0.241941
C61	C	0.000111	-0.548283	0.007272
N62	N	0.000119	-0.526178	0.069482
C63	C	0.000081	-0.489492	-0.294084
N64	N	0.000093	-0.444195	-0.350776
C65	C	0.000156	-1.038725	0.439814
N66	N	0.000164	-1.096551	0.409549
H67	H	0.000080	-0.127266	-0.308646
H68	H	0.000095	-0.804855	0.064375
C69	C	0.212052	-0.785796	-0.283257
N70	N	0.175843	-0.740731	-0.323539
C71	C	0.788146	-1.044972	-0.051676
N72	N	0.824360	-1.090035	-0.011397
C73	C	0.604596	-1.054233	-0.043378
N74	N	0.568395	-1.102953	0.000175
C75	C	0.000118	-0.341276	-0.040839
N76	N	0.000124	-0.386570	0.015854
H77	H	0.000128	-0.765555	0.582811
H78	H	0.000102	-0.811977	0.214807
H79	H	0.000060	-0.274861	-0.320744
H80	H	0.775635	-0.824060	-0.249116
C81	C	0.212076	-1.023511	-0.070798
N82	N	0.175879	-1.072232	-0.027244
H83	H	0.000119	-0.178068	-0.048297
H84	H	0.000114	-0.758437	0.432367
H85	H	0.000147	-1.072330	0.232692
H86	H	0.000097	-0.703502	-0.026277
H87	H	0.383128	-0.998701	-0.092985
C88	C	0.395604	-0.776526	-0.291539
N89	N	0.431811	-0.727800	-0.335080
H90	H	0.000152	-1.025908	0.600687
