data_functionalizedCrystal
_audit_creation_method	'MofGen! by Chris Wilmer'
_symmetry_space_group_name_H-M	'P1'
_symmetry_Int_Tables_number	1
_symmetry_cell_setting	triclinic
loop_
_symmetry_equiv_pos_as_xyz
  x,y,z
_cell_length_a	10.654562
_cell_length_b	17.019294
_cell_length_c	9.130313
_cell_angle_alpha	86.119786
_cell_angle_beta	89.996930
_cell_angle_gamma	83.940708
loop_
_atom_site_label
_atom_site_type_symbol
_atom_site_fract_x
_atom_site_fract_y
_atom_site_fract_z
O1	O	1.666089	0.110838	-0.135872
O2	O	1.300447	0.121384	-0.137184
O3	O	1.493469	0.001335	-0.122046
O4	O	1.473067	0.230887	-0.151011
O5	O	1.493466	0.001338	0.121553
O6	O	1.300444	0.121387	0.106414
O7	O	1.666086	0.110842	0.107726
Cu8	Cu	1.483265	0.116114	0.129313
Cu9	Cu	1.483268	0.116111	-0.158771
O10	O	1.473064	0.230890	0.092588
C11	C	1.253660	0.120609	-0.015285
C12	C	1.114254	0.118286	-0.014984
C13	C	1.048739	0.117204	0.117926
C14	C	0.917751	0.115028	0.118176
C15	C	0.917804	0.115019	-0.147407
C16	C	1.048791	0.117189	-0.147655
C17	C	1.048707	0.117213	0.271259
C18	C	0.917719	0.115037	0.271509
C19	C	1.492694	-0.028057	0.003459
C20	C	1.490374	-0.115640	0.014502
C21	C	1.489288	-0.156784	-0.113095
C22	C	1.487100	-0.239077	-0.102715
C23	C	1.486007	-0.280225	0.035263
C24	C	1.487089	-0.239075	0.162870
C25	C	1.489268	-0.156783	0.152488
C26	C	1.479420	-0.528693	0.073252
C27	C	1.477245	-0.610991	0.083624
C28	C	1.477254	-0.610987	-0.181962
C29	C	1.479440	-0.528694	-0.192331
C30	C	1.480515	-0.487551	-0.064725
C31	C	1.483775	-0.364342	0.045877
C32	C	1.482739	-0.403435	-0.075340
C33	C	1.712873	0.111616	-0.014177
C34	C	1.852279	0.113939	-0.014486
C35	C	1.473839	0.260282	-0.032921
C36	C	1.476159	0.347865	-0.043973
N37	N	1.483272	0.116117	0.331935
N38	N	1.483271	0.116102	-0.361392
C39	C	1.568764	0.062977	0.415288
C40	C	1.568761	0.062968	0.568626
C41	C	1.397770	0.169244	0.555244
C42	C	1.397768	0.169249	0.401909
C43	C	1.667488	0.001622	0.423015
C44	C	1.667485	0.001612	0.576353
H45	H	1.102131	0.118058	-0.255882
O46	O	1.795028	0.019529	0.629239
H47	H	1.868775	-0.026348	0.594445
O48	O	0.879714	0.038838	0.344158
H49	H	0.827565	0.008085	0.263971
O50	O	0.855269	0.187245	0.340377
H51	H	0.751432	0.185466	0.340554
O52	O	1.787877	0.027066	0.356801
H53	H	1.765320	0.080741	0.281643
O54	O	0.847197	0.113844	-0.290500
H55	H	0.745105	0.112157	-0.268002
O56	O	1.305559	0.226557	0.630712
H57	H	1.319926	0.217630	0.751340
H58	H	1.646995	-0.059010	0.389047
H59	H	1.490185	-0.123287	-0.225452
H60	H	1.486191	-0.272584	0.275215
H61	H	1.483620	-0.369928	-0.187681
O62	O	1.111132	0.045008	0.358360
H63	H	1.037813	0.007931	0.401187
O64	O	1.086710	0.193404	0.324708
H65	H	1.000927	0.232042	0.353248
H66	H	1.490134	-0.123283	0.256391
O67	O	1.485878	-0.283436	-0.240356
H68	H	1.571838	-0.274212	-0.305225
O69	O	1.480593	-0.484310	-0.341150
H70	H	1.479453	-0.526745	-0.428136
H71	H	1.476348	-0.644491	0.195988
O72	O	1.476073	-0.655359	-0.319591
H73	H	1.474361	-0.719494	-0.289199
H74	H	1.482889	-0.397854	0.158219
H75	H	1.480321	-0.495206	0.177159
O76	O	1.305555	0.226559	0.312000
H77	H	1.246111	0.263507	0.386421
O78	O	1.628317	-0.074294	0.648937
H79	H	1.607552	-0.114530	0.563416
