data_functionalizedCrystal
_audit_creation_method	'MofGen! by Chris Wilmer'
_symmetry_space_group_name_H-M	'P1'
_symmetry_Int_Tables_number	1
_symmetry_cell_setting	triclinic
loop_
_symmetry_equiv_pos_as_xyz
  x,y,z
_cell_length_a	12.811438
_cell_length_b	7.540329
_cell_length_c	9.065218
_cell_angle_alpha	89.998243
_cell_angle_beta	84.527502
_cell_angle_gamma	84.565582
loop_
_atom_site_label
_atom_site_type_symbol
_atom_site_fract_x
_atom_site_fract_y
_atom_site_fract_z
O1	O	1.394562	-0.371754	0.198721
O2	O	1.089183	-0.322645	0.220329
O3	O	1.248185	-0.348211	-0.005197
O4	O	1.235560	-0.346188	0.424247
O5	O	1.248175	-0.053244	-0.005200
O6	O	1.089173	-0.027678	0.220326
O7	O	1.394552	-0.076788	0.198719
Cu8	Cu	1.241862	-0.025300	0.209522
Cu9	Cu	1.241873	-0.374132	0.209525
O10	O	1.235551	-0.051221	0.424245
C11	C	1.246967	-0.200535	-0.060170
C12	C	1.243339	-0.199961	-0.223967
C13	C	1.050063	-0.168871	0.219117
C14	C	0.933510	-0.150128	0.215491
N15	N	1.241862	0.220048	0.209519
C16	C	0.769230	0.037066	0.210379
C17	C	0.878741	0.019463	0.213787
C18	C	0.878760	-0.302127	0.213791
C19	C	0.769249	-0.284524	0.210383
C20	C	0.714488	-0.114922	0.208675
C21	C	0.604975	-0.097321	0.205257
C22	C	0.604995	-0.418909	0.205271
C23	C	0.714507	-0.436512	0.208679
C24	C	1.433673	-0.230565	0.199931
C25	C	1.550225	-0.249320	0.203557
N26	N	1.241882	-0.619482	0.209517
C27	C	1.236769	-0.198901	0.479217
C28	C	1.240397	-0.199487	0.643014
H29	H	0.560390	0.040778	0.203876
C30	C	0.774757	-0.623065	0.210551
N31	N	0.820137	-0.763581	0.211952
C32	C	0.938954	0.186662	0.215654
N33	N	0.984307	0.312604	0.217060
C34	C	0.544770	-0.586107	0.203399
N35	N	0.499407	-0.712037	0.201987
H36	H	0.923364	-0.440209	0.215195
H37	H	0.724642	0.175163	0.208997
