data_functionalizedCrystal
_audit_creation_method	'MofGen! by Chris Wilmer'
_symmetry_space_group_name_H-M	'P1'
_symmetry_Int_Tables_number	1
_symmetry_cell_setting	triclinic
loop_
_symmetry_equiv_pos_as_xyz
  x,y,z
_cell_length_a	19.805407
_cell_length_b	19.077174
_cell_length_c	19.805405
_cell_angle_alpha	92.272419
_cell_angle_beta	90.024042
_cell_angle_gamma	87.685436
loop_
_atom_site_label
_atom_site_type_symbol
_atom_site_fract_x
_atom_site_fract_y
_atom_site_fract_z
Zn1	Zn	1.050089	-0.397938	-0.284897
Zn2	Zn	1.550089	0.102062	0.215103
Zn3	Zn	1.045462	-0.280243	-0.393540
Zn4	Zn	1.545462	0.219757	0.106460
Zn5	Zn	0.932363	-0.280258	-0.280365
Zn6	Zn	1.432363	0.219742	0.219635
Zn7	Zn	0.936865	-0.397901	-0.398043
Zn8	Zn	1.436865	0.102099	0.101957
O9	O	0.991195	-0.339085	-0.339211
O10	O	1.491195	0.160915	0.160789
O11	O	1.144192	-0.382335	-0.299321
O12	O	1.644192	0.117665	0.200679
O13	O	1.026638	-0.181755	-0.374746
O14	O	1.526638	0.318245	0.125254
O15	O	0.948032	-0.295890	-0.186251
O16	O	1.448032	0.204110	0.313749
O17	O	1.140792	-0.295865	-0.379140
O18	O	1.640792	0.204135	0.120860
O19	O	1.034525	-0.382349	-0.189580
O20	O	1.534525	0.117651	0.310420
O21	O	0.943545	-0.181766	-0.291597
O22	O	1.443545	0.318234	0.208403
O23	O	0.838243	-0.295854	-0.295963
O24	O	1.338243	0.204146	0.204037
O25	O	0.955705	-0.496395	-0.386815
O26	O	1.455705	0.003605	0.113185
O27	O	0.841551	-0.382286	-0.382420
O28	O	1.341551	0.117714	0.117580
O29	O	1.038890	-0.496423	-0.303687
O30	O	1.538890	0.003577	0.196313
O31	O	1.031004	-0.295828	-0.488853
O32	O	1.531004	0.204172	0.011147
O33	O	0.951218	-0.382271	-0.492161
O34	O	1.451218	0.117729	0.007839
C35	C	0.815338	-0.339068	-0.339189
C36	C	1.315338	0.160932	0.160811
C37	C	0.740106	-0.339077	-0.339197
C38	C	1.240106	0.160923	0.160803
C39	C	0.706536	-0.384171	-0.297714
C40	C	1.206536	0.115829	0.202286
C41	C	0.635847	-0.384173	-0.297718
C42	C	1.135847	0.115827	0.202282
C43	C	0.598731	-0.339085	-0.339208
C44	C	1.098731	0.160915	0.160792
C45	C	0.632307	-0.293987	-0.380693
C46	C	1.132307	0.206013	0.119307
C47	C	0.702993	-0.293981	-0.380685
C48	C	1.202993	0.206019	0.119315
C49	C	0.347234	-0.294008	-0.380724
C50	C	0.847234	0.205992	0.119276
C51	C	0.276542	-0.294019	-0.380730
C52	C	0.776542	0.205981	0.119270
C53	C	0.280088	-0.384201	-0.297757
C54	C	0.780088	0.115799	0.202243
C55	C	0.350775	-0.384195	-0.297749
C56	C	0.850775	0.115805	0.202251
C57	C	0.384344	-0.339094	-0.339231
C58	C	0.884344	0.160906	0.160769
C59	C	0.460992	-0.339091	-0.339225
C60	C	0.960992	0.160909	0.160775
C61	C	0.522084	-0.339092	-0.339218
C62	C	1.022084	0.160908	0.160782
C63	C	0.998316	-0.522661	-0.346259
C64	C	1.498316	-0.022661	0.153741
C65	C	1.001351	-0.600890	-0.349262
C66	C	1.501351	-0.100890	0.150738
C67	C	0.959516	-0.637647	-0.307383
C68	C	1.459516	-0.137647	0.192617
C69	C	0.962365	-0.711152	-0.310210
C70	C	1.462365	-0.211152	0.189790
C71	C	1.007052	-0.747898	-0.354914
C72	C	1.507052	-0.247898	0.145086
C73	C	1.048889	-0.711135	-0.396798
C74	C	1.548889	-0.211135	0.103202
C75	C	1.046036	-0.637632	-0.393974
C76	C	1.546036	-0.137632	0.106026
C77	C	1.020220	-0.967728	-0.368007
C78	C	1.520220	-0.467728	0.131993
C79	C	1.023071	-1.041237	-0.370827
C80	C	1.523071	-0.541237	0.129173
C81	C	0.936546	-1.041248	-0.284240
C82	C	1.436546	-0.541248	0.215760
C83	C	0.933700	-0.967744	-0.281417
C84	C	1.433700	-0.467744	0.218583
C85	C	0.975534	-0.930988	-0.323303
C86	C	1.475534	-0.430988	0.176697
N87	N	1.009967	-0.823031	-0.357804
N88	N	1.509967	-0.323031	0.142196
N89	N	0.972615	-0.855855	-0.320416
N90	N	1.472615	-0.355855	0.179584
C91	C	1.167738	-0.339102	-0.339234
C92	C	1.667738	0.160898	0.160766
C93	C	1.242970	-0.339110	-0.339243
C94	C	1.742970	0.160890	0.160757
C95	C	0.991117	-0.339059	-0.515066
C96	C	1.491117	0.160941	-0.015066
C97	C	0.991146	-0.339072	-0.590299
C98	C	1.491146	0.160928	-0.090299
C99	C	0.984140	-0.156223	-0.332142
C100	C	1.484140	0.343777	0.167858
C101	C	0.981236	-0.077994	-0.328948
C102	C	1.481236	0.422006	0.171052
C103	C	1.036159	-0.384127	-0.627320
C104	C	1.536159	0.115873	-0.127320
C105	C	1.036183	-0.384140	-0.698009
C106	C	1.536183	0.115860	-0.198009
C107	C	0.991199	-0.339094	-0.731675
C108	C	1.491199	0.160906	-0.231675
C109	C	0.946181	-0.294037	-0.694649
C110	C	1.446181	0.205963	-0.194649
C111	C	0.946153	-0.294028	-0.623962
C112	C	1.446153	0.205972	-0.123962
C113	C	0.946291	-0.294073	-0.979724
C114	C	1.446291	0.205927	-0.479724
C115	C	0.946324	-0.294084	-1.050416
C116	C	1.446324	0.205916	-0.550416
C117	C	1.036321	-0.384185	-1.053771
C118	C	1.536321	0.115815	-0.553771
C119	C	1.036294	-0.384176	-0.983083
C120	C	1.536294	0.115824	-0.483083
C121	C	0.991274	-0.339122	-0.946064
C122	C	1.491274	0.160878	-0.446064
C123	C	0.991247	-0.339109	-0.869415
C124	C	1.491247	0.160891	-0.369415
C125	C	0.991229	-0.339103	-0.808323
C126	C	1.491229	0.160897	-0.308323
C127	C	0.991292	-0.339126	-0.162670
C128	C	1.491292	0.160874	0.337330
C129	C	0.991334	-0.339143	-0.087439
C130	C	1.491334	0.160857	0.412561
H131	H	0.374558	-0.257285	-0.414501
H132	H	0.874558	0.242715	0.085499
H133	H	0.897309	-0.937830	-0.245016
H134	H	1.397309	-0.437830	0.254984
H135	H	0.602081	-0.257272	-0.414471
H136	H	1.102081	0.242728	0.085529
C137	C	1.085701	-0.433693	-0.738732
C138	C	1.585701	0.066307	-0.238732
H139	H	1.079272	-0.427253	-0.785652
H140	H	1.579272	0.072747	-0.285652
H141	H	1.130782	-0.423428	-0.726719
H142	H	1.630782	0.076572	-0.226719
H143	H	1.077590	-0.480974	-0.728954
H144	H	1.577590	0.019026	-0.228954
C145	C	0.896835	-0.244539	-1.087452
C146	C	1.396835	0.255461	-0.587452
H147	H	0.903305	-0.250994	-1.134852
H148	H	1.403305	0.249006	-0.634852
H149	H	0.851743	-0.254799	-1.076298
H150	H	1.351743	0.245201	-0.576298
H151	H	0.904936	-0.197253	-1.074061
H152	H	1.404936	0.302747	-0.574061
H153	H	0.902487	-1.071183	-0.250139
H154	H	1.402487	-0.571183	0.249861
C155	C	1.066246	-0.927306	-0.414070
C156	C	1.566246	-0.427306	0.085930
H157	H	1.093274	-0.959719	-0.441090
H158	H	1.593274	-0.459719	0.058910
H159	H	1.039233	-0.898619	-0.442460
H160	H	1.539233	-0.398619	0.057540
H161	H	1.094640	-0.898645	-0.387072
H162	H	1.594640	-0.398645	0.112928
H163	H	0.380992	-0.420912	-0.263966
H164	H	0.880992	0.079088	0.236034
H165	H	1.085271	-0.741059	-0.433201
H166	H	1.585271	-0.241059	0.066799
H167	H	1.059464	-1.071153	-0.407231
H168	H	1.559464	-0.571153	0.092769
H169	H	1.072927	-0.420854	-0.955674
H170	H	1.572927	0.079146	-0.455674
C171	C	0.598919	-0.433780	-0.252093
C172	C	1.098919	0.066220	0.247907
H173	H	0.551505	-0.427322	-0.258033
H174	H	1.051505	0.072678	0.241967
H175	H	0.612342	-0.481048	-0.263888
H176	H	1.112342	0.018952	0.236112
H177	H	0.610121	-0.423563	-0.206204
H178	H	1.110121	0.076437	0.293796
C179	C	1.085841	-0.433749	-1.094491
C180	C	1.585841	0.066251	-0.594491
H181	H	1.112633	-0.460568	-1.064315
H182	H	1.612633	0.039432	-0.564315
H183	H	1.061129	-0.464397	-1.123254
H184	H	1.561129	0.035603	-0.623254
H185	H	1.114321	-0.406851	-1.121017
H186	H	1.614321	0.093149	-0.621017
H187	H	0.909636	-0.257388	-0.949588
H188	H	1.409636	0.242612	-0.449588
C189	C	1.092053	-0.597195	-0.440039
C190	C	1.592053	-0.097195	0.059961
H191	H	1.083949	-0.548157	-0.431960
H192	H	1.583949	-0.048157	0.068040
H193	H	1.138004	-0.609246	-0.430606
H194	H	1.638004	-0.109246	0.069394
H195	H	1.082582	-0.609230	-0.485979
H196	H	1.582582	-0.109230	0.014021
H197	H	0.909551	-0.257363	-0.722066
H198	H	1.409551	0.242637	-0.222066
H199	H	1.072793	-0.420805	-0.599913
H200	H	1.572793	0.079195	-0.099913
C201	C	0.896641	-0.244470	-0.583235
C202	C	1.396641	0.255530	-0.083235
H203	H	0.903062	-0.250921	-0.536315
H204	H	1.403062	0.249079	-0.036315
H205	H	0.904750	-0.197191	-0.593010
H206	H	1.404750	0.302809	-0.093010
H207	H	0.851557	-0.254736	-0.595249
H208	H	1.351557	0.245264	-0.095249
C209	C	0.747360	-0.433768	-0.252077
C210	C	1.247360	0.066232	0.247923
H211	H	0.794268	-0.427313	-0.258017
H212	H	1.294268	0.072687	0.241983
H213	H	0.735393	-0.423555	-0.206194
H214	H	1.235393	0.076445	0.293806
H215	H	0.737613	-0.481042	-0.263875
H216	H	1.237613	0.018958	0.236125
C217	C	0.243160	-0.433805	-0.252121
C218	C	0.743160	0.066195	0.247879
H219	H	0.195745	-0.427348	-0.258059
H220	H	0.695745	0.072652	0.241941
H221	H	0.256582	-0.481074	-0.263911
H222	H	0.756582	0.018926	0.236089
H223	H	0.254364	-0.423584	-0.206233
H224	H	0.754364	0.076416	0.293767
H225	H	0.246324	-0.257301	-0.414518
H226	H	0.746324	0.242699	0.085482
H227	H	0.730326	-0.257261	-0.414464
H228	H	1.230326	0.242739	0.085536
H229	H	0.923131	-0.607734	-0.270976
H230	H	1.423131	-0.107734	0.229024
C231	C	0.916351	-0.751582	-0.264139
C232	C	1.416351	-0.251582	0.235861
H233	H	0.889335	-0.719170	-0.237104
H234	H	1.389335	-0.219170	0.262896
H235	H	0.887955	-0.780247	-0.291124
H236	H	1.387955	-0.280247	0.208876
H237	H	0.943379	-0.780265	-0.235753
H238	H	1.443379	-0.280265	0.264247
