data_functionalizedCrystal
_audit_creation_method	'MofGen! by Chris Wilmer'
_symmetry_space_group_name_H-M	'P1'
_symmetry_Int_Tables_number	1
_symmetry_cell_setting	triclinic
loop_
_symmetry_equiv_pos_as_xyz
  x,y,z
_cell_length_a	24.447405
_cell_length_b	24.446649
_cell_length_c	24.443239
_cell_angle_alpha	60.006064
_cell_angle_beta	60.011844
_cell_angle_gamma	59.992812
loop_
_atom_site_label
_atom_site_type_symbol
_atom_site_fract_x
_atom_site_fract_y
_atom_site_fract_z
O1	O	0.075907	-0.799232	0.668277
O2	O	0.575907	-0.299232	1.168277
O3	O	0.028634	-0.622262	0.538455
O4	O	0.528634	-0.122262	1.038455
O5	O	0.140702	-0.734230	0.538349
O6	O	0.640702	-0.234230	1.038349
O7	O	-0.036160	-0.687265	0.668384
O8	O	0.463840	-0.187265	1.168384
O9	O	0.177886	-0.697056	0.575424
O10	O	0.677886	-0.197056	1.075424
O11	O	0.065818	-0.585088	0.575530
O12	O	0.565818	-0.085088	1.075530
O13	O	0.113091	-0.762059	0.705353
O14	O	0.613091	-0.262059	1.205353
Cu15	Cu	0.092850	-0.670179	0.643827
Cu16	Cu	0.592850	-0.170179	1.143827
Cu17	Cu	0.048876	-0.714142	0.599981
Cu18	Cu	0.548876	-0.214142	1.099981
O19	O	0.001024	-0.650091	0.705459
O20	O	0.501024	-0.150091	1.205459
N21	N	0.123780	-0.639263	0.674669
N22	N	0.623780	-0.139263	1.174669
N23	N	0.017951	-0.745064	0.569139
N24	N	0.517951	-0.245064	1.069139
C25	C	0.170236	-0.489965	0.721065
C26	C	0.670236	0.010035	1.221065
C27	C	0.170249	-0.592837	0.721058
C28	C	0.670249	-0.092837	1.221058
C29	C	0.195989	-0.567121	0.746758
C30	C	0.695989	-0.067121	1.246758
C31	C	0.308182	-0.547773	0.687664
C32	C	0.808182	-0.047773	1.187664
C33	C	0.378316	-0.571143	0.664253
C34	C	0.878316	-0.071143	1.164253
C35	C	0.378353	-0.684626	0.707525
C36	C	0.878353	-0.184626	1.207525
C37	C	0.308220	-0.661254	0.730938
C38	C	0.808220	-0.161254	1.230938
C39	C	0.187125	-0.454882	0.652117
C40	C	0.687125	0.045118	1.152117
C41	C	0.163710	-0.384741	0.628763
C42	C	0.663710	0.115259	1.128763
C43	C	0.106523	-0.384772	0.743308
C44	C	0.606523	0.115228	1.243308
C45	C	0.129938	-0.454913	0.766662
C46	C	0.629938	0.045087	1.266662
C47	C	0.101291	-0.575906	0.738041
C48	C	0.601291	-0.075906	1.238041
C49	C	0.077897	-0.599283	0.714670
C50	C	0.577897	-0.099283	1.214670
C51	C	0.192412	-0.656523	0.657348
C52	C	0.692412	-0.156523	1.157348
C53	C	0.215809	-0.633146	0.680711
C54	C	0.715809	-0.133146	1.180711
C55	C	0.101393	-0.575928	0.859014
C56	C	0.601393	-0.075928	1.359014
C57	C	0.078071	-0.599328	0.929152
C58	C	0.578071	-0.099328	1.429152
C59	C	0.192636	-0.656582	0.929078
C60	C	0.692636	-0.156582	1.429078
C61	C	0.215955	-0.633184	0.858938
C62	C	0.715955	-0.133184	1.358938
C63	C	0.170332	-0.592855	0.823908
C64	C	0.670332	-0.092855	1.323908
C65	C	0.273137	-0.592827	0.721004
C66	C	0.773137	-0.092827	1.221004
C67	C	-0.131205	-0.791294	0.522327
C68	C	0.368795	-0.291294	1.022327
C69	C	-0.028388	-0.791420	0.522551
C70	C	0.471612	-0.291420	1.022551
C71	C	-0.054056	-0.817099	0.496741
C72	C	0.445944	-0.317099	0.996741
C73	C	-0.073479	-0.929255	0.555734
C74	C	0.426521	-0.429255	1.055734
C75	C	-0.050156	-0.999396	0.579142
C76	C	0.449844	-0.499396	1.079142
C77	C	0.063326	-0.999525	0.536064
C78	C	0.563326	-0.499525	1.036064
C79	C	0.040001	-0.929386	0.512654
C80	C	0.540001	-0.429386	1.012654
C81	C	-0.166365	-0.808188	0.591256
C82	C	0.333635	-0.308188	1.091256
C83	C	-0.236499	-0.784726	0.614512
C84	C	0.263501	-0.284726	1.114512
C85	C	-0.236309	-0.727482	0.499907
C86	C	0.263691	-0.227482	0.999907
C87	C	-0.166175	-0.750944	0.476651
C88	C	0.333825	-0.250944	0.976651
C89	C	-0.045285	-0.722468	0.505590
C90	C	0.454715	-0.222468	1.005590
C91	C	-0.021951	-0.699130	0.529061
C92	C	0.478049	-0.199130	1.029061
C93	C	0.035176	-0.813691	0.586439
C94	C	0.535176	-0.313691	1.086439
C95	C	0.011842	-0.837031	0.562976
C96	C	0.511842	-0.337031	1.062976
C97	C	-0.045097	-0.722476	0.384488
C98	C	0.454903	-0.222476	0.884488
C99	C	-0.021613	-0.699140	0.314350
C100	C	0.478387	-0.199140	0.814350
C101	C	0.035607	-0.813706	0.314419
C102	C	0.535607	-0.313706	0.814419
C103	C	0.012124	-0.837041	0.384558
C104	C	0.512124	-0.337041	0.884558
C105	C	-0.028229	-0.791425	0.419591
C106	C	0.471771	-0.291425	0.919591
C107	C	-0.028402	-0.894253	0.522492
C108	C	0.471598	-0.394253	1.022492
N109	N	0.412405	-0.639229	0.674505
N110	N	0.912405	-0.139229	1.174505
O111	O	0.626552	-0.645384	0.514503
O112	O	1.126552	-0.145384	1.014503
O113	O	0.626802	-0.775625	0.691288
O114	O	1.126802	-0.275625	1.191288
O115	O	0.626698	-0.775326	0.579168
O116	O	1.126698	-0.275326	1.079168
O117	O	0.626656	-0.645683	0.626623
O118	O	1.126656	-0.145683	1.126623
O119	O	0.515277	-0.738265	0.616407
O120	O	1.015277	-0.238265	1.116407
O121	O	0.515382	-0.738564	0.728527
O122	O	1.015382	-0.238564	1.228527
O123	O	0.515131	-0.608323	0.551742
O124	O	1.015131	-0.108323	1.051742
Cu125	Cu	0.505083	-0.670059	0.643535
Cu126	Cu	1.005083	-0.170059	1.143535
Cu127	Cu	0.636850	-0.713889	0.599495
Cu128	Cu	1.136850	-0.213889	1.099495
O129	O	0.515236	-0.608622	0.663862
O130	O	1.015236	-0.108622	1.163862
N131	N	0.729529	-0.744719	0.568518
N132	N	1.229529	-0.244719	1.068518
N133	N	0.123755	-0.350686	0.674680
N134	N	0.623755	0.149314	1.174680
O135	O	-0.036153	-0.136410	0.668391
O136	O	0.463847	0.363590	1.168391
O137	O	0.140633	-0.136380	0.538141
O138	O	0.640633	0.363620	1.038141
O139	O	0.028472	-0.136412	0.538488
O140	O	0.528472	0.363588	1.038488
O141	O	0.076007	-0.136377	0.668044
O142	O	0.576007	0.363623	1.168044
O143	O	0.065663	-0.247842	0.575621
O144	O	0.565663	0.252158	1.075621
O145	O	0.177823	-0.247810	0.575274
O146	O	0.677823	0.252190	1.075274
O147	O	0.001037	-0.247840	0.705524
O148	O	0.501037	0.252160	1.205524
Cu149	Cu	0.092826	-0.258000	0.643789
Cu150	Cu	0.592826	0.242000	1.143789
Cu151	Cu	0.048844	-0.126220	0.599875
Cu152	Cu	0.548844	0.373780	1.099875
O153	O	0.113198	-0.247808	0.705177
O154	O	0.613198	0.252192	1.205177
N155	N	0.017907	-0.033534	0.568986
N156	N	0.517907	0.466466	1.068986
N157	N	0.124013	-0.639306	0.963182
N158	N	0.624013	-0.139306	1.463182
O159	O	0.117754	-0.799195	1.177439
O160	O	0.617754	-0.299195	1.677439
O161	O	-0.012458	-0.622342	1.177485
O162	O	0.487542	-0.122342	1.677485
O163	O	-0.012155	-0.734480	1.177444
O164	O	0.487845	-0.234480	1.677444
O165	O	0.117450	-0.687057	1.177480
O166	O	0.617450	-0.187057	1.677480
O167	O	0.024954	-0.697317	1.066020
O168	O	0.524954	-0.197317	1.566020
O169	O	0.024650	-0.585179	1.066061
O170	O	0.524650	-0.085179	1.566061
O171	O	0.154862	-0.762032	1.066014
O172	O	0.654862	-0.262032	1.566014
Cu173	Cu	0.093145	-0.670212	1.055863
Cu174	Cu	0.593145	-0.170212	1.555863
Cu175	Cu	0.049259	-0.714162	1.187636
Cu176	Cu	0.549259	-0.214162	1.687636
O177	O	0.154559	-0.649894	1.066055
O178	O	0.654559	-0.149894	1.566055
N179	N	0.018389	-0.745075	1.280318
N180	N	0.518389	-0.245075	1.780318
C181	C	0.042795	-0.581375	0.539107
C182	C	0.542795	-0.081375	1.039107
C183	C	0.181576	-0.720034	0.538975
C184	C	0.681576	-0.220034	1.038975
C185	C	0.098930	-0.802946	0.704700
C186	C	0.598930	-0.302946	1.204700
C187	C	-0.039851	-0.664287	0.704832
C188	C	0.460149	-0.164287	1.204832
C189	C	0.571122	-0.775030	0.732180
C190	C	1.071122	-0.275030	1.232180
C191	C	0.570995	-0.774660	0.593332
C192	C	1.070995	-0.274660	1.093332
C193	C	0.570808	-0.608917	0.510851
C194	C	1.070808	-0.108917	1.010851
C195	C	0.570939	-0.609288	0.649698
C196	C	1.070939	-0.109288	1.149698
C197	C	0.181453	-0.191954	0.538725
C198	C	0.681453	0.308046	1.038725
C199	C	0.042602	-0.192131	0.539201
C200	C	0.542602	0.307869	1.039201
C201	C	-0.039829	-0.192128	0.704893
C202	C	0.460171	0.307872	1.204893
C203	C	0.099069	-0.192090	0.704464
C204	C	0.599069	0.307910	1.204464
C205	C	-0.011836	-0.581480	1.121779
C206	C	0.488164	-0.081480	1.621779
C207	C	-0.011453	-0.720342	1.121706
C208	C	0.488547	-0.220342	1.621706
C209	C	0.154240	-0.802894	1.121720
C210	C	0.654240	-0.302894	1.621720
C211	C	0.153865	-0.664024	1.121769
C212	C	0.653865	-0.164024	1.621769
H213	H	0.021932	-0.585534	0.957726
H214	H	0.521932	-0.085534	1.457726
H215	H	-0.090650	-0.654278	0.745664
H216	H	0.409350	-0.154278	1.245664
N217	N	0.571016	-0.828606	0.579881
N218	N	1.071016	-0.328606	1.079881
H219	H	0.529748	-0.841633	0.612754
H220	H	1.029748	-0.341633	1.112754
H221	H	0.612382	-0.869074	0.585134
H222	H	1.112382	-0.369074	1.085134
N223	N	0.079119	-0.862905	0.276635
N224	N	0.579119	-0.362905	0.776635
H225	H	0.053827	-0.891965	0.288785
H226	H	0.553827	-0.391965	0.788785
H227	H	0.121240	-0.892007	0.288946
H228	H	0.621240	-0.392007	0.788946
H229	H	0.232119	-0.191636	0.497733
H230	H	0.732119	0.308364	0.997733
H231	H	0.272095	-0.646975	0.830359
H232	H	0.772095	-0.146975	1.330359
N233	N	0.248858	-0.733288	0.484879
N234	N	0.748858	-0.233288	0.984879
H235	H	0.278771	-0.780430	0.502122
H236	H	0.778771	-0.280430	1.002122
H237	H	0.270172	-0.700338	0.471899
H238	H	0.770172	-0.200338	0.971899
H239	H	-0.052716	-0.530687	1.121793
H240	H	0.447284	-0.030687	1.621793
H241	H	0.109031	-0.853782	0.745475
H242	H	0.609031	-0.353782	1.245475
H243	H	0.064189	-0.543085	0.770891
H244	H	0.564189	-0.043085	1.270891
N245	N	0.029113	-0.192220	0.485334
N246	N	0.529113	0.307780	0.985334
H247	H	-0.009770	-0.150946	0.474233
H248	H	0.490230	0.349054	0.974233
H249	H	0.017857	-0.233588	0.501893
H250	H	0.517857	0.266412	1.001893
H251	H	0.571186	-0.815915	0.782955
H252	H	1.071186	-0.315915	1.282955
H253	H	-0.052152	-0.730472	1.121651
H254	H	0.447848	-0.230472	1.621651
N255	N	-0.107076	-0.192143	0.759063
N256	N	0.392924	0.307857	1.259063
H257	H	-0.137044	-0.192155	0.741906
H258	H	0.362956	0.307845	1.241906
H259	H	-0.128351	-0.150832	0.772003
H260	H	0.371649	0.349168	1.272003
H261	H	0.109248	-0.192079	0.745165
H262	H	0.609248	0.307921	1.245165
H263	H	0.195123	-0.853684	1.121698
H264	H	0.695123	-0.353684	1.621698
N265	N	0.570703	-0.554748	0.443604
N266	N	1.070703	-0.054748	0.943604
H267	H	0.570686	-0.571926	0.413655
H268	H	1.070686	-0.071926	0.913655
H269	H	0.611983	-0.541771	0.422301
H270	H	1.111983	-0.041771	0.922301
N271	N	0.030325	-0.911411	0.422419
N272	N	0.530325	-0.411411	0.922419
H273	H	0.059449	-0.936765	0.389581
H274	H	0.559449	-0.436765	0.889581
H275	H	-0.011879	-0.923551	0.451449
H276	H	0.488121	-0.423551	0.951449
H277	H	0.194582	-0.653876	1.121771
H278	H	0.694582	-0.153876	1.621771
N279	N	0.570926	-0.555340	0.663139
N280	N	1.070926	-0.055340	1.163139
H281	H	0.570983	-0.572725	0.710288
H282	H	1.070983	-0.072725	1.210288
H283	H	0.529587	-0.514852	0.657837
H284	H	1.029587	-0.014852	1.157837
H285	H	0.064236	-0.543084	0.830495
H286	H	0.564236	-0.043084	1.330495
H287	H	0.229790	-0.689406	0.957592
H288	H	0.729790	-0.189406	1.457592
H289	H	0.021747	-0.585481	0.728482
H290	H	0.521747	-0.085481	1.228482
H291	H	0.229515	-0.689349	0.624505
H292	H	0.729515	-0.189349	1.124505
H293	H	-0.129177	-0.900656	0.563750
H294	H	0.370823	-0.400656	1.063750
N295	N	0.290182	-0.651401	0.662410
N296	N	0.790182	-0.151401	1.162410
H297	H	0.302405	-0.609241	0.637115
H298	H	0.802405	-0.109241	1.137115
H299	H	0.315455	-0.680502	0.633331
H300	H	0.815455	-0.180502	1.133331
N301	N	0.270419	-0.709850	0.766901
N302	N	0.770419	-0.209850	1.266901
H303	H	0.303289	-0.756744	0.769636
H304	H	0.803289	-0.256744	1.269636
H305	H	0.241290	-0.697336	0.741508
H306	H	0.741290	-0.197336	1.241508
H307	H	0.406920	-0.740344	0.715602
H308	H	0.906920	-0.240344	1.215602
H309	H	0.279622	-0.492055	0.679573
H310	H	0.779622	0.007945	1.179573
N311	N	0.416118	-0.522552	0.628301
N312	N	0.916118	-0.022552	1.128301
H313	H	0.383250	-0.475657	0.625561
H314	H	0.883250	0.024343	1.125561
H315	H	0.445192	-0.524489	0.581595
H316	H	0.945192	-0.024489	1.081595
N317	N	-0.088624	-0.673278	0.422279
N318	N	0.411376	-0.173278	0.922279
H319	H	-0.130754	-0.644137	0.409985
H320	H	0.369246	-0.144137	0.909985
H321	H	-0.063289	-0.644256	0.410118
H322	H	0.436711	-0.144256	0.910118
H323	H	0.177459	-0.356175	0.572617
H324	H	0.677459	0.143825	1.072617
N325	N	0.230589	-0.492688	0.602939
N326	N	0.730589	0.007312	1.102939
H327	H	0.205281	-0.480482	0.573857
H328	H	0.705281	0.019518	1.073857
H329	H	0.242853	-0.542433	0.628243
H330	H	0.742853	-0.042433	1.128243
N331	N	0.063067	-0.346962	0.792486
N332	N	0.563067	0.153038	1.292486
H333	H	0.020912	-0.359182	0.821615
H334	H	0.520912	0.140818	1.321615
H335	H	0.050845	-0.297217	0.767178
H336	H	0.550845	0.202783	1.267178
N337	N	0.111721	-0.492758	0.841032
N338	N	0.611721	0.007242	1.341032
H339	H	0.082638	-0.459910	0.866373
H340	H	0.582638	0.040090	1.366373
H341	H	0.153921	-0.521856	0.853201
H342	H	0.653921	-0.021856	1.353201
N343	N	0.029415	-0.514037	0.485097
N344	N	0.529415	-0.014037	0.985097
H345	H	0.034723	-0.520184	0.444599
H346	H	0.534723	-0.020184	0.944599
H347	H	0.062298	-0.492658	0.472143
H348	H	0.562298	0.007342	0.972143
N349	N	-0.039816	-0.624768	0.276501
N350	N	0.460184	-0.124768	0.776501
H351	H	-0.090119	-0.603752	0.288621
H352	H	0.409881	-0.103752	0.788621
H353	H	-0.018778	-0.616956	0.226765
H354	H	0.481222	-0.116956	0.726765
N355	N	-0.040184	-0.624761	0.510787
N356	N	0.459816	-0.124761	1.010787
H357	H	-0.069212	-0.599406	0.481619
H358	H	0.430788	-0.099406	0.981619
H359	H	0.002011	-0.612617	0.485594
H360	H	0.502011	-0.112617	0.985594
H361	H	-0.078038	-0.685325	0.472673
H362	H	0.421962	-0.185325	0.972673
H363	H	0.025599	-0.893178	0.576787
H364	H	0.525599	-0.393178	1.076787
N365	N	0.078556	-0.862891	0.630046
N366	N	0.578556	-0.362891	1.130046
H367	H	0.120744	-0.892045	0.604831
H368	H	0.620744	-0.392045	1.104831
H369	H	0.053154	-0.891899	0.672172
H370	H	0.553154	-0.391899	1.172172
N371	N	0.088617	-0.891626	0.476800
N372	N	0.588617	-0.391626	0.976800
H373	H	0.122820	-0.903868	0.435382
H374	H	0.622820	-0.403868	0.935382
H375	H	0.112096	-0.903866	0.507583
H376	H	0.612096	-0.403866	1.007583
N377	N	0.137104	-1.037422	0.525462
N378	N	0.637104	-0.537422	1.025462
H379	H	0.163188	-1.025254	0.475896
H380	H	0.663188	-0.525254	0.975896
H381	H	0.144979	-1.087155	0.545375
H382	H	0.644979	-0.587155	1.045375
N383	N	-0.098770	-1.037152	0.614985
N384	N	0.401230	-0.537152	1.114985
H385	H	-0.145643	-1.004252	0.617664
H386	H	0.354357	-0.504252	1.117664
H387	H	-0.096902	-1.066250	0.661714
H388	H	0.403098	-0.566250	1.161714
H389	H	-0.137894	-0.841050	0.628449
H390	H	0.362106	-0.341050	1.128449
H391	H	-0.265127	-0.798479	0.670643
H392	H	0.234873	-0.298479	1.170643
H393	H	-0.137547	-0.737181	0.420520
H394	H	0.362453	-0.237181	0.920520
N395	N	-0.274033	-0.683974	0.450647
N396	N	0.225967	-0.183974	0.950647
H397	H	-0.241117	-0.676840	0.403450
H398	H	0.258883	-0.176840	0.903450
H399	H	-0.303118	-0.639275	0.457812
H400	H	0.196882	-0.139275	0.957812
