data_functionalizedCrystal
_audit_creation_method	'MofGen! by Chris Wilmer'
_symmetry_space_group_name_H-M	'P1'
_symmetry_Int_Tables_number	1
_symmetry_cell_setting	triclinic
loop_
_symmetry_equiv_pos_as_xyz
  x,y,z
_cell_length_a	12.759400
_cell_length_b	18.215407
_cell_length_c	18.215399
_cell_angle_alpha	89.985640
_cell_angle_beta	89.974431
_cell_angle_gamma	90.011889
loop_
_atom_site_label
_atom_site_type_symbol
_atom_site_fract_x
_atom_site_fract_y
_atom_site_fract_z
Zn1	Zn	-0.418324	1.125103	-0.416092
Zn2	Zn	0.081676	1.625103	0.083908
Zn3	Zn	-0.594029	1.125041	-0.293036
Zn4	Zn	-0.094029	1.625041	0.206964
Zn5	Zn	-0.418356	1.002042	-0.293045
Zn6	Zn	0.081644	1.502042	0.206955
Zn7	Zn	-0.593953	1.002024	-0.416066
Zn8	Zn	-0.093953	1.502024	0.083934
O9	O	-0.506166	1.063553	-0.354560
O10	O	-0.006166	1.563553	0.145440
O11	O	-0.441649	1.228079	-0.399775
O12	O	0.058351	1.728079	0.100225
O13	O	-0.570770	1.108706	-0.190053
O14	O	-0.070770	1.608706	0.309947
O15	O	-0.271331	1.018401	-0.309382
O16	O	0.228669	1.518401	0.190618
O17	O	-0.570739	1.228033	-0.309367
O18	O	-0.070739	1.728033	0.190633
O19	O	-0.271307	1.108813	-0.399784
O20	O	0.228693	1.608813	0.100216
O21	O	-0.441705	1.018340	-0.190059
O22	O	0.058295	1.518340	0.309941
O23	O	-0.441632	0.899056	-0.309357
O24	O	0.058368	1.399056	0.190643
O25	O	-0.570611	1.018370	-0.519054
O26	O	-0.070611	1.518370	-0.019054
O27	O	-0.570642	0.899042	-0.399740
O28	O	-0.070642	1.399042	0.100260
O29	O	-0.441576	1.108795	-0.519073
O30	O	0.058424	1.608795	-0.019073
O31	O	-0.741040	1.108689	-0.309342
O32	O	-0.241040	1.608689	0.190658
O33	O	-0.740984	1.018309	-0.399732
O34	O	-0.240984	1.518309	0.100268
C35	C	-0.506133	0.872347	-0.354547
C36	C	-0.006133	1.372347	0.145453
C37	C	-0.506145	0.790548	-0.354559
C38	C	-0.006145	1.290548	0.145441
C39	C	-0.439066	0.602377	-0.401709
C40	C	0.060934	1.102377	0.098291
C41	C	-0.439075	0.525518	-0.401711
C42	C	0.060925	1.025518	0.098289
C43	C	-0.573294	0.525481	-0.307423
C44	C	-0.073294	1.025481	0.192577
C45	C	-0.573279	0.602338	-0.307418
C46	C	-0.073279	1.102338	0.192582
C47	C	-0.506167	0.640784	-0.354565
C48	C	-0.006167	1.140784	0.145435
C49	C	-0.506191	0.487068	-0.354573
C50	C	-0.006191	0.987068	0.145427
C51	C	-0.506201	0.403734	-0.354575
C52	C	-0.006201	0.903734	0.145425
C53	C	-0.506155	0.724123	-0.354562
C54	C	-0.006155	1.224123	0.145438
C55	C	-0.779133	1.063510	-0.354549
C56	C	-0.279133	1.563510	0.145451
C57	C	-0.895910	1.063559	-0.354569
C58	C	-0.395910	1.563559	0.145431
C59	C	-1.060506	1.016527	-0.401611
C60	C	-0.560506	1.516527	0.098389
C61	C	-0.950782	1.016486	-0.401599
C62	C	-0.450782	1.516486	0.098401
C63	C	-0.950767	1.110680	-0.307554
C64	C	-0.450767	1.610680	0.192446
C65	C	-1.060489	1.110724	-0.307570
C66	C	-0.560489	1.610724	0.192430
C67	C	-1.115372	0.969445	-0.448639
C68	C	-0.615372	1.469445	0.051361
C69	C	-1.060523	0.922325	-0.495656
C70	C	-0.560523	1.422325	0.004344
C71	C	-0.950799	0.922285	-0.495643
C72	C	-0.450799	1.422285	0.004357
C73	C	-0.895924	0.969365	-0.448614
C74	C	-0.395924	1.469365	0.051386
C75	C	-0.232132	1.063616	-0.354587
C76	C	0.267868	1.563616	0.145413
C77	C	-0.115356	1.063643	-0.354598
C78	C	0.384644	1.563643	0.145402
C79	C	-0.506082	1.063588	-0.546513
C80	C	-0.006082	1.563588	-0.046513
C81	C	-0.506046	1.063602	-0.628312
C82	C	-0.006046	1.563602	-0.128312
C83	C	-0.506199	1.255506	-0.354573
C84	C	-0.006199	1.755506	0.145427
C85	C	-0.506213	1.337305	-0.354579
C86	C	-0.006213	1.837305	0.145421
C87	C	-0.438796	1.016588	-0.816510
C88	C	0.061204	1.516588	-0.316510
C89	C	-0.438775	1.016601	-0.893369
C90	C	0.061225	1.516601	-0.393369
C91	C	-0.573170	1.110704	-0.893351
C92	C	-0.073170	1.610704	-0.393351
C93	C	-0.573196	1.110687	-0.816494
C94	C	-0.073196	1.610687	-0.316494
C95	C	-0.506003	1.063630	-0.778075
C96	C	-0.006003	1.563630	-0.278075
C97	C	-0.505956	1.063660	-0.931791
C98	C	-0.005956	1.563660	-0.431791
C99	C	-0.505934	1.063674	-1.015125
C100	C	-0.005934	1.563674	-0.515125
C101	C	-0.506026	1.063615	-0.694736
C102	C	-0.006026	1.563615	-0.194736
C103	C	-0.506173	1.063560	-0.163353
C104	C	-0.006173	1.563560	0.336647
C105	C	-0.505913	1.063688	-0.081555
C106	C	-0.005913	1.563688	0.418445
H107	H	-0.384433	0.494250	-0.440100
H108	H	0.115567	0.994250	0.059900
H109	H	-0.384083	0.978272	-0.785232
H110	H	0.115917	1.478272	-0.285232
H111	H	-0.627876	1.149017	-0.924641
H112	H	-0.127876	1.649017	-0.424641
H113	H	-0.384415	0.633677	-0.440097
H114	H	0.115585	1.133677	0.059903
H115	H	-0.806580	0.969333	-0.448613
H116	H	-0.306580	1.469333	0.051387
H117	H	-0.627928	1.148996	-0.785200
H118	H	-0.127928	1.648996	-0.285200
H119	H	-0.627922	0.633610	-0.269023
H120	H	-0.127922	1.133610	0.230977
C121	C	-0.647121	0.483183	-0.255569
C122	C	-0.147121	0.983183	0.244431
N123	N	-0.702731	0.451325	-0.216514
N124	N	-0.202731	0.951325	0.283486
C125	C	-1.236071	0.969485	-0.448656
C126	C	-0.736071	1.469485	0.051344
N127	N	-1.326981	0.969514	-0.448667
N128	N	-0.826981	1.469514	0.051333
H129	H	-1.105208	0.883998	-0.533949
H130	H	-0.605208	1.383998	-0.033949
H131	H	-0.906141	0.883922	-0.533931
H132	H	-0.406141	1.383922	-0.033931
H133	H	-0.906081	1.149011	-0.269264
H134	H	-0.406081	1.649011	0.230736
C135	C	-1.120827	1.162552	-0.255851
C136	C	-0.620827	1.662552	0.244149
N137	N	-1.166274	1.201592	-0.216897
N138	N	-0.666274	1.701592	0.283103
H139	H	-0.384049	0.978294	-0.924659
H140	H	0.115951	1.478294	-0.424659
