data_functionalizedCrystal
_audit_creation_method	'MofGen! by Chris Wilmer'
_symmetry_space_group_name_H-M	'P1'
_symmetry_Int_Tables_number	1
_symmetry_cell_setting	triclinic
loop_
_symmetry_equiv_pos_as_xyz
  x,y,z
_cell_length_a	18.215407
_cell_length_b	18.215405
_cell_length_c	17.077396
_cell_angle_alpha	90.028580
_cell_angle_beta	90.017277
_cell_angle_gamma	90.020175
loop_
_atom_site_label
_atom_site_type_symbol
_atom_site_fract_x
_atom_site_fract_y
_atom_site_fract_z
Zn1	Zn	1.125082	-0.293034	0.443796
Zn2	Zn	1.458416	0.040299	0.777129
Zn3	Zn	1.791749	0.373632	1.110462
Zn4	Zn	1.124995	-0.416108	0.312529
Zn5	Zn	1.458329	-0.082775	0.645863
Zn6	Zn	1.791662	0.250559	0.979196
Zn7	Zn	1.002015	-0.293054	0.312549
Zn8	Zn	1.335348	0.040279	0.645882
Zn9	Zn	1.668682	0.373612	0.979215
Zn10	Zn	1.001985	-0.416058	0.443758
Zn11	Zn	1.335319	-0.082725	0.777091
Zn12	Zn	1.668652	0.250608	1.110425
O13	O	1.063520	-0.354564	0.378158
O14	O	1.396853	-0.021230	0.711491
O15	O	1.730186	0.312103	1.044825
O16	O	1.228055	-0.309373	0.426390
O17	O	1.561388	0.023960	0.759724
O18	O	1.894722	0.357294	1.093057
O19	O	1.108658	-0.399814	0.202685
O20	O	1.441991	-0.066480	0.536018
O21	O	1.775325	0.266853	0.869352
O22	O	1.018389	-0.190067	0.329983
O23	O	1.351722	0.143266	0.663316
O24	O	1.685056	0.476599	0.996649
O25	O	1.227991	-0.399794	0.329950
O26	O	1.561325	-0.066461	0.663283
O27	O	1.894658	0.266872	0.996616
O28	O	1.108806	-0.190053	0.426409
O29	O	1.442139	0.143280	0.759742
O30	O	1.775473	0.476614	1.093076
O31	O	1.018305	-0.309407	0.202699
O32	O	1.351638	0.023927	0.536032
O33	O	1.684971	0.357260	0.869366
O34	O	0.899027	-0.309359	0.329946
O35	O	1.232360	0.023975	0.663279
O36	O	1.565694	0.357308	0.996613
O37	O	1.018338	-0.399710	0.553610
O38	O	1.351672	-0.066377	0.886943
O39	O	1.685005	0.266957	1.220277
O40	O	0.899005	-0.399729	0.426345
O41	O	1.232338	-0.066396	0.759678
O42	O	1.565672	0.266938	1.093012
O43	O	1.108777	-0.309325	0.553638
O44	O	1.442110	0.024009	0.886971
O45	O	1.775444	0.357342	1.220304
O46	O	1.108629	-0.519086	0.329913
O47	O	1.441963	-0.185752	0.663247
O48	O	1.775296	0.147581	0.996580
O49	O	1.018254	-0.519049	0.426326
O50	O	1.351587	-0.185716	0.759660
O51	O	1.684921	0.147617	1.092993
C52	C	0.872313	-0.354541	0.378144
C53	C	1.205647	-0.021208	0.711477
C54	C	1.538980	0.312126	1.044811
C55	C	0.790514	-0.354549	0.378157
C56	C	1.123848	-0.021216	0.711490
C57	C	1.457181	0.312117	1.044824
C58	C	0.602353	-0.307564	0.428453
C59	C	0.935686	0.025770	0.761786
C60	C	1.269019	0.359103	1.095120
C61	C	0.525494	-0.307570	0.428456
C62	C	0.858827	0.025763	0.761789
C63	C	1.192161	0.359097	1.095122
C64	C	0.525438	-0.401585	0.327877
C65	C	0.858772	-0.068251	0.661210
C66	C	1.192105	0.265082	0.994543
C67	C	0.602296	-0.401574	0.327871
C68	C	0.935629	-0.068241	0.661204
C69	C	1.268962	0.265093	0.994537
C70	C	0.640751	-0.354565	0.378163
C71	C	0.974084	-0.021231	0.711497
C72	C	1.307418	0.312102	1.044830
C73	C	0.487035	-0.354581	0.378172
C74	C	0.820368	-0.021248	0.711505
C75	C	1.153701	0.312085	1.044839
C76	C	0.403701	-0.354589	0.378174
C77	C	0.737034	-0.021255	0.711508
C78	C	1.070368	0.312078	1.044841
C79	C	0.724090	-0.354556	0.378160
C80	C	1.057423	-0.021223	0.711493
C81	C	1.390757	0.312110	1.044827
C82	C	1.063449	-0.545770	0.378131
C83	C	1.396782	-0.212437	0.711464
C84	C	1.730116	0.120897	1.044798
C85	C	1.063486	-0.627569	0.378146
C86	C	1.396819	-0.294236	0.711479
C87	C	1.730153	0.039098	1.044812
C88	C	1.110589	-0.815694	0.428423
C89	C	1.443922	-0.482361	0.761756
C90	C	1.777255	-0.149028	1.095089
C91	C	1.110615	-0.892553	0.428438
C92	C	1.443949	-0.559220	0.761771
C93	C	1.777282	-0.225886	1.095104
C94	C	1.016541	-0.892681	0.327942
C95	C	1.349875	-0.559348	0.661275
C96	C	1.683208	-0.226015	0.994608
C97	C	1.016512	-0.815824	0.327931
C98	C	1.349845	-0.482491	0.661265
C99	C	1.683178	-0.149157	0.994598
C100	C	1.063539	-0.777332	0.378171
C101	C	1.396873	-0.443999	0.711504
C102	C	1.730206	-0.110666	1.044838
C103	C	1.063596	-0.931048	0.378196
C104	C	1.396929	-0.597715	0.711529
C105	C	1.730263	-0.264382	1.044862
C106	C	1.063625	-1.014382	0.378211
C107	C	1.396958	-0.681049	0.711545
C108	C	1.730291	-0.347715	1.044878
C109	C	1.063510	-0.693993	0.378157
C110	C	1.396843	-0.360660	0.711490
C111	C	1.730177	-0.027327	1.044823
C112	C	1.255472	-0.354587	0.378172
C113	C	1.588806	-0.021254	0.711505
C114	C	1.922139	0.312080	1.044839
C115	C	1.337271	-0.354597	0.378178
C116	C	1.670605	-0.021264	0.711512
C117	C	2.003938	0.312070	1.044845
C118	C	1.063564	-0.354510	0.582902
C119	C	1.396897	-0.021176	0.916236
C120	C	1.730231	0.312157	1.249569
C121	C	1.063583	-0.354486	0.670152
C122	C	1.396916	-0.021153	1.003485
C123	C	1.730250	0.312180	1.336819
C124	C	1.063610	-0.162611	0.378202
C125	C	1.396944	0.170722	0.711536
C126	C	1.730277	0.504056	1.044869
C127	C	1.063649	-0.080812	0.378221
C128	C	1.396982	0.252521	0.711554
C129	C	1.730316	0.585855	1.044888
C130	C	1.063518	-0.354565	0.174210
C131	C	1.396851	-0.021231	0.507543
C132	C	1.730184	0.312102	0.840877
C133	C	1.063641	-0.354380	0.086961
C134	C	1.396974	-0.021047	0.420294
C135	C	1.730308	0.312286	0.753627
C136	C	1.110676	-0.307419	0.711158
C137	C	1.444010	0.025914	1.044491
C138	C	1.777343	0.359248	1.377825
C139	C	1.110685	-0.307395	0.793138
C140	C	1.444018	0.025939	1.126472
C141	C	1.777352	0.359272	1.459805
C142	C	1.063604	-0.354442	0.834112
C143	C	1.396937	-0.021108	1.167445
C144	C	1.730271	0.312225	1.500778
C145	C	1.016506	-0.401511	0.793100
C146	C	1.349839	-0.068178	1.126433
C147	C	1.683172	0.265155	1.459767
C148	C	1.016494	-0.401531	0.711121
C149	C	1.349827	-0.068198	1.044454
C150	C	1.683160	0.265135	1.377788
C151	C	1.016535	-0.401467	0.963970
C152	C	1.349869	-0.068134	1.297304
C153	C	1.683202	0.265200	1.630637
C154	C	1.016548	-0.401448	1.045955
C155	C	1.349881	-0.068115	1.379288
C156	C	1.683215	0.265219	1.712622
C157	C	1.110727	-0.307330	1.045988
C158	C	1.444060	0.026003	1.379321
C159	C	1.777393	0.359337	1.712654
C160	C	1.110715	-0.307350	0.964009
C161	C	1.444048	0.025983	1.297342
C162	C	1.777381	0.359316	1.630675
C163	C	1.063617	-0.354421	0.923003
C164	C	1.396950	-0.021088	1.256336
C165	C	1.730284	0.312246	1.589669
H166	H	0.494119	-0.439859	0.286931
H167	H	0.827452	-0.106525	0.620264
H168	H	1.160786	0.226808	0.953598
F169	F	0.966493	-0.933653	0.274477
F170	F	1.299826	-0.600320	0.607811
F171	F	1.633160	-0.266986	0.941144
H172	H	0.633661	-0.269283	0.469402
H173	H	0.966994	0.064050	0.802735
H174	H	1.300327	0.397383	1.136069
F175	F	1.160852	-0.257234	1.089630
F176	F	1.494186	0.076099	1.422963
F177	F	1.827519	0.409433	1.756296
F178	F	0.643164	-0.451596	0.274336
F179	F	0.976498	-0.118262	0.607669
F180	F	1.309831	0.215071	0.941003
F181	F	0.966428	-0.774994	0.274448
F182	F	1.299761	-0.441661	0.607782
F183	F	1.633094	-0.108327	0.941115
F184	F	1.160791	-0.257348	0.667558
F185	F	1.494124	0.075986	1.000892
F186	F	1.827458	0.409319	1.334225
H187	H	1.148926	-0.923784	0.469359
H188	H	1.482259	-0.590450	0.802693
H189	H	1.815593	-0.257117	1.136026
F190	F	1.160828	-0.257282	0.920403
F191	F	1.494161	0.076052	1.253737
F192	F	1.827495	0.409385	1.587070
H193	H	1.149035	-0.269069	0.826522
H194	H	1.482368	0.064264	1.159855
H195	H	1.815701	0.397597	1.493188
F196	F	1.160638	-0.774731	0.481894
F197	F	1.493971	-0.441398	0.815227
F198	F	1.827305	-0.108065	1.148561
F199	F	0.966433	-0.451515	1.089560
F200	F	1.299766	-0.118181	1.422893
F201	F	1.633100	0.215152	1.756227
F202	F	0.966407	-0.451564	0.920331
F203	F	1.299740	-0.118230	1.253664
F204	F	1.633073	0.215103	1.586997
F205	F	0.966395	-0.451580	0.836709
F206	F	1.299728	-0.118246	1.170042
F207	F	1.633062	0.215087	1.503376
H208	H	0.494233	-0.269296	0.469405
H209	H	0.827567	0.064038	0.802739
H210	H	1.160900	0.397371	1.136072
F211	F	0.966369	-0.451625	0.667480
F212	F	1.299702	-0.118292	1.000813
F213	F	1.633035	0.215041	1.334147
