data_functionalizedCrystal
_audit_creation_method	'MofGen! by Chris Wilmer'
_symmetry_space_group_name_H-M	'P1'
_symmetry_Int_Tables_number	1
_symmetry_cell_setting	triclinic
loop_
_symmetry_equiv_pos_as_xyz
  x,y,z
_cell_length_a	21.395362
_cell_length_b	19.121063
_cell_length_c	21.395355
_cell_angle_alpha	87.579260
_cell_angle_beta	90.043940
_cell_angle_gamma	92.485681
loop_
_atom_site_label
_atom_site_type_symbol
_atom_site_fract_x
_atom_site_fract_y
_atom_site_fract_z
Zn1	Zn	0.947241	-0.279403	0.365205
Zn2	Zn	0.942680	-0.396839	0.264891
Zn3	Zn	0.842454	-0.279436	0.260407
Zn4	Zn	0.837961	-0.396853	0.369596
O5	O	0.892584	-0.338133	0.315025
O6	O	1.034314	-0.294962	0.351936
O7	O	0.929357	-0.381273	0.176618
O8	O	0.860144	-0.181145	0.270595
O9	O	1.030964	-0.381241	0.278236
O10	O	0.937130	-0.181121	0.347589
O11	O	0.855721	-0.295017	0.173324
O12	O	0.754180	-0.295031	0.274853
O13	O	0.852486	-0.381266	0.456691
O14	O	0.750879	-0.381297	0.355073
O15	O	0.932773	-0.294976	0.453465
O16	O	0.925000	-0.495127	0.282494
O17	O	0.848063	-0.495138	0.359420
C18	C	0.729795	-0.338170	0.314953
C19	C	0.660152	-0.338203	0.314938
C20	C	0.625735	-0.383181	0.356651
C21	C	0.560300	-0.383164	0.356679
C22	C	0.529285	-0.338176	0.314982
C23	C	0.563711	-0.293189	0.273266
C24	C	0.629145	-0.293202	0.273244
C25	C	0.425776	-0.332517	0.258362
C26	C	0.360343	-0.332509	0.258383
C27	C	0.327466	-0.338130	0.315049
C28	C	0.360030	-0.343774	0.371698
C29	C	0.425463	-0.343788	0.371676
C30	C	0.458334	-0.338156	0.315001
C31	C	0.222096	-0.383092	0.356795
C32	C	0.156661	-0.383070	0.356824
C33	C	0.160073	-0.293098	0.273405
C34	C	0.225508	-0.293117	0.273383
C35	C	0.256516	-0.338117	0.315077
C36	C	0.885566	-0.520617	0.321934
C37	C	0.882621	-0.598685	0.324911
C38	C	0.921325	-0.635332	0.286291
C39	C	0.918559	-0.708685	0.289094
C40	C	0.877085	-0.745389	0.330515
C41	C	0.838379	-0.708736	0.369139
C42	C	0.841149	-0.635385	0.366338
C43	C	0.866720	-0.966864	0.340976
C44	C	0.863952	-1.040221	0.343772
C45	C	0.944133	-1.040164	0.263728
C46	C	0.946896	-0.966812	0.260928
C47	C	0.908193	-0.930165	0.299555
C48	C	0.874256	-0.820367	0.333380
C49	C	0.911026	-0.855188	0.296692
C50	C	1.056009	-0.338096	0.315097
C51	C	1.125651	-0.338080	0.315127
C52	C	0.892637	-0.338119	0.478447
C53	C	0.892659	-0.338112	0.548089
C54	C	0.899647	-0.154936	0.308102
C55	C	0.902656	-0.076868	0.305152
C56	C	0.892570	-0.338096	0.152236
C57	C	0.892676	-0.337904	0.082588
C58	C	0.934463	-0.293179	0.579123
C59	C	0.934463	-0.293149	0.644557
C60	C	0.892666	-0.338065	0.678955
C61	C	0.850854	-0.383001	0.647913
C62	C	0.850851	-0.383025	0.582480
C63	C	0.885286	-0.401308	0.785023
C64	C	0.885294	-0.401285	0.850455
C65	C	0.892672	-0.337990	0.880773
C66	C	0.900056	-0.274717	0.845651
C67	C	0.900053	-0.274741	0.780218
C68	C	0.892664	-0.338043	0.749907
C69	C	0.934479	-0.293021	0.982759
C70	C	0.934475	-0.292989	1.048194
C71	C	0.850869	-0.382847	1.051549
C72	C	0.850870	-0.382872	0.986115
C73	C	0.892678	-0.337960	0.951723
H74	H	0.538455	-0.256558	0.239317
N75	N	0.977152	-0.247295	0.543984
N76	N	0.977141	-0.247315	0.485562
H77	H	1.007288	-0.214907	0.460743
H78	H	0.840486	-0.850260	0.367103
H79	H	0.944797	-0.825302	0.262970
H80	H	0.955095	-0.605453	0.252559
N81	N	0.327093	-0.326754	0.200515
N82	N	0.356452	-0.321728	0.149924
H83	H	0.332971	-0.317665	0.109053
H84	H	0.980668	-0.936929	0.227201
H85	H	0.950076	-0.738520	0.257645
N86	N	0.983658	-1.077600	0.224269
N87	N	0.960085	-1.118578	0.185879
H88	H	0.988001	-1.145018	0.158010
H89	H	0.816820	-0.419569	0.675924
N90	N	0.977170	-0.247078	1.079896
N91	N	0.975517	-0.182271	1.070119
H92	H	1.005671	-0.149844	1.092509
H93	H	0.830186	-1.070103	0.377512
N94	N	0.907596	-0.210108	0.744351
N95	N	0.914186	-0.153597	0.771422
H96	H	0.919512	-0.107948	0.746092
H97	H	0.968519	-0.256447	0.954755
N98	N	0.827182	-0.929448	0.380434
N99	N	0.790154	-0.962231	0.417411
H100	H	0.762228	-0.935804	0.445281
N101	N	0.808141	-0.428927	0.550786
N102	N	0.770819	-0.469024	0.581501
H103	H	0.740655	-0.501444	0.559117
N104	N	0.260669	-0.247189	0.230759
N105	N	0.296176	-0.271846	0.191718
H106	H	0.321008	-0.239407	0.161613
N107	N	0.801603	-0.597949	0.405777
N108	N	0.763230	-0.557080	0.382122
H109	H	0.735300	-0.530641	0.409978
N110	N	0.796023	-0.746237	0.411451
N111	N	0.793556	-0.811728	0.413947
H112	H	0.763640	-0.838213	0.443831
H113	H	0.968504	-0.256556	0.669830
H114	H	0.816830	-0.419411	1.079555
N115	N	0.877711	-0.465916	0.886318
N116	N	0.871084	-0.522420	0.859243
H117	H	0.865710	-0.568066	0.884569
N118	N	0.907593	-0.210063	0.876621
N119	N	0.907589	-0.210047	0.935043
H120	H	0.912912	-0.164388	0.956919
H121	H	0.816832	-0.419466	0.960847
N122	N	0.326451	-0.349502	0.429584
N123	N	0.335558	-0.304347	0.469557
H124	H	0.311839	-0.308394	0.510437
H125	H	0.650977	-0.419823	0.390603
N126	N	0.253765	-0.429061	0.399387
N127	N	0.223023	-0.469214	0.436632
H128	H	0.245387	-0.501681	0.466713
H129	H	0.879111	-0.452836	0.760343
H130	H	0.657168	-0.256574	0.239276
N131	N	0.121511	-0.429014	0.399445
N132	N	0.149208	-0.469185	0.436667
H133	H	0.124383	-0.501634	0.466770
H134	H	0.451974	-0.348381	0.417801
N135	N	0.525142	-0.429123	0.399286
N136	N	0.529926	-0.493927	0.397478
H137	H	0.505098	-0.526387	0.427569
N138	N	0.128392	-0.247140	0.230824
N139	N	0.069969	-0.247128	0.230851
H140	H	0.047590	-0.214666	0.200780
H141	H	0.452538	-0.327937	0.212214
