data_functionalizedCrystal
_audit_creation_method	'MofGen! by Chris Wilmer'
_symmetry_space_group_name_H-M	'P1'
_symmetry_Int_Tables_number	1
_symmetry_cell_setting	triclinic
loop_
_symmetry_equiv_pos_as_xyz
  x,y,z
_cell_length_a	23.532361
_cell_length_b	23.532407
_cell_length_c	22.010155
_cell_angle_alpha	90.000423
_cell_angle_beta	89.995873
_cell_angle_gamma	97.160827
loop_
_atom_site_label
_atom_site_type_symbol
_atom_site_fract_x
_atom_site_fract_y
_atom_site_fract_z
O1	O	0.755281	-0.069001	-0.050470
O2	O	1.255281	0.430999	0.449530
O3	O	0.589414	-0.079032	-0.050486
O4	O	1.089414	0.420968	0.449514
O5	O	0.677349	0.008916	-0.050466
O6	O	1.177349	0.508916	0.449534
O7	O	0.667346	-0.156949	-0.050490
O8	O	1.167346	0.343051	0.449510
O9	O	0.677333	0.008903	0.050584
O10	O	1.177333	0.508903	0.550584
O11	O	0.589398	-0.079045	0.050565
O12	O	1.089398	0.420955	0.550565
O13	O	0.755265	-0.069014	0.050580
O14	O	1.255265	0.430986	0.550580
Cu15	Cu	0.672330	-0.074030	0.059799
Cu16	Cu	1.172330	0.425970	0.559799
Cu17	Cu	0.672349	-0.074015	-0.059705
Cu18	Cu	1.172349	0.425985	0.440295
O19	O	0.667330	-0.156962	0.050561
O20	O	1.167330	0.343038	0.550561
C21	C	0.568189	-0.078787	0.000038
C22	C	1.068189	0.421213	0.500038
C23	C	0.504971	-0.078032	0.000032
C24	C	1.004971	0.421968	0.500032
C25	C	0.677086	0.030126	0.000060
C26	C	1.177086	0.530126	0.500060
C27	C	0.676320	0.093343	0.000065
C28	C	1.176320	0.593343	0.500065
C29	C	0.231736	-0.074721	-0.055046
C30	C	0.731736	0.425279	0.444954
C31	C	0.291136	-0.075436	-0.055048
C32	C	0.791136	0.424564	0.444952
O33	O	0.321869	-0.075780	-0.101892
O34	O	0.821869	0.424220	0.398108
N35	N	0.320832	-0.075804	0.000035
N36	N	0.820832	0.424196	0.500035
C37	C	0.291127	-0.075452	0.055123
C38	C	0.791127	0.424548	0.555123
O39	O	0.321841	-0.075830	0.101975
O40	O	0.821841	0.424170	0.601975
C41	C	0.231729	-0.074733	0.055124
C42	C	0.731729	0.425267	0.555124
C43	C	0.202035	-0.074370	0.000037
C44	C	0.702035	0.425630	0.500037
C45	C	0.202041	-0.074358	-0.110128
C46	C	0.702041	0.425642	0.389872
C47	C	0.142645	-0.073644	-0.110126
C48	C	0.642645	0.426356	0.389874
C49	C	0.112944	-0.073293	-0.055043
C50	C	0.612944	0.426707	0.444957
C51	C	0.142639	-0.073657	0.000039
C52	C	0.642639	0.426343	0.500039
C53	C	0.202026	-0.074376	0.110211
C54	C	0.702026	0.425624	0.610211
C55	C	0.142624	-0.073657	0.110207
C56	C	0.642624	0.426343	0.610207
C57	C	0.112929	-0.073294	0.055121
C58	C	0.612929	0.426706	0.555121
C59	C	0.053542	-0.072592	0.055125
C60	C	0.553542	0.427408	0.555125
N61	N	0.023845	-0.072224	0.000042
N62	N	0.523845	0.427776	0.500042
C63	C	0.053546	-0.072574	-0.055042
C64	C	0.553546	0.427426	0.444958
C65	C	0.415868	-0.076961	0.055117
C66	C	0.915868	0.423039	0.555117
C67	C	0.475264	-0.077684	0.055116
C68	C	0.975264	0.422316	0.555116
C69	C	0.475268	-0.077667	-0.055055
C70	C	0.975268	0.422333	0.444945
C71	C	0.415870	-0.076948	-0.055054
C72	C	0.915870	0.423052	0.444946
C73	C	0.386171	-0.076593	0.000034
C74	C	0.886171	0.423407	0.500034
C75	C	-0.071190	-0.071076	-0.055034
C76	C	0.428810	0.428924	0.444966
C77	C	-0.130591	-0.070364	-0.055027
C78	C	0.369409	0.429636	0.444973
C79	C	-0.130589	-0.070378	0.055144
C80	C	0.369411	0.429622	0.555144
C81	C	-0.071194	-0.071093	0.055137
C82	C	0.428806	0.428907	0.555137
C83	C	-0.041495	-0.071440	0.000044
C84	C	0.458505	0.428560	0.500044
O85	O	0.022771	-0.072245	0.101945
O86	O	0.522771	0.427755	0.601945
O87	O	0.022826	-0.072188	-0.101886
O88	O	0.522826	0.427812	0.398114
C89	C	0.776489	-0.069258	0.000055
C90	C	1.276489	0.430742	0.500055
C91	C	0.839708	-0.070014	0.000057
C92	C	1.339708	0.429986	0.500057
N93	N	0.672321	-0.074041	0.143851
N94	N	1.172321	0.425959	0.643851
C95	C	0.667592	-0.178171	0.000033
C96	C	1.167592	0.321829	0.500033
C97	C	0.668358	-0.241388	0.000024
C98	C	1.168358	0.258612	0.500024
C99	C	0.723555	0.492454	0.000036
C100	C	1.223555	0.992454	0.500036
C101	C	0.722844	0.551854	0.000031
C102	C	1.222844	1.051854	0.500031
O103	O	0.766630	0.588606	0.000013
O104	O	1.266630	1.088606	0.500013
N105	N	0.670566	0.574471	0.000027
N106	N	1.170566	1.074471	0.500027
C107	C	0.618997	0.537685	0.000021
C108	C	1.118997	1.037685	0.500021
O109	O	0.574465	0.562377	0.000016
O110	O	1.074465	1.062377	0.500016
C111	C	0.619709	0.478286	0.000021
C112	C	1.119709	0.978286	0.500021
C113	C	0.671990	0.455672	0.000032
C114	C	1.171990	0.955672	0.500032
C115	C	0.775832	0.469839	0.000046
C116	C	1.275832	0.969839	0.500046
C117	C	0.776543	0.410443	0.000052
C118	C	1.276543	0.910443	0.500052
C119	C	0.724977	0.373662	0.000048
C120	C	1.224977	0.873662	0.500048
C121	C	0.672701	0.396276	0.000038
C122	C	1.172701	0.896276	0.500038
C123	C	0.568140	0.441501	0.000011
C124	C	1.068140	0.941501	0.500011
C125	C	0.568857	0.382099	0.000011
C126	C	1.068857	0.882099	0.500011
C127	C	0.621137	0.359485	0.000021
C128	C	1.121137	0.859485	0.500021
C129	C	0.621847	0.300099	0.000039
C130	C	1.121847	0.800099	0.500039
N131	N	0.674124	0.277481	0.000044
N132	N	1.174124	0.777481	0.500044
C133	C	0.725690	0.314263	0.000048
C134	C	1.225690	0.814263	0.500048
C135	C	0.617505	0.662427	0.000019
C136	C	1.117505	1.162427	0.500019
C137	C	0.616793	0.721825	0.000023
C138	C	1.116793	1.221825	0.500023
C139	C	0.720640	0.735990	0.000032
C140	C	1.220640	1.235990	0.500032
C141	C	0.721352	0.676591	0.000033
C142	C	1.221352	1.176591	0.500033
C143	C	0.669783	0.639810	0.000024
C144	C	1.169783	1.139810	0.500024
C145	C	0.727179	0.189526	0.000061
C146	C	1.227179	0.689526	0.500061
C147	C	0.727886	0.130124	0.000069
C148	C	1.227886	0.630124	0.500069
C149	C	0.624039	0.115965	0.000057
C150	C	1.124039	0.615965	0.500057
C151	C	0.623332	0.175361	0.000051
C152	C	1.123332	0.675361	0.500051
C153	C	0.674907	0.212141	0.000051
C154	C	1.174907	0.712141	0.500051
O155	O	0.578083	0.263312	0.000055
O156	O	1.078083	0.763312	0.500055
O157	O	0.770214	0.289562	0.000045
O158	O	1.270214	0.789562	0.500045
N159	N	0.672362	-0.074000	-0.143757
N160	N	1.172362	0.426000	0.356243
C161	C	0.711289	-0.035077	0.563639
C162	C	1.211289	0.464923	1.063639
C163	C	0.711291	-0.035073	0.627247
C164	C	1.211291	0.464927	1.127247
O165	O	0.744400	-0.001952	0.660146
O166	O	1.244400	0.498048	1.160146
N167	N	0.672349	-0.074003	0.659059
N168	N	1.172349	0.425997	1.159059
C169	C	0.633397	-0.112935	0.627259
C170	C	1.133397	0.387065	1.127259
O171	O	0.600272	-0.146048	0.660158
O172	O	1.100272	0.353952	1.160158
C173	C	0.633392	-0.112936	0.563653
C174	C	1.133392	0.387064	1.063653
C175	C	0.672341	-0.074008	0.531845
C176	C	1.172341	0.425992	1.031845
C177	C	0.750235	0.003849	0.531831
C178	C	1.250235	0.503849	1.031831
C179	C	0.750232	0.003844	0.468228
C180	C	1.250232	0.503844	0.968228
C181	C	0.711285	-0.035087	0.436433
C182	C	1.211285	0.464913	0.936433
C183	C	0.672339	-0.074012	0.468241
C184	C	1.172339	0.425988	0.968241
C185	C	0.594437	-0.151866	0.531855
C186	C	1.094437	0.348134	1.031855
C187	C	0.594436	-0.151863	0.468244
C188	C	1.094436	0.348137	0.968244
C189	C	0.633385	-0.112934	0.436436
C190	C	1.133385	0.387066	0.936436
C191	C	0.633389	-0.112948	0.372843
C192	C	1.133389	0.387052	0.872843
N193	N	0.672332	-0.074018	0.341032
N194	N	1.172332	0.425982	0.841032
C195	C	0.711280	-0.035087	0.372827
C196	C	1.211280	0.464913	0.872827
C197	C	0.633409	-0.112930	0.760837
C198	C	1.133409	0.387070	1.260837
C199	C	0.633416	-0.112933	0.824442
C200	C	1.133416	0.387067	1.324442
C201	C	0.711311	-0.035069	0.824426
C202	C	1.211311	0.464931	1.324426
C203	C	0.711306	-0.035070	0.760819
C204	C	1.211306	0.464930	1.260819
C205	C	0.672352	-0.074000	0.729025
C206	C	1.172352	0.426000	1.229025
C207	C	0.711273	-0.035101	0.239255
C208	C	1.211273	0.464899	0.739255
C209	C	0.711269	-0.035110	0.175646
C210	C	1.211269	0.464890	0.675646
C211	C	0.633373	-0.112971	0.175669
C212	C	1.133373	0.387029	0.675669
C213	C	0.633378	-0.112964	0.239272
C214	C	1.133378	0.387036	0.739272
C215	C	0.672331	-0.074024	0.271064
C216	C	1.172331	0.425976	0.771064
O217	O	0.600295	-0.146051	0.339904
O218	O	1.100295	0.353949	0.839904
O219	O	0.744393	-0.001976	0.339920
O220	O	1.244393	0.498024	0.839920
H221	H	-0.154766	-0.070071	-0.099887
H222	H	0.345234	0.429929	0.400113
N223	N	0.507291	-0.078079	0.114529
N224	N	1.007291	0.421921	0.614529
H225	H	0.527116	-0.113685	0.116981
H226	H	1.027116	0.386315	0.616981
H227	H	0.479426	-0.077726	0.149388
H228	H	0.979426	0.422274	0.649388
N229	N	0.110623	-0.073240	-0.169541
N230	N	0.610623	0.426760	0.330459
H231	H	0.081157	-0.108250	-0.172012
H232	H	0.581157	0.391750	0.327988
H233	H	0.138499	-0.073547	-0.204396
H234	H	0.638499	0.426453	0.295604
H235	H	0.575509	0.632483	0.000017
H236	H	1.075509	1.132483	0.500017
N237	N	0.753308	0.006917	0.726507
N238	N	1.253308	0.506917	1.226507
H239	H	0.793691	0.000572	0.737568
H240	H	1.293691	0.500572	1.237568
H241	H	0.746930	0.047285	0.737593
H242	H	1.246930	0.547285	1.237593
H243	H	0.601668	-0.144669	0.265171
H244	H	1.101668	0.355331	0.765171
H245	H	0.226218	-0.074642	-0.154986
H246	H	0.726218	0.425358	0.345014
H247	H	0.391697	-0.076653	-0.099910
H248	H	0.891697	0.423347	0.400090
H249	H	0.601690	-0.144637	0.734954
H250	H	1.101690	0.355363	1.234954
N251	N	0.753320	0.006922	0.858725
N252	N	1.253320	0.506922	1.358725
H253	H	0.747409	0.001013	0.903845
H254	H	1.247409	0.501013	1.403845
H255	H	0.746971	0.047290	0.847609
H256	H	1.246971	0.547290	1.347609
N257	N	0.507313	-0.078032	-0.114467
N258	N	1.007313	0.421968	0.385533
H259	H	0.479492	-0.077689	-0.149366
H260	H	0.979492	0.422311	0.350634
H261	H	0.527141	-0.113637	-0.116875
H262	H	1.027141	0.386363	0.383125
H263	H	-0.047017	-0.071399	0.099993
H264	H	0.452983	0.428601	0.599993
H265	H	0.601706	-0.144638	0.850336
H266	H	1.101706	0.355362	1.350336
N267	N	0.383836	-0.076582	0.114536
N268	N	0.883836	0.423418	0.614536
H269	H	0.411719	-0.076533	0.149425
H270	H	0.911719	0.423467	0.649425
H271	H	0.354637	-0.111794	0.117115
H272	H	0.854637	0.388206	0.617115
N273	N	0.110593	-0.073271	0.169625
N274	N	0.610593	0.426729	0.669625
H275	H	0.138474	-0.073221	0.204516
H276	H	0.638474	0.426779	0.704516
H277	H	0.081391	-0.108480	0.172205
H278	H	0.581391	0.391520	0.672205
N279	N	0.511746	0.465873	-0.000006
N280	N	1.011746	0.965873	0.499994
H281	H	0.509139	0.490198	-0.037468
H282	H	1.009139	0.990198	0.462532
H283	H	0.509150	0.490173	0.037475
H284	H	1.009150	0.990173	0.537475
N285	N	0.777741	0.652206	0.000042
N286	N	1.277741	1.152206	0.500042
H287	H	0.780362	0.627877	-0.037416
H288	H	1.280362	1.127877	0.462584
H289	H	0.780311	0.627905	0.037527
H290	H	1.280311	1.127905	0.537527
H291	H	0.601663	-0.144670	0.149771
H292	H	1.101663	0.355330	0.649771
N293	N	0.753291	0.006891	0.273539
N294	N	1.253291	0.506891	0.773539
H295	H	0.731682	0.032003	0.299932
H296	H	1.231682	0.532003	0.799932
H297	H	0.777950	0.031506	0.243691
H298	H	1.277950	0.531506	0.743691
N299	N	0.552418	-0.193844	0.566152
N300	N	1.052418	0.306156	1.066152
H301	H	0.527743	-0.218497	0.536349
H302	H	1.027743	0.281503	1.036349
H303	H	0.527371	-0.172160	0.592538
H304	H	1.027371	0.327840	1.092538
H305	H	0.762627	0.765949	0.000033
H306	H	1.262627	1.265949	0.500033
N307	N	0.552418	-0.193850	0.433952
N308	N	1.052418	0.306150	0.933952
H309	H	0.527747	-0.218507	0.463758
H310	H	1.027747	0.281493	0.963758
H311	H	0.574071	-0.218919	0.407560
H312	H	1.074071	0.281081	0.907560
H313	H	0.742988	-0.003410	0.149750
H314	H	1.242988	0.496590	0.649750
H315	H	-0.047016	-0.071359	-0.099896
H316	H	0.452984	0.428641	0.400104
N317	N	0.784278	0.105738	0.000083
N318	N	1.284278	0.605738	0.500083
H319	H	0.806860	0.119170	-0.037375
H320	H	1.306860	0.619170	0.462625
H321	H	0.776862	0.062531	0.000111
H322	H	1.276862	0.562531	0.500111
N323	N	0.513229	0.342436	0.000012
N324	N	1.013229	0.842436	0.500012
H325	H	0.511203	0.317480	0.037475
H326	H	1.011203	0.817480	0.537475
H327	H	0.511240	0.317507	-0.037468
H328	H	1.011240	0.817507	0.462532
N329	N	0.234044	-0.074770	0.169626
N330	N	0.734044	0.425230	0.669626
H331	H	0.206207	-0.074436	0.204516
H332	H	0.706207	0.425564	0.704516
H333	H	0.263508	-0.039757	0.172034
H334	H	0.763508	0.460243	0.672034
H335	H	-0.154783	-0.070095	0.099991
H336	H	0.345217	0.429905	0.599991
H337	H	0.769176	0.219466	0.000058
H338	H	1.269176	0.719466	0.500058
N339	N	0.832932	0.386057	0.000061
N340	N	1.332932	0.886057	0.500061
H341	H	0.865485	0.418378	0.000061
H342	H	1.365485	0.918378	0.500061
H343	H	0.835497	0.361721	-0.037399
H344	H	1.335497	0.861721	0.462601
N345	N	0.831452	0.509508	0.000054
N346	N	1.331452	1.009508	0.500054
H347	H	0.854284	0.502266	-0.037400
H348	H	1.354284	1.002266	0.462600
H349	H	0.854217	0.502241	0.037544
H350	H	1.354217	1.002241	0.537544
N351	N	0.560404	0.746213	0.000028
N352	N	1.060404	1.246213	0.500028
H353	H	0.527849	0.713893	0.000029
H354	H	1.027849	1.213893	0.500029
H355	H	0.557846	0.770548	-0.037433
H356	H	1.057846	1.270548	0.462567
N357	N	0.566946	0.199757	0.000048
N358	N	1.066946	0.699757	0.500048
H359	H	0.534388	0.167440	0.000049
H360	H	1.034388	0.667440	0.500049
H361	H	0.564395	0.224087	-0.037417
H362	H	1.064395	0.724087	0.462583
H363	H	0.582056	0.086007	0.000055
H364	H	1.082056	0.586007	0.500055
N365	N	0.792240	0.045834	0.433925
N366	N	1.292240	0.545834	0.933925
H367	H	0.816909	0.070495	0.463726
H368	H	1.316909	0.570495	0.963726
H369	H	0.770580	0.070899	0.407538
H370	H	1.270580	0.570899	0.907538
H371	H	0.781951	0.035553	0.557713
H372	H	1.281951	0.535553	1.057713
