data_functionalizedCrystal
_audit_creation_method	'MofGen! by Chris Wilmer'
_symmetry_space_group_name_H-M	'P1'
_symmetry_Int_Tables_number	1
_symmetry_cell_setting	triclinic
loop_
_symmetry_equiv_pos_as_xyz
  x,y,z
_cell_length_a	18.101395
_cell_length_b	12.759401
_cell_length_c	12.759393
_cell_angle_alpha	90.020120
_cell_angle_beta	89.966555
_cell_angle_gamma	89.972926
loop_
_atom_site_label
_atom_site_type_symbol
_atom_site_fract_x
_atom_site_fract_y
_atom_site_fract_z
Zn1	Zn	-0.294866	-1.606136	-0.594013
Zn2	Zn	0.205134	-1.106136	-0.094013
Zn3	Zn	-0.418727	-1.605980	-0.418327
Zn4	Zn	0.081273	-1.105980	0.081673
Zn5	Zn	-0.294895	-1.430438	-0.418347
Zn6	Zn	0.205105	-0.930438	0.081653
Zn7	Zn	-0.418661	-1.430376	-0.593964
Zn8	Zn	0.081339	-0.930376	-0.093964
O9	O	-0.356787	-1.518232	-0.506163
O10	O	0.143213	-1.018232	-0.006163
O11	O	-0.311311	-1.753136	-0.570720
O12	O	0.188689	-1.253136	-0.070720
O13	O	-0.402341	-1.582654	-0.271309
O14	O	0.097659	-1.082654	0.228691
O15	O	-0.191258	-1.453835	-0.441679
O16	O	0.308742	-0.953835	0.058321
O17	O	-0.402312	-1.753021	-0.441645
O18	O	0.097688	-1.253021	0.058355
O19	O	-0.191237	-1.582920	-0.570740
O20	O	0.308763	-1.082920	-0.070740
O21	O	-0.311362	-1.453684	-0.271324
O22	O	0.188638	-0.953684	0.228676
O23	O	-0.311298	-1.283408	-0.441631
O24	O	0.188702	-0.783408	0.058369
O25	O	-0.402199	-1.453730	-0.740992
O26	O	0.097801	-0.953730	-0.240992
O27	O	-0.402228	-1.283363	-0.570656
O28	O	0.097772	-0.783363	-0.070656
O29	O	-0.311247	-1.582860	-0.741028
O30	O	0.188753	-1.082860	-0.241028
O31	O	-0.522351	-1.582594	-0.441597
O32	O	-0.022351	-1.082594	0.058403
O33	O	-0.522303	-1.453579	-0.570636
O34	O	-0.022303	-0.953579	-0.070636
C35	C	-0.356760	-1.245265	-0.506141
C36	C	0.143240	-0.745265	-0.006141
C37	C	-0.356766	-1.128488	-0.506156
C38	C	0.143234	-0.628488	-0.006156
C39	C	-0.309469	-1.073679	-0.573469
C40	C	0.190531	-0.573679	-0.073469
C41	C	-0.309479	-0.963955	-0.573472
C42	C	0.190521	-0.463955	-0.073472
C43	C	-0.404089	-0.963859	-0.438849
C44	C	0.095911	-0.463859	0.061151
C45	C	-0.404074	-1.073581	-0.438840
C46	C	0.095926	-0.573581	0.061160
C47	C	-0.254849	-1.073733	-0.651196
C48	C	0.245151	-0.573733	-0.151196
C49	C	-0.254859	-0.964009	-0.651200
C50	C	0.245141	-0.464009	-0.151200
C51	C	-0.549198	-1.518092	-0.506132
C52	C	-0.049198	-1.018092	-0.006132
C53	C	-0.631512	-1.518128	-0.506154
C54	C	-0.131512	-1.018128	-0.006154
C55	C	-0.930603	-1.518358	-0.506211
C56	C	-0.430603	-1.018358	-0.006211
C57	C	-0.899278	-1.437373	-0.587600
C58	C	-0.399278	-0.937373	-0.087600
C59	C	-0.813660	-1.436989	-0.587346
C60	C	-0.313660	-0.936989	-0.087346
C61	C	-0.782220	-1.518244	-0.506183
C62	C	-0.282220	-1.018244	-0.006183
C63	C	-0.813379	-1.488263	-0.395458
C64	C	-0.313379	-0.988263	0.104542
C65	C	-0.899024	-1.487741	-0.395945
C66	C	-0.399024	-0.987741	0.104055
C67	C	-0.898950	-1.629501	-0.534572
C68	C	-0.398950	-1.129501	-0.034572
C69	C	-0.813299	-1.628847	-0.537000
C70	C	-0.313299	-1.128847	-0.037000
C71	C	-0.698361	-1.518181	-0.506161
C72	C	-0.198361	-1.018181	-0.006161
C73	C	-1.014462	-1.518418	-0.506225
C74	C	-0.514462	-1.018418	-0.006225
C75	C	-0.163625	-1.518402	-0.506217
C76	C	0.336375	-1.018402	-0.006217
C77	C	-0.081311	-1.518474	-0.506240
C78	C	0.418689	-1.018474	-0.006240
C79	C	-0.356713	-1.518306	-0.780196
C80	C	0.143287	-1.018306	-0.280196
C81	C	-0.356681	-1.518337	-0.896973
C82	C	0.143319	-1.018337	-0.396973
C83	C	-0.356806	-0.792265	-0.506179
C84	C	0.143194	-0.292265	-0.006179
C85	C	-0.356790	-0.909042	-0.506168
C86	C	0.143210	-0.409042	-0.006168
C87	C	-0.309317	-1.585584	-0.951856
C88	C	0.190683	-1.085584	-0.451856
C89	C	-0.309291	-1.585609	-1.061580
C90	C	0.190709	-1.085609	-0.561580
C91	C	-0.403997	-1.451137	-1.061529
C92	C	0.096003	-0.951137	-0.561529
C93	C	-0.404019	-1.451108	-0.951807
C94	C	0.095981	-0.951108	-0.451807
C95	C	-0.254642	-1.663224	-0.951886
C96	C	0.245358	-1.163224	-0.451886
C97	C	-0.254615	-1.663249	-1.061610
C98	C	0.245385	-1.163249	-0.561610
C99	C	-0.356808	-1.518219	-0.233196
C100	C	0.143192	-1.018219	0.266804
C101	C	-0.356631	-1.518392	-0.116419
C102	C	0.143369	-1.018392	0.383581
H103	H	-0.792591	-1.455746	-0.669448
H104	H	-0.292591	-0.955746	-0.169448
H105	H	-0.269980	-1.744614	-1.091390
H106	H	0.230020	-1.244614	-0.591390
H107	H	-0.275206	-1.740488	-0.917851
H108	H	0.224794	-1.240488	-0.417851
H109	H	-0.793016	-1.545393	-0.333163
H110	H	-0.293016	-1.045393	0.166837
H111	H	-0.270291	-0.934258	-0.732534
H112	H	0.229709	-0.434258	-0.232534
H113	H	-0.442537	-1.396399	-1.106188
H114	H	0.057463	-0.896399	-0.606188
H115	H	-0.442581	-1.118203	-0.384018
H116	H	0.057419	-0.618203	0.115982
H117	H	-0.442606	-0.919140	-0.384042
H118	H	0.057394	-0.419140	0.115958
H119	H	-0.919820	-1.455945	-0.669968
H120	H	-0.419820	-0.955945	-0.169968
H121	H	-0.197288	-1.641479	-0.922132
H122	H	0.302712	-1.141479	-0.422132
H123	H	-0.200120	-1.634158	-1.095660
H124	H	0.299880	-1.134158	-0.595660
H125	H	-0.275456	-1.107790	-0.728434
H126	H	0.224544	-0.607790	-0.228434
H127	H	-0.197470	-1.103523	-0.629546
H128	H	0.302530	-0.603523	-0.129546
H129	H	-0.200351	-0.929990	-0.622202
H130	H	0.299649	-0.429990	-0.122202
H131	H	-0.920493	-1.656833	-0.613937
H132	H	-0.420493	-1.156833	-0.113937
H133	H	-0.793234	-1.354607	-0.568559
H134	H	-0.293234	-0.854607	-0.068559
H135	H	-0.920862	-1.355493	-0.569050
H136	H	-0.420862	-0.855493	-0.069050
H137	H	-0.919064	-1.406496	-0.371919
H138	H	-0.419064	-0.906496	0.128081
H139	H	-0.919749	-1.544168	-0.333235
H140	H	-0.419749	-1.044168	0.166765
H141	H	-0.791992	-1.407879	-0.371002
H142	H	-0.291992	-0.907879	0.128998
H143	H	-0.792931	-1.651455	-0.618489
H144	H	-0.292931	-1.151455	-0.118489
H145	H	-0.791893	-1.692377	-0.482041
H146	H	-0.291893	-1.192377	0.017959
H147	H	-0.919207	-1.689837	-0.475293
H148	H	-0.419207	-1.189837	0.024707
H149	H	-0.442584	-1.396345	-0.907126
H150	H	0.057416	-0.896345	-0.407126
