data_functionalizedCrystal
_audit_creation_method	'MofGen! by Chris Wilmer'
_symmetry_space_group_name_H-M	'P1'
_symmetry_Int_Tables_number	1
_symmetry_cell_setting	triclinic
loop_
_symmetry_equiv_pos_as_xyz
  x,y,z
_cell_length_a	14.853566
_cell_length_b	14.853559
_cell_length_c	13.930277
_cell_angle_alpha	89.997639
_cell_angle_beta	89.995631
_cell_angle_gamma	83.632934
loop_
_atom_site_label
_atom_site_type_symbol
_atom_site_fract_x
_atom_site_fract_y
_atom_site_fract_z
O1	O	1.196365	0.117699	-0.079763
O2	O	0.933905	0.131721	-0.079778
O3	O	1.072150	-0.006520	-0.079769
O4	O	1.058121	0.255940	-0.079772
O5	O	1.072131	-0.006523	0.079893
O6	O	0.933886	0.131718	0.079884
O7	O	1.196346	0.117696	0.079899
Zn8	Zn	1.065113	0.124706	0.105241
Zn9	Zn	1.065138	0.124710	-0.105120
O10	O	1.058102	0.255937	0.079890
C11	C	0.900307	0.131085	0.000051
C12	C	0.800223	0.129181	0.000045
C13	C	0.377049	0.121132	-0.086970
C14	C	0.377050	0.121129	0.087100
C15	C	0.471084	0.122917	0.087097
C16	C	0.518105	0.123813	0.000059
C17	C	0.471092	0.122922	-0.086975
C18	C	0.518103	0.123817	0.174130
C19	C	0.612142	0.125606	0.174130
C20	C	0.659166	0.126496	0.087092
C21	C	0.612147	0.125604	0.000054
C22	C	0.659168	0.126500	-0.086984
C23	C	0.612152	0.125601	-0.174023
C24	C	0.518115	0.123812	-0.174014
C25	C	0.753202	0.128285	0.087083
C26	C	0.753210	0.128290	-0.086990
C27	C	1.071506	-0.040111	0.000060
C28	C	1.069605	-0.140195	0.000055
C29	C	1.061552	-0.563368	-0.086978
C30	C	1.061531	-0.563366	0.087092
C31	C	1.063324	-0.469333	0.087093
C32	C	1.064230	-0.422313	0.000057
C33	C	1.063343	-0.469326	-0.086979
C34	C	1.064203	-0.422312	0.174128
C35	C	1.065995	-0.328272	0.174132
C36	C	1.066908	-0.281251	0.087096
C37	C	1.066021	-0.328270	0.000056
C38	C	1.066927	-0.281250	-0.086980
C39	C	1.066047	-0.328268	-0.174021
C40	C	1.064255	-0.422305	-0.174016
C41	C	1.068700	-0.187215	0.087090
C42	C	1.068718	-0.187208	-0.086982
C43	C	1.229945	0.118332	0.000068
C44	C	1.330028	0.120236	0.000068
C45	C	1.058745	0.289528	0.000059
C46	C	1.060646	0.389612	0.000058
N47	N	1.065102	0.124703	0.248807
N48	N	1.065156	0.124706	-0.248686
C49	C	1.003921	0.185900	0.701073
C50	C	1.126380	0.063514	0.701050
C51	C	1.126370	0.063511	0.600554
C52	C	1.065135	0.124704	0.550313
C53	C	1.003911	0.185901	0.600568
C54	C	1.187599	0.002322	0.550292
C55	C	1.187591	0.002318	0.449790
C56	C	1.126351	0.063507	0.399547
C57	C	1.065124	0.124705	0.449808
C58	C	1.003889	0.185898	0.399567
C59	C	0.942657	0.247093	0.449826
C60	C	0.942670	0.247090	0.550325
C61	C	1.126337	0.063510	0.299049
C62	C	1.003878	0.185899	0.299062
H63	H	0.650448	0.126338	-0.244889
C64	C	0.951117	0.341879	0.268127
C65	C	0.936568	0.253168	0.243839
H66	H	0.909566	0.383407	0.234030
H67	H	0.942356	0.350626	0.335166
H68	H	1.011295	0.351771	0.251642
H69	H	0.876392	0.243274	0.260331
H70	H	0.945322	0.244418	0.176786
C71	C	0.984785	-0.518016	-0.274956
C72	C	1.063263	-0.474003	-0.269674
H73	H	0.984166	-0.549934	-0.334010
H74	H	0.984000	-0.559457	-0.223112
H75	H	0.932966	-0.474501	-0.271344
H76	H	1.115083	-0.517518	-0.273280
H77	H	1.064057	-0.432558	-0.321532
C78	C	0.982102	-0.659080	-0.187946
C79	C	1.060572	-0.615055	-0.182644
H80	H	0.981494	-0.690987	-0.247008
H81	H	0.981319	-0.700531	-0.136112
H82	H	0.930277	-0.615573	-0.184331
H83	H	1.112398	-0.658562	-0.186252
H84	H	1.061364	-0.573599	-0.234492
H85	H	0.338765	0.120397	-0.157835
H86	H	0.338759	0.120406	0.157962
H87	H	1.066778	-0.289972	-0.244886
H88	H	1.176196	0.013691	0.258132
H89	H	0.479826	0.123080	-0.244877
C90	C	1.145798	-0.059137	0.814074
C91	C	1.193683	-0.003748	0.756277
H92	H	1.187349	-0.100667	0.848168
H93	H	1.109346	-0.022687	0.858379
H94	H	1.108234	-0.091633	0.774868
H95	H	1.231242	0.028753	0.795485
H96	H	1.230150	-0.040203	0.711967
C97	C	0.373949	0.121077	0.251418
C98	C	0.466416	0.122842	0.269797
H99	H	0.342039	0.120472	0.310483
H100	H	0.351737	0.173308	0.215655
H101	H	0.365362	0.068245	0.215666
H102	H	0.475004	0.175679	0.305543
H103	H	0.488635	0.070606	0.305575
C104	C	0.727926	0.050169	0.275108
C105	C	0.663820	0.126581	0.269800
H106	H	0.759833	0.050773	0.334169
H107	H	0.698045	-0.003047	0.271492
H108	H	0.769384	0.050968	0.223269
H109	H	0.622357	0.125778	0.321636
H110	H	0.693703	0.179811	0.273425
C111	C	1.061504	-0.566471	0.251410
C112	C	1.063239	-0.474000	0.269792
H113	H	1.060925	-0.598384	0.310473
H114	H	1.008678	-0.575077	0.215673
H115	H	1.113742	-0.588666	0.215631
H116	H	1.010996	-0.451803	0.305566
H117	H	1.116070	-0.465388	0.305545
C118	C	0.993248	-0.071416	0.188045
C119	C	1.069659	-0.135525	0.182752
H120	H	0.993839	-0.039509	0.247108
H121	H	0.994058	-0.029966	0.136212
H122	H	0.940025	-0.101301	0.184420
H123	H	1.122882	-0.105640	0.186370
H124	H	1.068858	-0.176981	0.234599
C125	C	0.868996	0.052865	0.188059
C126	C	0.804886	0.129274	0.182743
H127	H	0.900906	0.053479	0.247117
H128	H	0.839118	-0.000354	0.184455
H129	H	0.910452	0.053659	0.136217
H130	H	0.763426	0.128476	0.234582
H131	H	0.834766	0.182506	0.186357
C132	C	1.065810	-0.337728	0.346197
C133	C	1.066980	-0.276597	0.269805
H134	H	1.066428	-0.305824	0.405260
H135	H	1.012579	-0.367585	0.342581
H136	H	1.117642	-0.381226	0.342565
H137	H	1.015144	-0.233103	0.273432
H138	H	1.120217	-0.246725	0.273423
C139	C	0.889898	0.403072	0.418874
C140	C	0.875351	0.314358	0.394592
H141	H	0.848352	0.444596	0.384767
H142	H	0.881128	0.411825	0.485911
H143	H	0.950078	0.412961	0.402397
H144	H	0.815173	0.304466	0.411077
H145	H	0.884114	0.305601	0.327541
H146	H	0.892818	0.296913	0.591252
H147	H	1.060788	-0.601655	0.157952
C148	C	1.207008	-0.120331	0.663313
C149	C	1.254898	-0.064938	0.605525
H150	H	1.248556	-0.161860	0.697412
H151	H	1.170548	-0.083883	0.707613
H152	H	1.169451	-0.152828	0.624099
H153	H	1.292450	-0.032436	0.644740
H154	H	1.291373	-0.101391	0.561220
C155	C	1.308635	-0.118664	0.459874
C156	C	1.254888	-0.064953	0.394551
H157	H	1.350175	-0.160199	0.425768
H158	H	1.341113	-0.081076	0.499056
H159	H	1.271066	-0.151155	0.499089
H160	H	1.292457	-0.032456	0.355340
H161	H	1.222408	-0.102546	0.355352
H162	H	1.069460	-0.148931	-0.157858
H163	H	0.791489	0.129017	-0.157867
H164	H	0.954064	0.235721	0.741996
