data_functionalizedCrystal
_audit_creation_method	'MofGen! by Chris Wilmer'
_symmetry_space_group_name_H-M	'P1'
_symmetry_Int_Tables_number	1
_symmetry_cell_setting	triclinic
loop_
_symmetry_equiv_pos_as_xyz
  x,y,z
_cell_length_a	18.050591
_cell_length_b	16.959454
_cell_length_c	16.959447
_cell_angle_alpha	90.026736
_cell_angle_beta	89.978541
_cell_angle_gamma	89.983919
loop_
_atom_site_label
_atom_site_type_symbol
_atom_site_fract_x
_atom_site_fract_y
_atom_site_fract_z
Zn1	Zn	1.135339	0.314750	-0.447079
Zn2	Zn	1.135266	0.446943	-0.314909
Zn3	Zn	1.011157	0.314773	-0.314900
Zn4	Zn	1.011123	0.446881	-0.447031
O5	O	1.073221	0.380837	-0.380980
O6	O	1.239253	0.332302	-0.429570
O7	O	1.118786	0.429445	-0.204296
O8	O	1.027674	0.204159	-0.332450
O9	O	1.239200	0.429423	-0.332465
O10	O	1.118910	0.204142	-0.429562
O11	O	1.027603	0.332340	-0.204290
O12	O	0.907228	0.332281	-0.332404
O13	O	1.027617	0.429319	-0.557648
O14	O	0.907203	0.429341	-0.429479
O15	O	1.118878	0.332242	-0.557683
O16	O	1.118754	0.557545	-0.332418
O17	O	1.027547	0.557500	-0.429488
C18	C	0.880269	0.380807	-0.380936
C19	C	0.797723	0.380814	-0.380936
C20	C	1.073159	0.586203	-0.380966
C21	C	1.073200	0.674060	-0.380987
C22	C	1.073252	0.380771	-0.587148
C23	C	1.073265	0.380743	-0.675004
C24	C	0.598264	0.327971	-0.328268
C25	C	0.548854	0.400068	-0.308821
C26	C	0.646593	0.380838	-0.380972
C27	C	0.548921	0.308766	-0.400416
C28	C	0.500608	0.380854	-0.381005
C29	C	0.598270	0.452972	-0.361487
C30	C	0.598341	0.361621	-0.453116
C31	C	0.548954	0.433768	-0.433697
C32	C	0.730691	0.380827	-0.380951
C33	C	0.416511	0.380873	-0.381026
C34	C	1.266927	0.380867	-0.381024
C35	C	1.349472	0.380880	-0.381043
C36	C	1.073304	0.174668	-0.381010
C37	C	1.073339	0.086812	-0.381023
C38	C	1.025799	1.045542	-0.431518
C39	C	1.120850	1.045529	-0.330521
C40	C	1.120824	0.962983	-0.330514
C41	C	1.073284	0.921712	-0.381009
C42	C	1.025770	0.962988	-0.431511
C43	C	1.168333	0.921701	-0.280007
C44	C	1.168308	0.839150	-0.279997
C45	C	1.120771	0.797878	-0.330497
C46	C	1.073255	0.839159	-0.381001
C47	C	1.025715	0.797889	-0.431496
C48	C	0.978202	0.839168	-0.482005
C49	C	0.978232	0.921716	-0.482010
C50	C	1.120741	0.715330	-0.330492
C51	C	1.025686	0.715335	-0.431489
C52	C	1.025839	0.431203	-1.046464
C53	C	1.120869	0.330117	-1.046496
C54	C	1.120849	0.330134	-0.963950
C55	C	1.073324	0.380687	-0.922658
C56	C	1.025819	0.431223	-0.963911
C57	C	1.168359	0.279604	-0.922691
C58	C	1.168342	0.279619	-0.840140
C59	C	1.120812	0.330169	-0.798846
C60	C	1.073305	0.380707	-0.840104
C61	C	1.025780	0.431260	-0.798811
C62	C	0.978268	0.481794	-0.840068
C63	C	0.978290	0.481773	-0.922617
C64	C	1.120790	0.330190	-0.716297
C65	C	1.025760	0.431280	-0.716258
C66	C	1.073233	0.380845	-0.175613
C67	C	1.073364	0.380650	-0.087757
H68	H	0.527118	0.416334	-0.247824
H69	H	1.159551	1.079136	-0.289406
H70	H	0.939549	0.955333	-0.523131
O71	O	0.932129	0.799037	-0.531139
C72	C	0.974367	0.751209	-0.582209
H73	H	1.032863	0.776046	-0.587160
H74	H	0.947472	0.750244	-0.643011
H75	H	0.976921	0.688663	-0.557756
H76	H	1.159421	0.681724	-0.289364
O77	O	1.214408	0.230409	-0.800110
C78	C	1.198217	0.151629	-0.820329
H79	H	1.138894	0.147636	-0.843013
H80	H	1.204615	0.112580	-0.766060
H81	H	1.238048	0.130968	-0.868261
O82	O	1.166858	0.280996	-0.676255
C83	C	1.150684	0.202209	-0.696459
H84	H	1.091364	0.198197	-0.719147
H85	H	1.157085	0.163172	-0.642181
H86	H	1.190524	0.181546	-0.744383
O87	O	1.214526	0.961860	-0.231036
C88	C	1.262474	1.009615	-0.276036
H89	H	1.267115	0.984696	-0.338283
H90	H	1.319610	1.010599	-0.247434
H91	H	1.239471	1.072165	-0.278781
H92	H	1.159566	0.288963	-1.080122
H93	H	0.987117	1.079155	-0.472644
O94	O	1.214534	0.799177	-0.230916
C95	C	1.256486	0.853306	-0.186336
H96	H	1.259052	0.912132	-0.218717
H97	H	1.314997	0.829423	-0.177970
H98	H	1.229332	0.862133	-0.126273
H99	H	0.939610	0.522918	-0.956215
O100	O	0.979758	0.480265	-1.086658
C101	C	0.989945	0.469394	-1.168373
H102	H	1.047271	0.443514	-1.179666
H103	H	0.984888	0.528592	-1.199732
H104	H	0.945916	0.427288	-1.191798
O105	O	1.214419	0.230423	-0.962840
C106	C	1.172172	0.179365	-1.010612
H107	H	1.113680	0.174467	-0.985722
H108	H	1.199065	0.118543	-1.011576
H109	H	1.169609	0.203795	-1.073165
H110	H	0.987052	0.472440	-0.682643
H111	H	0.619856	0.513948	-0.344987
O112	O	0.932210	0.530940	-0.799861
C113	C	0.974473	0.582019	-0.752127
H114	H	1.030764	0.554150	-0.739791
H115	H	0.944219	0.592617	-0.694063
H116	H	0.982611	0.640591	-0.783926
O117	O	0.624013	0.274595	-0.275094
C118	C	0.597805	0.198842	-0.294963
H119	H	0.545469	0.204525	-0.332131
H120	H	0.584698	0.164677	-0.238792
H121	H	0.642056	0.166068	-0.330029
H122	H	0.527206	0.247817	-0.416821
O123	O	0.523313	0.487276	-0.486796
C124	C	0.548609	0.563141	-0.466031
H125	H	0.562362	0.564561	-0.400446
H126	H	0.503543	0.608348	-0.479230
H127	H	0.600376	0.577859	-0.501624
H128	H	0.620095	0.345334	-0.514095
H129	H	0.986975	0.681738	-0.472611
