data_functionalizedCrystal
_audit_creation_method	'MofGen! by Chris Wilmer'
_symmetry_space_group_name_H-M	'P1'
_symmetry_Int_Tables_number	1
_symmetry_cell_setting	triclinic
loop_
_symmetry_equiv_pos_as_xyz
  x,y,z
_cell_length_a	14.044191
_cell_length_b	14.044190
_cell_length_c	16.776229
_cell_angle_alpha	89.988781
_cell_angle_beta	89.995480
_cell_angle_gamma	93.191777
loop_
_atom_site_label
_atom_site_type_symbol
_atom_site_fract_x
_atom_site_fract_y
_atom_site_fract_z
O1	O	1.277182	0.230203	-0.066266
O2	O	1.000509	0.221891	-0.066276
O3	O	1.134689	0.087711	-0.066255
O4	O	1.143002	0.364383	-0.066287
O5	O	1.134669	0.087700	0.066321
O6	O	1.000489	0.221880	0.066301
O7	O	1.277162	0.230193	0.066310
Zn8	Zn	1.138822	0.226035	0.087355
Zn9	Zn	1.138849	0.226049	-0.087320
O10	O	1.142982	0.364373	0.066290
C11	C	0.964877	0.218249	0.000012
C12	C	0.858734	0.207401	0.000009
C13	C	0.613277	0.264502	0.000010
C14	C	0.664400	0.187585	0.000017
C15	C	0.772537	0.198614	0.000013
C16	C	0.505130	0.253475	0.000015
C17	C	1.131043	0.052083	0.000035
C18	C	1.120195	-0.054060	0.000042
C19	C	1.177296	-0.299517	0.000012
C20	C	1.100379	-0.248394	0.000015
C21	C	1.111408	-0.140257	0.000030
C22	C	1.166269	-0.407664	-0.000002
C23	C	1.312794	0.233834	0.000021
C24	C	1.418937	0.244682	0.000019
C25	C	1.146628	0.400000	-0.000002
C26	C	1.157476	0.506143	-0.000014
N27	N	1.138811	0.226025	0.206566
N28	N	1.138867	0.226051	-0.206532
C29	C	1.198248	0.166638	0.248292
C30	C	1.198253	0.166638	0.331744
C31	C	1.138826	0.226030	0.373469
C32	C	1.079382	0.285419	0.331737
C33	C	1.079373	0.285414	0.248286
C34	C	1.079418	0.285441	0.668284
C35	C	1.079434	0.285443	0.751741
C36	C	1.198299	0.166665	0.751742
C37	C	1.198289	0.166660	0.668292
C38	C	1.138842	0.226045	0.626567
C39	C	1.138836	0.226043	0.536079
C40	C	1.138836	0.226037	0.463956
H41	H	0.650720	0.338629	-0.000001
H42	H	0.626955	0.113453	-0.000030
H43	H	1.246701	0.118307	0.785723
F44	F	1.003482	-0.297335	0.000010
H45	H	1.246650	0.118280	0.365717
H46	H	1.030990	0.333773	0.365714
H47	H	1.251423	-0.262074	0.000023
H48	H	1.246645	0.118279	0.214325
H49	H	1.031038	0.333809	0.785712
H50	H	1.246684	0.118301	0.634322
H51	H	1.031016	0.333796	0.634319
H52	H	1.030972	0.333771	0.214314
