data_functionalizedCrystal
_audit_creation_method	'MofGen! by Chris Wilmer'
_symmetry_space_group_name_H-M	'P1'
_symmetry_Int_Tables_number	1
_symmetry_cell_setting	triclinic
loop_
_symmetry_equiv_pos_as_xyz
  x,y,z
_cell_length_a	16.120490
_cell_length_b	16.120484
_cell_length_c	16.120297
_cell_angle_alpha	95.614431
_cell_angle_beta	90.129683
_cell_angle_gamma	90.164100
loop_
_atom_site_label
_atom_site_type_symbol
_atom_site_fract_x
_atom_site_fract_y
_atom_site_fract_z
Zn1	Zn	1.224990	-0.422331	-0.554787
Zn2	Zn	1.224886	-0.555015	-0.422092
Zn3	Zn	1.093729	-0.408239	-0.408032
Zn4	Zn	1.078882	-0.554239	-0.554027
O5	O	1.155622	-0.484956	-0.484735
O6	O	1.341012	-0.446153	-0.543386
O7	O	1.213657	-0.529972	-0.303594
O8	O	1.117398	-0.293478	-0.421933
O9	O	1.340936	-0.543636	-0.445896
O10	O	1.213835	-0.303831	-0.529753
O11	O	1.117297	-0.422137	-0.293264
O12	O	0.975724	-0.421385	-0.421197
O13	O	1.092094	-0.542314	-0.670761
O14	O	0.964816	-0.528650	-0.528459
O15	O	1.199439	-0.445401	-0.671319
O16	O	1.199261	-0.671542	-0.445159
O17	O	1.091993	-0.670972	-0.542092
C18	C	0.940183	-0.473405	-0.473221
C19	C	0.848015	-0.468484	-0.468316
C20	C	0.632820	-0.510474	-0.510179
C21	C	0.679267	-0.459508	-0.459359
C22	C	0.773167	-0.464504	-0.464344
C23	C	0.538912	-0.505479	-0.505195
C24	C	1.144026	-0.701500	-0.495088
C25	C	1.139140	-0.794144	-0.499550
C26	C	1.130223	-0.963767	-0.507712
C27	C	1.181169	-1.005313	-0.461779
C28	C	1.176207	-1.099697	-0.466320
C29	C	1.135183	-0.869375	-0.503171
C30	C	1.371902	-0.496553	-0.496294
C31	C	1.464068	-0.501495	-0.501220
C32	C	1.144122	-0.495343	-0.702127
C33	C	1.139222	-0.499770	-0.794767
C34	C	1.167284	-0.267568	-0.474360
C35	C	1.172254	-0.174931	-0.469939
C36	C	1.130245	-0.507831	-0.964378
C37	C	1.181175	-0.461840	-1.005939
C38	C	1.176180	-0.466326	-1.100317
C39	C	1.135239	-0.503346	-0.869992
C40	C	1.167128	-0.474552	-0.268187
C41	C	1.172201	-0.469899	-0.175545
H42	H	0.663575	-0.557856	-0.557426
C43	C	1.066284	-0.565575	-1.012054
H44	H	1.034981	-0.593842	-0.973568
H45	H	1.094300	-0.605168	-1.049451
H46	H	1.030100	-0.533335	-1.042552
H47	H	1.228511	-0.969997	-0.419042
H48	H	1.082883	-0.999080	-0.550444
H49	H	1.228527	-0.419097	-0.970641
C50	C	0.637724	-0.395491	-0.395530
H51	H	0.579148	-0.400491	-0.400508
H52	H	0.654213	-0.340837	-0.405879
H53	H	0.654172	-0.405666	-0.340820
