data_functionalizedCrystal
_audit_creation_method	'MofGen! by Chris Wilmer'
_symmetry_space_group_name_H-M	'P1'
_symmetry_Int_Tables_number	1
_symmetry_cell_setting	triclinic
loop_
_symmetry_equiv_pos_as_xyz
  x,y,z
_cell_length_a	18.760487
_cell_length_b	21.606444
_cell_length_c	21.606444
_cell_angle_alpha	60.001331
_cell_angle_beta	90.036891
_cell_angle_gamma	60.019231
loop_
_atom_site_label
_atom_site_type_symbol
_atom_site_fract_x
_atom_site_fract_y
_atom_site_fract_z
Zr1	Zr	0.686670	0.677450	-0.080834
O2	O	0.572846	0.806573	-0.179717
O3	O	0.721564	0.548331	-0.050524
O4	O	0.721555	0.677454	-0.179642
O5	O	0.572861	0.677445	0.051255
O6	O	0.838858	0.677454	-0.179579
O7	O	0.572855	0.677449	-0.050599
O8	O	0.838874	0.446475	0.051390
O9	O	0.572845	0.908424	-0.179714
O10	O	0.823987	0.601438	-0.037547
O11	O	0.736449	0.601435	0.038419
O12	O	0.736439	0.753462	-0.113601
O13	O	0.648901	0.753459	-0.037635
Zr14	Zr	0.873764	0.677443	0.081712
Zr15	Zr	0.873755	0.677450	-0.080734
Zr16	Zr	0.686680	0.677443	0.081612
Zr17	Zr	0.686668	0.839891	-0.080829
Zr18	Zr	0.873766	0.515003	0.081706
O19	O	0.838870	0.806563	0.051401
O20	O	0.838856	0.806573	-0.179575
O21	O	0.572860	0.806563	0.051259
O22	O	0.987588	0.548320	0.180595
O23	O	0.987574	0.548330	-0.050382
O24	O	0.721578	0.548321	0.180453
O25	O	0.987573	0.677449	-0.050377
O26	O	0.838879	0.677439	0.180520
O27	O	0.721576	0.677439	0.180457
O28	O	0.987579	0.677444	0.051477
O29	O	0.721552	0.908424	-0.179635
O30	O	0.838882	0.446470	0.180512
O31	O	0.987589	0.446470	0.180592
O32	O	0.987582	0.446475	0.051469
O33	O	0.572853	0.908418	-0.050592
O34	O	0.721560	0.908418	-0.050512
O35	O	0.823996	0.601432	0.114479
O36	O	0.911533	0.601435	0.038513
O37	O	0.823985	0.753458	-0.037542
O38	O	0.736447	0.753455	0.038424
C39	C	0.780220	0.474259	0.000432
C40	C	0.780220	0.405298	0.000430
C41	C	0.546203	0.677447	0.000314
C42	C	0.466780	0.677447	0.000271
C43	C	0.825912	0.372903	-0.039224
C44	C	0.825915	0.308103	-0.039219
C45	C	0.780221	0.275704	0.000436
C46	C	0.734528	0.308103	0.040096
C47	C	0.734530	0.372897	0.040094
C48	C	0.734518	0.046793	0.040102
C49	C	0.734516	-0.018004	0.040098
C50	C	0.825902	-0.018001	-0.039212
C51	C	0.825905	0.046793	-0.039213
C52	C	0.780216	0.079183	0.000449
C53	C	0.780214	0.149445	0.000444
C54	C	0.780217	0.205447	0.000437
C55	C	0.085264	0.756805	-0.039129
C56	C	0.176671	0.598089	0.040273
C57	C	0.251293	0.598088	0.040208
C58	C	0.242903	0.677446	0.000473
C59	C	0.159892	0.756806	-0.039197
C60	C	0.334309	0.518730	0.079871
C61	C	0.408937	0.518725	0.079807
C62	C	0.400549	0.598084	0.040076
C63	C	0.317531	0.677447	0.000405
C64	C	0.309141	0.756805	-0.039330
C65	C	0.226124	0.836169	-0.078997
C66	C	0.151503	0.836165	-0.078928
C67	C	0.475170	0.598089	0.040006
C68	C	0.383769	0.756807	-0.039399
C69	C	1.014231	0.677446	0.000564
C70	C	1.093654	0.677446	0.000606
C71	C	0.780205	0.677455	-0.202756
C72	C	0.780201	0.677458	-0.271718
C73	C	0.780215	0.880635	0.000445
C74	C	0.780214	0.949595	0.000448
C75	C	0.734501	0.756812	-0.343817
C76	C	0.734509	0.756810	-0.408611
C77	C	0.780212	0.677453	-0.401306
C78	C	0.825917	0.598092	-0.329200
C79	C	0.825914	0.598096	-0.264407
C80	C	0.825931	0.598077	-0.590503
C81	C	0.825928	0.598080	-0.655304
C82	C	0.734526	0.756792	-0.734708
C83	C	0.734523	0.756795	-0.669914
C84	C	0.780232	0.677435	-0.597814
C85	C	0.780224	0.677439	-0.527557
C86	C	0.780214	0.677448	-0.471562
C87	C	0.780229	0.677438	0.203633
C88	C	0.780233	0.677435	0.272596
C89	C	1.014234	0.474258	0.000557
C90	C	1.093657	0.405298	0.000597
C91	C	0.780231	0.474250	0.203627
C92	C	0.780236	0.405287	0.272587
C93	C	1.014246	0.474250	0.203752
C94	C	1.093673	0.405286	0.272754
C95	C	0.546188	0.880644	-0.202874
C96	C	0.466761	0.949607	-0.271877
C97	C	0.546200	0.880635	0.000320
C98	C	0.466777	0.949595	0.000280
C99	C	0.780203	0.880643	-0.202749
C100	C	0.780198	0.949607	-0.271709
C101	C	1.085257	0.372915	-0.039093
C102	C	1.159876	0.308129	-0.039070
C103	C	1.242895	0.275722	0.000647
C104	C	1.251293	0.308111	0.040339
C105	C	1.176675	0.372901	0.040311
C106	C	0.825937	0.372899	0.344680
C107	C	0.825938	0.308110	0.409482
C108	C	0.780243	0.275705	0.402189
C109	C	0.734537	0.308099	0.330088
C110	C	0.734531	0.372892	0.265288
C111	C	1.176674	0.372902	0.265505
C112	C	1.251312	0.308113	0.330334
C113	C	1.242946	0.275705	0.402412
C114	C	1.159936	0.308095	0.409659
C115	C	1.085300	0.372888	0.344831
C116	C	0.383760	0.981999	-0.264628
C117	C	0.309122	1.046808	-0.329457
C118	C	0.317488	1.079220	-0.401534
C119	C	0.400498	1.046825	-0.408782
C120	C	0.475134	0.982021	-0.343953
C121	C	0.475177	0.981985	0.039964
C122	C	0.400558	1.046789	0.039923
C123	C	0.317539	1.079198	0.000203
C124	C	0.309141	1.046806	-0.039485
C125	C	0.383759	0.982007	-0.039449
C126	C	0.825901	0.981991	-0.264392
C127	C	0.825914	1.046780	-0.329181
C128	C	0.780217	1.079189	-0.401287
C129	C	0.734512	1.046798	-0.408603
C130	C	0.734505	0.982005	-0.343815
H131	H	0.863117	0.399281	-0.071520
C132	C	0.684253	0.844090	-0.814025
N133	N	0.646388	0.909841	-0.873764
H134	H	1.183527	0.399258	0.072636
C135	C	0.500250	0.431424	0.123446
N136	N	0.569027	0.365668	0.156318
H137	H	1.153137	0.281699	0.468353
C138	C	0.185894	0.510800	0.083977
N139	N	0.192839	0.445050	0.116898
H140	H	0.863121	0.281725	-0.071508
C141	C	1.150618	0.272505	-0.082727
N142	N	1.143642	0.245673	-0.115608
C143	C	0.684285	1.082426	-0.487928
N144	N	0.646464	1.109255	-0.547677
C145	C	0.684290	0.082386	0.083759
N146	N	0.646468	0.109186	0.116655
H147	H	0.697279	0.821435	-0.349774
H148	H	0.863131	1.073146	-0.323209
C149	C	1.342614	0.272487	0.322345
N150	N	1.411381	0.245654	0.316325
C151	C	0.684263	0.272462	0.083717
N152	N	0.646400	0.245621	0.116571
H153	H	0.863113	0.955614	-0.205685
C154	C	0.684281	0.272440	0.322077
N155	N	0.646433	0.245574	0.316046
H156	H	0.219304	0.900783	-0.111354
H157	H	1.318897	0.281716	0.072675
H158	H	0.780230	1.131948	-0.454036
C159	C	-0.006052	0.844101	-0.082764
N160	N	-0.074833	0.909853	-0.115633
C161	C	0.566434	0.946387	-0.351940
N162	N	0.635200	0.919549	-0.357962
H163	H	1.303647	0.222965	0.000664
C164	C	1.325056	0.204424	0.473718
N165	N	1.386905	0.150733	0.527423
H166	H	0.697284	0.955645	-0.349784
C167	C	0.876230	0.272480	0.488786
N168	N	0.914113	0.245644	0.548516
C169	C	0.684266	0.408533	0.083717
N170	N	0.646407	0.435370	0.116577
C171	C	0.876173	0.082427	-0.082836
N172	N	0.914041	0.109262	-0.115690
C173	C	0.217811	1.082454	-0.083162
N174	N	0.149020	1.109299	-0.116052
C175	C	0.374530	0.844109	-0.083113
N176	N	0.367570	0.909866	-0.116041
H177	H	0.863108	-0.044383	-0.071505
H178	H	0.083907	0.900778	-0.111222
C179	C	0.876211	0.510776	-0.647262
N180	N	0.914082	0.445023	-0.641207
H181	H	0.697305	-0.044381	0.072393
C182	C	0.993943	0.408556	-0.082793
N183	N	0.925167	0.435401	-0.115715
H184	H	0.542758	0.533472	0.072309
H185	H	0.863147	0.399276	0.350633
C186	C	0.217820	1.082429	-0.321468
N187	N	0.149053	1.109257	-0.315448
H188	H	0.697319	0.399253	0.206588
C189	C	0.409686	1.082480	-0.488074
N190	N	0.416604	1.109331	-0.547799
C191	C	0.343529	0.431442	0.123573
N192	N	0.350472	0.365694	0.156493
C193	C	0.409816	1.082401	0.083592
N194	N	0.416792	1.109221	0.116485
H195	H	0.863127	0.533477	-0.205701
C196	C	0.235378	1.150499	-0.472840
N197	N	0.173529	1.204183	-0.526546
C198	C	0.684198	0.844106	-0.487920
N199	N	0.646288	0.909861	-0.547656
H200	H	1.017720	0.399247	0.350744
H201	H	0.780255	0.222947	0.454959
H202	H	0.376907	0.955638	-0.071761
C203	C	0.235465	1.150475	0.000175
N204	N	0.173649	1.204159	0.000158
H205	H	0.697303	0.821416	-0.675869
H206	H	0.376932	0.955613	-0.205945
H207	H	0.863150	0.533458	-0.531805
H208	H	0.863134	0.533478	-0.323257
H209	H	1.183502	0.399280	0.206822
H210	H	0.542769	0.955602	0.072313
