data_functionalizedCrystal
_audit_creation_method	'MofGen! by Chris Wilmer'
_symmetry_space_group_name_H-M	'P1'
_symmetry_Int_Tables_number	1
_symmetry_cell_setting	triclinic
loop_
_symmetry_equiv_pos_as_xyz
  x,y,z
_cell_length_a	13.339070
_cell_length_b	12.503572
_cell_length_c	13.339070
_cell_angle_alpha	94.480295
_cell_angle_beta	64.370706
_cell_angle_gamma	94.476789
loop_
_atom_site_label
_atom_site_type_symbol
_atom_site_fract_x
_atom_site_fract_y
_atom_site_fract_z
O1	O	1.501358	0.089349	-0.545950
O2	O	1.186548	0.089344	-0.473690
O3	O	1.307823	0.089343	-0.352415
O4	O	1.380083	0.089350	-0.667224
O5	O	1.298708	-0.089299	-0.361557
O6	O	1.177434	-0.089298	-0.482831
O7	O	1.492243	-0.089293	-0.555091
Cu8	Cu	1.334006	-0.105607	-0.519796
Cu9	Cu	1.344785	0.105658	-0.508985
O10	O	1.370968	-0.089292	-0.676366
C11	C	1.140876	0.000022	-0.466055
C12	C	1.018361	0.000021	-0.429671
N13	N	1.326432	-0.254199	-0.527401
C14	C	0.732975	0.000044	-0.712569
C15	C	0.848084	0.000050	-0.746756
C16	C	0.890659	0.000042	-0.667488
C17	C	0.818114	0.000030	-0.554026
C18	C	0.702994	0.000033	-0.519835
C19	C	0.860678	0.000031	-0.474754
C20	C	0.788133	0.000019	-0.361293
C21	C	0.673025	0.000021	-0.327107
C22	C	0.630449	0.000029	-0.406376
C23	C	0.975798	0.000027	-0.508945
C24	C	0.945817	0.000016	-0.316212
C25	C	0.830708	0.000011	-0.282024
C26	C	1.315294	-0.473314	-0.538599
C27	C	1.363501	-0.526642	-0.490179
C28	C	1.357304	-0.648565	-0.496409
C29	C	1.321490	-0.351380	-0.532369
C30	C	1.537916	0.000031	-0.562726
C31	C	1.660430	0.000040	-0.599109
N32	N	1.352365	0.254250	-0.501373
C33	C	1.291059	0.000023	-0.315871
C34	C	1.254676	0.000027	-0.193356
C35	C	1.387732	0.000030	-0.712910
C36	C	1.424116	0.000034	-0.835424
C37	C	1.537575	0.000031	0.092031
C38	C	1.571762	0.000021	-0.023078
C39	C	1.492494	0.000023	-0.065653
C40	C	1.379032	0.000034	0.006892
C41	C	1.344841	0.000035	0.122012
C42	C	1.299760	0.000027	-0.035673
C43	C	1.186298	0.000038	0.036873
C44	C	1.152113	0.000040	0.151981
C45	C	1.231382	0.000038	0.194557
C46	C	1.333951	0.000026	-0.150793
C47	C	1.141217	0.000030	-0.120812
C48	C	1.107030	0.000039	-0.005703
H49	H	0.984387	0.000049	-0.695330
H50	H	1.664142	0.000011	-0.082136
H51	H	1.409428	-0.480729	-0.444047
O52	O	1.260600	-0.528243	-0.593636
C53	C	1.266502	-0.639511	-0.587670
H54	H	1.341440	-0.654719	-0.571778
H55	H	1.275634	-0.682347	-0.669598
H56	H	1.187208	-0.671441	-0.516811
H57	H	1.426331	0.000017	-0.209848
H58	H	1.520336	0.000015	-0.159381
H59	H	0.907143	0.000068	-0.839136
H60	H	1.602103	0.000020	0.126708
O61	O	1.198317	0.000189	0.306363
C62	C	1.244458	0.092727	0.341325
H63	H	1.321998	0.123570	0.267808
H64	H	1.267905	0.071926	0.409902
H65	H	1.180782	0.157512	0.374538
H66	H	1.059725	0.000040	0.211045
O67	O	0.996855	0.000186	0.064891
C68	C	0.976039	0.092722	0.137084
H69	H	1.056164	0.123567	0.142884
H70	H	0.910157	0.071917	0.223315
H71	H	0.944963	0.157508	0.103433
O72	O	0.691430	0.000007	-0.789416
C73	C	0.574274	0.000039	-0.734904
H74	H	0.543950	-0.033787	-0.649150
H75	H	0.537441	-0.051817	-0.786104
H76	H	0.546697	0.085745	-0.725378
O77	O	0.518616	0.000171	-0.373025
C78	C	0.476660	0.092705	-0.304037
H79	H	0.535815	0.123551	-0.265886
H80	H	0.391214	0.071897	-0.234859
H81	H	0.469022	0.157491	-0.355576
O82	O	1.064354	0.000083	-0.162338
C83	C	1.118858	0.000058	-0.279497
H84	H	1.208072	0.033877	-0.306367
H85	H	1.072959	0.051925	-0.311024
H86	H	1.119618	-0.085645	-0.315838
H87	H	1.034853	0.000033	-0.601326
H88	H	0.771626	0.000010	-0.189642
O89	O	0.602674	0.000160	-0.216853
C90	C	0.626393	0.092689	-0.161853
H91	H	0.715809	0.123534	-0.212499
H92	H	0.615560	0.071875	-0.075932
H93	H	0.566991	0.157478	-0.152651
H94	H	0.980480	0.000015	-0.251664
