data_functionalizedCrystal
_audit_creation_method	'MofGen! by Chris Wilmer'
_symmetry_space_group_name_H-M	'P1'
_symmetry_Int_Tables_number	1
_symmetry_cell_setting	triclinic
loop_
_symmetry_equiv_pos_as_xyz
  x,y,z
_cell_length_a	10.654541
_cell_length_b	14.044220
_cell_length_c	9.130307
_cell_angle_alpha	89.995545
_cell_angle_beta	89.999822
_cell_angle_gamma	88.836403
loop_
_atom_site_label
_atom_site_type_symbol
_atom_site_fract_x
_atom_site_fract_y
_atom_site_fract_z
O1	O	1.681226	0.133219	-0.121759
O2	O	1.317023	0.145915	-0.121772
O3	O	1.493658	0.001547	-0.121751
O4	O	1.504591	0.277588	-0.121780
O5	O	1.493651	0.001545	0.121848
O6	O	1.317016	0.145914	0.121827
O7	O	1.681220	0.133218	0.121840
Cu8	Cu	1.499117	0.139565	0.144076
Cu9	Cu	1.499125	0.139567	-0.144008
O10	O	1.504585	0.277586	0.121819
C11	C	1.270128	0.144983	0.000026
C12	C	1.130404	0.142195	0.000021
C13	C	1.119781	0.314827	-0.000015
C14	C	1.048829	0.399829	-0.000039
C15	C	0.917547	0.397204	-0.000040
C16	C	0.857215	0.309567	-0.000013
C17	C	0.928167	0.224565	0.000011
C18	C	1.059452	0.227199	0.000008
C19	C	0.938790	0.051935	0.000058
C20	C	1.070072	0.054558	0.000049
C21	C	0.878458	-0.035701	0.000085
C22	C	0.949411	-0.120706	0.000098
C23	C	1.080701	-0.118077	0.000098
C24	C	1.141025	-0.030444	0.000072
C25	C	1.488869	-0.033800	0.000049
C26	C	1.474593	-0.139120	0.000050
C27	C	1.448494	-0.331952	0.000028
C28	C	1.549742	-0.388921	0.000027
C29	C	1.535221	-0.496219	0.000015
C30	C	1.463014	-0.224644	0.000040
C31	C	1.728114	0.134150	0.000039
C32	C	1.867838	0.136938	0.000034
C33	C	1.509374	0.312933	0.000016
C34	C	1.523649	0.418252	0.000005
N35	N	1.499121	0.139564	0.346699
N36	N	1.499130	0.139561	-0.346631
C37	C	1.655605	0.011763	0.346707
C38	C	1.733855	-0.052134	0.423378
C39	C	1.733868	-0.052135	0.576712
C40	C	1.655619	0.011767	0.653378
C41	C	1.577368	0.075664	0.576707
C42	C	1.577367	0.075660	0.423370
C43	C	1.420880	0.203459	0.576698
C44	C	1.420872	0.203466	0.423365
C45	C	1.342631	0.267361	0.653364
C46	C	1.264385	0.331265	0.576693
C47	C	1.264377	0.331263	0.423351
C48	C	1.342621	0.267363	0.346694
H49	H	1.097966	0.471181	-0.000057
C50	C	1.158744	-0.211579	0.000127
H51	H	1.245573	-0.197468	0.000131
H52	H	1.139407	-0.247484	-0.084807
H53	H	1.139410	-0.247464	0.085100
C54	C	1.264187	0.317718	-0.000026
H55	H	1.289956	0.382082	-0.000039
H56	H	1.295845	0.286425	-0.084964
H57	H	1.295849	0.286443	0.084943
H58	H	1.350915	-0.363762	0.000021
C59	C	1.178288	0.401525	0.661018
H60	H	1.131671	0.439574	0.593400
H61	H	1.227884	0.441338	0.720854
H62	H	1.122163	0.366999	0.720813
H63	H	1.342638	0.267354	0.778217
C64	C	1.655601	0.011772	0.178045
H65	H	1.597799	0.058984	0.143364
H66	H	1.631628	-0.048978	0.143356
H67	H	1.737380	0.025335	0.143362
C68	C	0.839497	0.490703	-0.000075
H69	H	0.894225	0.543272	-0.000101
H70	H	0.788055	0.493272	0.084867
H71	H	0.788071	0.493253	-0.085040
C72	C	1.681578	-0.345957	0.000050
H73	H	1.743194	-0.395813	0.000042
H74	H	1.691429	-0.307788	0.085004
H75	H	1.691447	-0.307773	-0.084904
C76	C	1.819922	-0.122421	0.339045
H77	H	1.808719	-0.113268	0.236744
H78	H	1.799198	-0.185827	0.364185
H79	H	1.904955	-0.111518	0.364166
H80	H	1.200651	0.383293	0.360933
C81	C	1.819938	-0.122422	0.661053
H82	H	1.866542	-0.160477	0.593440
H83	H	1.770314	-0.162225	0.720881
H84	H	1.876075	-0.087919	0.720856
C85	C	0.712809	0.306681	-0.000003
H86	H	0.679194	0.369856	-0.000024
H87	H	0.685073	0.274209	0.084952
H88	H	0.685070	0.274207	-0.084955
H89	H	0.771562	-0.037833	0.000092
C90	C	0.883046	-0.217092	0.000125
H91	H	0.794698	-0.206481	0.000120
H92	H	0.906745	-0.252128	0.085076
H93	H	0.906735	-0.252128	-0.084831
C94	C	1.285430	-0.027548	0.000076
H95	H	1.311195	0.036816	0.000069
H96	H	1.317100	-0.058839	-0.084858
H97	H	1.317085	-0.058822	0.085049
H98	H	1.655622	0.011755	0.778230
H99	H	1.342627	0.267360	0.221842
