data_functionalizedCrystal
_audit_creation_method	'MofGen! by Chris Wilmer'
_symmetry_space_group_name_H-M	'P1'
_symmetry_Int_Tables_number	1
_symmetry_cell_setting	triclinic
loop_
_symmetry_equiv_pos_as_xyz
  x,y,z
_cell_length_a	16.992694
_cell_length_b	14.519709
_cell_length_c	16.053802
_cell_angle_alpha	92.569364
_cell_angle_beta	87.249047
_cell_angle_gamma	87.174184
loop_
_atom_site_label
_atom_site_type_symbol
_atom_site_fract_x
_atom_site_fract_y
_atom_site_fract_z
O1	O	1.043963	0.191936	-0.069327
O2	O	0.815676	0.189789	-0.069352
O3	O	0.935872	0.057059	-0.069332
O4	O	0.923768	0.324666	-0.069348
O5	O	0.929256	0.064333	0.069526
O6	O	0.809060	0.197063	0.069506
O7	O	1.037348	0.199210	0.069530
Zn8	Zn	0.922154	0.199291	0.091565
Zn9	Zn	0.930870	0.189708	-0.091386
O10	O	0.917152	0.331940	0.069510
C11	C	0.783152	0.190666	0.000074
C12	C	0.696097	0.182430	0.000065
C13	C	0.645968	0.261890	0.000061
C14	C	0.564170	0.254147	0.000073
C15	C	0.532503	0.166943	0.000083
C16	C	0.582638	0.087478	0.000089
C17	C	0.664434	0.095222	0.000083
C18	C	0.288859	0.134847	0.000107
C19	C	0.207056	0.127109	0.000111
C20	C	0.188594	0.293779	0.000095
C21	C	0.270393	0.301515	0.000084
C22	C	0.320520	0.222050	0.000095
N23	N	0.448892	0.159027	0.000092
N24	N	0.404129	0.229968	0.000092
C25	C	0.932000	0.026296	0.000097
C26	C	0.930309	-0.076207	0.000098
C27	C	0.924087	-0.451551	0.000075
C28	C	0.925815	-0.347118	0.000082
C29	C	0.927198	-0.263882	0.000087
C30	C	0.928926	-0.159443	0.000092
C31	C	1.069872	0.198333	0.000103
C32	C	1.156927	0.206569	0.000106
C33	C	0.921024	0.362703	0.000079
C34	C	0.922715	0.465206	0.000073
N35	N	0.916210	0.205832	0.216424
N36	N	0.936820	0.183161	-0.216246
C37	C	0.967373	0.149377	0.260127
C38	C	0.963222	0.153962	0.347533
C39	C	0.907913	0.215006	0.391235
C40	C	0.856746	0.271462	0.347526
C41	C	0.860893	0.266872	0.260121
C42	C	0.889799	0.235027	0.652641
C43	C	0.885658	0.239615	0.740052
C44	C	0.992134	0.122113	0.740053
C45	C	0.996279	0.117533	0.652646
C46	C	0.945109	0.173985	0.608945
N47	N	0.903672	0.219695	0.480578
N48	N	0.949347	0.169291	0.519604
H49	H	0.671745	0.332900	0.000052
C50	C	0.554138	0.419667	0.000045
C51	C	0.509068	0.341492	0.000064
H52	H	0.520119	0.473591	0.000036
H53	H	0.584125	0.421761	0.048462
H54	H	0.588726	0.416672	-0.048384
H55	H	0.474484	0.344483	0.048497
H56	H	0.479067	0.339398	-0.048357
H57	H	0.329663	0.070141	0.000117
H58	H	0.296170	0.372525	0.000066
H59	H	0.705249	0.030517	0.000086
H60	H	0.848135	0.280995	0.617067
H61	H	0.840616	0.289328	0.775630
C62	C	0.233517	-0.036868	0.000134
C63	C	0.172246	0.031248	0.000123
H64	H	0.212025	-0.096043	0.000145
H65	H	0.267339	-0.032923	-0.048285
H66	H	0.262734	-0.027838	0.048561
H67	H	0.143033	0.022222	-0.048306
H68	H	0.138411	0.027300	0.048548
H69	H	1.004882	0.107992	0.383115
H70	H	1.012414	0.099673	0.224550
C71	C	0.465450	0.001601	0.000098
C72	C	0.547831	-0.008379	0.000099
H73	H	0.443965	-0.057580	0.000096
H74	H	0.445955	0.037102	0.048516
H75	H	0.450560	0.032036	-0.048330
H76	H	0.562721	-0.038809	0.048530
H77	H	0.567333	-0.043895	-0.048324
C78	C	1.101102	0.001838	0.661430
C79	C	1.057072	0.050426	0.604612
H80	H	1.138631	-0.039594	0.631774
H81	H	1.127743	0.044117	0.695508
H82	H	1.066791	-0.031975	0.695534
H83	H	1.091383	0.084244	0.570513
H84	H	1.030430	0.008140	0.570520
C85	C	0.055008	0.355917	0.000105
C86	C	0.133491	0.381124	0.000094
H87	H	0.020992	0.409845	0.000112
H88	H	0.047698	0.317881	-0.048313
H89	H	0.043106	0.322943	0.048533
H90	H	0.145396	0.414092	-0.048337
H91	H	0.140805	0.419175	0.048517
C92	C	0.848710	0.385964	0.161802
C93	C	0.804656	0.328929	0.212077
H94	H	0.813988	0.424270	0.132139
H95	H	0.879769	0.423360	0.195889
H96	H	0.882240	0.348941	0.123272
H97	H	0.771130	0.365953	0.250612
H98	H	0.773584	0.291530	0.177988
H99	H	1.033794	0.076151	0.775642
H100	H	0.811708	0.321162	0.383113
