data_functionalizedCrystal
_audit_creation_method	'MofGen! by Chris Wilmer'
_symmetry_space_group_name_H-M	'P1'
_symmetry_Int_Tables_number	1
_symmetry_cell_setting	triclinic
loop_
_symmetry_equiv_pos_as_xyz
  x,y,z
_cell_length_a	18.426585
_cell_length_b	23.196402
_cell_length_c	23.196402
_cell_angle_alpha	90.005244
_cell_angle_beta	60.005504
_cell_angle_gamma	59.998591
loop_
_atom_site_label
_atom_site_type_symbol
_atom_site_fract_x
_atom_site_fract_y
_atom_site_fract_z
Zr1	Zr	0.794338	0.555361	-0.075626
O2	O	0.945737	0.463301	-0.167672
O3	O	0.642938	0.583583	-0.047412
O4	O	0.794335	0.583572	-0.167676
O5	O	0.794342	0.463320	0.047462
O6	O	0.794333	0.678443	-0.167675
O7	O	0.794340	0.463312	-0.047408
O8	O	0.523512	0.678462	0.047455
O9	O	1.065164	0.463300	-0.167669
O10	O	0.705210	0.666420	-0.035375
O11	O	0.705212	0.595624	0.035425
O12	O	0.883463	0.595612	-0.106170
O13	O	0.883466	0.524816	-0.035370
Zr14	Zr	0.794338	0.706683	0.075682
Zr15	Zr	0.794335	0.706670	-0.075625
Zr16	Zr	0.794341	0.555374	0.075681
Zr17	Zr	0.984809	0.555360	-0.075620
Zr18	Zr	0.603866	0.706683	0.075676
O19	O	0.945737	0.678461	0.047468
O20	O	0.945733	0.678443	-0.167671
O21	O	0.945741	0.463319	0.047466
O22	O	0.642938	0.798743	0.167728
O23	O	0.642934	0.798724	-0.047410
O24	O	0.642942	0.583601	0.167727
O25	O	0.794333	0.798724	-0.047406
O26	O	0.794340	0.678472	0.167732
O27	O	0.794342	0.583600	0.167731
O28	O	0.794335	0.798732	0.047464
O29	O	1.065161	0.583571	-0.167668
O30	O	0.523514	0.678473	0.167724
O31	O	0.523512	0.798743	0.167724
O32	O	0.523509	0.798733	0.047456
O33	O	1.065166	0.463310	-0.047400
O34	O	1.065164	0.583581	-0.047399
O35	O	0.705212	0.666432	0.106226
O36	O	0.705210	0.737227	0.035426
O37	O	0.883463	0.666419	-0.035369
O38	O	0.883466	0.595624	0.035430
C39	C	0.556087	0.631023	0.000021
C40	C	0.475227	0.631023	0.000018
C41	C	0.794341	0.631038	0.189289
C42	C	0.794343	0.631043	0.253523
C43	C	0.794334	0.820286	0.000029
C44	C	0.794333	0.884521	0.000030
C45	C	0.179117	0.631019	0.000039
C46	C	0.261504	0.631018	0.000035
C47	C	0.327170	0.631020	0.000028
C48	C	0.409561	0.631021	0.000025
C49	C	1.032588	0.631021	0.000035
C50	C	1.113449	0.631020	0.000037
C51	C	0.794341	0.441757	0.000027
C52	C	0.794343	0.377523	0.000026
C53	C	0.701289	0.951655	0.036988
C54	C	0.701288	1.012010	0.036984
C55	C	0.794335	1.005227	0.000032
C56	C	0.887391	0.938081	-0.036934
C57	C	0.887390	0.877728	-0.036936
C58	C	0.865623	1.072528	0.005313
C59	C	0.865621	1.132882	0.005320
C60	C	0.794343	1.191375	0.000032
C61	C	0.723051	1.189513	-0.005248
C62	C	0.723050	1.129160	-0.005249
C63	C	0.794347	1.070666	0.000029
C64	C	0.701292	1.323955	0.036988
C65	C	0.701294	1.384310	0.036980
C66	C	0.887400	1.310379	-0.036934
C67	C	0.887395	1.250026	-0.036930
C68	C	0.794338	1.256819	0.000035
C69	C	0.794334	0.631006	-0.189234
C70	C	0.794333	0.631000	-0.253467
C71	C	0.887386	0.594085	0.246744
C72	C	0.887388	0.594075	0.307098
C73	C	0.794340	0.631036	0.374231
C74	C	0.701284	0.667996	0.381008
C75	C	0.701285	0.667999	0.320654
C76	C	0.723052	0.692939	0.498167
C77	C	0.723055	0.692938	0.558518
C78	C	0.794332	0.631024	0.560385
C79	C	0.865624	0.569113	0.501886
C80	C	0.865626	0.569117	0.441532
C81	C	0.794328	0.631036	0.439679
C82	C	0.887384	0.594052	0.619046
C83	C	0.887381	0.594039	0.679403
C84	C	0.701275	0.667967	0.753313
C85	C	0.701280	0.667973	0.692957
C86	C	0.794337	0.631017	0.625826
C87	C	0.556083	0.820287	0.000022
C88	C	0.475222	0.884522	0.000020
C89	C	0.556091	0.631039	0.189282
C90	C	0.475232	0.631044	0.253513
C91	C	0.556087	0.820303	0.189284
C92	C	0.475227	0.884543	0.253515
C93	C	1.032588	0.441740	-0.189228
C94	C	1.113449	0.377500	-0.253459
C95	C	1.032592	0.441756	0.000034
C96	C	1.113453	0.377521	0.000036
C97	C	1.032585	0.631005	-0.189227
C98	C	1.113444	0.630999	-0.253458
C99	C	0.437248	0.877727	-0.036944
C100	C	0.361281	0.938076	-0.036960
C101	C	0.323283	1.005221	-0.000007
C102	C	0.361264	1.012015	0.036958
C103	C	0.437235	0.951666	0.036970
C104	C	0.437260	0.668008	0.320641
C105	C	0.361295	0.668011	0.380999
C106	C	0.323298	0.631054	0.374228
C107	C	0.361278	0.594086	0.307093
C108	C	0.437247	0.594079	0.246737
C109	C	0.437253	0.951672	0.246722
C110	C	0.361286	1.012039	0.307069
C111	C	0.323291	1.005275	0.374208
C112	C	0.361272	0.938139	0.380999
C113	C	0.437242	0.877774	0.320653
C114	C	1.151432	0.310371	-0.246667
C115	C	1.227422	0.250005	-0.307013
C116	C	1.265421	0.256769	-0.374152
C117	C	1.227435	0.323905	-0.380944
C118	C	1.151452	0.384269	-0.320598
C119	C	1.151435	0.384317	0.036994
C120	C	1.227423	0.323967	0.036993
C121	C	1.265424	0.256823	0.000038
C122	C	1.227439	0.250029	-0.036925
C123	C	1.151457	0.310378	-0.036928
C124	C	1.151416	0.667963	-0.246664
C125	C	1.227381	0.667972	-0.307010
C126	C	1.265378	0.631011	-0.374150
C127	C	1.227398	0.594046	-0.380942
C128	C	1.151429	0.594042	-0.320596
H129	H	0.625518	1.066681	0.067093
H130	H	0.468178	0.957193	0.192060
O131	O	0.320272	1.084439	0.076812
H132	H	0.359440	1.079035	0.102517
O133	O	1.268427	0.177605	-0.076778
H134	H	1.303052	0.171449	-0.133582
H135	H	0.625515	0.957192	0.067086
H136	H	0.261440	0.631065	0.423379
H137	H	0.963157	0.563976	0.301578
H138	H	1.120535	0.304835	-0.067022
O139	O	1.347364	0.191742	0.000062
H140	H	1.416611	0.159861	-0.054962
O141	O	0.646172	1.127149	-0.010957
H142	H	0.598035	1.118777	0.036489
H143	H	0.468188	0.698103	0.326167
H144	H	1.120497	0.304850	-0.192004
H145	H	0.330330	0.563996	0.301591
O146	O	1.110472	0.456673	-0.327928
H147	H	1.149657	0.451228	-0.384753
H148	H	0.963161	0.563991	0.192086
O149	O	1.110430	0.707839	-0.174253
H150	H	1.149596	0.733549	-0.179679
H151	H	1.258297	0.698072	-0.301466
O152	O	0.600931	1.331272	0.076843
H153	H	0.536228	1.388099	0.102532
H154	H	1.120501	0.438984	0.067092
O155	O	0.646173	1.252592	-0.010961
H156	H	0.598048	1.299216	0.036478
H157	H	1.258384	0.329403	-0.435615
O158	O	0.241344	1.070306	-0.000027
H159	H	0.221301	1.118142	0.031873
H160	H	0.963161	1.195361	-0.067022
H161	H	1.258337	0.329513	0.067095
O162	O	0.320364	1.084442	0.299730
H163	H	0.261176	1.125287	0.352967
H164	H	0.625514	0.698057	0.807974
O165	O	1.268387	0.554202	-0.453367
H166	H	1.204614	0.575569	-0.459515
H167	H	0.468151	0.823117	0.326194
H168	H	1.120520	0.563938	-0.326138
H169	H	1.258337	0.195346	-0.301470
O170	O	0.320277	0.930854	0.453418
H171	H	0.359445	0.874034	0.448012
O172	O	0.478175	0.958998	0.076853
H173	H	0.438974	1.015828	0.102551
O174	O	1.347330	0.631007	-0.439235
H175	H	1.367355	0.662915	-0.423225
H176	H	0.963161	1.304855	-0.067025
O177	O	0.600936	1.456726	0.076840
H178	H	0.536232	1.451305	0.102547
H179	H	0.261431	1.054433	0.423340
H180	H	0.923685	1.134386	0.009604
H181	H	0.963151	0.932561	-0.067022
O182	O	0.942495	1.009443	0.011028
H183	H	0.992052	1.020882	0.014715
O184	O	1.347386	0.191658	-0.439238
H185	H	1.367407	0.143845	-0.423228
O186	O	0.987747	0.805311	-0.076794
H187	H	1.052452	0.810730	-0.102489
O188	O	0.320322	0.707898	0.453403
H189	H	0.359493	0.733606	0.447965
H190	H	0.468153	0.563981	0.192081
H191	H	0.923672	0.518706	0.393905
H192	H	0.330366	0.932531	-0.067062
H193	H	0.468185	0.823060	-0.067045
H194	H	0.923666	0.518697	0.503402
H195	H	0.963152	0.563939	0.673877
O196	O	0.987745	0.554185	0.546637
H197	H	1.052447	0.528472	0.552064
H198	H	0.625514	0.698072	0.698480
H199	H	0.665009	0.743350	0.606143
H200	H	0.664999	0.743358	0.496659
H201	H	0.625516	0.698096	0.326179
O202	O	0.600922	0.707901	0.453412
H203	H	0.616552	0.701709	0.494243
