data_functionalizedCrystal
_audit_creation_method	'MofGen! by Chris Wilmer'
_symmetry_space_group_name_H-M	'P1'
_symmetry_Int_Tables_number	1
_symmetry_cell_setting	triclinic
loop_
_symmetry_equiv_pos_as_xyz
  x,y,z
_cell_length_a	13.897449
_cell_length_b	17.077402
_cell_length_c	13.897441
_cell_angle_alpha	90.032043
_cell_angle_beta	89.981404
_cell_angle_gamma	89.975837
loop_
_atom_site_label
_atom_site_type_symbol
_atom_site_fract_x
_atom_site_fract_y
_atom_site_fract_z
Zn1	Zn	1.474647	0.312464	-0.545365
Zn2	Zn	1.474533	0.443744	-0.384060
Zn3	Zn	1.313343	0.312499	-0.384083
Zn4	Zn	1.313304	0.443695	-0.545312
O5	O	1.393957	0.378100	-0.464705
O6	O	1.609614	0.329884	-0.523980
O7	O	1.453119	0.426369	-0.249081
O8	O	1.334804	0.202647	-0.405510
O9	O	1.609530	0.426335	-0.405469
O10	O	1.453314	0.202622	-0.524003
O11	O	1.334693	0.329944	-0.249098
O12	O	1.178356	0.329896	-0.405459
O13	O	1.334738	0.426251	-0.680301
O14	O	1.178327	0.426285	-0.523913
O15	O	1.453277	0.329837	-0.680340
O16	O	1.453081	0.553584	-0.405418
O17	O	1.334627	0.553548	-0.523890
C18	C	1.393864	0.582048	-0.464667
C19	C	1.393912	0.669298	-0.464682
C20	C	1.143342	0.378090	-0.464683
C21	C	1.036128	0.378104	-0.464696
C22	C	1.394016	0.378034	-0.716298
C23	C	1.394041	0.378006	-0.823512
C24	C	0.839833	0.378107	-0.464722
C25	C	0.949066	0.378103	-0.464705
C26	C	1.645550	0.378111	-0.464728
C27	C	1.752764	0.378116	-0.464737
C28	C	1.394076	0.173356	-0.464765
C29	C	1.394127	0.086106	-0.464790
C30	C	1.455654	0.710281	-0.403060
C31	C	1.455701	0.792261	-0.403085
C32	C	1.394001	0.833257	-0.464727
C33	C	1.332256	0.792269	-0.526356
C34	C	1.332214	0.710290	-0.526336
C35	C	1.332345	0.963139	-0.526393
C36	C	1.332385	1.045123	-0.526412
C37	C	1.455832	1.045110	-0.403142
C38	C	1.455791	0.963131	-0.403122
C39	C	1.394044	0.922148	-0.464749
C40	C	1.394061	0.377984	-0.910582
C41	C	1.394088	0.377949	-1.019815
C42	C	1.393953	0.378109	-0.214091
C43	C	1.394115	0.377916	-0.106877
H44	H	1.505894	0.676907	-0.352860
O45	O	1.272563	1.084916	-0.586435
C46	C	1.293576	1.064802	-0.682584
H47	H	1.370619	1.042204	-0.687507
H48	H	1.285283	1.118696	-0.730239
H49	H	1.241820	1.017243	-0.707755
O50	O	1.515678	0.923394	-0.343108
C51	C	1.494649	0.943482	-0.246954
H52	H	1.457603	1.003031	-0.244932
H53	H	1.564291	0.946263	-0.203766
H54	H	1.445051	0.897397	-0.214412
H55	H	1.282022	0.825654	-0.576551
O56	O	1.272287	0.670561	-0.586330
C57	C	1.293345	0.690506	-0.682490
H58	H	1.330449	0.750004	-0.684533
H59	H	1.223710	0.693327	-0.725686
H60	H	1.342902	0.644317	-0.715008
O61	O	1.272317	0.923243	-0.586125
C62	C	1.210006	0.875915	-0.531140
H63	H	1.244063	0.863652	-0.458070
H64	H	1.197024	0.818253	-0.570407
H65	H	1.138548	0.907566	-0.520483
H66	H	1.505977	0.825626	-0.352905
O67	O	1.515887	1.085038	-0.343471
C68	C	1.502738	1.166185	-0.356745
H69	H	1.470978	1.177330	-0.431110
H70	H	1.575055	1.197250	-0.350446
H71	H	1.451551	1.189594	-0.299415
