data_functionalizedCrystal
_audit_creation_method	'MofGen! by Chris Wilmer'
_symmetry_space_group_name_H-M	'P1'
_symmetry_Int_Tables_number	1
_symmetry_cell_setting	triclinic
loop_
_symmetry_equiv_pos_as_xyz
  x,y,z
_cell_length_a	14.044202
_cell_length_b	13.101039
_cell_length_c	14.044190
_cell_angle_alpha	93.663707
_cell_angle_beta	93.192239
_cell_angle_gamma	86.337612
loop_
_atom_site_label
_atom_site_type_symbol
_atom_site_fract_x
_atom_site_fract_y
_atom_site_fract_z
O1	O	-1.281982	0.085183	-0.225388
O2	O	-0.948649	0.418517	0.107946
O3	O	-0.615316	0.751850	0.441279
O4	O	-1.005311	0.085196	-0.217072
O5	O	-0.671977	0.418529	0.116261
O6	O	-0.338644	0.751863	0.449595
O7	O	-1.139489	0.085170	-0.082895
O8	O	-0.806156	0.418503	0.250439
O9	O	-0.472822	0.751837	0.583772
O10	O	-1.147804	0.085210	-0.359565
O11	O	-0.814471	0.418543	-0.026232
O12	O	-0.481137	0.751876	0.307102
O13	O	-1.129863	-0.085258	-0.092539
O14	O	-0.796530	0.248075	0.240794
O15	O	-0.463197	0.581409	0.574128
O16	O	-0.995685	-0.085232	-0.226717
O17	O	-0.662352	0.248102	0.106617
O18	O	-0.329018	0.581435	0.439950
O19	O	-1.272357	-0.085244	-0.235032
O20	O	-0.939023	0.248089	0.098301
O21	O	-0.605690	0.581422	0.431634
Zn22	Zn	-1.132493	-0.112297	-0.232406
Zn23	Zn	-0.799159	0.221036	0.100928
Zn24	Zn	-0.465826	0.554369	0.434261
Zn25	Zn	-1.145175	0.112249	-0.219699
Zn26	Zn	-0.811841	0.445582	0.113635
Zn27	Zn	-0.478508	0.778916	0.446968
O28	O	-1.138178	-0.085218	-0.369210
O29	O	-0.804845	0.248115	-0.035876
O30	O	-0.471512	0.581449	0.297457
C31	C	-0.964876	-0.000016	-0.218257
C32	C	-0.631542	0.333317	0.115076
C33	C	-0.298209	0.666650	0.448409
C34	C	-0.858733	-0.000013	-0.207409
C35	C	-0.525399	0.333321	0.125924
C36	C	-0.192066	0.666654	0.459258
C37	C	-0.613276	-0.000014	-0.264508
C38	C	-0.279942	0.333319	0.068826
C39	C	0.053391	0.666653	0.402159
C40	C	-0.664399	-0.000024	-0.187592
C41	C	-0.331065	0.333310	0.145741
C42	C	0.002268	0.666643	0.479075
C43	C	-0.772536	-0.000017	-0.198621
C44	C	-0.439203	0.333316	0.134712
C45	C	-0.105869	0.666649	0.468046
C46	C	-0.505128	-0.000020	-0.253480
C47	C	-0.171795	0.333313	0.079853
C48	C	0.161538	0.666646	0.413186
N49	N	-1.123844	-0.265544	-0.241078
N50	N	-0.790511	0.067789	0.092256
N51	N	-0.457177	0.401123	0.425589
C52	C	-1.112078	-0.474584	-0.252885
C53	C	-0.778745	-0.141251	0.080448
C54	C	-0.445412	0.192082	0.413781
C55	C	-1.165593	-0.525471	-0.199215
C56	C	-0.832260	-0.192137	0.134119
C57	C	-0.498926	0.141196	0.467452
C58	C	-1.159046	-0.641788	-0.205785
C59	C	-0.825713	-0.308454	0.127549
C60	C	-0.492380	0.024879	0.460882
C61	C	-1.118624	-0.358257	-0.246317
C62	C	-0.785291	-0.024923	0.087017
C63	C	-0.451957	0.308410	0.420350
C64	C	-0.312792	-0.000029	-0.233845
C65	C	0.020542	0.333304	0.099489
C66	C	0.353875	0.666638	0.432822
C67	C	-0.418936	-0.000025	-0.244687
C68	C	-0.085602	0.333308	0.088647
C69	C	0.247731	0.666642	0.421980
C70	C	-1.131039	-0.000047	-0.052095
C71	C	-0.797706	0.333286	0.281238
C72	C	-0.464373	0.666620	0.614572
C73	C	-1.120192	-0.000055	0.054048
C74	C	-0.786858	0.333278	0.387381
C75	C	-0.453525	0.666611	0.720715
N76	N	-1.153830	0.265496	-0.211019
N77	N	-0.820497	0.598829	0.122314
N78	N	-0.487163	0.932162	0.455647
C79	C	-1.146628	0.000001	-0.400009
C80	C	-0.813295	0.333334	-0.066676
C81	C	-0.479961	0.666668	0.266658
C82	C	-1.157476	0.000016	-0.506152
C83	C	-0.824143	0.333349	-0.172818
C84	C	-0.490810	0.666683	0.160515
C85	C	-1.177294	-0.000018	0.299507
C86	C	-0.843961	0.333315	0.632840
C87	C	-0.510628	0.666649	0.966173
C88	C	-1.100378	-0.000021	0.248384
C89	C	-0.767044	0.333312	0.581717
C90	C	-0.433711	0.666645	0.915050
C91	C	-1.111405	-0.000040	0.140245
C92	C	-0.778072	0.333293	0.473579
C93	C	-0.444738	0.666626	0.806912
C94	C	-1.166269	0.000001	0.407655
C95	C	-0.832935	0.333334	0.740988
C96	C	-0.499602	0.666668	1.074322
H97	H	-0.626957	0.000038	-0.113456
H98	H	-0.293623	0.333371	0.219878
H99	H	0.039710	0.666705	0.553211
C100	C	-0.663862	0.000011	-0.364651
C101	C	-0.330529	0.333344	-0.031317
C102	C	0.002805	0.666677	0.302016
N103	N	-0.701975	0.000034	-0.440077
N104	N	-0.368642	0.333367	-0.106744
N105	N	-0.035308	0.666701	0.226589
H106	H	-1.216325	-0.481678	-0.148333
H107	H	-0.882992	-0.148345	0.185001
H108	H	-0.549659	0.184988	0.518334
H109	H	-1.251420	-0.000032	0.262062
H110	H	-0.918087	0.333302	0.595396
H111	H	-0.584754	0.666635	0.928729
C112	C	-1.043545	-0.533743	-0.321620
C113	C	-0.710211	-0.200409	0.011713
C114	C	-0.376878	0.132924	0.345046
N115	N	-0.991926	-0.578313	-0.373391
N116	N	-0.658593	-0.244979	-0.040058
N117	N	-0.325260	0.088354	0.293275
C118	C	-1.000227	-0.000016	0.298970
C119	C	-0.666894	0.333318	0.632303
C120	C	-0.333561	0.666651	0.965636
N121	N	-0.924796	-0.000016	0.337075
N122	N	-0.591463	0.333317	0.670409
N123	N	-0.258130	0.666651	1.003742
