data_functionalizedCrystal
_audit_creation_method	'MofGen! by Chris Wilmer'
_symmetry_space_group_name_H-M	'P1'
_symmetry_Int_Tables_number	1
_symmetry_cell_setting	triclinic
loop_
_symmetry_equiv_pos_as_xyz
  x,y,z
_cell_length_a	17.699077
_cell_length_b	13.339070
_cell_length_c	16.176319
_cell_angle_alpha	89.996815
_cell_angle_beta	89.993140
_cell_angle_gamma	99.454935
loop_
_atom_site_label
_atom_site_type_symbol
_atom_site_fract_x
_atom_site_fract_y
_atom_site_fract_z
O1	O	1.031103	0.127834	-0.068733
O2	O	0.814241	0.144476	-0.068736
O3	O	0.897783	-0.011047	-0.068732
O4	O	0.947561	0.283357	-0.068736
O5	O	0.897765	-0.011057	0.068761
O6	O	0.814223	0.144466	0.068757
O7	O	1.031085	0.127824	0.068761
Cu8	Cu	0.922652	0.136144	0.081313
Cu9	Cu	0.922674	0.136156	-0.081289
O10	O	0.947543	0.283347	0.068757
C11	C	0.785909	0.143875	0.000010
C12	C	0.701514	0.142090	0.000008
C13	C	0.661859	0.141243	0.074957
C14	C	0.582558	0.139549	0.074958
C15	C	0.542915	0.138709	0.000009
C16	C	0.582575	0.139553	-0.074945
C17	C	0.661873	0.141239	-0.074945
C18	C	0.262773	0.132748	-0.074946
C19	C	0.183470	0.131064	-0.074941
C20	C	0.183458	0.131058	0.074956
C21	C	0.262756	0.132744	0.074956
C22	C	0.302409	0.133583	0.000003
C23	C	0.388396	0.135418	0.000003
C24	C	0.456930	0.136881	0.000009
C25	C	0.889366	-0.048720	0.000013
C26	C	0.864303	-0.160959	0.000009
C27	C	1.059182	-0.526237	0.000013
C28	C	1.082733	-0.420783	0.000021
C29	C	1.028127	-0.355822	0.000018
C30	C	0.949967	-0.396325	0.000007
C31	C	0.926414	-0.501790	0.000005
C32	C	0.895359	-0.331375	0.000010
C33	C	0.817199	-0.371878	-0.000001
C34	C	0.793650	-0.477333	-0.000003
C35	C	0.848255	-0.542293	0.000000
C36	C	0.918912	-0.225910	0.000012
C37	C	0.786144	-0.201463	0.000004
C38	C	0.762593	-0.306917	-0.000004
C39	C	1.059417	0.128425	0.000013
C40	C	1.143812	0.130210	0.000009
C41	C	0.955960	0.321020	0.000010
C42	C	0.981023	0.433259	0.000008
N43	N	0.922643	0.136135	0.195678
N44	N	0.922688	0.136157	-0.195654
C45	C	0.959656	0.067298	0.238944
C46	C	0.959660	0.067297	0.325491
C47	C	0.922654	0.136139	0.368771
C48	C	0.885636	0.204979	0.325499
C49	C	0.885628	0.204975	0.238953
C50	C	0.885665	0.204998	0.674527
C51	C	0.885678	0.205000	0.761079
C52	C	0.959698	0.067320	0.761065
C53	C	0.959690	0.067316	0.674520
C54	C	0.922668	0.136152	0.631255
C55	C	0.922664	0.136151	0.537411
C56	C	0.922663	0.136145	0.462613
H57	H	0.550290	0.138862	-0.135969
H58	H	0.855486	0.261028	0.203727
Br59	Br	0.715691	0.142380	-0.176665
H60	H	0.989827	0.011262	0.639284
Br61	Br	0.656522	-0.361899	-0.000023
Br62	Br	1.133280	-0.614399	0.000037
Br63	Br	0.712031	-0.113310	0.000009
H64	H	0.694131	0.141935	0.135989
H65	H	0.829084	-0.628164	-0.000009
Br66	Br	0.835425	0.298418	0.615816
H67	H	0.550272	0.138842	0.135988
H68	H	0.730007	-0.510306	-0.000006
Br69	Br	0.316555	0.133894	0.176675
H70	H	0.855541	0.261061	0.796316
Br71	Br	1.188802	-0.365820	0.000018
H72	H	0.151194	0.130380	-0.135976
H73	H	0.151163	0.130370	0.135987
H74	H	0.855500	0.261028	0.360742
H75	H	0.295049	0.133428	-0.135978
Br76	Br	1.024982	-0.170954	0.000029
H77	H	0.989795	0.011243	0.203712
Br78	Br	1.009890	-0.026130	0.384212
H79	H	0.989840	0.011267	0.796300
H80	H	1.047307	-0.269957	0.000025
