data_functionalizedCrystal
_audit_creation_method	'MofGen! by Chris Wilmer'
_symmetry_space_group_name_H-M	'P1'
_symmetry_Int_Tables_number	1
_symmetry_cell_setting	triclinic
loop_
_symmetry_equiv_pos_as_xyz
  x,y,z
_cell_length_a	25.639242
_cell_length_b	25.639239
_cell_length_c	16.120297
_cell_angle_alpha	92.868703
_cell_angle_beta	92.869733
_cell_angle_gamma	90.034213
loop_
_atom_site_label
_atom_site_type_symbol
_atom_site_fract_x
_atom_site_fract_y
_atom_site_fract_z
Zn1	Zn	0.784258	-0.223221	-0.471560
Zn2	Zn	0.788606	-0.306221	-0.332144
Zn3	Zn	0.701259	-0.218795	-0.332144
Zn4	Zn	0.696782	-0.310618	-0.471487
O5	O	0.742726	-0.264714	-0.401834
O6	O	0.857999	-0.234243	-0.453097
O7	O	0.780713	-0.290932	-0.215482
O8	O	0.712323	-0.146218	-0.350668
O9	O	0.861194	-0.295224	-0.350669
O10	O	0.773302	-0.149470	-0.453096
O11	O	0.716540	-0.226700	-0.215482
O12	O	0.627501	-0.230963	-0.350597
O13	O	0.704692	-0.302717	-0.588158
O14	O	0.624211	-0.298425	-0.452972
O15	O	0.768960	-0.238506	-0.588212
O16	O	0.776372	-0.379969	-0.350598
O17	O	0.708908	-0.383199	-0.452972
C18	C	0.606886	-0.264691	-0.401777
C19	C	0.548772	-0.264695	-0.401773
C20	C	0.186704	-0.299896	-0.455090
C21	C	0.132100	-0.299899	-0.455103
O22	O	0.102415	-0.329801	-0.500387
N23	N	0.106486	-0.264730	-0.401888
C24	C	0.135479	-0.229551	-0.348662
O25	O	0.108678	-0.199637	-0.303401
C26	C	0.190083	-0.229546	-0.348654
C27	C	0.215694	-0.264721	-0.401867
C28	C	0.212316	-0.335067	-0.508298
C29	C	0.266917	-0.335064	-0.508284
C30	C	0.295906	-0.299889	-0.455061
C31	C	0.270295	-0.264718	-0.401852
C32	C	0.219075	-0.194365	-0.295434
C33	C	0.273682	-0.194362	-0.295430
C34	C	0.299293	-0.229537	-0.348643
C35	C	0.353886	-0.229540	-0.348614
N36	N	0.379499	-0.264709	-0.401829
C37	C	0.350510	-0.299884	-0.455052
C38	C	0.020808	-0.229565	-0.348685
C39	C	-0.033795	-0.229573	-0.348689
C40	C	-0.037170	-0.299920	-0.455130
C41	C	0.017433	-0.299915	-0.455122
C42	C	0.046422	-0.264735	-0.401900
C43	C	0.465176	-0.299875	-0.455018
C44	C	0.519782	-0.299870	-0.454996
C45	C	0.523153	-0.229521	-0.348558
C46	C	0.468552	-0.229527	-0.348576
C47	C	0.439565	-0.264706	-0.401813
O48	O	0.383604	-0.199652	-0.303356
O49	O	0.377317	-0.329788	-0.500314
C50	C	0.742640	-0.400555	-0.401795
C51	C	0.742650	-0.458670	-0.401807
C52	C	0.777939	-0.817342	-0.348618
C53	C	0.777959	-0.871947	-0.348629
O54	O	0.807873	-0.898744	-0.303364
N55	N	0.742817	-0.900955	-0.401889
C56	C	0.707656	-0.875355	-0.455147
O57	O	0.677767	-0.905043	-0.500450
C58	C	0.707639	-0.820752	-0.455139
C59	C	0.742780	-0.791746	-0.401870
C60	C	0.813077	-0.788336	-0.295354
C61	C	0.813057	-0.733735	-0.295342
C62	C	0.777897	-0.708140	-0.348594
C63	C	0.742759	-0.737145	-0.401858
C64	C	0.672481	-0.795154	-0.508401
C65	C	0.672467	-0.740547	-0.508389
C66	C	0.707608	-0.711541	-0.455120
C67	C	0.707579	-0.656949	-0.455098
N68	N	0.742721	-0.627941	-0.401838
C69	C	0.777880	-0.653536	-0.348586
C70	C	0.707695	-0.990027	-0.455160
C71	C	0.707709	-1.044629	-0.455164
C72	C	0.778013	-1.041216	-0.348647
C73	C	0.777996	-0.986613	-0.348639
C74	C	0.742837	-0.961018	-0.401900
C75	C	0.777834	-0.538871	-0.348565
C76	C	0.777809	-0.484265	-0.348555
C77	C	0.707507	-0.487683	-0.455074
C78	C	0.707530	-0.542283	-0.455081
C79	C	0.742698	-0.567876	-0.401824
O80	O	0.677681	-0.630116	-0.500343
O81	O	0.807769	-0.623843	-0.303299
C82	C	0.879098	-0.264737	-0.401891
C83	C	0.937211	-0.264746	-0.401915
C84	C	0.735842	-0.271596	-0.619280
C85	C	0.732908	-0.274528	-0.711943
C86	C	0.742827	-0.128343	-0.401890
C87	C	0.742870	-0.070229	-0.401914
C88	C	0.727532	-0.279871	-0.881598
C89	C	0.758024	-0.249400	-0.922921
C90	C	0.755033	-0.252373	-1.017323
C91	C	0.730522	-0.276899	-0.787188
C92	C	0.749614	-0.257821	-0.185233
C93	C	0.752650	-0.254741	-0.092571
H94	H	0.038282	-0.328557	-0.498453
O95	O	0.791776	-0.215580	-0.880467
C96	C	0.763595	-0.180241	-0.830108
H97	H	0.724364	-0.198277	-0.817130
H98	H	0.756834	-0.142533	-0.863619
C99	C	0.843125	-0.146059	-0.763304
C100	C	0.794943	-0.168214	-0.747358
H101	H	0.862462	-0.138638	-0.712261
H102	H	0.862111	-0.169866	-0.797234
H103	H	0.837483	-0.114638	-0.791231
H104	H	0.800585	-0.199637	-0.719441
H105	H	0.775958	-0.144412	-0.713421
H106	H	0.546766	-0.200884	-0.305222
O107	O	0.544577	-0.334059	-0.506770
C108	C	0.507277	-0.365112	-0.553734
H109	H	0.468273	-0.343793	-0.556689
H110	H	0.502409	-0.403821	-0.523093
C111	C	0.573699	-0.401724	-0.638808
C112	C	0.525796	-0.375538	-0.642442
H113	H	0.585123	-0.408158	-0.693526
H114	H	0.598830	-0.380805	-0.607165
H115	H	0.569636	-0.433980	-0.613269
H116	H	0.529861	-0.343281	-0.667970
H117	H	0.500666	-0.396452	-0.674091
O118	O	0.436970	-0.334071	-0.506613
C119	C	0.406871	-0.366303	-0.459063
H120	H	0.400674	-0.345803	-0.395944
H121	H	0.428192	-0.404741	-0.449778
C122	C	0.361176	-0.402457	-0.582453
C123	C	0.353561	-0.377277	-0.504932
H124	H	0.328292	-0.409229	-0.610748
H125	H	0.381455	-0.380743	-0.614490
H126	H	0.378944	-0.434486	-0.574705
H127	H	0.335799	-0.345246	-0.512682
H128	H	0.333277	-0.398986	-0.472898
H129	H	0.699184	-0.308189	-0.917117
H130	H	0.287764	-0.363706	-0.551617
H131	H	0.188718	-0.363711	-0.551644
H132	H	0.297282	-0.165710	-0.252094
O133	O	0.673374	-0.570384	-0.506901
C134	C	0.642328	-0.536080	-0.553882
H135	H	0.663632	-0.497226	-0.556788
H136	H	0.603599	-0.529356	-0.523287
C137	C	0.605784	-0.607900	-0.639038
C138	C	0.631953	-0.560179	-0.642612
H139	H	0.599382	-0.622766	-0.693770
H140	H	0.626699	-0.631012	-0.607385
H141	H	0.573513	-0.602290	-0.613538
H142	H	0.664226	-0.565791	-0.668102
H143	H	0.611043	-0.537069	-0.674272
H144	H	-0.060784	-0.328560	-0.498470
O145	O	0.673550	-1.072723	-0.506981
C146	C	0.642506	-1.038415	-0.553960
H147	H	0.663817	-0.999564	-0.556869
H148	H	0.603780	-1.031684	-0.523360
C149	C	0.605948	-1.110231	-0.639109
C150	C	0.632124	-1.062515	-0.642688
H151	H	0.599541	-1.125097	-0.693839
H152	H	0.626861	-1.133345	-0.607457
H153	H	0.573679	-1.104615	-0.613605
H154	H	0.664394	-1.068132	-0.668182
H155	H	0.611216	-1.039402	-0.674347
O156	O	0.443752	-0.195313	-0.296855
C157	C	0.481051	-0.164278	-0.249857
H158	H	0.518905	-0.163582	-0.283997
H159	H	0.488835	-0.181357	-0.186484
C160	C	0.413656	-0.109098	-0.196078
C161	C	0.460147	-0.108240	-0.238012
H162	H	0.400761	-0.074532	-0.188767
H163	H	0.388526	-0.130008	-0.227738
H164	H	0.420148	-0.123333	-0.143271
H165	H	0.453652	-0.094012	-0.290821
H166	H	0.485275	-0.087327	-0.206360
O167	O	0.194287	-0.160142	-0.243720
C168	C	0.231593	-0.129106	-0.196740
H169	H	0.269442	-0.128418	-0.230892
H170	H	0.239382	-0.146180	-0.133364
C171	C	0.164208	-0.073915	-0.142955
C172	C	0.210694	-0.073066	-0.184903
H173	H	0.151317	-0.039348	-0.135649
H174	H	0.139074	-0.094826	-0.174603
H175	H	0.170706	-0.088146	-0.090146
H176	H	0.204195	-0.058842	-0.237715
H177	H	0.235827	-0.052152	-0.153263
O178	O	0.847319	-0.813121	-0.243661
C179	C	0.898824	-0.800289	-0.262007
H180	H	0.898834	-0.761660	-0.294083
H181	H	0.915080	-0.832354	-0.304884
C182	C	0.933102	-0.842584	-0.141404
C183	C	0.933115	-0.795136	-0.180794
H184	H	0.954255	-0.839407	-0.091309
H185	H	0.898402	-0.851231	-0.129045
H186	H	0.946647	-0.869300	-0.177143
H187	H	0.919564	-0.768423	-0.145059
H188	H	0.967813	-0.786485	-0.193145
H189	H	-0.054642	-0.200935	-0.305349
H190	H	0.044407	-0.200918	-0.305339
H191	H	0.806425	-0.460650	-0.305174
H192	H	0.806611	-0.962999	-0.305264
H193	H	0.806472	-0.559702	-0.305199
H194	H	0.841673	-0.710122	-0.251968
H195	H	0.806643	-1.062066	-0.305289
H196	H	0.679060	-0.969190	-0.498529
H197	H	0.643837	-0.719711	-0.551763
O198	O	0.638398	-0.823300	-0.560272
C199	C	0.647148	-0.812538	-0.643370
H200	H	0.688777	-0.797627	-0.647633
H201	H	0.618413	-0.781545	-0.665103
C202	C	0.588158	-0.881102	-0.693790
C203	C	0.639289	-0.862793	-0.699027
H204	H	0.583309	-0.912100	-0.728123
H205	H	0.582262	-0.888352	-0.637806
H206	H	0.564218	-0.855270	-0.711900
H207	H	0.663228	-0.888622	-0.680907
H208	H	0.645190	-0.855548	-0.755010
H209	H	0.678879	-0.466834	-0.498429
