data_functionalizedCrystal
_audit_creation_method	'MofGen! by Chris Wilmer'
_symmetry_space_group_name_H-M	'P1'
_symmetry_Int_Tables_number	1
_symmetry_cell_setting	triclinic
loop_
_symmetry_equiv_pos_as_xyz
  x,y,z
_cell_length_a	21.295417
_cell_length_b	19.121102
_cell_length_c	19.120904
_cell_angle_alpha	90.088173
_cell_angle_beta	92.409419
_cell_angle_gamma	87.583861
loop_
_atom_site_label
_atom_site_type_symbol
_atom_site_fract_x
_atom_site_fract_y
_atom_site_fract_z
Zn1	Zn	-0.307921	1.054819	-0.442038
Zn2	Zn	-0.408895	1.059730	-0.324794
Zn3	Zn	-0.298968	0.942589	-0.319823
Zn4	Zn	-0.408472	0.937541	-0.436996
O5	O	-0.356064	0.998670	-0.380912
O6	O	-0.325240	1.153575	-0.430676
O7	O	-0.390743	1.048358	-0.226029
O8	O	-0.212069	0.957533	-0.336065
O9	O	-0.399425	1.157183	-0.344537
O10	O	-0.218647	1.039988	-0.425856
O11	O	-0.309980	0.962295	-0.222377
O12	O	-0.309570	0.843814	-0.331175
O13	O	-0.398704	0.948931	-0.535769
O14	O	-0.390022	0.840106	-0.417262
O15	O	-0.324829	1.035094	-0.539474
O16	O	-0.496925	1.043464	-0.339648
O17	O	-0.496614	0.953692	-0.422082
C18	C	-0.348779	0.816522	-0.373133
C19	C	-0.345678	0.738598	-0.369821
C20	C	-0.386167	0.700080	-0.413015
C21	C	-0.383245	0.626862	-0.409907
C22	C	-0.339837	0.592163	-0.363600
C23	C	-0.299344	0.630687	-0.320404
C24	C	-0.302263	0.703903	-0.323516
C25	C	-0.328921	0.371192	-0.351968
C26	C	-0.326007	0.297970	-0.348857
C27	C	-0.409907	0.294150	-0.438361
C28	C	-0.412825	0.367368	-0.441467
C29	C	-0.372330	0.405885	-0.398273
C30	C	-0.336851	0.517323	-0.360421
C31	C	-0.375313	0.480724	-0.401457
C32	C	-0.519611	0.998582	-0.380873
C33	C	-0.589580	0.998607	-0.380883
C34	C	-0.625815	1.041515	-0.427668
C35	C	-0.691559	1.041539	-0.427686
C36	C	-0.721066	0.998663	-0.380907
C37	C	-0.684823	0.955747	-0.334118
C38	C	-0.619080	0.955719	-0.334106
N39	N	-0.821870	0.995988	-0.319328
N40	N	-0.884323	0.996019	-0.319341
C41	C	-0.919145	0.998744	-0.380942
N42	N	-0.889155	1.001450	-0.442531
N43	N	-0.826696	1.001423	-0.442516
C44	C	-0.792353	0.998688	-0.380915
C45	C	-1.026667	1.041679	-0.427751
C46	C	-1.092413	1.041698	-0.427771
C47	C	-1.085675	0.955911	-0.334197
C48	C	-1.019931	0.955888	-0.334183
C49	C	-0.990431	0.998776	-0.380960
C50	C	-0.191880	0.998776	-0.380968
C51	C	-0.121915	0.998822	-0.380992
C52	C	-0.362718	0.990902	-0.563770
C53	C	-0.365554	0.987591	-0.641693
C54	C	-0.363378	1.181528	-0.388723
C55	C	-0.366495	1.259452	-0.392052
C56	C	-0.328425	1.030895	-0.680232
C57	C	-0.331087	1.027776	-0.753448
C58	C	-0.370881	0.981357	-0.788125
C59	C	-0.408011	0.938049	-0.749582
C60	C	-0.405345	0.941165	-0.676366
C61	C	-0.380849	0.969701	-1.009092
C62	C	-0.383513	0.966590	-1.082313
C63	C	-0.306588	1.056317	-1.086174
C64	C	-0.303929	1.059432	-1.012957
C65	C	-0.341057	1.016121	-0.974420
C66	C	-0.373604	0.978169	-0.862965
C67	C	-0.338330	1.019305	-0.899582
C68	C	-0.349392	1.006448	-0.198768
C69	C	-0.346385	1.009894	-0.120851
H70	H	-0.295952	0.402544	-0.316791
F71	F	-0.426338	0.585871	-0.455881
H72	H	-1.121914	1.076638	-0.465872
H73	H	-0.305927	1.057097	-0.871344
H74	H	-0.721067	1.076473	-0.465792
F75	F	-0.444861	0.895073	-0.635351
H76	H	-0.406007	0.940378	-0.891207
F77	F	-0.716227	0.910113	-0.284336
H78	H	-0.300854	1.063040	-0.784823
H79	H	-0.589576	0.920778	-0.296007
F80	F	-0.261575	1.108837	-0.976056
H81	H	-1.002648	1.076599	-0.465842
H82	H	-0.421516	0.728326	-0.450721
F83	F	-0.459027	0.404291	-0.490751
H84	H	-0.410653	0.508979	-0.439163
H85	H	-0.301509	0.489063	-0.322716
H86	H	-0.296023	1.068696	-0.652003
F87	F	-0.450360	0.888643	-0.786490
H88	H	-0.990426	0.920952	-0.296084
F89	F	-0.453003	0.253152	-0.484327
F90	F	-1.117073	0.910277	-0.284412
H91	H	-0.263998	0.602429	-0.282703
H92	H	-0.290652	0.269721	-0.311153
H93	H	-0.269290	0.735264	-0.288347
F94	F	-0.425867	0.917180	-1.119217
F95	F	-0.594423	1.087156	-0.477455
H96	H	-0.411091	0.934445	-0.977724
F97	F	-0.267076	1.102406	-1.127193
