data_functionalizedCrystal
_audit_creation_method	'MofGen! by Chris Wilmer'
_symmetry_space_group_name_H-M	'P1'
_symmetry_Int_Tables_number	1
_symmetry_cell_setting	triclinic
loop_
_symmetry_equiv_pos_as_xyz
  x,y,z
_cell_length_a	35.277628
_cell_length_b	35.288095
_cell_length_c	35.277682
_cell_angle_alpha	59.997929
_cell_angle_beta	89.998958
_cell_angle_gamma	60.000166
loop_
_atom_site_label
_atom_site_type_symbol
_atom_site_fract_x
_atom_site_fract_y
_atom_site_fract_z
O1	O	-0.323087	-0.271234	0.011271
O2	O	-0.267964	-0.193634	-0.011228
O3	O	-0.267962	-0.271233	0.066395
O4	O	-0.323089	-0.193635	-0.066351
O5	O	-0.204915	-0.334261	0.066394
O6	O	-0.204918	-0.256661	-0.011228
O7	O	-0.260040	-0.334261	0.011271
Zn8	Zn	-0.222469	-0.305468	0.000022
Zn9	Zn	-0.305535	-0.222427	0.000022
O10	O	-0.260043	-0.256662	-0.066351
C11	C	-0.163481	-0.071298	-0.023519
C12	C	-0.186872	-0.024531	-0.020298
C13	C	-0.117860	-0.093995	-0.023838
C14	C	-0.163483	-0.139918	-0.023524
C15	C	-0.186875	-0.166518	-0.020308
C16	C	-0.117862	-0.162510	-0.023843
C17	C	-0.094838	-0.139921	-0.023519
C18	C	-0.044836	-0.166525	-0.020298
C19	C	-0.186401	-0.093991	-0.023843
C20	C	-0.004439	-0.188019	-0.017694
C21	C	-0.205769	0.013252	-0.017695
C22	C	-0.205774	-0.188010	-0.017709
C23	C	0.046241	-0.214983	-0.014429
C24	C	-0.229477	0.060653	-0.014430
C25	C	-0.229483	-0.214971	-0.014450
C26	C	-0.500364	-0.466062	0.034181
C27	C	-0.477341	-0.511990	0.034503
C28	C	-0.431722	-0.466060	0.034178
C29	C	-0.408804	-0.511988	0.034500
C30	C	-0.431721	-0.534685	0.034181
C31	C	-0.477342	-0.443470	0.034500
C32	C	-0.665895	-0.342485	0.021756
C33	C	-0.712772	-0.317221	0.018243
C34	C	-0.736287	-0.338907	0.016481
C35	C	-0.787116	-0.311512	0.012664
C36	C	-0.712921	-0.385861	0.018236
C37	C	-0.666047	-0.411125	0.021755
C38	C	-0.642533	-0.389434	0.023515
C39	C	-0.389805	-0.687746	0.021758
C40	C	-0.368199	-0.731097	0.018245
C41	C	-0.322995	-0.752841	0.016478
C42	C	-0.299567	-0.799839	0.012662
C43	C	-0.299393	-0.731235	0.018230
C44	C	-0.320995	-0.687892	0.021751
C45	C	-0.366205	-0.666148	0.023512
C46	C	-0.389808	-0.342477	0.021744
C47	C	-0.368205	-0.317208	0.018222
C48	C	-0.322998	-0.338892	0.016457
C49	C	-0.299573	-0.311495	0.012637
C50	C	-0.299398	-0.385842	0.018210
C51	C	-0.321003	-0.411107	0.021730
C52	C	-0.366208	-0.389423	0.023501
C53	C	-0.591706	-0.416830	0.027326
C54	C	-0.551191	-0.438667	0.030366
C55	C	-0.408299	-0.438663	0.030360
C56	C	-0.389629	-0.416824	0.027317
C57	C	-0.408298	-0.581682	0.030365
C58	C	-0.389627	-0.619146	0.027325
C59	C	-0.432024	-0.061845	-0.438511
C60	C	-0.477645	-0.015917	-0.461431
C61	C	-0.432025	-0.061844	-0.369869
C62	C	-0.477645	-0.015916	-0.392892
C63	C	-0.500668	0.006779	-0.438513
C64	C	-0.409106	-0.084435	-0.392891
C65	C	-0.320834	-0.185425	-0.480424
C66	C	-0.299076	-0.210690	-0.502029
C67	C	-0.322531	-0.189005	-0.547237
C68	C	-0.298945	-0.216401	-0.570661
C69	C	-0.367745	-0.142051	-0.570839
C70	C	-0.389497	-0.116787	-0.549237
C71	C	-0.366040	-0.138476	-0.504027
C72	C	-0.666200	0.159838	-0.549704
C73	C	-0.713077	0.203188	-0.571462
C74	C	-0.736595	0.224934	-0.548009
C75	C	-0.787423	0.271931	-0.571594
C76	C	-0.713230	0.203329	-0.502796
C77	C	-0.666353	0.159987	-0.481041
C78	C	-0.642841	0.138241	-0.504500
C79	C	-0.320836	-0.185423	-0.204335
C80	C	-0.299080	-0.210691	-0.157455
C81	C	-0.322536	-0.189006	-0.133940
C82	C	-0.298950	-0.216402	-0.083110
C83	C	-0.367748	-0.142056	-0.157305
C84	C	-0.389502	-0.116792	-0.204182
C85	C	-0.366040	-0.138478	-0.227695
C86	C	-0.389632	-0.111079	-0.480604
C87	C	-0.408436	-0.089241	-0.461934
C88	C	-0.408437	-0.089240	-0.319041
C89	C	-0.389634	-0.111078	-0.278525
C90	C	-0.551496	0.053776	-0.462102
C91	C	-0.592011	0.091239	-0.480906
O92	O	0.196122	-0.334274	0.011291
O93	O	0.063378	-0.256674	-0.011208
O94	O	0.140994	-0.334276	0.066414
O95	O	0.118506	-0.256671	-0.066331
O96	O	0.140996	-0.271251	0.066419
O97	O	0.063380	-0.193649	-0.011203
O98	O	0.196124	-0.271249	0.011296
Zn99	Zn	0.129752	-0.222442	0.000047
Zn100	Zn	0.129750	-0.305480	0.000041
O101	O	0.118508	-0.193647	-0.066327
O102	O	-0.260036	0.184774	0.011294
O103	O	-0.204910	0.074561	-0.011204
O104	O	-0.204913	0.074554	0.066418
O105	O	-0.260033	0.184781	-0.066328
O106	O	-0.267961	0.074557	0.066413
O107	O	-0.267958	0.074564	-0.011209
O108	O	-0.323083	0.184777	0.011289
Zn109	Zn	-0.305531	0.129671	0.000039
Zn110	Zn	-0.222463	0.129667	0.000046
O111	O	-0.323081	0.184784	-0.066333
O112	O	-0.936929	0.397535	-0.602582
O113	O	-0.804185	0.287317	-0.547454
O114	O	-0.881802	0.287315	-0.547452
O115	O	-0.859312	0.397537	-0.602584
O116	O	-0.881801	0.287314	-0.610498
O117	O	-0.804183	0.287316	-0.610500
O118	O	-0.936927	0.397533	-0.665628
Zn119	Zn	-0.870555	0.342425	-0.648073
Zn120	Zn	-0.870557	0.342426	-0.565008
O121	O	-0.859310	0.397536	-0.665629
O122	O	-0.267961	-0.271234	-0.665316
O123	O	-0.323086	-0.193638	-0.610192
O124	O	-0.323085	-0.271236	-0.610189
O125	O	-0.267962	-0.193636	-0.665319
O126	O	-0.260038	-0.334264	-0.547142
O127	O	-0.260039	-0.256666	-0.547145
O128	O	-0.204914	-0.334262	-0.602269
Zn129	Zn	-0.222466	-0.305471	-0.564697
Zn130	Zn	-0.305534	-0.222429	-0.647764
O131	O	-0.204915	-0.256664	-0.602272
C132	C	-0.094840	-0.456607	0.293255
C133	C	-0.044837	-0.503376	0.316647
C134	C	-0.117862	-0.433912	0.316174
C135	C	-0.163483	-0.387984	0.224612
C136	C	-0.186875	-0.361381	0.174609
C137	C	-0.186401	-0.365393	0.247634
C138	C	-0.163483	-0.387984	0.293255
C139	C	-0.186874	-0.361382	0.316646
C140	C	-0.117862	-0.433912	0.247635
C141	C	-0.205772	-0.339889	0.335543
C142	C	-0.004440	-0.541160	0.335545
C143	C	-0.205773	-0.339888	0.134212
C144	C	-0.229480	-0.312925	0.359250
C145	C	0.046239	-0.588562	0.359254
C146	C	-0.229481	-0.312924	0.083532
C147	C	0.153295	-0.388013	0.293279
C148	C	0.150076	-0.361413	0.316673
C149	C	0.153614	-0.433940	0.316196
C150	C	0.153297	-0.388008	0.224634
C151	C	0.150079	-0.361403	0.174632
C152	C	0.153616	-0.433935	0.247655
C153	C	0.153293	-0.456633	0.293275
C154	C	0.150072	-0.503401	0.316665
C155	C	0.153617	-0.365420	0.247659
C156	C	0.147469	-0.541185	0.335561
C157	C	0.147474	-0.339922	0.335572
C158	C	0.147479	-0.339908	0.134234
C159	C	0.144204	-0.588587	0.359267
C160	C	0.144211	-0.312962	0.359282
C161	C	0.144218	-0.312942	0.083555
C162	C	-0.163482	-0.139963	0.293267
C163	C	-0.186875	-0.166567	0.316654
C164	C	-0.117861	-0.162559	0.316187
C165	C	-0.163482	-0.071333	0.224628
C166	C	-0.186873	-0.024557	0.174627
C167	C	-0.117860	-0.094033	0.247653
C168	C	-0.094838	-0.139967	0.293272
C169	C	-0.044835	-0.166574	0.316665
C170	C	-0.186401	-0.094030	0.247648
C171	C	-0.004438	-0.188070	0.335563
C172	C	-0.205773	-0.188061	0.335549
C173	C	-0.205771	0.013233	0.134231
C174	C	0.046242	-0.215038	0.359273
C175	C	-0.229482	-0.215026	0.359253
C176	C	-0.229479	0.060643	0.083553
C177	C	0.095627	0.006487	-0.438489
C178	C	0.095306	-0.016206	-0.461409
C179	C	0.095623	-0.062137	-0.369847
C180	C	0.095303	-0.084726	-0.392871
C181	C	0.095625	-0.062133	-0.438492
C182	C	0.095305	-0.016210	-0.392868
C183	C	0.108059	0.159543	-0.480399
C184	C	0.111575	0.202893	-0.502003
C185	C	0.113340	0.224640	-0.547210
C186	C	0.117161	0.271637	-0.570634
C187	C	0.111587	0.203038	-0.570814
C188	C	0.108065	0.159695	-0.549212
C189	C	0.106302	0.137948	-0.504002
C190	C	0.108054	-0.116452	-0.549685
C191	C	0.111568	-0.141562	-0.571444
C192	C	0.113332	-0.188519	-0.547992
C193	C	0.117148	-0.215753	-0.571578
C194	C	0.111577	-0.210363	-0.502779
C195	C	0.108055	-0.185249	-0.481023
C196	C	0.106297	-0.138292	-0.504481
C197	C	0.108046	-0.116473	-0.204312
C198	C	0.111564	-0.141591	-0.157432
C199	C	0.113326	-0.188548	-0.133918
C200	C	0.117142	-0.215786	-0.083088
C201	C	0.111574	-0.210388	-0.157283
C202	C	0.108058	-0.185270	-0.204161
C203	C	0.106290	-0.138308	-0.227673
C204	C	0.102487	0.090947	-0.480580
C205	C	0.099445	0.053484	-0.461911
C206	C	0.099438	-0.089371	-0.319019
C207	C	0.102477	-0.111078	-0.278503
C208	C	0.099442	-0.089362	-0.462081
C209	C	0.102482	-0.111066	-0.480886
O210	O	0.118477	-0.256700	0.452885
O211	O	0.140984	-0.334299	0.397762
O212	O	0.063360	-0.256699	0.397752
O213	O	0.196101	-0.334300	0.452895
O214	O	0.063367	-0.193672	0.334708
O215	O	0.140992	-0.271271	0.334718
O216	O	0.118484	-0.193673	0.389842
Zn217	Zn	0.129739	-0.222465	0.352270
Zn218	Zn	0.129729	-0.305506	0.435333
O219	O	0.196108	-0.271272	0.389852
C220	C	-0.500364	0.533998	-0.438484
C221	C	-0.477341	0.556591	-0.461399
C222	C	-0.431721	0.465364	-0.369840
C223	C	-0.408802	0.488061	-0.392859
C224	C	-0.431720	0.533995	-0.438478
C225	C	-0.477342	0.488064	-0.392865
C226	C	-0.665898	0.588334	-0.480407
C227	C	-0.712776	0.613450	-0.502014
C228	C	-0.736291	0.660414	-0.547220
C229	C	-0.787122	0.687654	-0.570647
C230	C	-0.712926	0.682257	-0.570819
C231	C	-0.666050	0.657138	-0.549214
C232	C	-0.642536	0.610174	-0.504006
C233	C	-0.389802	0.657585	-0.549654
C234	C	-0.368196	0.682850	-0.571408
C235	C	-0.322990	0.661164	-0.547952
C236	C	-0.299561	0.688558	-0.571532
C237	C	-0.299388	0.614205	-0.502740
C238	C	-0.320990	0.588935	-0.480990
C239	C	-0.366202	0.610633	-0.504452
C240	C	-0.389804	0.312282	-0.204314
C241	C	-0.368201	0.268929	-0.157436
C242	C	-0.322993	0.247179	-0.133918
C243	C	-0.299567	0.200174	-0.083089
C244	C	-0.299392	0.268786	-0.157278
C245	C	-0.320998	0.312139	-0.204154
C246	C	-0.366204	0.333881	-0.227670
C247	C	-0.591708	0.582942	-0.480581
C248	C	-0.551193	0.561234	-0.461909
C249	C	-0.408297	0.418359	-0.319013
C250	C	-0.389626	0.380890	-0.278499
C251	C	-0.408296	0.561393	-0.462062
C252	C	-0.389624	0.583232	-0.480862
H253	H	-0.495827	-0.530983	0.035020
H254	H	0.106608	-0.078237	-0.223453
H255	H	-0.647059	0.142138	-0.568809
H256	H	-0.223883	-0.328432	0.229146
H257	H	-0.387416	0.721084	-0.608218
O258	O	0.094770	0.006374	-0.370769
C259	C	0.134535	-0.031093	-0.330746
H260	H	0.162850	-0.062388	-0.334941
H261	H	0.147536	-0.009551	-0.325808
H262	H	0.125375	-0.051635	-0.299128
O263	O	-0.391103	-0.752079	0.016474
C264	C	-0.395333	-0.747822	-0.025453
H265	H	-0.367113	-0.744606	-0.039281
H266	H	-0.391407	-0.784863	-0.018956
H267	H	-0.430901	-0.710554	-0.052026
O268	O	-0.095763	-0.071398	-0.024403
C269	C	-0.055753	-0.108824	0.015370
H270	H	-0.044207	-0.151144	0.029076
H271	H	-0.026745	-0.104133	0.005936
H272	H	-0.063952	-0.101457	0.043257
O273	O	-0.095732	-0.071456	0.225668
C274	C	-0.050451	-0.101352	0.255798
H275	H	-0.039111	-0.143902	0.283377
H276	H	-0.025563	-0.102637	0.235094
H277	H	-0.050061	-0.081691	0.273286
O278	O	-0.433709	0.333455	-0.227231
C279	C	-0.447720	0.376357	-0.273611
H280	H	-0.415744	0.371502	-0.283809
H281	H	-0.469686	0.376451	-0.297403
H282	H	-0.469059	0.415811	-0.277127
O283	O	-0.231126	-0.071248	-0.024486
C284	C	-0.246503	-0.025773	-0.024681
H285	H	-0.224665	-0.010110	-0.038923
H286	H	-0.284493	0.006725	-0.047528
H287	H	-0.242788	-0.037162	0.012249
H288	H	-0.301770	0.550701	-0.444180
H289	H	-0.426617	-0.324814	0.023182
O290	O	-0.298096	-0.206505	-0.436488
C291	C	-0.323282	-0.219151	-0.407262
H292	H	-0.346445	-0.224944	-0.423027
H293	H	-0.298078	-0.257667	-0.371662
H294	H	-0.345688	-0.185070	-0.403463
O295	O	0.154203	-0.456643	0.225662
C296	C	0.154426	-0.502138	0.255788
H297	H	0.139453	-0.498505	0.283375
H298	H	0.132426	-0.505021	0.235083
H299	H	0.191579	-0.539673	0.273267
O300	O	-0.364077	-0.534601	0.035144
C301	C	-0.348699	-0.504695	0.035341
H302	H	-0.370539	-0.481437	0.049581
H303	H	-0.310711	-0.533017	0.058191
H304	H	-0.352412	-0.475449	-0.001588
H305	H	-0.099380	-0.199466	-0.024359
O306	O	-0.643318	-0.456695	0.023401
C307	C	-0.626786	-0.448136	-0.014459
H308	H	-0.623224	-0.413715	-0.027227
H309	H	-0.591478	-0.486096	-0.003018
H310	H	-0.652289	-0.437676	-0.043746
H311	H	-0.099377	-0.452909	0.353658
O312	O	-0.255452	-0.406946	0.016581
C313	C	-0.226240	-0.419595	0.054428
H314	H	-0.242032	-0.425354	0.083366
H315	H	-0.190649	-0.458129	0.067777
H316	H	-0.222418	-0.385530	0.042746
H317	H	-0.495829	-0.406511	0.035012
O318	O	-0.735408	0.592178	-0.479017
C319	C	-0.704600	0.545336	-0.434488
H320	H	-0.675067	0.546731	-0.423812
H321	H	-0.724014	0.542673	-0.408451
H322	H	-0.689808	0.508730	-0.435194
H323	H	-0.732097	0.220775	-0.608274
H324	H	-0.646754	-0.324820	0.023190
H325	H	-0.262264	-0.248919	-0.482808
H326	H	-0.099372	-0.452898	0.229148
O327	O	0.154165	-0.456614	0.360893
C328	C	0.114385	-0.456839	0.363426
H329	H	0.100691	-0.454649	0.332613
H330	H	0.123801	-0.495278	0.397105
H331	H	0.086494	-0.420773	0.362607
H332	H	-0.647028	0.674924	-0.568431
H333	H	-0.371318	0.469063	-0.374372
H334	H	0.154133	-0.328462	0.229178
H335	H	-0.731792	-0.278991	0.016812
O336	O	-0.095877	-0.206610	0.360923
C337	C	-0.120713	-0.194634	0.389145
H338	H	-0.158389	-0.159435	0.366900
H339	H	-0.119364	-0.231107	0.417054
H340	H	-0.104469	-0.183679	0.406302
H341	H	-0.732070	-0.403516	0.016804
O342	O	-0.643061	0.542764	-0.436466
C343	C	-0.626497	0.551384	-0.407245
H344	H	-0.648051	0.596099	-0.423027
H345	H	-0.629445	0.529134	-0.371653
H346	H	-0.588601	0.535890	-0.403427
H347	H	-0.223884	-0.075035	0.229163
H348	H	-0.647332	0.142401	-0.444230
H349	H	0.094785	-0.121682	-0.374387
H350	H	0.094791	0.002793	-0.498893
H351	H	0.113001	-0.123813	-0.138408
H352	H	0.106623	0.141841	-0.443588
O353	O	-0.390489	-0.120954	-0.134468
C354	C	-0.365298	-0.108303	-0.117907
H355	H	-0.342123	-0.102539	-0.139460
H356	H	-0.390499	-0.069770	-0.120860
H357	H	-0.342905	-0.142369	-0.080009
O358	O	0.113298	0.223793	-0.479001
C359	C	0.110976	0.195312	-0.434472
H360	H	0.123046	0.153721	-0.423800
H361	H	0.134351	0.191351	-0.408434
H362	H	0.073654	0.217834	-0.435174
H363	H	0.113022	0.220750	-0.607622
O364	O	-0.433712	-0.666708	0.023490
C365	C	-0.449912	-0.695064	0.021181
H366	H	-0.419066	-0.736698	0.033253
H367	H	-0.471996	-0.698923	0.044563
H368	H	-0.471774	-0.672502	-0.016138
O369	O	0.113227	-0.255936	-0.480067
C370	C	0.075369	-0.247292	-0.505256
H371	H	0.062597	-0.212778	-0.543211
H372	H	0.086814	-0.285181	-0.502730
H373	H	0.046085	-0.236929	-0.490197
H374	H	-0.732075	0.720493	-0.607626
H375	H	0.106637	0.142110	-0.568432
H376	H	-0.426614	0.675254	-0.568760
H377	H	0.106619	-0.078217	-0.568789
O378	O	-0.499471	0.600712	-0.506102
C379	C	-0.544761	0.615884	-0.521486
H380	H	-0.556096	0.599629	-0.490264
H381	H	-0.569640	0.661464	-0.545061
H382	H	-0.545170	0.598829	-0.541572
H383	H	0.112999	-0.123775	-0.608256
O384	O	0.106375	-0.206549	-0.437098
C385	C	0.108673	-0.253371	-0.421064
H386	H	0.125758	-0.270409	-0.441278
H387	H	0.130019	-0.284311	-0.382548
H388	H	0.072101	-0.243256	-0.426402
O389	O	-0.391189	-0.271617	0.016543
C390	C	-0.435724	-0.257890	0.018847
H391	H	-0.435679	-0.295179	0.035936
H392	H	-0.445323	-0.240727	0.040194
H393	H	-0.462181	-0.226664	-0.017724
H394	H	0.106630	-0.203055	-0.223182
H395	H	-0.496128	0.003076	-0.374407
O396	O	0.113198	-0.255947	-0.134450
C397	C	0.075349	-0.247311	-0.117894
H398	H	0.046414	-0.202592	-0.139448
H399	H	0.061997	-0.269543	-0.120852
H400	H	0.087028	-0.262814	-0.079995
O401	O	-0.499459	0.465489	-0.370839
C402	C	-0.539457	0.502936	-0.368510
H403	H	-0.550973	0.545246	-0.397130
H404	H	-0.568487	0.498284	-0.373269
H405	H	-0.531255	0.495557	-0.333248
H406	H	-0.262584	-0.748943	0.016794
O407	O	-0.298012	-0.666955	0.023426
C408	C	-0.253476	-0.695448	0.021126
H409	H	-0.253517	-0.715614	0.004043
H410	H	-0.243877	-0.666540	-0.000223
H411	H	-0.227020	-0.727229	0.057698
H412	H	-0.387422	0.251343	-0.138417
H413	H	-0.262576	0.596543	-0.483644
H414	H	-0.301778	0.329728	-0.223172
O415	O	-0.499624	0.006688	-0.506154
C416	C	-0.469497	-0.023191	-0.521544
H417	H	-0.441938	-0.065757	-0.490331
H418	H	-0.490207	-0.024431	-0.545182
H419	H	-0.451985	-0.003545	-0.541565
O420	O	-0.255500	0.247661	-0.134371
C421	C	-0.255602	0.251897	-0.096686
H422	H	-0.287121	0.255232	-0.086204
H423	H	-0.222550	0.214791	-0.066069
H424	H	-0.257217	0.289091	-0.107311
H425	H	-0.301784	-0.449335	0.023157
O426	O	-0.364373	-0.128490	-0.370800
C427	C	-0.336148	-0.116516	-0.357947
H428	H	-0.358393	-0.081300	-0.355502
H429	H	-0.308252	-0.152980	-0.322803
H430	H	-0.318975	-0.105585	-0.385141
O431	O	-0.255133	-0.256243	-0.134803
C432	C	-0.224907	-0.245725	-0.156879
H433	H	-0.240733	-0.201073	-0.177108
H434	H	-0.190108	-0.269438	-0.129633
H435	H	-0.219439	-0.258160	-0.181747
O436	O	-0.298040	-0.206412	-0.227221
C437	C	-0.293923	-0.168623	-0.264914
H438	H	-0.296599	-0.139141	-0.258124
H439	H	-0.258886	-0.190218	-0.269066
H440	H	-0.322952	-0.145951	-0.298031
H441	H	-0.386837	-0.124397	-0.607648
O442	O	-0.433391	-0.071142	-0.572231
C443	C	-0.434300	-0.031213	-0.613094
H444	H	-0.403858	-0.050905	-0.623888
H445	H	-0.468262	-0.006352	-0.642008
H446	H	-0.431515	-0.004096	-0.606428
O447	O	-0.736102	0.224543	-0.480081
C448	C	-0.752646	0.278929	-0.505267
H449	H	-0.756081	0.295133	-0.543223
H450	H	-0.788018	0.302848	-0.502736
H451	H	-0.727219	0.282784	-0.490209
H452	H	-0.426314	-0.078564	-0.223203
