data_functionalizedCrystal
_audit_creation_method	'MofGen! by Chris Wilmer'
_symmetry_space_group_name_H-M	'P1'
_symmetry_Int_Tables_number	1
_symmetry_cell_setting	triclinic
loop_
_symmetry_equiv_pos_as_xyz
  x,y,z
_cell_length_a	14.908783
_cell_length_b	14.908178
_cell_length_c	18.215399
_cell_angle_alpha	93.325522
_cell_angle_beta	93.319871
_cell_angle_gamma	96.402596
loop_
_atom_site_label
_atom_site_type_symbol
_atom_site_fract_x
_atom_site_fract_y
_atom_site_fract_z
Zn1	Zn	1.363071	-0.280644	0.467152
Zn2	Zn	1.863071	0.219356	0.967152
Zn3	Zn	1.354241	-0.432033	0.336540
Zn4	Zn	1.854241	0.067967	0.836540
Zn5	Zn	1.211698	-0.289395	0.336552
Zn6	Zn	1.711698	0.210605	0.836552
Zn7	Zn	1.202943	-0.440700	0.452025
Zn8	Zn	1.702943	0.059300	0.952025
O9	O	1.282988	-0.360693	0.398067
O10	O	1.782988	0.139307	0.898067
O11	O	1.488568	-0.293436	0.456152
O12	O	1.988568	0.206564	0.956152
O13	O	1.335301	-0.413147	0.233554
O14	O	1.835301	0.086853	0.733554
O15	O	1.239137	-0.161556	0.360212
O16	O	1.739137	0.338444	0.860212
O17	O	1.482081	-0.404660	0.360192
O18	O	1.982081	0.095340	0.860192
O19	O	1.350350	-0.155126	0.456163
O20	O	1.850350	0.344874	0.956163
O21	O	1.230575	-0.308352	0.233563
O22	O	1.730575	0.191648	0.733563
O23	O	1.083868	-0.316756	0.345544
O24	O	1.583868	0.183244	0.845544
O25	O	1.224216	-0.419433	0.557019
O26	O	1.724216	0.080567	1.057019
O27	O	1.077436	-0.427920	0.430381
O28	O	1.577436	0.072080	0.930381
O29	O	1.341861	-0.301840	0.568133
O30	O	1.841861	0.198160	1.068133
O31	O	1.326812	-0.559861	0.345523
O32	O	1.826812	-0.059861	0.845523
O33	O	1.215654	-0.566229	0.430369
O34	O	1.715654	-0.066229	0.930369
C35	C	1.047808	-0.374229	0.386322
C36	C	1.547808	0.125771	0.886322
C37	C	0.947196	-0.380041	0.381314
C38	C	1.447196	0.119959	0.881314
C39	C	0.764879	-0.275304	0.471963
C40	C	1.264879	0.224696	0.971963
C41	C	0.670344	-0.280762	0.467260
C42	C	1.170344	0.219238	0.967260
C43	C	0.663592	-0.396411	0.367203
C44	C	1.163592	0.103589	0.867203
C45	C	0.758126	-0.390953	0.371906
C46	C	1.258126	0.109047	0.871906
C47	C	0.808766	-0.330398	0.424288
C48	C	1.308766	0.169602	0.924288
C49	C	0.903302	-0.324945	0.428994
C50	C	1.403302	0.175055	0.928994
C51	C	0.896548	-0.440589	0.328934
C52	C	1.396548	0.059411	0.828934
C53	C	0.802014	-0.446047	0.324231
C54	C	1.302014	0.053953	0.824231
C55	C	1.269350	-0.595890	0.386321
C56	C	1.769350	-0.095890	0.886321
C57	C	1.263598	-0.696504	0.381325
C58	C	1.763598	-0.196504	0.881325
C59	C	1.368508	-0.878727	0.471947
C60	C	1.868508	-0.378727	0.971947
C61	C	1.363106	-0.973262	0.467255
C62	C	1.863106	-0.473262	0.967255
C63	C	1.247390	-0.980111	0.367253
C64	C	1.747390	-0.480111	0.867253
C65	C	1.252791	-0.885576	0.371945
C66	C	1.752791	-0.385576	0.871945
C67	C	1.313353	-0.834887	0.424293
C68	C	1.813353	-0.334887	0.924293
C69	C	1.318758	-0.740350	0.428981
C70	C	1.818758	-0.240350	0.928981
C71	C	1.203038	-0.747201	0.328983
C72	C	1.703038	-0.247201	0.828983
C73	C	1.197636	-0.841736	0.324291
C74	C	1.697636	-0.341736	0.824291
C75	C	1.519087	-0.347105	0.409858
C76	C	2.019087	0.152895	0.909858
C77	C	1.619698	-0.341314	0.414883
C78	C	2.119698	0.158686	0.914883
C79	C	1.283047	-0.360627	0.590026
C80	C	1.783047	0.139373	1.090026
C81	C	1.283072	-0.360599	0.671827
C82	C	1.783072	0.139401	1.171827
C83	C	1.296705	-0.124576	0.409877
C84	C	1.796705	0.375424	0.909877
C85	C	1.302550	-0.023957	0.414909
C86	C	1.802550	0.476043	0.914909
C87	C	1.282986	-0.360690	0.206861
C88	C	1.782986	0.139310	0.706861
C89	C	1.283151	-0.360453	0.125081
C90	C	1.783151	0.139547	0.625081
C91	C	1.344354	-0.299313	0.865813
C92	C	1.844354	0.200687	1.365813
C93	C	1.344366	-0.299286	0.942674
C94	C	1.844366	0.200714	1.442674
C95	C	1.221863	-0.421742	0.931089
C96	C	1.721863	0.078258	1.431089
C97	C	1.221847	-0.421764	0.854230
C98	C	1.721847	0.078236	1.354230
C99	C	1.283097	-0.360551	0.821594
C100	C	1.783097	0.139449	1.321594
C101	C	1.283126	-0.360502	0.975314
C102	C	1.783126	0.139498	1.475314
C103	C	1.283138	-0.360473	1.058650
C104	C	1.783138	0.139527	1.558650
C105	C	1.283084	-0.360578	0.738253
C106	C	1.783084	0.139422	1.238253
H107	H	0.634615	-0.235896	0.506080
H108	H	1.134615	0.264104	1.006080
O109	O	0.943885	-0.500009	0.277502
O110	O	1.443885	-0.000009	0.777502
H111	H	0.921638	-0.572123	0.285583
H112	H	1.421638	-0.072123	0.785583
H113	H	1.148327	-0.883020	0.281672
H114	H	1.648327	-0.383020	0.781672
H115	H	1.394246	-0.249419	0.978674
H116	H	1.894246	0.250581	1.478674
O117	O	1.410410	-0.233292	0.830608
O118	O	1.910410	0.266708	1.330608
H119	H	1.399007	-0.163134	0.848133
H120	H	1.899007	0.336866	1.348133
O121	O	1.433834	-0.824046	0.528396
O122	O	1.933834	-0.324046	1.028396
H123	H	1.417236	-0.843043	0.584471
H124	H	1.917236	-0.343043	1.084471
O125	O	1.422596	-1.020551	0.518649
O126	O	1.922596	-0.520551	1.018649
H127	H	1.465618	-0.969418	0.555833
H128	H	1.965618	-0.469418	1.055833
O129	O	0.957920	-0.259632	0.485490
O130	O	1.457920	0.240368	0.985490
H131	H	1.031029	-0.265095	0.480757
H132	H	1.531029	0.234905	0.980757
O133	O	1.155802	-0.487765	0.966288
O134	O	1.655802	0.012235	1.466288
H135	H	1.166107	-0.477468	1.027163
H136	H	1.666107	0.022532	1.527163
O137	O	1.182086	-1.034787	0.310785
O138	O	1.682086	-0.534787	0.810785
H139	H	1.187607	-1.107888	0.315526
H140	H	1.687607	-0.607888	0.815526
O141	O	0.608968	-0.461709	0.310699
O142	O	1.108968	0.038291	0.810699
H143	H	0.535860	-0.456244	0.315441
H144	H	1.035860	0.043756	0.815441
H145	H	1.171958	-0.471630	0.818225
H146	H	1.671958	0.028370	1.318225
O147	O	1.384076	-0.685675	0.485439
O148	O	1.884076	-0.185675	0.985439
H149	H	1.432622	-0.639944	0.456970
H150	H	1.932622	-0.139944	0.956970
O151	O	1.143544	-0.699924	0.277574
O152	O	1.643544	-0.199924	0.777574
H153	H	1.099916	-0.659525	0.310309
H154	H	1.599916	-0.159525	0.810309
O155	O	0.819507	-0.209996	0.528457
O156	O	1.319507	0.290004	1.028457
H157	H	0.773106	-0.172598	0.560817
H158	H	1.273106	0.327402	1.060817
H159	H	0.760770	-0.495346	0.281580
H160	H	1.260770	0.004654	0.781580
