data_functionalizedCrystal
_audit_creation_method	'MofGen! by Chris Wilmer'
_symmetry_space_group_name_H-M	'P1'
_symmetry_Int_Tables_number	1
_symmetry_cell_setting	triclinic
loop_
_symmetry_equiv_pos_as_xyz
  x,y,z
_cell_length_a	10.540539
_cell_length_b	13.339070
_cell_length_c	12.376457
_cell_angle_alpha	75.601917
_cell_angle_beta	78.593757
_cell_angle_gamma	79.922607
loop_
_atom_site_label
_atom_site_type_symbol
_atom_site_fract_x
_atom_site_fract_y
_atom_site_fract_z
O1	O	1.752152	-0.123676	-0.093946
O2	O	1.387331	-0.137140	-0.093959
O3	O	1.527871	0.017157	-0.093951
O4	O	1.611612	-0.277974	-0.093954
O5	O	1.492735	-0.021364	0.094059
O6	O	1.352195	-0.175662	0.094051
O7	O	1.717016	-0.162198	0.094064
Zn8	Zn	1.529027	-0.175046	0.123908
Zn9	Zn	1.575320	-0.124292	-0.123803
O10	O	1.576476	-0.316495	0.094056
C11	C	1.322116	-0.155391	0.000044
C12	C	1.180140	-0.152368	0.000039
C13	C	1.496158	0.035688	0.000052
C14	C	1.453996	0.148296	0.000046
N15	N	1.497442	-0.209683	0.292964
C16	C	0.957168	-0.036681	0.000479
C17	C	1.104911	-0.039654	0.000044
C18	C	1.157019	-0.184614	-0.107321
C19	C	1.009178	-0.180751	-0.107399
C20	C	0.969515	-0.226851	0.106403
C21	C	1.116588	-0.228177	0.107811
C22	C	1.782231	-0.143947	0.000058
C23	C	1.924209	-0.146968	0.000056
C24	C	1.608189	-0.335026	0.000050
C25	C	1.650353	-0.447632	0.000049
C26	C	1.781836	0.510718	0.000059
C27	C	1.821453	0.404917	0.000071
C28	C	1.729592	0.340756	0.000064
C29	C	1.598108	0.382408	0.000046
C30	C	1.558485	0.488218	0.000043
C31	C	1.506241	0.318256	0.000049
C32	C	1.374757	0.359908	0.000031
C33	C	1.335141	0.465708	0.000027
C34	C	1.427002	0.529868	0.000033
C35	C	1.545863	0.212446	0.000052
C36	C	1.322513	0.189946	0.000036
C37	C	1.282896	0.295748	0.000024
N38	N	1.606913	-0.089647	-0.292860
C39	C	1.680225	-0.009222	0.647960
C40	C	1.702324	0.015021	0.529622
C41	C	1.651105	-0.041153	0.470452
C42	C	1.577784	-0.121574	0.529632
C43	C	1.555691	-0.145825	0.647982
C44	C	1.526571	-0.177756	0.470473
C45	C	1.453250	-0.258177	0.529653
C46	C	1.431160	-0.282424	0.647991
C47	C	1.482379	-0.226250	0.707162
C48	C	1.548664	-0.153505	0.352123
C49	C	1.424130	-0.290108	0.352144
C50	C	1.402030	-0.314351	0.470483
H51	H	1.118595	-0.012742	0.077004
F52	F	1.384864	0.642498	-0.000086
H53	H	0.899016	-0.007928	0.077473
F54	F	0.916624	0.041784	-0.099588
H55	H	0.989750	-0.260815	-0.112273
H56	H	1.608362	-0.088026	0.303949
H57	H	1.762023	0.080498	0.481442
F58	F	1.734740	0.050547	0.710937
F59	F	1.224739	0.121666	0.000036
H60	H	1.146414	0.019122	-0.077049
H61	H	1.856613	0.562964	0.000073
F62	F	1.369620	-0.349900	0.289176
H63	H	1.928507	0.371011	0.000087
H64	H	1.669101	-0.021410	0.374095
H65	H	1.464381	-0.245985	0.803523
H66	H	0.982301	-0.124218	-0.187650
F67	F	1.353141	-0.368025	0.710975
F68	F	1.323998	-0.399941	0.533479
F69	F	1.195201	0.510030	0.000022
F70	F	1.224120	-0.291724	-0.112565
F71	F	1.142964	0.340089	0.000003
F72	F	1.215412	-0.113966	-0.211756
H73	H	0.910327	-0.207047	0.187781
H74	H	1.167613	-0.311681	0.114292
F75	F	1.132918	-0.197570	0.211624
F76	F	0.943882	-0.333457	0.107351
H77	H	1.652918	0.178544	0.000067
H78	H	1.761856	0.254609	0.000074
