data_functionalizedCrystal
_audit_creation_method	'MofGen! by Chris Wilmer'
_symmetry_space_group_name_H-M	'P1'
_symmetry_Int_Tables_number	1
_symmetry_cell_setting	triclinic
loop_
_symmetry_equiv_pos_as_xyz
  x,y,z
_cell_length_a	19.121102
_cell_length_b	18.050589
_cell_length_c	18.050583
_cell_angle_alpha	90.031910
_cell_angle_beta	87.544925
_cell_angle_gamma	92.417299
loop_
_atom_site_label
_atom_site_type_symbol
_atom_site_fract_x
_atom_site_fract_y
_atom_site_fract_z
Zn1	Zn	1.073680	0.344109	-0.468311
Zn2	Zn	1.073594	0.468318	-0.344126
Zn3	Zn	0.956237	0.338845	-0.338843
Zn4	Zn	0.956191	0.462954	-0.462985
O5	O	1.014926	0.403557	-0.403566
O6	O	1.171953	0.365034	-0.456277
O7	O	1.058009	0.451185	-0.239500
O8	O	0.971872	0.235621	-0.356035
O9	O	1.171889	0.456289	-0.365039
O10	O	1.058157	0.239489	-0.451154
O11	O	0.971788	0.356062	-0.235619
O12	O	0.857947	0.350860	-0.350871
O13	O	0.971792	0.447147	-0.567617
O14	O	0.857913	0.442043	-0.442077
O15	O	1.058112	0.359832	-0.571529
O16	O	1.057964	0.571529	-0.359875
O17	O	0.971708	0.567588	-0.447200
C18	C	0.832446	0.395299	-0.395324
C19	C	0.754381	0.391784	-0.391815
C20	C	1.014841	0.596505	-0.403550
C21	C	1.014869	0.679052	-0.403571
C22	C	1.014957	0.403479	-0.597273
C23	C	1.014970	0.403446	-0.679820
C24	C	0.717706	0.437679	-0.437578
C25	C	0.644355	0.434366	-0.434285
C26	C	0.607680	0.385163	-0.385224
C27	C	0.644360	0.339264	-0.339459
C28	C	0.717710	0.342573	-0.342757
C29	C	0.386212	0.372790	-0.372900
C30	C	0.312858	0.369486	-0.369604
C31	C	0.312857	0.464588	-0.464432
C32	C	0.386208	0.467895	-0.467722
C33	C	0.422882	0.421993	-0.421959
C34	C	0.532704	0.381778	-0.381855
C35	C	0.497857	0.425375	-0.425332
C36	C	1.198117	0.411847	-0.411841
C37	C	1.276183	0.415380	-0.415368
C38	C	1.015030	0.209856	-0.403599
C39	C	1.015074	0.127312	-0.403614
C40	C	0.968009	0.876389	-0.451043
C41	C	0.950892	0.925066	-0.382504
C42	C	1.014938	0.830185	-0.403584
C43	C	1.032089	0.928592	-0.472131
C44	C	1.015003	0.976173	-0.403602
C45	C	0.997787	0.877774	-0.335008
C46	C	1.079014	0.881297	-0.424682
C47	C	1.061921	0.929953	-0.356098
C48	C	1.014898	0.746085	-0.403574
C49	C	1.015043	1.060272	-0.403604
C50	C	1.061957	0.355942	-0.881400
C51	C	0.997900	0.334872	-0.927908
C52	C	1.014998	0.403434	-0.830951
C53	C	1.079081	0.424458	-0.931527
C54	C	1.015031	0.403422	-0.976938
C55	C	0.950907	0.382328	-0.876370
C56	C	1.032131	0.471947	-0.879987
C57	C	0.968030	0.450901	-0.926470
C58	C	1.014980	0.403439	-0.746852
C59	C	1.015042	0.403416	-1.061035
C60	C	1.014935	0.403582	-0.210614
C61	C	1.015058	0.403413	-0.128075
H62	H	0.614497	0.471739	-0.471550
H63	H	0.983419	0.276926	-0.948982
H64	H	0.928286	0.491057	-0.946190
H65	H	0.502836	0.341718	-0.341909
N66	N	1.114523	0.960846	-0.302884
H67	H	1.151038	0.993252	-0.330846
H68	H	1.137938	0.918654	-0.278513
N69	N	0.915366	0.845307	-0.504116
H70	H	0.940218	0.815580	-0.543853
H71	H	0.891200	0.887381	-0.527805
H72	H	0.416064	0.507964	-0.507670
H73	H	1.046570	0.950888	-0.530094
N74	N	1.114476	0.302713	-0.855077
H75	H	1.162752	0.318069	-0.875988
H76	H	1.101392	0.250981	-0.872487
N77	N	0.273302	0.316436	-0.316663
H78	H	0.221270	0.321319	-0.321508
H79	H	0.286115	0.328536	-0.264190
H80	H	1.046631	0.529878	-0.858899
H81	H	1.133261	0.442244	-0.955662
H82	H	0.896711	0.364473	-0.852327
H83	H	0.282990	0.501957	-0.501690
N84	N	0.757259	0.490753	-0.490489
H85	H	0.722893	0.519323	-0.518980
H86	H	0.787718	0.461938	-0.526278
N87	N	1.150735	0.855681	-0.448334
H88	H	1.163625	0.874151	-0.500142
H89	H	1.150236	0.799714	-0.447631
H90	H	0.416063	0.335419	-0.335631
N91	N	0.537411	0.478449	-0.478240
H92	H	0.503050	0.507026	-0.506731
H93	H	0.567870	0.449634	-0.514029
N94	N	0.604808	0.286207	-0.286529
H95	H	0.552776	0.291081	-0.291375
H96	H	0.617617	0.298301	-0.234053
N97	N	0.757270	0.293068	-0.293403
H98	H	0.722908	0.261395	-0.261823
H99	H	0.787682	0.324626	-0.260350
H100	H	0.983244	0.855564	-0.277026
N101	N	0.879154	0.950652	-0.358860
H102	H	0.843711	0.931113	-0.394731
H103	H	0.879885	1.006630	-0.358563
