data_functionalizedCrystal
_audit_creation_method	'MofGen! by Chris Wilmer'
_symmetry_space_group_name_H-M	'P1'
_symmetry_Int_Tables_number	1
_symmetry_cell_setting	triclinic
loop_
_symmetry_equiv_pos_as_xyz
  x,y,z
_cell_length_a	14.853566
_cell_length_b	27.731996
_cell_length_c	13.330367
_cell_angle_alpha	89.989375
_cell_angle_beta	89.995295
_cell_angle_gamma	83.127901
loop_
_atom_site_label
_atom_site_type_symbol
_atom_site_fract_x
_atom_site_fract_y
_atom_site_fract_z
O1	O	1.195321	0.063105	-0.083371
O2	O	0.932736	0.070624	-0.083389
O3	O	1.072208	-0.003496	-0.083358
O4	O	1.055849	0.137225	-0.083402
O5	O	1.072188	-0.003498	0.083489
O6	O	0.932716	0.070622	0.083458
O7	O	1.195301	0.063104	0.083476
Cu8	Cu	1.064007	0.066863	0.098702
Cu9	Cu	1.064031	0.066865	-0.098614
O10	O	1.055829	0.137223	0.083445
C11	C	0.899143	0.070282	0.000033
C12	C	0.799077	0.069262	0.000027
C13	C	0.375974	0.064946	-0.090903
C14	C	0.375974	0.064945	0.091000
C15	C	0.469992	0.065903	0.090997
C16	C	0.517005	0.066384	0.000042
C17	C	0.470001	0.065906	-0.090909
C18	C	0.517002	0.066386	0.181947
C19	C	0.611026	0.067344	0.181947
C20	C	0.658042	0.067822	0.090991
C21	C	0.611032	0.067343	0.000036
C22	C	0.658045	0.067824	-0.090919
C23	C	0.611038	0.067342	-0.181875
C24	C	0.517017	0.066383	-0.181865
C25	C	0.752063	0.068781	0.090981
C26	C	0.752072	0.068784	-0.090925
C27	C	1.071862	-0.021506	0.000069
C28	C	1.070850	-0.075167	0.000079
C29	C	1.064493	-0.407912	-0.090918
C30	C	1.060649	-0.609588	-0.090936
O31	O	1.060122	-0.635660	-0.168285
N32	N	1.060160	-0.634808	0.000011
C33	C	1.060627	-0.609606	0.090970
O34	O	1.060114	-0.635684	0.168326
C35	C	1.064464	-0.407930	0.090986
C36	C	1.064962	-0.382713	0.000033
C37	C	1.064989	-0.382695	-0.181864
C38	C	1.065955	-0.332279	-0.181859
C39	C	1.066424	-0.307080	-0.090908
C40	C	1.065928	-0.332298	0.000038
C41	C	1.064925	-0.382729	0.181944
C42	C	1.065882	-0.332306	0.181940
C43	C	1.066379	-0.307089	0.090987
C44	C	1.067363	-0.256683	0.090995
N45	N	1.067851	-0.231463	0.000048
C46	C	1.067382	-0.256662	-0.090904
C47	C	1.058614	-0.715489	0.090954
C48	C	1.057657	-0.765908	0.090950
C49	C	1.057677	-0.765886	-0.090956
C50	C	1.058641	-0.715467	-0.090951
C51	C	1.059103	-0.690269	0.000007
C52	C	1.069411	-0.150785	-0.090885
C53	C	1.070381	-0.100365	-0.090872
C54	C	1.070356	-0.100391	0.091034
C55	C	1.069391	-0.150807	0.091021
C56	C	1.068916	-0.176002	0.000053
O57	O	1.067880	-0.230579	0.168303
O58	O	1.067875	-0.230573	-0.168248
C59	C	1.063527	-0.458328	-0.090924
C60	C	1.063030	-0.483545	0.000022
C61	C	1.063500	-0.458346	0.090974
C62	C	1.062073	-0.533964	0.000018
C63	C	1.061603	-0.559162	-0.090933
C64	C	1.062091	-0.533942	-0.181881
C65	C	1.063057	-0.483526	-0.181875
C66	C	1.063011	-0.483566	0.181921
C67	C	1.062046	-0.533982	0.181908
C68	C	1.061577	-0.559181	0.090957
C69	C	1.228894	0.063445	0.000052
C70	C	1.328961	0.064465	0.000052
C71	C	1.056175	0.155233	0.000016
C72	C	1.057187	0.208894	-0.000001
N73	N	1.063997	0.066861	0.237483
N74	N	1.064048	0.066862	-0.237396
C75	C	1.002270	0.099672	0.710092
C76	C	1.125816	0.034054	0.710088
C77	C	1.125805	0.034052	0.605070
C78	C	1.064027	0.066861	0.552558
C79	C	1.002260	0.099672	0.605064
C80	C	1.187578	0.001245	0.552555
C81	C	1.187571	0.001243	0.447530
C82	C	1.125788	0.034050	0.395017
C83	C	1.064017	0.066862	0.447530
C84	C	1.002239	0.099671	0.395018
C85	C	0.940463	0.132481	0.447529
C86	C	0.940477	0.132480	0.552550
C87	C	1.125775	0.034052	0.289995
C88	C	1.002229	0.099672	0.289990
H89	H	0.790331	0.069178	0.165036
H90	H	1.057295	-0.786411	-0.165012
F91	F	1.066373	-0.305491	0.278753
H92	H	0.890167	0.159197	0.404761
F93	F	1.253329	-0.033668	0.608442
F94	F	1.070913	-0.073530	-0.187681
H95	H	1.176076	0.007340	0.247245
H96	H	0.890182	0.159193	0.595311
H97	H	1.068994	-0.171340	0.165082
F98	F	1.061523	-0.560815	0.278721
H99	H	1.064521	-0.403252	0.256008
F100	F	0.802101	0.069292	-0.187734
F101	F	1.070857	-0.073564	0.187826
H102	H	1.069019	-0.171293	-0.164960
H103	H	0.649327	0.067737	-0.255930
F104	F	1.059168	-0.688633	-0.187755
F105	F	1.253315	-0.033676	0.391652
H106	H	0.478735	0.065990	-0.255916
H107	H	1.063462	-0.462999	-0.255939
H108	H	1.057265	-0.786436	0.165014
F109	F	1.063504	-0.456754	0.278730
F110	F	0.325949	0.064422	-0.187700
F111	F	0.936470	0.134590	0.234111
F112	F	0.936523	0.134587	0.765976
F113	F	0.661047	0.067856	0.278749
F114	F	1.061597	-0.560769	-0.278678
F115	F	1.066478	-0.305447	-0.278665
F116	F	0.325935	0.064438	0.187795
F117	F	0.466962	0.065879	0.278740
H118	H	1.064603	-0.403206	-0.255932
F119	F	1.059101	-0.688677	0.187771
F120	F	1.191567	-0.000860	0.765974
