data_functionalizedCrystal
_audit_creation_method	'MofGen! by Chris Wilmer'
_symmetry_space_group_name_H-M	'P1'
_symmetry_Int_Tables_number	1
_symmetry_cell_setting	triclinic
loop_
_symmetry_equiv_pos_as_xyz
  x,y,z
_cell_length_a	9.616153
_cell_length_b	17.699083
_cell_length_c	17.699083
_cell_angle_alpha	96.716985
_cell_angle_beta	90.003155
_cell_angle_gamma	89.999170
loop_
_atom_site_label
_atom_site_type_symbol
_atom_site_fract_x
_atom_site_fract_y
_atom_site_fract_z
O1	O	0.115453	-1.004079	0.095708
O2	O	0.615453	-0.504079	0.595708
O3	O	0.115499	-0.783700	0.108161
O4	O	0.615499	-0.283700	0.608161
O5	O	0.115463	-0.900116	-0.008255
O6	O	0.615463	-0.400116	0.491745
O7	O	0.115490	-0.887663	0.212124
O8	O	0.615490	-0.387663	0.712124
O9	O	-0.115829	-0.900100	-0.008252
O10	O	0.384171	-0.400100	0.491748
O11	O	-0.115792	-0.783684	0.108163
O12	O	0.384208	-0.283684	0.608163
O13	O	-0.115838	-1.004063	0.095711
O14	O	0.384162	-0.504063	0.595711
Zn15	Zn	-0.152538	-0.893871	0.101937
Zn16	Zn	0.347462	-0.393871	0.601937
Zn17	Zn	0.152199	-0.893892	0.101934
Zn18	Zn	0.652199	-0.393892	0.601934
O19	O	-0.115801	-0.887647	0.212126
O20	O	0.384199	-0.387647	0.712126
C21	C	-0.000141	-0.755495	0.107716
C22	C	0.499859	-0.255495	0.607716
C23	C	-0.000123	-0.671477	0.106377
C24	C	0.499877	-0.171477	0.606377
N25	N	-0.360512	-0.893862	0.101939
N26	N	0.139488	-0.393862	0.601939
C27	C	-0.000183	-0.899662	-0.036451
C28	C	0.499817	-0.399662	0.463549
C29	C	-0.000183	-0.898323	-0.120469
C30	C	0.499817	-0.398323	0.379531
C31	C	-0.580862	-0.831402	0.164009
C32	C	-0.080862	-0.331402	0.664009
C33	C	-0.419695	-0.831535	0.164238
C34	C	0.080305	-0.331535	0.664238
C35	C	-0.418976	-0.972805	0.119044
C36	C	0.081024	-0.472805	0.619044
C37	C	-0.580193	-0.972464	0.119482
C38	C	-0.080193	-0.472464	0.619482
C39	C	-0.580429	-0.878170	0.022555
C40	C	-0.080429	-0.378170	0.522555
C41	C	-0.419202	-0.876348	0.023090
C42	C	0.080798	-0.376348	0.523090
N43	N	0.360173	-0.893907	0.101926
N44	N	0.860173	-0.393907	0.601926
C45	C	-0.000195	-1.032268	0.096156
C46	C	0.499805	-0.532268	0.596156
C47	C	-0.000203	-1.116286	0.097494
C48	C	0.499797	-0.616286	0.597494
C49	C	-0.000115	-0.622856	0.174710
C50	C	0.499885	-0.122856	0.674710
C51	C	-0.000134	-0.543913	0.173448
C52	C	0.499866	-0.043913	0.673448
C53	C	-0.000150	-0.513592	0.103852
C54	C	0.499850	-0.013592	0.603852
C55	C	-0.000162	-0.562219	0.035513
C56	C	0.499838	-0.062219	0.535513
C57	C	-0.000154	-0.641161	0.036776
C58	C	0.499846	-0.141161	0.536776
C59	C	-0.000197	-0.243856	0.030418
C60	C	0.499803	0.256144	0.530418
C61	C	-0.000201	-0.164908	0.029160
C62	C	0.499799	0.335092	0.529160
C63	C	-0.000177	-0.146608	0.167090
C64	C	0.499823	0.353392	0.667090
C65	C	-0.000169	-0.225550	0.168353
C66	C	0.499831	0.274450	0.668353
C67	C	-0.000188	-0.274170	0.100015
C68	C	0.499812	0.225830	0.600015
C69	C	-0.000171	-0.359769	0.101384
C70	C	0.499829	0.140231	0.601384
C71	C	-0.000157	-0.427995	0.102481
C72	C	0.499843	0.072005	0.602481
C73	C	-0.000199	-0.966656	-0.169090
C74	C	0.499801	-0.466656	0.330910
C75	C	-0.000187	-0.965394	-0.248033
C76	C	0.499813	-0.465394	0.251967
C77	C	-0.000168	-0.895798	-0.278354
C78	C	0.499832	-0.395798	0.221646
C79	C	-0.000148	-0.827459	-0.229727
C80	C	0.499852	-0.327459	0.270273
C81	C	-0.000150	-0.828722	-0.150785
C82	C	0.499850	-0.328722	0.349215
C83	C	-0.000135	-0.822364	-0.548090
C84	C	0.499865	-0.322364	-0.048090
C85	C	-0.000137	-0.821106	-0.627038
C86	C	0.499863	-0.321106	-0.127038
C87	C	-0.000172	-0.959036	-0.645338
C88	C	0.499828	-0.459036	-0.145338
C89	C	-0.000175	-0.960299	-0.566396
C90	C	0.499825	-0.460299	-0.066396
C91	C	-0.000147	-0.891961	-0.517776
C92	C	0.499853	-0.391961	-0.017776
C93	C	-0.000158	-0.893330	-0.432177
C94	C	0.499842	-0.393330	0.067823
C95	C	-0.000167	-0.894427	-0.363951
C96	C	0.499833	-0.394427	0.136049
C97	C	-0.000153	-0.888102	0.240322
C98	C	0.499847	-0.388102	0.740322
C99	C	-0.000143	-0.889440	0.324340
C100	C	0.499857	-0.389440	0.824340
H101	H	-0.380169	-0.772851	0.154068
H102	H	0.119831	-0.272851	0.654068
H103	H	-0.000187	-1.014680	-0.684934
H104	H	0.499813	-0.514680	-0.184934
H105	H	-0.380638	-1.020417	0.075024
H106	H	0.119362	-0.520417	0.575024
O107	O	-0.000097	-0.655552	0.249779
O108	O	0.499903	-0.155552	0.749779
H109	H	-0.000079	-0.718614	0.239180
H110	H	0.499921	-0.218614	0.739180
O111	O	-0.000202	-1.039100	-0.300471
O112	O	0.499798	-0.539100	0.199529
H113	H	-0.000176	-1.026532	-0.360459
H114	H	0.499824	-0.526532	0.139541
O115	O	-0.000196	-1.035363	-0.533691
O116	O	0.499804	-0.535363	-0.033691
H117	H	0.094069	-1.039236	-0.498155
H118	H	0.594069	-0.539236	0.001845
O119	O	-0.000245	-0.132205	-0.045910
O120	O	0.499755	0.367795	0.454090
H121	H	0.094005	-0.151747	-0.078753
H122	H	0.594005	0.348253	0.421247
O123	O	-0.365498	-0.991645	0.194844
O124	O	0.134502	-0.491645	0.694844
H125	H	-0.297297	-0.944911	0.220451
H126	H	0.202703	-0.444911	0.720451
H127	H	-0.619663	-0.772532	0.154007
H128	H	-0.119663	-0.272532	0.654007
H129	H	-0.621356	-0.841296	0.222581
H130	H	-0.121356	-0.341296	0.722581
H131	H	-0.000223	-1.023330	-0.144409
H132	H	0.499777	-0.523330	0.355591
H133	H	-0.000126	-0.504328	0.229092
H134	H	0.499874	-0.004328	0.729092
H135	H	-0.000168	-0.107012	0.222734
H136	H	0.499832	0.392988	0.722734
O137	O	-0.000172	-0.258256	0.243417
O138	O	0.499828	0.241744	0.743417
H139	H	-0.000189	-0.211183	0.290723
H140	H	0.499811	0.288817	0.790723
H141	H	-0.000214	-0.283434	-0.025228
H142	H	0.499786	0.216566	0.474772
O143	O	-0.000108	-0.746034	-0.659738
O144	O	0.499892	-0.246034	-0.159738
H145	H	-0.094387	-0.742149	-0.695260
H146	H	0.405613	-0.242149	-0.195260
O147	O	-0.368565	-0.844824	0.242259
O148	O	0.131435	-0.344824	0.742259
H149	H	-0.458990	-0.851188	0.279972
H150	H	0.041010	-0.351188	0.779972
O151	O	-0.000185	-0.529522	-0.039555
O152	O	0.499815	-0.029522	0.460445
H153	H	-0.000176	-0.466461	-0.028955
H154	H	0.499824	0.033539	0.471045
O155	O	-0.629997	-0.990860	0.196149
O156	O	-0.129997	-0.490860	0.696149
H157	H	-0.538933	-0.999912	0.232564
H158	H	-0.038933	-0.499912	0.732564
H159	H	-0.000159	-0.680748	-0.018868
H160	H	0.499841	-0.180748	0.481132
O161	O	-0.000141	-0.748660	-0.495653
O162	O	0.499859	-0.248660	0.004347
H163	H	-0.000152	-0.700056	-0.530002
H164	H	0.499848	-0.200056	-0.030002
H165	H	-0.000124	-0.770792	-0.254420
H166	H	0.499876	-0.270792	0.245580
O167	O	-0.631876	-1.035915	0.061863
O168	O	-0.131876	-0.535915	0.561863
H169	H	-0.541716	-1.066712	0.033814
H170	H	-0.041716	-0.566712	0.533814
H171	H	-0.618560	-0.923754	-0.023644
H172	H	-0.118560	-0.423754	0.476356
O173	O	-0.000148	-0.755021	-0.098338
O174	O	0.499852	-0.255021	0.401662
H175	H	-0.000151	-0.706413	-0.132682
H176	H	0.499849	-0.206413	0.367318
O177	O	-0.634336	-0.803577	0.000735
O178	O	-0.134336	-0.303577	0.500735
H179	H	-0.693005	-0.814076	-0.053486
H180	H	-0.193005	-0.314076	0.446514
H181	H	-0.380991	-0.818278	0.010106
H182	H	0.119009	-0.318278	0.510106
O183	O	-0.365886	-0.932752	-0.040962
O184	O	0.134114	-0.432752	0.459038
H185	H	-0.296419	-0.974337	-0.017492
H186	H	0.203581	-0.474337	0.482508
