data_functionalizedCrystal
_audit_creation_method	'MofGen! by Chris Wilmer'
_symmetry_space_group_name_H-M	'P1'
_symmetry_Int_Tables_number	1
_symmetry_cell_setting	triclinic
loop_
_symmetry_equiv_pos_as_xyz
  x,y,z
_cell_length_a	12.970454
_cell_length_b	14.560438
_cell_length_c	14.560438
_cell_angle_alpha	60.001579
_cell_angle_beta	89.999946
_cell_angle_gamma	59.999012
loop_
_atom_site_label
_atom_site_type_symbol
_atom_site_fract_x
_atom_site_fract_y
_atom_site_fract_z
Zr1	Zr	0.993221	1.005270	-0.120520
O2	O	0.828595	1.196871	-0.267161
O3	O	1.043688	0.813669	-0.075569
O4	O	1.043685	1.005269	-0.267167
O5	O	0.828600	1.005271	0.075577
O6	O	1.213352	1.005268	-0.267170
O7	O	0.828597	1.005271	-0.075562
O8	O	1.213358	0.662531	0.075565
O9	O	0.828595	1.348009	-0.267158
O10	O	1.191833	0.892476	-0.056396
O11	O	1.065214	0.892477	0.056399
O12	O	1.065210	1.118062	-0.169184
O13	O	0.938591	1.118063	-0.056389
Zr14	Zr	1.263825	1.005269	0.120526
Zr15	Zr	1.263821	1.005268	-0.120523
Zr16	Zr	0.993225	1.005271	0.120530
Zr17	Zr	0.993222	1.246317	-0.120515
Zr18	Zr	1.263825	0.764222	0.120522
O19	O	1.213359	1.196870	0.075575
O20	O	1.213353	1.196869	-0.267166
O21	O	0.828600	1.196872	0.075581
O22	O	1.428452	0.813668	0.267168
O23	O	1.428446	0.813667	-0.075574
O24	O	1.043694	0.813670	0.267173
O25	O	1.428447	1.005268	-0.075570
O26	O	1.213362	1.005270	0.267174
O27	O	1.043694	1.005271	0.267177
O28	O	1.428449	1.005268	0.075569
O29	O	1.043686	1.348008	-0.267161
O30	O	1.213361	0.662531	0.267168
O31	O	1.428452	0.662530	0.267165
O32	O	1.428449	0.662530	0.075562
O33	O	0.828598	1.348009	-0.075556
O34	O	1.043689	1.348008	-0.075559
O35	O	1.191836	0.892477	0.169191
O36	O	1.318455	0.892476	0.056395
O37	O	1.191833	1.118062	-0.056392
O38	O	1.065214	1.118063	0.056403
C39	C	1.128523	0.703756	-0.000002
C40	C	1.128522	0.601425	-0.000004
C41	C	1.194614	0.553348	-0.058882
C42	C	1.194619	0.457189	-0.058872
C43	C	1.062431	0.457195	0.058896
C44	C	1.062434	0.553346	0.058892
C45	C	0.790044	1.005271	0.000008
C46	C	0.675167	1.005272	0.000010
C47	C	1.467003	1.005268	-0.000001
C48	C	1.581879	1.005267	-0.000003
C49	C	1.128518	1.005268	-0.301513
C50	C	1.128516	1.005268	-0.403845
C51	C	1.128524	1.306783	0.000009
C52	C	1.128524	1.409114	0.000011
C53	C	1.035053	1.005271	-0.548082
C54	C	1.035048	1.005265	-0.451927
C55	C	1.222003	1.005264	-0.451916
C56	C	1.222012	1.005260	-0.548064
C57	C	1.128529	1.005270	0.301520
C58	C	1.128530	1.005271	0.403852
C59	C	1.467002	0.703754	-0.000007
C60	C	1.581879	0.601422	-0.000010
C61	C	1.128528	0.703757	0.301514
C62	C	1.128529	0.601426	0.403844
C63	C	1.467007	0.703755	0.301509
C64	C	1.581886	0.601424	0.403838
C65	C	0.790039	1.306784	-0.301503
C66	C	0.675161	1.409115	-0.403831
C67	C	0.790045	1.306785	0.000014
C68	C	0.675168	1.409116	0.000017
C69	C	1.128519	1.306782	-0.301507
C70	C	1.128517	1.409113	-0.403837
C71	C	1.635828	0.470091	0.083255
C72	C	1.743756	0.373926	0.083255
C73	C	1.797737	0.409096	-0.000006
C74	C	1.743778	0.540441	-0.083279
C75	C	1.635847	0.636603	-0.083284
C76	C	1.635842	0.470092	0.451890
C77	C	1.743795	0.373927	0.548028
C78	C	1.797783	0.409095	0.596116
C79	C	1.743821	0.540439	0.548055
C80	C	1.635876	0.636602	0.451915
C81	C	0.621214	1.540447	-0.451892
C82	C	0.513285	1.636612	-0.548051
C83	C	0.459301	1.601444	-0.596143
C84	C	0.513258	1.470099	-0.548077
C85	C	0.621190	1.373936	-0.451925
C86	C	0.621221	1.373906	0.083293
C87	C	0.513293	1.470044	0.083319
C88	C	0.459309	1.601392	0.000064
C89	C	0.513266	1.636602	-0.083216
C90	C	0.621197	1.540464	-0.083237
C91	C	1.194625	0.553349	0.510795
C92	C	1.194612	0.457207	0.606941
C93	C	1.062406	0.457225	0.489171
C94	C	1.062413	0.553371	0.393028
H95	H	1.248438	0.418046	-0.106814
O96	O	1.914152	0.305363	0.000014
H97	H	1.942629	0.351873	-0.071874
O98	O	1.265915	0.405351	0.722292
H99	H	1.199189	0.423820	0.768915
H100	H	1.591890	0.441430	0.151059
H101	H	1.248456	0.592477	0.519608
H102	H	1.008584	0.592519	0.305937
H103	H	0.665150	1.569106	-0.412745
O104	O	0.455094	1.432056	0.173133
H105	H	0.510755	1.324570	0.231002
H106	H	1.008623	0.418039	0.106846
H107	H	0.665109	1.569152	-0.151055
O108	O	0.934224	1.005299	-0.599957
H109	H	0.869224	1.005297	-0.550375
H110	H	1.008579	0.418085	0.480379
H111	H	0.371416	1.679759	-0.674436
H112	H	0.371424	1.679660	0.000093
H113	H	1.008614	0.592489	0.106842
O114	O	1.577679	0.778256	-0.173080
H115	H	1.633367	0.786542	-0.230959
H116	H	0.958932	1.005263	-0.412794
H117	H	1.787746	0.569058	-0.151068
H118	H	1.298112	1.005258	-0.412757
O119	O	1.265902	0.605199	-0.122392
H120	H	1.311870	0.555600	-0.163322
H121	H	1.787676	0.266986	0.151070
O122	O	1.322826	1.005280	-0.599928
H123	H	1.387814	1.005299	-0.550354
H124	H	1.591898	0.441433	0.412749
O125	O	1.801976	0.232269	0.599864
H126	H	1.746277	0.223982	0.550280
H127	H	0.469366	1.743552	-0.587170
O128	O	0.455031	1.778271	-0.173015
H129	H	0.370910	1.839192	-0.159006
O130	O	1.914204	0.305370	0.699819
H131	H	1.942636	0.208141	0.725153
H132	H	1.787796	0.569056	0.587223
H133	H	1.591949	0.743537	0.412802
O134	O	0.455020	1.432173	-0.599945
H135	H	0.370898	1.521115	-0.674870
H136	H	0.665100	1.267001	-0.412796
O137	O	0.679438	1.232242	0.173097
H138	H	0.623786	1.223931	0.231007
