data_functionalizedCrystal
_audit_creation_method	'MofGen! by Chris Wilmer'
_symmetry_space_group_name_H-M	'P1'
_symmetry_Int_Tables_number	1
_symmetry_cell_setting	triclinic
loop_
_symmetry_equiv_pos_as_xyz
  x,y,z
_cell_length_a	8.559649
_cell_length_b	23.532357
_cell_length_c	7.681481
_cell_angle_alpha	84.289729
_cell_angle_beta	94.912730
_cell_angle_gamma	76.303478
loop_
_atom_site_label
_atom_site_type_symbol
_atom_site_fract_x
_atom_site_fract_y
_atom_site_fract_z
O1	O	2.105239	-0.013278	-0.146417
O2	O	1.639551	0.016156	-0.146432
O3	O	1.886483	-0.082084	-0.146388
O4	O	1.858307	0.084962	-0.146461
O5	O	1.916877	-0.094200	0.146475
O6	O	1.669945	0.004040	0.146432
O7	O	2.135632	-0.025394	0.146446
Zn8	Zn	1.907614	-0.012601	0.192937
Zn9	Zn	1.867569	0.003363	-0.192923
O10	O	1.888700	0.072846	0.146402
C11	C	1.595182	0.012329	-0.000001
C12	C	1.417692	0.018968	-0.000005
C13	C	1.900976	-0.109329	0.000049
C14	C	1.898859	-0.172460	0.000066
C15	C	1.868983	-0.557308	-0.159669
C16	C	1.866968	-0.616623	-0.159680
O17	O	1.851782	-0.641677	-0.295447
N18	N	1.882537	-0.652897	-0.000042
C19	C	1.900105	-0.629852	0.159616
O20	O	1.913161	-0.666152	0.295399
C21	C	1.902108	-0.570537	0.159624
C22	C	1.886555	-0.534267	-0.000024
C23	C	1.853429	-0.521039	-0.319304
C24	C	1.855447	-0.461728	-0.319294
C25	C	1.873018	-0.438687	-0.159648
C26	C	1.888572	-0.474956	-0.000013
C27	C	1.919665	-0.547491	0.319280
C28	C	1.921666	-0.488172	0.319275
C29	C	1.906112	-0.451902	0.159627
C30	C	1.908162	-0.392605	0.159643
N31	N	1.892593	-0.356331	0.000006
C32	C	1.875021	-0.379372	-0.159640
C33	C	1.895895	-0.754417	0.159586
C34	C	1.893903	-0.813732	0.159580
C35	C	1.860763	-0.800499	-0.159716
C36	C	1.862766	-0.741184	-0.159708
C37	C	1.880326	-0.718143	-0.000051
C38	C	1.879261	-0.254816	-0.159605
C39	C	1.881288	-0.195501	-0.159580
C40	C	1.914419	-0.208739	0.159715
C41	C	1.912402	-0.268049	0.159691
C42	C	1.894816	-0.291085	0.000017
O43	O	1.923335	-0.367510	0.295342
O44	O	1.861947	-0.343063	-0.295400
C45	C	2.180002	-0.021566	0.000012
C46	C	2.357490	-0.028205	0.000004
C47	C	1.874207	0.100091	-0.000039
C48	C	1.876323	0.163223	-0.000067
N49	N	1.934956	-0.023496	0.456276
N50	N	1.840241	0.014253	-0.456262
H51	H	1.441742	-0.073676	0.000023
H52	H	1.928733	-0.189968	0.289694
H53	H	1.333447	0.064436	-0.000042
Cl54	Cl	1.861737	-0.149908	-0.360295
H55	H	1.850099	-0.711656	-0.289707
H56	H	1.864934	-0.273564	-0.289627
H57	H	1.842775	-0.432201	-0.449296
Cl58	Cl	1.831338	-0.549993	-0.520030
H59	H	1.743556	0.052784	0.468524
H60	H	2.031658	-0.062026	0.531499
H61	H	1.846450	-0.819269	-0.289709
Cl62	Cl	1.913488	-0.859324	0.360289
H63	H	1.935941	-0.469414	0.449290
Cl64	Cl	1.917987	-0.725459	0.360319
H65	H	1.932333	-0.577013	0.449283
Cl66	Cl	1.931985	-0.313649	0.360393
