data_functionalizedCrystal
_audit_creation_method	'MofGen! by Chris Wilmer'
_symmetry_space_group_name_H-M	'P1'
_symmetry_Int_Tables_number	1
_symmetry_cell_setting	triclinic
loop_
_symmetry_equiv_pos_as_xyz
  x,y,z
_cell_length_a	29.839135
_cell_length_b	29.839131
_cell_length_c	29.839126
_cell_angle_alpha	89.970347
_cell_angle_beta	89.970753
_cell_angle_gamma	90.037758
loop_
_atom_site_label
_atom_site_type_symbol
_atom_site_fract_x
_atom_site_fract_y
_atom_site_fract_z
Zn1	Zn	0.686800	-0.178867	-0.254023
Zn2	Zn	1.020133	0.154466	0.079310
Zn3	Zn	1.353467	0.487800	0.412643
Zn4	Zn	0.686722	-0.253985	-0.178883
Zn5	Zn	1.020056	0.079349	0.154450
Zn6	Zn	1.353389	0.412682	0.487783
Zn7	Zn	0.611665	-0.178873	-0.178901
Zn8	Zn	0.944998	0.154461	0.154432
Zn9	Zn	1.278331	0.487794	0.487765
Zn10	Zn	0.611639	-0.253974	-0.253980
Zn11	Zn	0.944972	0.079359	0.079353
Zn12	Zn	1.278305	0.412693	0.412686
O13	O	0.649206	-0.216425	-0.216447
O14	O	0.982540	0.116909	0.116886
O15	O	1.315873	0.450242	0.450220
O16	O	0.749657	-0.188833	-0.244066
O17	O	1.082990	0.144500	0.089267
O18	O	1.416323	0.477833	0.422600
O19	O	0.676744	-0.244028	-0.116019
O20	O	1.010077	0.089306	0.217315
O21	O	1.343411	0.422639	0.550648
O22	O	0.621675	-0.116005	-0.188892
O23	O	0.955008	0.217329	0.144441
O24	O	1.288342	0.550662	0.477774
O25	O	0.749600	-0.244022	-0.188861
O26	O	1.082933	0.089311	0.144472
O27	O	1.416266	0.422645	0.477805
O28	O	0.676877	-0.116001	-0.244084
O29	O	1.010210	0.217333	0.089249
O30	O	1.343543	0.550666	0.422583
O31	O	0.621600	-0.188843	-0.116032
O32	O	0.954933	0.144490	0.217301
O33	O	1.288266	0.477823	0.550635
O34	O	0.548794	-0.188833	-0.188850
O35	O	0.882127	0.144500	0.144483
O36	O	1.215461	0.477834	0.477816
O37	O	0.621631	-0.244004	-0.316853
O38	O	0.954964	0.089329	0.016480
O39	O	1.288297	0.422663	0.349814
O40	O	0.548775	-0.244010	-0.244010
O41	O	0.882108	0.089324	0.089323
O42	O	1.215442	0.422657	0.422656
O43	O	0.676851	-0.188823	-0.316885
O44	O	1.010185	0.144510	0.016449
O45	O	1.343518	0.477844	0.349782
O46	O	0.676719	-0.316850	-0.188819
O47	O	1.010052	0.016483	0.144514
O48	O	1.343385	0.349816	0.477847
O49	O	0.621555	-0.316842	-0.243993
O50	O	0.954888	0.016491	0.089341
O51	O	1.288222	0.349824	0.422674
C52	C	0.649138	-0.333147	-0.216409
C53	C	0.982471	0.000186	0.116924
C54	C	1.315805	0.333520	0.450257
C55	C	0.649150	-0.383082	-0.216408
C56	C	0.982483	-0.049748	0.116925
C57	C	1.315816	0.283585	0.450259
C58	C	0.532484	-0.216421	-0.216428
C59	C	0.865817	0.116912	0.116905
C60	C	1.199150	0.450246	0.450239
C61	C	0.482549	-0.216430	-0.216430
C62	C	0.815883	0.116903	0.116903
C63	C	1.149216	0.450236	0.450236
C64	C	0.677944	-0.692688	-0.245226
C65	C	1.011277	-0.359354	0.088107
C66	C	1.344610	-0.026021	0.421440
C67	C	0.677992	-0.880361	-0.245253
C68	C	1.011326	-0.547028	0.088080
C69	C	1.344659	-0.213694	0.421413
O70	O	0.702407	-0.904594	-0.269728
O71	O	1.035740	-0.571261	0.063606
O72	O	1.369073	-0.237927	0.396939
N73	N	0.649283	-0.903867	-0.216497
N74	N	0.982616	-0.570533	0.116836
N75	N	1.315949	-0.237200	0.450170
C76	C	0.620557	-0.880451	-0.187734
C77	C	0.953890	-0.547118	0.145600
C78	C	1.287223	-0.213785	0.478933
O79	O	0.596135	-0.904751	-0.163279
O80	O	0.929469	-0.571417	0.170055
O81	O	1.262802	-0.238084	0.503388
C82	C	0.620506	-0.692779	-0.187709
C83	C	0.953839	-0.359446	0.145624
C84	C	1.287173	-0.026112	0.478957
C85	C	0.649221	-0.669276	-0.216464
C86	C	0.982554	-0.335942	0.116869
C87	C	1.315887	-0.002609	0.450202
C88	C	0.706656	-0.669184	-0.273980
C89	C	1.039989	-0.335851	0.059354
C90	C	1.373322	-0.002518	0.392687
C91	C	0.706645	-0.622269	-0.273971
C92	C	1.039978	-0.288936	0.059363
C93	C	1.373312	0.044398	0.392696
C94	C	0.677922	-0.598857	-0.245209
C95	C	1.011255	-0.265524	0.088124
C96	C	1.344589	0.067810	0.421458
C97	C	0.649210	-0.622360	-0.216456
C98	C	0.982543	-0.289027	0.116878
C99	C	1.315877	0.044306	0.450211
C100	C	0.591778	-0.669364	-0.158949
C101	C	0.925111	-0.336031	0.174385
C102	C	1.258445	-0.002698	0.507718
C103	C	0.591767	-0.622443	-0.158946
C104	C	0.925101	-0.289110	0.174387
C105	C	1.258434	0.044223	0.507721
C106	C	0.620482	-0.598940	-0.187701
C107	C	0.953815	-0.265607	0.145632
C108	C	1.287149	0.067727	0.478965
C109	C	0.620476	-0.552033	-0.187685
C110	C	0.953810	-0.218699	0.145648
C111	C	1.287143	0.114634	0.478982
N112	N	0.649186	-0.528527	-0.216442
N113	N	0.982519	-0.195194	0.116892
N114	N	1.315853	0.138140	0.450225
C115	C	0.677909	-0.551939	-0.245203
C116	C	1.011242	-0.218606	0.088130
C117	C	1.344576	0.114728	0.421463
C118	C	0.620586	-0.978982	-0.187748
C119	C	0.953919	-0.645648	0.145585
C120	C	1.287253	-0.312315	0.478919
C121	C	0.620599	-1.025900	-0.187753
C122	C	0.953932	-0.692566	0.145580
C123	C	1.287266	-0.359233	0.478913
C124	C	0.678034	-1.025806	-0.245274
C125	C	1.011368	-0.692473	0.088060
C126	C	1.344701	-0.359139	0.421393
C127	C	0.678023	-0.978887	-0.245266
C128	C	1.011356	-0.645554	0.088068
C129	C	1.344690	-0.312221	0.421401
C130	C	0.649296	-0.955476	-0.216504
C131	C	0.982629	-0.622143	0.116829
C132	C	1.315962	-0.288809	0.450162
C133	C	0.677884	-0.453413	-0.245183
C134	C	1.011218	-0.120080	0.088151
C135	C	1.344551	0.213253	0.421484
C136	C	0.677872	-0.406494	-0.245170
C137	C	1.011206	-0.073160	0.088163
C138	C	1.344539	0.260173	0.421497
C139	C	0.620436	-0.406591	-0.187651
C140	C	0.953769	-0.073258	0.145682
C141	C	1.287102	0.260075	0.479015
C142	C	0.620449	-0.453507	-0.187662
C143	C	0.953783	-0.120174	0.145671
C144	C	1.287116	0.213160	0.479004
C145	C	0.649175	-0.476917	-0.216431
C146	C	0.982508	-0.143583	0.116902
C147	C	1.315842	0.189750	0.450235
O148	O	0.596071	-0.527770	-0.163227
O149	O	0.929405	-0.194437	0.170106
O150	O	1.262738	0.138896	0.503439
O151	O	0.702320	-0.527632	-0.269662
O152	O	1.035653	-0.194298	0.063671
O153	O	1.368986	0.139035	0.397005
C154	C	0.677954	-0.739603	-0.245235
C155	C	1.011288	-0.406270	0.088098
C156	C	1.344621	-0.072937	0.421432
C157	C	0.649242	-0.763107	-0.216482
C158	C	0.982576	-0.429773	0.116851
C159	C	1.315909	-0.096440	0.450185
C160	C	0.620519	-0.739695	-0.187720
C161	C	0.953853	-0.406361	0.145613
C162	C	1.287186	-0.073028	0.478947
C163	C	0.649255	-0.810024	-0.216487
C164	C	0.982589	-0.476691	0.116846
C165	C	1.315922	-0.143358	0.450179
C166	C	0.677978	-0.833437	-0.245249
C167	C	1.011312	-0.500103	0.088084
C168	C	1.344645	-0.166770	0.421417
C169	C	0.706688	-0.809931	-0.274006
C170	C	1.040021	-0.476597	0.059328
C171	C	1.373355	-0.143264	0.392661
C172	C	0.706677	-0.763015	-0.273997
C173	C	1.040010	-0.429682	0.059336
C174	C	1.373344	-0.096349	0.392670
C175	C	0.591810	-0.763200	-0.158964
C176	C	0.925143	-0.429867	0.174370
C177	C	1.258476	-0.096534	0.507703
C178	C	0.591823	-0.810116	-0.158974
C179	C	0.925157	-0.476782	0.174359
C180	C	1.258490	-0.143449	0.507692
C181	C	0.620546	-0.833528	-0.187736
C182	C	0.953879	-0.500194	0.145597
C183	C	1.287213	-0.166861	0.478930
C184	C	0.172933	-0.187731	-0.245235
C185	C	0.506266	0.145602	0.088099
C186	C	0.839599	0.478935	0.421432
C187	C	-0.014740	-0.187734	-0.245247
C188	C	0.318593	0.145599	0.088086
C189	C	0.651926	0.478932	0.421419
O190	O	-0.038982	-0.163323	-0.269717
O191	O	0.294351	0.170010	0.063617
O192	O	0.627684	0.503343	0.396950
N193	N	-0.038236	-0.216425	-0.216464
N194	N	0.295098	0.116908	0.116870
N195	N	0.628431	0.450242	0.450203
C196	C	-0.014810	-0.245115	-0.187672
C197	C	0.318523	0.088219	0.145661
C198	C	0.651857	0.421552	0.478994
O199	O	-0.039101	-0.269515	-0.163187
O200	O	0.294233	0.063819	0.170147
O201	O	0.627566	0.397152	0.503480
C202	C	0.172862	-0.245109	-0.187658
C203	C	0.506196	0.088224	0.145676
C204	C	0.839529	0.421558	0.479009
C205	C	0.196355	-0.216420	-0.216447
C206	C	0.529689	0.116913	0.116887
C207	C	0.863022	0.450247	0.450220
C208	C	0.196426	-0.159044	-0.274021
C209	C	0.529759	0.174289	0.059312
C210	C	0.863092	0.507623	0.392646
C211	C	0.243341	-0.159045	-0.274019
C212	C	0.576675	0.174288	0.059314
C213	C	0.910008	0.507621	0.392647
C214	C	0.266764	-0.187734	-0.245231
C215	C	0.600097	0.145599	0.088102
C216	C	0.933430	0.478933	0.421435
C217	C	0.243271	-0.216421	-0.216445
C218	C	0.576604	0.116912	0.116888
C219	C	0.909937	0.450246	0.450222
C220	C	0.196287	-0.273796	-0.158864
C221	C	0.529620	0.059537	0.174469
C222	C	0.862954	0.392870	0.507802
C223	C	0.243208	-0.273791	-0.158862
C224	C	0.576541	0.059542	0.174471
C225	C	0.909875	0.392875	0.507804
C226	C	0.266701	-0.245102	-0.187652
C227	C	0.600034	0.088231	0.145682
C228	C	0.933368	0.421564	0.479015
C229	C	0.313609	-0.245111	-0.187655
C230	C	0.646942	0.088222	0.145678
C231	C	0.980275	0.421556	0.479012
N232	N	0.337104	-0.216420	-0.216439
N233	N	0.670437	0.116913	0.116894
N234	N	1.003771	0.450246	0.450228
C235	C	0.313682	-0.187732	-0.245227
C236	C	0.647015	0.145602	0.088106
C237	C	0.980348	0.478935	0.421440
C238	C	-0.113341	-0.245116	-0.187683
C239	C	0.219993	0.088217	0.145651
C240	C	0.553326	0.421550	0.478984
C241	C	-0.160258	-0.245118	-0.187687
C242	C	0.173075	0.088215	0.145647
C243	C	0.506408	0.421548	0.478980
C244	C	-0.160185	-0.187737	-0.245262
C245	C	0.173148	0.145596	0.088072
C246	C	0.506481	0.478929	0.421405
C247	C	-0.113267	-0.187738	-0.245259
C248	C	0.220067	0.145595	0.088074
C249	C	0.553400	0.478929	0.421407
C250	C	-0.089845	-0.216426	-0.216467
C251	C	0.243488	0.116908	0.116867
C252	C	0.576821	0.450241	0.450200
C253	C	0.412207	-0.187737	-0.245221
C254	C	0.745541	0.145596	0.088112
C255	C	1.078874	0.478930	0.421445
C256	C	0.459127	-0.187742	-0.245218
C257	C	0.792460	0.145591	0.088115
C258	C	1.125794	0.478925	0.421448
C259	C	0.459050	-0.245121	-0.187642
C260	C	0.792383	0.088212	0.145691
C261	C	1.125717	0.421546	0.479024
C262	C	0.412134	-0.245118	-0.187647
C263	C	0.745468	0.088215	0.145687
C264	C	1.078801	0.421549	0.479020
C265	C	0.388714	-0.216422	-0.216438
C266	C	0.722048	0.116911	0.116896
C267	C	1.055381	0.450245	0.450229
O268	O	0.337880	-0.269506	-0.163195
O269	O	0.671213	0.063828	0.170138
O270	O	1.004546	0.397161	0.503472
O271	O	0.337980	-0.163329	-0.269702
O272	O	0.671313	0.170005	0.063632
O273	O	1.004647	0.503338	0.396965
C274	C	0.126017	-0.187730	-0.245236
C275	C	0.459351	0.145603	0.088097
C276	C	0.792684	0.478937	0.421430
C277	C	0.102524	-0.216417	-0.216450
C278	C	0.435858	0.116916	0.116883
C279	C	0.769191	0.450249	0.450217
C280	C	0.125947	-0.245106	-0.187662
C281	C	0.459280	0.088227	0.145671
C282	C	0.792613	0.421561	0.479005
C283	C	0.055606	-0.216419	-0.216454
C284	C	0.388940	0.116914	0.116879
C285	C	0.722273	0.450247	0.450212
C286	C	0.032184	-0.187731	-0.245242
C287	C	0.365517	0.145602	0.088091
C288	C	0.698851	0.478936	0.421424
C289	C	0.055679	-0.159040	-0.274026
C290	C	0.389013	0.174293	0.059307
C291	C	0.722346	0.507626	0.392640
C292	C	0.102595	-0.159042	-0.274025
C293	C	0.435928	0.174292	0.059309
C294	C	0.769262	0.507625	0.392642
C295	C	0.102451	-0.273796	-0.158878
C296	C	0.435785	0.059537	0.174455
C297	C	0.769118	0.392870	0.507789
C298	C	0.055536	-0.273793	-0.158883
C299	C	0.388869	0.059540	0.174451
C300	C	0.722202	0.392873	0.507784
C301	C	0.032113	-0.245105	-0.187671
C302	C	0.365447	0.088229	0.145663
C303	C	0.698780	0.421562	0.478996
C304	C	0.766385	-0.216428	-0.216467
C305	C	1.099718	0.116905	0.116867
C306	C	1.433051	0.450238	0.450200
C307	C	0.816319	-0.216430	-0.216475
C308	C	1.149652	0.116903	0.116858
C309	C	1.482986	0.450237	0.450192
C310	C	0.649247	-0.216412	-0.333625
C311	C	0.982580	0.116922	-0.000292
C312	C	1.315913	0.450255	0.333041
C313	C	0.649264	-0.216406	-0.383560
C314	C	0.982597	0.116927	-0.050227
C315	C	1.315931	0.450260	0.283107
C316	C	0.649287	-0.099246	-0.216495
C317	C	0.982621	0.234087	0.116838
C318	C	1.315954	0.567420	0.450172
C319	C	0.649322	-0.049312	-0.216515
C320	C	0.982655	0.284022	0.116818
C321	C	1.315989	0.617355	0.450151
C322	C	0.677971	-0.245081	-0.740143
C323	C	1.011305	0.088252	-0.406810
C324	C	1.344638	0.421586	-0.073477
C325	C	0.677972	-0.245112	-0.552470
C326	C	1.011306	0.088221	-0.219137
C327	C	1.344639	0.421555	0.114197
O328	O	0.702376	-0.269563	-0.528202
O329	O	1.035709	0.063770	-0.194869
O330	O	1.369043	0.397104	0.138464
N331	N	0.649262	-0.216385	-0.529005
N332	N	0.982595	0.116949	-0.195672
N333	N	1.315928	0.450282	0.137662
C334	C	0.620547	-0.187649	-0.552461
C335	C	0.953880	0.145684	-0.219128
C336	C	1.287214	0.479017	0.114205
O337	O	0.596124	-0.163219	-0.528197
O338	O	0.929457	0.170115	-0.194863
O339	O	1.262791	0.503448	0.138470
C340	C	0.620544	-0.187621	-0.740134
C341	C	0.953878	0.145713	-0.406800
C342	C	1.287211	0.479046	-0.073467
C343	C	0.649260	-0.216347	-0.763596
C344	C	0.982593	0.116987	-0.430263
C345	C	1.315927	0.450320	-0.096929
C346	C	0.706684	-0.273805	-0.763606
C347	C	1.040018	0.059528	-0.430273
C348	C	1.373351	0.392862	-0.096939
C349	C	0.706685	-0.273795	-0.810521
C350	C	1.040019	0.059538	-0.477188
C351	C	1.373352	0.392871	-0.143855
C352	C	0.677974	-0.245061	-0.833974
C353	C	1.011307	0.088272	-0.500641
C354	C	1.344641	0.421605	-0.167308
C355	C	0.649261	-0.216337	-0.810512
C356	C	0.982594	0.116996	-0.477178
C357	C	1.315928	0.450330	-0.143845
C358	C	0.591828	-0.158888	-0.763589
C359	C	0.925161	0.174445	-0.430255
C360	C	1.258494	0.507779	-0.096922
C361	C	0.591829	-0.158884	-0.810510
C362	C	0.925162	0.174449	-0.477176
C363	C	1.258495	0.507783	-0.143843
C364	C	0.620544	-0.187610	-0.833972
C365	C	0.953878	0.145723	-0.500639
C366	C	1.287211	0.479056	-0.167306
C367	C	0.620551	-0.187593	-0.880880
C368	C	0.953884	0.145740	-0.547547
C369	C	1.287217	0.479074	-0.214213
N370	N	0.649261	-0.216321	-0.904345
N371	N	0.982595	0.117013	-0.571012
N372	N	1.315928	0.450346	-0.237678
C373	C	0.677973	-0.245055	-0.880892
C374	C	1.011306	0.088279	-0.547559
C375	C	1.344639	0.421612	-0.214225
C376	C	0.620551	-0.187666	-0.453931
C377	C	0.953884	0.145668	-0.120597
C378	C	1.287218	0.479001	0.212736
C379	C	0.620552	-0.187672	-0.407013
C380	C	0.953886	0.145661	-0.073679
C381	C	1.287219	0.478994	0.259654
C382	C	0.677977	-0.245136	-0.407025
C383	C	1.011310	0.088198	-0.073692
C384	C	1.344644	0.421531	0.259642
C385	C	0.677978	-0.245127	-0.453944
C386	C	1.011311	0.088207	-0.120610
C387	C	1.344644	0.421540	0.212723
C388	C	0.649262	-0.216393	-0.477396
C389	C	0.982595	0.116940	-0.144062
C390	C	1.315928	0.450273	0.189271
C391	C	0.677974	-0.245032	-0.979418
C392	C	1.011307	0.088302	-0.646085
C393	C	1.344640	0.421635	-0.312751
C394	C	0.677974	-0.245018	-1.026338
C395	C	1.011307	0.088315	-0.693004
C396	C	1.344640	0.421649	-0.359671
C397	C	0.620547	-0.187556	-1.026321
C398	C	0.953881	0.145777	-0.692988
C399	C	1.287214	0.479110	-0.359655
C400	C	0.620549	-0.187568	-0.979406
C401	C	0.953882	0.145765	-0.646072
C402	C	1.287216	0.479099	-0.312739
C403	C	0.649263	-0.216309	-0.955955
C404	C	0.982597	0.117024	-0.622622
C405	C	1.315930	0.450357	-0.289289
O406	O	0.596156	-0.163159	-0.905177
O407	O	0.929490	0.170175	-0.571843
O408	O	1.262823	0.503508	-0.238510
O409	O	0.702385	-0.269489	-0.905165
O410	O	1.035719	0.063845	-0.571832
O411	O	1.369052	0.397178	-0.238498
C412	C	0.677970	-0.245091	-0.693228
C413	C	1.011304	0.088243	-0.359894
C414	C	1.344637	0.421576	-0.026561
C415	C	0.649257	-0.216366	-0.669765
C416	C	0.982591	0.116967	-0.336432
C417	C	1.315924	0.450300	-0.003098
C418	C	0.620546	-0.187632	-0.693218
C419	C	0.953879	0.145701	-0.359885
C420	C	1.287212	0.479034	-0.026551
C421	C	0.649259	-0.216373	-0.622847
C422	C	0.982592	0.116960	-0.289514
C423	C	1.315925	0.450294	0.043819
C424	C	0.677970	-0.245107	-0.599394
C425	C	1.011303	0.088226	-0.266061
C426	C	1.344637	0.421560	0.067272
C427	C	0.706680	-0.273835	-0.622860
C428	C	1.040014	0.059499	-0.289526
C429	C	1.373347	0.392832	0.043807
C430	C	0.706682	-0.273825	-0.669775
C431	C	1.040015	0.059509	-0.336442
C432	C	1.373348	0.392842	-0.003108
C433	C	0.591835	-0.158905	-0.669753
C434	C	0.925169	0.174428	-0.336420
C435	C	1.258502	0.507762	-0.003086
C436	C	0.591837	-0.158917	-0.622837
C437	C	0.925170	0.174417	-0.289504
C438	C	1.258504	0.507750	0.043829
C439	C	0.620548	-0.187651	-0.599385
C440	C	0.953882	0.145683	-0.266051
C441	C	1.287215	0.479016	0.067282
C442	C	0.649192	-0.216405	-0.099725
C443	C	0.982525	0.116928	0.233609
C444	C	1.315859	0.450262	0.566942
C445	C	0.649262	-0.216284	-0.049790
C446	C	0.982595	0.117050	0.283543
C447	C	1.315929	0.450383	0.616876
H448	H	0.701257	-0.387359	-0.268586
H449	H	1.034590	-0.054025	0.064748
H450	H	1.367924	0.279308	0.398081
H451	H	0.478253	-0.164379	-0.268663
H452	H	0.811586	0.168954	0.064670
H453	H	1.144920	0.502287	0.398003
C454	C	0.589016	-1.051750	-0.156121
C455	C	0.922350	-0.718417	0.177212
C456	C	1.255683	-0.385084	0.510545
H457	H	0.593137	-1.083047	-0.160239
H458	H	0.926470	-0.749714	0.173094
H459	H	1.259803	-0.416380	0.506428
H460	H	0.558828	-1.044082	-0.162667
H461	H	0.892161	-0.710749	0.170666
H462	H	1.225494	-0.377416	0.504000
H463	H	0.595605	-1.044073	-0.125940
H464	H	0.928939	-0.710740	0.207393
H465	H	1.262272	-0.377407	0.540727
H466	H	0.597192	-0.959923	-0.164326
H467	H	0.930525	-0.626590	0.169007
H468	H	1.263859	-0.293257	0.502341
C469	C	0.709561	-0.276617	-1.052146
C470	C	1.042894	0.056716	-0.718813
C471	C	1.376227	0.390049	-0.385479
H472	H	0.705454	-0.272495	-1.083448
H473	H	1.038788	0.060838	-0.750115
H474	H	1.372121	0.394171	-0.416781
H475	H	0.702967	-0.306804	-1.044444
H476	H	1.036300	0.026530	-0.711110
H477	H	1.369633	0.359863	-0.377777
H478	H	0.739751	-0.270040	-1.044472
H479	H	1.073084	0.063293	-0.711139
H480	H	1.406417	0.396627	-0.377805
H481	H	0.121719	-0.135680	-0.297467
H482	H	0.455052	0.197654	0.035866
H483	H	0.788385	0.530987	0.369199
H484	H	0.262276	-0.297152	-0.135415
H485	H	0.595609	0.036181	0.197919
H486	H	0.928942	0.369514	0.531252
H487	H	0.730059	-0.743882	-0.297412
H488	H	1.063393	-0.410549	0.035921
H489	H	1.396726	-0.077216	0.369254
H490	H	0.701273	-0.472468	-0.268612
H491	H	1.034606	-0.139135	0.064721
H492	H	1.367939	0.194199	0.398054
C493	C	0.029909	-0.127483	-0.305691
C494	C	0.363242	0.205851	0.027642
C495	C	0.696575	0.539184	0.360975
H496	H	-0.001398	-0.131592	-0.301564
H497	H	0.331936	0.201741	0.031770
H498	H	0.665269	0.535075	0.365103
H499	H	0.037607	-0.134097	-0.335864
H500	H	0.370940	0.199236	-0.002531
H501	H	0.704273	0.532570	0.330802
H502	H	0.037612	-0.097286	-0.299171
H503	H	0.370946	0.236047	0.034163
H504	H	0.704279	0.569380	0.367496
C505	C	0.560242	-0.127275	-0.836304
C506	C	0.893575	0.206059	-0.502971
C507	C	1.226909	0.539392	-0.169638
H508	H	0.543145	-0.110167	-0.815608
H509	H	0.876478	0.223166	-0.482275
H510	H	1.209812	0.556500	-0.148942
H511	H	0.540657	-0.144455	-0.854593
H512	H	0.873990	0.188878	-0.521259
H513	H	1.207323	0.522212	-0.187926
H514	H	0.577442	-0.107693	-0.854620
H515	H	0.910776	0.225640	-0.521287
H516	H	1.244109	0.558974	-0.187954
C517	C	0.588967	-0.155951	-1.052125
C518	C	0.922300	0.177382	-0.718792
C519	C	1.255634	0.510715	-0.385459
H520	H	0.593079	-0.160066	-1.083428
H521	H	0.926413	0.173267	-0.750094
H522	H	1.259746	0.506601	-0.416761
H523	H	0.595557	-0.125766	-1.044453
H524	H	0.928891	0.207567	-0.711119
H525	H	1.262224	0.540900	-0.377786
H526	H	0.558776	-0.162533	-1.044421
H527	H	0.892109	0.170801	-0.711087
H528	H	1.225443	0.504134	-0.377754
H529	H	0.730065	-0.297206	-0.744516
H530	H	1.063399	0.036127	-0.411182
H531	H	1.396732	0.369461	-0.077849
H532	H	0.393005	-0.268484	-0.164210
H533	H	0.726339	0.064849	0.169124
H534	H	1.059672	0.398183	0.502457
H535	H	0.568396	-0.688493	-0.135533
H536	H	0.901729	-0.355160	0.197800
H537	H	1.235062	-0.021826	0.531134
H538	H	0.730065	-0.297217	-0.688874
H539	H	1.063398	0.036117	-0.355541
H540	H	1.396731	0.369450	-0.022207
C541	C	0.128210	-0.305358	-0.127212
C542	C	0.461543	0.027975	0.206121
C543	C	0.794876	0.361309	0.539455
H544	H	0.107494	-0.322445	-0.110074
H545	H	0.440827	0.010888	0.223259
H546	H	0.774160	0.344222	0.556592
H547	H	0.146515	-0.288150	-0.107668
H548	H	0.479848	0.045183	0.225666
H549	H	0.813182	0.378516	0.558999
H550	H	0.146506	-0.324961	-0.144362
H551	H	0.479839	0.008373	0.188972
H552	H	0.813173	0.341706	0.522305
H553	H	0.478129	-0.268479	-0.164205
H554	H	0.811462	0.064854	0.169129
H555	H	1.144796	0.398187	0.502462
C556	C	0.560167	-0.596694	-0.127307
C557	C	0.893500	-0.263360	0.206026
C558	C	1.226834	0.069973	0.539360
H559	H	0.543072	-0.617414	-0.110182
H560	H	0.876405	-0.284081	0.223151
H561	H	1.209739	0.049253	0.556484
H562	H	0.540581	-0.578396	-0.144469
H563	H	0.873914	-0.245063	0.188864
H564	H	1.207247	0.088270	0.522197
H565	H	0.577358	-0.578390	-0.107742
H566	H	0.910692	-0.245057	0.225591
H567	H	1.244025	0.088276	0.558924
H568	H	0.597172	-0.164171	-0.960302
H569	H	0.930506	0.169163	-0.626968
H570	H	1.263839	0.502496	-0.293635
H571	H	0.036412	-0.297160	-0.135440
H572	H	0.369745	0.036174	0.197893
H573	H	0.703078	0.369507	0.531227
C574	C	0.709560	-0.276645	-0.953629
C575	C	1.042894	0.056689	-0.620296
C576	C	1.376227	0.390022	-0.286962
H577	H	0.726661	-0.293745	-0.974327
H578	H	1.059995	0.039588	-0.640994
H579	H	1.393328	0.372921	-0.307661
H580	H	0.692366	-0.296226	-0.935311
H581	H	1.025699	0.037108	-0.601978
H582	H	1.359033	0.370441	-0.268644
H583	H	0.729149	-0.259461	-0.935343
H584	H	1.062482	0.073873	-0.602010
H585	H	1.395816	0.407206	-0.268676
C586	C	0.560216	-0.737453	-0.127320
C587	C	0.893550	-0.404120	0.206013
C588	C	1.226883	-0.070786	0.539346
H589	H	0.543124	-0.758175	-0.110195
H590	H	0.876458	-0.424842	0.223138
H591	H	1.209791	-0.091509	0.556472
H592	H	0.540626	-0.719154	-0.144477
H593	H	0.873960	-0.385821	0.188856
H594	H	1.207293	-0.052487	0.522190
H595	H	0.577411	-0.719152	-0.107757
H596	H	0.910744	-0.385818	0.225576
H597	H	1.244078	-0.052485	0.558910
H598	H	0.730025	-0.603135	-0.297387
H599	H	1.063359	-0.269802	0.035946
H600	H	1.396692	0.063531	0.369280
H601	H	0.730045	-0.688242	-0.297404
H602	H	1.063378	-0.354908	0.035930
H603	H	1.396712	-0.021575	0.369263
C604	C	0.738266	-0.305401	-0.836324
C605	C	1.071599	0.027932	-0.502991
C606	C	1.404932	0.361265	-0.169658
H607	H	0.755359	-0.322517	-0.815632
H608	H	1.088692	0.010816	-0.482298
H609	H	1.422025	0.344149	-0.148965
H610	H	0.757855	-0.288221	-0.854646
H611	H	1.091189	0.045112	-0.521313
H612	H	1.424522	0.378446	-0.187979
H613	H	0.721062	-0.324975	-0.854608
H614	H	1.054395	0.008358	-0.521274
H615	H	1.387729	0.341691	-0.187941
H616	H	0.701360	-0.268518	-0.473044
H617	H	1.034694	0.064815	-0.139710
H618	H	1.368027	0.398148	0.193623
C619	C	0.386452	-0.156177	-0.276895
C620	C	0.719785	0.177157	0.056438
C621	C	1.053118	0.510490	0.389772
H622	H	0.407168	-0.139097	-0.294040
H623	H	0.740502	0.194236	0.039293
H624	H	1.073835	0.527569	0.372627
H625	H	0.368151	-0.136573	-0.259756
H626	H	0.701484	0.196760	0.073578
H627	H	1.034817	0.530093	0.406911
H628	H	0.368151	-0.173394	-0.296439
H629	H	0.701485	0.159939	0.036894
H630	H	1.034818	0.493272	0.370228
C631	C	0.709555	-0.276746	-0.381221
C632	C	1.042889	0.056587	-0.047888
C633	C	1.376222	0.389920	0.285446
H634	H	0.705438	-0.272636	-0.349919
H635	H	1.038771	0.060697	-0.016586
H636	H	1.372104	0.394030	0.316748
H637	H	0.739747	-0.270178	-0.388924
H638	H	1.073080	0.063156	-0.055591
H639	H	1.406414	0.396489	0.277742
H640	H	0.702952	-0.306931	-0.388895
H641	H	1.036286	0.026402	-0.055561
H642	H	1.369619	0.359736	0.277772
C643	C	0.709601	-0.953038	-0.276904
C644	C	1.042934	-0.619705	0.056430
C645	C	1.376268	-0.286371	0.389763
H646	H	0.726704	-0.973705	-0.294036
H647	H	1.060038	-0.640372	0.039298
H648	H	1.393371	-0.307038	0.372631
H649	H	0.729181	-0.934724	-0.259743
H650	H	1.062514	-0.601390	0.073590
H651	H	1.395847	-0.268057	0.406924
H652	H	0.692394	-0.934744	-0.296461
H653	H	1.025728	-0.601411	0.036872
H654	H	1.359061	-0.268077	0.370205
C655	C	0.588967	-0.156071	-0.381209
C656	C	0.922301	0.177262	-0.047876
C657	C	1.255634	0.510595	0.285458
H658	H	0.571866	-0.138963	-0.401900
H659	H	0.905199	0.194371	-0.068567
H660	H	1.238532	0.527704	0.264766
H661	H	0.606161	-0.136497	-0.362921
H662	H	0.939495	0.196836	-0.029588
H663	H	1.272828	0.530169	0.303746
H664	H	0.569379	-0.173263	-0.362892
H665	H	0.902713	0.160070	-0.029559
H666	H	1.236046	0.493403	0.303775
C667	C	0.709627	-1.051565	-0.276913
C668	C	1.042960	-0.718232	0.056420
C669	C	1.376293	-0.384898	0.389754
H670	H	0.705517	-1.082873	-0.272798
H671	H	1.038850	-0.749540	0.060536
H672	H	1.372184	-0.416206	0.393869
H673	H	0.739815	-1.043855	-0.270373
H674	H	1.073148	-0.710522	0.062960
H675	H	1.406481	-0.377189	0.396294
H676	H	0.703029	-1.043864	-0.307092
H677	H	1.036362	-0.710531	0.026241
H678	H	1.369696	-0.377198	0.359575
C679	C	0.588965	-0.156053	-0.479722
C680	C	0.922299	0.177281	-0.146389
C681	C	1.255632	0.510614	0.186945
H682	H	0.571873	-0.138944	-0.459024
H683	H	0.905206	0.194390	-0.125690
H684	H	1.238539	0.527723	0.207643
H685	H	0.569376	-0.173230	-0.498009
H686	H	0.902709	0.160103	-0.164676
H687	H	1.236042	0.493437	0.168658
H688	H	0.606166	-0.136473	-0.498039
H689	H	0.939500	0.196861	-0.164706
H690	H	1.272833	0.530194	0.168628
C691	C	0.269178	-0.127481	-0.305681
C692	C	0.602511	0.205852	0.027652
C693	C	0.935844	0.539186	0.360985
H694	H	0.248503	-0.110394	-0.322821
H695	H	0.581836	0.222940	0.010513
H696	H	0.915170	0.556273	0.343846
H697	H	0.287483	-0.144687	-0.325225
H698	H	0.620816	0.188646	0.008109
H699	H	0.954150	0.521979	0.341442
H700	H	0.287480	-0.107879	-0.288529
H701	H	0.620813	0.225455	0.044805
H702	H	0.954146	0.558788	0.378138
C703	C	0.560239	-0.127289	-0.737790
C704	C	0.893572	0.206044	-0.404457
C705	C	1.226906	0.539377	-0.071123
H706	H	0.543139	-0.110182	-0.758484
H707	H	0.876472	0.223151	-0.425150
H708	H	1.209805	0.556484	-0.091817
H709	H	0.577432	-0.107714	-0.719502
H710	H	0.910765	0.225619	-0.386169
H711	H	1.244098	0.558953	-0.052836
H712	H	0.540650	-0.144480	-0.719473
H713	H	0.873983	0.188853	-0.386140
H714	H	1.207317	0.522186	-0.052807
H715	H	0.730060	-0.297229	-0.603756
H716	H	1.063393	0.036104	-0.270423
H717	H	1.396727	0.369437	0.062911
C718	C	0.170668	-0.127487	-0.305694
C719	C	0.504002	0.205847	0.027640
C720	C	0.837335	0.539180	0.360973
H721	H	0.191386	-0.110407	-0.322837
H722	H	0.524719	0.222927	0.010497
H723	H	0.858052	0.556260	0.343830
H724	H	0.152365	-0.107884	-0.288555
H725	H	0.485699	0.225449	0.044778
H726	H	0.819032	0.558782	0.378111
H727	H	0.152370	-0.144705	-0.325239
H728	H	0.485703	0.188629	0.008094
H729	H	0.819037	0.521962	0.341427
H730	H	0.597071	-0.472644	-0.164244
H731	H	0.930404	-0.139311	0.169089
H732	H	1.263738	0.194022	0.502423
C733	C	0.588841	-0.380832	-0.156018
C734	C	0.922175	-0.047499	0.177315
C735	C	1.255508	0.285835	0.510649
H736	H	0.592946	-0.349524	-0.160137
H737	H	0.926279	-0.016191	0.173196
H738	H	1.259613	0.317143	0.506529
H739	H	0.595427	-0.388532	-0.125839
H740	H	0.928760	-0.055199	0.207495
H741	H	1.262093	0.278135	0.540828
H742	H	0.558654	-0.388543	-0.162571
H743	H	0.891987	-0.055210	0.170763
H744	H	1.225321	0.278124	0.504096
C745	C	0.560246	-0.127317	-0.597034
C746	C	0.893580	0.206016	-0.263700
C747	C	1.226913	0.539350	0.069633
H748	H	0.543145	-0.110208	-0.617725
H749	H	0.876478	0.223126	-0.284392
H750	H	1.209812	0.556459	0.048942
H751	H	0.577437	-0.107743	-0.578743
H752	H	0.910771	0.225590	-0.245409
H753	H	1.244104	0.558924	0.087924
H754	H	0.540658	-0.144512	-0.578720
H755	H	0.873991	0.188822	-0.245386
H756	H	1.207325	0.522155	0.087947
H757	H	0.568441	-0.829248	-0.135554
H758	H	0.901774	-0.495915	0.197779
H759	H	1.235108	-0.162581	0.531112
C760	C	0.738281	-0.835690	-0.305644
C761	C	1.071614	-0.502357	0.027689
C762	C	1.404948	-0.169023	0.361023
H763	H	0.734170	-0.866998	-0.301530
H764	H	1.067503	-0.533665	0.031803
H765	H	1.400836	-0.200331	0.365137
H766	H	0.768469	-0.827982	-0.299101
H767	H	1.101802	-0.494649	0.034232
H768	H	1.435135	-0.161315	0.367565
H769	H	0.731686	-0.827988	-0.335823
H770	H	1.065019	-0.494655	-0.002490
H771	H	1.398352	-0.161322	0.330843
C772	C	-0.087429	-0.156177	-0.276924
C773	C	0.245905	0.177156	0.056410
C774	C	0.579238	0.510489	0.389743
H775	H	-0.108102	-0.139092	-0.294066
H776	H	0.225231	0.194242	0.039267
H777	H	0.558565	0.527575	0.372600
H778	H	-0.069123	-0.173387	-0.296464
H779	H	0.264210	0.159946	0.036870
H780	H	0.597543	0.493280	0.370203
H781	H	-0.069127	-0.136573	-0.259773
H782	H	0.264207	0.196760	0.073560
H783	H	0.597540	0.530093	0.406894
C784	C	-0.185956	-0.156178	-0.276925
C785	C	0.147378	0.177155	0.056408
C786	C	0.480711	0.510488	0.389741
H787	H	-0.217262	-0.160289	-0.272800
H788	H	0.116071	0.173045	0.060534
H789	H	0.449404	0.506378	0.393867
H790	H	-0.178256	-0.162790	-0.307099
H791	H	0.155077	0.170543	0.026234
H792	H	0.488410	0.503876	0.359568
H793	H	-0.178253	-0.125983	-0.270402
H794	H	0.155080	0.207351	0.062931
H795	H	0.488413	0.540684	0.396264
H796	H	0.568454	-0.135506	-0.688843
H797	H	0.901787	0.197827	-0.355510
H798	H	1.235120	0.531160	-0.022177
H799	H	-0.094275	-0.268479	-0.164235
H800	H	0.239058	0.064854	0.169098
H801	H	0.572392	0.398188	0.502432
C802	C	-0.186098	-0.276681	-0.156026
C803	C	0.147235	0.056652	0.177308
C804	C	0.480569	0.389985	0.510641
H805	H	-0.217396	-0.272580	-0.160151
H806	H	0.115937	0.060754	0.173182
H807	H	0.449271	0.394087	0.506516
H808	H	-0.178421	-0.270064	-0.125853
H809	H	0.154912	0.063269	0.207480
H810	H	0.488245	0.396602	0.540814
H811	H	-0.178421	-0.306876	-0.162546
H812	H	0.154912	0.026457	0.170787
H813	H	0.488246	0.359791	0.504121
H814	H	0.177167	-0.297158	-0.135421
H815	H	0.510500	0.036176	0.197913
H816	H	0.843834	0.369509	0.531246
