data_functionalizedCrystal
_audit_creation_method	'MofGen! by Chris Wilmer'
_symmetry_space_group_name_H-M	'P1'
_symmetry_Int_Tables_number	1
_symmetry_cell_setting	triclinic
loop_
_symmetry_equiv_pos_as_xyz
  x,y,z
_cell_length_a	21.295417
_cell_length_b	18.215407
_cell_length_c	21.295420
_cell_angle_alpha	90.006529
_cell_angle_beta	90.018953
_cell_angle_gamma	90.030955
loop_
_atom_site_label
_atom_site_type_symbol
_atom_site_fract_x
_atom_site_fract_y
_atom_site_fract_z
Zn1	Zn	-0.250690	1.124947	0.355913
Zn2	Zn	-0.355937	1.124871	0.250639
Zn3	Zn	-0.250687	1.001908	0.250658
Zn4	Zn	-0.355926	1.001833	0.355870
O5	O	-0.303310	1.063390	0.303270
O6	O	-0.264657	1.227921	0.341958
O7	O	-0.341978	1.108560	0.162552
O8	O	-0.162598	1.018292	0.264647
O9	O	-0.341982	1.227866	0.264614
O10	O	-0.162600	1.108688	0.341977
O11	O	-0.264651	1.018219	0.162566
O12	O	-0.264641	0.898914	0.264605
O13	O	-0.341964	1.018164	0.443965
O14	O	-0.341960	0.898859	0.341904
O15	O	-0.264647	1.108615	0.443997
O16	O	-0.444025	1.108487	0.264572
O17	O	-0.444017	1.018092	0.341885
C18	C	-0.303299	0.872183	0.303252
C19	C	-0.303310	0.790384	0.303259
C20	C	-0.343633	0.602181	0.343458
C21	C	-0.343635	0.525322	0.343466
C22	C	-0.262998	0.525350	0.263096
C23	C	-0.262994	0.602207	0.263092
C24	C	-0.303315	0.640621	0.303272
C25	C	-0.303321	0.486905	0.303284
C26	C	-0.303323	0.403571	0.303292
C27	C	-0.303312	0.723960	0.303265
C28	C	-0.466862	1.063293	0.303235
C29	C	-0.536830	1.063319	0.303241
C30	C	-0.569680	1.110430	0.263026
C31	C	-0.635422	1.110465	0.263040
C32	C	-0.668312	1.063375	0.303263
C33	C	-0.635454	1.016261	0.343487
C34	C	-0.569713	1.016233	0.343476
N35	N	-0.771580	0.998995	0.308056
N36	N	-0.834031	0.999024	0.308063
C37	C	-0.866387	1.063458	0.303299
N38	N	-0.833932	1.127863	0.298517
N39	N	-0.771475	1.127834	0.298507
C40	C	-0.739598	1.063400	0.303280
C41	C	-0.970522	1.110610	0.263097
C42	C	-1.036266	1.110646	0.263115
C43	C	-1.036297	1.016435	0.343559
C44	C	-0.970555	1.016406	0.343543
C45	C	-0.937671	1.063492	0.303309
C46	C	-0.139120	1.063507	0.303319
C47	C	-0.069152	1.063556	0.303340
C48	C	-0.303304	1.063390	0.467460
C49	C	-0.303302	1.063390	0.537428
C50	C	-0.303321	1.255343	0.303289
C51	C	-0.303326	1.337141	0.303296
C52	C	-0.263050	1.110455	1.036904
C53	C	-0.263052	1.110463	0.971161
C54	C	-0.303305	1.063372	0.938268
C55	C	-0.343571	1.016282	0.971122
C56	C	-0.343573	1.016281	1.036864
N57	N	-0.308127	0.998951	0.835039
N58	N	-0.308121	0.998954	0.772588
C59	C	-0.303302	1.063374	0.740193
N60	N	-0.298476	1.127791	0.772609
N61	N	-0.298478	1.127787	0.835067
C62	C	-0.303307	1.063368	0.866983
C63	C	-0.263042	1.110472	0.636061
C64	C	-0.263048	1.110481	0.570317
C65	C	-0.343564	1.016294	0.570280
C66	C	-0.343562	1.016291	0.636022
C67	C	-0.303297	1.063379	0.668909
C68	C	-0.303324	1.063380	1.139719
C69	C	-0.303309	1.063369	1.069750
H70	H	-0.542908	1.148772	0.230266
H71	H	-1.063011	1.149014	0.230368
F72	F	-0.386412	0.966166	0.936114
F73	F	-0.220075	0.643120	0.220321
H74	H	-0.376464	0.633455	0.376177
F75	F	-0.386547	0.484415	0.386239
H76	H	-1.063076	0.978097	0.376312
F77	F	-0.670391	1.160608	0.220235
F78	F	-0.670459	0.966148	0.386297
H79	H	-0.230171	0.494064	0.230381
H80	H	-0.943748	1.148953	0.230337
F81	F	-0.534751	0.966089	0.386281
H82	H	-0.943806	0.978041	0.376288
H83	H	-0.230266	1.148829	0.543575
F84	F	-0.220217	1.160594	1.071901
H85	H	-0.230266	1.148806	0.944413
F86	F	-0.386409	0.966174	0.670981
F87	F	-0.386424	0.966164	1.071822
H88	H	-0.230257	1.148814	0.662839
F89	F	-0.386410	0.966182	0.535276
