data_functionalizedCrystal
_audit_creation_method	'MofGen! by Chris Wilmer'
_symmetry_space_group_name_H-M	'P1'
_symmetry_Int_Tables_number	1
_symmetry_cell_setting	triclinic
loop_
_symmetry_equiv_pos_as_xyz
  x,y,z
_cell_length_a	10.489716
_cell_length_b	10.489741
_cell_length_c	14.048226
_cell_angle_alpha	89.993872
_cell_angle_beta	89.993931
_cell_angle_gamma	84.534155
loop_
_atom_site_label
_atom_site_type_symbol
_atom_site_fract_x
_atom_site_fract_y
_atom_site_fract_z
O1	O	1.694075	0.179822	-0.079152
O2	O	2.194075	0.679822	0.420848
O3	O	1.322876	0.196747	-0.079156
O4	O	1.822876	0.696747	0.420844
O5	O	1.516922	0.002686	-0.079148
O6	O	2.016922	0.502686	0.420852
O7	O	1.500029	0.373883	-0.079160
O8	O	2.000029	0.873883	0.420840
O9	O	1.516898	0.002674	0.079173
O10	O	2.016898	0.502674	0.579173
O11	O	1.322852	0.196735	0.079165
O12	O	1.822852	0.696735	0.579165
O13	O	1.694052	0.179810	0.079169
O14	O	2.194052	0.679810	0.579169
Zn15	Zn	1.508448	0.188271	0.104304
Zn16	Zn	2.008448	0.688271	0.604304
Zn17	Zn	1.508479	0.188286	-0.104291
Zn18	Zn	2.008479	0.688286	0.395709
O19	O	1.500005	0.373871	0.079161
O20	O	2.000005	0.873871	0.579161
C21	C	1.275332	0.195470	0.000004
C22	C	1.775332	0.695470	0.500004
C23	C	1.133701	0.191665	0.000003
C24	C	1.633701	0.691665	0.500003
C25	C	1.515634	-0.044852	0.000012
C26	C	2.015634	0.455148	0.500012
C27	C	1.511817	-0.186481	0.000010
C28	C	2.011817	0.313519	0.500010
C29	C	1.036027	0.310669	-0.000003
C30	C	1.536027	0.810669	0.499997
C31	C	0.958669	0.247779	0.078064
C32	C	1.458669	0.747779	0.578064
C33	C	0.958699	0.247763	-0.078028
C34	C	1.458699	0.747763	0.421972
C35	C	1.058208	0.128824	0.078134
C36	C	1.558208	0.628824	0.578134
C37	C	1.058244	0.128825	-0.078028
C38	C	1.558244	0.628825	0.421972
C39	C	0.980935	0.065848	0.000058
C40	C	1.480935	0.565848	0.500058
C41	C	1.388351	-0.254610	0.000002
C42	C	1.888351	0.245390	0.500002
C43	C	1.446663	-0.346743	0.078063
C44	C	1.946663	0.153257	0.578063
C45	C	1.446716	-0.346706	-0.078029
C46	C	1.946716	0.153294	0.421971
C47	C	1.570180	-0.276749	0.078136
C48	C	2.070180	0.223251	0.578136
C49	C	1.570216	-0.276702	-0.078027
C50	C	2.070216	0.223298	0.421973
C51	C	1.628618	-0.368808	0.000053
C52	C	2.128618	0.131192	0.500053
C53	C	1.741596	0.181087	0.000007
C54	C	2.241596	0.681087	0.500007
C55	C	1.883227	0.184892	0.000002
C56	C	2.383227	0.684892	0.500002
C57	C	1.501293	0.421409	-0.000001
C58	C	2.001293	0.921409	0.499999
C59	C	1.505110	0.563038	-0.000005
C60	C	2.005110	1.063038	0.499995
N61	N	1.508436	0.188260	0.246665
N62	N	2.008436	0.688260	0.746665
N63	N	1.508501	0.188287	-0.246652
N64	N	2.008501	0.688287	0.253348
C65	C	1.594387	0.102365	0.296486
C66	C	2.094387	0.602365	0.796486
C67	C	1.594396	0.102365	0.396144
C68	C	2.094396	0.602365	0.896144
C69	C	1.508458	0.188265	0.445978
C70	C	2.008458	0.688265	0.945978
C71	C	1.422498	0.274164	0.396150
C72	C	1.922498	0.774164	0.896150
C73	C	1.422484	0.274157	0.296494
C74	C	1.922484	0.774157	0.796494
C75	C	1.422535	0.274173	0.603864
C76	C	1.922535	0.774173	1.103864
C77	C	1.422550	0.274182	0.703527
C78	C	1.922550	0.774182	1.203527
C79	C	1.594447	0.102381	0.703514
C80	C	2.094447	0.602381	1.203514
C81	C	1.594433	0.102374	0.603858
C82	C	2.094433	0.602374	1.103858
C83	C	1.508474	0.188274	0.554037
C84	C	2.008474	0.688274	1.054037
H85	H	1.060696	0.414185	0.000067
H86	H	1.560696	0.914185	0.500067
H87	H	0.915177	0.298011	0.144059
H88	H	1.415177	0.798011	0.644059
H89	H	1.622366	-0.245926	0.144204
H90	H	2.122366	0.254074	0.644204
Br91	Br	0.940202	-0.106807	0.000136
Br92	Br	1.440202	0.393193	0.500136
Br93	Br	1.130780	0.045178	-0.188031
Br94	Br	1.630780	0.545178	0.311969
Br95	Br	1.130378	0.045132	0.188249
Br96	Br	1.630378	0.545132	0.688249
H97	H	0.915225	0.298028	-0.144018
H98	H	1.415225	0.798028	0.355982
H99	H	1.286838	-0.204950	0.000079
H100	H	1.786838	0.295050	0.500079
H101	H	1.394412	-0.377755	0.144057
H102	H	1.894412	0.122245	0.644057
Br103	Br	1.797963	-0.451204	0.000120
Br104	Br	2.297963	0.048796	0.500120
Br105	Br	1.657235	-0.224955	-0.188028
Br106	Br	2.157235	0.275045	0.311972
H107	H	1.394469	-0.377661	-0.144030
H108	H	1.894469	0.122339	0.355970
H109	H	1.664373	0.032420	0.255917
H110	H	2.164373	0.532420	0.755917
Br111	Br	1.711041	-0.014212	0.463762
Br112	Br	2.211041	0.485788	0.963762
Br113	Br	1.711109	-0.014191	0.771131
Br114	Br	2.211109	0.485809	1.271131
H115	H	1.664415	0.032434	0.563283
H116	H	2.164415	0.532434	1.063283
Br117	Br	1.305915	0.390767	0.771152
Br118	Br	1.805915	0.890767	1.271152
Br119	Br	1.305867	0.390749	0.536252
Br120	Br	1.805867	0.890749	1.036252
Br121	Br	1.305856	0.390738	0.463779
Br122	Br	1.805856	0.890738	0.963779
H123	H	1.352492	0.344099	0.255930
H124	H	1.852492	0.844099	0.755930
