data_functionalizedCrystal
_audit_creation_method	'MofGen! by Chris Wilmer'
_symmetry_space_group_name_H-M	'P1'
_symmetry_Int_Tables_number	1
_symmetry_cell_setting	triclinic
loop_
_symmetry_equiv_pos_as_xyz
  x,y,z
_cell_length_a	10.686220
_cell_length_b	16.625546
_cell_length_c	16.625539
_cell_angle_alpha	89.969603
_cell_angle_beta	94.350309
_cell_angle_gamma	94.404440
loop_
_atom_site_label
_atom_site_type_symbol
_atom_site_fract_x
_atom_site_fract_y
_atom_site_fract_z
Zn1	Zn	1.929061	-0.226312	-0.361452
Zn2	Zn	2.179061	0.023688	-0.111452
Zn3	Zn	2.429061	0.273688	0.138548
Zn4	Zn	2.679061	0.523688	0.388548
Zn5	Zn	1.928909	-0.361163	-0.226622
Zn6	Zn	2.178909	-0.111163	0.023378
Zn7	Zn	2.428909	0.138837	0.273378
Zn8	Zn	2.678909	0.388837	0.523378
Zn9	Zn	1.718048	-0.236698	-0.236964
Zn10	Zn	1.968048	0.013302	0.013036
Zn11	Zn	2.218048	0.263302	0.263036
Zn12	Zn	2.468048	0.513302	0.513036
Zn13	Zn	1.718002	-0.371466	-0.371737
Zn14	Zn	1.968002	-0.121466	-0.121737
Zn15	Zn	2.218002	0.128534	0.128263
Zn16	Zn	2.468002	0.378534	0.378263
O17	O	1.823505	-0.298910	-0.299194
O18	O	2.073505	-0.048910	-0.049194
O19	O	2.323505	0.201090	0.200806
O20	O	2.573505	0.451090	0.450806
O21	O	2.105616	-0.235542	-0.334934
O22	O	2.355616	0.014458	-0.084934
O23	O	2.605616	0.264458	0.165066
O24	O	2.855616	0.514458	0.415066
O25	O	1.900894	-0.344687	-0.115163
O26	O	2.150894	-0.094687	0.134837
O27	O	2.400894	0.155313	0.384837
O28	O	2.650894	0.405313	0.634837
O29	O	1.746122	-0.122484	-0.253501
O30	O	1.996122	0.127516	-0.003501
O31	O	2.246122	0.377516	0.246499
O32	O	2.496122	0.627516	0.496499
O33	O	2.105504	-0.334616	-0.235875
O34	O	2.355504	-0.084616	0.014125
O35	O	2.605504	0.165384	0.264125
O36	O	2.855504	0.415384	0.514125
O37	O	1.901152	-0.114854	-0.344962
O38	O	2.151152	0.135146	-0.094962
O39	O	2.401152	0.385146	0.155038
O40	O	2.651152	0.635146	0.405038
O41	O	1.745975	-0.253243	-0.122761
O42	O	1.995975	-0.003243	0.127239
O43	O	2.245975	0.246757	0.377239
O44	O	2.495975	0.496757	0.627239
O45	O	1.541467	-0.263234	-0.263474
O46	O	1.791467	-0.013234	-0.013474
O47	O	2.041467	0.236766	0.236526
O48	O	2.291467	0.486766	0.486526
O49	O	1.746043	-0.352177	-0.483203
O50	O	1.996043	-0.102177	-0.233203
O51	O	2.246043	0.147823	0.016797
O52	O	2.496043	0.397823	0.266797
O53	O	1.541433	-0.362248	-0.362492
O54	O	1.791433	-0.112248	-0.112492
O55	O	2.041433	0.137752	0.137508
O56	O	2.291433	0.387752	0.387508
O57	O	1.901107	-0.245533	-0.475647
O58	O	2.151107	0.004467	-0.225647
O59	O	2.401107	0.254467	0.024353
O60	O	2.651107	0.504467	0.274353
O61	O	1.900849	-0.475366	-0.245848
O62	O	2.150849	-0.225366	0.004152
O63	O	2.400849	0.024634	0.254152
O64	O	2.650849	0.274634	0.504152
O65	O	1.745896	-0.482936	-0.352464
O66	O	1.995896	-0.232936	-0.102464
O67	O	2.245896	0.017064	0.147536
O68	O	2.495896	0.267064	0.397536
C69	C	1.495666	-0.314986	-0.315222
C70	C	1.745666	-0.064986	-0.065222
C71	C	1.995666	0.185014	0.184778
C72	C	2.245666	0.435014	0.434778
C73	C	1.355415	-0.321883	-0.322098
C74	C	1.605415	-0.071883	-0.072098
C75	C	1.855415	0.178117	0.177902
C76	C	2.105415	0.428117	0.427902
C77	C	1.823386	-0.508407	-0.299166
C78	C	2.073386	-0.258407	-0.049166
C79	C	2.323386	-0.008407	0.200834
C80	C	2.573386	0.241593	0.450834
C81	C	1.823450	-0.598025	-0.299175
C82	C	2.073450	-0.348025	-0.049175
C83	C	2.323450	-0.098025	0.200825
C84	C	2.573450	0.151975	0.450825
C85	C	1.823670	-0.926189	-0.299248
C86	C	2.073670	-0.676189	-0.049248
C87	C	2.323670	-0.426189	0.200752
C88	C	2.573670	-0.176189	0.450752
C89	C	1.823605	-0.834884	-0.299230
C90	C	2.073605	-0.584884	-0.049230
C91	C	2.323605	-0.334884	0.200770
C92	C	2.573605	-0.084884	0.450770
C93	C	1.823559	-0.762110	-0.299211
C94	C	2.073559	-0.512110	-0.049211
C95	C	2.323559	-0.262110	0.200789
C96	C	2.573559	-0.012110	0.450789
C97	C	1.823496	-0.670799	-0.299194
C98	C	2.073496	-0.420799	-0.049194
C99	C	2.323496	-0.170799	0.200806
C100	C	2.573496	0.079201	0.450806
C101	C	2.152624	-0.282771	-0.283103
C102	C	2.402624	-0.032771	-0.033103
C103	C	2.652624	0.217229	0.216897
C104	C	2.902624	0.467229	0.466897
C105	C	2.292875	-0.275894	-0.276247
C106	C	2.542875	-0.025894	-0.026247
C107	C	2.792875	0.224106	0.223753
C108	C	3.042875	0.474106	0.473753
C109	C	1.823587	-0.298846	-0.509499
C110	C	2.073587	-0.048846	-0.259499
C111	C	2.323587	0.201154	-0.009499
C112	C	2.573587	0.451154	0.240501
C113	C	1.823622	-0.298819	-0.599118
C114	C	2.073622	-0.048819	-0.349118
C115	C	2.323622	0.201181	-0.099118
C116	C	2.573622	0.451181	0.150882
C117	C	1.823659	-0.088593	-0.299238
C118	C	2.073659	0.161407	-0.049238
C119	C	2.323659	0.411407	0.200762
C120	C	2.573659	0.661407	0.450762
C121	C	1.823725	0.001031	-0.299256
C122	C	2.073725	0.251031	-0.049256
C123	C	2.323725	0.501031	0.200744
C124	C	2.573725	0.751031	0.450744
C125	C	1.823680	-0.298725	-0.927291
C126	C	2.073680	-0.048725	-0.677291
C127	C	2.323680	0.201275	-0.427291
C128	C	2.573680	0.451275	-0.177291
C129	C	1.823660	-0.298754	-0.835984
C130	C	2.073660	-0.048754	-0.585984
C131	C	2.323660	0.201246	-0.335984
C132	C	2.573660	0.451246	-0.085984
C133	C	1.823652	-0.298773	-0.763207
C134	C	2.073652	-0.048773	-0.513207
C135	C	2.323652	0.201227	-0.263207
C136	C	2.573652	0.451227	-0.013207
C137	C	1.823631	-0.298800	-0.671894
C138	C	2.073631	-0.048800	-0.421894
C139	C	2.323631	0.201200	-0.171894
C140	C	2.573631	0.451200	0.078106
C141	C	1.823496	-0.298912	-0.089703
C142	C	2.073496	-0.048912	0.160297
C143	C	2.323496	0.201088	0.410297
C144	C	2.573496	0.451088	0.660297
C145	C	1.823705	-0.298700	-0.000072
C146	C	2.073705	-0.048700	0.249928
C147	C	2.323705	0.201300	0.499928
C148	C	2.573705	0.451300	0.749928
H149	H	1.346628	-0.231244	-0.231730
H150	H	1.596628	0.018756	0.018270
H151	H	1.846628	0.268756	0.268270
H152	H	2.096628	0.518756	0.518270
O153	O	1.291098	-0.375092	-0.375192
O154	O	1.541098	-0.125092	-0.125192
O155	O	1.791098	0.124908	0.124808
O156	O	2.041098	0.374908	0.374808
C157	C	1.160685	-0.370381	-0.370459
C158	C	1.410685	-0.120381	-0.120459
C159	C	1.660685	0.129619	0.129541
C160	C	1.910685	0.379619	0.379541
H161	H	1.142810	-0.308992	-0.345028
H162	H	1.392810	-0.058992	-0.095028
H163	H	1.642810	0.191008	0.154972
H164	H	1.892810	0.441008	0.404972
H165	H	1.110550	-0.378364	-0.433273
H166	H	1.360550	-0.128364	-0.183273
H167	H	1.610550	0.121636	0.066727
H168	H	1.860550	0.371636	0.316727
H169	H	1.123239	-0.419975	-0.329249
H170	H	1.373239	-0.169975	-0.079249
H171	H	1.623239	0.080025	0.170751
H172	H	1.873239	0.330025	0.420751
