data_functionalizedCrystal
_audit_creation_method	'MofGen! by Chris Wilmer'
_symmetry_space_group_name_H-M	'P1'
_symmetry_Int_Tables_number	1
_symmetry_cell_setting	triclinic
loop_
_symmetry_equiv_pos_as_xyz
  x,y,z
_cell_length_a	17.038272
_cell_length_b	16.109301
_cell_length_c	14.586319
_cell_angle_alpha	90.000787
_cell_angle_beta	89.995924
_cell_angle_gamma	92.713482
loop_
_atom_site_label
_atom_site_type_symbol
_atom_site_fract_x
_atom_site_fract_y
_atom_site_fract_z
O1	O	0.100495	-1.110268	-0.076183
O2	O	0.350495	-0.860268	0.173817
O3	O	0.600495	-0.610268	0.423817
O4	O	0.850495	-0.360268	0.673817
O5	O	0.113001	-0.869094	-0.076198
O6	O	0.363001	-0.619094	0.173802
O7	O	0.613001	-0.369094	0.423802
O8	O	0.863001	-0.119094	0.673802
O9	O	-0.007067	-0.988248	-0.076183
O10	O	0.242933	-0.738248	0.173817
O11	O	0.492933	-0.488248	0.423817
O12	O	0.742933	-0.238248	0.673817
O13	O	0.220564	-0.991114	-0.076198
O14	O	0.470564	-0.741114	0.173802
O15	O	0.720564	-0.491114	0.423802
O16	O	0.970564	-0.241114	0.673802
O17	O	-0.007069	-0.988239	0.076298
O18	O	0.242931	-0.738239	0.326298
O19	O	0.492931	-0.488239	0.576298
O20	O	0.742931	-0.238239	0.826298
O21	O	0.113000	-0.869085	0.076283
O22	O	0.363000	-0.619085	0.326283
O23	O	0.613000	-0.369085	0.576283
O24	O	0.863000	-0.119085	0.826283
O25	O	0.100493	-1.110259	0.076298
O26	O	0.350493	-0.860259	0.326298
O27	O	0.600493	-0.610259	0.576298
O28	O	0.850493	-0.360259	0.826298
Cu29	Cu	0.106746	-0.989671	0.090213
Cu30	Cu	0.356746	-0.739671	0.340213
Cu31	Cu	0.606746	-0.489671	0.590213
Cu32	Cu	0.856746	-0.239671	0.840213
Cu33	Cu	0.106748	-0.989682	-0.090113
Cu34	Cu	0.356748	-0.739682	0.159887
Cu35	Cu	0.606748	-0.489682	0.409887
Cu36	Cu	0.856748	-0.239682	0.659887
O37	O	0.220562	-0.991105	0.076283
O38	O	0.470562	-0.741105	0.326283
O39	O	0.720562	-0.491105	0.576283
O40	O	0.970562	-0.241105	0.826283
C41	C	0.112494	-0.838079	0.000041
C42	C	0.362494	-0.588079	0.250041
C43	C	0.612494	-0.338079	0.500041
C44	C	0.862494	-0.088079	0.750041
C45	C	0.110975	-0.745676	0.000035
C46	C	0.360975	-0.495676	0.250035
C47	C	0.610975	-0.245676	0.500035
C48	C	0.860975	0.004324	0.750035
C49	C	-0.036196	-0.985636	0.000057
C50	C	0.213804	-0.735636	0.250057
C51	C	0.463804	-0.485636	0.500057
C52	C	0.713804	-0.235636	0.750057
C53	C	-0.122989	-0.977857	0.000056
C54	C	0.127011	-0.727857	0.250056
C55	C	0.377011	-0.477857	0.500056
C56	C	0.627011	-0.227857	0.750056
C57	C	0.101001	-1.141274	0.000057
C58	C	0.351001	-0.891274	0.250057
C59	C	0.601001	-0.641274	0.500057
C60	C	0.851001	-0.391274	0.750057
C61	C	0.102519	-1.233677	0.000057
C62	C	0.352519	-0.983677	0.250057
C63	C	0.602519	-0.733677	0.500057
C64	C	0.852519	-0.483677	0.750057
C65	C	-0.173104	-1.049277	0.000062
C66	C	0.076896	-0.799277	0.250062
C67	C	0.326896	-0.549277	0.500062
C68	C	0.576896	-0.299277	0.750062
C69	C	-0.254654	-1.041963	0.000052
C70	C	-0.004654	-0.791963	0.250052
C71	C	0.245346	-0.541963	0.500052
C72	C	0.495346	-0.291963	0.750052
C73	C	-0.286089	-0.963228	0.000044
C74	C	-0.036089	-0.713228	0.250044
C75	C	0.213911	-0.463228	0.500044
C76	C	0.463911	-0.213228	0.750044
C77	C	-0.235967	-0.891802	0.000036
C78	C	0.014033	-0.641802	0.250036
C79	C	0.264033	-0.391802	0.500036
C80	C	0.514033	-0.141802	0.750036
C81	C	-0.154418	-0.899116	0.000039
C82	C	0.095582	-0.649116	0.250039
C83	C	0.345582	-0.399116	0.500039
C84	C	0.595582	-0.149116	0.750039
C85	C	-0.531846	-0.937385	0.000030
C86	C	-0.281846	-0.687385	0.250030
C87	C	-0.031846	-0.437385	0.500030
C88	C	0.218154	-0.187385	0.750030
C89	C	-0.613402	-0.930076	0.000031
C90	C	-0.363402	-0.680076	0.250031
C91	C	-0.113402	-0.430076	0.500031
C92	C	0.136598	-0.180076	0.750031
C93	C	-0.632083	-1.080238	0.000045
C94	C	-0.382083	-0.830238	0.250045
C95	C	-0.132083	-0.580238	0.500045
C96	C	0.117917	-0.330238	0.750045
C97	C	-0.550532	-1.087546	0.000053
C98	C	-0.300532	-0.837546	0.250053
C99	C	-0.050532	-0.587546	0.500053
C100	C	0.199468	-0.337546	0.750053
C101	C	-0.500418	-1.016120	0.000040
C102	C	-0.250418	-0.766120	0.250040
C103	C	-0.000418	-0.516120	0.500040
C104	C	0.249582	-0.266120	0.750040
C105	C	-0.369446	-0.955749	0.000038
C106	C	-0.119446	-0.705749	0.250038
C107	C	0.130554	-0.455749	0.500038
C108	C	0.380554	-0.205749	0.750038
C109	C	-0.417062	-1.023599	0.000040
C110	C	-0.167062	-0.773599	0.250040
C111	C	0.082938	-0.523599	0.500040
C112	C	0.332938	-0.273599	0.750040
C113	C	0.249691	-0.993717	0.000041
C114	C	0.499691	-0.743717	0.250041
C115	C	0.749691	-0.493717	0.500041
C116	C	0.999691	-0.243717	0.750041
C117	C	0.336484	-1.001496	0.000036
C118	C	0.586484	-0.751496	0.250036
C119	C	0.836484	-0.501496	0.500036
C120	C	1.086484	-0.251496	0.750036
N121	N	0.106744	-0.989670	0.217045
N122	N	0.356744	-0.739670	0.467045
N123	N	0.606744	-0.489670	0.717045
N124	N	0.856744	-0.239670	0.967045
C125	C	0.178690	-0.528212	0.000042
C126	C	0.428690	-0.278212	0.250042
C127	C	0.678690	-0.028212	0.500042
C128	C	0.928690	0.221788	0.750042
C129	C	0.177257	-0.441390	0.000048
C130	C	0.427257	-0.191390	0.250048
C131	C	0.677257	0.058610	0.500048
C132	C	0.927257	0.308610	0.750048
C133	C	0.034799	-0.451147	0.000053
C134	C	0.284799	-0.201147	0.250053
C135	C	0.534799	0.048853	0.500053
C136	C	0.784799	0.298853	0.750053
C137	C	0.036233	-0.537968	0.000054
C138	C	0.286233	-0.287968	0.250054
C139	C	0.536233	-0.037968	0.500054
C140	C	0.786233	0.212032	0.750054
C141	C	0.108181	-0.576498	0.000043
C142	C	0.358181	-0.326498	0.250043
C143	C	0.608181	-0.076498	0.500043
C144	C	0.858181	0.173502	0.750043
C145	C	0.105314	-0.402855	0.000049
C146	C	0.355314	-0.152855	0.250049
C147	C	0.605314	0.097145	0.500049
C148	C	0.855314	0.347145	0.750049
C149	C	0.103759	-0.308719	0.000055
C150	C	0.353759	-0.058719	0.250055
C151	C	0.603759	0.191281	0.500055
C152	C	0.853759	0.441281	0.750055
C153	C	0.109736	-0.670640	0.000039
C154	C	0.359736	-0.420640	0.250039
C155	C	0.609736	-0.170640	0.500039
C156	C	0.859736	0.079360	0.750039
N157	N	0.106744	-0.989689	-0.216945
N158	N	0.356744	-0.739689	0.033055
N159	N	0.606744	-0.489689	0.283055
N160	N	0.856744	-0.239689	0.533055
C161	C	0.053596	-1.042451	0.452058
C162	C	0.303596	-0.792451	0.702058
C163	C	0.553596	-0.542451	0.952058
C164	C	0.803596	-0.292451	1.202058
C165	C	0.053594	-1.042453	0.548039
C166	C	0.303594	-0.792453	0.798039
C167	C	0.553594	-0.542453	1.048039
C168	C	0.803594	-0.292453	1.298039
C169	C	0.159895	-0.936902	0.548036
C170	C	0.409895	-0.686902	0.798036
C171	C	0.659895	-0.436902	1.048036
C172	C	0.909895	-0.186902	1.298036
C173	C	0.159893	-0.936896	0.452056
C174	C	0.409893	-0.686896	0.702056
C175	C	0.659893	-0.436896	0.952056
C176	C	0.909893	-0.186896	1.202056
C177	C	0.106744	-0.989675	0.404070
C178	C	0.356744	-0.739675	0.654070
C179	C	0.606744	-0.489675	0.904070
C180	C	0.856744	-0.239675	1.154070
C181	C	0.106744	-0.989684	0.596030
C182	C	0.356744	-0.739684	0.846030
C183	C	0.606744	-0.489684	1.096030
C184	C	0.856744	-0.239684	1.346030
C185	C	0.106743	-0.989686	0.700098
C186	C	0.356743	-0.739686	0.950098
C187	C	0.606743	-0.489686	1.200098
C188	C	0.856743	-0.239686	1.450098
C189	C	0.106744	-0.989672	0.299996
C190	C	0.356744	-0.739672	0.549996
C191	C	0.606744	-0.489672	0.799996
C192	C	0.856744	-0.239672	1.049996
H193	H	-0.147517	-1.113392	0.000074
H194	H	0.102483	-0.863392	0.250074
H195	H	0.352483	-0.613392	0.500074
H196	H	0.602483	-0.363392	0.750074
H197	H	-0.638991	-0.865956	0.000039
H198	H	-0.388991	-0.615956	0.250039
H199	H	-0.138991	-0.365956	0.500039
H200	H	0.111009	-0.115956	0.750039
Cl201	Cl	-0.055644	-0.402703	0.000060
Cl202	Cl	0.194356	-0.152703	0.250060
Cl203	Cl	0.444356	0.097297	0.500060
Cl204	Cl	0.694356	0.347297	0.750060
Cl205	Cl	0.269138	-0.576647	0.000035
Cl206	Cl	0.519138	-0.326647	0.250035
Cl207	Cl	0.769138	-0.076647	0.500035
Cl208	Cl	1.019138	0.173353	0.750035
H209	H	-0.295455	-1.100122	0.000059
H210	H	-0.045455	-0.850122	0.250059
H211	H	0.204545	-0.600122	0.500059
H212	H	0.454545	-0.350122	0.750059
H213	H	0.234672	-0.402079	0.000048
H214	H	0.484672	-0.152079	0.250048
H215	H	0.734672	0.097921	0.500048
H216	H	0.984672	0.347921	0.750048
Cl217	Cl	-0.052414	-0.598674	0.000063
Cl218	Cl	0.197586	-0.348674	0.250063
Cl219	Cl	0.447586	-0.098674	0.500063
Cl220	Cl	0.697586	0.151326	0.750063
H221	H	0.010318	-1.085425	0.412989
H222	H	0.260318	-0.835425	0.662989
H223	H	0.510318	-0.585425	0.912989
H224	H	0.760318	-0.335425	1.162989
H225	H	0.010315	-1.085426	0.587108
H226	H	0.260315	-0.835426	0.837108
H227	H	0.510315	-0.585426	1.087108
H228	H	0.760315	-0.335426	1.337108
H229	H	0.203169	-0.893932	0.587116
H230	H	0.453169	-0.643932	0.837116
H231	H	0.703169	-0.393932	1.087116
H232	H	0.953169	-0.143932	1.337116
Cl233	Cl	-0.377543	-1.122577	0.000045
Cl234	Cl	-0.127543	-0.872577	0.250045
Cl235	Cl	0.122457	-0.622577	0.500045
Cl236	Cl	0.372457	-0.372577	0.750045
H237	H	-0.261567	-0.827693	0.000024
H238	H	-0.011567	-0.577693	0.250024
H239	H	0.238433	-0.327693	0.500024
H240	H	0.488433	-0.077693	0.750024
H241	H	-0.524945	-1.151661	0.000059
H242	H	-0.274945	-0.901661	0.250059
H243	H	-0.024945	-0.651661	0.500059
H244	H	0.225055	-0.401661	0.750059
Cl245	Cl	-0.695087	-1.170025	0.000058
Cl246	Cl	-0.445087	-0.920025	0.250058
Cl247	Cl	-0.195087	-0.670025	0.500058
Cl248	Cl	0.054913	-0.420025	0.750058
Cl249	Cl	-0.468856	-0.847591	0.000012
Cl250	Cl	-0.218856	-0.597591	0.250012
Cl251	Cl	0.031144	-0.347591	0.500012
Cl252	Cl	0.281144	-0.097591	0.750012
Cl253	Cl	0.226709	-0.870541	0.391722
Cl254	Cl	0.476709	-0.620541	0.641722
Cl255	Cl	0.726709	-0.370541	0.891722
Cl256	Cl	0.976709	-0.120541	1.141722
H257	H	-0.113615	-0.840958	0.000035
H258	H	0.136385	-0.590958	0.250035
H259	H	0.386385	-0.340958	0.500035
H260	H	0.636385	-0.090958	0.750035
H261	H	-0.395049	-0.891642	0.000034
H262	H	-0.145049	-0.641642	0.250034
H263	H	0.104951	-0.391642	0.500034
H264	H	0.354951	-0.141642	0.750034
