data_functionalizedCrystal
_audit_creation_method	'MofGen! by Chris Wilmer'
_symmetry_space_group_name_H-M	'P1'
_symmetry_Int_Tables_number	1
_symmetry_cell_setting	triclinic
loop_
_symmetry_equiv_pos_as_xyz
  x,y,z
_cell_length_a	16.625539
_cell_length_b	13.032831
_cell_length_c	16.625545
_cell_angle_alpha	97.169868
_cell_angle_beta	89.971893
_cell_angle_gamma	97.191849
loop_
_atom_site_label
_atom_site_type_symbol
_atom_site_fract_x
_atom_site_fract_y
_atom_site_fract_z
Zn1	Zn	-0.612179	-1.597616	-0.477784
Zn2	Zn	-0.278846	-1.264283	-0.144451
Zn3	Zn	0.054488	-0.930950	0.188882
Zn4	Zn	-0.477333	-1.597481	-0.612614
Zn5	Zn	-0.144000	-1.264148	-0.279281
Zn6	Zn	0.189333	-0.930815	0.054052
Zn7	Zn	-0.460266	-1.422857	-0.460662
Zn8	Zn	-0.126932	-1.089523	-0.127329
Zn9	Zn	0.206401	-0.756190	0.206004
Zn10	Zn	-0.595038	-1.422809	-0.595424
Zn11	Zn	-0.261705	-1.089476	-0.262091
Zn12	Zn	0.071629	-0.756142	0.071243
O13	O	-0.536204	-1.510191	-0.536621
O14	O	-0.202871	-1.176857	-0.203288
O15	O	0.130463	-0.843524	0.130045
O16	O	-0.608608	-1.743837	-0.510030
O17	O	-0.275274	-1.410504	-0.176697
O18	O	0.058059	-1.077170	0.156637
O19	O	-0.362233	-1.574281	-0.592486
O20	O	-0.028900	-1.240947	-0.259153
O21	O	0.304433	-0.907614	0.074180
O22	O	-0.480448	-1.446115	-0.350109
O23	O	-0.147114	-1.112782	-0.016775
O24	O	0.186219	-0.779449	0.316558
O25	O	-0.509537	-1.743738	-0.609089
O26	O	-0.176204	-1.410404	-0.275756
O27	O	0.157129	-1.077071	0.057578
O28	O	-0.592058	-1.574510	-0.362688
O29	O	-0.258725	-1.241177	-0.029355
O30	O	0.074609	-0.907844	0.303978
O31	O	-0.349694	-1.445985	-0.480848
O32	O	-0.016360	-1.112651	-0.147514
O33	O	0.316973	-0.779318	0.185819
O34	O	-0.463827	-1.276612	-0.464179
O35	O	-0.130494	-0.943278	-0.130846
O36	O	0.202840	-0.609945	0.202488
O37	O	-0.710148	-1.446034	-0.579790
O38	O	-0.376814	-1.112701	-0.246457
O39	O	-0.043481	-0.779367	0.086877
O40	O	-0.562844	-1.276577	-0.563187
O41	O	-0.229510	-0.943243	-0.229854
O42	O	0.103823	-0.609910	0.103479
O43	O	-0.722741	-1.574464	-0.493361
O44	O	-0.389408	-1.241131	-0.160028
O45	O	-0.056074	-0.907797	0.173306
O46	O	-0.492916	-1.574234	-0.723159
O47	O	-0.159583	-1.240901	-0.389826
O48	O	0.173750	-0.907568	-0.056492
O49	O	-0.579394	-1.445903	-0.710529
O50	O	-0.246060	-1.112570	-0.377196
O51	O	0.087273	-0.779236	-0.043862
C52	C	-0.509624	-1.238676	-0.509960
C53	C	-0.176290	-0.905343	-0.176627
C54	C	0.157043	-0.572010	0.156706
C55	C	-0.498272	-1.122521	-0.498574
C56	C	-0.164938	-0.789188	-0.165241
C57	C	0.168395	-0.455854	0.168093
C58	C	-0.746520	-1.510259	-0.536568
C59	C	-0.413186	-1.176925	-0.203235
C60	C	-0.079853	-0.843592	0.130099
C61	C	-0.836144	-1.510288	-0.536545
C62	C	-0.502810	-1.176954	-0.203212
C63	C	-0.169477	-0.843621	0.130122
C64	C	-0.536167	-1.510077	-0.746101
C65	C	-0.202834	-1.176744	-0.412768
C66	C	0.130499	-0.843411	-0.079434
C67	C	-0.536188	-1.510124	-0.835727
C68	C	-0.202855	-1.176791	-0.502393
C69	C	0.130479	-0.843458	-0.169060
C70	C	-1.164324	-1.510336	-0.536460
C71	C	-0.830991	-1.177003	-0.203126
C72	C	-0.497657	-0.843669	0.130207
C73	C	-1.073014	-1.510320	-0.536486
C74	C	-0.739681	-1.176986	-0.203152
C75	C	-0.406347	-0.843653	0.130181
C76	C	-1.000237	-1.510312	-0.536503
C77	C	-0.666903	-1.176979	-0.203170
C78	C	-0.333570	-0.843646	0.130164
C79	C	-0.908921	-1.510295	-0.536528
C80	C	-0.575587	-1.176962	-0.203194
C81	C	-0.242254	-0.843628	0.130139
C82	C	-0.326712	-1.510183	-0.536622
C83	C	0.006621	-1.176850	-0.203289
C84	C	0.339954	-0.843517	0.130044
C85	C	-0.237109	-1.510357	-0.536438
C86	C	0.096225	-1.177023	-0.203104
C87	C	0.429558	-0.843690	0.130229
C88	C	-0.562888	-1.782766	-0.563387
C89	C	-0.229555	-1.449432	-0.230054
C90	C	0.103778	-1.116099	0.103280
C91	C	-0.574260	-1.898921	-0.574793
C92	C	-0.240927	-1.565587	-0.241459
C93	C	0.092407	-1.232254	0.091874
C94	C	-0.542129	-1.070746	-0.542564
C95	C	-0.208795	-0.737412	-0.209231
C96	C	0.124538	-0.404079	0.124103
C97	C	-0.530397	-0.950693	-0.530797
C98	C	-0.197063	-0.617360	-0.197463
C99	C	0.136270	-0.284027	0.135870
C100	C	-0.536208	-1.510165	-0.908513
C101	C	-0.202875	-1.176832	-0.575180
C102	C	0.130459	-0.843498	-0.241846
C103	C	-0.536232	-1.510226	-0.999828
C104	C	-0.202899	-1.176892	-0.666494
C105	C	0.130435	-0.843559	-0.333161
C106	C	-0.536247	-1.510280	-1.072609
C107	C	-0.202914	-1.176947	-0.739276
C108	C	0.130419	-0.843613	-0.405943
C109	C	-0.536270	-1.510340	-1.163929
C110	C	-0.202936	-1.177006	-0.830596
C111	C	0.130397	-0.843673	-0.497263
C112	C	-0.536261	-1.510333	-0.326326
C113	C	-0.202928	-1.177000	0.007007
C114	C	0.130406	-0.843667	0.340340
C115	C	-0.536285	-1.510394	-0.236711
C116	C	-0.202952	-1.177061	0.096622
C117	C	0.130381	-0.843727	0.429956
H118	H	-0.588364	-1.115297	-0.588934
H119	H	-0.255031	-0.781964	-0.255601
H120	H	0.078302	-0.448631	0.077733
Br121	Br	-0.453339	-0.876453	-0.453492
Br122	Br	-0.120006	-0.543120	-0.120159
Br123	Br	0.213328	-0.209786	0.213174
Br124	Br	-0.651341	-0.973158	-0.652075
Br125	Br	-0.318008	-0.639824	-0.318742
Br126	Br	0.015326	-0.306491	0.014591
H127	H	-0.452042	-1.077970	-0.452198
H128	H	-0.118709	-0.744636	-0.118865
H129	H	0.214625	-0.411303	0.214469
