data_functionalizedCrystal
_audit_creation_method	'MofGen! by Chris Wilmer'
_symmetry_space_group_name_H-M	'P1'
_symmetry_Int_Tables_number	1
_symmetry_cell_setting	triclinic
loop_
_symmetry_equiv_pos_as_xyz
  x,y,z
_cell_length_a	16.109301
_cell_length_b	15.944551
_cell_length_c	14.586319
_cell_angle_alpha	89.995256
_cell_angle_beta	89.999213
_cell_angle_gamma	83.480109
loop_
_atom_site_label
_atom_site_type_symbol
_atom_site_fract_x
_atom_site_fract_y
_atom_site_fract_z
O1	O	1.103166	0.107966	-0.076184
O2	O	1.603166	0.607966	0.423816
O3	O	0.861108	0.121403	-0.076199
O4	O	1.361108	0.621403	0.423801
O5	O	0.988747	-0.007593	-0.076183
O6	O	1.488747	0.492407	0.423817
O7	O	0.975527	0.236961	-0.076200
O8	O	1.475527	0.736961	0.423800
O9	O	0.988738	-0.007595	0.076298
O10	O	1.488738	0.492405	0.576298
O11	O	0.861099	0.121401	0.076282
O12	O	1.361099	0.621401	0.576282
O13	O	1.103157	0.107964	0.076296
O14	O	1.603157	0.607964	0.576296
Cu15	Cu	0.982127	0.114682	0.090212
Cu16	Cu	1.482127	0.614682	0.590212
Cu17	Cu	0.982138	0.114685	-0.090114
Cu18	Cu	1.482138	0.614685	0.409886
O19	O	0.975518	0.236960	0.076280
O20	O	1.475518	0.736960	0.576280
C21	C	0.830129	0.120857	0.000039
C22	C	1.330129	0.620857	0.500039
C23	C	0.737833	0.119226	0.000034
C24	C	1.237833	0.619226	0.500034
C25	C	0.515584	0.191975	0.000040
C26	C	1.015584	0.691975	0.500040
C27	C	0.428863	0.190435	0.000046
C28	C	0.928863	0.690435	0.500046
C29	C	0.448688	0.037387	0.000053
C30	C	0.948688	0.537387	0.500053
C31	C	0.535407	0.038927	0.000053
C32	C	1.035407	0.538927	0.500053
C33	C	0.568853	0.116224	0.000042
C34	C	1.068853	0.616224	0.500042
C35	C	0.395412	0.113143	0.000047
C36	C	0.895412	0.613143	0.500047
C37	C	0.301386	0.111473	0.000054
C38	C	0.801386	0.611473	0.500054
C39	C	0.662885	0.117894	0.000037
C40	C	1.162885	0.617894	0.500037
C41	C	0.988194	-0.038887	0.000057
C42	C	1.488194	0.461113	0.500057
C43	C	0.986548	-0.132133	0.000058
C44	C	1.486548	0.367867	0.500058
C45	C	0.903499	-0.346962	0.000040
C46	C	1.403499	0.153038	0.500040
C47	C	0.942060	-0.407993	0.075225
C48	C	1.442060	0.092007	0.575225
C49	C	0.983572	-0.302858	0.000051
C50	C	1.483572	0.197142	0.500051
C51	C	0.942088	-0.407975	-0.075109
C52	C	1.442088	0.092025	0.424891
C53	C	0.980691	-0.467769	0.000040
C54	C	1.480691	0.032231	0.500040
C55	C	1.022155	-0.362660	0.075297
C56	C	1.522155	0.137340	0.575297
C57	C	1.022171	-0.362636	-0.075104
C58	C	1.522171	0.137364	0.424896
C59	C	1.060790	-0.423649	0.000099
C60	C	1.560790	0.076351	0.500099
C61	C	0.985229	-0.207856	0.000058
C62	C	1.485229	0.292144	0.500058
C63	C	0.979039	-0.562770	0.000039
C64	C	1.479039	-0.062770	0.500039
C65	C	1.134136	0.108510	0.000056
C66	C	1.634136	0.608510	0.500056
C67	C	1.226432	0.110141	0.000055
C68	C	1.726432	0.610141	0.500055
C69	C	0.976071	0.268254	0.000038
C70	C	1.476071	0.768254	0.500038
C71	C	0.977717	0.361500	0.000031
C72	C	1.477717	0.861500	0.500031
N73	N	0.982126	0.114680	0.217044
N74	N	1.482126	0.614680	0.717044
N75	N	0.982146	0.114680	-0.216946
N76	N	1.482146	0.614680	0.283054
C77	C	1.038663	0.057580	0.452057
C78	C	1.538663	0.557580	0.952057
C79	C	1.038666	0.057578	0.548038
C80	C	1.538666	0.557578	1.048038
C81	C	0.925602	0.171783	0.548034
C82	C	1.425602	0.671783	1.048034
C83	C	0.925597	0.171780	0.452054
C84	C	1.425597	0.671780	0.952054
C85	C	0.982132	0.114680	0.404068
C86	C	1.482132	0.614680	0.904068
C87	C	0.982140	0.114680	0.596029
C88	C	1.482140	0.614680	1.096029
C89	C	0.982142	0.114679	0.700096
C90	C	1.482142	0.614679	1.200096
C91	C	0.982129	0.114680	0.299995
C92	C	1.482129	0.614680	0.799995
H93	H	0.578781	-0.022762	0.000058
H94	H	1.078781	0.477238	0.500058
H95	H	1.084696	0.011085	0.412989
H96	H	1.584696	0.511085	0.912989
H97	H	1.127313	-0.456830	0.000145
H98	H	1.627313	0.043170	0.500145
C99	C	0.772043	-0.324687	0.078960
C100	C	1.272043	0.175313	0.578960
C101	C	0.813779	-0.301960	0.000132
C102	C	1.313779	0.198040	0.500132
H103	H	0.716658	-0.296899	0.079020
H104	H	1.216658	0.203101	0.579020
H105	H	0.770384	-0.384042	0.079498
H106	H	1.270384	0.115958	0.579498
H107	H	0.800777	-0.308520	0.131822
H108	H	1.300777	0.191480	0.631822
H109	H	0.785048	-0.318132	-0.052731
H110	H	1.285048	0.181868	0.447269
H111	H	0.815434	-0.242592	-0.000415
H112	H	1.315434	0.257408	0.499585
C113	C	0.362671	-0.053129	-0.078336
C114	C	0.862671	0.446871	0.421664
C115	C	0.411922	-0.047575	0.000052
C116	C	0.911922	0.452425	0.500052
H117	H	0.339980	-0.105585	-0.078339
H118	H	0.839980	0.394415	0.421661
H119	H	0.318539	-0.008241	-0.078331
H120	H	0.818539	0.491759	0.421669
H121	H	0.396101	-0.049343	-0.131501
H122	H	0.896101	0.450657	0.368499
H123	H	0.378490	-0.051356	0.053218
H124	H	0.878490	0.448644	0.553218
H125	H	0.456061	-0.092476	0.000056
H126	H	0.956061	0.407524	0.500056
H127	H	0.908189	-0.428091	0.138783
H128	H	1.408189	0.071909	0.638783
H129	H	0.542812	0.254914	0.000037
H130	H	1.042812	0.754914	0.500037
H131	H	1.084697	0.011082	0.587108
H132	H	1.584697	0.511082	1.087108
C133	C	0.417984	0.341869	0.000024
C134	C	0.917984	0.841869	0.500024
C135	C	0.370310	0.273703	0.000036
C136	C	0.870310	0.773703	0.500036
H137	H	0.381834	0.393276	0.000014
H138	H	0.881834	0.893276	0.500014
H139	H	0.452218	0.339287	0.053194
H140	H	0.952218	0.839287	0.553194
H141	H	0.452222	0.339278	-0.053153
H142	H	0.952222	0.839278	0.446847
H143	H	0.336076	0.276290	0.053218
H144	H	0.836076	0.776290	0.553218
H145	H	0.336062	0.276286	-0.053139
H146	H	0.836062	0.776286	0.446861
C147	C	1.068917	-0.248013	0.160451
C148	C	1.568917	0.251987	0.660451
C149	C	1.067827	-0.335698	0.161204
C150	C	1.567827	0.164302	0.661204
H151	H	1.097106	-0.231367	0.213490
H152	H	1.597106	0.268633	0.713490
H153	H	1.097173	-0.232133	0.107138
H154	H	1.597173	0.267867	0.607138
H155	H	1.013206	-0.221073	0.160230
H156	H	1.513206	0.278927	0.660230
H157	H	1.123538	-0.362638	0.161418
H158	H	1.623538	0.137362	0.661418
H159	H	1.039573	-0.351586	0.214531
H160	H	1.539573	0.148414	0.714531
C161	C	1.137605	-0.296379	-0.134284
C162	C	1.637605	0.203621	0.365716
C163	C	1.067858	-0.335465	-0.160907
C164	C	1.567858	0.164535	0.339093
H165	H	1.165807	-0.279608	-0.187262
H166	H	1.665807	0.220392	0.312738
H167	H	1.119956	-0.248141	-0.098048
H168	H	1.619956	0.251859	0.401952
H169	H	1.174360	-0.334887	-0.099500
H170	H	1.674360	0.165113	0.400500
H171	H	1.031100	-0.296955	-0.195686
H172	H	1.531100	0.203045	0.304314
H173	H	1.085506	-0.383709	-0.197159
H174	H	1.585506	0.116291	0.302841
C175	C	0.814015	-0.395965	-0.160768
C176	C	1.314015	0.104035	0.339232
C177	C	0.896361	-0.435072	-0.160919
C178	C	1.396361	0.064928	0.339081
H179	H	0.785785	-0.412688	-0.213744
H180	H	1.285785	0.087312	0.286256
H181	H	0.786117	-0.412261	-0.107391
H182	H	1.286117	0.087739	0.392609
H183	H	0.814300	-0.336421	-0.161083
H184	H	1.314300	0.163579	0.338917
H185	H	0.896076	-0.494617	-0.160597
H186	H	1.396076	0.005383	0.339403
H187	H	0.924267	-0.418781	-0.214310
H188	H	1.424267	0.081219	0.285690
H189	H	0.879574	0.218274	0.587113
H190	H	1.379574	0.718274	1.087113
H191	H	0.879558	0.218278	0.412979
H192	H	1.379558	0.718278	0.912979
