data_functionalizedCrystal
_audit_creation_method	'MofGen! by Chris Wilmer'
_symmetry_space_group_name_H-M	'P1'
_symmetry_Int_Tables_number	1
_symmetry_cell_setting	triclinic
loop_
_symmetry_equiv_pos_as_xyz
  x,y,z
_cell_length_a	15.298149
_cell_length_b	15.296720
_cell_length_c	15.297327
_cell_angle_alpha	107.319222
_cell_angle_beta	91.646891
_cell_angle_gamma	91.602853
loop_
_atom_site_label
_atom_site_type_symbol
_atom_site_fract_x
_atom_site_fract_y
_atom_site_fract_z
Zn1	Zn	1.116298	-0.823291	-0.694715
Zn2	Zn	1.616298	-0.323291	-0.194715
Zn3	Zn	1.116203	-0.694665	-0.823317
Zn4	Zn	1.616203	-0.194665	-0.323317
Zn5	Zn	1.005074	-0.644548	-0.644579
Zn6	Zn	1.505074	-0.144548	-0.144579
Zn7	Zn	0.946167	-0.814549	-0.814594
Zn8	Zn	1.446167	-0.314549	-0.314594
O9	O	1.045935	-0.744263	-0.744301
O10	O	1.545935	-0.244263	-0.244301
O11	O	1.233994	-0.830862	-0.736407
O12	O	1.733994	-0.330862	-0.236407
O13	O	1.126074	-0.563041	-0.782275
O14	O	1.626074	-0.063041	-0.282275
O15	O	1.044521	-0.650943	-0.526258
O16	O	1.544521	-0.150943	-0.026258
O17	O	1.233924	-0.736361	-0.830890
O18	O	1.733924	-0.236361	-0.330890
O19	O	1.126237	-0.782265	-0.563093
O20	O	1.626237	-0.282265	-0.063093
O21	O	1.044428	-0.526219	-0.650957
O22	O	1.544428	-0.026219	-0.150957
O23	O	0.879551	-0.642466	-0.642499
O24	O	1.379551	-0.142466	-0.142499
O25	O	0.944122	-0.940685	-0.816023
O26	O	1.444122	-0.440685	-0.316023
O27	O	0.836272	-0.767365	-0.767408
O28	O	1.336272	-0.267365	-0.267408
O29	O	1.069117	-0.947108	-0.727949
O30	O	1.569117	-0.447108	-0.227949
O31	O	1.068954	-0.727884	-0.947132
O32	O	1.568954	-0.227884	-0.447132
O33	O	0.944029	-0.815962	-0.940723
O34	O	1.444029	-0.315962	-0.440723
C35	C	0.827391	-0.698529	-0.698567
C36	C	1.327391	-0.198529	-0.198567
C37	C	0.733888	-0.678988	-0.679026
C38	C	1.233888	-0.178988	-0.179026
C39	C	1.000059	-0.977208	-0.776605
C40	C	1.500059	-0.477208	-0.276605
C41	C	0.980510	-1.076475	-0.790372
C42	C	1.480510	-0.576475	-0.290372
C43	C	1.000108	-0.776437	-0.976338
C44	C	1.500108	-0.276437	-0.476338
C45	C	0.980574	-0.790247	-1.075625
C46	C	1.480574	-0.290247	-0.575625
C47	C	1.265333	-0.790177	-0.790215
C48	C	1.765333	-0.290177	-0.290215
C49	C	1.358827	-0.809743	-0.809780
C50	C	1.858827	-0.309743	-0.309780
C51	C	1.712499	-0.604765	-0.604800
C52	C	2.212499	-0.104765	-0.104800
C53	C	1.624656	-0.586380	-0.586419
C54	C	2.124656	-0.086380	-0.086419
C55	C	1.558195	-0.642219	-0.642257
C56	C	2.058195	-0.142219	-0.142257
C57	C	1.579584	-0.716447	-0.716481
C58	C	2.079584	-0.216447	-0.216481
C59	C	1.667435	-0.734830	-0.734868
C60	C	2.167435	-0.234830	-0.234868
C61	C	1.513131	-0.772284	-0.772325
C62	C	2.013131	-0.272284	-0.272325
C63	C	1.534520	-0.846511	-0.846549
C64	C	2.034520	-0.346511	-0.346549
C65	C	1.622363	-0.864892	-0.864933
C66	C	2.122363	-0.364892	-0.364933
C67	C	1.688824	-0.809052	-0.809094
C68	C	2.188824	-0.309052	-0.309094
C69	C	1.425280	-0.753900	-0.753938
C70	C	1.925280	-0.253900	-0.253938
C71	C	1.380217	-0.883965	-0.884006
C72	C	1.880217	-0.383965	-0.384006
C73	C	1.468059	-0.902351	-0.902387
C74	C	1.968059	-0.402351	-0.402387
C75	C	1.185721	-1.369671	-0.645762
C76	C	1.685721	-0.869671	-0.145762
C77	C	1.204094	-1.276406	-0.632831
C78	C	1.704094	-0.776406	-0.132831
C79	C	1.148200	-1.226418	-0.672215
C80	C	1.648200	-0.726418	-0.172215
C81	C	1.073929	-1.269705	-0.724533
C82	C	1.573929	-0.769705	-0.224533
C83	C	1.055558	-1.362981	-0.737471
C84	C	1.555558	-0.862981	-0.237471
C85	C	1.018037	-1.219729	-0.763924
C86	C	1.518037	-0.719729	-0.263924
C87	C	0.943766	-1.263016	-0.816242
C88	C	1.443766	-0.763016	-0.316242
C89	C	0.925398	-1.356282	-0.829177
C90	C	1.425398	-0.856282	-0.329177
C91	C	0.981293	-1.406269	-0.789793
C92	C	1.481293	-0.906269	-0.289793
C93	C	1.036407	-1.126453	-0.750985
C94	C	1.536407	-0.626453	-0.250985
C95	C	0.906244	-1.119763	-0.842694
C96	C	1.406244	-0.619763	-0.342694
C97	C	0.887872	-1.213028	-0.855625
C98	C	1.387872	-0.713028	-0.355625
C99	C	1.091694	-0.512226	-0.712068
C100	C	1.591694	-0.012226	-0.212068
C101	C	1.111456	-0.412959	-0.698085
C102	C	1.611456	0.087041	-0.198085
C103	C	1.185834	-0.645938	-1.368781
C104	C	1.685834	-0.145938	-0.868781
C105	C	1.204188	-0.632959	-1.275495
C106	C	1.704188	-0.132959	-0.775495
C107	C	1.148286	-0.672280	-1.225523
C108	C	1.648286	-0.172280	-0.725523
C109	C	1.074027	-0.724583	-1.268846
C110	C	1.574027	-0.224583	-0.768846
C111	C	1.055668	-0.737558	-1.362139
C112	C	1.555668	-0.237558	-0.862139
C113	C	1.018120	-0.763899	-1.218881
C114	C	1.518120	-0.263899	-0.718881
C115	C	0.943862	-0.816202	-1.262204
C116	C	1.443862	-0.316202	-0.762204
C117	C	0.925506	-0.829175	-1.355488
C118	C	1.425506	-0.329175	-0.855488
C119	C	0.981408	-0.789854	-1.405460
C120	C	1.481408	-0.289854	-0.905460
C121	C	1.036480	-0.750924	-1.125588
C122	C	1.536480	-0.250924	-0.625588
C123	C	0.906314	-0.842543	-1.118946
C124	C	1.406314	-0.342543	-0.618946
C125	C	0.887960	-0.855523	-1.212232
C126	C	1.387960	-0.355523	-0.712232
C127	C	1.091960	-0.711988	-0.511365
C128	C	1.591960	-0.211988	-0.011365
C129	C	1.111574	-0.698235	-0.412102
C130	C	1.611574	-0.198235	0.087898
H131	H	1.407875	-0.693465	-0.693503
H132	H	1.907875	-0.193465	-0.193503
H133	H	1.096879	-1.091218	-0.708386
H134	H	1.596879	-0.591218	-0.208386
H135	H	1.163163	-1.150478	-0.661683
H136	H	1.663163	-0.650478	-0.161683
H137	H	0.827498	-0.898108	-1.247519
H138	H	1.327498	-0.398108	-0.747519
H139	H	1.485487	-0.962788	-0.962821
H140	H	1.985487	-0.462788	-0.462821
Br141	Br	1.290026	-0.959750	-0.959793
Br142	Br	1.790026	-0.459750	-0.459793
H143	H	1.766617	-0.559305	-0.559349
H144	H	2.266617	-0.059305	-0.059349
H145	H	1.264567	-1.241169	-0.590236
H146	H	1.764567	-0.741169	-0.090236
Br147	Br	1.651390	-0.965617	-0.965677
Br148	Br	2.151390	-0.465617	-0.465677
H149	H	1.231227	-1.410380	-0.613708
H150	H	1.731227	-0.910380	-0.113708
H151	H	1.760355	-0.824019	-0.824055
H152	H	2.260355	-0.324019	-0.324055
Br153	Br	0.787079	-1.271785	-0.926625
Br154	Br	1.287079	-0.771785	-0.426625
H155	H	0.966338	-1.482214	-0.800320
H156	H	1.466338	-0.982214	-0.300320
Br157	Br	1.261688	-0.592575	-1.436600
Br158	Br	1.761688	-0.092575	-0.936600
H159	H	1.607248	-0.525940	-0.525990
H160	H	2.107248	-0.025940	-0.025990
Br161	Br	1.304968	-0.561989	-1.216708
Br162	Br	1.804968	-0.061989	-0.716708
Br163	Br	0.830436	-0.895901	-1.051133
Br164	Br	1.330436	-0.395901	-0.551133
H165	H	1.486671	-0.627245	-0.627286
H166	H	1.986671	-0.127245	-0.127286
H167	H	0.864928	-1.391526	-0.871787
H168	H	1.364928	-0.891526	-0.371787
H169	H	1.163234	-0.661707	-1.149566
H170	H	1.663234	-0.161707	-0.649566
Br171	Br	0.956204	-0.806988	-1.531932
Br172	Br	1.456204	-0.306988	-1.031932
H173	H	0.860731	-1.079064	-0.874765
H174	H	1.360731	-0.579064	-0.374765
Br175	Br	1.137255	-0.679942	-1.066804
Br176	Br	1.637255	-0.179942	-0.566804
H177	H	0.865032	-0.871751	-1.390755
H178	H	1.365032	-0.371751	-0.890755
