data_functionalizedCrystal
_audit_creation_method	'MofGen! by Chris Wilmer'
_symmetry_space_group_name_H-M	'P1'
_symmetry_Int_Tables_number	1
_symmetry_cell_setting	triclinic
loop_
_symmetry_equiv_pos_as_xyz
  x,y,z
_cell_length_a	15.297475
_cell_length_b	16.120484
_cell_length_c	16.120256
_cell_angle_alpha	84.383827
_cell_angle_beta	96.324650
_cell_angle_gamma	83.687474
loop_
_atom_site_label
_atom_site_type_symbol
_atom_site_fract_x
_atom_site_fract_y
_atom_site_fract_z
Zn1	Zn	1.308574	-0.577536	0.709550
Zn2	Zn	1.308462	-0.710202	0.576841
Zn3	Zn	1.168357	-0.546811	0.546212
Zn4	Zn	1.152497	-0.690934	0.690332
O5	O	1.234472	-0.631371	0.630734
O6	O	1.432512	-0.616056	0.712807
O7	O	1.296468	-0.683733	0.456924
O8	O	1.193641	-0.435049	0.563103
O9	O	1.432431	-0.713526	0.615306
O10	O	1.296658	-0.457622	0.683107
O11	O	1.193533	-0.563690	0.434421
O12	O	1.042299	-0.545007	0.544468
O13	O	1.166610	-0.680687	0.808735
O14	O	1.030647	-0.650894	0.650353
O15	O	1.281279	-0.597373	0.822855
O16	O	1.281089	-0.823484	0.596671
O17	O	1.166502	-0.809328	0.680053
C18	C	1.004333	-0.592526	0.592002
C19	C	0.905876	-0.575929	0.575453
C20	C	0.604175	-0.749999	0.749015
C21	C	0.696679	-0.765599	0.764562
C22	C	0.748983	-0.718182	0.717286
C23	C	0.708773	-0.655164	0.654461
C24	C	0.616259	-0.639567	0.638908
C25	C	0.761068	-0.607751	0.607179
C26	C	0.720858	-0.544733	0.544353
C27	C	0.628353	-0.529138	0.528804
C28	C	0.576049	-0.576554	0.576080
C29	C	0.853582	-0.623348	0.622732
C30	C	0.865666	-0.512916	0.512624
C31	C	0.773162	-0.497316	0.497078
C32	C	1.222085	-0.846446	0.639622
C33	C	1.216866	-0.938471	0.643466
C34	C	1.207340	-1.106965	0.650502
C35	C	1.261763	-1.154964	0.611005
C36	C	1.256462	-1.248719	0.614920
C37	C	1.212639	-1.013201	0.646588
C38	C	1.465510	-0.670368	0.669617
C39	C	1.563964	-0.686986	0.686187
C40	C	1.222188	-0.640308	0.846675
C41	C	1.216953	-0.644116	0.938696
C42	C	1.246931	-0.415460	0.621832
C43	C	1.252240	-0.323452	0.618039
C44	C	1.246764	-0.622418	0.415639
C45	C	1.252184	-0.618405	0.323638
C46	C	1.261772	-0.611489	1.155160
C47	C	1.207367	-0.651030	1.107168
C48	C	1.212702	-0.647182	1.013422
C49	C	1.256438	-0.615336	1.248915
H50	H	0.729412	-0.816910	0.815713
N51	N	1.143931	-0.697147	1.143950
N52	N	1.145951	-0.774139	1.138528
H53	H	1.101156	-0.806714	1.164511
H54	H	0.500724	-0.563855	0.563427
H55	H	0.740409	-0.446006	0.445924
H56	H	1.312353	-0.574751	1.125842
N57	N	1.143894	-1.143751	0.696592
N58	N	1.086465	-1.181370	0.659891
H59	H	1.041654	-1.207360	0.692438
N60	N	0.919097	-0.464478	0.464344
N61	N	0.972091	-0.421688	0.500064
H62	H	1.009833	-0.387483	0.465969
N63	N	0.894649	-0.687724	0.686893
N64	N	0.880243	-0.762125	0.682691
H65	H	0.909246	-0.807595	0.728008
N66	N	0.843473	-0.734128	0.733174
N67	N	0.879363	-0.790394	0.789269
H68	H	0.946101	-0.801657	0.800495
N69	N	0.550736	-0.798426	0.797285
N70	N	0.468141	-0.784493	0.783386
H71	H	0.430398	-0.818699	0.817479
N72	N	0.587292	-0.464776	0.464616
N73	N	0.633997	-0.422448	0.422408
H74	H	0.605000	-0.376993	0.377073
N75	N	1.325188	-1.118174	0.564882
N76	N	1.329447	-1.040957	0.561713
H77	H	1.374232	-1.014967	0.529131
