data_functionalizedCrystal
_audit_creation_method	'MofGen! by Chris Wilmer'
_symmetry_space_group_name_H-M	'P1'
_symmetry_Int_Tables_number	1
_symmetry_cell_setting	triclinic
loop_
_symmetry_equiv_pos_as_xyz
  x,y,z
_cell_length_a	8.597187
_cell_length_b	6.394989
_cell_length_c	7.681481
_cell_angle_alpha	95.906187
_cell_angle_beta	88.166928
_cell_angle_gamma	94.092433
loop_
_atom_site_label
_atom_site_type_symbol
_atom_site_fract_x
_atom_site_fract_y
_atom_site_fract_z
O1	O	2.043590	-0.372634	-0.456449
O2	O	1.593855	-0.387479	-0.388223
O3	O	1.825106	-0.076254	-0.423306
O4	O	1.812339	-0.683859	-0.421366
O5	O	1.853567	-0.037858	-0.134766
O6	O	1.622317	-0.349083	-0.099683
O7	O	2.072051	-0.334238	-0.167910
Zn8	Zn	1.851703	-0.335564	-0.087984
Zn9	Zn	1.814204	-0.386153	-0.468148
O10	O	1.840801	-0.645463	-0.132826
C11	C	1.550426	-0.364547	-0.235205
C12	C	1.378617	-0.353396	-0.209142
C13	C	2.115480	-0.357171	-0.320930
C14	C	2.287288	-0.368323	-0.347006
C15	C	1.836812	0.020868	-0.278659
C16	C	1.829097	0.257418	-0.277491
N17	N	1.877306	-0.301038	0.171466
N18	N	1.788612	-0.420663	-0.727600
H19	H	1.698073	-0.542763	0.210939
C20	C	1.306679	-0.324622	-0.022757
N21	N	1.252487	-0.302946	0.117630
C22	C	1.359232	-0.397097	-0.533400
N23	N	1.413421	-0.418764	-0.673789
C24	C	1.999636	-0.136084	0.254502
N25	N	2.091772	-0.011839	0.317047
