data_functionalizedCrystal
_audit_creation_method	'MofGen! by Chris Wilmer'
_symmetry_space_group_name_H-M	'P1'
_symmetry_Int_Tables_number	1
_symmetry_cell_setting	triclinic
loop_
_symmetry_equiv_pos_as_xyz
  x,y,z
_cell_length_a	11.169417
_cell_length_b	17.638516
_cell_length_c	11.169409
_cell_angle_alpha	101.167547
_cell_angle_beta	89.980176
_cell_angle_gamma	101.243591
loop_
_atom_site_label
_atom_site_type_symbol
_atom_site_fract_x
_atom_site_fract_y
_atom_site_fract_z
Zn1	Zn	1.738222	-0.314597	-0.774999
Zn2	Zn	1.697457	-0.446803	-0.614851
Zn3	Zn	1.537493	-0.314645	-0.574349
Zn4	Zn	1.496881	-0.446738	-0.815476
O5	O	1.617513	-0.380696	-0.694919
O6	O	1.900762	-0.332141	-0.753766
O7	O	1.676174	-0.429319	-0.441543
O8	O	1.598177	-0.204028	-0.567075
O9	O	1.870812	-0.429272	-0.636106
O10	O	1.745651	-0.203993	-0.714492
O11	O	1.558649	-0.332223	-0.411786
O12	O	1.364158	-0.332161	-0.606324
O13	O	1.528959	-0.429162	-0.978042
O14	O	1.334321	-0.429209	-0.783479
O15	O	1.706271	-0.332079	-0.948304
O16	O	1.636794	-0.557404	-0.675355
O17	O	1.489431	-0.557357	-0.822753
C18	C	1.305692	-0.380684	-0.694900
C19	C	1.172288	-0.380698	-0.694926
C20	C	1.554315	-0.586060	-0.757868
C21	C	1.527388	-0.673916	-0.784837
C22	C	1.822794	-0.962849	-0.490123
C23	C	1.797472	-1.045403	-0.515485
C24	C	1.643894	-1.045398	-0.668849
C25	C	1.669200	-0.962843	-0.643496
C26	C	1.758652	-0.921574	-0.554132
C27	C	1.605057	-0.921568	-0.707506
C28	C	1.630366	-0.839020	-0.682158
C29	C	1.719817	-0.797746	-0.592802
C30	C	1.783961	-0.839026	-0.528785
C31	C	1.515612	-0.962838	-0.796875
C32	C	1.451469	-0.921563	-0.860884
C33	C	1.476771	-0.839013	-0.835532
C34	C	1.566222	-0.797739	-0.746175
C35	C	1.412627	-0.797733	-0.899548
C36	C	1.437936	-0.715185	-0.874201
C37	C	1.591530	-0.715191	-0.720828
C38	C	1.930552	-0.380708	-0.694939
C39	C	2.063950	-0.380714	-0.694948
C40	C	1.617632	-0.380608	-1.007935
C41	C	1.617683	-0.380570	-1.141323
C42	C	1.680991	-0.174529	-0.631751
C43	C	1.708042	-0.086673	-0.604832
C44	C	1.617481	-0.380726	-0.383103
C45	C	1.617731	-0.380541	-0.249647
H46	H	1.664363	-0.681589	-0.648050
O47	O	1.368752	-0.670664	-0.943239
H48	H	1.401389	-0.606330	-0.910607
H49	H	1.495014	-1.030054	-0.817514
O50	O	1.354975	-0.966074	-0.957251
H51	H	1.348140	-1.030410	-0.964114
O52	O	1.747096	-0.708710	-0.565448
H53	H	1.777983	-0.686871	-0.649285
H54	H	1.339804	-0.831346	-0.972316
O55	O	1.547403	-1.089917	-0.765214
H56	H	1.589562	-1.127471	-0.837853
H57	H	1.856793	-0.805424	-0.456007
H58	H	1.849715	-1.079006	-0.463357
O59	O	1.919274	-0.918327	-0.393736
H60	H	1.959632	-0.960894	-0.353482
