data_functionalizedCrystal
_audit_creation_method	'MofGen! by Chris Wilmer'
_symmetry_space_group_name_H-M	'P1'
_symmetry_Int_Tables_number	1
_symmetry_cell_setting	triclinic
loop_
_symmetry_equiv_pos_as_xyz
  x,y,z
_cell_length_a	19.188930
_cell_length_b	19.188924
_cell_length_c	12.996460
_cell_angle_alpha	90.008213
_cell_angle_beta	90.019467
_cell_angle_gamma	83.143372
loop_
_atom_site_label
_atom_site_type_symbol
_atom_site_fract_x
_atom_site_fract_y
_atom_site_fract_z
O1	O	0.926144	0.087169	0.085902
O2	O	1.259477	0.420503	0.419236
O3	O	1.592810	0.753836	0.752569
O4	O	0.722832	0.098904	0.085832
O5	O	1.056165	0.432237	0.419166
O6	O	1.389499	0.765570	0.752499
O7	O	0.830357	-0.008620	0.085857
O8	O	1.163691	0.324714	0.419191
O9	O	1.497024	0.658047	0.752524
O10	O	0.818618	0.194692	0.085877
O11	O	1.151952	0.528026	0.419211
O12	O	1.485285	0.861359	0.752544
O13	O	0.830346	-0.008626	-0.085277
O14	O	1.163680	0.324708	0.248057
O15	O	1.497013	0.658041	0.581390
O16	O	0.722821	0.098898	-0.085301
O17	O	1.056154	0.432231	0.248032
O18	O	1.389488	0.765564	0.581365
O19	O	0.926132	0.087163	-0.085232
O20	O	1.259466	0.420497	0.248102
O21	O	1.592799	0.753830	0.581435
Cu22	Cu	0.824476	0.093030	-0.100892
Cu23	Cu	1.157809	0.426363	0.232441
Cu24	Cu	1.491142	0.759697	0.565774
Cu25	Cu	0.824489	0.093037	0.101493
Cu26	Cu	1.157822	0.426370	0.434826
Cu27	Cu	1.491156	0.759704	0.768160
O28	O	0.818607	0.194686	-0.085256
O29	O	1.151940	0.528020	0.248077
O30	O	1.485274	0.861353	0.581410
C31	C	0.696815	0.098521	0.000256
C32	C	1.030149	0.431854	0.333590
C33	C	1.363482	0.765187	0.666923
C34	C	0.619311	0.097380	0.000229
C35	C	0.952644	0.430713	0.333563
C36	C	1.285978	0.764047	0.666896
C37	C	0.829973	-0.034634	0.000289
C38	C	1.163306	0.298700	0.333623
C39	C	1.496639	0.632033	0.666956
C40	C	0.828834	-0.112138	0.000286
C41	C	1.162167	0.221195	0.333619
C42	C	1.495500	0.554528	0.666953
C43	C	0.574385	0.160471	0.000252
C44	C	0.907719	0.493804	0.333585
C45	C	1.241052	0.827138	0.666918
C46	C	0.501562	0.159399	0.000263
C47	C	0.834895	0.492733	0.333596
C48	C	1.168228	0.826066	0.666929
C49	C	0.473667	0.095233	0.000272
C50	C	0.807000	0.428566	0.333606
C51	C	1.140333	0.761900	0.666939
C52	C	0.518602	0.032134	0.000244
C53	C	0.851935	0.365467	0.333577
C54	C	1.185269	0.698800	0.666911
C55	C	0.591424	0.033207	0.000223
C56	C	0.924758	0.366540	0.333556
C57	C	1.258091	0.699874	0.666889
N58	N	0.365692	0.046188	0.058553
N59	N	0.699025	0.379521	0.391886
N60	N	1.032358	0.712854	0.725220
N61	N	0.296513	0.045172	0.058576
N62	N	0.629846	0.378506	0.391909
N63	N	0.963180	0.711839	0.725242
C64	C	0.254258	0.091995	0.000335
C65	C	0.587592	0.425328	0.333668
C66	C	0.920925	0.758661	0.667002
N67	N	0.283794	0.139882	-0.057917
N68	N	0.617127	0.473215	0.275417
N69	N	0.950461	0.806548	0.608750
N70	N	0.352979	0.140899	-0.057935
N71	N	0.686312	0.474233	0.275399
N72	N	1.019645	0.807566	0.608732
C73	C	0.394704	0.094062	0.000295
C74	C	0.728038	0.427395	0.333628
C75	C	1.061371	0.760729	0.666962
C76	C	0.130368	0.153928	0.000368
C77	C	0.463702	0.487262	0.333701
C78	C	0.797035	0.820595	0.667035
C79	C	0.057543	0.152854	0.000373
C80	C	0.390877	0.486187	0.333706
C81	C	0.724210	0.819521	0.667040
C82	C	0.074585	0.025586	0.000364
C83	C	0.407919	0.358920	0.333698
C84	C	0.741252	0.692253	0.667031
C85	C	0.147409	0.026663	0.000349
C86	C	0.480742	0.359996	0.333683
C87	C	0.814075	0.693329	0.667016
C88	C	0.175295	0.090835	0.000356
C89	C	0.508629	0.424169	0.333689
C90	C	0.841962	0.757502	0.667023
C91	C	0.828308	-0.148534	0.093571
C92	C	1.161642	0.184799	0.426904
C93	C	1.494975	0.518133	0.760238
C94	C	0.827228	-0.221357	0.093579
C95	C	1.160562	0.111977	0.426912
C96	C	1.493895	0.445310	0.760245
C97	C	0.826688	-0.257783	0.000296
C98	C	1.160021	0.075550	0.333629
C99	C	1.493355	0.408884	0.666962
C100	C	0.827210	-0.221378	-0.093002
C101	C	1.160543	0.111955	0.240332
C102	C	1.493876	0.445289	0.573665
C103	C	0.828282	-0.148556	-0.093007
C104	C	1.161616	0.184778	0.240327
C105	C	1.494949	0.518111	0.573660
N106	N	0.864731	-0.377449	-0.069119
N107	N	1.198065	-0.044115	0.264214
N108	N	1.531398	0.289218	0.597547
N109	N	0.863714	-0.446627	-0.069109
N110	N	1.197047	-0.113294	0.264225
N111	N	1.530380	0.220040	0.597558
C112	C	0.823454	-0.477192	0.000304
C113	C	1.156787	-0.143859	0.333638
C114	C	1.490121	0.189475	0.666971
N115	N	0.784259	-0.435967	0.069722
N116	N	1.117593	-0.102634	0.403055
N117	N	1.450926	0.230700	0.736388
N118	N	0.785280	-0.366783	0.069714
N119	N	1.118614	-0.033449	0.403047
N120	N	1.451947	0.299884	0.736381
C121	C	0.825524	-0.336746	0.000290
C122	C	1.158858	-0.003413	0.333624
C123	C	1.492191	0.329920	0.666957
C124	C	0.821757	-0.592550	0.093604
C125	C	1.155090	-0.259217	0.426937
C126	C	1.488423	0.074116	0.760271
C127	C	0.820672	-0.665374	0.093608
C128	C	1.154006	-0.332040	0.426941
C129	C	1.487339	0.001293	0.760274
C130	C	0.820660	-0.665394	-0.092975
C131	C	1.153994	-0.332061	0.240358
C132	C	1.487327	0.001272	0.573691
C133	C	0.821738	-0.592571	-0.092976
C134	C	1.155071	-0.259238	0.240357
C135	C	1.488404	0.074095	0.573690
C136	C	0.822289	-0.556154	0.000316
C137	C	1.155622	-0.222821	0.333650
C138	C	1.488956	0.110512	0.666983
C139	C	0.952149	0.087546	0.000347
C140	C	1.285482	0.420880	0.333680
C141	C	1.618816	0.754213	0.667013
C142	C	1.029654	0.088687	0.000381
C143	C	1.362987	0.422020	0.333714
C144	C	1.696320	0.755354	0.667047
C145	C	0.818992	0.220700	0.000314
C146	C	1.152325	0.554034	0.333647
C147	C	1.485659	0.887367	0.666980
C148	C	0.820131	0.298205	0.000324
C149	C	1.153464	0.631539	0.333657
C150	C	1.486797	0.964872	0.666990
N151	N	0.824472	0.093025	-0.243240
N152	N	1.157805	0.426358	0.090094
N153	N	1.491138	0.759691	0.423427
C154	C	0.824488	0.093038	-0.663054
C155	C	1.157821	0.426371	-0.329720
C156	C	1.491155	0.759704	0.003613
C157	C	0.824481	0.093036	-0.546249
C158	C	1.157815	0.426370	-0.212915
C159	C	1.491148	0.759703	0.120418
C160	C	0.824480	0.093032	-0.453150
C161	C	1.157813	0.426365	-0.119817
C162	C	1.491147	0.759698	0.213516
C163	C	0.824473	0.093029	-0.336338
C164	C	1.157806	0.426363	-0.003004
C165	C	1.491139	0.759696	0.330329
N166	N	0.824499	0.093037	0.243840
N167	N	1.157832	0.426370	0.577174
N168	N	1.491165	0.759703	0.910507
H169	H	0.597086	0.212725	0.000259
H170	H	0.930419	0.546059	0.333592
H171	H	1.263752	0.879392	0.666926
H172	H	0.820215	-0.695051	-0.168928
H173	H	1.153548	-0.361718	0.164405
H174	H	1.486882	-0.028384	0.497738
H175	H	0.183988	-0.024713	0.000337
H176	H	0.517322	0.308620	0.333670
H177	H	0.850655	0.641953	0.667003
H178	H	0.822171	-0.562939	-0.168939
H179	H	1.155505	-0.229605	0.164394
H180	H	1.488838	0.103728	0.497727
Br181	Br	0.652399	-0.052423	0.000190
Br182	Br	0.985732	0.280910	0.333523
Br183	Br	1.319066	0.614243	0.666856
H184	H	0.822201	-0.562897	0.169568
H185	H	1.155535	-0.229564	0.502902
H186	H	1.488868	0.103769	0.836235
H187	H	0.495885	-0.020111	0.000266
H188	H	0.829219	0.313222	0.333599
H189	H	1.162552	0.646556	0.666933
H190	H	0.051874	-0.026659	0.000436
H191	H	0.385208	0.306674	0.333769
H192	H	0.718541	0.640008	0.667103
Br193	Br	0.828992	-0.099157	-0.219618
Br194	Br	1.162325	0.234176	0.113715
Br195	Br	1.495659	0.567509	0.447049
Br196	Br	0.829054	-0.099113	0.220182
Br197	Br	1.162387	0.234220	0.553515
Br198	Br	1.495720	0.567553	0.886848
Br199	Br	0.826467	-0.270810	-0.219601
Br200	Br	1.159801	0.062523	0.113732
Br201	Br	1.493134	0.395857	0.447065
H202	H	0.820241	-0.695005	0.169575
H203	H	1.153574	-0.361672	0.502908
H204	H	1.486908	-0.028339	0.836241
H205	H	0.464976	0.210777	0.000278
H206	H	0.798310	0.544111	0.333612
H207	H	1.131643	0.877444	0.666945
H208	H	0.153075	0.206181	0.000358
H209	H	0.486408	0.539515	0.333692
H210	H	0.819741	0.872848	0.667025
H211	H	0.020965	0.204232	0.000385
H212	H	0.354298	0.537566	0.333718
H213	H	0.687632	0.870899	0.667052
Br214	Br	0.826513	-0.270762	0.220189
Br215	Br	1.159846	0.062572	0.553522
Br216	Br	1.493179	0.395905	0.886855
