data_functionalizedCrystal
_audit_creation_method	'MofGen! by Chris Wilmer'
_symmetry_space_group_name_H-M	'P1'
_symmetry_Int_Tables_number	1
_symmetry_cell_setting	triclinic
loop_
_symmetry_equiv_pos_as_xyz
  x,y,z
_cell_length_a	17.699083
_cell_length_b	16.176319
_cell_length_c	17.699083
_cell_angle_alpha	89.986173
_cell_angle_beta	96.716984
_cell_angle_gamma	90.001389
loop_
_atom_site_label
_atom_site_type_symbol
_atom_site_fract_x
_atom_site_fract_y
_atom_site_fract_z
O1	O	1.004079	0.068643	-0.095713
O2	O	0.783700	0.068672	-0.108166
O3	O	0.900116	0.068637	0.008250
O4	O	0.887663	0.068679	-0.212129
O5	O	0.900100	-0.068856	0.008257
O6	O	0.783684	-0.068821	-0.108158
O7	O	1.004063	-0.068850	-0.095706
Cu8	Cu	0.893872	-0.081390	-0.101931
Cu9	Cu	0.893891	0.081212	-0.101940
O10	O	0.887647	-0.068814	-0.212121
C11	C	0.755495	-0.000071	-0.107716
C12	C	0.671477	-0.000061	-0.106377
N13	N	0.893864	-0.195755	-0.101925
C14	C	0.622856	-0.000048	-0.174711
C15	C	0.543913	-0.000059	-0.173448
C16	C	0.513592	-0.000077	-0.103852
C17	C	0.562219	-0.000092	-0.035513
C18	C	0.641161	-0.000087	-0.036776
C19	C	0.243856	-0.000114	-0.030418
C20	C	0.164908	-0.000116	-0.029160
C21	C	0.146608	-0.000086	-0.167090
C22	C	0.225550	-0.000081	-0.168353
C23	C	0.274170	-0.000100	-0.100015
C24	C	0.359769	-0.000090	-0.101384
C25	C	0.427995	-0.000081	-0.102481
C26	C	0.945429	-0.239035	-0.050397
C27	C	0.945432	-0.325582	-0.050396
C28	C	0.893875	-0.368847	-0.101927
C29	C	0.842305	-0.325561	-0.153457
C30	C	0.842299	-0.239016	-0.153454
C31	C	0.842331	-0.674590	-0.153472
C32	C	0.842344	-0.761141	-0.153473
C33	C	0.945465	-0.761155	-0.050414
C34	C	0.945458	-0.674610	-0.050410
C35	C	0.893886	-0.631332	-0.101937
C36	C	0.893882	-0.537487	-0.101937
C37	C	0.893883	-0.462690	-0.101932
C38	C	1.032268	-0.000105	-0.096156
C39	C	1.116286	-0.000109	-0.097494
C40	C	0.899662	-0.000113	0.036451
C41	C	0.898323	-0.000123	0.120469
N42	N	0.893905	0.195577	-0.101941
C43	C	0.966656	-0.000138	0.169090
C44	C	0.965394	-0.000140	0.248033
C45	C	0.895798	-0.000133	0.278354
C46	C	0.827459	-0.000115	0.229727
C47	C	0.828722	-0.000107	0.150785
C48	C	0.822364	-0.000145	0.548090
C49	C	0.821106	-0.000155	0.627038
C50	C	0.959036	-0.000178	0.645338
C51	C	0.960299	-0.000170	0.566396
C52	C	0.891961	-0.000148	0.517776
C53	C	0.893330	-0.000144	0.432177
C54	C	0.894427	-0.000142	0.363951
C55	C	0.888102	-0.000092	0.759678
C56	C	0.889440	-0.000164	0.675660
H57	H	0.504328	-0.000048	-0.229092
N58	N	0.258253	-0.000050	-0.243417
H59	H	0.215472	-0.000043	-0.286516
H60	H	0.290612	-0.051016	-0.246945
N61	N	1.041722	-0.000154	0.136389
H62	H	1.084819	-0.000163	0.179172
H63	H	1.045258	0.050818	0.104027
N64	N	0.094168	-0.000067	-0.240801
H65	H	0.039557	-0.000076	-0.229445
H66	H	0.103974	-0.051028	-0.271138
H67	H	0.283434	-0.000130	0.025228
N68	N	0.693600	-0.000099	0.036930
H69	H	0.726762	0.050870	0.039480
H70	H	0.726711	-0.051102	0.039438
H71	H	0.766718	-0.000127	0.508512
H72	H	0.987456	-0.796402	-0.008455
N73	N	0.786724	-0.807804	-0.209050
H74	H	0.753281	-0.843727	-0.180162
H75	H	0.815635	-0.843649	-0.242518
H76	H	0.537526	-0.000118	0.021154
H77	H	0.987416	-0.203813	-0.008438
H78	H	0.987419	-0.360820	-0.008438
N79	N	0.786706	-0.627917	-0.209041
H80	H	0.754048	-0.668461	-0.241685
H81	H	0.815606	-0.591989	-0.242467
H82	H	0.140225	-0.000132	0.027517
N83	N	1.001069	-0.627945	0.005166
H84	H	1.033736	-0.668496	0.037811
H85	H	0.972154	-0.592051	0.038591
N86	N	0.786687	-0.192334	-0.209036
H87	H	0.794503	-0.130943	-0.201213
H88	H	0.733016	-0.207473	-0.200358
H89	H	0.800323	-0.360793	-0.195413
N90	N	1.035363	-0.000185	0.533693
H91	H	1.078462	-0.000194	0.576474
H92	H	1.038896	0.050788	0.501331
N93	N	1.039096	-0.000161	0.300475
H94	H	1.083376	-0.000173	0.269288
H95	H	1.041564	-0.051136	0.333632
N96	N	0.752394	-0.000114	0.262428
H97	H	0.709297	-0.000103	0.219646
H98	H	0.748870	0.050851	0.294779
N99	N	1.032743	-0.000199	0.697784
H100	H	1.035305	0.050766	0.730938
H101	H	1.076981	-0.000239	0.666545
H102	H	0.764429	-0.000150	0.651721
N103	N	0.755019	-0.000113	0.098342
H104	H	0.766378	-0.000112	0.043732
H105	H	0.724679	0.050856	0.108132
N106	N	0.655557	-0.000019	-0.249776
H107	H	0.612774	-0.000014	-0.292873
H108	H	0.687915	-0.050985	-0.253305
