data_functionalizedCrystal
_audit_creation_method	'MofGen! by Chris Wilmer'
_symmetry_space_group_name_H-M	'P1'
_symmetry_Int_Tables_number	1
_symmetry_cell_setting	triclinic
loop_
_symmetry_equiv_pos_as_xyz
  x,y,z
_cell_length_a	18.101398
_cell_length_b	19.120904
_cell_length_c	18.101395
_cell_angle_alpha	87.585967
_cell_angle_beta	89.973629
_cell_angle_gamma	92.417658
loop_
_atom_site_label
_atom_site_type_symbol
_atom_site_fract_x
_atom_site_fract_y
_atom_site_fract_z
Zn1	Zn	1.114235	-0.397221	0.312806
Zn2	Zn	1.119419	-0.279777	0.431367
Zn3	Zn	0.995682	-0.279776	0.307534
Zn4	Zn	0.990347	-0.397174	0.436597
O5	O	1.054921	-0.338487	0.372076
O6	O	1.218555	-0.381662	0.328550
O7	O	1.107408	-0.181495	0.410545
O8	O	1.011472	-0.295375	0.204601
O9	O	1.222363	-0.295376	0.415657
O10	O	1.098572	-0.381661	0.208474
O11	O	1.016499	-0.181494	0.319565
O12	O	0.891343	-0.295329	0.324637
O13	O	1.002378	-0.495462	0.424571
O14	O	0.887423	-0.381581	0.419459
O15	O	1.093399	-0.495497	0.333622
O16	O	1.102234	-0.295330	0.535693
O17	O	1.007405	-0.381582	0.539536
C18	C	0.862512	-0.338450	0.372044
C19	C	0.780198	-0.338451	0.372049
C20	C	0.481104	-0.338510	0.372098
C21	C	0.514859	-0.284508	0.312164
C22	C	0.600488	-0.284277	0.312308
C23	C	0.629488	-0.338481	0.372073
C24	C	0.599280	-0.318260	0.449175
C25	C	0.513652	-0.317884	0.448838
C26	C	0.509371	-0.412861	0.355614
C27	C	0.595040	-0.412455	0.353859
C28	C	0.713348	-0.338466	0.372064
C29	C	0.397244	-0.338524	0.372112
C30	C	1.046715	-0.521675	0.380268
C31	C	1.043218	-0.599740	0.383759
C32	C	1.088962	-0.636433	0.338049
C33	C	1.085668	-0.709783	0.341327
C34	C	1.036632	-0.746437	0.390319
C35	C	0.990883	-0.709738	0.436031
C36	C	0.994174	-0.636390	0.432749
C37	C	1.024320	-0.967900	0.402593
C38	C	1.021034	-1.041254	0.405872
C39	C	1.115818	-1.041293	0.311167
C40	C	1.119108	-0.967943	0.307893
C41	C	1.073356	-0.931251	0.353602
C42	C	1.033265	-0.821412	0.393671
C43	C	1.076720	-0.856277	0.350245
C44	C	1.248081	-0.338524	0.372108
C45	C	1.330394	-0.338540	0.372122
C46	C	1.054823	-0.338466	0.564486
C47	C	1.054847	-0.338481	0.646800
C48	C	1.063137	-0.156011	0.363862
C49	C	1.066778	-0.077947	0.360162
C50	C	1.055039	-0.338523	0.178916
C51	C	1.055089	-0.338538	0.096602
C52	C	1.055008	-0.338519	0.945893
C53	C	0.995471	-0.392920	0.917022
C54	C	0.995207	-0.392750	0.831397
C55	C	1.054928	-0.338501	0.797510
C56	C	1.037132	-0.264479	0.825327
C57	C	1.036750	-0.264805	0.910987
C58	C	1.132496	-0.357487	0.915097
C59	C	1.131962	-0.359110	0.829519
C60	C	1.054885	-0.338486	0.713649
C61	C	1.055050	-0.338529	1.029753
H62	H	0.614697	-0.427703	0.297137
N63	N	0.619450	-0.465622	0.405007
N64	N	0.662826	-0.449788	0.455945
H65	H	0.680046	-0.487331	0.492090
N66	N	0.940781	-0.747167	0.486070
N67	N	0.899933	-0.714393	0.526870
H68	H	0.864542	-0.740825	0.562208
H69	H	0.620957	-0.296952	0.255030
N70	N	1.008688	-0.461598	0.808054
N71	N	1.010798	-0.473251	0.740670
H72	H	1.020319	-0.521878	0.724186
N73	N	1.153675	-0.424050	0.945106
N74	N	1.213942	-0.447952	0.926867
H75	H	1.228894	-0.494966	0.948061
N76	N	0.481288	-0.435921	0.286524
N77	N	0.524956	-0.448995	0.235896
H78	H	0.505123	-0.465273	0.187097
H79	H	1.116641	-0.826430	0.310353
N80	N	0.481700	-0.463329	0.410443
N81	N	0.441334	-0.444715	0.461461
H82	H	0.421793	-0.480351	0.500190
H83	H	0.491236	-0.355502	0.494827
N84	N	1.148868	-0.427450	0.807049
N85	N	1.104386	-0.460891	0.767607
H86	H	1.116323	-0.509157	0.751734
H87	H	1.159040	-0.938104	0.268001
N88	N	1.008822	-0.462005	0.945862
N89	N	1.062368	-0.471955	0.988036
H90	H	1.071813	-0.520751	1.008390
H91	H	1.128895	-0.606595	0.298157
H92	H	0.993344	-0.851264	0.433564
N93	N	0.629278	-0.215172	0.325653
N94	N	0.697604	-0.202991	0.328078
H95	H	0.717938	-0.154182	0.337505
H96	H	1.079279	-0.222840	0.803086
N97	N	0.966978	-0.243944	0.797581
N98	N	0.962767	-0.189382	0.757548
H99	H	0.913220	-0.174881	0.737954
N100	N	1.190213	-0.313022	0.800587
N101	N	1.175835	-0.264013	0.755708
H102	H	1.216973	-0.231455	0.735276
N103	N	1.188104	-0.307790	0.938254
N104	N	1.225206	-0.271811	0.891149
H105	H	1.264475	-0.236711	0.907505
H106	H	1.122919	-0.739656	0.304106
N107	N	1.162544	-1.078785	0.264485
N108	N	1.159603	-1.144273	0.267420
H109	H	1.192604	-1.170753	0.234448
N110	N	0.970915	-1.078699	0.455890
N111	N	0.902953	-1.070494	0.450566
H112	H	0.867553	-1.096944	0.485880
N113	N	0.488336	-0.300233	0.240082
N114	N	0.444244	-0.351422	0.232037
H115	H	0.425504	-0.362529	0.181128
H116	H	0.495776	-0.229735	0.322660
H117	H	0.617929	-0.356361	0.494882
N118	N	0.491624	-0.249696	0.466869
N119	N	0.539476	-0.202716	0.479612
H120	H	0.523923	-0.154556	0.492346
N121	N	0.629173	-0.250803	0.467589
N122	N	0.617406	-0.198298	0.426473
H123	H	0.638516	-0.150654	0.439473
N124	N	0.977578	-0.930431	0.449277
N125	N	0.908880	-0.938616	0.444715
H126	H	0.875864	-0.912152	0.477688
N127	N	0.947438	-0.598917	0.479441
N128	N	0.903657	-0.631650	0.523179
H129	H	0.870645	-0.605186	0.556155
H130	H	0.938314	-0.380513	0.938046
N131	N	0.923068	-0.376990	0.805066
N132	N	0.872760	-0.366076	0.849946
H133	H	0.821807	-0.354943	0.831351
H134	H	0.980206	-0.248737	0.930302
N135	N	1.089001	-0.212206	0.934607
N136	N	1.125629	-0.175372	0.887831
H137	H	1.162523	-0.138217	0.904508
