data_functionalizedCrystal
_audit_creation_method	'MofGen! by Chris Wilmer'
_symmetry_space_group_name_H-M	'P1'
_symmetry_Int_Tables_number	1
_symmetry_cell_setting	triclinic
loop_
_symmetry_equiv_pos_as_xyz
  x,y,z
_cell_length_a	17.699083
_cell_length_b	12.811415
_cell_length_c	16.176319
_cell_angle_alpha	84.562354
_cell_angle_beta	89.998611
_cell_angle_gamma	83.665490
loop_
_atom_site_label
_atom_site_type_symbol
_atom_site_fract_x
_atom_site_fract_y
_atom_site_fract_z
O1	O	1.004674	0.132732	-0.078580
O2	O	0.784373	0.150001	-0.079901
O3	O	0.900065	-0.011441	-0.067780
O4	O	0.888982	0.294174	-0.090701
O5	O	0.900049	-0.011451	0.069713
O6	O	0.784357	0.149991	0.057593
O7	O	1.004658	0.132722	0.058914
Cu8	Cu	0.894506	0.141355	0.070808
Cu9	Cu	0.894525	0.141368	-0.091795
O10	O	0.888966	0.294164	0.046793
C11	C	0.756165	0.149377	-0.011111
C12	C	0.672138	0.147521	-0.010982
C13	C	0.623942	0.242284	-0.018089
C14	C	0.544991	0.240533	-0.017947
C15	C	0.514238	0.144019	-0.010704
C16	C	0.562440	0.049249	-0.003595
C17	C	0.641390	0.051000	-0.003731
C18	C	0.244045	0.042183	-0.003044
C19	C	0.165090	0.040438	-0.002911
C20	C	0.147647	0.231716	-0.017261
C21	C	0.226596	0.233467	-0.017397
C22	C	0.274792	0.138698	-0.010283
C23	C	0.360399	0.140597	-0.010435
C24	C	0.428631	0.142118	-0.010558
C25	C	0.899435	-0.050549	0.003897
C26	C	0.897574	-0.167062	0.012629
C27	C	0.894082	-0.385982	-0.120875
C28	C	0.892333	-0.495457	-0.112674
C29	C	0.892324	-0.495489	0.037231
C30	C	0.894072	-0.386014	0.029030
C31	C	0.894952	-0.331264	-0.050025
C32	C	0.896706	-0.221788	-0.058225
C33	C	0.896691	-0.221821	0.091679
C34	C	0.894943	-0.331296	0.099880
C35	C	1.032865	0.133346	-0.009878
C36	C	1.116892	0.135202	-0.010012
C37	C	0.889595	0.333272	-0.024886
C38	C	0.891456	0.449785	-0.033624
N39	N	0.894498	0.141346	0.185174
N40	N	0.894538	0.141368	-0.206160
C41	C	0.945742	0.069889	0.233803
C42	C	0.945746	0.069888	0.320350
C43	C	0.894508	0.141350	0.358266
C44	C	0.843259	0.212810	0.309630
C45	C	0.843252	0.212806	0.223085
C46	C	0.843285	0.212830	0.658657
C47	C	0.843297	0.212831	0.745209
C48	C	0.945778	0.069912	0.755922
C49	C	0.945772	0.069908	0.669377
C50	C	0.894520	0.141364	0.620749
C51	C	0.894515	0.141363	0.526905
C52	C	0.894516	0.141357	0.452108
H53	H	0.897425	-0.177213	-0.122596
O54	O	0.532532	-0.044479	0.003293
C55	C	0.487370	-0.051199	-0.067400
H56	H	0.506212	0.003605	-0.121283
H57	H	0.425192	-0.026831	-0.053127
C58	C	0.473437	-0.232798	-0.024937
C59	C	0.496583	-0.165494	-0.091118
H60	H	0.479117	-0.303301	-0.039566
H61	H	0.503861	-0.228271	0.022693
H62	H	0.421623	-0.212479	-0.013049
H63	H	0.548398	-0.185806	-0.102998
H64	H	0.466169	-0.170028	-0.138750
O65	O	0.793447	0.282324	0.175964
C66	C	0.748213	0.345383	0.227987
H67	H	0.779251	0.346521	0.289590
H68	H	0.691887	0.311398	0.239752
C69	C	0.694841	0.457240	0.110044
C70	C	0.732965	0.458645	0.185704
H71	H	0.685431	0.527104	0.083962
H72	H	0.725313	0.414754	0.074995
H73	H	0.647907	0.428914	0.119859
H74	H	0.779901	0.486958	0.175887
H75	H	0.702499	0.501139	0.220751
O76	O	0.894905	-0.332949	-0.197726
C77	C	0.893787	-0.404725	-0.258504
H78	H	0.868605	-0.478362	-0.231021
H79	H	0.954251	-0.427528	-0.279831
C80	C	0.875836	-0.262413	-0.366963
C81	C	0.844900	-0.352852	-0.333210
H82	H	0.845683	-0.230415	-0.413047
H83	H	0.876591	-0.214055	-0.326017
H84	H	0.926221	-0.281429	-0.384728
H85	H	0.794519	-0.333834	-0.315436
H86	H	0.844135	-0.401205	-0.374155
H87	H	0.680631	-0.026166	0.002056
H88	H	0.891601	-0.540084	0.101594
O89	O	0.995395	0.000385	0.196909
C90	C	0.954631	-0.064315	0.151753
H91	H	0.895554	-0.022370	0.135626
H92	H	0.949212	-0.141845	0.190963
C93	C	1.069783	-0.138438	0.091055
C94	C	0.997226	-0.086916	0.071241
H95	H	1.096058	-0.152384	0.041393
H96	H	1.097247	-0.094852	0.121479
H97	H	1.065257	-0.203040	0.123731
H98	H	1.001753	-0.022310	0.038574
H99	H	0.969763	-0.130492	0.040809
O100	O	0.893989	-0.384584	0.176624
C101	C	0.827500	-0.435836	0.184960
H102	H	0.805408	-0.448200	0.120813
H103	H	0.782330	-0.385215	0.218158
C104	C	0.872863	-0.528312	0.314659
C105	C	0.845733	-0.543507	0.235872
H106	H	0.884108	-0.594727	0.346067
H107	H	0.917657	-0.493780	0.309045
H108	H	0.835217	-0.486125	0.342313
H109	H	0.883382	-0.585682	0.208215
H110	H	0.800945	-0.578049	0.241483
O111	O	0.995525	0.000343	0.803083
C112	C	0.982884	-0.103538	0.789747
H113	H	0.953710	-0.103356	0.726898
H114	H	0.945113	-0.135931	0.840889
C115	C	1.095343	-0.173725	0.868185
C116	C	1.059515	-0.173502	0.790989
H117	H	1.142611	-0.216884	0.868955
H118	H	1.103858	-0.103738	0.877173
H119	H	1.063859	-0.200716	0.910796
H120	H	1.090995	-0.146499	0.748381
H121	H	1.051007	-0.243486	0.781994
H122	H	0.897403	-0.177259	0.149370
O123	O	0.793455	0.282084	0.346563
C124	C	0.746584	0.225954	0.400832
H125	H	0.776473	0.143769	0.419963
H126	H	0.690624	0.218917	0.368017
C127	C	0.693892	0.386104	0.455102
C128	C	0.730605	0.285166	0.478604
H129	H	0.684032	0.422630	0.503074
H130	H	0.725468	0.423921	0.418538
H131	H	0.647263	0.380226	0.427754
H132	H	0.777238	0.291045	0.505942
H133	H	0.699037	0.247351	0.515175
H134	H	0.108396	0.308881	-0.023049
O135	O	0.995606	0.000447	0.367462
C136	C	1.040821	-0.062636	0.315439
H137	H	1.041794	-0.019607	0.250514
H138	H	1.016018	-0.140577	0.312093
C139	C	1.121208	-0.137230	0.430575
C140	C	1.122409	-0.084377	0.350834
H141	H	1.171535	-0.150646	0.452409
H142	H	1.090745	-0.094734	0.465625
H143	H	1.100535	-0.202175	0.427776
H144	H	1.143073	-0.019428	0.353635
H145	H	1.152878	-0.126863	0.315785
H146	H	0.891622	-0.540003	-0.170367
H147	H	0.987496	0.011720	0.638508
H148	H	0.505752	0.317699	-0.023735
H149	H	0.801571	0.271026	0.776078
H150	H	0.283277	-0.034985	0.002749
O151	O	0.653687	0.336131	-0.025096
C152	C	0.594214	0.419395	-0.031358
H153	H	0.540495	0.390104	-0.003127
H154	H	0.583131	0.448621	-0.099512
C155	C	0.682762	0.546410	-0.018942
C156	C	0.616785	0.510437	0.015739
H157	H	0.696685	0.602572	0.010106
H158	H	0.722831	0.490315	-0.014726
H159	H	0.673518	0.570757	-0.075735
H160	H	0.626033	0.486078	0.072528
H161	H	0.576718	0.566530	0.011534
O162	O	0.256344	0.327313	-0.024402
C163	C	0.196873	0.410580	-0.030664
H164	H	0.143152	0.381293	-0.002435
H165	H	0.185793	0.439809	-0.098818
C166	C	0.285427	0.537587	-0.018242
C167	C	0.219448	0.501618	0.016435
H168	H	0.299352	0.593746	0.010807
H169	H	0.325494	0.481489	-0.014027
H170	H	0.276185	0.561937	-0.075036
H171	H	0.228693	0.477257	0.073225
H172	H	0.179383	0.557715	0.012231
H173	H	0.140054	-0.038160	0.002988
H174	H	0.801555	0.271014	0.619071
