data_functionalizedCrystal
_audit_creation_method	'MofGen! by Chris Wilmer'
_symmetry_space_group_name_H-M	'P1'
_symmetry_Int_Tables_number	1
_symmetry_cell_setting	triclinic
loop_
_symmetry_equiv_pos_as_xyz
  x,y,z
_cell_length_a	15.297475
_cell_length_b	25.639239
_cell_length_c	15.296720
_cell_angle_alpha	99.638856
_cell_angle_beta	91.617114
_cell_angle_gamma	80.340538
loop_
_atom_site_label
_atom_site_type_symbol
_atom_site_fract_x
_atom_site_fract_y
_atom_site_fract_z
Zn1	Zn	1.253213	-0.406888	-0.726521
Zn2	Zn	1.278441	-0.482170	-0.580022
Zn3	Zn	1.132104	-0.377518	-0.554767
Zn4	Zn	1.106670	-0.477031	-0.701152
O5	O	1.192607	-0.435902	-0.640616
O6	O	1.379131	-0.431317	-0.728274
O7	O	1.280232	-0.458147	-0.454100
O8	O	1.148256	-0.308262	-0.577599
O9	O	1.397666	-0.486626	-0.620642
O10	O	1.237234	-0.329841	-0.703785
O11	O	1.172719	-0.381260	-0.435545
O12	O	1.006159	-0.376276	-0.552999
O13	O	1.104906	-0.477867	-0.827090
O14	O	0.987472	-0.449388	-0.660547
O15	O	1.212571	-0.426334	-0.845728
O16	O	1.255568	-0.554640	-0.596043
O17	O	1.129369	-0.550864	-0.685036
C18	C	0.965034	-0.409088	-0.601280
C19	C	0.867674	-0.397631	-0.584473
C20	C	0.554472	-0.517789	-0.760740
C21	C	0.645948	-0.528557	-0.776529
C22	C	0.701384	-0.495826	-0.728517
C23	C	0.665336	-0.452326	-0.664713
C24	C	0.573852	-0.441560	-0.648918
C25	C	0.720763	-0.419597	-0.616694
C26	C	0.684715	-0.376097	-0.552890
C27	C	0.593241	-0.365332	-0.537098
C28	C	0.537805	-0.398063	-0.585110
C29	C	0.812247	-0.430363	-0.632489
C30	C	0.831627	-0.354134	-0.520666
C31	C	0.740151	-0.343366	-0.504877
C32	C	1.192467	-0.571724	-0.640550
C33	C	1.192482	-0.629841	-0.640565
C34	C	1.258449	-0.992200	-0.594398
C35	C	1.258481	-1.046809	-0.594415
O36	O	1.314423	-1.076721	-0.555091
N37	N	1.192751	-1.072164	-0.640700
C38	C	1.126990	-1.042907	-0.686978
O39	O	1.071085	-1.069488	-0.726350
C40	C	1.126963	-0.988300	-0.686965
C41	C	1.192692	-0.962947	-0.640670
C42	C	1.324173	-0.966847	-0.548107
C43	C	1.324140	-0.912241	-0.548088
C44	C	1.258383	-0.882988	-0.594360
C45	C	1.192658	-0.908341	-0.640651
C46	C	1.061206	-0.959045	-0.733248
C47	C	1.061185	-0.904435	-0.733232
C48	C	1.126914	-0.879082	-0.686936
C49	C	1.126868	-0.824483	-0.686905
N50	N	1.192598	-0.799128	-0.640619
C51	C	1.258355	-0.828381	-0.594347
C52	C	1.127054	-1.157587	-0.687003
C53	C	1.127077	-1.212192	-0.687011
C54	C	1.258569	-1.216091	-0.594449
C55	C	1.258541	-1.161483	-0.594437
C56	C	1.192784	-1.132232	-0.640718
C57	C	1.258280	-0.713705	-0.594311
C58	C	1.258239	-0.659094	-0.594293
C59	C	1.126750	-0.655201	-0.686858
C60	C	1.126788	-0.709806	-0.686873
C61	C	1.192561	-0.739058	-0.640597
O62	O	1.070956	-0.794537	-0.726211
O63	O	1.314257	-0.801795	-0.554992
C64	C	1.421068	-0.462821	-0.680105
C65	C	1.518425	-0.474292	-0.696933
C66	C	1.153088	-0.454803	-0.869079
C67	C	1.136247	-0.462858	-0.966437
C68	C	1.192768	-0.299554	-0.640705
C69	C	1.192837	-0.241450	-0.640743
C70	C	1.313004	-0.378246	-1.279690
C71	C	1.328832	-0.370679	-1.188219
C72	C	1.280687	-0.393723	-1.132769
C73	C	1.216711	-0.424335	-1.168799
C74	C	1.200886	-0.431905	-1.260281
C75	C	1.168569	-0.447383	-1.113359
C76	C	1.104593	-0.477995	-1.149390
C77	C	1.088771	-0.485564	-1.240862
C78	C	1.136916	-0.462520	-1.296312
C79	C	1.184394	-0.439812	-1.021878
C80	C	1.072276	-0.493472	-1.002468
C81	C	1.056448	-0.501039	-1.093940
C82	C	1.232023	-0.417042	-0.413049
C83	C	1.249034	-0.408860	-0.315722
H84	H	0.563895	-0.329916	-0.485135
H85	H	0.841588	-0.465781	-0.684439
C86	C	0.802011	-0.507680	-0.745872
N87	N	0.877808	-0.516613	-0.758944
C88	C	1.054481	-0.737695	-0.737796
N89	N	1.000023	-0.758698	-0.776161
H90	H	1.073209	-0.631374	-0.724530
C91	C	1.330629	-0.745872	-0.543399
N92	N	1.385118	-0.770100	-0.505046
C93	C	1.019311	-0.518821	-0.941477
N94	N	0.979422	-0.537912	-0.895533
H95	H	0.710788	-0.307948	-0.452927
H96	H	1.124032	-0.468679	-1.370796
C97	C	0.986075	-0.534710	-1.133585
N98	N	0.933068	-0.560070	-1.163447
H99	H	0.876763	-0.327483	-0.481569
C100	C	0.685594	-0.576407	-0.846710
N101	N	0.715456	-0.612450	-0.899574
H102	H	1.312114	-1.239919	-0.556776
H103	H	1.236483	-0.414888	-0.992551
C104	C	0.493489	-0.553789	-0.813543
N105	N	0.447554	-0.580907	-0.853317
H106	H	1.007679	-0.979677	-0.770942
H107	H	1.073499	-1.133772	-0.724687
H108	H	1.293579	-0.387561	-1.058289
H109	H	1.036684	-0.510495	-1.270196
C110	C	1.330850	-1.133601	-0.543512
N111	N	1.385317	-1.112603	-0.505154
H112	H	0.463317	-0.389297	-0.572260
H113	H	1.311764	-0.638453	-0.556590
C114	C	1.396514	-0.999016	-0.497193
N115	N	1.451001	-1.023241	-0.458835
C116	C	1.396442	-0.884359	-0.497150
N117	N	1.450902	-0.863361	-0.458779
C118	C	1.054763	-1.240072	-0.737930
N119	N	1.000296	-1.261070	-0.776289
H120	H	1.380924	-0.345757	-1.158890
C121	C	0.988844	-0.872262	-0.784147
N122	N	0.934356	-0.848030	-0.822494
C123	C	1.365952	-0.352898	-1.340689
N124	N	1.405833	-0.333803	-1.386635
