data_functionalizedCrystal
_audit_creation_method	'MofGen! by Chris Wilmer'
_symmetry_space_group_name_H-M	'P1'
_symmetry_Int_Tables_number	1
_symmetry_cell_setting	triclinic
loop_
_symmetry_equiv_pos_as_xyz
  x,y,z
_cell_length_a	14.044191
_cell_length_b	14.044191
_cell_length_c	9.730217
_cell_angle_alpha	90.000957
_cell_angle_beta	89.999770
_cell_angle_gamma	86.808224
loop_
_atom_site_label
_atom_site_type_symbol
_atom_site_fract_x
_atom_site_fract_y
_atom_site_fract_z
O1	O	-0.230199	1.277174	-0.114203
O2	O	0.269801	1.777174	0.385797
O3	O	-0.221886	1.000501	-0.114221
O4	O	0.278114	1.500501	0.385779
O5	O	-0.087706	1.134681	-0.114215
O6	O	0.412294	1.634681	0.385785
O7	O	-0.364379	1.142994	-0.114209
O8	O	0.135621	1.642994	0.385791
O9	O	-0.087704	1.134677	0.114365
O10	O	0.412296	1.634677	0.614365
O11	O	-0.221884	1.000497	0.114359
O12	O	0.278116	1.500497	0.614359
O13	O	-0.230197	1.277170	0.114377
O14	O	0.269803	1.777170	0.614377
Zn15	Zn	-0.226040	1.138832	0.150660
Zn16	Zn	0.273960	1.638832	0.650660
Zn17	Zn	-0.226043	1.138838	-0.150504
Zn18	Zn	0.273957	1.638838	0.349496
O19	O	-0.364377	1.142990	0.114371
O20	O	0.135623	1.642990	0.614371
C21	C	-0.218249	0.964877	0.000067
C22	C	0.281751	1.464877	0.500067
C23	C	-0.207401	0.858734	0.000059
C24	C	0.292599	1.358734	0.500059
C25	C	-0.264502	0.613277	0.000074
C26	C	0.235498	1.113277	0.500074
C27	C	-0.187585	0.664400	0.000070
C28	C	0.312415	1.164400	0.500070
C29	C	-0.198614	0.772537	0.000064
C30	C	0.301386	1.272537	0.500064
C31	C	-0.253475	0.505130	0.000080
C32	C	0.246525	1.005130	0.500080
C33	C	-0.400000	1.146628	0.000082
C34	C	0.100000	1.646628	0.500082
C35	C	-0.506143	1.157476	0.000084
C36	C	-0.006143	1.657476	0.500084
C37	C	-0.751600	1.100375	0.000069
C38	C	-0.251600	1.600375	0.500069
C39	C	-0.700477	1.177292	0.000076
C40	C	-0.200477	1.677292	0.500076
C41	C	-0.592340	1.166263	0.000081
C42	C	-0.092340	1.666263	0.500081
C43	C	-0.859747	1.111402	0.000064
C44	C	-0.359747	1.611402	0.500064
C45	C	-0.052083	1.131043	0.000072
C46	C	0.447917	1.631043	0.500072
C47	C	0.054060	1.120195	0.000060
C48	C	0.554060	1.620195	0.500060
C49	C	-0.233834	1.312794	0.000087
C50	C	0.266166	1.812794	0.500087
C51	C	-0.244682	1.418937	0.000085
C52	C	0.255318	1.918937	0.500085
N53	N	-0.226039	1.138835	0.356197
N54	N	0.273961	1.638835	0.856197
N55	N	-0.226037	1.138843	-0.356040
N56	N	0.273963	1.638843	0.143960
C57	C	-0.107264	1.257707	0.356193
C58	C	0.392736	1.757707	0.856193
C59	C	-0.047880	1.317150	0.428131
C60	C	0.452120	1.817150	0.928131
C61	C	-0.047880	1.317160	0.572011
C62	C	0.452120	1.817160	1.072011
C63	C	-0.107269	1.257718	0.643956
C64	C	0.392731	1.757718	1.143956
C65	C	-0.166653	1.198276	0.572018
C66	C	0.333347	1.698276	1.072018
C67	C	-0.166648	1.198274	0.428135
C68	C	0.333352	1.698274	0.928135
C69	C	-0.285421	1.079400	0.572022
C70	C	0.214579	1.579400	1.072022
C71	C	-0.285427	1.079394	0.428142
C72	C	0.214573	1.579394	0.928142
C73	C	-0.344810	1.019958	0.643967
C74	C	0.155190	1.519958	1.143967
C75	C	-0.404200	0.960519	0.572029
C76	C	0.095800	1.460519	1.072029
C77	C	-0.404198	0.960513	0.428140
C78	C	0.095802	1.460513	0.928140
C79	C	-0.344811	1.019951	0.356204
C80	C	0.155189	1.519951	0.856204
H81	H	-0.338629	0.650720	0.000072
H82	H	0.161371	1.150720	0.500072
H83	H	0.000475	1.365545	0.369541
H84	H	0.500475	1.865545	0.869541
H85	H	-0.737922	1.251424	-0.000019
H86	H	-0.237922	1.751424	0.499981
H87	H	-0.344803	1.019964	0.761121
H88	H	0.155197	1.519964	1.261121
H89	H	-0.452552	0.912103	0.369576
H90	H	0.047448	1.412103	0.869576
H91	H	-0.714157	1.026248	0.000067
H92	H	-0.214157	1.526248	0.500067
H93	H	-0.107267	1.257714	0.239039
H94	H	0.392733	1.757714	0.739039
H95	H	0.000479	1.365559	0.630583
H96	H	0.500479	1.865559	1.130583
N97	N	-0.107269	1.257717	0.799139
N98	N	0.392731	1.757717	1.299139
H99	H	-0.041218	1.238351	0.833795
H100	H	0.458782	1.738351	1.333795
H101	H	-0.126727	1.323771	0.833688
H102	H	0.373273	1.823771	1.333688
H103	H	-0.452546	0.912122	0.630616
H104	H	0.047454	1.412122	1.130616
H105	H	-0.344808	1.019955	0.239050
H106	H	0.155192	1.519955	0.739050
N107	N	-0.089389	0.614802	0.000058
N108	N	0.410611	1.114802	0.500058
H109	H	-0.053532	0.633856	-0.084683
H110	H	0.446468	1.133856	0.415317
H111	H	-0.053596	0.633875	0.084843
H112	H	0.446404	1.133875	0.584843
