data_functionalizedCrystal
_audit_creation_method	'MofGen! by Chris Wilmer'
_symmetry_space_group_name_H-M	'P1'
_symmetry_Int_Tables_number	1
_symmetry_cell_setting	triclinic
loop_
_symmetry_equiv_pos_as_xyz
  x,y,z
_cell_length_a	12.970454
_cell_length_b	14.560438
_cell_length_c	14.560438
_cell_angle_alpha	59.999496
_cell_angle_beta	89.999747
_cell_angle_gamma	59.996599
loop_
_atom_site_label
_atom_site_type_symbol
_atom_site_fract_x
_atom_site_fract_y
_atom_site_fract_z
Zr1	Zr	0.993140	1.005341	-0.120592
O2	O	0.828500	1.196954	-0.267246
O3	O	1.043622	0.813727	-0.075628
O4	O	1.043606	1.005339	-0.267239
O5	O	0.828517	1.005345	0.075503
O6	O	1.213273	1.005338	-0.267241
O7	O	0.828516	1.005343	-0.075635
O8	O	1.213302	0.662580	0.075517
O9	O	0.828488	1.348103	-0.267255
O10	O	1.191760	0.892541	-0.056461
O11	O	1.065140	0.892543	0.056333
O12	O	1.065121	1.118141	-0.169264
O13	O	0.938500	1.118144	-0.056470
Zr14	Zr	1.263742	1.005344	0.120452
Zr15	Zr	1.263740	1.005340	-0.120596
Zr16	Zr	0.993142	1.005345	0.120456
Zr17	Zr	0.993121	1.246407	-0.120605
Zr18	Zr	1.263761	0.764279	0.120465
O19	O	1.213260	1.196958	0.075488
O20	O	1.213258	1.196953	-0.267252
O21	O	0.828502	1.196960	0.075493
O22	O	1.428382	0.813731	0.267106
O23	O	1.428380	0.813725	-0.075633
O24	O	1.043624	0.813733	0.267112
O25	O	1.428365	1.005340	-0.075643
O26	O	1.213276	1.005347	0.267099
O27	O	1.043609	1.005348	0.267101
O28	O	1.428366	1.005343	0.075495
O29	O	1.043578	1.348102	-0.267258
O30	O	1.213304	0.662583	0.267118
O31	O	1.428395	0.662582	0.267115
O32	O	1.428393	0.662579	0.075514
O33	O	0.828489	1.348107	-0.075654
O34	O	1.043580	1.348106	-0.075657
O35	O	1.191761	0.892545	0.169124
O36	O	1.318382	0.892542	0.056330
O37	O	1.191742	1.118142	-0.056473
O38	O	1.065122	1.118145	0.056321
C39	C	0.789962	1.005344	-0.000065
C40	C	0.675085	1.005345	-0.000064
C41	C	1.128443	1.005348	0.301444
C42	C	1.128443	1.005350	0.403776
C43	C	1.128417	1.306879	-0.000086
C44	C	1.128409	1.409217	-0.000092
C45	C	1.466920	1.005341	-0.000075
C46	C	1.581797	1.005341	-0.000076
C47	C	1.128465	0.703807	-0.000054
C48	C	1.128473	0.601469	-0.000048
C49	C	1.062326	1.457286	0.058794
C50	C	1.062362	1.553410	0.058819
C51	C	1.194564	1.553390	-0.058936
C52	C	1.194535	1.457262	-0.058954
C53	C	1.128439	1.005338	-0.301584
C54	C	1.128439	1.005336	-0.403916
C55	C	1.062341	1.123108	0.392972
C56	C	1.062334	1.123102	0.489127
C57	C	1.194543	0.887568	0.606886
C58	C	1.194542	0.887576	0.510732
C59	C	1.466944	0.703805	-0.000058
C60	C	1.581829	0.601466	-0.000054
C61	C	1.128467	0.703812	0.301461
C62	C	1.128476	0.601475	0.403798
C63	C	1.466946	0.703810	0.301456
C64	C	1.581832	0.601473	0.403791
C65	C	0.789936	1.306875	-0.301596
C66	C	0.675050	1.409212	-0.403931
C67	C	0.789938	1.306880	-0.000082
C68	C	0.675053	1.409219	-0.000086
C69	C	1.128415	1.306874	-0.301601
C70	C	1.128406	1.409210	-0.403937
C71	C	1.635789	0.470126	0.083220
C72	C	1.743724	0.373954	0.083227
C73	C	1.797704	0.409125	-0.000036
C74	C	1.743735	0.540479	-0.083318
C75	C	1.635796	0.636648	-0.083329
C76	C	1.635798	0.470133	0.451853
C77	C	1.743758	0.373961	0.547997
C78	C	1.797743	0.409133	0.596082
C79	C	1.743771	0.540486	0.548012
C80	C	1.635819	0.636655	0.451865
C81	C	0.621093	1.540553	-0.452001
C82	C	0.513157	1.636724	-0.548167
C83	C	0.459177	1.601552	-0.596256
C84	C	0.513144	1.470199	-0.548181
C85	C	0.621082	1.374030	-0.452022
C86	C	0.621107	1.374008	0.083192
C87	C	0.513172	1.470153	0.083211
C88	C	0.459178	1.601509	-0.000053
C89	C	0.513133	1.636720	-0.083335
C90	C	0.621072	1.540576	-0.083349
C91	C	1.194574	0.553396	0.510751
C92	C	1.194567	0.457249	0.606904
C93	C	1.062363	0.457265	0.489135
C94	C	1.062363	0.553417	0.392985
H95	H	1.008551	1.592543	0.106771
H96	H	1.591883	0.743597	0.412745
H97	H	1.248402	0.592527	0.519562
H98	H	1.248361	0.791681	0.693980
H99	H	0.469176	1.441579	-0.587349
H100	H	1.248389	0.418109	0.693987
H101	H	1.248401	1.592519	-0.106862
H102	H	1.008505	1.218993	0.480320
N103	N	1.801980	0.578398	-0.173105
H104	H	1.751428	0.676196	-0.225867
H105	H	1.801821	0.542124	-0.216768
H106	H	0.664983	1.569265	-0.151169
N107	N	1.265819	1.405402	-0.122464
H108	H	1.307707	1.450430	-0.159757
H109	H	1.205114	1.422161	-0.181665
H110	H	0.469230	1.743671	-0.587294
N111	N	1.265852	0.760558	0.522379
H112	H	1.307738	0.685948	0.604724
H113	H	1.332296	0.755445	0.485047
N114	N	0.991064	1.250129	0.277613
H115	H	0.949191	1.324727	0.285364
H116	H	0.924612	1.255277	0.235139
H117	H	1.591853	0.441464	0.151026
N118	N	1.802006	0.578411	0.599880
H119	H	1.878578	0.497550	0.668082
H120	H	1.738198	0.631570	0.623129
H121	H	1.591857	0.441471	0.412714
N122	N	0.991068	0.405422	0.477475
H123	H	1.001102	0.337210	0.554614
H124	H	1.025780	0.365603	0.434957
N125	N	1.577606	0.778308	-0.173148
H126	H	1.628190	0.785983	-0.225885
H127	H	1.577783	0.821829	-0.136738
H128	H	1.008532	0.592567	0.305892
N129	N	0.679312	1.578497	-0.400144
H130	H	0.615577	1.631650	-0.376847
H131	H	0.705488	1.631571	-0.456968
H132	H	0.371286	1.679872	-0.674554
H133	H	0.469254	1.441458	0.151030
N134	N	1.801898	0.232290	0.173036
H135	H	1.751317	0.224612	0.225776
H136	H	1.891644	0.188724	0.216721
H137	H	1.008483	1.418170	0.106724
N138	N	1.914116	0.305393	-0.000024
H139	H	1.940100	0.216855	0.065369
H140	H	1.985000	0.315017	0.007287
N141	N	0.679273	1.232370	-0.400178
H142	H	0.628688	1.224695	-0.445239
H143	H	0.679098	1.188847	-0.320246
N144	N	0.679338	1.232338	0.173017
H145	H	0.755906	1.176758	0.160386
H146	H	0.615524	1.212776	0.169353
N147	N	1.914166	0.305396	0.699793
H148	H	1.940184	0.347598	0.722971
H149	H	1.985029	0.249572	0.682833
N150	N	1.801939	0.232298	0.599840
H151	H	1.878523	0.176700	0.668043
H152	H	1.828000	0.212752	0.542983
H153	H	0.469156	1.743682	-0.151125
N154	N	0.342759	1.705200	-0.000030
H155	H	0.316784	1.662950	0.065364
H156	H	0.271875	1.761028	-0.072801
