data_functionalizedCrystal
_audit_creation_method	'MofGen! by Chris Wilmer'
_symmetry_space_group_name_H-M	'P1'
_symmetry_Int_Tables_number	1
_symmetry_cell_setting	triclinic
loop_
_symmetry_equiv_pos_as_xyz
  x,y,z
_cell_length_a	27.732064
_cell_length_b	14.519709
_cell_length_c	13.596369
_cell_angle_alpha	89.999709
_cell_angle_beta	89.998103
_cell_angle_gamma	96.835216
loop_
_atom_site_label
_atom_site_type_symbol
_atom_site_fract_x
_atom_site_fract_y
_atom_site_fract_z
O1	O	0.063362	-1.222773	-0.081654
O2	O	0.396695	-0.889440	0.251679
O3	O	0.730028	-0.556107	0.585013
O4	O	0.070823	-0.954167	-0.081683
O5	O	0.404157	-0.620834	0.251650
O6	O	0.737490	-0.287501	0.584984
O7	O	-0.003264	-1.096805	-0.081672
O8	O	0.330069	-0.763471	0.251662
O9	O	0.663403	-0.430138	0.584995
O10	O	0.137449	-1.080136	-0.081666
O11	O	0.470782	-0.746803	0.251668
O12	O	0.804115	-0.413469	0.585001
O13	O	-0.003268	-1.096791	0.081911
O14	O	0.330066	-0.763457	0.415245
O15	O	0.663399	-0.430124	0.748578
O16	O	0.070819	-0.954153	0.081900
O17	O	0.404153	-0.620820	0.415233
O18	O	0.737486	-0.287487	0.748566
O19	O	0.063358	-1.222759	0.081929
O20	O	0.396691	-0.889426	0.415262
O21	O	0.730024	-0.556093	0.748595
Zn22	Zn	0.067088	-1.088454	0.107887
Zn23	Zn	0.400421	-0.755121	0.441220
Zn24	Zn	0.733755	-0.421787	0.774553
Zn25	Zn	0.067093	-1.088473	-0.107641
Zn26	Zn	0.400426	-0.755139	0.225692
Zn27	Zn	0.733760	-0.421806	0.559026
O28	O	0.137445	-1.080122	0.081917
O29	O	0.470778	-0.746789	0.415251
O30	O	0.804111	-0.413455	0.748584
C31	C	0.070473	-0.919807	0.000104
C32	C	0.403807	-0.586473	0.333438
C33	C	0.737140	-0.253140	0.666771
C34	C	0.069431	-0.817443	0.000093
C35	C	0.402765	-0.484110	0.333426
C36	C	0.736098	-0.150777	0.666760
C37	C	-0.021274	-1.096445	0.000117
C38	C	0.312059	-0.763112	0.333450
C39	C	0.645392	-0.429779	0.666783
C40	C	-0.074934	-1.095385	0.000107
C41	C	0.258400	-0.762051	0.333441
C42	C	0.591733	-0.428718	0.666774
C43	C	0.063707	-1.257120	0.000139
C44	C	0.397041	-0.923787	0.333472
C45	C	0.730374	-0.590453	0.666806
C46	C	0.064749	-1.359483	0.000144
C47	C	0.398083	-1.026150	0.333477
C48	C	0.731416	-0.692817	0.666811
C49	C	-0.452444	-1.003873	0.000094
C50	C	-0.119111	-0.670539	0.333427
C51	C	0.214223	-0.337206	0.666760
C52	C	-0.250765	-1.007776	0.000093
C53	C	0.082568	-0.674443	0.333426
C54	C	0.415902	-0.341110	0.666760
O55	O	-0.219852	-0.936766	0.000046
O56	O	0.113482	-0.603432	0.333379
O57	O	0.446815	-0.270099	0.666713
N58	N	-0.231233	-1.092358	0.000102
N59	N	0.102100	-0.759024	0.333435
N60	N	0.435433	-0.425691	0.666769
C61	C	-0.262125	-1.175969	0.000105
C62	C	0.071209	-0.842636	0.333438
C63	C	0.404542	-0.509302	0.666771
O64	O	-0.240884	-1.248000	0.000102
O65	O	0.092449	-0.914667	0.333436
O66	O	0.425782	-0.581333	0.666769
C67	C	-0.463803	-1.172064	0.000099
C68	C	-0.130469	-0.838731	0.333432
C69	C	0.202864	-0.505398	0.666765
C70	C	-0.483331	-1.087477	0.000099
C71	C	-0.149998	-0.754144	0.333433
C72	C	0.183335	-0.420811	0.666766
C73	C	-0.471973	-0.919293	0.000094
C74	C	-0.138640	-0.585959	0.333427
C75	C	0.194693	-0.252626	0.666760
C76	C	-0.522390	-0.918318	0.000099
C77	C	-0.189057	-0.584984	0.333433
C78	C	0.144277	-0.251651	0.666766
C79	C	-0.553278	-1.001922	0.000105
C80	C	-0.219944	-0.668589	0.333438
C81	C	0.113389	-0.335256	0.666772
C82	C	-0.533748	-1.086502	0.000105
C83	C	-0.200415	-0.753169	0.333438
C84	C	0.132918	-0.419836	0.666772
C85	C	-0.494693	-1.255675	0.000094
C86	C	-0.161360	-0.922341	0.333428
C87	C	0.171973	-0.589008	0.666761
C88	C	-0.545115	-1.254691	0.000090
C89	C	-0.211782	-0.921357	0.333424
C90	C	0.121551	-0.588024	0.666757
C91	C	-0.564644	-1.170104	0.000091
C92	C	-0.231311	-0.836771	0.333425
C93	C	0.102023	-0.503437	0.666758
C94	C	-0.615053	-1.169132	0.000116
C95	C	-0.281719	-0.835799	0.333450
C96	C	0.051614	-0.502466	0.666783
N97	N	-0.634584	-1.084551	0.000107
N98	N	-0.301251	-0.751218	0.333441
N99	N	0.032082	-0.417884	0.666774
C100	C	-0.603697	-1.000946	0.000102
C101	C	-0.270363	-0.667613	0.333435
C102	C	0.062970	-0.334279	0.666768
C103	C	-0.156241	-1.178013	0.000110
C104	C	0.177093	-0.844680	0.333443
C105	C	0.510426	-0.511346	0.666777
C106	C	-0.105821	-1.178990	0.000113
C107	C	0.227512	-0.845656	0.333447
C108	C	0.560845	-0.512323	0.666780
C109	C	-0.094465	-1.010797	0.000100
C110	C	0.238868	-0.677463	0.333433
C111	C	0.572202	-0.344130	0.666766
C112	C	-0.144885	-1.009821	0.000103
C113	C	0.188448	-0.676488	0.333437
C114	C	0.521781	-0.343154	0.666770
C115	C	-0.175772	-1.093432	0.000101
C116	C	0.157561	-0.760098	0.333434
C117	C	0.490894	-0.426765	0.666768
C118	C	-0.709576	-0.998905	0.000114
C119	C	-0.376243	-0.665571	0.333447
C120	C	-0.042909	-0.332238	0.666781
C121	C	-0.759998	-0.997937	0.000124
C122	C	-0.426664	-0.664604	0.333457
C123	C	-0.093331	-0.331270	0.666790
C124	C	-0.771350	-1.166130	0.000132
C125	C	-0.438016	-0.832796	0.333466
C126	C	-0.104683	-0.499463	0.666799
C127	C	-0.720932	-1.167098	0.000128
C128	C	-0.387599	-0.833764	0.333461
C129	C	-0.054266	-0.500431	0.666794
C130	C	-0.690046	-1.083478	0.000115
C131	C	-0.356713	-0.750144	0.333449
C132	C	-0.023380	-0.416811	0.666782
O133	O	-0.645994	-1.240105	0.000152
O134	O	-0.312661	-0.906771	0.333486
O135	O	0.020672	-0.573438	0.666819
O136	O	-0.624947	-0.928925	0.000082
O137	O	-0.291613	-0.595592	0.333416
O138	O	0.041720	-0.262259	0.666749
C139	C	-0.402027	-1.004848	0.000088
C140	C	-0.068694	-0.671514	0.333422
C141	C	0.264639	-0.338181	0.666755
C142	C	-0.382498	-1.089428	0.000088
C143	C	-0.049165	-0.756094	0.333422
C144	C	0.284169	-0.422761	0.666755
C145	C	-0.413385	-1.173032	0.000094
C146	C	-0.080052	-0.839699	0.333427
C147	C	0.253281	-0.506366	0.666761
C148	C	-0.332079	-1.090404	0.000092
C149	C	0.001255	-0.757071	0.333425
C150	C	0.334588	-0.423737	0.666758
C151	C	-0.301191	-1.006799	0.000086
C152	C	0.032142	-0.673466	0.333419
C153	C	0.365475	-0.340132	0.666753
C154	C	-0.320723	-0.922218	0.000077
C155	C	0.012610	-0.588884	0.333410
C156	C	0.345944	-0.255551	0.666744
C157	C	-0.371140	-0.921243	0.000082
C158	C	-0.037806	-0.587909	0.333416
C159	C	0.295527	-0.254576	0.666749
C160	C	-0.393854	-1.257614	0.000103
C161	C	-0.060520	-0.924280	0.333436
C162	C	0.272813	-0.590947	0.666770
C163	C	-0.343436	-1.258582	0.000099
C164	C	-0.010103	-0.925249	0.333432
C165	C	0.323230	-0.591915	0.666765
C166	C	-0.312549	-1.174977	0.000093
C167	C	0.020784	-0.841644	0.333426
C168	C	0.354118	-0.508310	0.666760
C169	C	0.155455	-1.080481	0.000127
C170	C	0.488789	-0.747148	0.333460
C171	C	0.822122	-0.413815	0.666793
C172	C	0.209115	-1.081542	0.000130
C173	C	0.542448	-0.748209	0.333463
C174	C	0.875781	-0.414875	0.666796
N175	N	0.067084	-1.088448	0.254978
N176	N	0.400417	-0.755115	0.588312
N177	N	0.733751	-0.421782	0.921645
C178	C	0.065595	-0.442614	0.000138
C179	C	0.398929	-0.109281	0.333471
C180	C	0.732262	0.224053	0.666804
C181	C	0.066661	-0.546903	0.000125
C182	C	0.399994	-0.213570	0.333458
C183	C	0.733327	0.119763	0.666792
C184	C	0.067513	-0.630025	0.000114
C185	C	0.400847	-0.296692	0.333448
C186	C	0.734180	0.036641	0.666781
C187	C	0.068579	-0.734321	0.000104
C188	C	0.401912	-0.400988	0.333437
C189	C	0.735245	-0.067655	0.666770
N190	N	0.067093	-1.088486	-0.254733
N191	N	0.400426	-0.755152	0.078601
N192	N	0.733760	-0.421819	0.411934
C193	C	0.067094	-1.088471	0.656269
C194	C	0.400427	-0.755138	0.989603
C195	C	0.733760	-0.421805	1.322936
C196	C	0.067093	-1.088462	0.544618
C197	C	0.400426	-0.755129	0.877951
C198	C	0.733759	-0.421795	1.211285
C199	C	0.067089	-1.088460	0.455627
C200	C	0.400423	-0.755127	0.788961
C201	C	0.733756	-0.421794	1.122294
C202	C	0.067087	-1.088450	0.343969
C203	C	0.400421	-0.755117	0.677302
C204	C	0.733754	-0.421783	1.010636
H205	H	-0.775895	-0.929053	0.000129
H206	H	-0.442562	-0.595720	0.333462
H207	H	-0.109228	-0.262387	0.666796
F208	F	-0.322659	-1.348617	0.000099
F209	F	0.010675	-1.015284	0.333433
F210	F	0.344008	-0.681951	0.666766
H211	H	-0.684434	-0.930813	0.000104
H212	H	-0.351101	-0.597480	0.333437
H213	H	-0.017767	-0.264147	0.666770
H214	H	-0.478802	-1.324554	0.000093
H215	H	-0.145469	-0.991221	0.333426
H216	H	0.187865	-0.657887	0.666759
H217	H	-0.418998	-1.325697	0.000107
H218	H	-0.085665	-0.992363	0.333440
H219	H	0.247669	-0.659030	0.666773
H220	H	-0.387035	-0.852364	0.000084
H221	H	-0.053702	-0.519030	0.333417
H222	H	0.279632	-0.185697	0.666751
F223	F	-0.085043	-1.269018	0.000127
F224	F	0.248290	-0.935685	0.333460
F225	F	0.581624	-0.602351	0.666793
H226	H	-0.295565	-0.854144	0.000078
H227	H	0.037768	-0.520811	0.333412
H228	H	0.371101	-0.187477	0.666745
H229	H	-0.570262	-1.322779	0.000083
H230	H	-0.236928	-0.989445	0.333416
H231	H	0.096405	-0.656112	0.666750
H232	H	-0.538285	-0.849438	0.000091
H233	H	-0.204952	-0.516105	0.333425
H234	H	0.128381	-0.182772	0.666758
H235	H	-0.160782	-0.940943	0.000108
H236	H	0.172552	-0.607610	0.333441
H237	H	0.505885	-0.274276	0.666775
F238	F	-0.189108	-1.267009	0.000112
F239	F	0.144226	-0.933676	0.333445
F240	F	0.477559	-0.600343	0.666778
F241	F	-0.700148	-1.257124	0.000158
F242	F	-0.366814	-0.923790	0.333491
F243	F	-0.033481	-0.590457	0.666825
H244	H	-0.796507	-1.234198	0.000142
H245	H	-0.463174	-0.900865	0.333475
H246	H	-0.129840	-0.567532	0.666808
H247	H	-0.446829	-0.851208	0.000086
H248	H	-0.113496	-0.517874	0.333419
H249	H	0.219838	-0.184541	0.666752
H250	H	-0.069308	-0.942722	0.000099
H251	H	0.264026	-0.609389	0.333433
H252	H	0.597359	-0.276056	0.666766
