data_functionalizedCrystal
_audit_creation_method	'MofGen! by Chris Wilmer'
_symmetry_space_group_name_H-M	'P1'
_symmetry_Int_Tables_number	1
_symmetry_cell_setting	triclinic
loop_
_symmetry_equiv_pos_as_xyz
  x,y,z
_cell_length_a	19.288864
_cell_length_b	10.654541
_cell_length_c	18.366186
_cell_angle_alpha	89.994034
_cell_angle_beta	89.977106
_cell_angle_gamma	83.810087
loop_
_atom_site_label
_atom_site_type_symbol
_atom_site_fract_x
_atom_site_fract_y
_atom_site_fract_z
O1	O	0.922378	0.156657	-0.060783
O2	O	0.720255	0.177790	-0.060733
O3	O	0.825965	-0.015616	-0.060755
O4	O	0.816669	0.350062	-0.060761
O5	O	0.825946	-0.015625	0.060344
O6	O	0.720237	0.177780	0.060366
O7	O	0.922360	0.156647	0.060316
Zn8	Zn	0.821296	0.167212	0.079568
Zn9	Zn	0.821319	0.167225	-0.079985
O10	O	0.816650	0.350053	0.060338
C11	C	0.694365	0.177105	-0.000177
C12	C	0.617248	0.175064	-0.000158
C13	C	0.573295	0.288545	-0.000172
C14	C	0.500835	0.286627	-0.000180
C15	C	0.472332	0.171222	-0.000189
C16	C	0.516296	0.057725	-0.000171
C17	C	0.588754	0.059646	-0.000156
C18	C	0.363483	0.080504	-0.042638
C19	C	0.291026	0.078587	-0.042658
C20	C	0.248848	0.165292	-0.000233
C21	C	0.279134	0.253935	0.042203
C22	C	0.351592	0.255856	0.042218
C23	C	0.393765	0.169126	-0.000205
C24	C	0.126325	0.276702	-0.000254
C25	C	0.053864	0.274780	-0.000257
C26	C	0.069327	0.045875	-0.000256
C27	C	0.141786	0.047800	-0.000245
C28	C	0.170280	0.163218	-0.000248
C29	C	0.825273	-0.062404	-0.000205
C30	C	0.823232	-0.201804	-0.000206
C31	C	0.949636	-0.232480	-0.000228
C32	C	1.011877	-0.313307	-0.000237
C33	C	1.009955	-0.444284	-0.000239
C34	C	0.945785	-0.494436	-0.000234
C35	C	0.883545	-0.413609	-0.000225
C36	C	0.885474	-0.282631	-0.000221
C37	C	0.757142	-0.382933	-0.000208
C38	C	0.759063	-0.251955	-0.000201
C39	C	0.692973	-0.433084	-0.000203
C40	C	0.630732	-0.352257	-0.000188
C41	C	0.632656	-0.221273	-0.000186
C42	C	0.696823	-0.171129	-0.000192
C43	C	0.948250	0.157332	-0.000241
C44	C	1.025367	0.159373	-0.000265
C45	C	0.817342	0.396841	-0.000213
C46	C	0.819383	0.536241	-0.000217
N47	N	0.821284	0.167203	0.188459
N48	N	0.821336	0.167224	-0.188876
C49	C	0.868108	0.081605	0.226550
C50	C	0.868112	0.081599	0.302778
C51	C	0.821300	0.167213	0.340912
C52	C	0.774467	0.252818	0.302812
C53	C	0.774459	0.252813	0.226586
C54	C	0.812750	0.281635	0.461672
C55	C	0.812763	0.281642	0.537897
C56	C	0.821320	0.167229	0.576020
C57	C	0.829878	0.052805	0.537908
C58	C	0.829871	0.052799	0.461682
C59	C	0.821303	0.167228	0.423567
C60	C	0.868151	0.081618	0.696765
C61	C	0.868150	0.081611	0.772995
C62	C	0.774508	0.252840	0.773027
C63	C	0.774505	0.252836	0.696800
C64	C	0.821330	0.167227	0.658673
H65	H	0.046121	-0.048091	-0.000309
H66	H	0.691413	-0.539734	-0.000209
H67	H	0.244794	0.324538	0.076750
H68	H	0.906276	0.011905	0.665722
H69	H	0.944226	-0.601085	-0.000244
H70	H	0.698396	-0.064483	-0.000185
N71	N	0.408973	-0.013016	-0.088402
H72	H	0.442659	-0.066160	-0.055898
H73	H	0.378744	-0.069367	-0.115284
N74	N	0.723974	0.345151	0.343942
H75	H	0.750782	0.400639	0.375547
H76	H	0.694320	0.399293	0.308196
N77	N	0.561527	-0.406346	-0.000189
H78	H	0.569754	-0.501584	-0.000196
H79	H	0.534253	-0.376774	0.044711
H80	H	0.906278	0.011900	0.804009
H81	H	0.906234	0.011894	0.195510
H82	H	0.836846	-0.040361	0.568946
H83	H	0.596490	0.382527	-0.000175
H84	H	0.805770	0.374810	0.430638
N85	N	0.157067	0.401178	-0.000244
H86	H	0.186807	0.407084	-0.045131
H87	H	0.118186	0.472708	-0.000219
H88	H	0.493085	-0.036239	-0.000189
N89	N	0.006475	0.397211	-0.000261
H90	H	-0.023915	0.401549	-0.045153
H91	H	-0.023905	0.401457	0.044660
N92	N	0.723951	0.345143	0.185503
H93	H	0.732375	0.434237	0.198758
H94	H	0.731074	0.332044	0.131441
H95	H	0.177574	-0.044609	-0.000238
H96	H	0.266373	0.006414	-0.077214
N97	N	0.839099	-0.070605	0.420577
H98	H	0.882078	-0.073545	0.388931
H99	H	0.844492	-0.143015	0.456337
N100	N	0.724010	0.345172	0.814147
H101	H	0.750814	0.400661	0.845757
H102	H	0.694359	0.399313	0.778399
H103	H	1.064122	-0.272459	-0.000235
N104	N	0.453415	0.409029	-0.000196
H105	H	0.482462	0.482435	-0.000195
H106	H	0.423044	0.413206	-0.045097
N107	N	0.803528	0.405048	0.579000
H108	H	0.798094	0.477527	0.543284
H109	H	0.760557	0.407857	0.610647
N110	N	0.951704	-0.091212	-0.000218
H111	H	0.976968	-0.065697	0.044673
H112	H	0.976978	-0.065763	-0.045140
N113	N	0.384261	0.351449	0.087987
H114	H	0.346551	0.406089	0.114863
H115	H	0.417424	0.306025	0.124230
N116	N	0.636160	-0.062764	-0.000148
H117	H	0.666591	-0.067066	-0.045034
H118	H	0.666499	-0.067000	0.044779
H119	H	1.060636	-0.510094	-0.000252
H120	H	0.736380	0.322543	0.665784
H121	H	0.581972	-0.155470	-0.000181
H122	H	0.906243	0.011893	0.333797
