data_functionalizedCrystal
_audit_creation_method	'MofGen! by Chris Wilmer'
_symmetry_space_group_name_H-M	'P1'
_symmetry_Int_Tables_number	1
_symmetry_cell_setting	triclinic
loop_
_symmetry_equiv_pos_as_xyz
  x,y,z
_cell_length_a	6.817900
_cell_length_b	14.858329
_cell_length_c	14.858340
_cell_angle_alpha	94.735759
_cell_angle_beta	104.519754
_cell_angle_gamma	104.519616
loop_
_atom_site_label
_atom_site_type_symbol
_atom_site_fract_x
_atom_site_fract_y
_atom_site_fract_z
V1	V	-4.043500	-0.129264	-0.290227
V2	V	-3.793500	0.120736	-0.040227
V3	V	-3.543500	0.370736	0.209773
V4	V	-3.293500	0.620736	0.459773
O5	O	-4.025343	0.005601	-0.284429
O6	O	-3.775343	0.255601	-0.034429
O7	O	-3.525343	0.505601	0.215571
O8	O	-3.275343	0.755601	0.465571
O9	O	-4.000049	-0.255722	-0.288504
O10	O	-3.750049	-0.005722	-0.038504
O11	O	-3.500049	0.244278	0.211496
O12	O	-3.250049	0.494278	0.461496
O13	O	-4.000051	-0.127543	-0.416685
O14	O	-3.750051	0.122457	-0.166685
O15	O	-3.500051	0.372457	0.083315
O16	O	-3.250051	0.622457	0.333315
O17	O	-4.025341	-0.123464	-0.155361
O18	O	-3.775341	0.126536	0.094639
O19	O	-3.525341	0.376536	0.344639
O20	O	-3.275341	0.626536	0.594639
V21	V	-4.525845	-0.113101	-0.274064
V22	V	-4.275845	0.136899	-0.024064
V23	V	-4.025845	0.386899	0.225936
V24	V	-3.775845	0.636899	0.475936
O25	O	-4.307342	-0.164719	-0.325681
O26	O	-4.057342	0.085281	-0.075681
O27	O	-3.807342	0.335281	0.174319
O28	O	-3.557342	0.585281	0.424319
O29	O	-4.712200	-0.077646	-0.238609
O30	O	-4.462200	0.172354	0.011391
O31	O	-4.212200	0.422354	0.261391
O32	O	-3.962200	0.672354	0.511391
O33	O	-4.346089	0.013357	-0.275786
O34	O	-4.096089	0.263357	-0.025786
O35	O	-3.846089	0.513357	0.224214
O36	O	-3.596089	0.763357	0.474214
O37	O	-4.661399	-0.247966	-0.279861
O38	O	-4.411399	0.002034	-0.029861
O39	O	-4.161399	0.252034	0.220139
O40	O	-3.911399	0.502034	0.470139
O41	O	-4.661401	-0.118901	-0.408929
O42	O	-4.411401	0.131099	-0.158929
O43	O	-4.161401	0.381099	0.091071
O44	O	-3.911401	0.631099	0.341071
O45	O	-4.346087	-0.114821	-0.147606
O46	O	-4.096087	0.135179	0.102394
O47	O	-3.846087	0.385179	0.352394
O48	O	-3.596087	0.635179	0.602394
C49	C	-3.846094	-0.286541	-0.283993
C50	C	-3.596094	-0.036541	-0.033993
C51	C	-3.346094	0.213459	0.216007
C52	C	-3.096094	0.463459	0.466007
C53	C	-3.891888	-0.389924	-0.283428
C54	C	-3.641888	-0.139924	-0.033428
C55	C	-3.391888	0.110076	0.216572
C56	C	-3.141888	0.360076	0.466572
C57	C	-3.929071	-0.473881	-0.282960
C58	C	-3.679071	-0.223881	-0.032960
C59	C	-3.429071	0.026119	0.217040
C60	C	-3.179071	0.276119	0.467040
C61	C	-3.975738	-0.579209	-0.282377
C62	C	-3.725738	-0.329209	-0.032377
C63	C	-3.475738	-0.079209	0.217623
C64	C	-3.225738	0.170791	0.467623
C65	C	-4.012950	-0.663161	-0.281914
C66	C	-3.762950	-0.413161	-0.031914
C67	C	-3.512950	-0.163161	0.218086
C68	C	-3.262950	0.086839	0.468086
C69	C	-4.059620	-0.768496	-0.281330
C70	C	-3.809620	-0.518496	-0.031330
C71	C	-3.559620	-0.268496	0.218670
C72	C	-3.309620	-0.018496	0.468670
C73	C	-3.846095	-0.123036	-0.447499
C74	C	-3.596095	0.126964	-0.197499
C75	C	-3.346095	0.376964	0.052501
C76	C	-3.096095	0.626964	0.302501
C77	C	-3.891888	-0.122466	-0.550881
C78	C	-3.641888	0.127534	-0.300881
C79	C	-3.391888	0.377534	-0.050881
C80	C	-3.141888	0.627534	0.199119
C81	C	-3.929073	-0.122002	-0.634839
C82	C	-3.679073	0.127998	-0.384839
C83	C	-3.429073	0.377998	-0.134839
C84	C	-3.179073	0.627998	0.115161
C85	C	-3.975740	-0.121416	-0.740167
C86	C	-3.725740	0.128584	-0.490167
C87	C	-3.475740	0.378584	-0.240167
C88	C	-3.225740	0.628584	0.009833
C89	C	-4.012950	-0.120949	-0.824118
C90	C	-3.762950	0.129051	-0.574118
C91	C	-3.512950	0.379051	-0.324118
C92	C	-3.262950	0.629051	-0.074118
C93	C	-4.059621	-0.120365	-0.929452
C94	C	-3.809621	0.129635	-0.679452
C95	C	-3.559621	0.379635	-0.429452
C96	C	-3.309621	0.629635	-0.179452
C97	C	-4.163386	0.044171	-0.280295
C98	C	-3.913386	0.294171	-0.030295
C99	C	-3.663386	0.544171	0.219705
C100	C	-3.413386	0.794171	0.469705
C101	C	-4.096831	0.147553	-0.280866
C102	C	-3.846831	0.397553	-0.030866
C103	C	-3.596831	0.647553	0.219134
C104	C	-3.346831	0.897553	0.469134
C105	C	-4.163385	-0.119332	-0.116786
C106	C	-3.913385	0.130668	0.133214
C107	C	-3.663385	0.380668	0.383214
C108	C	-3.413385	0.630668	0.633214
C109	C	-4.096831	-0.119898	-0.013403
C110	C	-3.846831	0.130102	0.236597
C111	C	-3.596831	0.380102	0.486597
C112	C	-3.346831	0.630102	0.736597
