data_functionalizedCrystal
_audit_creation_method	'MofGen! by Chris Wilmer'
_symmetry_space_group_name_H-M	'P1'
_symmetry_Int_Tables_number	1
_symmetry_cell_setting	triclinic
loop_
_symmetry_equiv_pos_as_xyz
  x,y,z
_cell_length_a	14.044220
_cell_length_b	10.654551
_cell_length_c	12.503552
_cell_angle_alpha	93.556617
_cell_angle_beta	86.160109
_cell_angle_gamma	88.837120
loop_
_atom_site_label
_atom_site_type_symbol
_atom_site_fract_x
_atom_site_fract_y
_atom_site_fract_z
O1	O	1.265120	0.296344	-0.089194
O2	O	0.989081	0.285409	-0.089221
O3	O	1.133447	0.108775	-0.089208
O4	O	1.120754	0.472978	-0.089208
O5	O	1.122577	0.122071	0.089434
O6	O	0.978211	0.298704	0.089420
O7	O	1.254250	0.309640	0.089448
Cu8	Cu	1.115238	0.305386	0.105745
Cu9	Cu	1.128093	0.289663	-0.105519
O10	O	1.109885	0.486273	0.089434
C11	C	1.127080	0.068531	0.000111
C12	C	1.124291	-0.071193	0.000103
C13	C	0.948300	0.287270	0.000096
C14	C	0.842981	0.272994	0.000085
C15	C	1.128908	-0.144083	-0.097273
C16	C	1.126279	-0.275368	-0.097268
C17	C	1.114421	-0.260859	0.097497
C18	C	1.117043	-0.129577	0.097491
C19	C	1.136157	-0.085700	-0.194660
C20	C	1.140775	-0.158591	-0.292044
C21	C	1.138146	-0.289875	-0.292039
C22	C	1.130899	-0.348268	-0.194651
C23	C	0.650147	0.246897	0.000106
C24	C	0.593179	0.348145	0.000111
C25	C	0.485880	0.333625	0.000122
C26	C	0.757457	0.261416	0.000094
C27	C	1.295031	0.307778	0.000128
C28	C	1.400351	0.322054	0.000132
C29	C	1.116252	0.526517	0.000113
C30	C	1.119040	0.666241	0.000114
N31	N	1.106204	0.316445	0.254337
N32	N	1.137135	0.278595	-0.254111
C33	C	1.150420	0.262322	0.526774
C34	C	1.092922	0.332713	0.473445
C35	C	1.100314	0.323659	0.351522
C36	C	1.143029	0.271375	0.648708
H37	H	1.146666	-0.111038	-0.371334
H38	H	0.624992	0.445732	0.000105
H39	H	0.618336	0.149318	0.000112
H40	H	1.141897	-0.349220	-0.371334
N41	N	1.020362	0.421550	0.534246
H42	H	1.025298	0.415514	0.613988
H43	H	1.033122	0.510497	0.514658
N44	N	1.222960	0.173470	0.465973
H45	H	1.218016	0.179509	0.386233
H46	H	1.289193	0.196937	0.485547
H47	H	1.128745	-0.455168	-0.194655
N48	N	1.138997	0.055897	-0.194665
H49	H	1.144290	0.081826	-0.271132
H50	H	1.078597	0.093883	-0.156395
H51	H	1.108521	-0.308413	0.176786
H52	H	1.113263	-0.070226	0.176783
