data_functionalizedCrystal
_audit_creation_method	'MofGen! by Chris Wilmer'
_symmetry_space_group_name_H-M	'P1'
_symmetry_Int_Tables_number	1
_symmetry_cell_setting	triclinic
loop_
_symmetry_equiv_pos_as_xyz
  x,y,z
_cell_length_a	10.540514
_cell_length_b	10.540510
_cell_length_c	13.330367
_cell_angle_alpha	89.997867
_cell_angle_beta	89.991931
_cell_angle_gamma	84.514235
loop_
_atom_site_label
_atom_site_type_symbol
_atom_site_fract_x
_atom_site_fract_y
_atom_site_fract_z
O1	O	1.685893	0.178749	-0.083430
O2	O	1.316474	0.195639	-0.083429
O3	O	1.509631	0.002484	-0.083429
O4	O	1.492735	0.371904	-0.083430
O5	O	1.509603	0.002480	0.083418
O6	O	1.316445	0.195634	0.083418
O7	O	1.685864	0.178745	0.083417
Cu8	Cu	1.501152	0.187189	0.098652
Cu9	Cu	1.501186	0.187194	-0.098664
O10	O	1.492707	0.371899	0.083417
C11	C	1.269156	0.194377	-0.000005
C12	C	1.128207	0.190608	-0.000005
C13	C	1.057486	0.328749	-0.000007
C14	C	0.910874	0.324875	-0.000391
C15	C	0.935893	0.115482	-0.095103
C16	C	1.082432	0.120336	-0.095178
C17	C	1.082803	0.118286	0.094565
C18	C	0.935824	0.116953	0.095810
C19	C	1.508358	-0.044821	-0.000008
C20	C	1.504591	-0.185771	-0.000014
C21	C	1.638776	-0.403239	0.000368
C22	C	1.642794	-0.256643	-0.000013
C23	C	1.433860	-0.230521	-0.095289
C24	C	1.430821	-0.377281	-0.095364
C25	C	1.427910	-0.377095	0.094373
C26	C	1.434465	-0.230754	0.095627
C27	C	1.733182	0.180007	-0.000009
C28	C	1.874131	0.183776	-0.000016
C29	C	1.493980	0.419205	-0.000006
C30	C	1.497747	0.560155	-0.000007
N31	N	1.501138	0.187185	0.237434
N32	N	1.501210	0.187189	-0.237445
C33	C	1.415652	0.272689	0.710057
C34	C	1.586754	0.101690	0.710024
C35	C	1.586739	0.101686	0.605006
C36	C	1.501181	0.187186	0.552508
C37	C	1.415637	0.272691	0.605029
C38	C	1.672290	0.016192	0.552478
C39	C	1.672280	0.016185	0.447453
C40	C	1.586715	0.101681	0.394953
C41	C	1.501167	0.187187	0.447480
C42	C	1.415608	0.272688	0.394982
C43	C	1.330053	0.358189	0.447507
C44	C	1.330072	0.358186	0.552529
C45	C	1.586696	0.101684	0.289932
C46	C	1.415594	0.272689	0.289954
H47	H	0.868193	0.378591	0.067756
H48	H	1.345990	0.342300	0.752825
F49	F	1.295716	-0.407330	-0.101021
F50	F	1.498094	-0.190199	-0.187968
H51	H	1.741943	-0.053435	0.404694
F52	F	1.677815	0.010706	0.765896
F53	F	1.709142	-0.458083	0.089678
F54	F	1.123945	0.178387	0.188800
F55	F	1.239006	0.449190	0.391624
F56	F	1.096998	0.400930	-0.089004
F57	F	0.882218	0.182185	0.187761
H58	H	1.332117	-0.183122	-0.098832
F59	F	0.904219	-0.017474	0.103692
F60	F	1.484918	-0.432653	0.188763
H61	H	1.485932	-0.202149	0.166111
F62	F	1.708766	-0.460105	-0.088435
F63	F	1.239027	0.449178	0.608433
F64	F	1.763351	-0.074792	0.608349
H65	H	1.333565	-0.181679	0.101380
F66	F	1.144603	-0.014889	0.095777
H67	H	1.324146	-0.399235	0.095015
F68	F	0.856330	0.394788	-0.090010
H69	H	1.656360	0.032076	0.247170
H70	H	1.698138	-0.227306	0.068283
F71	F	1.715579	-0.219513	-0.089439
H72	H	1.130450	0.018861	-0.099237
F73	F	1.324523	0.363686	0.234090
H74	H	1.110663	0.170220	-0.166529
H75	H	1.086009	0.384787	0.068171
F76	F	0.906744	-0.019975	-0.099378
F77	F	1.494039	-0.429854	-0.188450
H78	H	0.893293	0.162299	-0.166137
