data_functionalizedCrystal
_audit_creation_method	'MofGen! by Chris Wilmer'
_symmetry_space_group_name_H-M	'P1'
_symmetry_Int_Tables_number	1
_symmetry_cell_setting	triclinic
loop_
_symmetry_equiv_pos_as_xyz
  x,y,z
_cell_length_a	13.033293
_cell_length_b	12.759400
_cell_length_c	13.032268
_cell_angle_alpha	82.849813
_cell_angle_beta	90.920818
_cell_angle_gamma	97.184613
loop_
_atom_site_label
_atom_site_type_symbol
_atom_site_fract_x
_atom_site_fract_y
_atom_site_fract_z
Zn1	Zn	1.498478	-0.326864	0.781492
Zn2	Zn	1.998478	0.173136	1.281492
Zn3	Zn	1.520228	-0.477844	0.609524
Zn4	Zn	2.020228	0.022156	1.109524
Zn5	Zn	1.348338	-0.321316	0.587668
Zn6	Zn	1.848338	0.178684	1.087668
Zn7	Zn	1.326480	-0.521641	0.759565
Zn8	Zn	1.826480	-0.021641	1.259565
O9	O	1.423381	-0.411916	0.684562
O10	O	1.923381	0.088084	1.184562
O11	O	1.645281	-0.330884	0.777004
O12	O	2.145281	0.169116	1.277004
O13	O	1.515676	-0.436429	0.462716
O14	O	2.015676	0.063571	0.962716
O15	O	1.368299	-0.175029	0.613409
O16	O	1.868299	0.324971	1.113409
O17	O	1.661260	-0.441809	0.650659
O18	O	2.161260	0.058191	1.150659
O19	O	1.478606	-0.179105	0.755811
O20	O	1.978606	0.320895	1.255811
O21	O	1.389389	-0.321428	0.446658
O22	O	1.889389	0.178572	0.946658
O23	O	1.201520	-0.363896	0.592147
O24	O	1.701520	0.136104	1.092147
O25	O	1.331046	-0.516455	0.906383
O26	O	1.831046	-0.016455	1.406383
O27	O	1.185462	-0.511075	0.718439
O28	O	1.685462	-0.011075	1.218439
O29	O	1.457412	-0.373352	0.922493
O30	O	1.957412	0.126648	1.422493
O31	O	1.494482	-0.630677	0.629397
O32	O	1.994482	-0.130677	1.129397
O33	O	1.352136	-0.662855	0.739632
O34	O	1.852136	-0.162855	1.239632
C35	C	1.156175	-0.441637	0.650543
C36	C	1.656175	0.058363	1.150543
C37	C	1.041860	-0.454381	0.636013
C38	C	1.541860	0.045619	1.136013
C39	C	0.982975	-0.405292	0.692145
C40	C	1.482975	0.094708	1.192145
C41	C	0.864825	-0.418462	0.677130
C42	C	1.364825	0.081538	1.177130
C43	C	1.423322	-0.684887	0.684533
C44	C	1.923322	-0.184887	1.184533
C45	C	1.423387	-0.801660	0.684567
C46	C	1.923387	-0.301660	1.184567
C47	C	1.497570	-0.839735	0.627250
C48	C	1.997570	-0.339735	1.127250
C49	C	1.497629	-0.949456	0.627289
C50	C	1.997629	-0.449456	1.127289
C51	C	1.349313	-0.983020	0.741965
C52	C	1.849313	-0.483020	1.241965
C53	C	1.349260	-0.873301	0.741931
C54	C	1.849260	-0.373301	1.241931
C55	C	1.571698	-0.768094	0.569886
C56	C	2.071698	-0.268094	1.069886
C57	C	1.645886	-0.806167	0.512563
C58	C	2.145886	-0.306167	1.012563
C59	C	1.645945	-0.915889	0.512603
C60	C	2.145945	-0.415889	1.012603
C61	C	1.571816	-0.987537	0.569965
C62	C	2.071816	-0.487537	1.069965
C63	C	1.691630	-0.382080	0.718715
C64	C	2.191630	0.117920	1.218715
C65	C	1.805942	-0.369366	0.733269
C66	C	2.305942	0.130634	1.233269
C67	C	1.389365	-0.450408	0.952795
C68	C	1.889365	0.049592	1.452795
C69	C	1.374869	-0.466811	1.067100
C70	C	1.874869	0.033189	1.567100
C71	C	1.423464	-0.137879	0.684618
C72	C	1.923464	0.362121	1.184618
C73	C	1.423500	-0.021101	0.684641
C74	C	1.923500	0.478899	1.184641
C75	C	1.457323	-0.373492	0.417380
C76	C	1.957323	0.126508	0.917380
C77	C	1.472018	-0.356771	0.303102
C78	C	1.972018	0.143229	0.803102
C79	C	1.430930	-0.403319	1.126032
C80	C	1.930930	0.096681	1.626032
C81	C	1.415950	-0.420271	1.244172
C82	C	1.915950	0.079729	1.744172
H83	H	1.004802	-0.506155	0.576838
H84	H	1.504802	-0.006155	1.076838
H85	H	1.356853	-0.487177	1.281176
H86	H	1.856853	0.012823	1.781176
N87	N	1.296592	-0.555426	1.116120
N88	N	1.796592	-0.055426	1.616120
H89	H	1.332757	-0.605815	1.166007
H90	H	1.832757	-0.105815	1.666007
H91	H	1.261253	-0.595390	1.060505
H92	H	1.761253	-0.095390	1.560505
N93	N	0.855009	-0.300766	0.811652
N94	N	1.355009	0.199234	1.311652
H95	H	0.932457	-0.301077	0.811268
H96	H	1.432457	0.198923	1.311268
H97	H	0.826989	-0.329840	0.882710
H98	H	1.326989	0.170160	1.382710
H99	H	1.706245	-0.747826	0.465867
H100	H	2.206245	-0.247826	0.965867
N101	N	1.269353	-1.060294	0.803813
N102	N	1.769353	-0.560294	1.303813
H103	H	1.222348	-1.019524	0.840118
H104	H	1.722348	-0.519524	1.340118
H105	H	1.305157	-1.107947	0.856777
H106	H	1.805157	-0.607947	1.356777
N107	N	1.725963	-0.956959	0.450790
N108	N	2.225963	-0.456959	0.950790
H109	H	1.772911	-0.894923	0.414448
H110	H	2.272911	-0.394923	0.914448
H111	H	1.690199	-1.000361	0.397858
H112	H	2.190199	-0.500361	0.897858
H113	H	1.571877	-1.076879	0.570002
H114	H	2.071877	-0.576879	1.070002
H115	H	0.827772	-0.470239	0.617951
H116	H	1.327772	0.029761	1.117951
H117	H	1.288854	-0.842301	0.788605
H118	H	1.788854	-0.342301	1.288605
N119	N	1.509223	-0.314711	1.077026
N120	N	2.009223	0.185289	1.577026
H121	H	1.508839	-0.315173	0.999578
H122	H	2.008839	0.184827	1.499578
H123	H	1.580299	-0.325595	1.105110
H124	H	2.080299	0.174405	1.605110
H125	H	1.020033	-0.353510	0.751314
H126	H	1.520033	0.146490	1.251314
N127	N	1.550285	-0.268130	1.254099
N128	N	2.050285	0.231870	1.754099
H129	H	1.549893	-0.268580	1.176650
H130	H	2.049893	0.231420	1.676650
H131	H	1.621375	-0.278978	1.282168
H132	H	2.121375	0.221022	1.782168
H133	H	1.571655	-0.678751	0.569844
H134	H	2.071655	-0.178751	1.069844
