data_functionalizedCrystal
_audit_creation_method	'MofGen! by Chris Wilmer'
_symmetry_space_group_name_H-M	'P1'
_symmetry_Int_Tables_number	1
_symmetry_cell_setting	triclinic
loop_
_symmetry_equiv_pos_as_xyz
  x,y,z
_cell_length_a	12.759394
_cell_length_b	12.827893
_cell_length_c	12.827885
_cell_angle_alpha	90.021189
_cell_angle_beta	89.968586
_cell_angle_gamma	89.987144
loop_
_atom_site_label
_atom_site_type_symbol
_atom_site_fract_x
_atom_site_fract_y
_atom_site_fract_z
Zn1	Zn	-0.418269	-1.597674	-0.590892
Zn2	Zn	-0.593985	-1.597569	-0.416148
Zn3	Zn	-0.418315	-1.422915	-0.416159
Zn4	Zn	-0.593901	-1.422902	-0.590842
O5	O	-0.506118	-1.510265	-0.503510
O6	O	-0.441595	-1.743896	-0.567727
O7	O	-0.570737	-1.574363	-0.269913
O8	O	-0.271288	-1.446146	-0.439364
O9	O	-0.570693	-1.743819	-0.439344
O10	O	-0.271254	-1.574541	-0.567739
O11	O	-0.441673	-1.446045	-0.269922
O12	O	-0.441590	-1.276677	-0.439315
O13	O	-0.570548	-1.446124	-0.737084
O14	O	-0.570592	-1.276668	-0.567654
O15	O	-0.441512	-1.574528	-0.737121
O16	O	-0.740995	-1.574350	-0.439295
O17	O	-0.740933	-1.446023	-0.567642
C18	C	-0.506088	-1.238755	-0.503481
C19	C	-0.506101	-1.122602	-0.503494
C20	C	-0.779085	-1.510202	-0.503485
C21	C	-0.895862	-1.510271	-0.503509
C22	C	-0.570033	-1.070840	-0.566900
C23	C	-0.570047	-0.950790	-0.566914
C24	C	-0.895873	-1.643999	-0.369961
C25	C	-0.950740	-1.710890	-0.303200
C26	C	-1.060461	-1.710951	-0.303228
C27	C	-1.115319	-1.644116	-0.370028
C28	C	-1.060452	-1.577225	-0.436789
C29	C	-0.950728	-1.577169	-0.436751
C30	C	-1.060441	-1.443504	-0.570340
C31	C	-0.950719	-1.443436	-0.570308
C32	C	-1.115298	-1.376670	-0.637140
C33	C	-1.060432	-1.309772	-0.703898
C34	C	-0.950704	-1.309712	-0.703866
C35	C	-0.895853	-1.376545	-0.637070
C36	C	-0.232084	-1.510356	-0.503558
C37	C	-0.115307	-1.510395	-0.503579
C38	C	-0.506016	-1.510336	-0.776080
C39	C	-0.505972	-1.510366	-0.892234
C40	C	-0.506139	-0.782835	-0.503531
C41	C	-0.506127	-0.898988	-0.503519
C42	C	-0.569812	-1.573869	-0.944014
C43	C	-0.569768	-1.573902	-1.064065
C44	C	-0.506143	-1.510254	-0.232000
C45	C	-0.505891	-1.510426	-0.115848
H46	H	-0.624753	-1.115402	-0.621177
F47	F	-0.434564	-1.064362	-0.432556
H48	H	-0.806532	-1.643942	-0.369918
H49	H	-0.624424	-1.628268	-1.108594
H50	H	-1.204660	-1.644181	-0.370054
F51	F	-0.434484	-1.439339	-0.950453
F52	F	-0.434584	-0.957161	-0.432554
H53	H	-0.906065	-1.765308	-0.248814
H54	H	-0.624785	-0.906276	-0.621195
F55	F	-1.118856	-1.782148	-0.232179
F56	F	-0.779077	-1.376725	-0.637268
H57	H	-1.204640	-1.376729	-0.637163
F58	F	-0.892319	-1.238522	-0.774929
F59	F	-1.118820	-1.238656	-0.774988
H60	H	-0.624495	-1.628216	-0.899468
H61	H	-0.451236	-1.456053	-1.071324
