data_functionalizedCrystal
_audit_creation_method	'MofGen! by Chris Wilmer'
_symmetry_space_group_name_H-M	'P1'
_symmetry_Int_Tables_number	1
_symmetry_cell_setting	triclinic
loop_
_symmetry_equiv_pos_as_xyz
  x,y,z
_cell_length_a	11.026607
_cell_length_b	14.044220
_cell_length_c	10.065875
_cell_angle_alpha	99.592716
_cell_angle_beta	79.302338
_cell_angle_gamma	100.887447
loop_
_atom_site_label
_atom_site_type_symbol
_atom_site_fract_x
_atom_site_fract_y
_atom_site_fract_z
O1	O	1.670494	0.393284	-0.113515
O2	O	2.003827	0.726618	0.219818
O3	O	2.337161	1.059951	0.553152
O4	O	1.312203	0.347236	-0.113514
O5	O	1.645537	0.680569	0.219819
O6	O	1.978870	1.013903	0.553152
O7	O	1.485969	0.231359	-0.113501
O8	O	1.819302	0.564692	0.219832
O9	O	2.152635	0.898026	0.553165
O10	O	1.496729	0.509161	-0.113528
O11	O	1.830062	0.842494	0.219805
O12	O	2.163395	1.175828	0.553138
O13	O	1.452846	0.253569	0.113485
O14	O	1.786180	0.586902	0.446818
O15	O	2.119513	0.920235	0.780152
O16	O	1.279081	0.369446	0.113472
O17	O	1.612414	0.702779	0.446805
O18	O	1.945747	1.036112	0.780139
O19	O	1.637372	0.415494	0.113471
O20	O	1.970705	0.748827	0.446804
O21	O	2.304038	1.082160	0.780138
Zn22	Zn	1.452967	0.395996	0.149510
Zn23	Zn	1.786301	0.729329	0.482844
Zn24	Zn	2.119634	1.062663	0.816177
Zn25	Zn	1.496608	0.366734	-0.149554
Zn26	Zn	1.829941	0.700067	0.183780
Zn27	Zn	2.163274	1.033400	0.517113
O28	O	1.463606	0.531371	0.113458
O29	O	1.796939	0.864704	0.446791
O30	O	2.130273	1.198037	0.780125
C31	C	1.249512	0.349846	-0.000021
C32	C	1.582845	0.683179	0.333312
C33	C	1.916178	1.016512	0.666646
C34	C	1.112056	0.324521	-0.000020
C35	C	1.445389	0.657855	0.333313
C36	C	1.778723	0.991188	0.666646
C37	C	1.045821	0.394445	-0.000028
C38	C	1.379154	0.727778	0.333305
C39	C	1.712487	1.061112	0.666639
C40	C	0.903753	0.368273	-0.000027
C41	C	1.237087	0.701606	0.333306
C42	C	1.570420	1.034940	0.666639
C43	C	1.464699	0.206346	-0.000008
C44	C	1.798033	0.539680	0.333326
C45	C	2.131366	0.873013	0.666659
C46	C	1.450655	0.098724	-0.000006
C47	C	1.783989	0.432058	0.333327
C48	C	2.117322	0.765391	0.666661
C49	C	1.424983	-0.098320	-0.000025
C50	C	1.758316	0.235013	0.333308
C51	C	2.091650	0.568347	0.666641
C52	C	1.524588	-0.138958	-0.000030
C53	C	1.857921	0.194375	0.333304
C54	C	2.191255	0.527709	0.666637
C55	C	1.510304	-0.248600	-0.000041
C56	C	1.843637	0.084733	0.333293
C57	C	2.176970	0.418067	0.666626
C58	C	1.439265	0.011332	-0.000015
C59	C	1.772599	0.344665	0.333319
C60	C	2.105932	0.677998	0.666652
C61	C	1.700064	0.412884	-0.000025
C62	C	2.033397	0.746217	0.333308
C63	C	2.366730	1.079550	0.666641
C64	C	1.837520	0.438207	-0.000035
C65	C	2.170854	0.771540	0.333298
C66	C	2.504187	1.104874	0.666632
C67	C	1.484876	0.556383	-0.000039
C68	C	1.818209	0.889717	0.333295
C69	C	2.151543	1.223050	0.666628
C70	C	1.498921	0.664004	-0.000049
C71	C	1.832255	0.997338	0.333284
C72	C	2.165588	1.330671	0.666617
N73	N	1.423193	0.415967	0.353614
N74	N	1.756526	0.749301	0.686947
N75	N	2.089860	1.082634	1.020280
N76	N	1.526391	0.346756	-0.353657
N77	N	1.859724	0.680090	-0.020324
N78	N	2.193058	1.013423	0.313010
C79	C	1.486240	0.373675	0.421397
C80	C	1.819573	0.707008	0.754731
C81	C	2.152906	1.040342	1.088064
C82	C	1.463335	0.389055	0.578563
C83	C	1.796668	0.722388	0.911896
C84	C	2.130002	1.055721	1.245230
H85	H	0.855293	0.289025	-0.000054
H86	H	1.188627	0.622358	0.333279
H87	H	1.521960	0.955691	0.666612
F88	F	1.650071	-0.076805	-0.000019
F89	F	1.983404	0.256528	0.333314
F90	F	2.316737	0.589861	0.666647
H91	H	1.328988	-0.145870	-0.000029
H92	H	1.662321	0.187464	0.333305
H93	H	1.995655	0.520797	0.666638
F94	F	1.578719	0.311257	0.345174
F95	F	1.912052	0.644590	0.678507
F96	F	2.245385	0.977924	1.011840
H97	H	1.352254	0.463557	0.411935
H98	H	1.685587	0.796891	0.745268
H99	H	2.018921	1.130224	1.078601
H100	H	1.392391	0.436648	0.636878
H101	H	1.725725	0.769981	0.970212
H102	H	2.059058	1.103315	1.303545
H103	H	1.597325	0.299155	0.588028
H104	H	1.930658	0.632488	0.921361
H105	H	2.263991	0.965821	1.254694
H106	H	1.094290	0.473686	-0.000028
H107	H	1.427623	0.807019	0.333305
H108	H	1.760956	1.140353	0.666639
H109	H	1.063591	0.245278	-0.000048
H110	H	1.396924	0.578611	0.333286
H111	H	1.730258	0.911945	0.666619
F112	F	0.900858	0.541789	-0.000028
F113	F	1.234191	0.875123	0.333305
F114	F	1.567524	1.208456	0.666638
