data_functionalizedCrystal
_audit_creation_method	'MofGen! by Chris Wilmer'
_symmetry_space_group_name_H-M	'P1'
_symmetry_Int_Tables_number	1
_symmetry_cell_setting	triclinic
loop_
_symmetry_equiv_pos_as_xyz
  x,y,z
_cell_length_a	15.995350
_cell_length_b	13.339070
_cell_length_c	12.376457
_cell_angle_alpha	104.398083
_cell_angle_beta	78.710333
_cell_angle_gamma	99.560835
loop_
_atom_site_label
_atom_site_type_symbol
_atom_site_fract_x
_atom_site_fract_y
_atom_site_fract_z
O1	O	1.152819	0.111027	-0.093902
O2	O	0.912787	0.127125	-0.093925
O3	O	1.005255	-0.028188	-0.093913
O4	O	1.060352	0.266339	-0.093914
O5	O	0.982137	0.010588	0.094096
O6	O	0.889670	0.165900	0.094084
O7	O	1.129701	0.149802	0.094107
Zn8	Zn	1.006015	0.164007	0.123946
Zn9	Zn	1.036474	0.112919	-0.123764
O10	O	1.037234	0.305114	0.094095
C11	C	0.984389	-0.046490	0.000089
C12	C	0.956649	-0.158793	0.000082
C13	C	0.869879	0.145846	0.000077
C14	C	0.776467	0.143848	0.000068
C15	C	1.172350	-0.523582	0.000103
C16	C	1.198415	-0.418066	0.000116
C17	C	1.137976	-0.353243	0.000107
C18	C	1.051467	-0.393945	0.000086
C19	C	1.025397	-0.499469	0.000082
C20	C	0.991023	-0.329130	0.000086
C21	C	0.904514	-0.369832	0.000065
C22	C	0.878449	-0.475346	0.000060
C23	C	0.938889	-0.540170	0.000069
C24	C	1.017093	-0.223606	0.000090
C25	C	0.870140	-0.199494	0.000069
C26	C	0.844075	-0.305009	0.000056
C27	C	0.437051	0.136686	0.000092
C28	C	0.458736	0.026160	0.000512
C29	C	0.555943	0.028067	0.000080
C30	C	0.605439	0.140239	0.000081
C31	C	0.590227	0.172655	-0.107278
C32	C	0.492956	0.169859	-0.107360
C33	C	0.466859	0.216239	0.106442
C34	C	0.563625	0.216504	0.107853
C35	C	0.700606	0.142252	0.000071
C36	C	0.341886	0.134675	0.000094
C37	C	1.172610	0.131080	0.000103
C38	C	1.266023	0.133076	0.000104
C39	C	1.058100	0.323416	0.000090
C40	C	1.085841	0.435718	0.000090
N41	N	0.985234	0.198873	0.293002
N42	N	1.057260	0.078046	-0.292820
C43	C	1.105495	-0.002908	0.648002
C44	C	1.120035	-0.027311	0.529664
C45	C	1.086336	0.029233	0.470493
C46	C	1.038094	0.110184	0.529671
C47	C	1.023558	0.134594	0.648021
C48	C	1.004399	0.166735	0.470511
C49	C	0.956158	0.247686	0.529689
C50	C	0.941624	0.272092	0.648027
C51	C	0.975323	0.215548	0.707199
C52	C	1.018935	0.142325	0.352162
C53	C	0.936999	0.279827	0.352180
C54	C	0.922458	0.304229	0.470518
H55	H	1.087529	-0.190477	0.000108
H56	H	0.475273	0.113522	-0.187613
H57	H	0.808007	-0.508480	0.000051
O58	O	0.477544	0.265486	-0.113128
C59	C	0.371900	0.372271	-0.119936
C60	C	0.389225	0.263937	-0.113366
H61	H	0.300499	0.371049	-0.120155
H62	H	0.391901	0.432971	-0.043736
H63	H	0.410496	0.392979	-0.200872
H64	H	0.350637	0.243131	-0.032478
H65	H	0.369248	0.203299	-0.189623
O66	O	0.894685	0.350618	0.705637
C67	C	0.768881	0.399616	0.839212
C68	C	0.821967	0.310594	0.774064
H69	H	0.710067	0.367286	0.894533
H70	H	0.809909	0.461611	0.894685
H71	H	0.747336	0.435850	0.776573
H72	H	0.843522	0.274276	0.836621
H73	H	0.780905	0.248667	0.718574
H74	H	0.583250	-0.031007	-0.077012
H75	H	1.159313	-0.093219	0.481486
H76	H	0.883180	0.370142	0.518715
H77	H	0.820924	-0.146713	0.000068
O78	O	1.138167	-0.057992	0.705362
C79	C	1.141875	-0.226377	0.741651
C80	C	1.104826	-0.164118	0.676597
H81	H	1.114920	-0.312187	0.718436
H82	H	1.214869	-0.218043	0.718360
H83	H	1.123219	-0.194968	0.836390
H84	H	1.123417	-0.195485	0.581843
H85	H	1.031839	-0.172452	0.699981
O86	O	0.904367	0.334910	0.294766
C87	C	0.900561	0.503321	0.258608
C88	C	0.937589	0.441065	0.323686
H89	H	0.927393	0.589162	0.281983
H90	H	0.919254	0.472055	0.163846
H91	H	0.827566	0.494837	0.281875
H92	H	1.010587	0.449523	0.300514
H93	H	0.918829	0.472346	0.418431
H94	H	0.623988	0.254241	-0.111269
H95	H	0.597196	0.299640	0.114338
O96	O	0.760056	-0.344546	-0.000159
C97	C	0.638448	-0.376261	-0.097550
C98	C	0.733606	-0.331469	-0.097459
H99	H	0.617029	-0.365685	-0.176196
H100	H	0.630163	-0.462830	-0.097626
H101	H	0.597686	-0.333359	-0.018837
H102	H	0.774428	-0.374290	-0.176158
H103	H	0.741823	-0.244892	-0.097324
H104	H	0.453954	0.297943	0.107168
H105	H	1.159204	-0.267328	0.000118
H106	H	0.564946	0.001054	0.077039
O107	O	1.065655	0.063539	0.294774
C108	C	1.078287	-0.119791	0.258753
C109	C	1.025292	-0.030646	0.323768
H110	H	1.045685	-0.195957	0.282189
H111	H	1.082890	-0.127669	0.163982
H112	H	1.145564	-0.101720	0.282016
H113	H	0.957990	-0.048652	0.300599
H114	H	1.020760	-0.022790	0.418523
O115	O	1.282483	-0.378709	0.000087
C116	C	1.425478	-0.413751	0.000187
C117	C	1.330296	-0.458464	0.000193
H118	H	1.464159	-0.478205	0.000297
H119	H	1.451088	-0.381214	-0.078506
H120	H	1.431638	-0.348699	0.078857
H121	H	1.324062	-0.523550	-0.078423
H122	H	1.304730	-0.490931	0.078938
H123	H	1.221549	-0.576367	0.000120
O124	O	0.625424	0.107807	-0.202517
C125	C	0.754245	0.040430	-0.312032
C126	C	0.714494	0.113899	-0.204123
H127	H	0.826267	0.045348	-0.313378
H128	H	0.723145	-0.043096	-0.313207
H129	H	0.742753	0.064705	-0.389446
H130	H	0.725975	0.089719	-0.126651
H131	H	0.745598	0.197408	-0.203048
O132	O	0.573402	0.188644	0.202723
C133	C	0.546874	0.225993	0.406347
C134	C	0.535718	0.257645	0.299003
H135	H	0.516429	0.281777	0.484217
H136	H	0.514279	0.143108	0.405621
H137	H	0.618238	0.229700	0.408666
H138	H	0.464375	0.254002	0.296615
H139	H	0.568368	0.340514	0.299772
H140	H	0.917671	-0.626091	0.000054
O141	O	0.420323	0.193190	0.203512
C142	C	0.324238	0.252185	0.375658
C143	C	0.376890	0.278484	0.265793
H144	H	0.289123	0.321138	0.426054
H145	H	0.275452	0.180576	0.354104
H146	H	0.369217	0.235390	0.428191
H147	H	0.331978	0.295330	0.213208
H148	H	0.425685	0.350065	0.287427
O149	O	0.412954	-0.007680	0.092271
C150	C	0.272624	-0.052582	0.194098
C151	C	0.324377	-0.014276	0.090116
H152	H	0.201000	-0.057906	0.192403
H153	H	0.289355	-0.132797	0.192537
H154	H	0.289213	0.004676	0.274387
H155	H	0.307816	-0.071458	0.009773
H156	H	0.307640	0.065960	0.091777
O157	O	0.434532	-0.045256	-0.090863
C158	C	0.479448	-0.170534	-0.261191
C159	C	0.506974	-0.089708	-0.157745
H160	H	0.538005	-0.206481	-0.315306
H161	H	0.430151	-0.234372	-0.231627
H162	H	0.449810	-0.130526	-0.313265
H163	H	0.536650	-0.129625	-0.105627
H164	H	0.556233	-0.025877	-0.187385
H165	H	1.098176	0.009361	0.374137
H166	H	0.963482	0.235413	0.803559
