data_functionalizedCrystal
_audit_creation_method	'MofGen! by Chris Wilmer'
_symmetry_space_group_name_H-M	'P1'
_symmetry_Int_Tables_number	1
_symmetry_cell_setting	triclinic
loop_
_symmetry_equiv_pos_as_xyz
  x,y,z
_cell_length_a	18.050591
_cell_length_b	18.050589
_cell_length_c	18.050582
_cell_angle_alpha	89.981795
_cell_angle_beta	89.979078
_cell_angle_gamma	90.024227
loop_
_atom_site_label
_atom_site_type_symbol
_atom_site_fract_x
_atom_site_fract_y
_atom_site_fract_z
Zn1	Zn	1.135293	-0.295786	-0.420054
Zn2	Zn	1.135203	-0.419969	-0.295873
Zn3	Zn	1.011112	-0.295789	-0.295865
Zn4	Zn	1.011060	-0.419930	-0.420009
O5	O	1.073167	-0.357868	-0.357950
O6	O	1.239205	-0.312274	-0.403603
O7	O	1.118727	-0.403514	-0.191948
O8	O	1.027644	-0.191864	-0.312354
O9	O	1.239140	-0.403511	-0.312369
O10	O	1.118879	-0.191862	-0.403595
O11	O	1.027557	-0.312279	-0.191942
O12	O	0.907180	-0.312241	-0.312311
O13	O	1.027555	-0.403444	-0.523940
O14	O	0.907142	-0.403447	-0.403519
O15	O	1.118828	-0.312236	-0.523973
O16	O	1.118676	-0.523888	-0.312325
O17	O	1.027468	-0.523860	-0.403527
C18	C	0.880215	-0.357841	-0.357909
C19	C	0.797669	-0.357847	-0.357909
C20	C	1.073077	-0.550820	-0.357938
C21	C	1.073107	-0.633366	-0.357958
C22	C	0.598217	-0.308191	-0.308425
C23	C	0.548798	-0.375927	-0.290154
C24	C	0.646539	-0.357869	-0.357943
C25	C	0.548877	-0.290157	-0.376212
C26	C	0.500553	-0.357885	-0.357974
C27	C	0.598206	-0.425641	-0.339637
C28	C	0.598289	-0.339825	-0.425726
C29	C	0.548892	-0.407607	-0.407481
C30	C	0.730637	-0.357859	-0.357923
C31	C	0.416457	-0.357903	-0.357994
C32	C	1.023557	-0.832828	-0.407536
C33	C	1.005459	-0.882261	-0.339767
C34	C	1.073180	-0.784497	-0.357967
C35	C	1.091314	-0.882146	-0.425744
C36	C	1.073249	-0.930482	-0.357983
C37	C	1.055046	-0.832842	-0.290162
C38	C	1.140933	-0.832722	-0.376186
C39	C	1.122861	-0.882133	-0.308370
C40	C	1.073138	-0.700398	-0.357959
C41	C	1.073291	-1.014578	-0.357983
C42	C	1.266872	-0.357897	-0.357992
C43	C	1.349418	-0.357909	-0.358010
C44	C	1.073196	-0.357835	-0.551656
C45	C	1.073208	-0.357821	-0.634202
C46	C	1.073277	-0.164163	-0.357979
C47	C	1.073324	-0.081617	-0.357991
C48	C	1.023612	-0.407353	-0.833635
C49	C	1.091367	-0.425511	-0.883034
C50	C	1.073245	-0.357765	-0.785332
C51	C	1.005527	-0.339586	-0.883014
C52	C	1.073274	-0.357711	-0.931317
C53	C	1.141036	-0.375958	-0.833645
C54	C	1.055150	-0.290002	-0.833620
C55	C	1.122952	-0.308134	-0.882998
C56	C	1.073227	-0.357797	-0.701234
C57	C	1.073300	-0.357679	-1.015414
C58	C	1.073181	-0.357848	-0.164998
C59	C	1.073312	-0.357652	-0.082453
H60	H	0.619875	-0.266226	-0.266503
H61	H	0.981531	-0.811178	-0.449395
H62	H	0.527169	-0.232894	-0.391625
H63	H	1.039807	-0.232736	-0.811899
F64	F	1.177892	-0.253293	-0.911153
F65	F	0.930607	-0.910701	-0.319626
H66	H	0.527060	-0.391202	-0.232844
H67	H	0.981678	-0.449342	-0.811961
H68	H	0.619785	-0.482928	-0.324134
F69	F	0.520759	-0.462588	-0.462234
H70	H	1.039669	-0.811275	-0.232834
F71	F	1.111396	-0.500382	-0.911406
H72	H	1.164855	-0.903645	-0.266409
H73	H	1.198184	-0.810948	-0.391613
F74	F	1.111325	-0.910456	-0.500654
F75	F	1.215926	-0.396118	-0.805421
F76	F	0.930658	-0.319517	-0.911361
H77	H	0.620045	-0.324530	-0.483019
