data_functionalizedCrystal
_audit_creation_method	'MofGen! by Chris Wilmer'
_symmetry_space_group_name_H-M	'P1'
_symmetry_Int_Tables_number	1
_symmetry_cell_setting	triclinic
loop_
_symmetry_equiv_pos_as_xyz
  x,y,z
_cell_length_a	25.639242
_cell_length_b	25.639239
_cell_length_c	12.759393
_cell_angle_alpha	89.962897
_cell_angle_beta	89.977405
_cell_angle_gamma	90.030990
loop_
_atom_site_label
_atom_site_type_symbol
_atom_site_fract_x
_atom_site_fract_y
_atom_site_fract_z
Zn1	Zn	0.799268	-0.208227	-0.594057
Zn2	Zn	1.299268	0.291773	-0.094057
Zn3	Zn	0.799178	-0.295674	-0.418360
Zn4	Zn	1.299178	0.204326	0.081640
Zn5	Zn	0.711831	-0.208243	-0.418384
Zn6	Zn	1.211831	0.291757	0.081616
Zn7	Zn	0.711789	-0.295622	-0.593989
Zn8	Zn	1.211789	0.204378	-0.093989
O9	O	0.755517	-0.251941	-0.506198
O10	O	1.255517	0.248059	-0.006198
O11	O	0.872421	-0.219842	-0.570769
O12	O	1.372421	0.280158	-0.070769
O13	O	0.787572	-0.284104	-0.271342
O14	O	1.287572	0.215896	0.228658
O15	O	0.723485	-0.135075	-0.441726
O16	O	1.223485	0.364925	0.058274
O17	O	0.872355	-0.284089	-0.441686
O18	O	1.372355	0.215911	0.058314
O19	O	0.787724	-0.135064	-0.570792
O20	O	1.287724	0.364936	-0.070792
O21	O	0.723398	-0.219869	-0.271360
O22	O	1.223398	0.280131	0.228640
O23	O	0.638661	-0.219818	-0.441660
O24	O	1.138661	0.280182	0.058340
O25	O	0.723413	-0.284000	-0.741019
O26	O	1.223413	0.216000	-0.241019
O27	O	0.638629	-0.284015	-0.570676
O28	O	1.138629	0.215985	-0.070676
O29	O	0.787683	-0.219792	-0.741069
O30	O	1.287683	0.280208	-0.241069
O31	O	0.787531	-0.368832	-0.441620
O32	O	1.287531	0.131168	0.058380
O33	O	0.723326	-0.368794	-0.570653
O34	O	1.223326	0.131206	-0.070653
C35	C	0.619674	-0.251913	-0.506164
C36	C	1.119674	0.248087	-0.006164
C37	C	0.561560	-0.251913	-0.506174
C38	C	1.061560	0.248087	-0.006174
C39	C	0.310409	-0.218547	-0.573534
C40	C	0.810409	0.281453	-0.073534
C41	C	0.365013	-0.218542	-0.573528
C42	C	0.865013	0.281458	-0.073528
O43	O	0.393285	-0.190150	-0.630793
O44	O	0.893285	0.309850	-0.130793
N45	N	0.392286	-0.251935	-0.506210
N46	N	0.892286	0.248065	-0.006210
C47	C	0.364952	-0.285339	-0.438900
C48	C	0.864952	0.214661	0.061100
O49	O	0.393164	-0.313743	-0.381641
O50	O	0.893164	0.186257	0.118359
C51	C	0.310349	-0.285347	-0.438912
C52	C	0.810349	0.214653	0.061088
C53	C	0.283078	-0.251948	-0.506228
C54	C	0.783078	0.248052	-0.006228
C55	C	0.283138	-0.185152	-0.640845
C56	C	0.783138	0.314848	-0.140845
C57	C	0.228538	-0.185156	-0.640849
C58	C	0.728538	0.314844	-0.140849
C59	C	0.201208	-0.218557	-0.573543
C60	C	0.701208	0.281443	-0.073543
C61	C	0.228478	-0.251952	-0.506232
C62	C	0.728478	0.248048	-0.006232
C63	C	0.283016	-0.318753	-0.371609
C64	C	0.783016	0.181247	0.128391
C65	C	0.228409	-0.318758	-0.371628
C66	C	0.728409	0.181242	0.128372
C67	C	0.201138	-0.285359	-0.438943
C68	C	0.701138	0.214641	0.061057
C69	C	0.146547	-0.285357	-0.438930
C70	C	0.646547	0.214643	0.061070
N71	N	0.119274	-0.251964	-0.506249
N72	N	0.619274	0.248036	-0.006249
C73	C	0.146604	-0.218564	-0.573555
C74	C	0.646604	0.281436	-0.073555
C75	C	0.479623	-0.285322	-0.438882
C76	C	0.979623	0.214678	0.061118
C77	C	0.534225	-0.285312	-0.438863
C78	C	1.034225	0.214688	0.061137
C79	C	0.534282	-0.218516	-0.573493
C80	C	1.034282	0.281484	-0.073493
C81	C	0.479679	-0.218523	-0.573505
C82	C	0.979679	0.281477	-0.073505
C83	C	0.452350	-0.251929	-0.506200
C84	C	0.952350	0.248071	-0.006200
C85	C	0.031939	-0.218576	-0.573558
C86	C	0.531939	0.281424	-0.073558
C87	C	-0.022666	-0.218582	-0.573554
C88	C	0.477334	0.281418	-0.073554
C89	C	-0.022719	-0.285380	-0.438929
C90	C	0.477281	0.214620	0.061071
C91	C	0.031882	-0.285372	-0.438929
C92	C	0.531882	0.214628	0.061071
C93	C	0.059210	-0.251968	-0.506252
C94	C	0.559210	0.248032	-0.006252
O95	O	0.118240	-0.313736	-0.381698
O96	O	0.618240	0.186264	0.118302
O97	O	0.118386	-0.190170	-0.630814
O98	O	0.618386	0.309830	-0.130814
C99	C	0.755429	-0.387784	-0.506150
C100	C	1.255429	0.112216	-0.006150
C101	C	0.755439	-0.445898	-0.506164
C102	C	1.255439	0.054102	-0.006164
C103	C	0.789035	-0.806268	-0.439124
C104	C	1.289035	-0.306268	0.060876
C105	C	0.789055	-0.860873	-0.439138
C106	C	1.289055	-0.360873	0.060862
O107	O	0.817529	-0.889116	-0.382086
O108	O	1.317529	-0.389116	0.117914
N109	N	0.755608	-0.888180	-0.506267
N110	N	1.255608	-0.388180	-0.006267
C111	C	0.722143	-0.860881	-0.573394
C112	C	1.222143	-0.360881	-0.073394
O113	O	0.693696	-0.889122	-0.630494
O114	O	1.193696	-0.389122	-0.130494
C115	C	0.722126	-0.806277	-0.573385
C116	C	1.222126	-0.306277	-0.073385
C117	C	0.755571	-0.778973	-0.506244
C118	C	1.255571	-0.278973	-0.006244
C119	C	0.822478	-0.778963	-0.371990
C120	C	1.322478	-0.278963	0.128010
C121	C	0.822457	-0.724363	-0.371975
C122	C	1.322457	-0.224363	0.128025
C123	C	0.788993	-0.697067	-0.439094
C124	C	1.288993	-0.197067	0.060906
C125	C	0.755550	-0.724372	-0.506229
C126	C	1.255550	-0.224372	-0.006229
C127	C	0.688663	-0.778979	-0.640516
C128	C	1.188663	-0.278979	-0.140516
C129	C	0.688649	-0.724372	-0.640501
C130	C	1.188649	-0.224372	-0.140501
C131	C	0.722094	-0.697067	-0.573360
C132	C	1.222094	-0.197067	-0.073360
C133	C	0.722065	-0.642476	-0.573333
C134	C	1.222065	-0.142476	-0.073333
N135	N	0.755512	-0.615168	-0.506204
N136	N	1.255512	-0.115168	-0.006204
C137	C	0.788976	-0.642464	-0.439084
C138	C	1.288976	-0.142464	0.060916
C139	C	0.722182	-0.975551	-0.573410
C140	C	1.222182	-0.475551	-0.073410
C141	C	0.722196	-1.030154	-0.573415
C142	C	1.222196	-0.530154	-0.073415
C143	C	0.789110	-1.030142	-0.439161
C144	C	1.289110	-0.530142	0.060839
C145	C	0.789093	-0.975538	-0.439151
C146	C	1.289093	-0.475538	0.060849
C147	C	0.755629	-0.948244	-0.506281
C148	C	1.255629	-0.448244	-0.006281
C149	C	0.788929	-0.527799	-0.439057
C150	C	1.288929	-0.027799	0.060943
C151	C	0.788903	-0.473194	-0.439045
C152	C	1.288903	0.026806	0.060955
C153	C	0.721992	-0.473210	-0.573303
C154	C	1.221992	0.026790	-0.073303
C155	C	0.722015	-0.527811	-0.573312
C156	C	1.222015	-0.027811	-0.073312
C157	C	0.755488	-0.555104	-0.506185
C158	C	1.255488	-0.055104	-0.006185
O159	O	0.693607	-0.614198	-0.630359
O160	O	1.193607	-0.114198	-0.130359
O161	O	0.817423	-0.614216	-0.382003
O162	O	1.317423	-0.114216	0.117997
C163	C	0.891890	-0.251970	-0.506232
C164	C	1.391890	0.248030	-0.006232
C165	C	0.950004	-0.251982	-0.506247
C166	C	1.450004	0.248018	-0.006247
C167	C	0.755553	-0.251888	-0.780231
C168	C	1.255553	0.248112	-0.280231
C169	C	0.755569	-0.251866	-0.897008
C170	C	1.255569	0.248134	-0.397008
C171	C	0.755619	-0.115568	-0.506269
C172	C	1.255619	0.384432	-0.006269
C173	C	0.755663	-0.057454	-0.506299
C174	C	1.255663	0.442546	-0.006299
C175	C	0.722166	-0.218412	-0.951878
C176	C	1.222166	0.281588	-0.451878
C177	C	0.722178	-0.218396	-1.061603
C178	C	1.222178	0.281604	-0.561603
C179	C	0.789001	-0.285289	-1.061576
C180	C	1.289001	0.214711	-0.561576
C181	C	0.788986	-0.285307	-0.951854
C182	C	1.288986	0.214693	-0.451854
C183	C	0.755510	-0.251956	-0.233230
C184	C	1.255510	0.248044	0.266770
C185	C	0.755596	-0.251831	-0.116454
C186	C	1.255596	0.248169	0.383546
H187	H	-0.044867	-0.191382	-0.628370
H188	H	0.455133	0.308618	-0.128370
H189	H	0.694783	-0.550044	-0.627986
H190	H	1.194783	-0.050044	-0.127986
Br191	Br	0.676813	-0.173029	-0.877447
Br192	Br	1.176813	0.326971	-0.377447
H193	H	0.816208	-0.312515	-1.106245
H194	H	1.316208	0.187485	-0.606245
H195	H	0.816188	-0.312551	-0.907177
H196	H	1.316188	0.187449	-0.407177
H197	H	0.556544	-0.191319	-0.628298
H198	H	1.056544	0.308681	-0.128298
Br199	Br	0.068893	-0.330703	-0.347578
Br200	Br	0.568893	0.169297	0.152422
Br201	Br	0.676834	-0.173002	-1.136066
Br202	Br	1.176834	0.326998	-0.636066
Br203	Br	0.867901	-0.815997	-0.280889
Br204	Br	1.367901	-0.315997	0.219111
H205	H	0.054183	-0.191375	-0.628379
H206	H	0.554183	0.308625	-0.128379
H207	H	0.849693	-0.702134	-0.317306
H208	H	1.349693	-0.202134	0.182694
Br209	Br	0.320219	-0.139818	-0.732205
Br210	Br	0.820219	0.360182	-0.232205
Br211	Br	0.442675	-0.173194	-0.664864
Br212	Br	0.942675	0.326806	-0.164864
Br213	Br	0.571228	-0.330629	-0.347480
Br214	Br	1.071228	0.169371	0.152520
Br215	Br	0.191537	-0.139831	-0.732220
Br216	Br	0.691537	0.360169	-0.232220
H217	H	-0.044981	-0.312572	-0.384125
H218	H	0.455019	0.187428	0.115875
Br219	Br	0.442538	-0.330658	-0.347520
Br220	Br	0.942538	0.169342	0.152480
H221	H	0.305210	-0.345950	-0.316794
H222	H	0.805210	0.154050	0.183206
H223	H	0.816138	-0.450964	-0.384367
H224	H	1.316138	0.049036	0.115633
Br225	Br	0.191322	-0.364102	-0.280289
Br226	Br	0.691322	0.135898	0.219711
Br227	Br	0.834356	-0.564831	-0.347956
Br228	Br	1.334356	-0.064831	0.152044
H229	H	0.816327	-0.953310	-0.384480
H230	H	1.316327	-0.453310	0.115520
Br231	Br	0.834524	-1.067196	-0.348064
Br232	Br	1.334524	-0.567196	0.151936
H233	H	0.694957	-1.052381	-0.628078
H234	H	1.194957	-0.552381	-0.128078
H235	H	0.694928	-0.953331	-0.628073
H236	H	1.194928	-0.453331	-0.128073
H237	H	0.661426	-0.801201	-0.695184
H238	H	1.161426	-0.301201	-0.195184
Br239	Br	0.643233	-0.687332	-0.731616
Br240	Br	1.143233	-0.187332	-0.231616
H241	H	0.694744	-0.450978	-0.627948
H242	H	1.194744	0.049022	-0.127948
