data_functionalizedCrystal
_audit_creation_method	'MofGen! by Chris Wilmer'
_symmetry_space_group_name_H-M	'P1'
_symmetry_Int_Tables_number	1
_symmetry_cell_setting	triclinic
loop_
_symmetry_equiv_pos_as_xyz
  x,y,z
_cell_length_a	18.215407
_cell_length_b	18.215405
_cell_length_c	21.395355
_cell_angle_alpha	89.980149
_cell_angle_beta	89.977330
_cell_angle_gamma	90.019398
loop_
_atom_site_label
_atom_site_type_symbol
_atom_site_fract_x
_atom_site_fract_y
_atom_site_fract_z
Zn1	Zn	1.125107	-0.293177	-0.354224
Zn2	Zn	1.625107	0.206823	0.145776
Zn3	Zn	1.125005	-0.416226	-0.249444
Zn4	Zn	1.625005	0.083774	0.250556
Zn5	Zn	1.002029	-0.293166	-0.249464
Zn6	Zn	1.502029	0.206834	0.250536
Zn7	Zn	1.002006	-0.416195	-0.354188
Zn8	Zn	1.502006	0.083805	0.145812
O9	O	1.063537	-0.354691	-0.301830
O10	O	1.563537	0.145309	0.198170
O11	O	1.228078	-0.309518	-0.340332
O12	O	1.728078	0.190482	0.159668
O13	O	1.108659	-0.399909	-0.161769
O14	O	1.608659	0.100091	0.338231
O15	O	1.018408	-0.190183	-0.263384
O16	O	1.518408	0.309817	0.236616
O17	O	1.228003	-0.399921	-0.263350
O18	O	1.728003	0.100079	0.236650
O19	O	1.108833	-0.190191	-0.340351
O20	O	1.608833	0.309809	0.159649
O21	O	1.018310	-0.309498	-0.161784
O22	O	1.518310	0.190502	0.338216
O23	O	0.899042	-0.309468	-0.263349
O24	O	1.399042	0.190532	0.236651
O25	O	1.018368	-0.399868	-0.441871
O26	O	1.518368	0.100132	0.058129
O27	O	0.899024	-0.399857	-0.340289
O28	O	1.399024	0.100143	0.159711
O29	O	1.108810	-0.309488	-0.441897
O30	O	1.608810	0.190512	0.058103
O31	O	1.108636	-0.519206	-0.263315
O32	O	1.608636	-0.019206	0.236685
O33	O	1.018269	-0.519183	-0.340270
O34	O	1.518269	-0.019183	0.159730
C35	C	0.872331	-0.354658	-0.301818
C36	C	1.372331	0.145342	0.198182
C37	C	0.790532	-0.354662	-0.301827
C38	C	1.290532	0.145338	0.198173
C39	C	1.063459	-0.545897	-0.301800
C40	C	1.563459	-0.045897	0.198200
C41	C	1.063493	-0.627696	-0.301808
C42	C	1.563493	-0.127696	0.198192
C43	C	0.525507	-0.307709	-0.341978
C44	C	1.025507	0.192291	0.158022
C45	C	0.602366	-0.307697	-0.341976
C46	C	1.102366	0.192303	0.158024
C47	C	0.602307	-0.401697	-0.261696
C48	C	1.102307	0.098303	0.238304
C49	C	0.525450	-0.401712	-0.261701
C50	C	1.025450	0.098288	0.238299
C51	C	0.487052	-0.354714	-0.301842
C52	C	0.987052	0.145286	0.198158
C53	C	0.640768	-0.354687	-0.301834
C54	C	1.140768	0.145313	0.198166
C55	C	0.724102	-0.354674	-0.301832
C56	C	1.224102	0.145326	0.198168
C57	C	0.403713	-0.354727	-0.301845
C58	C	0.903713	0.145273	0.198155
C59	C	1.110658	-0.815877	-0.261811
C60	C	1.610658	-0.315877	0.238189
C61	C	1.110691	-0.892736	-0.261827
C62	C	1.610691	-0.392736	0.238173
C63	C	1.016510	-0.892752	-0.341894
C64	C	1.516510	-0.392752	0.158106
C65	C	1.016481	-0.815895	-0.341881
C66	C	1.516481	-0.315895	0.158119
C67	C	1.063554	-0.777459	-0.301837
C68	C	1.563554	-0.277459	0.198163
C69	C	1.063616	-0.931176	-0.301864
C70	C	1.563616	-0.431176	0.198136
C71	C	1.063651	-1.014509	-0.301881
C72	C	1.563651	-0.514509	0.198119
C73	C	1.063520	-0.694121	-0.301821
C74	C	1.563520	-0.194121	0.198179
C75	C	1.255490	-0.354724	-0.301843
C76	C	1.755490	0.145276	0.198157
C77	C	1.337289	-0.354738	-0.301848
C78	C	1.837289	0.145262	0.198152
C79	C	1.063598	-0.354676	-0.465253
C80	C	1.563598	0.145324	0.034747
C81	C	1.063624	-0.354670	-0.534895
C82	C	1.563624	0.145330	-0.034895
C83	C	1.063635	-0.162738	-0.301874
C84	C	1.563635	0.337262	0.198126
C85	C	1.063677	-0.080939	-0.301893
C86	C	1.563677	0.419061	0.198107
C87	C	1.110715	-0.307607	-0.567623
C88	C	1.610715	0.192393	-0.067623
C89	C	1.110714	-0.307575	-0.633058
C90	C	1.610714	0.192425	-0.133058
C91	C	1.063630	-0.354619	-0.665763
C92	C	1.563630	0.145381	-0.165763
C93	C	1.016529	-0.401686	-0.633027
C94	C	1.516529	0.098314	-0.133027
C95	C	1.016526	-0.401711	-0.567593
C96	C	1.516526	0.098289	-0.067593
C97	C	1.057792	-0.420883	-0.769427
C98	C	1.557792	0.079117	-0.269427
C99	C	1.057800	-0.420859	-0.834860
C100	C	1.557800	0.079141	-0.334860
C101	C	1.063634	-0.354542	-0.867584
C102	C	1.563634	0.145458	-0.367584
C103	C	1.069476	-0.288246	-0.834866
C104	C	1.569476	0.211754	-0.334866
C105	C	1.069473	-0.288271	-0.769432
C106	C	1.569473	0.211729	-0.269432
C107	C	1.063627	-0.354597	-0.736716
C108	C	1.563627	0.145403	-0.236716
C109	C	1.110727	-0.307440	-0.971265
C110	C	1.610727	0.192560	-0.471265
C111	C	1.110721	-0.307407	-1.036701
C112	C	1.610721	0.192593	-0.536701
C113	C	1.016540	-0.401525	-1.036669
C114	C	1.516540	0.098475	-0.536669
C115	C	1.016542	-0.401551	-0.971234
C116	C	1.516542	0.098449	-0.471234
C117	C	1.063639	-0.354510	-0.938535
C118	C	1.563639	0.145490	-0.438535
C119	C	1.063518	-0.354653	-0.139043
C120	C	1.563518	0.145347	0.360957
C121	C	1.063635	-0.354452	-0.069402
C122	C	1.563635	0.145548	0.430598
H123	H	0.494246	-0.269439	-0.374663
H124	H	0.994246	0.230561	0.125337
H125	H	0.633673	-0.269421	-0.374660
H126	H	1.133673	0.230579	0.125340
Br127	Br	0.952556	-0.763752	-0.396211
Br128	Br	1.452556	-0.263752	0.103789
H129	H	1.074228	-0.234244	-0.861508
H130	H	1.574228	0.265756	-0.361508
Br131	Br	0.654423	-0.465475	-0.207221
Br132	Br	1.154423	0.034525	0.292779
H133	H	1.149048	-0.924012	-0.229235
H134	H	1.649048	-0.424012	0.270765
Br135	Br	0.952628	-0.944919	-0.396237
Br136	Br	1.452628	-0.444919	0.103763
H137	H	1.148989	-0.784585	-0.229206
H138	H	1.648989	-0.284585	0.270794
H139	H	0.494139	-0.439993	-0.229017
H140	H	0.994139	0.060007	0.270983
Br141	Br	1.174630	-0.243762	-0.523249
Br142	Br	1.674630	0.256238	-0.023249
H143	H	1.149060	-0.269246	-0.659711
H144	H	1.649060	0.230754	-0.159711
Br145	Br	1.077397	-0.198304	-0.725031
Br146	Br	1.577397	0.301696	-0.225031
H147	H	0.978190	-0.439988	-0.659660
H148	H	1.478190	0.060012	-0.159660
H149	H	1.149072	-0.269132	-0.944640
H150	H	1.649072	0.230868	-0.444640
Br151	Br	1.174647	-0.243541	-1.081119
Br152	Br	1.674647	0.256459	-0.581119
Br153	Br	0.952629	-0.465363	-1.081047
Br154	Br	1.452629	0.034637	-0.581047
Br155	Br	0.952630	-0.465428	-0.926814
Br156	Br	1.452630	0.034572	-0.426814
Br157	Br	1.049882	-0.510831	-0.879256
Br158	Br	1.549882	-0.010831	-0.379256
H159	H	1.052844	-0.474873	-0.742790
H160	H	1.552844	0.025127	-0.242790
Br161	Br	0.952611	-0.465586	-0.523173
Br162	Br	1.452611	0.034414	-0.023173
