data_functionalizedCrystal
_audit_creation_method	'MofGen! by Chris Wilmer'
_symmetry_space_group_name_H-M	'P1'
_symmetry_Int_Tables_number	1
_symmetry_cell_setting	triclinic
loop_
_symmetry_equiv_pos_as_xyz
  x,y,z
_cell_length_a	14.519731
_cell_length_b	27.732048
_cell_length_c	13.596369
_cell_angle_alpha	89.989067
_cell_angle_beta	89.994584
_cell_angle_gamma	83.165754
loop_
_atom_site_label
_atom_site_type_symbol
_atom_site_fract_x
_atom_site_fract_y
_atom_site_fract_z
O1	O	1.222753	0.063411	-0.081805
O2	O	0.954149	0.070862	-0.081807
O3	O	1.096793	-0.003220	-0.081787
O4	O	1.080109	0.137493	-0.081825
O5	O	1.096779	-0.003224	0.081796
O6	O	0.954135	0.070858	0.081775
O7	O	1.222739	0.063407	0.081778
Zn8	Zn	1.088435	0.067132	0.107749
Zn9	Zn	1.088453	0.067137	-0.107778
O10	O	1.080095	0.137489	0.081758
C11	C	0.919789	0.070511	-0.000016
C12	C	0.817427	0.069465	-0.000016
C13	C	1.096436	-0.021231	0.000007
C14	C	1.095382	-0.074890	0.000015
C15	C	0.734297	0.068615	-0.000020
C16	C	0.630007	0.067553	-0.000020
C17	C	0.546883	0.066710	-0.000020
C18	C	0.442586	0.065647	-0.000022
C19	C	1.173036	-0.413331	-0.000035
C20	C	1.169123	-0.615010	-0.000048
O21	O	1.240132	-0.645923	-0.000091
N22	N	1.084541	-0.634541	-0.000048
C23	C	1.000931	-0.603649	-0.000051
O24	O	0.928899	-0.624890	-0.000062
C25	C	1.004845	-0.401972	-0.000045
C26	C	1.089432	-0.382444	-0.000035
C27	C	1.257616	-0.393802	-0.000026
C28	C	1.258594	-0.343386	-0.000017
C29	C	1.174990	-0.312498	-0.000017
C30	C	1.090410	-0.332027	-0.000026
C31	C	0.921236	-0.371081	-0.000055
C32	C	0.922222	-0.320659	-0.000055
C33	C	1.006809	-0.301131	-0.000046
C34	C	1.007784	-0.250723	-0.000017
N35	N	1.092366	-0.231191	-0.000017
C36	C	1.175969	-0.262079	-0.000017
C37	C	0.998882	-0.709533	-0.000053
C38	C	0.997903	-0.759953	-0.000053
C39	C	1.166096	-0.771309	-0.000052
C40	C	1.167073	-0.720889	-0.000045
C41	C	1.083464	-0.690002	-0.000053
C42	C	1.178015	-0.156200	0.000002
C43	C	1.178985	-0.105778	0.000015
C44	C	1.010793	-0.094426	0.000009
C45	C	1.009823	-0.144843	0.000001
C46	C	1.093441	-0.175729	-0.000006
O47	O	0.936812	-0.219781	0.000014
O48	O	1.247991	-0.240829	-0.000029
C49	C	1.172058	-0.463748	-0.000043
C50	C	1.087478	-0.483277	-0.000052
C51	C	1.003874	-0.452389	-0.000052
C52	C	1.086499	-0.533696	-0.000052
C53	C	1.170102	-0.564584	-0.000052
C54	C	1.254685	-0.545052	-0.000052
C55	C	1.255662	-0.494636	-0.000043
C56	C	0.919292	-0.471921	-0.000052
C57	C	0.918322	-0.522338	-0.000060
C58	C	1.001925	-0.553225	-0.000060
C59	C	1.257099	0.063758	-0.000015
C60	C	1.359462	0.064804	-0.000021
C61	C	1.080452	0.155500	-0.000038
C62	C	1.081507	0.209160	-0.000053
N63	N	1.088429	0.067128	0.254841
N64	N	1.088467	0.067137	-0.254870
C65	C	1.088452	0.067138	0.656132
C66	C	1.088443	0.067137	0.544481
C67	C	1.088441	0.067133	0.455490
C68	C	1.088431	0.067132	0.343832
H69	H	1.246105	-0.181342	-0.000007
N70	N	0.911499	-0.779897	-0.000072
N71	N	0.892191	-0.806754	-0.069032
H72	H	0.831164	-0.820838	-0.069052
N73	N	1.345007	-0.323450	-0.000011
N74	N	1.419639	-0.351042	-0.000015
H75	H	1.480674	-0.336966	-0.000014
H76	H	0.930793	-0.684389	-0.000059
H77	H	1.325700	-0.418947	-0.000029
N78	N	0.923418	-0.164791	-0.000020
N79	N	0.904110	-0.191643	-0.068987
H80	H	0.843084	-0.205728	-0.069011
N81	N	0.925409	-0.062861	-0.000006
N82	N	0.907220	-0.033452	-0.068964
H83	H	0.846917	-0.011157	-0.068982
N84	N	1.342075	-0.474700	-0.000029
N85	N	1.416708	-0.502292	-0.000028
H86	H	1.477742	-0.488216	-0.000019
H87	H	0.851211	-0.446776	-0.000054
N88	N	0.834822	-0.391013	-0.000067
N89	N	0.760191	-0.363419	-0.000078
H90	H	0.699155	-0.377494	-0.000090
N91	N	1.340076	-0.576616	-0.000042
N92	N	1.339178	-0.621631	-0.000046
H93	H	1.399481	-0.643925	-0.000041
N94	N	1.265401	-0.085839	0.000033
N95	N	1.340039	-0.113427	0.000033
H96	H	1.401070	-0.099347	0.000045
H97	H	0.854135	-0.295513	-0.000064
H98	H	1.235952	-0.704993	-0.000037
N99	N	1.251487	-0.802872	-0.000044
N100	N	1.250590	-0.847887	-0.000043
H101	H	1.310894	-0.870181	-0.000042
H102	H	0.849435	-0.538232	-0.000059
