data_functionalizedCrystal
_audit_creation_method	'MofGen! by Chris Wilmer'
_symmetry_space_group_name_H-M	'P1'
_symmetry_Int_Tables_number	1
_symmetry_cell_setting	triclinic
loop_
_symmetry_equiv_pos_as_xyz
  x,y,z
_cell_length_a	9.065215
_cell_length_b	9.065215
_cell_length_c	13.448316
_cell_angle_alpha	89.994392
_cell_angle_beta	89.993808
_cell_angle_gamma	85.014697
loop_
_atom_site_label
_atom_site_type_symbol
_atom_site_fract_x
_atom_site_fract_y
_atom_site_fract_z
O1	O	1.960406	0.216340	-0.082678
O2	O	2.293740	0.549674	0.250655
O3	O	2.627073	0.883007	0.583989
O4	O	1.531121	0.234091	-0.082682
O5	O	1.864454	0.567425	0.250651
O6	O	2.197787	0.900758	0.583984
O7	O	1.754639	0.010573	-0.082676
O8	O	2.087972	0.343906	0.250657
O9	O	2.421306	0.677240	0.583991
O10	O	1.736888	0.439858	-0.082685
O11	O	2.070221	0.773192	0.250649
O12	O	2.403555	1.106525	0.583982
O13	O	1.754610	0.010559	0.082708
O14	O	2.087944	0.343892	0.416041
O15	O	2.421277	0.677225	0.749375
O16	O	1.531092	0.234077	0.082701
O17	O	1.864425	0.567410	0.416035
O18	O	2.197759	0.900744	0.749368
O19	O	1.960378	0.216326	0.082706
O20	O	2.293711	0.549659	0.416039
O21	O	2.627044	0.882993	0.749372
Cu22	Cu	1.745732	0.225200	0.097804
Cu23	Cu	2.079065	0.558533	0.431138
Cu24	Cu	2.412399	0.891867	0.764471
Cu25	Cu	1.745766	0.225217	-0.097781
Cu26	Cu	2.079099	0.558550	0.235552
Cu27	Cu	2.412433	0.891884	0.568886
O28	O	1.736859	0.439844	0.082699
O29	O	2.070193	0.773178	0.416033
O30	O	2.403526	1.106511	0.749366
C31	C	1.476120	0.232379	0.000009
C32	C	1.809453	0.565712	0.333342
C33	C	2.142786	0.899046	0.666676
C34	C	1.312277	0.227281	0.000007
C35	C	1.645610	0.560614	0.333341
C36	C	1.978943	0.893948	0.666674
C37	C	1.752920	-0.044421	0.000015
C38	C	2.086253	0.288912	0.333348
C39	C	2.419586	0.622246	0.666682
C40	C	1.747822	-0.208264	0.000012
C41	C	2.081155	0.125069	0.333345
C42	C	2.414488	0.458403	0.666679
C43	C	2.015379	0.218038	0.000012
C44	C	2.348712	0.551371	0.333345
C45	C	2.682045	0.884705	0.666679
C46	C	2.179222	0.223136	0.000007
C47	C	2.512555	0.556469	0.333341
C48	C	2.845888	0.889803	0.666674
C49	C	1.738579	0.494838	0.000006
C50	C	2.071912	0.828171	0.333339
C51	C	2.405245	1.161505	0.666673
C52	C	1.743677	0.658681	0.000003
C53	C	2.077010	0.992014	0.333336
C54	C	2.410343	1.325348	0.666669
N55	N	1.745719	0.225187	0.235369
N56	N	2.079052	0.558521	0.568702
N57	N	2.412386	0.891854	0.902035
N58	N	1.745791	0.225218	-0.235345
N59	N	2.079124	0.558551	0.097988
N60	N	2.412457	0.891885	0.431321
C61	C	1.844725	0.126255	0.287412
C62	C	2.178058	0.459588	0.620745
C63	C	2.511391	0.792922	0.954079
C64	C	1.844734	0.126254	0.391515
C65	C	2.178067	0.459587	0.724849
C66	C	2.511400	0.792921	1.058182
C67	C	1.745744	0.225194	0.443573
C68	C	2.079077	0.558527	0.776907
C69	C	2.412410	0.891860	1.110240
C70	C	1.646727	0.324130	0.391523
C71	C	1.980061	0.657464	0.724856
C72	C	2.313394	0.990797	1.058189
C73	C	1.646712	0.324123	0.287421
C74	C	1.980045	0.657457	0.620755
C75	C	2.313379	0.990790	0.954088
C76	C	1.646768	0.324141	0.608503
C77	C	1.980102	0.657474	0.941836
C78	C	2.313435	0.990808	1.275169
C79	C	1.646785	0.324150	0.712611
C80	C	1.980118	0.657484	1.045945
C81	C	2.313452	0.990817	1.379278
C82	C	1.844790	0.126272	0.712597
C83	C	2.178123	0.459605	1.045930
C84	C	2.511457	0.792938	1.379263
C85	C	1.844775	0.126265	0.608495
C86	C	2.178108	0.459598	0.941829
C87	C	2.511442	0.792931	1.275162
C88	C	1.745760	0.225204	0.556452
C89	C	2.079094	0.558537	0.889785
C90	C	2.412427	0.891870	1.223119
H91	H	1.925340	0.045694	0.245033
H92	H	2.258673	0.379027	0.578366
H93	H	2.592007	0.712360	0.911700
H94	H	1.925350	0.045695	0.433888
H95	H	2.258684	0.379028	0.767222
H96	H	2.592017	0.712362	1.100555
H97	H	1.566090	0.404682	0.245049
H98	H	1.899423	0.738015	0.578382
H99	H	2.232757	1.071349	0.911715
F100	F	1.541366	0.429424	0.446928
F101	F	1.874699	0.762757	0.780261
F102	F	2.208032	1.096091	1.113594
H103	H	1.566135	0.404703	0.566133
H104	H	1.899468	0.738036	0.899466
H105	H	2.232802	1.071370	1.232799
H106	H	1.925387	0.045708	0.566110
H107	H	2.258720	0.379041	0.899443
H108	H	2.592054	0.712375	1.232776
H109	H	1.925411	0.045712	0.754976
H110	H	2.258744	0.379046	1.088310
H111	H	2.592077	0.712379	1.421643
F112	F	1.541423	0.429454	0.768008
F113	F	1.874756	0.762787	1.101342
F114	F	2.208090	1.096121	1.434675
