data_functionalizedCrystal
_audit_creation_method	'MofGen! by Chris Wilmer'
_symmetry_space_group_name_H-M	'P1'
_symmetry_Int_Tables_number	1
_symmetry_cell_setting	triclinic
loop_
_symmetry_equiv_pos_as_xyz
  x,y,z
_cell_length_a	11.792241
_cell_length_b	11.792241
_cell_length_c	10.868271
_cell_angle_alpha	90.005737
_cell_angle_beta	90.004182
_cell_angle_gamma	95.806584
loop_
_atom_site_label
_atom_site_type_symbol
_atom_site_fract_x
_atom_site_fract_y
_atom_site_fract_z
O1	O	-1.506902	0.155570	0.102185
O2	O	-1.176561	0.171603	0.102218
O3	O	-1.349748	-0.001584	0.102192
O4	O	-1.333715	0.328757	0.102211
O5	O	-1.349746	-0.001594	-0.102453
O6	O	-1.176559	0.171593	-0.102427
O7	O	-1.506900	0.155560	-0.102460
Zn8	Zn	-1.341729	0.163575	-0.134935
Zn9	Zn	-1.341732	0.163588	0.134693
O10	O	-1.333713	0.328747	-0.102434
C11	C	-1.134269	0.170591	-0.000101
C12	C	-1.008255	0.167576	-0.000088
C13	C	-1.348740	-0.043880	-0.000130
C14	C	-1.345726	-0.169894	-0.000129
C15	C	-0.777543	0.162034	-0.000121
C16	C	-0.905928	0.165113	-0.000103
C17	C	-1.340183	-0.400606	-0.000107
C18	C	-1.343262	-0.272221	-0.000119
C19	C	-0.549192	0.156572	-0.000136
C20	C	-0.675206	0.159587	-0.000131
C21	C	-1.334721	0.371043	-0.000109
C22	C	-1.337736	0.497057	-0.000103
N23	N	-1.341735	0.163588	0.318707
N24	N	-1.341736	0.163566	-0.318949
C25	C	-1.341731	0.163581	0.569713
C26	C	-1.341730	0.163589	0.430036
