data_functionalizedCrystal
_audit_creation_method	'MofGen! by Chris Wilmer'
_symmetry_space_group_name_H-M	'P1'
_symmetry_Int_Tables_number	1
_symmetry_cell_setting	triclinic
loop_
_symmetry_equiv_pos_as_xyz
  x,y,z
_cell_length_a	10.654549
_cell_length_b	10.967829
_cell_length_c	9.130313
_cell_angle_alpha	77.867600
_cell_angle_beta	89.997498
_cell_angle_gamma	84.600152
loop_
_atom_site_label
_atom_site_type_symbol
_atom_site_fract_x
_atom_site_fract_y
_atom_site_fract_z
O1	O	1.667815	0.175275	-0.166001
O2	O	1.302334	0.191975	-0.170226
O3	O	1.493503	0.002047	-0.122278
O4	O	1.476646	0.365203	-0.213950
O5	O	1.493490	0.002042	0.121323
O6	O	1.302321	0.191969	0.073374
O7	O	1.667802	0.175270	0.077599
Cu8	Cu	1.485060	0.183619	0.097729
Cu9	Cu	1.485076	0.183626	-0.190356
O10	O	1.476633	0.365197	0.029651
C11	C	1.255530	0.190746	-0.048118
C12	C	1.116087	0.187078	-0.047196
C13	C	0.905557	0.295448	-0.074546
C14	C	1.036578	0.298904	-0.075427
C15	C	1.064571	0.071788	-0.018096
C16	C	0.933553	0.068333	-0.017226
C17	C	1.492269	-0.044456	0.011257
C18	C	1.488596	-0.183013	0.046224
C19	C	1.486966	-0.244777	-0.064380
C20	C	1.483170	-0.387982	-0.028244
C21	C	1.714606	0.176498	-0.044512
C22	C	1.854049	0.180167	-0.045444
C23	C	1.477867	0.411700	-0.103888
C24	C	1.481540	0.550257	-0.138864
N25	N	1.485059	0.183614	0.300353
N26	N	1.485088	0.183621	-0.392978
C27	C	1.569737	0.099549	0.398228
C28	C	1.569749	0.099550	0.551564
C29	C	1.400400	0.267689	0.509136
C30	C	1.400383	0.267682	0.355804
H31	H	0.840828	0.386511	-0.097524
N32	N	1.661098	0.008893	0.657120
H33	H	1.612657	-0.046818	0.734817
H34	H	1.714709	-0.044269	0.598596
H35	H	1.331461	0.336138	0.554299
N36	N	1.309037	0.358345	0.250227
H37	H	1.255402	0.411608	0.308618
H38	H	1.357575	0.413958	0.172546
N39	N	1.092134	0.423242	-0.106831
H40	H	1.021885	0.493559	-0.124579
H41	H	1.145888	0.429627	-0.018144
N42	N	1.150316	-0.048831	0.012356
H43	H	1.205309	-0.052463	-0.077024
H44	H	1.205209	-0.052388	0.103621
H45	H	0.891616	-0.025548	0.006469
H46	H	1.488375	-0.191635	-0.185826
H47	H	1.487174	-0.236153	0.167669
N48	N	1.481298	-0.458352	0.132639
H49	H	1.478854	-0.550679	0.135651
H50	H	1.559621	-0.445105	0.187313
H51	H	1.482939	-0.396607	-0.260319
H52	H	1.638683	0.031094	0.353085
