data_functionalizedCrystal
_audit_creation_method	'MofGen! by Chris Wilmer'
_symmetry_space_group_name_H-M	'P1'
_symmetry_Int_Tables_number	1
_symmetry_cell_setting	triclinic
loop_
_symmetry_equiv_pos_as_xyz
  x,y,z
_cell_length_a	18.426585
_cell_length_b	12.970454
_cell_length_c	18.426585
_cell_angle_alpha	59.999977
_cell_angle_beta	90.001513
_cell_angle_gamma	60.001296
loop_
_atom_site_label
_atom_site_type_symbol
_atom_site_fract_x
_atom_site_fract_y
_atom_site_fract_z
Zr1	Zr	0.699109	1.128559	-0.095250
O2	O	0.583227	1.343648	-0.211127
O3	O	0.734632	0.913470	-0.059729
O4	O	0.734625	1.128568	-0.211132
O5	O	0.583240	1.128543	0.059707
O6	O	0.854051	1.128575	-0.211135
O7	O	0.583234	1.128550	-0.059724
O8	O	0.854064	0.743804	0.059698
O9	O	0.583227	1.513314	-0.211126
O10	O	0.838909	1.001945	-0.044580
O11	O	0.749788	1.001934	0.044552
O12	O	0.749779	1.255184	-0.133706
O13	O	0.660658	1.255174	-0.044574
Zr14	Zr	0.889589	1.128559	0.095223
Zr15	Zr	0.889579	1.128571	-0.095255
Zr16	Zr	0.699118	1.128548	0.095228
Zr17	Zr	0.699109	1.399157	-0.095249
Zr18	Zr	0.889588	0.857962	0.095222
O19	O	0.854065	1.343648	0.059702
O20	O	0.854051	1.343664	-0.211134
O21	O	0.583241	1.343632	0.059709
O22	O	1.005471	0.913470	0.211100
O23	O	1.005457	0.913486	-0.059736
O24	O	0.734646	0.913454	0.211107
O25	O	1.005457	1.128575	-0.059734
O26	O	0.854073	1.128550	0.211106
O27	O	0.734647	1.128543	0.211109
O28	O	1.005463	1.128568	0.059697
O29	O	0.734626	1.513323	-0.211130
O30	O	0.854072	0.743795	0.211103
O31	O	1.005470	0.743804	0.211099
O32	O	1.005463	0.743813	0.059694
O33	O	0.583235	1.513305	-0.059721
O34	O	0.734634	1.513314	-0.059725
O35	O	0.838918	1.001934	0.133680
O36	O	0.928040	1.001945	0.044547
O37	O	0.838910	1.255184	-0.044579
O38	O	0.749788	1.255174	0.044553
C39	C	0.794348	0.790083	-0.000015
C40	C	0.794348	0.675207	-0.000016
C41	C	0.556099	1.128545	-0.000007
C42	C	0.475240	1.128540	-0.000005
C43	C	0.179125	1.128584	-0.000021
C44	C	0.261511	1.128578	-0.000019
C45	C	0.327179	1.128562	-0.000014
C46	C	0.409571	1.128556	-0.000010
C47	C	1.032598	1.128573	-0.000019
C48	C	1.113458	1.128578	-0.000022
C49	C	0.794336	1.128573	-0.238273
C50	C	0.794332	1.128578	-0.319136
C51	C	0.794350	1.467035	-0.000011
C52	C	0.794350	1.581911	-0.000011
C53	C	0.794366	1.128535	-0.615220
C54	C	0.794358	1.128541	-0.532838
C55	C	0.794348	1.128556	-0.467181
C56	C	0.794342	1.128563	-0.384794
C57	C	0.794361	1.128545	0.238246
C58	C	0.794365	1.128540	0.319109
C59	C	1.032597	0.790097	-0.000022
C60	C	1.113457	0.675226	-0.000024
C61	C	0.794360	0.790068	0.238244
C62	C	0.794364	0.675188	0.319107
C63	C	1.032610	0.790083	0.238238
C64	C	1.113473	0.675207	0.319099
C65	C	0.556088	1.467035	-0.238265
C66	C	0.475224	1.581911	-0.319125
C67	C	0.556100	1.467021	-0.000005
C68	C	0.475241	1.581892	-0.000003
C69	C	0.794337	1.467050	-0.238271
C70	C	0.794333	1.581930	-0.319134
C71	C	1.104904	0.621282	-0.046557
C72	C	1.180873	0.513363	-0.046578
C73	C	1.265394	0.459384	-0.000059
C74	C	1.273945	0.513339	0.046475
C75	C	1.197977	0.621263	0.046490
C76	C	0.840891	0.621239	0.403612
C77	C	0.840892	0.513311	0.479598
C78	C	0.794369	0.459328	0.471077
C79	C	0.747837	0.513287	0.386562
C80	C	0.747832	0.621220	0.310578
C81	C	1.197976	0.621266	0.310545
C82	C	1.273964	0.513343	0.386515
C83	C	1.265446	0.459356	0.471037
C84	C	1.180934	0.513308	0.479588
C85	C	1.104949	0.621236	0.403620
C86	C	0.390721	1.635866	-0.310572
C87	C	0.314734	1.743822	-0.386542
C88	C	0.323252	1.797815	-0.471064
C89	C	0.407763	1.743856	-0.479615
C90	C	0.483749	1.635909	-0.403647
C91	C	0.483794	1.635848	0.046522
C92	C	0.407825	1.743796	0.046522
C93	C	0.323304	1.797779	0.000001
C94	C	0.314753	1.743819	-0.046530
C95	C	0.390721	1.635880	-0.046534
C96	C	0.840865	1.635880	-0.310584
C97	C	0.840878	1.743808	-0.386555
C98	C	0.794355	1.797792	-0.471076
C99	C	0.747822	1.743832	-0.479624
C100	C	0.747814	1.635899	-0.403653
H101	H	1.036090	0.665230	-0.084449
H102	H	0.878787	0.469390	0.548406
F103	F	1.346325	0.344486	0.551883
F104	F	1.171883	0.455835	0.569550
H105	H	0.414805	1.787713	0.084416
F106	F	1.363905	0.455872	0.095983
H107	H	0.709919	1.591985	-0.410627
H108	H	1.173893	0.469446	-0.084471
F109	F	1.346238	0.344519	-0.000082
H110	H	0.878776	0.665180	0.410568
F111	F	0.794383	0.344453	0.551955
F112	F	0.890402	1.801223	-0.377439
F113	F	1.015016	0.678626	0.412736
H114	H	0.709959	0.469318	0.379637
H115	H	0.709946	0.665131	0.241773
F116	F	0.381604	1.578460	-0.096050
F117	F	1.207093	0.678656	0.096025
H118	H	0.261372	1.885712	-0.532915
H119	H	1.204929	0.665206	0.241730
H120	H	1.342770	0.469426	0.379536
H121	H	0.383769	1.591911	-0.241757
F122	F	0.224799	1.801226	-0.377422
F123	F	0.416815	1.801331	-0.569577
H124	H	0.552553	1.591980	-0.410621
F125	F	0.573740	1.578418	0.096038
H126	H	0.261453	1.885670	0.000011
F127	F	0.224792	1.801283	-0.096036
H128	H	0.794368	1.885679	-0.532929
F129	F	0.890385	1.578445	-0.220637
H130	H	0.709944	1.787803	-0.548451
