data_functionalizedCrystal
_audit_creation_method	'MofGen! by Chris Wilmer'
_symmetry_space_group_name_H-M	'P1'
_symmetry_Int_Tables_number	1
_symmetry_cell_setting	triclinic
loop_
_symmetry_equiv_pos_as_xyz
  x,y,z
_cell_length_a	12.827892
_cell_length_b	19.805407
_cell_length_c	19.805399
_cell_angle_alpha	89.980803
_cell_angle_beta	90.022719
_cell_angle_gamma	89.988648
loop_
_atom_site_label
_atom_site_type_symbol
_atom_site_fract_x
_atom_site_fract_y
_atom_site_fract_z
Zn1	Zn	-0.416165	-1.034788	0.382736
Zn2	Zn	-0.590920	-1.034725	0.269557
Zn3	Zn	-0.416182	-0.921603	0.269561
Zn4	Zn	-0.590853	-0.921589	0.382705
O5	O	-0.503530	-0.978176	0.326140
O6	O	-0.439367	-1.129497	0.367734
O7	O	-0.567776	-1.019699	0.174841
O8	O	-0.269943	-0.936650	0.284589
O9	O	-0.567759	-1.129450	0.284582
O10	O	-0.269931	-1.019806	0.367738
O11	O	-0.439396	-0.936589	0.174844
O12	O	-0.439331	-0.826885	0.284558
O13	O	-0.567645	-0.936625	0.477425
O14	O	-0.567661	-0.826874	0.367684
O15	O	-0.439302	-1.019793	0.477448
O16	O	-0.737147	-1.019685	0.284552
O17	O	-0.737098	-0.936564	0.367681
C18	C	-0.503491	-0.802320	0.326119
C19	C	-0.503500	-0.727088	0.326126
C20	C	-0.436764	-0.691769	0.369488
C21	C	-0.436767	-0.621081	0.369489
C22	C	-0.503513	-0.585713	0.326131
C23	C	-0.570252	-0.621037	0.282764
C24	C	-0.570243	-0.691724	0.282760
C25	C	-0.570290	-0.335964	0.282778
C26	C	-0.570297	-0.265272	0.282786
C27	C	-0.436814	-0.265320	0.369507
C28	C	-0.436805	-0.336007	0.369503
C29	C	-0.503540	-0.371325	0.326134
C30	C	-0.503534	-0.447974	0.326132
C31	C	-0.503525	-0.509066	0.326135
C32	C	-0.775040	-0.978135	0.326127
C33	C	-0.891193	-0.978179	0.326144
C34	C	-0.942987	-0.937038	0.367249
C35	C	-1.063038	-0.937083	0.367268
C36	C	-0.230960	-0.978237	0.326167
C37	C	-0.114806	-0.978262	0.326179
C38	C	-0.503464	-0.978214	0.502682
C39	C	-0.503436	-0.978230	0.577914
C40	C	-0.503561	-0.154719	0.326155
C41	C	-0.503554	-0.229951	0.326146
C42	C	-0.503520	-0.978177	0.150284
C43	C	-0.503253	-0.978292	0.075052
C44	C	-0.436605	-1.021537	0.613272
C45	C	-0.436574	-1.021544	0.683960
C46	C	-0.503381	-0.978247	0.719290
C47	C	-0.570215	-0.934936	0.683928
C48	C	-0.570240	-0.934926	0.613241
C49	C	-0.570118	-0.934975	0.969001
C50	C	-0.570091	-0.934989	1.039694
C51	C	-0.436453	-1.021592	1.039721
C52	C	-0.436477	-1.021582	0.969034
C53	C	-0.503307	-0.978269	0.933678
C54	C	-0.503337	-0.978261	0.857029
C55	C	-0.503357	-0.978258	0.795937
H56	H	-0.624593	-0.592235	0.247457
H57	H	-0.382425	-0.592327	0.404800
O58	O	-0.371801	-1.063571	0.578850
C59	C	-0.312549	-1.101904	0.469969
C60	C	-0.386016	-1.054280	0.508863
H61	H	-0.324000	-1.094399	0.413378
H62	H	-0.330902	-1.156496	0.483824
H63	H	-0.228292	-1.090041	0.483918
H64	H	-0.470298	-1.066082	0.494935
H65	H	-0.367574	-0.999703	0.495005
O66	O	-1.116282	-0.895155	0.409287
C67	C	-1.239509	-0.886117	0.500638
C68	C	-1.179292	-0.933676	0.453081
H69	H	-1.290451	-0.917242	0.536067
H70	H	-1.290756	-0.850804	0.469546
H71	H	-1.181834	-0.855090	0.531540
H72	H	-1.236893	-0.964747	0.422169
H73	H	-1.128031	-0.968944	0.484212
H74	H	-0.624652	-0.236477	0.247476
H75	H	-0.898457	-0.901780	0.402424
H76	H	-0.382033	-1.056857	1.068516
H77	H	-0.624631	-0.364711	0.247464
O78	O	-0.635002	-0.892781	0.718214
C79	C	-0.685741	-0.777641	0.739783
C80	C	-0.612284	-0.825304	0.700926
H81	H	-0.667414	-0.723077	0.725809
H82	H	-0.674245	-0.785028	0.796387
H83	H	-0.770004	-0.789542	0.725882
H84	H	-0.527993	-0.813433	0.714770
H85	H	-0.623870	-0.817908	0.644332
O86	O	-0.371979	-0.726049	0.411702
C87	C	-0.321526	-0.747755	0.526893
C88	C	-0.394947	-0.708882	0.479162
H89	H	-0.340083	-0.733900	0.581445
H90	H	-0.237223	-0.733845	0.515157
H91	H	-0.332966	-0.804341	0.519409
H92	H	-0.383600	-0.652287	0.486619
H93	H	-0.479223	-0.722847	0.490910
O94	O	-0.635019	-0.892861	1.073910
C95	C	-0.767611	-0.806980	1.066427
C96	C	-0.694121	-0.854639	1.027594
H97	H	-0.815430	-0.776075	1.028998
H98	H	-0.719657	-0.771564	1.099504
H99	H	-0.822207	-0.838058	1.099538
H100	H	-0.639510	-0.823616	0.994446
H101	H	-0.742140	-0.890056	0.994560
H102	H	-1.070272	-1.013489	0.290988
O103	O	-0.371423	-1.063567	0.934750
C104	C	-0.193674	-1.096476	0.913193
C105	C	-0.267236	-1.048877	0.952044
H106	H	-0.109425	-1.084626	0.927172
H107	H	-0.205071	-1.089031	0.856588
H108	H	-0.212081	-1.151047	0.927093
H109	H	-0.248875	-0.994287	0.938201
H110	H	-0.255825	-1.056380	1.008640
O111	O	-0.635092	-0.892995	0.934595
C112	C	-0.776266	-0.883826	0.854816
C113	C	-0.702727	-0.931448	0.893726
H114	H	-0.830981	-0.914897	0.821775
H115	H	-0.728354	-0.848445	0.821679
H116	H	-0.823954	-0.852876	0.892233
H117	H	-0.655023	-0.962443	0.856358
H118	H	-0.750699	-0.966785	0.926873
O119	O	-0.635224	-0.726006	0.240713
C120	C	-0.812909	-0.747581	0.207632
C121	C	-0.739440	-0.708728	0.255306
H122	H	-0.897181	-0.733615	0.219404
H123	H	-0.801526	-0.804186	0.215079
H124	H	-0.794396	-0.733671	0.153080
H125	H	-0.757908	-0.722581	0.309876
H126	H	-0.750836	-0.652132	0.247801
O127	O	-0.371507	-1.063581	0.718226
C128	C	-0.193743	-1.096458	0.739892
C129	C	-0.267321	-1.048818	0.701036
H130	H	-0.109492	-1.084530	0.726019
H131	H	-0.212032	-1.151039	0.725988
H132	H	-0.205240	-1.089043	0.796481
H133	H	-0.255866	-1.056172	0.644439
H134	H	-0.249014	-0.994254	0.714997
O135	O	-0.371869	-0.370258	0.411642
C136	C	-0.239506	-0.362844	0.497685
C137	C	-0.312980	-0.323972	0.449988
H138	H	-0.191891	-0.325439	0.528710
H139	H	-0.184729	-0.395910	0.466699
H140	H	-0.287567	-0.395967	0.532993
H141	H	-0.265004	-0.290812	0.414671
H142	H	-0.367760	-0.290948	0.481016
H143	H	-0.624650	-0.899655	0.584454
O144	O	-0.944340	-1.020332	0.284283
C145	C	-1.067595	-1.111699	0.275390
C146	C	-1.007467	-1.063999	0.322869
H147	H	-1.118664	-1.147007	0.306566
H148	H	-1.009954	-1.142717	0.244465
H149	H	-1.118736	-1.080647	0.239979
H150	H	-0.956324	-1.094999	0.358321
H151	H	-1.065164	-1.032979	0.353747
H152	H	-0.382472	-0.236556	0.404818
