data_functionalizedCrystal
_audit_creation_method	'MofGen! by Chris Wilmer'
_symmetry_space_group_name_H-M	'P1'
_symmetry_Int_Tables_number	1
_symmetry_cell_setting	triclinic
loop_
_symmetry_equiv_pos_as_xyz
  x,y,z
_cell_length_a	11.792241
_cell_length_b	14.853567
_cell_length_c	13.930277
_cell_angle_alpha	90.002109
_cell_angle_beta	90.000613
_cell_angle_gamma	96.085827
loop_
_atom_site_label
_atom_site_type_symbol
_atom_site_fract_x
_atom_site_fract_y
_atom_site_fract_z
O1	O	1.506147	-0.123564	0.079729
O2	O	1.175728	-0.136299	0.079750
O3	O	1.349764	0.001264	0.079742
O4	O	1.332111	-0.261127	0.079737
O5	O	1.349746	0.001260	-0.079920
O6	O	1.175710	-0.136303	-0.079911
O7	O	1.506130	-0.123568	-0.079933
Zn8	Zn	1.340918	-0.129936	-0.105272
Zn9	Zn	1.340940	-0.129931	0.105089
O10	O	1.332094	-0.261131	-0.079924
C11	C	1.133433	-0.135501	-0.000078
C12	C	1.007434	-0.133106	-0.000069
C13	C	1.348955	0.034854	-0.000086
C14	C	1.346558	0.134947	-0.000078
N15	N	1.340910	-0.129939	-0.248838
C16	C	0.776749	-0.128704	-0.000097
C17	C	0.905119	-0.131150	-0.000081
C18	C	1.548425	-0.124366	-0.000103
C19	C	1.674424	-0.126760	-0.000105
C20	C	1.332903	-0.294720	-0.000094
C21	C	1.335300	-0.394813	-0.000096
C22	C	1.233045	0.547923	-0.000088
C23	C	1.439804	0.568399	-0.000102
C24	C	1.442058	0.474356	-0.000096
C25	C	1.339804	0.417093	-0.000088
C26	C	1.235296	0.453871	-0.000086
C27	C	1.546563	0.437570	-0.000109
C28	C	1.548821	0.343522	-0.000104
C29	C	1.446566	0.286257	-0.000089
C30	C	1.342054	0.323041	-0.000086
C31	C	1.239800	0.265777	-0.000078
C32	C	1.135287	0.302559	-0.000067
C33	C	1.133041	0.396606	-0.000071
C34	C	1.448812	0.192211	-0.000086
C35	C	1.242051	0.171726	-0.000075
C36	C	1.263837	-0.190833	-0.299098
C37	C	1.417991	-0.069041	-0.299083
C38	C	1.418003	-0.069037	-0.399579
C39	C	1.340930	-0.129931	-0.449839
C40	C	1.263844	-0.190829	-0.399603
C41	C	1.495080	-0.008135	-0.449823
C42	C	1.495094	-0.008128	-0.550325
C43	C	1.418025	-0.069027	-0.600586
C44	C	1.340937	-0.129928	-0.550344
C45	C	1.263864	-0.190822	-0.600603
C46	C	1.186780	-0.251728	-0.550363
C47	C	1.186775	-0.251728	-0.449864
C48	C	1.418030	-0.069027	-0.701085
C49	C	1.263871	-0.190818	-0.701108
N50	N	1.340956	-0.129921	0.248656
H51	H	1.158782	0.125107	-0.000064
H52	H	1.047952	0.426563	-0.000063
H53	H	1.633922	0.313583	-0.000111
C54	C	1.722110	0.483988	0.081951
C55	C	1.658954	0.500515	-0.000117
H56	H	1.791500	0.522849	0.081943
H57	H	1.679270	0.495194	0.137622
H58	H	1.738407	0.422713	0.081936
H59	H	1.642650	0.561789	-0.000099
H60	H	1.701803	0.489316	-0.055802
H61	H	1.523054	0.615028	-0.000116
H62	H	1.052032	0.255923	-0.000067
H63	H	1.147953	0.577875	-0.000076
C64	C	1.652956	0.221901	-0.000099
C65	C	1.563681	0.151779	-0.000089
H66	H	1.723874	0.196939	-0.000092
H67	H	1.647774	0.258146	-0.055778
H68	H	1.647775	0.258167	0.055578
H69	H	1.568858	0.115517	-0.055770
H70	H	1.568866	0.115519	0.055595
H71	H	1.124016	-0.301315	-0.408952
C72	C	1.118352	-0.305788	-0.704434
C73	C	1.102063	-0.318662	-0.605615
H74	H	1.066056	-0.347114	-0.738545
H75	H	1.105927	-0.245559	-0.720886
H76	H	1.194119	-0.315977	-0.720890
H77	H	1.026298	-0.308467	-0.589158
H78	H	1.114479	-0.378906	-0.589157
C79	C	1.239393	-0.313407	-0.186094
C80	C	1.179109	-0.257776	-0.243876
H81	H	1.187082	-0.354731	-0.151998
H82	H	1.286677	-0.346083	-0.225303
H83	H	1.285289	-0.277135	-0.141781
H84	H	1.133218	-0.294049	-0.288195
H85	H	1.131805	-0.225098	-0.204664
C86	C	1.442562	0.053431	-0.185932
C87	C	1.502765	-0.002202	-0.243783
H88	H	1.494921	0.094664	-0.151770
H89	H	1.395355	0.086209	-0.225104
H90	H	1.396593	0.017149	-0.141679
H91	H	1.548728	0.034080	-0.288042
H92	H	1.549992	-0.034982	-0.204608
H93	H	1.557825	0.041448	-0.408898
H94	H	1.557859	0.041464	-0.591224
H95	H	1.480785	-0.019434	-0.741986
H96	H	1.201112	-0.240409	-0.742024
