data_functionalizedCrystal
_audit_creation_method	'MofGen! by Chris Wilmer'
_symmetry_space_group_name_H-M	'P1'
_symmetry_Int_Tables_number	1
_symmetry_cell_setting	triclinic
loop_
_symmetry_equiv_pos_as_xyz
  x,y,z
_cell_length_a	13.033808
_cell_length_b	13.032721
_cell_length_c	19.805398
_cell_angle_alpha	97.154074
_cell_angle_beta	97.162195
_cell_angle_gamma	103.361820
loop_
_atom_site_label
_atom_site_type_symbol
_atom_site_fract_x
_atom_site_fract_y
_atom_site_fract_z
Zn1	Zn	1.570020	-0.216355	-0.271527
Zn2	Zn	1.547361	-0.394000	-0.174813
Zn3	Zn	1.392420	-0.238977	-0.174804
Zn4	Zn	1.369808	-0.416525	-0.304400
O5	O	1.469902	-0.316464	-0.231386
O6	O	1.715647	-0.221026	-0.244944
O7	O	1.526787	-0.373476	-0.080100
O8	O	1.434925	-0.087327	-0.173873
O9	O	1.698999	-0.351540	-0.173889
O10	O	1.565407	-0.070707	-0.244936
O11	O	1.412953	-0.259582	-0.080093
O12	O	1.240787	-0.281424	-0.205748
O13	O	1.396387	-0.389932	-0.394751
O14	O	1.224175	-0.411867	-0.300962
O15	O	1.543482	-0.242868	-0.370599
O16	O	1.504862	-0.545637	-0.205764
O17	O	1.374415	-0.562186	-0.300971
C18	C	1.193942	-0.351545	-0.256922
C19	C	1.075882	-0.366579	-0.267865
C20	C	0.909430	-0.324174	-0.236999
C21	C	1.031452	-0.308637	-0.225687
C22	C	1.434755	-0.592451	-0.256947
C23	C	1.419816	-0.710507	-0.267896
C24	C	1.477755	-0.754910	-0.225697
C25	C	1.462317	-0.876927	-0.237012
C26	C	1.746940	-0.281247	-0.205751
C27	C	1.864997	-0.266239	-0.194827
C28	C	1.469940	-0.316389	-0.407919
C29	C	1.469956	-0.316357	-0.483147
C30	C	1.505216	-0.039396	-0.205737
C31	C	1.520264	0.078674	-0.194807
C32	C	1.529418	-0.375471	-0.944909
C33	C	1.529385	-0.375504	-0.874225
C34	C	1.470103	-0.316220	-0.838886
C35	C	1.410841	-0.256909	-0.874235
C36	C	1.410869	-0.256883	-0.944918
C37	C	1.410727	-0.257013	-0.589179
C38	C	1.410706	-0.257040	-0.518491
C39	C	1.529243	-0.375634	-0.518487
C40	C	1.529271	-0.375608	-0.589170
C41	C	1.470005	-0.316301	-0.624513
C42	C	1.470040	-0.316268	-0.701156
C43	C	1.470073	-0.316246	-0.762243
C44	C	1.469936	-0.316455	-0.055526
C45	C	1.470163	-0.316162	0.019748
H46	H	1.023592	-0.427688	-0.312347
H47	H	1.401283	-0.929240	-0.281523
C48	C	1.042799	-0.184322	-0.135196
C49	C	0.935582	-0.183748	-0.134779
H50	H	1.086371	-0.133389	-0.098126
H51	H	1.051835	-0.253374	-0.130153
H52	H	1.062906	-0.166575	-0.177590
H53	H	0.915472	-0.201504	-0.092386
H54	H	0.926541	-0.114682	-0.139816
H55	H	1.538794	-0.702594	-0.181193
H56	H	1.577549	-0.423879	-0.617939
H57	H	1.577497	-0.423928	-0.489703
C58	C	1.602008	-0.743509	-0.135135
C59	C	1.602662	-0.850716	-0.134717
H60	H	1.652871	-0.699920	-0.098035
H61	H	1.619792	-0.723358	-0.177505
H62	H	1.532916	-0.734542	-0.130135
H63	H	1.671751	-0.859685	-0.139722
H64	H	1.584884	-0.870873	-0.092336
C65	C	1.338072	-0.888330	-0.327559
C66	C	1.337418	-0.781124	-0.327980
H67	H	1.287197	-0.931922	-0.364650
H68	H	1.407150	-0.897302	-0.332563
H69	H	1.320294	-0.908475	-0.285179
H70	H	1.355204	-0.760976	-0.370358
H71	H	1.268324	-0.772147	-0.322981
C72	C	1.358172	-0.204278	-0.765885
C73	C	1.345678	-0.191739	-0.835391
H74	H	1.317949	-0.164036	-0.741906
H75	H	1.333524	-0.277622	-0.762347
H76	H	1.431518	-0.179663	-0.746262
H77	H	1.272333	-0.216362	-0.855015
H78	H	1.370321	-0.118380	-0.838933
H79	H	1.362467	-0.208723	-0.617948
H80	H	1.577699	-0.423741	-0.973676
C81	C	1.646588	-0.492699	-0.881316
C82	C	1.594535	-0.440684	-0.835374
H83	H	1.686818	-0.532932	-0.857328
H84	H	1.595149	-0.539212	-0.916928
H85	H	1.693114	-0.441224	-0.900842
H86	H	1.548003	-0.492159	-0.815852
H87	H	1.645981	-0.394167	-0.799750
C88	C	0.868519	-0.380468	-0.359528
C89	C	0.838844	-0.406655	-0.297051
H90	H	0.824946	-0.431392	-0.396602
H91	H	0.859476	-0.311415	-0.364558
H92	H	0.941260	-0.380856	-0.359797
H93	H	0.766105	-0.406259	-0.296780
H94	H	0.847878	-0.475726	-0.292020
C95	C	1.293505	-0.139827	-0.525595
C96	C	1.345526	-0.191882	-0.479646
H97	H	1.253264	-0.099610	-0.501613
H98	H	1.344963	-0.093295	-0.545117
H99	H	1.246994	-0.191279	-0.561211
H100	H	1.392044	-0.140430	-0.444032
H101	H	1.294062	-0.238418	-0.460113
C102	C	1.237621	-0.227992	-0.978543
C103	C	1.345735	-0.191685	-0.983768
H104	H	1.197409	-0.187738	-1.002524
H105	H	1.212995	-0.301327	-0.998172
H106	H	1.229137	-0.219518	-0.931386
H107	H	1.354220	-0.200167	-1.030925
H108	H	1.370368	-0.118333	-0.964141
H109	H	1.083742	-0.247534	-0.181201
