data_functionalizedCrystal
_audit_creation_method	'MofGen! by Chris Wilmer'
_symmetry_space_group_name_H-M	'P1'
_symmetry_Int_Tables_number	1
_symmetry_cell_setting	triclinic
loop_
_symmetry_equiv_pos_as_xyz
  x,y,z
_cell_length_a	22.610064
_cell_length_b	9.065218
_cell_length_c	9.065218
_cell_angle_alpha	94.984115
_cell_angle_beta	90.016923
_cell_angle_gamma	89.998859
loop_
_atom_site_label
_atom_site_type_symbol
_atom_site_fract_x
_atom_site_fract_y
_atom_site_fract_z
O1	O	0.049183	-1.960392	0.216388
O2	O	0.382517	-1.627058	0.549721
O3	O	0.715850	-1.293725	0.883054
O4	O	0.049184	-1.531107	0.234134
O5	O	0.382517	-1.197773	0.567468
O6	O	0.715851	-0.864440	0.900801
O7	O	0.049183	-1.754622	0.010619
O8	O	0.382516	-1.421289	0.343952
O9	O	0.715849	-1.087956	0.677285
O10	O	0.049185	-1.736876	0.439903
O11	O	0.382518	-1.403543	0.773237
O12	O	0.715852	-1.070209	1.106570
O13	O	-0.049187	-1.754623	0.010549
O14	O	0.284147	-1.421289	0.343883
O15	O	0.617480	-1.087956	0.677216
O16	O	-0.049185	-1.531107	0.234065
O17	O	0.284148	-1.197774	0.567398
O18	O	0.617482	-0.864440	0.900732
O19	O	-0.049186	-1.960392	0.216319
O20	O	0.284148	-1.627059	0.549652
O21	O	0.617481	-1.293725	0.882985
Zn22	Zn	-0.064804	-1.745750	0.225181
Zn23	Zn	0.268530	-1.412416	0.558514
Zn24	Zn	0.601863	-1.079083	0.891848
Zn25	Zn	0.064802	-1.745749	0.225272
Zn26	Zn	0.398135	-1.412416	0.558605
Zn27	Zn	0.731469	-1.079082	0.891939
O28	O	-0.049184	-1.736876	0.439834
O29	O	0.284149	-1.403543	0.773168
O30	O	0.617482	-1.070210	1.106501
C31	C	-0.000000	-1.476120	0.232394
C32	C	0.333333	-1.142787	0.565727
C33	C	0.666666	-0.809454	0.899061
C34	C	-0.000000	-1.312277	0.227294
C35	C	0.333333	-0.978944	0.560628
C36	C	0.666667	-0.645611	0.893961
N37	N	-0.153256	-1.745761	0.225118
N38	N	0.180077	-1.412427	0.558451
N39	N	0.513411	-1.079094	0.891785
N40	N	0.153254	-1.745749	0.225323
N41	N	0.486588	-1.412416	0.558657
N42	N	0.819921	-1.079083	0.891990
C43	C	0.561895	-1.655273	0.134247
C44	C	0.895229	-1.321940	0.467580
C45	C	1.228562	-0.988606	0.800914
C46	C	0.623815	-1.655277	0.134228
C47	C	0.957149	-1.321944	0.467561
C48	C	1.290482	-0.988610	0.800894
O49	O	0.655833	-1.578359	0.056854
O50	O	0.989167	-1.245026	0.390187
O51	O	1.322500	-0.911693	0.723521
N52	N	0.654792	-1.745766	0.225153
N53	N	0.988125	-1.412433	0.558486
N54	N	1.321458	-1.079099	0.891819
C55	C	0.623845	-1.836269	0.316092
C56	C	0.957178	-1.502935	0.649425
C57	C	1.290512	-1.169602	0.982759
O58	O	0.655878	-1.913238	0.393428
O59	O	0.989212	-1.579905	0.726761
O60	O	1.322545	-1.246571	1.060095
C61	C	0.561926	-1.836271	0.316102
C62	C	0.895259	-1.502938	0.649436
C63	C	1.228593	-1.169605	0.982769
C64	C	0.530953	-1.745765	0.225182
C65	C	0.864286	-1.412432	0.558516
C66	C	1.197620	-1.079099	0.891849
C67	C	0.530922	-1.564775	0.043333
C68	C	0.864255	-1.231442	0.376667
C69	C	1.197589	-0.898109	0.710000
C70	C	0.469006	-1.564770	0.043355
C71	C	0.802340	-1.231437	0.376688
C72	C	1.135673	-0.898103	0.710022
C73	C	0.438064	-1.655262	0.134290
C74	C	0.771397	-1.321929	0.467624
C75	C	1.104731	-0.988595	0.800957
C76	C	0.469037	-1.745760	0.225204
C77	C	0.802371	-1.412426	0.558537
C78	C	1.135704	-1.079093	0.891871
C79	C	0.530981	-1.926781	0.407032
C80	C	0.864314	-1.593447	0.740366
C81	C	1.197647	-1.260114	1.073699
C82	C	0.469058	-1.926777	0.407034
C83	C	0.802391	-1.593443	0.740368
C84	C	1.135724	-1.260110	1.073701
C85	C	0.438084	-1.836270	0.316114
C86	C	0.771418	-1.502937	0.649448
C87	C	1.104751	-1.169604	0.982781
C88	C	0.376179	-1.836246	0.316161
C89	C	0.709513	-1.502913	0.649494
C90	C	1.042846	-1.169580	0.982828
N91	N	0.345203	-1.745757	0.225236
N92	N	0.678536	-1.412424	0.558569
N93	N	1.011869	-1.079090	0.891903
C94	C	0.376145	-1.655265	0.134301
C95	C	0.709479	-1.321932	0.467634
C96	C	1.042812	-0.988598	0.800967
C97	C	0.753878	-1.836257	0.316061
C98	C	1.087212	-1.502924	0.649395
C99	C	1.420545	-1.169591	0.982728
C100	C	0.815796	-1.836248	0.316060
C101	C	1.149129	-1.502914	0.649393
C102	C	1.482463	-1.169581	0.982726
C103	C	0.815762	-1.655258	0.134193
C104	C	1.149095	-1.321924	0.467527
C105	C	1.482429	-0.988591	0.800860
C106	C	0.753843	-1.655261	0.134204
C107	C	1.087177	-1.321927	0.467537
C108	C	1.420510	-0.988594	0.800870
C109	C	0.722902	-1.745768	0.225136
C110	C	1.056235	-1.412435	0.558470
C111	C	1.389569	-1.079101	0.891803
C112	C	0.246118	-1.655259	0.134354
C113	C	0.579451	-1.321926	0.467687
C114	C	0.912785	-0.988593	0.801020
C115	C	0.184197	-1.655257	0.134388
C116	C	0.517530	-1.321924	0.467721
C117	C	0.850863	-0.988591	0.801055
C118	C	0.184236	-1.836252	0.316248
C119	C	0.517569	-1.502919	0.649581
C120	C	0.850903	-1.169586	0.982915
C121	C	0.246152	-1.836249	0.316220
C122	C	0.579485	-1.502916	0.649554
C123	C	0.912819	-1.169583	0.982887
C124	C	0.277091	-1.745748	0.225261
C125	C	0.610425	-1.412415	0.558595
C126	C	0.943758	-1.079082	0.891928
O127	O	0.344122	-1.913129	0.393491
O128	O	0.677455	-1.579796	0.726824
O129	O	1.010788	-1.246463	1.060157
O130	O	0.344104	-1.578323	0.056963
O131	O	0.677437	-1.244990	0.390297
O132	O	1.010771	-0.911656	0.723630
C133	C	-0.000001	-1.752917	-0.044403
C134	C	0.333332	-1.419584	0.288931
C135	C	0.666666	-1.086250	0.622264
C136	C	0.000002	-1.747817	-0.208245
C137	C	0.333335	-1.414484	0.125088
C138	C	0.666668	-1.081151	0.458421
C139	C	0.000000	-2.015378	0.218059
C140	C	0.333333	-1.682045	0.551392
C141	C	0.666667	-1.348712	0.884725
C142	C	0.000004	-2.179221	0.223158
C143	C	0.333337	-1.845888	0.556492
C144	C	0.666670	-1.512555	0.889825
C145	C	0.000001	-1.738582	0.494855
C146	C	0.333334	-1.405248	0.828189
C147	C	0.666667	-1.071915	1.161522
C148	C	0.000002	-1.743681	0.658698
C149	C	0.333335	-1.410348	0.992032
C150	C	0.666668	-1.077015	1.325365
H151	H	0.158981	-1.581550	0.060350
H152	H	0.492314	-1.248217	0.393683
H153	H	0.825648	-0.914883	0.727017
Cl154	Cl	0.569903	-2.040536	0.521372
Cl155	Cl	0.903236	-1.707202	0.854705
Cl156	Cl	1.236570	-1.373869	1.188038
H157	H	0.443868	-2.000483	0.481082
H158	H	0.777202	-1.667149	0.814416
H159	H	1.110535	-1.333816	1.147749
Cl160	Cl	0.430078	-1.450992	-0.070959
Cl161	Cl	0.763411	-1.117658	0.262375
Cl162	Cl	1.096744	-0.784325	0.595708
Cl163	Cl	0.854673	-1.541499	0.019869
Cl164	Cl	1.188006	-1.208166	0.353203
Cl165	Cl	1.521339	-0.874832	0.686536
Cl166	Cl	0.854726	-1.950001	0.430395
Cl167	Cl	1.188060	-1.616668	0.763728
Cl168	Cl	1.521393	-1.283334	1.097062
Cl169	Cl	0.714912	-1.541481	0.019896
Cl170	Cl	1.048245	-1.208148	0.353230
Cl171	Cl	1.381579	-0.874815	0.686563
Cl172	Cl	0.714987	-1.950036	0.430403
Cl173	Cl	1.048320	-1.616703	0.763736
Cl174	Cl	1.381654	-1.283370	1.097069
Cl175	Cl	0.285003	-1.541489	0.020000
Cl176	Cl	0.618337	-1.208156	0.353333
Cl177	Cl	0.951670	-0.874822	0.686667
Cl178	Cl	0.569810	-1.450984	-0.070988
Cl179	Cl	0.903143	-1.117651	0.262345
Cl180	Cl	1.236476	-0.784318	0.595679
H181	H	0.159032	-1.909925	0.390289
H182	H	0.492365	-1.576592	0.723622
H183	H	0.825698	-1.243259	1.056956
H184	H	0.271372	-1.909926	0.390275
H185	H	0.604705	-1.576593	0.723609
H186	H	0.938038	-1.243259	1.056942
