data_functionalizedCrystal
_audit_creation_method	'MofGen! by Chris Wilmer'
_symmetry_space_group_name_H-M	'P1'
_symmetry_Int_Tables_number	1
_symmetry_cell_setting	triclinic
loop_
_symmetry_equiv_pos_as_xyz
  x,y,z
_cell_length_a	16.992694
_cell_length_b	9.798715
_cell_length_c	16.992695
_cell_angle_alpha	90.003437
_cell_angle_beta	90.668223
_cell_angle_gamma	89.998094
loop_
_atom_site_label
_atom_site_type_symbol
_atom_site_fract_x
_atom_site_fract_y
_atom_site_fract_z
O1	O	1.050850	0.113321	0.166915
O2	O	0.822450	0.113361	0.165084
O3	O	0.935734	0.113331	0.051799
O4	O	0.937565	0.113352	0.280199
O5	O	0.935725	-0.113652	0.051798
O6	O	0.822441	-0.113621	0.165083
O7	O	1.050841	-0.113661	0.166914
Zn8	Zn	0.936639	-0.149679	0.165998
Zn9	Zn	0.936651	0.149380	0.165999
O10	O	0.937556	-0.113630	0.280198
C11	C	0.793085	-0.000125	0.162727
C12	C	0.705600	-0.000110	0.155699
N13	N	0.936637	-0.353779	0.165997
C14	C	0.659610	-0.000104	0.223517
C15	C	0.577409	-0.000124	0.216908
C16	C	0.541201	-0.000139	0.142480
C17	C	0.587198	-0.000148	0.074657
C18	C	0.669397	-0.000138	0.081267
C19	C	0.295886	-0.000178	0.115086
C20	C	0.213681	-0.000183	0.108481
C21	C	0.203898	-0.000162	0.250732
C22	C	0.286099	-0.000144	0.257336
C23	C	0.332089	-0.000160	0.189512
N24	N	0.457178	-0.000154	0.135723
N25	N	0.416110	-0.000154	0.196270
C26	C	0.984190	-0.421569	0.118211
C27	C	0.984202	-0.578731	0.118209
C28	C	1.080205	-0.000172	0.169270
C29	C	1.167690	-0.000178	0.176299
C30	C	0.933374	-0.000160	0.022439
C31	C	0.926345	-0.000158	-0.065046
N32	N	0.936659	0.353479	0.165994
C33	C	0.994163	-0.000172	-0.111037
C34	C	0.987554	-0.000158	-0.193238
C35	C	0.913127	-0.000140	-0.229446
C36	C	0.845303	-0.000122	-0.183449
C37	C	0.851913	-0.000127	-0.101250
C38	C	0.885732	-0.000116	-0.474760
C39	C	0.879127	-0.000116	-0.556966
C40	C	1.021379	-0.000149	-0.566749
C41	C	1.027982	-0.000161	-0.484547
C42	C	0.960159	-0.000136	-0.438558
N43	N	0.906369	-0.000130	-0.313468
N44	N	0.966917	-0.000137	-0.354537
C45	C	0.939917	-0.000137	0.309559
C46	C	0.946945	-0.000129	0.397044
H47	H	0.689084	-0.000091	0.284124
Cl48	Cl	0.873787	-0.443801	0.229159
Cl49	Cl	0.168163	-0.000233	0.014908
H50	H	0.830505	-0.000097	-0.437325
H51	H	1.054770	-0.000194	-0.081563
H52	H	0.539966	-0.000118	0.272133
H53	H	1.042779	-0.000171	-0.230680
Cl54	Cl	0.766652	-0.000105	-0.043432
H55	H	1.076596	-0.000166	-0.604202
Cl56	Cl	0.146078	-0.000146	0.335990
Cl57	Cl	0.353691	-0.000197	0.029821
Cl58	Cl	0.541678	-0.000175	-0.018910
Cl59	Cl	1.121552	-0.000139	-0.439035
H60	H	0.818517	-0.000124	-0.586443
H61	H	1.024890	-0.363257	0.077297
H62	H	0.895948	-0.588233	0.206912
Cl63	Cl	0.331612	-0.000116	0.350905
H64	H	0.706842	-0.000142	0.026042
Cl65	Cl	1.047066	-0.668731	0.055045
Cl66	Cl	0.751737	-0.000083	-0.228968
