data_functionalizedCrystal
_audit_creation_method	'MofGen! by Chris Wilmer'
_symmetry_space_group_name_H-M	'P1'
_symmetry_Int_Tables_number	1
_symmetry_cell_setting	triclinic
loop_
_symmetry_equiv_pos_as_xyz
  x,y,z
_cell_length_a	33.592126
_cell_length_b	33.591377
_cell_length_c	33.588093
_cell_angle_alpha	60.004089
_cell_angle_beta	60.008299
_cell_angle_gamma	59.994549
loop_
_atom_site_label
_atom_site_type_symbol
_atom_site_fract_x
_atom_site_fract_y
_atom_site_fract_z
O1	O	0.055297	-0.581666	0.486338
O2	O	0.555297	-0.081666	0.986338
O3	O	0.020882	-0.452873	0.391864
O4	O	0.520882	0.047127	0.891864
O5	O	0.102445	-0.534352	0.391775
O6	O	0.602445	-0.034352	0.891775
O7	O	-0.026266	-0.500187	0.486427
O8	O	0.473734	-0.000187	0.986427
O9	O	0.129510	-0.507292	0.418747
O10	O	0.629510	-0.007292	0.918747
O11	O	0.047947	-0.425814	0.418835
O12	O	0.547947	0.074186	0.918835
O13	O	0.082362	-0.554606	0.513309
O14	O	0.582362	-0.054606	1.013309
Cu15	Cu	0.067626	-0.487739	0.468535
Cu16	Cu	0.567626	0.012261	0.968535
Cu17	Cu	0.035618	-0.519740	0.436638
Cu18	Cu	0.535618	-0.019740	0.936638
O19	O	0.000799	-0.473128	0.513398
O20	O	0.500799	0.026872	1.013398
N21	N	0.090139	-0.465235	0.490972
N22	N	0.590139	0.034765	0.990972
N23	N	0.013110	-0.542249	0.414202
N24	N	0.513110	-0.042249	0.914202
C25	C	0.124394	-0.431229	0.734914
C26	C	0.624394	0.068771	1.234914
C27	C	0.334265	-0.431145	0.524799
C28	C	0.834265	0.068855	1.024799
C29	C	0.124204	-0.431200	0.524965
C30	C	0.624204	0.068800	1.024965
C31	C	0.124184	-0.221175	0.524955
C32	C	0.624184	0.278825	1.024955
C33	C	0.158017	-0.322536	0.558710
C34	C	0.658017	0.177464	1.058710
C35	C	0.158027	-0.397406	0.558711
C36	C	0.658027	0.102594	1.058711
C37	C	0.176763	-0.378688	0.577408
C38	C	0.676763	0.121312	1.077408
C39	C	0.258412	-0.364594	0.534386
C40	C	0.758412	0.135406	1.034386
C41	C	0.309454	-0.381596	0.517340
C42	C	0.809454	0.118404	1.017340
C43	C	0.309485	-0.464188	0.548836
C44	C	0.809485	0.035812	1.048836
C45	C	0.258444	-0.447186	0.565883
C46	C	0.758444	0.052814	1.065883
C47	C	0.170304	-0.297002	0.508532
C48	C	0.670304	0.202998	1.008532
C49	C	0.153260	-0.245956	0.491537
C50	C	0.653260	0.254044	0.991537
C51	C	0.111648	-0.245983	0.574901
C52	C	0.611648	0.254017	1.074901
C53	C	0.128691	-0.297029	0.591896
C54	C	0.628691	0.202971	1.091896
C55	C	0.107841	-0.385091	0.571080
C56	C	0.607841	0.114909	1.071080
C57	C	0.090813	-0.402108	0.554078
C58	C	0.590813	0.097892	1.054078
C59	C	0.174153	-0.443755	0.512351
C60	C	0.674153	0.056245	1.012351
C61	C	0.191183	-0.426739	0.529347
C62	C	0.691183	0.073261	1.029347
C63	C	0.107923	-0.385106	0.659111
C64	C	0.607923	0.114894	1.159111
C65	C	0.090955	-0.402138	0.710156
C66	C	0.590955	0.097862	1.210156
C67	C	0.174335	-0.443795	0.710087
C68	C	0.674335	0.056205	1.210087
C69	C	0.191302	-0.426764	0.659041
C70	C	0.691302	0.073236	1.159041
C71	C	0.158095	-0.397418	0.633555
C72	C	0.658095	0.102582	1.133555
C73	C	0.232909	-0.397388	0.558656
C74	C	0.732909	0.102612	1.058656
C75	C	0.105069	-0.449619	0.791057
C76	C	0.605069	0.050381	1.291057
C77	C	0.390406	-0.449193	0.505789
C78	C	0.890406	0.050807	1.005789
C79	C	0.104813	-0.449599	0.506607
C80	C	0.604813	0.050401	1.006607
C81	C	0.105125	-0.165028	0.506915
C82	C	0.605125	0.334972	1.006915
C83	C	-0.020560	-0.576246	0.169890
C84	C	0.479440	-0.076246	0.669890
C85	C	-0.020889	-0.786183	0.379970
C86	C	0.479111	-0.286183	0.879970
C87	C	-0.020859	-0.576235	0.380063
C88	C	0.479141	-0.076235	0.880063
C89	C	-0.230772	-0.576015	0.379658
C90	C	0.269228	-0.076015	0.879658
C91	C	-0.129417	-0.609898	0.346025
C92	C	0.370583	-0.109898	0.846025
C93	C	-0.054587	-0.609979	0.346172
C94	C	0.445413	-0.109979	0.846172
C95	C	-0.073269	-0.628671	0.327396
C96	C	0.426731	-0.128671	0.827396
C97	C	-0.087401	-0.710299	0.370335
C98	C	0.412599	-0.210299	0.870335
C99	C	-0.070424	-0.761345	0.387369
C100	C	0.429576	-0.261345	0.887369
C101	C	0.012165	-0.761428	0.356003
C102	C	0.512165	-0.261428	0.856003
C103	C	-0.004813	-0.710383	0.338967
C104	C	0.495187	-0.210383	0.838967
C105	C	-0.155001	-0.622196	0.396191
C106	C	0.344999	-0.122196	0.896191
C107	C	-0.206043	-0.605128	0.413125
C108	C	0.293957	-0.105128	0.913125
C109	C	-0.205914	-0.563467	0.329724
C110	C	0.294086	-0.063467	0.829724
C111	C	-0.154872	-0.580535	0.312790
C112	C	0.345128	-0.080535	0.812790
C113	C	-0.066886	-0.559797	0.333828
C114	C	0.433114	-0.059797	0.833828
C115	C	-0.049903	-0.542809	0.350903
C116	C	0.450097	-0.042809	0.850903
C117	C	-0.008321	-0.626180	0.392654
C118	C	0.491679	-0.126180	0.892654
C119	C	-0.025304	-0.643170	0.375585
C120	C	0.474696	-0.143170	0.875585
C121	C	-0.066758	-0.559805	0.245702
C122	C	0.433242	-0.059805	0.745702
C123	C	-0.049671	-0.542819	0.194658
C124	C	0.450329	-0.042819	0.694658
C125	C	-0.008026	-0.626194	0.194706
C126	C	0.491974	-0.126194	0.694706
C127	C	-0.025111	-0.643179	0.245752
C128	C	0.474889	-0.143179	0.745752
C129	C	-0.054479	-0.609983	0.271248
C130	C	0.445521	-0.109983	0.771248
C131	C	-0.054597	-0.684821	0.346135
C132	C	0.445403	-0.184821	0.846135
C133	C	-0.002109	-0.556901	0.113746
C134	C	0.497891	-0.056901	0.613746
C135	C	-0.002869	-0.842328	0.398966
C136	C	0.497131	-0.342328	0.898966
C137	C	-0.002496	-0.556887	0.398501
C138	C	0.497504	-0.056887	0.898501
C139	C	-0.286914	-0.556929	0.397631
C140	C	0.213086	-0.056929	0.897631
N141	N	0.436349	-0.465146	0.490703
N142	N	0.936349	0.034854	0.990703
O143	O	0.592194	-0.469605	0.374236
O144	O	1.092194	0.030395	0.874236
O145	O	0.592389	-0.564393	0.502890
O146	O	1.092389	-0.064393	1.002890
O147	O	0.592305	-0.564176	0.421300
O148	O	1.092305	-0.064176	0.921300
O149	O	0.592277	-0.469822	0.455826
O150	O	1.092277	0.030178	0.955826
O151	O	0.511216	-0.537214	0.448415
O152	O	1.011216	-0.037214	0.948415
O153	O	0.511300	-0.537431	0.530004
O154	O	1.011300	-0.037431	1.030004
O155	O	0.511104	-0.442643	0.401350
O156	O	1.011104	0.057357	0.901350
Cu157	Cu	0.503798	-0.487575	0.468153
Cu158	Cu	1.003798	0.012425	0.968153
Cu159	Cu	0.599695	-0.519461	0.436087
Cu160	Cu	1.099695	-0.019461	0.936087
O161	O	0.511188	-0.442860	0.482940
O162	O	1.011188	0.057140	0.982940
N163	N	0.667145	-0.541890	0.413532
N164	N	1.167145	-0.041890	0.913532
N165	N	0.090108	-0.119085	0.490958
N166	N	0.590108	0.380915	0.990958
O167	O	-0.026275	0.036848	0.486394
O168	O	0.473725	0.536848	0.986394
O169	O	0.102381	0.036888	0.391584
O170	O	0.602381	0.536888	0.891584
O171	O	0.020751	0.036852	0.391854
O172	O	0.520751	0.536852	0.891854
O173	O	0.055356	0.036884	0.486124
O174	O	0.555356	0.536884	0.986124
O175	O	0.047821	-0.044242	0.418876
O176	O	0.547821	0.455758	0.918876
O177	O	0.129452	-0.044207	0.418606
O178	O	0.629452	0.455793	0.918606
O179	O	0.000796	-0.044246	0.513417
O180	O	0.500796	0.455754	1.013417
Cu181	Cu	0.067596	-0.051631	0.468479
Cu182	Cu	0.567596	0.448369	0.968479
Cu183	Cu	0.035582	0.044273	0.436522
Cu184	Cu	0.535582	0.544273	0.936522
O185	O	0.082426	-0.044211	0.513146
O186	O	0.582426	0.455789	1.013146
N187	N	0.013063	0.111726	0.414043
N188	N	0.513063	0.611726	0.914043
N189	N	0.090453	-0.465282	0.837001
N190	N	0.590453	0.034718	1.337001
O191	O	0.085913	-0.581648	0.992925
O192	O	0.585913	-0.081648	1.492925
O193	O	-0.008857	-0.452947	0.992970
O194	O	0.491143	0.047053	1.492970
O195	O	-0.008635	-0.534562	0.992946
O196	O	0.491365	-0.034562	1.492946
O197	O	0.085691	-0.500033	0.992949
O198	O	0.585691	-0.000033	1.492949
O199	O	0.018365	-0.507512	0.911855
O200	O	0.518365	-0.007512	1.411855
O201	O	0.018143	-0.425898	0.911878
O202	O	0.518143	0.074102	1.411878
O203	O	0.112912	-0.554598	0.911834
O204	O	0.612912	-0.054598	1.411834
Cu205	Cu	0.067993	-0.487778	0.904452
Cu206	Cu	0.567993	0.012222	1.404452
Cu207	Cu	0.036063	-0.519767	1.000352
Cu208	Cu	0.536063	-0.019767	1.500352
O209	O	0.112691	-0.472984	0.911857
O210	O	0.612691	0.027016	1.411857
N211	N	0.013602	-0.542269	1.067803
N212	N	0.513602	-0.042269	1.567803
C213	C	0.031188	-0.423114	0.392334
C214	C	0.531188	0.076886	0.892334
C215	C	0.132194	-0.524016	0.392223
C216	C	0.632194	-0.024016	0.892223
C217	C	0.072056	-0.584366	0.512840
C218	C	0.572056	-0.084366	1.012840
C219	C	-0.028950	-0.483464	0.512950
C220	C	0.471050	0.016536	1.012950
C221	C	0.551868	-0.563965	0.532655
C222	C	1.051868	-0.063965	1.032655
C223	C	0.551766	-0.563697	0.431617
C224	C	1.051766	-0.063697	0.931617
C225	C	0.551623	-0.443070	0.371586
C226	C	1.051623	0.056930	0.871586
C227	C	0.551728	-0.443339	0.472623
C228	C	1.051728	0.056661	0.972623
C229	C	0.132090	-0.003555	0.392006
C230	C	0.632090	0.496445	0.892006
C231	C	0.031035	-0.003698	0.392374
C232	C	0.531035	0.496302	0.892374
C233	C	-0.028947	-0.003703	0.512961
C234	C	0.471053	0.496297	1.012961
C235	C	0.072143	-0.003661	0.512626
C236	C	0.572143	0.496339	1.012626
C237	C	-0.008408	-0.423209	0.952430
C238	C	0.491592	0.076791	1.452430
C239	C	-0.008128	-0.524272	0.952385
C240	C	0.491872	-0.024272	1.452385
C241	C	0.112464	-0.584336	0.952374
C242	C	0.612464	-0.084336	1.452374
C243	C	0.112190	-0.483267	0.952401
C244	C	0.612190	0.016733	1.452401
H245	H	0.050098	-0.392105	0.730957
H246	H	0.550098	0.107895	1.230957
H247	H	0.551722	-0.413701	0.480010
H248	H	1.051722	0.086299	0.980010
H249	H	-0.065919	-0.476185	0.542670
H250	H	0.434081	0.023815	1.042670
C251	C	0.210629	-0.476020	0.480050
C252	C	0.710629	0.023980	0.980050
C253	C	0.247386	-0.525248	0.499546
C254	C	0.747386	-0.025248	0.999546
C255	C	0.283864	-0.557511	0.467242
C256	C	0.783864	-0.057511	0.967242
C257	C	0.283585	-0.540544	0.415443
C258	C	0.783585	-0.040544	0.915443
C259	C	0.246827	-0.491313	0.395945
C260	C	0.746827	0.008687	0.895945
C261	C	0.210348	-0.459051	0.428249
C262	C	0.710348	0.040949	0.928249
H263	H	0.247593	-0.537810	0.537892
H264	H	0.747593	-0.037810	1.037892
H265	H	0.311075	-0.593955	0.481676
H266	H	0.811075	-0.093955	0.981676
H267	H	0.310588	-0.564427	0.391530
H268	H	0.810588	-0.064427	0.891530
H269	H	0.246619	-0.478751	0.357599
H270	H	0.746619	0.021249	0.857599
H271	H	0.183138	-0.422607	0.413815
H272	H	0.683138	0.077393	0.913815
C273	C	0.082152	-0.003652	0.552641
C274	C	0.582152	0.496348	1.052641
C275	C	0.078710	-0.045766	0.601686
C276	C	0.578710	0.454234	1.101686
C277	C	0.088718	-0.045757	0.641700
C278	C	0.588718	0.454243	1.141700
C279	C	0.102169	-0.003636	0.632669
C280	C	0.602169	0.496364	1.132669
C281	C	0.105611	0.038481	0.583621
C282	C	0.605611	0.538481	1.083621
C283	C	0.095603	0.038472	0.543607
C284	C	0.595603	0.538472	1.043607
H285	H	0.068752	-0.076949	0.608374
H286	H	0.568752	0.423051	1.108374
H287	H	0.086170	-0.076935	0.678009
H288	H	0.586170	0.423065	1.178009
H289	H	0.109578	-0.003630	0.662290
H290	H	0.609578	0.496370	1.162290
H291	H	0.115569	0.069664	0.576933
H292	H	0.615569	0.569664	1.076933
H293	H	0.098151	0.069650	0.507298
H294	H	0.598151	0.569650	1.007298
H295	H	0.168963	-0.003318	0.362168
H296	H	0.668963	0.496682	0.862168
C297	C	0.081986	-0.634346	0.552928
C298	C	0.581986	-0.134346	1.052928
C299	C	0.078496	-0.637739	0.601958
C300	C	0.578496	-0.137739	1.101958
C301	C	0.088426	-0.687719	0.642046
C302	C	0.588426	-0.187719	1.142046
C303	C	0.101846	-0.734307	0.633105
C304	C	0.601846	-0.234307	1.133105
C305	C	0.105337	-0.730915	0.584073
C306	C	0.605337	-0.230915	1.084073
C307	C	0.095407	-0.680935	0.543985
C308	C	0.595407	-0.180935	1.043985
H309	H	0.068561	-0.603251	0.608578
H310	H	0.568561	-0.103251	1.108578
H311	H	0.085841	-0.690230	0.678343
H312	H	0.585841	-0.190230	1.178343
H313	H	0.109196	-0.771305	0.662781
H314	H	0.609196	-0.271305	1.162781
H315	H	0.115272	-0.765403	0.577452
H316	H	0.615272	-0.265403	1.077452
H317	H	0.097991	-0.678424	0.507688
H318	H	0.597991	-0.178424	1.007688
C319	C	-0.078860	-0.003716	0.553173
C320	C	0.421140	0.496284	1.053173
C321	C	-0.097382	-0.045839	0.572403
C322	C	0.402618	0.454161	1.072403
C323	C	-0.147295	-0.045853	0.612614
C324	C	0.352705	0.454147	1.112614
C325	C	-0.178686	-0.003743	0.633595
C326	C	0.321314	0.496257	1.133595
C327	C	-0.160164	0.038383	0.614365
C328	C	0.339836	0.538383	1.114365
C329	C	-0.110251	0.038396	0.574154
C330	C	0.389749	0.538396	1.074154
H331	H	-0.074144	-0.077014	0.556871
H332	H	0.425856	0.422986	1.056871
H333	H	-0.161006	-0.077037	0.626849
H334	H	0.338994	0.422963	1.126849
H335	H	-0.215635	-0.003753	0.663362
H336	H	0.284365	0.496247	1.163362
H337	H	-0.183402	0.069558	0.629897
H338	H	0.316598	0.569558	1.129897
H339	H	-0.096540	0.069581	0.559919
H340	H	0.403460	0.569581	1.059919
H341	H	0.169160	-0.531297	0.362501
H342	H	0.669160	-0.031297	0.862501
H343	H	-0.037749	-0.531650	0.952352
H344	H	0.462251	-0.031650	1.452352
H345	H	-0.038161	-0.386246	0.952443
H346	H	0.461839	0.113754	1.452443
H347	H	0.023834	-0.386116	0.362662
H348	H	0.523834	0.113884	0.862662
H349	H	0.023621	-0.003702	0.362756
H350	H	0.523621	0.496298	0.862756
C351	C	0.551941	-0.604168	0.582571
C352	C	1.051941	-0.104168	1.082571
C353	C	0.594087	-0.653197	0.585845
C354	C	1.094087	-0.153197	1.085845
C355	C	0.594159	-0.693400	0.635761
C356	C	1.094159	-0.193400	1.135761
C357	C	0.552086	-0.684575	0.682402
C358	C	1.052086	-0.184575	1.182402
C359	C	0.509937	-0.635544	0.679130
C360	C	1.009937	-0.135544	1.179130
C361	C	0.509864	-0.595341	0.629215
C362	C	1.009864	-0.095341	1.129215
H363	H	0.625235	-0.659731	0.551316
H364	H	1.125235	-0.159731	1.051316
H365	H	0.625361	-0.729696	0.638183
H366	H	1.125361	-0.229696	1.138183
H367	H	0.552140	-0.714336	0.719353
H368	H	1.052140	-0.214336	1.219353
H369	H	0.478789	-0.629009	0.713659
H370	H	0.978789	-0.129009	1.213659
H371	H	0.478662	-0.559045	0.626792
H372	H	0.978662	-0.059045	1.126792
C373	C	0.152226	-0.473288	0.952393
C374	C	0.652226	0.026712	1.452393
C375	C	0.201262	-0.476763	0.910273
C376	C	0.701262	0.023237	1.410273
C377	C	0.241298	-0.466785	0.910266
C378	C	0.741298	0.033215	1.410266
C379	C	0.232300	-0.453332	0.952379
C380	C	0.732300	0.046668	1.452379
C381	C	0.183262	-0.449856	0.994502
C382	C	0.683262	0.050144	1.494502
C383	C	0.143226	-0.459835	0.994509
C384	C	0.643226	0.040165	1.494509
H385	H	0.207925	-0.486723	0.879096
H386	H	0.707925	0.013277	1.379096
H387	H	0.277599	-0.469358	0.879084
H388	H	0.777599	0.030642	1.379084
H389	H	0.261937	-0.445945	0.952373
H390	H	0.761937	0.054055	1.452373
H391	H	0.176599	-0.439897	1.025679
H392	H	0.676599	0.060103	1.525679
H393	H	0.106925	-0.457262	1.025691
H394	H	0.606925	0.042738	1.525691
H395	H	0.232159	-0.436796	0.638236
H396	H	0.732159	0.063204	1.138236
H397	H	0.142219	-0.621297	0.952354
H398	H	0.642219	-0.121297	1.452354
H399	H	0.080878	-0.361206	0.638363
H400	H	0.580878	0.138794	1.138363
C401	C	-0.011767	-0.698368	0.389139
C402	C	0.488233	-0.198368	0.889139
C403	C	0.042140	-0.730447	0.374349
C404	C	0.542140	-0.230447	0.874349
C405	C	0.055683	-0.785643	0.387893
C406	C	0.555683	-0.285643	0.887893
C407	C	0.015318	-0.808761	0.416227
C408	C	0.515318	-0.308761	0.916227
C409	C	-0.038593	-0.776682	0.431019
C410	C	0.461407	-0.276682	0.931019
C411	C	-0.052136	-0.721485	0.417475
C412	C	0.447864	-0.221485	0.917475
H413	H	0.072023	-0.713334	0.353373
H414	H	0.572023	-0.213334	0.853373
H415	H	0.095591	-0.809390	0.376943
H416	H	0.595591	-0.309390	0.876943
H417	H	0.025343	-0.849621	0.426253
H418	H	0.525343	-0.349621	0.926253
H419	H	-0.068476	-0.793795	0.451995
H420	H	0.431524	-0.293795	0.951995
H421	H	-0.092044	-0.697738	0.428425
H422	H	0.407956	-0.197738	0.928425
H423	H	0.551560	-0.413310	0.334638
H424	H	1.051560	0.086690	0.834638
C425	C	0.210866	-0.476067	0.738117
C426	C	0.710866	0.023933	1.238117
C427	C	0.247586	-0.456519	0.731065
C428	C	0.747586	0.043481	1.231065
C429	C	0.284118	-0.488792	0.759095
C430	C	0.784118	0.011208	1.259095
C431	C	0.283930	-0.540614	0.794177
C432	C	0.783930	-0.040614	1.294177
C433	C	0.247209	-0.560165	0.801231
C434	C	0.747209	-0.060165	1.301231
C435	C	0.210676	-0.527892	0.773201
C436	C	0.710676	-0.027892	1.273201
H437	H	0.247726	-0.418154	0.705094
H438	H	0.747726	0.081846	1.205094
H439	H	0.311302	-0.474318	0.753874
H440	H	0.811302	0.025682	1.253874
H441	H	0.310974	-0.564504	0.814927
H442	H	0.810974	-0.064504	1.314927
H443	H	0.247068	-0.598529	0.827202
H444	H	0.747068	-0.098529	1.327202
H445	H	0.183493	-0.542365	0.778422
H446	H	0.683493	-0.042365	1.278422
C447	C	0.071367	-0.352823	0.603377
C448	C	0.571367	0.147177	1.103377
C449	C	0.034679	-0.372371	0.652622
C450	C	0.534679	0.127629	1.152622
C451	C	-0.001796	-0.340104	0.684921
C452	C	0.498204	0.159896	1.184921
C453	C	-0.001583	-0.288288	0.667974
C454	C	0.498417	0.211712	1.167974
C455	C	0.035106	-0.268737	0.618726
C456	C	0.535106	0.231263	1.118726
C457	C	0.071581	-0.301004	0.586427
C458	C	0.571581	0.198996	1.086427
H459	H	0.034521	-0.410731	0.665169
H460	H	0.534521	0.089269	1.165169
H461	H	-0.028956	-0.354577	0.721378
H462	H	0.471044	0.145423	1.221378
H463	H	-0.028584	-0.264401	0.691883
H464	H	0.471416	0.235599	1.191883
H465	H	0.035265	-0.230377	0.606179
H466	H	0.535265	0.269623	1.106179
H467	H	0.098741	-0.286531	0.549971
H468	H	0.598741	0.213469	1.049971
H469	H	0.551779	-0.593338	0.424228
H470	H	1.051779	-0.093338	0.924228
H471	H	-0.059919	-0.501948	0.340854
H472	H	0.440081	-0.001948	0.840854
C473	C	0.035609	-0.388566	0.567678
C474	C	0.535609	0.111434	1.067678
C475	C	0.003606	-0.403442	0.621599
C476	C	0.503606	0.096558	1.121599
C477	C	-0.051597	-0.389901	0.635198
C478	C	0.448403	0.110099	1.135198
C479	C	-0.074797	-0.361484	0.594875
C480	C	0.425203	0.138516	1.094875
C481	C	-0.042794	-0.346606	0.540951
C482	C	0.457206	0.153394	1.040951
C483	C	0.012409	-0.360147	0.527352
C484	C	0.512409	0.139853	1.027352
H485	H	0.020780	-0.424480	0.651451
H486	H	0.520780	0.075520	1.151451
H487	H	-0.075287	-0.400915	0.675117
H488	H	0.424713	0.099085	1.175117
H489	H	-0.115662	-0.351460	0.604942
H490	H	0.384338	0.148540	1.104942
H491	H	-0.059968	-0.325568	0.511098
H492	H	0.440032	0.174432	1.011098
H493	H	0.036099	-0.349133	0.487433
H494	H	0.536099	0.150867	0.987433
C495	C	0.246394	-0.440255	0.515682
C496	C	0.746394	0.059745	1.015682
C497	C	0.269490	-0.399862	0.487221
C498	C	0.769490	0.100138	0.987221
C499	C	0.324703	-0.413366	0.473526
C500	C	0.824703	0.086634	0.973526
C501	C	0.356821	-0.467264	0.488292
C502	C	0.856821	0.032736	0.988292
C503	C	0.333725	-0.507661	0.516754
C504	C	0.833725	-0.007661	1.016754
C505	C	0.278512	-0.494157	0.530449
C506	C	0.778512	0.005843	1.030449
H507	H	0.245715	-0.359960	0.476289
H508	H	0.745715	0.140040	0.976289
H509	H	0.341800	-0.383461	0.452456
H510	H	0.841800	0.116539	0.952456
H511	H	0.397693	-0.477261	0.478154
H512	H	0.897693	0.022739	0.978154
H513	H	0.357501	-0.547563	0.527686
H514	H	0.857501	-0.047563	1.027686
H515	H	0.261415	-0.524062	0.551519
H516	H	0.761415	-0.024062	1.051519
C517	C	0.230389	-0.483261	0.592579
C518	C	0.730389	0.016739	1.092579
C519	C	0.174245	-0.464562	0.611332
C520	C	0.674245	0.035438	1.111332
C521	C	0.146190	-0.500637	0.638029
C522	C	0.646190	-0.000637	1.138029
C523	C	0.174280	-0.555412	0.645972
C524	C	0.674280	-0.055412	1.145972
C525	C	0.230427	-0.574114	0.627218
C526	C	0.730427	-0.074114	1.127218
C527	C	0.258482	-0.538038	0.600522
C528	C	0.758482	-0.038038	1.100522
H529	H	0.153448	-0.424012	0.605453
H530	H	0.653448	0.075988	1.105453
H531	H	0.104626	-0.486792	0.651912
H532	H	0.604626	0.013208	1.151912
H533	H	0.153512	-0.582117	0.665735
H534	H	0.653512	-0.082117	1.165735
H535	H	0.251223	-0.614664	0.633098
H536	H	0.751223	-0.114664	1.133098
H537	H	0.300046	-0.551883	0.586639
H538	H	0.800046	-0.051883	1.086639
C539	C	0.337508	-0.345521	0.490639
C540	C	0.837508	0.154479	0.990639
C541	C	0.330508	-0.314500	0.516734
C542	C	0.830508	0.185500	1.016734
C543	C	0.358563	-0.278423	0.490031
C544	C	0.858563	0.221577	0.990031
C545	C	0.393616	-0.273368	0.437234
C546	C	0.893616	0.226632	0.937234
C547	C	0.400617	-0.304389	0.411137
C548	C	0.900617	0.195611	0.911137
C549	C	0.372563	-0.340466	0.437840
C550	C	0.872563	0.159534	0.937840
H551	H	0.304558	-0.318242	0.555819
H552	H	0.804558	0.181758	1.055819
H553	H	0.353380	-0.255459	0.509350
H554	H	0.853380	0.244541	1.009350
H555	H	0.414383	-0.246661	0.417468
H556	H	0.914383	0.253339	0.917468
H557	H	0.426567	-0.300648	0.372051
H558	H	0.926567	0.199352	0.872051
H559	H	0.377746	-0.363430	0.418521
H560	H	0.877746	0.136570	0.918521
C561	C	0.230325	-0.309817	0.526437
C562	C	0.730325	0.190183	1.026437
C563	C	0.237298	-0.272696	0.474354
C564	C	0.737298	0.227304	0.974354
C565	C	0.209210	-0.217918	0.466405
C566	C	0.709210	0.282082	0.966405
C567	C	0.174148	-0.200260	0.510539
C568	C	0.674148	0.299740	1.010539
C569	C	0.167172	-0.237382	0.562626
C570	C	0.667172	0.262618	1.062626
C571	C	0.195261	-0.292160	0.570575
C572	C	0.695261	0.207840	1.070575
H573	H	0.263255	-0.285767	0.441680
H574	H	0.763255	0.214233	0.941680
H575	H	0.214374	-0.190438	0.427847
H576	H	0.714374	0.309562	0.927847
H577	H	0.153355	-0.159710	0.504655
H578	H	0.653355	0.340290	1.004655
H579	H	0.141216	-0.224311	0.595299
H580	H	0.641216	0.275689	1.095299
H581	H	0.190097	-0.319640	0.609133
H582	H	0.690097	0.180360	1.109133
H583	H	0.330277	-0.504737	0.554712
H584	H	0.830277	-0.004737	1.054712
H585	H	0.194180	-0.317769	0.481510
H586	H	0.694180	0.182231	0.981510
H587	H	0.087777	-0.225214	0.601924
H588	H	0.587777	0.274786	1.101924
C589	C	0.166775	-0.217864	0.436338
C590	C	0.666775	0.282136	0.936338
C591	C	0.199035	-0.245921	0.399835
C592	C	0.699035	0.254079	0.899835
C593	C	0.212551	-0.217830	0.344636
C594	C	0.712551	0.282170	0.844636
C595	C	0.193808	-0.161682	0.325941
C596	C	0.693808	0.338318	0.825941
C597	C	0.161546	-0.133622	0.362444
C598	C	0.661546	0.366378	0.862444
C599	C	0.148030	-0.161713	0.417643
C600	C	0.648030	0.338287	0.917643
H601	H	0.212911	-0.287488	0.413674
H602	H	0.712911	0.212512	0.913674
H603	H	0.236433	-0.238602	0.317614
H604	H	0.736433	0.261398	0.817614
H605	H	0.203814	-0.140887	0.285079
H606	H	0.703814	0.359113	0.785079
H607	H	0.147669	-0.092055	0.348605
H608	H	0.647669	0.407945	0.848605
H609	H	0.124147	-0.140941	0.444665
H610	H	0.624147	0.359059	0.944665
H611	H	0.118680	-0.317820	0.632757
H612	H	0.618680	0.182180	1.132757
H613	H	-0.090673	-0.532769	0.266460
H614	H	0.409327	-0.032769	0.766460
C615	C	-0.063189	-0.487618	0.166563
C616	C	0.436811	0.012382	0.666563
C617	C	-0.095494	-0.451108	0.194612
C618	C	0.404506	0.048892	0.694612
C619	C	-0.109011	-0.395908	0.166515
C620	C	0.390989	0.104092	0.666515
C621	C	-0.090223	-0.377219	0.110369
C622	C	0.409777	0.122781	0.610369
C623	C	-0.057915	-0.413731	0.082317
C624	C	0.442085	0.086269	0.582317
C625	C	-0.044398	-0.468930	0.110414
C626	C	0.455602	0.031070	0.610414
H627	H	-0.109404	-0.464942	0.236177
H628	H	0.390596	0.035058	0.736177
H629	H	-0.132927	-0.368880	0.187281
H630	H	0.367073	0.131120	0.687281
H631	H	-0.100229	-0.336358	0.089570
H632	H	0.399771	0.163642	0.589570
H633	H	-0.044005	-0.399897	0.040752
H634	H	0.455995	0.100103	0.540752
H635	H	-0.020482	-0.495958	0.089648
H636	H	0.479518	0.004042	0.589648
H637	H	-0.015108	-0.684041	0.266548
H638	H	0.484892	-0.184041	0.766548
C639	C	0.024268	-0.662711	0.166665
C640	C	0.524268	-0.162711	0.666665
C641	C	0.073460	-0.699480	0.173772
C642	C	0.573460	-0.199480	0.673772
C643	C	0.105755	-0.735999	0.145730
C644	C	0.605755	-0.235999	0.645730
C645	C	0.088857	-0.735751	0.110582
C646	C	0.588857	-0.235751	0.610582
C647	C	0.039662	-0.698981	0.103473
C648	C	0.539662	-0.198981	0.603473
C649	C	0.007367	-0.662462	0.131515
C650	C	0.507367	-0.162462	0.631515
H651	H	0.085971	-0.699665	0.199792
H652	H	0.585971	-0.199665	0.699792
H653	H	0.142172	-0.763218	0.150993
H654	H	0.642172	-0.263218	0.650993
H655	H	0.112763	-0.762785	0.089824
H656	H	0.612763	-0.262785	0.589824
H657	H	0.027151	-0.698796	0.077453
H658	H	0.527151	-0.198796	0.577453
H659	H	-0.029050	-0.635242	0.126252
H660	H	0.470950	-0.135242	0.626252
C661	C	0.023905	-0.662699	0.424991
C662	C	0.523905	-0.162699	0.924991
C663	C	0.075718	-0.662521	0.408111
C664	C	0.575718	-0.162521	0.908111
C665	C	0.107949	-0.699044	0.440444
C666	C	0.607949	-0.199044	0.940444
C667	C	0.088366	-0.735746	0.489657
C668	C	0.588366	-0.235746	0.989657
C669	C	0.036550	-0.735925	0.506539
C670	C	0.536550	-0.235925	1.006539
C671	C	0.004319	-0.699402	0.474206
C672	C	0.504319	-0.199402	0.974206
H673	H	0.090217	-0.635351	0.371679
H674	H	0.590217	-0.135351	0.871679
H675	H	0.146307	-0.698911	0.427947
H676	H	0.646307	-0.198911	0.927947
H677	H	0.112225	-0.762783	0.513591
H678	H	0.612225	-0.262783	1.013591
H679	H	0.022051	-0.763095	0.542971
H680	H	0.522051	-0.263095	1.042971
H681	H	-0.034039	-0.699535	0.486704
H682	H	0.465961	-0.199535	0.986704
C683	C	0.031274	-0.682355	0.312348
C684	C	0.531274	-0.182355	0.812348
C685	C	0.012602	-0.626207	0.293607
C686	C	0.512602	-0.126207	0.793607
C687	C	0.048689	-0.598179	0.266986
C688	C	0.548689	-0.098179	0.766986
C689	C	0.103448	-0.626299	0.259108
C690	C	0.603448	-0.126299	0.759108
C691	C	0.122123	-0.682449	0.277850
C692	C	0.622123	-0.182449	0.777850
C693	C	0.086036	-0.710477	0.304470
C694	C	0.586036	-0.210477	0.804470
H695	H	-0.027936	-0.605388	0.299439
H696	H	0.472064	-0.105388	0.799439
H697	H	0.034865	-0.556612	0.253112
H698	H	0.534865	-0.056612	0.753112
H699	H	0.130162	-0.605551	0.239402
H700	H	0.630162	-0.105551	0.739402
H701	H	0.162662	-0.703268	0.272018
H702	H	0.662662	-0.203268	0.772018
H703	H	0.099860	-0.752044	0.318344
H704	H	0.599860	-0.252044	0.818344
C705	C	-0.106509	-0.789374	0.413992
C706	C	0.393491	-0.289374	0.913992
C707	C	-0.161270	-0.761256	0.421879
C708	C	0.338730	-0.261256	0.921879
C709	C	-0.197355	-0.789287	0.448503
C710	C	0.302645	-0.289287	0.948503
C711	C	-0.178680	-0.845434	0.467239
C712	C	0.321320	-0.345434	0.967239
C713	C	-0.123917	-0.873555	0.459353
C714	C	0.376083	-0.373555	0.959353
C715	C	-0.087831	-0.845525	0.432729
C716	C	0.412169	-0.345525	0.932729
H717	H	-0.175096	-0.719690	0.408009
H718	H	0.324904	-0.219690	0.908009
H719	H	-0.237895	-0.768470	0.454341
H720	H	0.262105	-0.268470	0.954341
H721	H	-0.205393	-0.866184	0.486948
H722	H	0.294607	-0.366184	0.986948
H723	H	-0.110090	-0.915122	0.473223
H724	H	0.389910	-0.415122	0.973223
H725	H	-0.047292	-0.866342	0.426891
H726	H	0.452708	-0.366342	0.926891
H727	H	-0.090726	-0.532768	0.309877
H728	H	0.409274	-0.032768	0.809877
H729	H	0.052703	-0.782242	0.350169
H730	H	0.552703	-0.282242	0.850169
H731	H	-0.127938	-0.689491	0.376175
H732	H	0.372062	-0.189491	0.876175
H733	H	-0.226875	-0.615140	0.453976
H734	H	0.273125	-0.115140	0.953976
C735	C	-0.127000	-0.654492	0.432747
C736	C	0.373000	-0.154492	0.932747
C737	C	-0.155143	-0.668012	0.487931
C738	C	0.344857	-0.168012	0.987931
C739	C	-0.127142	-0.700307	0.524489
C740	C	0.372858	-0.200307	1.024489
C741	C	-0.070998	-0.719083	0.505864
C742	C	0.429002	-0.219083	1.005864
C743	C	-0.042852	-0.705563	0.450678
C744	C	0.457148	-0.205563	0.950678
C745	C	-0.070853	-0.673267	0.414120
C746	C	0.429147	-0.173267	0.914120
H747	H	-0.196707	-0.654113	0.501720
H748	H	0.303293	-0.154113	1.001720
H749	H	-0.147978	-0.710315	0.565341
H750	H	0.352022	-0.210315	1.065341
H751	H	-0.050270	-0.742990	0.532926
H752	H	0.449730	-0.242990	1.032926
H753	H	-0.001288	-0.719461	0.436888
H754	H	0.498712	-0.219461	0.936888
H755	H	-0.050016	-0.663259	0.373267
H756	H	0.449984	-0.163259	0.873267
H757	H	-0.226640	-0.539563	0.302661
H758	H	0.273360	-0.039563	0.802661
H759	H	-0.134040	-0.570516	0.271939
H760	H	0.365960	-0.070516	0.771939
