data_functionalizedCrystal
_audit_creation_method	'MofGen! by Chris Wilmer'
_symmetry_space_group_name_H-M	'P1'
_symmetry_Int_Tables_number	1
_symmetry_cell_setting	triclinic
loop_
_symmetry_equiv_pos_as_xyz
  x,y,z
_cell_length_a	18.215407
_cell_length_b	18.215405
_cell_length_c	18.215399
_cell_angle_alpha	89.969449
_cell_angle_beta	89.980167
_cell_angle_gamma	90.025333
loop_
_atom_site_label
_atom_site_type_symbol
_atom_site_fract_x
_atom_site_fract_y
_atom_site_fract_z
Zn1	Zn	1.125072	-0.292983	-0.416103
Zn2	Zn	1.124980	-0.416054	-0.293031
Zn3	Zn	1.002005	-0.293007	-0.293050
Zn4	Zn	1.001970	-0.416013	-0.416056
O5	O	1.063507	-0.354514	-0.354560
O6	O	1.228044	-0.309316	-0.399788
O7	O	1.108643	-0.399759	-0.190049
O8	O	1.018382	-0.190020	-0.309401
O9	O	1.227977	-0.399736	-0.309368
O10	O	1.108799	-0.190002	-0.399807
O11	O	1.018293	-0.309357	-0.190063
O12	O	0.899016	-0.309317	-0.309355
O13	O	1.018324	-0.399666	-0.519046
O14	O	0.898991	-0.399689	-0.399727
O15	O	1.108766	-0.309276	-0.519081
O16	O	1.108610	-0.519033	-0.309322
O17	O	1.018235	-0.519003	-0.399708
C18	C	0.872301	-0.354502	-0.354539
C19	C	0.790502	-0.354514	-0.354547
C20	C	0.602314	-0.401645	-0.401544
C21	C	0.525455	-0.401647	-0.401554
C22	C	0.525452	-0.307397	-0.307591
C23	C	0.602309	-0.307392	-0.307586
C24	C	0.640738	-0.354520	-0.354562
C25	C	0.487022	-0.354528	-0.354576
C26	C	0.403688	-0.354530	-0.354585
C27	C	0.724077	-0.354517	-0.354553
C28	C	1.063429	-0.545721	-0.354524
C29	C	1.063463	-0.627520	-0.354534
C30	C	1.110632	-0.815705	-0.307556
C31	C	1.110665	-0.892563	-0.307574
C32	C	1.016476	-0.892572	-0.401616
C33	C	1.016447	-0.815715	-0.401601
C34	C	1.063524	-0.777283	-0.354567
C35	C	1.063586	-0.930999	-0.354600
C36	C	1.063621	-1.014333	-0.354619
C37	C	1.063490	-0.693944	-0.354548
C38	C	1.255460	-0.354528	-0.354581
C39	C	1.337259	-0.354533	-0.354591
C40	C	1.063552	-0.354464	-0.546513
C41	C	1.063571	-0.354442	-0.628312
C42	C	1.063605	-0.162561	-0.354611
C43	C	1.063647	-0.080763	-0.354633
C44	C	1.110681	-0.307332	-0.816525
C45	C	1.110690	-0.307311	-0.893384
C46	C	1.016513	-0.401438	-0.893336
C47	C	1.016501	-0.401455	-0.816479
C48	C	1.063589	-0.354403	-0.778075
C49	C	1.063610	-0.354365	-0.931791
C50	C	1.063619	-0.354342	-1.015125
C51	C	1.063579	-0.354425	-0.694736
C52	C	1.063504	-0.354512	-0.163353
C53	C	1.063628	-0.354326	-0.081555
H54	H	0.633595	-0.269012	-0.269327
O55	O	0.970883	-0.447224	-0.930677
C56	C	1.012767	-0.494736	-0.975141
H57	H	1.070722	-0.499289	-0.951987
H58	H	0.986123	-0.551371	-0.975991
H59	H	1.015323	-0.471969	-1.033397
H60	H	1.148966	-0.784415	-0.269260
O61	O	0.970731	-0.447254	-0.779238
C62	C	0.929164	-0.488772	-0.829613
H63	H	0.959312	-0.491312	-0.884406
H64	H	0.921283	-0.546759	-0.807384
H65	H	0.873285	-0.461819	-0.837784
O66	O	0.970719	-0.778468	-0.447372
C67	C	0.986777	-0.797168	-0.520740
H68	H	1.015084	-0.852949	-0.522305
H69	H	0.933645	-0.799812	-0.553690
H70	H	1.024585	-0.753864	-0.545554
O71	O	0.639612	-0.447339	-0.447286
C72	C	0.620852	-0.431356	-0.520661
H73	H	0.599748	-0.372570	-0.524479
H74	H	0.671408	-0.437736	-0.557006
H75	H	0.576232	-0.470838	-0.539832
H76	H	0.494174	-0.440020	-0.439813
H77	H	0.494153	-0.269028	-0.269344
O78	O	1.156447	-0.929772	-0.261837
C79	C	1.198003	-0.879367	-0.220338
H80	H	1.167838	-0.824608	-0.217750
H81	H	1.205897	-0.901610	-0.162366
H82	H	1.253876	-0.871125	-0.247338
O83	O	0.970766	-0.930020	-0.447228
C84	C	0.980903	-1.006096	-0.437172
H85	H	1.005046	-1.016614	-0.380404
H86	H	0.925785	-1.035345	-0.442114
H87	H	1.020072	-1.027845	-0.480867
O88	O	1.156439	-0.261554	-0.779333
C89	C	1.198017	-0.220015	-0.829754
H90	H	1.167882	-0.217456	-0.884536
H91	H	1.205889	-0.162036	-0.807568
H92	H	1.253899	-0.246963	-0.837931
O93	O	1.156330	-0.261505	-0.930764
C94	C	1.114460	-0.213970	-0.975237
H95	H	1.056496	-0.209431	-0.952065
H96	H	1.141102	-0.157334	-0.976125
H97	H	1.111923	-0.236705	-1.033480
