data_functionalizedCrystal
_audit_creation_method	'MofGen! by Chris Wilmer'
_symmetry_space_group_name_H-M	'P1'
_symmetry_Int_Tables_number	1
_symmetry_cell_setting	triclinic
loop_
_symmetry_equiv_pos_as_xyz
  x,y,z
_cell_length_a	11.026660
_cell_length_b	14.044220
_cell_length_c	10.065918
_cell_angle_alpha	80.968371
_cell_angle_beta	82.291396
_cell_angle_gamma	100.886856
loop_
_atom_site_label
_atom_site_type_symbol
_atom_site_fract_x
_atom_site_fract_y
_atom_site_fract_z
O1	O	1.671519	0.419755	-0.113522
O2	O	2.171519	0.919755	0.386478
O3	O	1.313230	0.373709	-0.113520
O4	O	1.813230	0.873709	0.386480
O5	O	1.486994	0.257828	-0.113507
O6	O	1.986994	0.757828	0.386493
O7	O	1.497754	0.535636	-0.113534
O8	O	1.997754	1.035636	0.386466
O9	O	1.451802	0.227081	0.113484
O10	O	1.951802	0.727081	0.613484
O11	O	1.278038	0.342962	0.113471
O12	O	1.778038	0.842962	0.613471
O13	O	1.636326	0.389008	0.113469
O14	O	2.136326	0.889008	0.613469
Zn15	Zn	1.451594	0.361103	0.149510
Zn16	Zn	1.951594	0.861103	0.649510
Zn17	Zn	1.497962	0.401614	-0.149561
Zn18	Zn	1.997962	0.901614	0.350439
O19	O	1.462562	0.504889	0.113457
O20	O	1.962562	1.004889	0.613457
C21	C	1.249504	0.349841	-0.000024
C22	C	1.749504	0.849841	0.499976
C23	C	1.112049	0.324517	-0.000023
C24	C	1.612049	0.824517	0.499977
C25	C	0.903747	0.368277	-0.000032
C26	C	1.403747	0.868277	0.499968
C27	C	1.045813	0.394451	-0.000031
C28	C	1.545813	0.894451	0.499969
C29	C	1.464690	0.206336	-0.000011
C30	C	1.964690	0.706336	0.499989
C31	C	1.450646	0.098714	-0.000010
C32	C	1.950646	0.598714	0.499990
C33	C	1.424974	-0.098325	-0.000029
C34	C	1.924974	0.401675	0.499971
C35	C	1.524578	-0.138963	-0.000034
C36	C	2.024578	0.361037	0.499966
C37	C	1.510294	-0.248603	-0.000045
C38	C	2.010294	0.251397	0.499955
C39	C	1.439256	0.011324	-0.000018
C40	C	1.939256	0.511324	0.499982
C41	C	1.700053	0.412876	-0.000030
C42	C	2.200053	0.912876	0.499970
C43	C	1.837509	0.438201	-0.000040
C44	C	2.337509	0.938201	0.499960
C45	C	1.484867	0.556381	-0.000043
C46	C	1.984867	1.056381	0.499957
C47	C	1.498912	0.664004	-0.000053
C48	C	1.998912	1.164004	0.499947
N49	N	1.419959	0.333456	0.353618
N50	N	1.919959	0.833456	0.853618
N51	N	1.529607	0.429254	-0.353668
N52	N	2.029607	0.929254	0.146332
C53	C	1.486947	0.391993	0.421392
C54	C	1.986947	0.891993	0.921392
C55	C	1.462609	0.370709	0.578561
C56	C	1.962609	0.870709	1.078561
H57	H	1.094274	0.473698	-0.000030
H58	H	1.594274	0.973698	0.499970
H59	H	1.344593	0.267581	0.411950
H60	H	1.844593	0.767581	0.911950
H61	H	1.328980	-0.145873	-0.000032
H62	H	1.828980	0.354127	0.499968
H63	H	1.063603	0.245282	-0.000106
H64	H	1.563603	0.745282	0.499894
C65	C	1.654270	-0.074738	-0.000018
C66	C	2.154270	0.425262	0.499982
H67	H	1.714887	-0.114655	-0.000028
H68	H	2.214887	0.385345	0.499972
H69	H	1.651691	-0.045702	0.079144
H70	H	2.151691	0.454298	0.579144
H71	H	1.676250	-0.024240	-0.079180
H72	H	2.176250	0.475760	0.420820
H73	H	1.562320	0.457864	0.363059
H74	H	2.062320	0.957864	0.863059
H75	H	0.885974	0.517442	-0.000039
H76	H	1.385974	1.017442	0.499961
H77	H	1.387238	0.304829	0.636888
H78	H	1.887238	0.804829	1.136888
C79	C	1.631433	0.518250	0.567557
C80	C	2.131433	1.018250	1.067557
H81	H	1.670309	0.552210	0.630462
H82	H	2.170309	1.052210	1.130462
H83	H	1.594320	0.561657	0.511816
H84	H	2.094320	1.061657	1.011816
H85	H	1.692507	0.495780	0.511810
H86	H	2.192507	0.995780	1.011810
C87	C	0.838286	0.261226	-0.000024
C88	C	1.338286	0.761226	0.499976
H89	H	0.751390	0.257679	-0.000035
H90	H	1.251390	0.757679	0.499965
H91	H	0.849264	0.219255	0.079133
H92	H	1.349264	0.719255	0.579133
H93	H	0.873810	0.240707	-0.079191
H94	H	1.373810	0.740707	0.420809
