data_functionalizedCrystal
_audit_creation_method	'MofGen! by Chris Wilmer'
_symmetry_space_group_name_H-M	'P1'
_symmetry_Int_Tables_number	1
_symmetry_cell_setting	triclinic
loop_
_symmetry_equiv_pos_as_xyz
  x,y,z
_cell_length_a	10.268362
_cell_length_b	12.837943
_cell_length_c	11.792241
_cell_angle_alpha	89.511178
_cell_angle_beta	90.005910
_cell_angle_gamma	89.999416
loop_
_atom_site_label
_atom_site_type_symbol
_atom_site_fract_x
_atom_site_fract_y
_atom_site_fract_z
O1	O	-0.108278	-1.377107	-0.295234
O2	O	0.391722	-0.877107	0.204766
O3	O	-0.108286	-1.075220	-0.280650
O4	O	0.391714	-0.575220	0.219350
O5	O	-0.108273	-1.233489	-0.123514
O6	O	0.391727	-0.733489	0.376486
O7	O	-0.108292	-1.218837	-0.452369
O8	O	0.391708	-0.718837	0.047631
O9	O	0.108328	-1.233487	-0.123504
O10	O	0.608328	-0.733487	0.376496
O11	O	0.108315	-1.075218	-0.280640
O12	O	0.608315	-0.575218	0.219360
O13	O	0.108322	-1.377105	-0.295223
O14	O	0.608322	-0.877105	0.204777
Cu15	Cu	0.128096	-1.226161	-0.287931
Cu16	Cu	0.628096	-0.726161	0.212069
Cu17	Cu	-0.128060	-1.226164	-0.287943
Cu18	Cu	0.371940	-0.726164	0.212057
O19	O	0.108309	-1.218835	-0.452359
O20	O	0.608309	-0.718835	0.047641
C21	C	0.000013	-1.036570	-0.275718
C22	C	0.500013	-0.536570	0.224282
C23	C	0.000011	-0.921411	-0.261024
C24	C	0.500011	-0.421411	0.238976
N25	N	-0.308225	-1.226166	-0.287943
N26	N	0.191775	-0.726166	0.212057
C27	C	0.000027	-1.232568	-0.081125
C28	C	0.500027	-0.732568	0.418875
C29	C	0.000026	-1.229813	0.045168
C30	C	0.500026	-0.729813	0.545168
C31	C	-0.573896	-1.226163	-0.287936
C32	C	-0.073896	-0.726163	0.212064
C33	C	-0.426058	-1.226162	-0.287943
C34	C	0.073942	-0.726162	0.212057
N35	N	0.308262	-1.226167	-0.287922
N36	N	0.808262	-0.726167	0.212078
C37	C	0.000020	-1.415754	-0.300155
C38	C	0.500020	-0.915754	0.199845
C39	C	0.000014	-1.530914	-0.314849
C40	C	0.500014	-1.030914	0.185151
C41	C	0.000019	-0.681445	-0.437670
C42	C	0.500019	-0.181445	0.062330
C43	C	0.000018	-0.573242	-0.423869
C44	C	0.500018	-0.073242	0.076131
C45	C	0.000016	-0.596798	-0.219623
C46	C	0.500016	-0.096798	0.280377
C47	C	0.000017	-0.705002	-0.233424
C48	C	0.500017	-0.205002	0.266576
C49	C	0.000017	-0.747321	-0.342451
C50	C	0.500017	-0.247321	0.157549
C51	C	0.000009	-0.855526	-0.356250
C52	C	0.500009	-0.355526	0.143750
C53	C	0.000016	-0.879081	-0.152005
C54	C	0.500016	-0.379081	0.347995
C55	C	0.000015	-0.770878	-0.138204
C56	C	0.500015	-0.270878	0.361796
C57	C	0.000006	-1.219757	-0.494749
C58	C	0.500006	-0.719757	0.005251
C59	C	-0.000001	-1.222512	-0.621042
C60	C	0.499999	-0.722512	-0.121042
C61	C	0.000004	-1.224748	0.276394
C62	C	0.500004	-0.724748	0.776394
C63	C	0.000016	-1.227562	0.147724
C64	C	0.500016	-0.727562	0.647724
H65	H	0.000017	-0.715902	-0.526444
H66	H	0.500017	-0.215902	-0.026444
H67	H	0.000123	-0.562323	-0.130858
H68	H	0.500123	-0.062323	0.369142
H69	H	0.000005	-0.932730	-0.074471
H70	H	0.500005	-0.432730	0.425529
H71	H	0.000023	-0.519609	-0.501407
H72	H	0.500023	-0.019609	-0.001407
O73	O	0.000022	-0.725232	-0.020615
O74	O	0.500022	-0.225232	0.479385
H75	H	-0.088264	-0.676501	-0.009445
H76	H	0.411736	-0.176501	0.490555
O77	O	0.000026	-0.901179	-0.473837
O78	O	0.500026	-0.401179	0.026163
H79	H	0.000046	-0.837188	-0.537729
H80	H	0.500046	-0.337188	-0.037729
