data_functionalizedCrystal
_audit_creation_method	'MofGen! by Chris Wilmer'
_symmetry_space_group_name_H-M	'P1'
_symmetry_Int_Tables_number	1
_symmetry_cell_setting	triclinic
loop_
_symmetry_equiv_pos_as_xyz
  x,y,z
_cell_length_a	17.077404
_cell_length_b	16.959454
_cell_length_c	17.077396
_cell_angle_alpha	90.024735
_cell_angle_beta	90.019501
_cell_angle_gamma	90.020300
loop_
_atom_site_label
_atom_site_type_symbol
_atom_site_fract_x
_atom_site_fract_y
_atom_site_fract_z
Zn1	Zn	1.200070	-0.314677	0.443863
Zn2	Zn	1.700070	0.185323	0.943863
Zn3	Zn	1.199983	-0.446865	0.312606
Zn4	Zn	1.699983	0.053135	0.812606
Zn5	Zn	1.068802	-0.314705	0.312611
Zn6	Zn	1.568802	0.185295	0.812611
Zn7	Zn	1.068776	-0.446818	0.443829
Zn8	Zn	1.568776	0.053182	0.943829
O9	O	1.134408	-0.380766	0.378227
O10	O	1.634408	0.119234	0.878227
O11	O	1.309905	-0.332220	0.426463
O12	O	1.809905	0.167780	0.926463
O13	O	1.182556	-0.429365	0.202759
O14	O	1.682556	0.070635	0.702759
O15	O	1.086262	-0.204090	0.330038
O16	O	1.586262	0.295910	0.830038
O17	O	1.309842	-0.429338	0.330029
O18	O	1.809842	0.070662	0.830029
O19	O	1.182704	-0.204070	0.426469
O20	O	1.682704	0.295930	0.926469
O21	O	1.086178	-0.332267	0.202763
O22	O	1.586178	0.167733	0.702763
O23	O	0.958951	-0.332222	0.330006
O24	O	1.458951	0.167778	0.830006
O25	O	1.086218	-0.429258	0.553681
O26	O	1.586218	0.070742	1.053681
O27	O	0.958933	-0.429285	0.426411
O28	O	1.458933	0.070715	0.926411
O29	O	1.182679	-0.332174	0.553706
O30	O	1.682679	0.167826	1.053706
O31	O	1.182532	-0.557469	0.329996
O32	O	1.682532	-0.057469	0.829996
O33	O	1.086134	-0.557435	0.426406
O34	O	1.586134	-0.057435	0.926406
C35	C	0.930460	-0.380752	0.378206
C36	C	1.430460	0.119248	0.878206
C37	C	0.843210	-0.380764	0.378215
C38	C	1.343210	0.119236	0.878215
C39	C	1.134342	-0.586132	0.378214
C40	C	1.634342	-0.086132	0.878214
C41	C	1.134386	-0.673989	0.378235
C42	C	1.634386	-0.173989	0.878235
C43	C	0.802231	-0.431381	0.428333
C44	C	1.302231	0.068619	0.928333
C45	C	0.720250	-0.431383	0.428345
C46	C	1.220250	0.068617	0.928345
C47	C	0.679251	-0.380771	0.378236
C48	C	1.179251	0.119229	0.878236
C49	C	0.720236	-0.330149	0.328116
C50	C	1.220236	0.169851	0.828116
C51	C	0.802215	-0.330144	0.328108
C52	C	1.302215	0.169856	0.828108
C53	C	0.549366	-0.330164	0.328134
C54	C	1.049366	0.169836	0.828134
C55	C	0.467381	-0.330170	0.328141
C56	C	0.967381	0.169830	0.828141
C57	C	0.467401	-0.431404	0.428372
C58	C	0.967401	0.068596	0.928372
C59	C	0.549380	-0.431399	0.428364
C60	C	1.049380	0.068601	0.928364
C61	C	0.590360	-0.380777	0.378243
C62	C	1.090360	0.119223	0.878243
C63	C	1.084287	-1.045476	0.428422
C64	C	1.584287	-0.545476	0.928422
C65	C	1.184748	-1.045452	0.328112
C66	C	1.684748	-0.545452	0.828112
C67	C	1.184720	-0.962906	0.328105
C68	C	1.684720	-0.462906	0.828105
C69	C	1.134474	-0.921642	0.378256
C70	C	1.634474	-0.421642	0.878256
C71	C	1.084256	-0.962923	0.428415
C72	C	1.584256	-0.462923	0.928415
C73	C	1.234932	-0.921619	0.277942
C74	C	1.734932	-0.421619	0.777942
C75	C	1.234906	-0.839068	0.277932
C76	C	1.734906	-0.339068	0.777932
C77	C	1.184664	-0.797802	0.328088
C78	C	1.684664	-0.297802	0.828088
C79	C	1.134444	-0.839088	0.378249
C80	C	1.634444	-0.339088	0.878249
C81	C	1.084198	-0.797823	0.428400
C82	C	1.584198	-0.297823	0.928400
C83	C	1.033981	-0.839108	0.478566
C84	C	1.533981	-0.339108	0.978566
C85	C	1.034013	-0.921657	0.478571
C86	C	1.534013	-0.421657	0.978571
C87	C	1.184632	-0.715254	0.328083
C88	C	1.684632	-0.215254	0.828083
C89	C	1.084167	-0.715270	0.428393
C90	C	1.584167	-0.215270	0.928393
C91	C	1.339152	-0.380781	0.378250
C92	C	1.839152	0.119219	0.878250
C93	C	1.426402	-0.380787	0.378259
C94	C	1.926402	0.119213	0.878259
C95	C	1.134455	-0.380708	0.582972
C96	C	1.634455	0.119292	1.082972
C97	C	1.134476	-0.380683	0.670222
C98	C	1.634476	0.119317	1.170222
C99	C	1.134495	-0.174598	0.378258
C100	C	1.634495	0.325402	0.878258
C101	C	1.134533	-0.086741	0.378271
C102	C	1.634533	0.413259	0.878271
C103	C	1.134406	-0.380767	0.174279
C104	C	1.634406	0.119233	0.674279
C105	C	1.134538	-0.380569	0.087030
C106	C	1.634538	0.119431	0.587030
C107	C	1.184705	-0.330127	0.711226
C108	C	1.684705	0.169873	1.211226
C109	C	1.184714	-0.330101	0.793206
C110	C	1.684714	0.169899	1.293206
C111	C	1.134498	-0.380635	0.834181
C112	C	1.634498	0.119365	1.334181
C113	C	1.084263	-0.431193	0.793171
C114	C	1.584263	0.068807	1.293171
C115	C	1.084250	-0.431214	0.711192
C116	C	1.584250	0.068786	1.211192
C117	C	1.084295	-0.431145	0.964041
C118	C	1.584295	0.068855	1.464041
C119	C	1.084309	-0.431125	1.046026
C120	C	1.584309	0.068875	1.546026
C121	C	1.184759	-0.330032	1.046056
C122	C	1.684759	0.169968	1.546056
C123	C	1.184746	-0.330053	0.964077
C124	C	1.684746	0.169947	1.464077
C125	C	1.134512	-0.380613	0.923072
C126	C	1.634512	0.119387	1.423072
H127	H	0.835607	-0.472598	0.469136
H128	H	1.335607	0.027402	0.969136
H129	H	0.434032	-0.472620	0.469185
H130	H	0.934032	0.027380	0.969185
F131	F	0.845828	-0.276269	0.274767
F132	F	1.345828	0.223731	0.774767
H133	H	1.275796	-0.805459	0.237085
H134	H	1.775796	-0.305459	0.737085
F135	F	1.030691	-0.671359	0.481776
F136	F	1.530691	-0.171359	0.981776
H137	H	0.993129	-0.955278	0.519412
H138	H	1.493129	-0.455278	1.019412
F139	F	1.238202	-0.276320	0.836843
F140	F	1.738202	0.223680	1.336843
H141	H	0.993067	-0.805501	0.519396
H142	H	1.493067	-0.305501	1.019396
H143	H	0.582760	-0.472616	0.469164
H144	H	1.082760	0.027384	0.969164
F145	F	0.423748	-0.276307	0.274806
F146	F	0.923748	0.223693	0.774806
H147	H	0.582729	-0.288936	0.287327
H148	H	1.082729	0.211064	0.787327
H149	H	1.043404	-1.079094	0.469268
H150	H	1.543404	-0.579094	0.969268
H151	H	0.686848	-0.288936	0.287319
H152	H	1.186848	0.211064	0.787319
H153	H	1.225651	-1.079055	0.287277
H154	H	1.725651	-0.579055	0.787277
F155	F	1.288407	-0.965540	0.224574
F156	F	1.788407	-0.465540	0.724574
F157	F	1.238064	-0.671319	0.274690
F158	F	1.738064	-0.171319	0.774690
H159	H	1.225641	-0.288909	0.930717
H160	H	1.725641	0.211091	1.430717
F161	F	1.238157	-0.276345	0.667625
F162	F	1.738157	0.223655	1.167625
H163	H	1.225659	-0.288863	1.079445
H164	H	1.725659	0.211137	1.579445
H165	H	1.043373	-0.472335	0.826539
H166	H	1.543373	0.027665	1.326539
H167	H	1.043416	-0.472272	1.079385
H168	H	1.543416	0.027728	1.579385
F169	F	1.030828	-0.484954	0.920403
F170	F	1.530828	0.015046	1.420403
F171	F	1.030788	-0.485020	0.667552
F172	F	1.530788	0.014980	1.167552
H173	H	0.686889	-0.472601	0.469156
H174	H	1.186889	0.027399	0.969156
