data_functionalizedCrystal
_audit_creation_method	'MofGen! by Chris Wilmer'
_symmetry_space_group_name_H-M	'P1'
_symmetry_Int_Tables_number	1
_symmetry_cell_setting	triclinic
loop_
_symmetry_equiv_pos_as_xyz
  x,y,z
_cell_length_a	16.625548
_cell_length_b	11.169416
_cell_length_c	11.169409
_cell_angle_alpha	90.029517
_cell_angle_beta	90.023153
_cell_angle_gamma	90.005306
loop_
_atom_site_label
_atom_site_type_symbol
_atom_site_fract_x
_atom_site_fract_y
_atom_site_fract_z
Zn1	Zn	1.232803	-0.477676	0.678673
Zn2	Zn	1.732803	0.022324	1.178673
Zn3	Zn	1.232743	-0.678416	0.478000
Zn4	Zn	1.732743	-0.178416	0.978000
Zn5	Zn	1.097959	-0.477749	0.477996
Zn6	Zn	1.597959	0.022251	0.977996
Zn7	Zn	1.097978	-0.678319	0.678633
Zn8	Zn	1.597978	-0.178319	1.178633
O9	O	1.165371	-0.578040	0.578325
O10	O	1.665371	-0.078040	1.078325
O11	O	1.345628	-0.504314	0.652072
O12	O	1.845628	-0.004314	1.152072
O13	O	1.214831	-0.651869	0.310049
O14	O	1.714831	-0.151869	0.810049
O15	O	1.115863	-0.309790	0.504631
O16	O	1.615863	0.190210	1.004631
O17	O	1.345584	-0.651797	0.504638
O18	O	1.845584	-0.151797	1.004638
O19	O	1.214933	-0.309736	0.652068
O20	O	1.714933	0.190264	1.152068
O21	O	1.115805	-0.504440	0.310046
O22	O	1.615805	-0.004440	0.810046
O23	O	0.985129	-0.504346	0.504592
O24	O	1.485129	-0.004346	1.004592
O25	O	1.115896	-0.651632	0.846588
O26	O	1.615896	-0.151632	1.346588
O27	O	0.985143	-0.651703	0.651999
O28	O	1.485143	-0.151703	1.151999
O29	O	1.214952	-0.504220	0.846617
O30	O	1.714952	-0.004220	1.346617
O31	O	1.214849	-0.846353	0.504599
O32	O	1.714849	-0.346353	1.004599
O33	O	1.115838	-0.846282	0.652003
O34	O	1.615838	-0.346282	1.152003
C35	C	1.165361	-0.889865	0.578324
C36	C	1.665361	-0.389865	1.078324
C37	C	1.165431	-1.023265	0.578363
C38	C	1.665431	-0.523265	1.078363
C39	C	0.955880	-0.578023	0.578292
C40	C	1.455880	-0.078023	1.078292
C41	C	0.866259	-0.578045	0.578306
C42	C	1.366259	-0.078045	1.078306
C43	C	1.165433	-0.577907	0.891368
C44	C	1.665433	-0.077907	1.391368
C45	C	1.165459	-0.577850	1.024768
C46	C	1.665459	-0.077850	1.524768
C47	C	0.538083	-0.578052	0.578357
C48	C	1.038083	-0.078052	1.078357
C49	C	0.629392	-0.578047	0.578339
C50	C	1.129392	-0.078047	1.078339
C51	C	0.702168	-0.578049	0.578331
C52	C	1.202168	-0.078049	1.078331
C53	C	0.793482	-0.578042	0.578314
C54	C	1.293482	-0.078042	1.078314
C55	C	1.375680	-0.578058	0.578360
C56	C	1.875680	-0.078058	1.078360
C57	C	1.465301	-0.578066	0.578374
C58	C	1.965301	-0.078066	1.078374
C59	C	1.165403	-0.264998	0.578353
C60	C	1.665403	0.235002	1.078353
C61	C	1.165416	-0.131598	0.578365
C62	C	1.665416	0.368402	1.078365
C63	C	1.165356	-0.578086	0.266501
C64	C	1.665356	-0.078086	0.766501
C65	C	1.165485	-0.577805	0.133101
C66	C	1.665485	-0.077805	0.633101
