data_functionalizedCrystal
_audit_creation_method	'MofGen! by Chris Wilmer'
_symmetry_space_group_name_H-M	'P1'
_symmetry_Int_Tables_number	1
_symmetry_cell_setting	triclinic
loop_
_symmetry_equiv_pos_as_xyz
  x,y,z
_cell_length_a	10.967926
_cell_length_b	11.792254
_cell_length_c	10.065875
_cell_angle_alpha	98.849918
_cell_angle_beta	93.120479
_cell_angle_gamma	84.460570
loop_
_atom_site_label
_atom_site_type_symbol
_atom_site_fract_x
_atom_site_fract_y
_atom_site_fract_z
O1	O	1.614190	0.197972	0.266153
O2	O	2.114190	0.697972	0.766153
O3	O	1.264167	0.201214	0.183827
O4	O	1.764167	0.701214	0.683827
O5	O	1.447663	0.034735	0.226996
O6	O	1.947663	0.534735	0.726996
O7	O	1.430694	0.364451	0.222985
O8	O	1.930694	0.864451	0.722985
O9	O	1.412674	0.066614	0.445753
O10	O	1.912674	0.566614	0.945753
O11	O	1.229178	0.233092	0.402585
O12	O	1.729178	0.733092	0.902585
O13	O	1.579201	0.229851	0.484911
O14	O	2.079201	0.729851	0.984911
Zn15	Zn	1.398634	0.236533	0.478480
Zn16	Zn	1.898634	0.736533	0.978480
Zn17	Zn	1.444734	0.194532	0.190258
Zn18	Zn	1.944734	0.694532	0.690258
O19	O	1.395705	0.396330	0.441742
O20	O	1.895705	0.896330	0.941742
C21	C	1.201862	0.214509	0.282666
C22	C	1.701862	0.714509	0.782666
C23	C	1.068340	0.206615	0.251262
C24	C	1.568340	0.706615	0.751262
C25	C	0.990686	0.219610	0.350584
C26	C	1.490686	0.719610	0.850584
C27	C	0.852683	0.211451	0.318128
C28	C	1.352683	0.711451	0.818128
C29	C	1.429100	0.008344	0.336122
C30	C	1.929100	0.508344	0.836122
C31	C	1.425900	-0.117786	0.335368
C32	C	1.925900	0.382214	0.835368
C33	C	1.423300	-0.220218	0.334752
C34	C	1.923300	0.279782	0.834752
C35	C	1.420051	-0.348725	0.333975
C36	C	1.920051	0.151275	0.833975
C37	C	1.641507	0.216556	0.386068
C38	C	2.141507	0.716556	0.886068
C39	C	1.775030	0.224448	0.417464
C40	C	2.275030	0.724448	0.917464
C41	C	1.414269	0.422720	0.332613
C42	C	1.914269	0.922720	0.832613
C43	C	1.417470	0.548849	0.333358
C44	C	1.917470	1.048849	0.833358
N45	N	1.367181	0.265198	0.675186
N46	N	1.867181	0.765198	1.175186
N47	N	1.476197	0.165858	-0.006446
N48	N	1.976197	0.665858	0.493554
C49	C	1.433783	0.204497	0.758633
C50	C	1.933783	0.704497	1.258633
C51	C	1.409585	0.226567	0.910108
C52	C	1.909585	0.726567	1.410108
H53	H	1.032655	0.189447	0.142202
H54	H	1.532655	0.689447	0.642202
H55	H	1.334641	0.294875	0.950798
H56	H	1.834641	0.794875	1.450798
H57	H	1.292241	0.333500	0.715882
H58	H	1.792241	0.833500	1.215882
H59	H	0.817005	0.194282	0.209061
H60	H	1.317005	0.694282	0.709061
H61	H	1.551132	0.097542	0.952862
H62	H	2.051132	0.597542	1.452862
C63	C	0.984166	0.348475	0.559926
C64	C	1.484166	0.848475	1.059926
C65	C	1.038839	0.242779	0.497820
C66	C	1.538839	0.742779	0.997820
H67	H	1.013886	0.362772	0.650828
H68	H	1.513886	0.862772	1.150828
H69	H	1.003787	0.408304	0.513670
H70	H	1.503787	0.908304	1.013670
H71	H	0.897744	0.346020	0.557417
H72	H	1.397744	0.846020	1.057417
H73	H	1.125261	0.245236	0.500320
H74	H	1.625261	0.745236	1.000320
H75	H	1.019227	0.182934	0.544088
H76	H	1.519227	0.682934	1.044088
C77	C	1.509379	0.004659	0.732061
C78	C	2.009379	0.504659	1.232061
C79	C	1.534950	0.112302	0.703670
C80	C	2.034950	0.612302	1.203670
H81	H	1.571836	-0.052253	0.698113
H82	H	2.071836	0.447747	1.198113
H83	H	1.506419	0.007371	0.826637
H84	H	2.006419	0.507371	1.326637
H85	H	1.432546	-0.014152	0.690664
H86	H	1.932546	0.485848	1.190664
H87	H	1.611780	0.131116	0.745075
H88	H	2.111780	0.631116	1.245075
H89	H	1.537923	0.109591	0.609076
H90	H	2.037923	0.609591	1.109076
H91	H	0.810708	0.241610	0.526533
H92	H	1.310708	0.741610	1.026533
