data_functionalizedCrystal
_audit_creation_method	'MofGen! by Chris Wilmer'
_symmetry_space_group_name_H-M	'P1'
_symmetry_Int_Tables_number	1
_symmetry_cell_setting	triclinic
loop_
_symmetry_equiv_pos_as_xyz
  x,y,z
_cell_length_a	12.784890
_cell_length_b	14.519709
_cell_length_c	11.295483
_cell_angle_alpha	94.101713
_cell_angle_beta	86.328828
_cell_angle_gamma	78.393351
loop_
_atom_site_label
_atom_site_type_symbol
_atom_site_fract_x
_atom_site_fract_y
_atom_site_fract_z
O1	O	1.417473	-0.001013	-0.098988
O2	O	1.917473	0.498987	0.401012
O3	O	1.108093	0.038477	-0.098999
O4	O	1.608093	0.538477	0.401001
O5	O	1.270985	-0.116175	-0.098983
O6	O	1.770985	0.383825	0.401017
O7	O	1.254581	0.153640	-0.099005
O8	O	1.754581	0.653640	0.400995
O9	O	1.256678	-0.102611	0.099067
O10	O	1.756678	0.397389	0.599067
O11	O	1.093786	0.052042	0.099050
O12	O	1.593786	0.552042	0.599050
O13	O	1.403166	0.012552	0.099061
O14	O	1.903166	0.512552	0.599061
Cu15	Cu	1.247170	0.033535	0.117139
Cu16	Cu	1.747170	0.533535	0.617139
Cu17	Cu	1.264090	0.017494	-0.117077
Cu18	Cu	1.764090	0.517494	0.382923
O19	O	1.240274	0.167204	0.099045
O20	O	1.740274	0.667204	0.599045
C21	C	1.061345	0.047828	0.000024
C22	C	1.561345	0.547828	0.500024
C23	C	0.943366	0.055470	0.000020
C24	C	1.443366	0.555470	0.500020
C25	C	1.263067	-0.143690	0.000042
C26	C	1.763067	0.356310	0.500042
C27	C	1.260776	-0.245884	0.000043
C28	C	1.760776	0.254116	0.500043
C29	C	0.764572	0.151247	0.000010
C30	C	1.264572	0.651247	0.500010
C31	C	0.875424	0.144073	0.000011
C32	C	1.375424	0.644073	0.500011
C33	C	0.900451	-0.025965	0.000025
C34	C	1.400451	0.474035	0.500025
C35	C	0.789599	-0.018790	0.000024
C36	C	1.289599	0.481210	0.500024
C37	C	0.721663	0.069819	0.000019
C38	C	1.221663	0.569819	0.500019
C39	C	0.610810	0.076993	0.000027
C40	C	1.110810	0.576993	0.500027
C41	C	0.635839	-0.093044	0.000032
C42	C	1.135839	0.406956	0.500032
C43	C	0.746690	-0.100219	0.000032
C44	C	1.246690	0.399781	0.500032
C45	C	1.252344	-0.620094	0.000011
C46	C	1.752344	-0.120094	0.500011
C47	C	1.254685	-0.515976	0.000020
C48	C	1.754685	-0.015976	0.500020
C49	C	1.256559	-0.432992	0.000028
C50	C	1.756559	0.067008	0.500028
C51	C	1.258902	-0.328868	0.000035
C52	C	1.758902	0.171132	0.500035
C53	C	1.449914	0.003201	0.000035
C54	C	1.949914	0.503201	0.500035
C55	C	1.567894	-0.004442	0.000031
C56	C	2.067894	0.495558	0.500031
C57	C	1.248193	0.194719	0.000017
C58	C	1.748193	0.694719	0.500017
C59	C	1.250484	0.296913	0.000009
C60	C	1.750484	0.796913	0.500009
N61	N	1.235277	0.044817	0.281874
N62	N	1.735277	0.544817	0.781874
N63	N	1.275991	0.006204	-0.281812
N64	N	1.775991	0.506204	0.218188
C65	C	1.361602	-0.075057	0.531177
C66	C	1.861602	0.424943	1.031177
C67	C	1.352622	-0.066526	0.655839
C68	C	1.852622	0.433474	1.155839
C69	C	1.208333	0.070406	0.655865
C70	C	1.708333	0.570406	1.155865
C71	C	1.217313	0.061875	0.531202
C72	C	1.717313	0.561875	1.031202
C73	C	1.293951	-0.010858	0.468862
C74	C	1.793951	0.489142	0.968862
C75	C	1.302935	-0.019385	0.344197
C76	C	1.802935	0.480615	0.844197
C77	C	1.158642	0.117542	0.344225
C78	C	1.658642	0.617542	0.844225
C79	C	1.149662	0.126074	0.468888
C80	C	1.649662	0.626074	0.968888
H81	H	0.555497	0.149144	0.000029
H82	H	1.055497	0.649144	0.500029
H83	H	0.955783	-0.098106	0.000020
H84	H	1.455783	0.401894	0.500020
H85	H	1.424011	-0.134274	0.480419
H86	H	1.924011	0.365726	0.980419
H87	H	1.365340	-0.078606	0.293441
H88	H	1.865340	0.421394	0.793441
H89	H	1.407709	-0.118804	0.706572
H90	H	1.907709	0.381196	1.206572
H91	H	0.910355	0.210380	0.000007
H92	H	1.410355	0.710380	0.500007
H93	H	1.145929	0.129618	0.706638
H94	H	1.645929	0.629618	1.206638
H95	H	1.103559	0.169819	0.293474
H96	H	1.603559	0.669819	0.793474
H97	H	0.709257	0.223397	0.000020
H98	H	1.209257	0.723397	0.500020
H99	H	0.802019	-0.172361	0.000032
H100	H	1.302019	0.327639	0.500032
H101	H	0.600899	-0.159356	-0.000056
H102	H	1.100899	0.340644	0.499944
H103	H	1.087262	0.185290	0.519659
H104	H	1.587262	0.685290	1.019659
