data_functionalizedCrystal
_audit_creation_method	'MofGen! by Chris Wilmer'
_symmetry_space_group_name_H-M	'P1'
_symmetry_Int_Tables_number	1
_symmetry_cell_setting	triclinic
loop_
_symmetry_equiv_pos_as_xyz
  x,y,z
_cell_length_a	10.654549
_cell_length_b	10.654550
_cell_length_c	9.730223
_cell_angle_alpha	90.004929
_cell_angle_beta	90.000577
_cell_angle_gamma	95.515146
loop_
_atom_site_label
_atom_site_type_symbol
_atom_site_fract_x
_atom_site_fract_y
_atom_site_fract_z
O1	O	1.667834	-0.176398	-0.114258
O2	O	1.302355	-0.193205	-0.114268
O3	O	1.493498	-0.002062	-0.114254
O4	O	1.476692	-0.367541	-0.114272
O5	O	1.493496	-0.002053	0.114326
O6	O	1.302354	-0.193196	0.114312
O7	O	1.667832	-0.176389	0.114322
Zn8	Zn	1.485093	-0.184791	0.150609
Zn9	Zn	1.485095	-0.184803	-0.150555
O10	O	1.476690	-0.367532	0.114308
C11	C	1.255557	-0.191966	0.000021
C12	C	1.116113	-0.188275	0.000018
C13	C	0.905599	-0.297338	0.000018
C14	C	1.036619	-0.300816	0.000010
C15	C	1.064581	-0.072247	0.000020
C16	C	0.933563	-0.068770	0.000019
C17	C	1.492263	0.044740	0.000035
C18	C	1.488571	0.184183	0.000033
C19	C	1.714631	-0.177628	0.000030
C20	C	1.854074	-0.181319	0.000025
N21	N	1.485097	-0.184802	-0.356091
C22	C	1.477925	-0.414334	0.000016
C23	C	1.481617	-0.553777	0.000009
C24	C	1.601113	0.263669	0.000036
C25	C	1.597636	0.394690	0.000019
C26	C	1.369067	0.366727	0.000003
C27	C	1.372544	0.235708	0.000010
C28	C	1.569895	-0.100331	-0.428011
C29	C	1.569901	-0.100324	-0.571894
C30	C	1.400298	-0.269262	-0.571924
C31	C	1.400300	-0.269274	-0.428044
N32	N	1.485100	-0.184783	0.356146
H33	H	1.129316	0.019386	0.000019
F34	F	0.878724	0.054720	0.000011
F35	F	1.724598	0.208837	0.000059
F36	F	1.091449	-0.424299	-0.000003
H37	H	1.689279	0.459403	0.000018
F38	F	1.310047	-0.359188	-0.351496
H39	H	1.638952	-0.031543	-0.630447
H40	H	1.331256	-0.338036	-0.630523
F41	F	0.821005	-0.417123	0.000020
F42	F	1.245589	0.421575	-0.000023
F43	F	1.660147	-0.010431	-0.351439
F44	F	1.252756	0.151108	-0.000003
