data_functionalizedCrystal
_audit_creation_method	'MofGen! by Chris Wilmer'
_symmetry_space_group_name_H-M	'P1'
_symmetry_Int_Tables_number	1
_symmetry_cell_setting	triclinic
loop_
_symmetry_equiv_pos_as_xyz
  x,y,z
_cell_length_a	11.026607
_cell_length_b	9.130313
_cell_length_c	10.654550
_cell_angle_alpha	89.999890
_cell_angle_beta	96.535460
_cell_angle_gamma	89.999749
loop_
_atom_site_label
_atom_site_type_symbol
_atom_site_fract_x
_atom_site_fract_y
_atom_site_fract_z
O1	O	1.614591	-0.121797	0.526872
O2	O	1.260780	-0.121799	0.466877
O3	O	1.445820	-0.121792	0.315901
O4	O	1.429550	-0.121803	0.677848
O5	O	1.445818	0.121806	0.315906
O6	O	1.260777	0.121800	0.466881
O7	O	1.614588	0.121802	0.526877
Cu8	Cu	1.437683	0.144043	0.496879
Cu9	Cu	1.437685	-0.144040	0.496874
O10	O	1.429548	0.121796	0.677852
C11	C	1.215474	0.000000	0.455811
C12	C	1.080483	-0.000001	0.422816
N13	N	1.437690	0.346666	0.496885
N14	N	1.437688	-0.346663	0.496861
C15	C	1.007444	-0.000004	0.513920
C16	C	0.867922	-0.000005	0.479820
C17	C	1.659893	-0.000000	0.537943
C18	C	1.794885	-0.000009	0.570937
C19	C	1.444624	0.000005	0.268846
C20	C	1.441050	0.000000	0.128627
C21	C	1.519647	0.423321	0.430066
C22	C	1.519643	0.576658	0.430050
C23	C	1.355722	0.576671	0.563681
C24	C	1.355720	0.423337	0.563689
C25	C	1.614289	0.423314	0.352920
C26	C	1.614286	0.576651	0.352904
C27	C	1.549999	0.000005	0.072791
C28	C	1.546633	-0.000005	-0.058961
C29	C	1.325361	-0.000019	-0.079029
C30	C	1.328727	-0.000020	0.052720
C31	C	1.677749	0.000020	0.084376
C32	C	1.674383	0.000010	-0.047376
C33	C	1.430744	-0.000005	0.724907
C34	C	1.434318	-0.000010	0.865126
H35	H	1.048204	0.000001	0.617161
H36	H	1.240011	-0.000044	0.098176
H37	H	1.039722	-0.000035	0.319575
C38	C	1.479992	0.281928	0.206576
C39	C	1.586243	0.367123	0.216528
H40	H	1.462679	0.247235	0.122377
H41	H	1.413701	0.339737	0.227875
H42	H	1.491549	0.201017	0.262716
H43	H	1.574683	0.448040	0.160394
H44	H	1.652550	0.309311	0.195215
H45	H	1.702562	0.375756	0.402669
H46	H	1.288974	0.360926	0.618085
C47	C	1.145867	0.623893	0.589834
C48	C	1.265626	0.660958	0.637110
H49	H	1.090247	0.675935	0.635163
H50	H	1.134147	0.521615	0.599414
H51	H	1.131984	0.649016	0.502864
H52	H	1.279512	0.635824	0.724078
H53	H	1.277352	0.763258	0.627541
H54	H	0.835638	-0.000002	0.674186
H55	H	1.584747	0.624201	0.255269
H56	H	1.707716	0.618268	0.394703
H57	H	1.233911	-0.000037	-0.140848
H58	H	1.727718	-0.101918	0.124578
H59	H	0.827168	-0.000040	0.376572
H60	H	1.718428	0.105201	0.128835
C61	C	1.657131	0.221086	-0.170149
C62	C	1.739335	0.137642	-0.089653
H63	H	1.697227	0.306050	-0.196252
H64	H	1.590302	0.249378	-0.126659
H65	H	1.628129	0.164425	-0.242140
H66	H	1.768330	0.194300	-0.017657
H67	H	1.806185	0.109353	-0.133143
H68	H	1.712992	-0.105169	-0.084640
