data_functionalizedCrystal
_audit_creation_method	'MofGen! by Chris Wilmer'
_symmetry_space_group_name_H-M	'P1'
_symmetry_Int_Tables_number	1
_symmetry_cell_setting	triclinic
loop_
_symmetry_equiv_pos_as_xyz
  x,y,z
_cell_length_a	18.215407
_cell_length_b	12.645330
_cell_length_c	18.215399
_cell_angle_alpha	90.023030
_cell_angle_beta	90.019833
_cell_angle_gamma	90.018140
loop_
_atom_site_label
_atom_site_type_symbol
_atom_site_fract_x
_atom_site_fract_y
_atom_site_fract_z
Zn1	Zn	1.125109	-0.422038	0.416141
Zn2	Zn	1.125033	-0.599320	0.293085
Zn3	Zn	1.002041	-0.422072	0.293088
Zn4	Zn	1.002023	-0.599261	0.416110
O5	O	1.063551	-0.510673	0.354606
O6	O	1.228083	-0.445565	0.399829
O7	O	1.108693	-0.575847	0.190101
O8	O	1.018406	-0.273720	0.309426
O9	O	1.228027	-0.575813	0.309421
O10	O	1.108823	-0.273695	0.399832
O11	O	1.018332	-0.445624	0.190104
O12	O	0.899055	-0.445566	0.309396
O13	O	1.018374	-0.575713	0.519099
O14	O	0.899041	-0.575746	0.399780
O15	O	1.108805	-0.445507	0.519121
O16	O	1.108675	-0.747659	0.309391
O17	O	1.018300	-0.747616	0.399777
C18	C	0.872345	-0.510654	0.354585
C19	C	0.790546	-0.510672	0.354594
C20	C	0.602364	-0.578563	0.401597
C21	C	0.525506	-0.578567	0.401606
C22	C	0.525490	-0.442801	0.307631
C23	C	0.602348	-0.442793	0.307626
C24	C	0.640783	-0.510680	0.354608
C25	C	0.487067	-0.510692	0.354622
C26	C	0.403733	-0.510695	0.354632
C27	C	0.724122	-0.510676	0.354600
C28	C	1.063498	-0.786102	0.354596
C29	C	1.063542	-0.903932	0.354616
C30	C	1.006922	-1.071513	0.411653
C31	C	1.006632	-0.948954	0.411470
C32	C	1.042549	-0.948523	0.277058
C33	C	1.042203	-1.071122	0.277404
C34	C	1.141502	-1.071022	0.374509
C35	C	1.141024	-0.948415	0.376205
C36	C	1.255504	-0.510692	0.354628
C37	C	1.337303	-0.510700	0.354637
C38	C	1.063596	-0.510600	0.546559
C39	C	1.063615	-0.510568	0.628358
C40	C	1.063625	-0.234167	0.354633
C41	C	1.063657	-0.116337	0.354644
C42	C	1.063549	-0.510669	0.163400
C43	C	1.063672	-0.510401	0.081602
C44	C	1.110720	-0.442707	0.816565
C45	C	1.110728	-0.442676	0.893424
C46	C	1.016563	-0.578266	0.893389
C47	C	1.016551	-0.578290	0.816532
C48	C	1.063634	-0.510513	0.778122
C49	C	1.063654	-0.510457	0.931838
C50	C	1.063663	-0.510424	1.015172
C51	C	1.063624	-0.510544	0.694783
H52	H	0.494187	-0.387531	0.269379
H53	H	0.978232	-0.633450	0.924672
H54	H	0.494229	-0.633842	0.439871
H55	H	1.149055	-0.387515	0.785294
C56	C	0.644614	-0.368122	0.255931
C57	C	0.602340	-0.293462	0.204244
C58	C	0.644607	-0.218794	0.152552
C59	C	0.729147	-0.218786	0.152548
C60	C	0.771425	-0.293450	0.204237
C61	C	0.729159	-0.368118	0.255929
H62	H	0.539754	-0.293465	0.204245
H63	H	0.613309	-0.163523	0.114289
H64	H	0.760435	-0.163513	0.114283
H65	H	0.834011	-0.293447	0.204236
H66	H	0.760456	-0.423388	0.294193
H67	H	1.019766	-0.918802	0.468979
C68	C	0.644644	-0.653228	0.453282
C69	C	0.697453	-0.736398	0.421298
C70	C	0.739730	-0.811062	0.472986
C71	C	0.729199	-0.802555	0.556658
C72	C	0.676388	-0.719381	0.588646
C73	C	0.634111	-0.644717	0.536958
H74	H	0.705251	-0.742699	0.359355
H75	H	0.778825	-0.872633	0.449306
H76	H	0.760496	-0.857826	0.594920
H77	H	0.668590	-0.713081	0.650589
H78	H	0.595016	-0.583146	0.560638
C79	C	1.162527	-0.368091	0.935711
C80	C	1.220299	-0.414012	0.988557
C81	C	1.272099	-0.339422	1.030843
C82	C	1.266127	-0.218912	1.020283
C83	C	1.208351	-0.172986	0.967435
C84	C	1.156551	-0.247575	0.925149
H85	H	1.224723	-0.503226	0.996376
H86	H	1.314868	-0.373420	1.069965
H87	H	1.304472	-0.163696	1.051586
H88	H	1.203928	-0.083772	0.959616
H89	H	1.113783	-0.213577	0.886027
H90	H	1.185520	-0.917762	0.337706
H91	H	0.978203	-0.633505	0.785230
H92	H	1.019935	-1.100928	0.469351
C93	C	0.929444	-1.113256	0.394104
C94	C	0.893884	-1.088837	0.319301
C95	C	0.816408	-1.130584	0.301749
C96	C	0.774494	-1.196751	0.359000
C97	C	0.810054	-1.221173	0.433808
C98	C	0.887529	-1.179425	0.451360
H99	H	0.924912	-1.039853	0.276915
H100	H	0.790085	-1.112505	0.246370
H101	H	0.717142	-1.227655	0.346007
H102	H	0.779026	-1.270156	0.476194
H103	H	0.913853	-1.197505	0.506739
C104	C	1.096598	-0.909130	0.218101
C105	C	1.160579	-0.835839	0.239748
C106	C	1.214630	-0.796445	0.180793
C107	C	1.204698	-0.830341	0.100189
C108	C	1.140714	-0.903636	0.078538
C109	C	1.086664	-0.943030	0.137493
H110	H	1.167934	-0.810744	0.299419
H111	H	1.261995	-0.742187	0.196821
H112	H	1.244709	-0.801179	0.056547
H113	H	1.133360	-0.928731	0.018867
H114	H	1.039299	-0.997288	0.121465
H115	H	1.081734	-1.100776	0.233479
H116	H	0.948921	-0.919719	0.398309
C117	C	0.966472	-0.907185	0.253911
C118	C	0.958281	-0.840909	0.183479
C119	C	0.882203	-0.799574	0.160337
C120	C	0.814315	-0.824513	0.207628
C121	C	0.822503	-0.890792	0.278064
C122	C	0.898582	-0.932128	0.301206
H123	H	1.008538	-0.822445	0.148468
H124	H	0.876141	-0.750510	0.108196
H125	H	0.757997	-0.793914	0.190497
H126	H	0.772247	-0.909257	0.313075
H127	H	0.904643	-0.981192	0.353348
C128	C	1.167376	-1.112681	0.449615
C129	C	1.238694	-1.177526	0.455297
C130	C	1.264559	-1.219185	0.530406
C131	C	1.219105	-1.196000	0.599834
C132	C	1.147782	-1.131151	0.594154
C133	C	1.121918	-1.089492	0.519045
H134	H	1.272346	-1.194692	0.403901
H135	H	1.317357	-1.267190	0.534610
H136	H	1.238252	-1.226838	0.655434
H137	H	1.114131	-1.113985	0.645551
H138	H	1.069120	-1.041487	0.514841
C139	C	1.162417	-0.909043	0.453314
C140	C	1.236421	-0.941871	0.487243
C141	C	1.257810	-0.902497	0.564354
C142	C	1.205196	-0.830294	0.607538
C143	C	1.131187	-0.797461	0.573610
C144	C	1.109798	-0.836836	0.496498
H145	H	1.275374	-0.995323	0.455275
H146	H	1.312597	-0.926802	0.589470
H147	H	1.221029	-0.801146	0.664620
H148	H	1.092235	-0.744009	0.605577
H149	H	1.055012	-0.812531	0.471383
C150	C	1.198610	-1.110180	0.318422
C151	C	1.242038	-1.029974	0.271959
C152	C	1.299139	-1.069139	0.215871
C153	C	1.312813	-1.188510	0.206246
C154	C	1.269384	-1.268724	0.252710
C155	C	1.212282	-1.229559	0.308798
H156	H	1.231917	-0.941601	0.279083
H157	H	1.331288	-1.009758	0.181475
H158	H	1.355083	-1.217502	0.164726
H159	H	1.279505	-1.357096	0.245586
H160	H	1.180133	-1.288939	0.343194
H161	H	0.985298	-1.099813	0.260576
