data_functionalizedCrystal
_audit_creation_method	'MofGen! by Chris Wilmer'
_symmetry_space_group_name_H-M	'P1'
_symmetry_Int_Tables_number	1
_symmetry_cell_setting	triclinic
loop_
_symmetry_equiv_pos_as_xyz
  x,y,z
_cell_length_a	17.699083
_cell_length_b	23.532407
_cell_length_c	16.176319
_cell_angle_alpha	89.988536
_cell_angle_beta	89.998611
_cell_angle_gamma	83.065847
loop_
_atom_site_label
_atom_site_type_symbol
_atom_site_fract_x
_atom_site_fract_y
_atom_site_fract_z
O1	O	1.003713	0.072020	-0.068639
O2	O	0.783287	0.081390	-0.068667
O3	O	0.900147	-0.006208	-0.068637
O4	O	0.886853	0.159618	-0.068669
O5	O	0.900131	-0.006213	0.068856
O6	O	0.783271	0.081384	0.068826
O7	O	1.003697	0.072014	0.068854
Cu8	Cu	0.893483	0.076699	0.081394
Cu9	Cu	0.893502	0.076705	-0.081207
O10	O	0.886837	0.159612	0.068824
C11	C	0.755084	0.081051	0.000076
C12	C	0.671071	0.080044	0.000066
C13	C	0.622189	0.131462	0.000056
C14	C	0.543251	0.130512	0.000067
C15	C	0.513196	0.078144	0.000082
C16	C	0.562084	0.026722	0.000094
C17	C	0.641021	0.027672	0.000089
C18	C	0.243740	0.022888	0.000115
C19	C	0.164797	0.021942	0.000117
C20	C	0.145970	0.125728	0.000093
C21	C	0.224907	0.126678	0.000088
C22	C	0.273788	0.075257	0.000105
C23	C	0.359382	0.076287	0.000094
C24	C	0.427603	0.077113	0.000086
C25	C	0.899801	-0.027427	0.000111
C26	C	0.898783	-0.090647	0.000118
C27	C	0.961554	-0.489570	0.000080
C28	C	0.960609	-0.548973	0.000074
O29	O	1.018799	-0.585550	0.000051
N30	N	0.891136	-0.571799	0.000066
C31	C	0.822604	-0.535218	0.000055
O32	O	0.763424	-0.560088	0.000047
C33	C	0.823550	-0.475816	0.000056
C34	C	0.893028	-0.452994	0.000073
C35	C	1.031026	-0.466747	0.000096
C36	C	1.031972	-0.407348	0.000104
C37	C	0.963445	-0.370772	0.000096
C38	C	0.893973	-0.393595	0.000080
C39	C	0.755019	-0.439237	0.000040
C40	C	0.755971	-0.379832	0.000039
C41	C	0.825448	-0.357009	0.000056
C42	C	0.826391	-0.297620	0.000081
N43	N	0.895864	-0.274795	0.000089
C44	C	0.964391	-0.311371	0.000097
C45	C	0.820622	-0.659966	0.000053
C46	C	0.819674	-0.719367	0.000058
C47	C	0.957680	-0.733118	0.000075
C48	C	0.958626	-0.673716	0.000076
C49	C	0.890095	-0.637141	0.000061
C50	C	0.966371	-0.186628	0.000114
C51	C	0.967310	-0.127223	0.000125
C52	C	0.829305	-0.113478	0.000104
C53	C	0.828365	-0.172877	0.000097
C54	C	0.896904	-0.209452	0.000099
O55	O	0.768232	-0.261008	0.000100
O56	O	1.023560	-0.286493	0.000094
C57	C	1.031901	0.072353	0.000109
C58	C	1.115914	0.073360	0.000114
C59	C	0.887184	0.180832	0.000073
C60	C	0.888202	0.244052	0.000062
N61	N	0.893475	0.076694	0.195759
N62	N	0.893516	0.076706	-0.195573
C63	C	0.945236	0.037921	0.239037
C64	C	0.945240	0.037921	0.325584
C65	C	0.893486	0.076696	0.368852
C66	C	0.841719	0.115470	0.325568
C67	C	0.841713	0.115467	0.239023
C68	C	0.841745	0.115481	0.674597
C69	C	0.841758	0.115481	0.761148
C70	C	0.945273	0.037934	0.761158
C71	C	0.945266	0.037932	0.674612
C72	C	0.893497	0.076704	0.631336
C73	C	0.893493	0.076703	0.537492
C74	C	0.893493	0.076700	0.462695
H75	H	0.140330	-0.020705	0.000130
H76	H	0.987383	0.006349	0.203814
N77	N	1.001109	-0.003886	0.807837
H78	H	0.972388	-0.029079	0.843756
H79	H	1.033882	-0.028408	0.767240
N80	N	1.104944	-0.506192	0.000105
H81	H	1.149090	-0.482711	0.000116
H82	H	1.107553	-0.531142	0.051079
H83	H	0.537607	-0.015917	0.000117
H84	H	1.013478	-0.762909	0.000079
N85	N	0.296456	-0.032571	0.000138
H86	H	0.265436	-0.065888	0.000147
H87	H	0.329621	-0.034441	-0.050830
N88	N	0.693747	-0.027785	0.000105
H89	H	0.662731	-0.061105	0.000115
H90	H	0.726910	-0.029652	-0.050864
H91	H	0.987387	0.006349	0.360820
H92	H	0.799595	0.147051	0.639368
H93	H	0.503454	0.172382	0.000058
H94	H	1.015201	-0.655139	0.000089
N95	N	0.744734	-0.743973	0.000059
H96	H	0.714738	-0.730617	-0.050911
H97	H	0.754584	-0.787151	0.000090
H98	H	0.764811	-0.630189	0.000048
H99	H	0.987411	0.006359	0.639386
H100	H	0.249373	0.169322	0.000072
H101	H	0.771791	-0.191460	0.000106
N102	N	1.042249	-0.102608	0.000148
H103	H	1.085515	-0.134796	0.000150
H104	H	1.045657	-0.078252	-0.050818
H105	H	0.698442	-0.457808	0.000021
N106	N	0.785930	0.157301	0.807819
H107	H	0.753131	0.181861	0.767272
H108	H	0.752649	0.135523	0.843740
N109	N	0.785892	0.157289	0.372231
H110	H	0.793751	0.151409	0.433625
H111	H	0.794325	0.197682	0.357087
H112	H	0.106161	0.167598	0.000084
N113	N	0.755396	-0.074023	0.000118
H114	H	0.766544	-0.032930	0.000128
H115	H	0.725096	-0.081386	-0.050854
N116	N	0.785884	0.157289	0.192348
H117	H	0.814607	0.182478	0.156425
H118	H	0.752549	0.135514	0.156503
H119	H	0.700163	-0.350054	0.000026
H120	H	0.646653	0.174106	0.000044
H121	H	1.022182	-0.216401	0.000113
H122	H	1.088547	-0.388773	0.000114
