data_functionalizedCrystal
_audit_creation_method	'MofGen! by Chris Wilmer'
_symmetry_space_group_name_H-M	'P1'
_symmetry_Int_Tables_number	1
_symmetry_cell_setting	triclinic
loop_
_symmetry_equiv_pos_as_xyz
  x,y,z
_cell_length_a	14.560438
_cell_length_b	14.560438
_cell_length_c	14.560438
_cell_angle_alpha	89.999809
_cell_angle_beta	59.999378
_cell_angle_gamma	60.001909
loop_
_atom_site_label
_atom_site_type_symbol
_atom_site_fract_x
_atom_site_fract_y
_atom_site_fract_z
Zr1	Zr	1.005277	-0.120522	0.884759
O2	O	1.196874	-0.267162	0.738112
O3	O	0.813677	-0.075572	0.929714
O4	O	1.005275	-0.267169	0.929714
O5	O	1.005280	0.075574	0.738113
O6	O	1.005275	-0.267172	1.080853
O7	O	1.005277	-0.075565	0.738113
O8	O	0.662542	0.075561	1.080854
O9	O	1.348012	-0.267159	0.738112
O10	O	0.892486	-0.056400	1.061681
O11	O	0.892488	0.056395	0.948888
O12	O	1.118069	-0.169187	0.948887
O13	O	1.118070	-0.056392	0.836095
Zr14	Zr	1.005282	0.120521	1.125810
Zr15	Zr	1.005278	-0.120527	1.125809
Zr16	Zr	1.005281	0.120526	0.884761
Zr17	Zr	1.246325	-0.120518	0.884760
Zr18	Zr	0.764234	0.120517	1.125810
O19	O	1.196882	0.075571	1.080855
O20	O	1.196876	-0.267169	1.080853
O21	O	1.196880	0.075577	0.738114
O22	O	0.813685	0.267161	1.272458
O23	O	0.813679	-0.075578	1.272456
O24	O	0.813683	0.267167	0.929716
O25	O	1.005279	-0.075575	1.272456
O26	O	1.005284	0.267168	1.080856
O27	O	1.005284	0.267171	0.929717
O28	O	1.005282	0.075563	1.272457
O29	O	1.348013	-0.267163	0.929714
O30	O	0.662546	0.267162	1.080855
O31	O	0.662547	0.267158	1.272457
O32	O	0.662543	0.075557	1.272456
O33	O	1.348016	-0.075558	0.738113
O34	O	1.348017	-0.075562	0.929715
O35	O	0.892490	0.169185	1.061682
O36	O	0.892489	0.056390	1.174475
O37	O	1.118071	-0.056396	1.061681
O38	O	1.118073	0.056399	0.948889
C39	C	0.703766	-0.000006	1.005284
C40	C	0.601435	-0.000008	1.005284
C41	C	1.005278	0.000005	0.703769
C42	C	1.005278	0.000007	0.601437
C43	C	1.005285	0.301514	1.005286
C44	C	1.005286	0.403845	1.005287
C45	C	0.553358	-0.058886	1.064158
C46	C	0.457199	-0.058876	1.064163
C47	C	0.457205	0.058892	0.946409
C48	C	0.553356	0.058888	0.946412
C49	C	1.306793	0.000005	1.005285
C50	C	1.409124	0.000007	1.005286
C51	C	1.005274	-0.301515	1.005283
C52	C	1.005273	-0.403846	1.005283
C53	C	1.123036	0.393050	0.946411
C54	C	1.123030	0.489205	0.946406
C55	C	0.887514	0.606947	1.064160
C56	C	0.887521	0.510793	1.064158
C57	C	1.005283	0.083260	0.457198
C58	C	1.005276	0.083271	0.553353
C59	C	1.005272	-0.083266	0.553367
C60	C	1.005270	-0.083271	0.457218
C61	C	1.005281	-0.000006	1.306801
C62	C	1.005281	-0.000008	1.409133
C63	C	0.703767	-0.000012	1.306800
C64	C	0.601437	-0.000016	1.409132
C65	C	0.703771	0.301508	1.005286
C66	C	0.601441	0.403837	1.005286
C67	C	0.703772	0.301502	1.306802
C68	C	0.601443	0.403830	1.409134
C69	C	1.306787	-0.301503	0.703768
C70	C	1.409116	-0.403831	0.601435
C71	C	1.306792	0.000011	0.703769
C72	C	1.409122	0.000015	0.601438
C73	C	1.306788	-0.301509	1.005284
C74	C	1.409118	-0.403839	1.005283
C75	C	0.553358	-0.058891	1.398333
C76	C	0.457215	-0.058898	1.494489
C77	C	0.457235	0.058853	1.612238
C78	C	0.553382	0.058853	1.516084
C79	C	0.553366	0.510787	1.064163
C80	C	0.457226	0.606933	1.064150
C81	C	0.457241	0.489164	0.946383
C82	C	0.553386	0.393022	0.946390
C83	C	0.553366	0.393028	1.516087
C84	C	0.457226	0.489180	1.612235
C85	C	0.457245	0.606930	1.494464
C86	C	0.553390	0.510780	1.398318
H87	H	0.592499	-0.106841	1.112097
H88	H	0.592495	0.519600	1.112115
F89	F	0.406086	0.477665	0.883708
F90	F	1.005265	-0.171878	0.604546
F91	F	0.406064	0.477676	1.726061
F92	F	0.406093	0.720759	1.482965
F93	F	0.604511	0.279206	1.527602
H94	H	0.791634	0.694033	1.112093
F95	F	1.005261	-0.171897	0.406063
H96	H	0.592538	0.519583	1.311227
F97	F	0.406038	-0.121544	1.126823
H98	H	0.418096	0.106783	1.699328
F99	F	0.406023	0.121575	0.883763
H100	H	0.592499	0.106838	0.898469
H101	H	1.218928	0.305972	0.898472
F102	F	1.248355	0.477708	0.883732
H103	H	0.418075	-0.106842	1.485686
H104	H	0.418089	0.694013	1.112091
H105	H	0.592532	0.305932	0.898440
H106	H	0.791630	0.519591	1.112102
F107	F	1.005273	0.171898	0.604507
F108	F	1.005290	0.171878	0.406029
F109	F	0.604502	-0.121549	1.284510
F110	F	0.604559	0.121514	1.527581
