data_functionalizedCrystal
_audit_creation_method	'MofGen! by Chris Wilmer'
_symmetry_space_group_name_H-M	'P1'
_symmetry_Int_Tables_number	1
_symmetry_cell_setting	triclinic
loop_
_symmetry_equiv_pos_as_xyz
  x,y,z
_cell_length_a	17.077404
_cell_length_b	21.295417
_cell_length_c	17.077396
_cell_angle_alpha	90.033192
_cell_angle_beta	90.019501
_cell_angle_gamma	90.030732
loop_
_atom_site_label
_atom_site_type_symbol
_atom_site_fract_x
_atom_site_fract_y
_atom_site_fract_z
Zn1	Zn	1.200013	-0.250605	0.443817
Zn2	Zn	1.199903	-0.355878	0.312540
Zn3	Zn	1.068745	-0.250628	0.312565
Zn4	Zn	1.068695	-0.355841	0.443764
O5	O	1.134339	-0.303238	0.378171
O6	O	1.309845	-0.264577	0.426415
O7	O	1.182479	-0.341942	0.202697
O8	O	1.086225	-0.162535	0.330008
O9	O	1.309764	-0.341920	0.329966
O10	O	1.182667	-0.162519	0.426439
O11	O	1.086118	-0.264614	0.202715
O12	O	0.958891	-0.264578	0.329957
O13	O	1.086140	-0.341857	0.553618
O14	O	0.958855	-0.341878	0.426348
O15	O	1.182619	-0.264540	0.553657
O16	O	1.182431	-0.443963	0.329915
O17	O	1.086033	-0.443935	0.426324
C18	C	0.930391	-0.303227	0.378150
C19	C	0.843141	-0.303237	0.378159
C20	C	0.802153	-0.343548	0.428270
C21	C	0.720172	-0.343549	0.428282
C22	C	0.679182	-0.303242	0.378180
C23	C	0.720176	-0.262927	0.328067
C24	C	0.802155	-0.262923	0.328059
C25	C	0.549306	-0.262940	0.328086
C26	C	0.467322	-0.262944	0.328093
C27	C	0.467323	-0.343566	0.428309
C28	C	0.549302	-0.343562	0.428301
C29	C	0.590291	-0.303247	0.378187
C30	C	1.134236	-0.466790	0.378128
C31	C	1.134264	-0.536758	0.378136
C32	C	1.184503	-0.569618	0.327987
C33	C	1.184539	-0.635360	0.328004
C34	C	1.134323	-0.668240	0.378163
C35	C	1.084081	-0.635372	0.428321
C36	C	1.084051	-0.569631	0.428308
N37	N	1.065655	-0.771506	0.384140
N38	N	1.065685	-0.833958	0.384148
C39	C	1.134411	-0.866315	0.378208
N40	N	1.203107	-0.833862	0.372244
N41	N	1.203076	-0.771405	0.372231
C42	C	1.134351	-0.739526	0.378183
C43	C	1.184694	-0.970461	0.328075
C44	C	1.184732	-1.036204	0.328098
C45	C	1.084267	-1.036215	0.428411
C46	C	1.084236	-0.970473	0.428392
C47	C	1.134449	-0.937599	0.378220
C48	C	1.339083	-0.303250	0.378194
C49	C	1.426333	-0.303255	0.378203
C50	C	1.134386	-0.303192	0.582916
C51	C	1.134407	-0.303172	0.670166
C52	C	1.134464	-0.139048	0.378232
C53	C	1.134517	-0.069080	0.378258
C54	C	1.134337	-0.303239	0.174224
C55	C	1.134469	-0.303081	0.086974
C56	C	1.184645	-0.262910	0.711177
C57	C	1.184654	-0.262889	0.793158
C58	C	1.134429	-0.303134	0.834125
C59	C	1.084185	-0.343397	0.793108
C60	C	1.084172	-0.343415	0.711129
C61	C	1.084217	-0.343360	0.963978
C62	C	1.084231	-0.343343	1.045963
C63	C	1.184699	-0.262834	1.046007
C64	C	1.184686	-0.262851	0.964028
C65	C	1.134443	-0.303116	0.923016
H66	H	0.433949	-0.230115	0.287304
H67	H	0.582674	-0.376386	0.469094
F68	F	0.676549	-0.220026	0.274749
H69	H	0.686803	-0.376375	0.469086
H70	H	1.225565	-0.230105	0.826546
F71	F	1.238172	-0.219981	1.089656
H72	H	1.225588	-0.230084	0.930675
F73	F	1.030741	-0.386213	0.920332
H74	H	1.043288	-0.376163	0.826470
F75	F	1.237952	-0.534635	0.274597
F76	F	1.030641	-0.670366	0.481706
F77	F	1.238012	-0.670340	0.274626
H78	H	1.043331	-0.376113	1.079316
F79	F	1.030578	-0.534658	0.481686
F80	F	1.238212	-1.071176	0.274725
F81	F	0.845771	-0.386452	0.481593
F82	F	0.423700	-0.386465	0.481653
F83	F	1.030700	-0.386265	0.667481
F84	F	1.238133	-0.935472	0.274678
F85	F	0.592927	-0.220031	0.274750
H86	H	0.835527	-0.230095	0.287258
H87	H	1.043384	-1.062985	0.469255
H88	H	1.043324	-0.943716	0.469225
H89	H	1.225547	-0.230140	0.677828
