data_functionalizedCrystal
_audit_creation_method	'MofGen! by Chris Wilmer'
_symmetry_space_group_name_H-M	'P1'
_symmetry_Int_Tables_number	1
_symmetry_cell_setting	triclinic
loop_
_symmetry_equiv_pos_as_xyz
  x,y,z
_cell_length_a	8.634740
_cell_length_b	8.559649
_cell_length_c	7.088929
_cell_angle_alpha	84.674985
_cell_angle_beta	82.809885
_cell_angle_gamma	94.825514
loop_
_atom_site_label
_atom_site_type_symbol
_atom_site_fract_x
_atom_site_fract_y
_atom_site_fract_z
O1	O	-0.033904	-2.098509	-0.158958
O2	O	0.044308	-1.645345	-0.158965
O3	O	-0.216734	-1.850476	-0.158959
O4	O	0.227138	-1.893378	-0.158964
O5	O	-0.251690	-1.877879	0.159017
O6	O	0.009352	-1.672748	0.159011
O7	O	-0.068860	-2.125912	0.159018
Cu8	Cu	-0.032945	-1.901832	0.188048
Cu9	Cu	0.008394	-1.869425	-0.187995
O10	O	0.192182	-1.920781	0.159012
C11	C	0.032757	-1.600429	0.000022
C12	C	0.050400	-1.425765	0.000019
C13	C	-0.290511	-1.854458	0.000026
C14	C	-0.458261	-1.825479	0.000016
C15	C	-0.057308	-2.170827	0.000027
C16	C	-0.074950	-2.345490	0.000018
C17	C	0.265959	-1.916798	0.000023
C18	C	0.433711	-1.945776	0.000020
N19	N	-0.062024	-1.924636	0.452537
N20	N	0.037459	-1.846631	-0.452484
H21	H	-0.494108	-1.700318	0.000006
O22	O	-0.185066	-2.021212	0.549643
C23	C	-0.272882	-2.090008	0.418569
H24	H	-0.195447	-2.089203	0.275829
H25	H	-0.317254	-2.216700	0.476527
H26	H	-0.376953	-2.019755	0.397360
O27	O	-0.523272	-2.095014	0.000102
C28	C	-0.359736	-2.091702	0.000043
H29	H	-0.314899	-1.980086	0.060240
H30	H	-0.332192	-2.199473	0.092357
H31	H	-0.299878	-2.092869	-0.152509
H32	H	-0.195764	-1.410387	0.000010
O33	O	0.194423	-1.348110	0.000094
C34	C	0.180582	-1.185150	0.000034
H35	H	0.055716	-1.165892	0.060236
H36	H	0.266196	-1.132235	0.092342
H37	H	0.208642	-1.125549	-0.152519
H38	H	0.140552	-1.765785	0.465867
