data_functionalizedCrystal
_audit_creation_method	'MofGen! by Chris Wilmer'
_symmetry_space_group_name_H-M	'P1'
_symmetry_Int_Tables_number	1
_symmetry_cell_setting	triclinic
loop_
_symmetry_equiv_pos_as_xyz
  x,y,z
_cell_length_a	10.489741
_cell_length_b	11.792241
_cell_length_c	10.268362
_cell_angle_alpha	90.000374
_cell_angle_beta	89.995004
_cell_angle_gamma	95.633705
loop_
_atom_site_label
_atom_site_type_symbol
_atom_site_fract_x
_atom_site_fract_y
_atom_site_fract_z
O1	O	0.174833	-1.507380	-0.108173
O2	O	0.192851	-1.177088	-0.108203
O3	O	-0.001782	-1.349750	-0.108180
O4	O	0.369465	-1.334719	-0.108197
O5	O	-0.001790	-1.349735	0.108421
O6	O	0.192843	-1.177073	0.108397
O7	O	0.174825	-1.507365	0.108428
Cu8	Cu	0.183833	-1.342218	0.128190
Cu9	Cu	0.183843	-1.342236	-0.127965
O10	O	0.369457	-1.334703	0.108404
C11	C	0.191715	-1.134786	0.000093
C12	C	0.188327	-1.008764	0.000082
C13	C	-0.049314	-1.348607	0.000120
C14	C	-0.190931	-1.345210	0.000117
C15	C	0.175960	-1.549667	0.000128
C16	C	0.179348	-1.675690	0.000131
C17	C	-0.258697	-1.235351	0.000098
C18	C	-0.351001	-1.287240	0.106898
C19	C	-0.350967	-1.287281	-0.106654
C20	C	-0.281370	-1.397145	0.107005
C21	C	-0.281327	-1.397171	-0.106642
C22	C	-0.373603	-1.449140	0.000184
C23	C	0.416989	-1.335846	0.000102
C24	C	0.558607	-1.339243	0.000096
N25	N	0.183825	-1.342213	0.308356
C26	C	0.182098	-0.778035	0.000120
C27	C	0.185559	-0.906429	0.000099
N28	N	0.183840	-1.342249	-0.308131
C29	C	0.183840	-1.342230	0.574026
C30	C	0.183836	-1.342217	0.426188
H31	H	-0.208738	-1.145025	0.000197
H32	H	-0.381857	-1.240749	0.197181
O33	O	-0.244654	-1.452653	0.214712
C34	C	-0.183200	-1.548459	0.176615
H35	H	-0.144177	-1.535132	0.073551
H36	H	-0.254843	-1.627648	0.179192
C37	C	-0.119937	-1.580515	0.397328
C38	C	-0.071998	-1.564141	0.270746
H39	H	-0.051346	-1.590193	0.455394
H40	H	-0.161343	-1.515971	0.422996
H41	H	-0.179639	-1.646504	0.399457
H42	H	-0.012310	-1.498146	0.268615
H43	H	-0.030579	-1.628675	0.245079
O44	O	-0.432888	-1.557010	0.000490
C45	C	-0.397374	-1.614489	0.113225
H46	H	-0.364558	-1.549591	0.191564
H47	H	-0.315785	-1.668000	0.088771
C48	C	-0.553426	-1.772366	0.067365
C49	C	-0.513132	-1.692657	0.163586
H50	H	-0.624828	-1.820588	0.098428
H51	H	-0.577350	-1.733644	-0.008590
H52	H	-0.485425	-1.816947	0.046995
H53	H	-0.581127	-1.648068	0.183942
H54	H	-0.489222	-1.731373	0.239546
O55	O	-0.387907	-1.231974	-0.214412
C56	C	-0.472242	-1.306506	-0.288922
H57	H	-0.518789	-1.377032	-0.223646
H58	H	-0.416548	-1.345671	-0.369947
C59	C	-0.519549	-1.153128	-0.429214
C60	C	-0.576728	-1.239743	-0.349038
H61	H	-0.583998	-1.111946	-0.466301
H62	H	-0.462727	-1.102914	-0.379018
H63	H	-0.473139	-1.185778	-0.496724
H64	H	-0.623123	-1.207092	-0.281520
H65	H	-0.633560	-1.289951	-0.399224
O66	O	-0.244250	-1.452602	-0.214250
C67	C	-0.110271	-1.455901	-0.212105
H68	H	-0.074248	-1.446031	-0.107588
H69	H	-0.062835	-1.383435	-0.274112
C70	C	-0.120900	-1.582850	-0.395555
C71	C	-0.076658	-1.570738	-0.267184
H72	H	-0.100164	-1.653684	-0.429536
H73	H	-0.211164	-1.580625	-0.397005
H74	H	-0.081366	-1.522455	-0.447212
H75	H	-0.116204	-1.631124	-0.215527
H76	H	0.013601	-1.572976	-0.265727
