data_functionalizedCrystal
_audit_creation_method	'MofGen! by Chris Wilmer'
_symmetry_space_group_name_H-M	'P1'
_symmetry_Int_Tables_number	1
_symmetry_cell_setting	triclinic
loop_
_symmetry_equiv_pos_as_xyz
  x,y,z
_cell_length_a	18.101398
_cell_length_b	21.295417
_cell_length_c	18.101389
_cell_angle_alpha	89.977434
_cell_angle_beta	89.975673
_cell_angle_gamma	90.025773
loop_
_atom_site_label
_atom_site_type_symbol
_atom_site_fract_x
_atom_site_fract_y
_atom_site_fract_z
Zn1	Zn	1.132124	-0.250755	-0.418817
Zn2	Zn	1.465457	0.082579	-0.085484
Zn3	Zn	1.798791	0.415912	0.247849
Zn4	Zn	1.132021	-0.356008	-0.294967
Zn5	Zn	1.465355	-0.022675	0.038366
Zn6	Zn	1.798688	0.310658	0.371700
Zn7	Zn	1.008283	-0.250748	-0.294979
Zn8	Zn	1.341616	0.082585	0.038355
Zn9	Zn	1.674950	0.415919	0.371688
Zn10	Zn	1.008235	-0.355981	-0.418755
Zn11	Zn	1.341568	-0.022648	-0.085422
Zn12	Zn	1.674902	0.310685	0.247911
O13	O	1.070166	-0.303373	-0.356880
O14	O	1.403499	0.029960	-0.023546
O15	O	1.736832	0.363294	0.309787
O16	O	1.235743	-0.264731	-0.402409
O17	O	1.569077	0.068603	-0.069076
O18	O	1.902410	0.401936	0.264257
O19	O	1.115584	-0.342054	-0.191335
O20	O	1.448917	-0.008720	0.141998
O21	O	1.782251	0.324613	0.475331
O22	O	1.024774	-0.162660	-0.311437
O23	O	1.358107	0.170674	0.021897
O24	O	1.691441	0.504007	0.355230
O25	O	1.235668	-0.342060	-0.311417
O26	O	1.569001	-0.008727	0.021916
O27	O	1.902334	0.324607	0.355250
O28	O	1.115759	-0.162664	-0.402421
O29	O	1.449093	0.170669	-0.069087
O30	O	1.782426	0.504002	0.264246
O31	O	1.024674	-0.264720	-0.191344
O32	O	1.358008	0.068614	0.141989
O33	O	1.691341	0.401947	0.475323
O34	O	0.904644	-0.264694	-0.311377
O35	O	1.237977	0.068640	0.021957
O36	O	1.571310	0.401973	0.355290
O37	O	1.024692	-0.342014	-0.522397
O38	O	1.358025	-0.008681	-0.189063
O39	O	1.691359	0.324652	0.144270
O40	O	0.904609	-0.342008	-0.402315
O41	O	1.237942	-0.008675	-0.068982
O42	O	1.571275	0.324659	0.264352
O43	O	1.115713	-0.264705	-0.522442
O44	O	1.449046	0.068629	-0.189109
O45	O	1.782380	0.401962	0.144225
O46	O	1.115538	-0.444094	-0.311357
O47	O	1.448871	-0.110761	0.021976
O48	O	1.782204	0.222573	0.355310
O49	O	1.024592	-0.444074	-0.402304
O50	O	1.357926	-0.110741	-0.068971
O51	O	1.691259	0.222592	0.264363
C52	C	0.877755	-0.303348	-0.356841
C53	C	1.211089	0.029986	-0.023508
C54	C	1.544422	0.363319	0.309826
C55	C	0.795441	-0.303352	-0.356842
C56	C	1.128775	0.029982	-0.023509
C57	C	1.462108	0.363315	0.309825
C58	C	0.496350	-0.303391	-0.356904
C59	C	0.829684	0.029942	-0.023571
C60	C	1.163017	0.363276	0.309762
C61	C	0.527673	-0.254504	-0.299967
C62	C	0.861006	0.078829	0.033366
C63	C	1.194340	0.412163	0.366699
C64	C	0.613291	-0.254635	-0.299724
C65	C	0.946624	0.078698	0.033609
C66	C	1.279958	0.412032	0.366942
C67	C	0.644733	-0.303371	-0.356873
C68	C	0.978066	0.029962	-0.023540
C69	C	1.311399	0.363296	0.309793
C70	C	0.613615	-0.369679	-0.335543
C71	C	0.946949	-0.036346	-0.002210
C72	C	1.280282	0.296988	0.331124
C73	C	0.527970	-0.369407	-0.335147
C74	C	0.861304	-0.036074	-0.001814
C75	C	1.194637	0.297259	0.331519
C76	C	0.527965	-0.286547	-0.435305
C77	C	0.861298	0.046786	-0.101972
C78	C	1.194631	0.380120	0.231362
C79	C	0.613615	-0.285070	-0.434877
C80	C	0.946949	0.048263	-0.101544
C81	C	1.280282	0.381597	0.231789
C82	C	0.728592	-0.303364	-0.356857
C83	C	1.061926	0.029970	-0.023524
C84	C	1.395259	0.363303	0.309810
C85	C	0.412491	-0.303403	-0.356919
C86	C	0.745824	0.029931	-0.023585
C87	C	1.079157	0.363264	0.309748
C88	C	1.070069	-0.466925	-0.356839
C89	C	1.403402	-0.133591	-0.023505
C90	C	1.736735	0.199742	0.309828
C91	C	1.070095	-0.536893	-0.356846
C92	C	1.403428	-0.203559	-0.023512
C93	C	1.736762	0.129774	0.309821
C94	C	1.117492	-0.569749	-0.309538
C95	C	1.450826	-0.236416	0.023795
C96	C	1.784159	0.096918	0.357128
C97	C	1.117527	-0.635491	-0.309555
C98	C	1.450860	-0.302158	0.023778
C99	C	1.784194	0.031175	0.357112
C100	C	1.070151	-0.668375	-0.356871
C101	C	1.403484	-0.335042	-0.023538
C102	C	1.736818	-0.001709	0.309795
C103	C	1.022751	-0.635511	-0.404188
C104	C	1.356084	-0.302178	-0.070855
C105	C	1.689417	0.031155	0.262479
C106	C	1.022722	-0.569770	-0.404175
C107	C	1.356056	-0.236437	-0.070842
C108	C	1.689389	0.096897	0.262491
N109	N	1.005367	-0.771637	-0.362504
N110	N	1.338700	-0.438304	-0.029171
N111	N	1.672034	-0.104971	0.304163
N112	N	1.005396	-0.834089	-0.362512
N113	N	1.338729	-0.500755	-0.029178
N114	N	1.672062	-0.167422	0.304155
C115	C	1.070234	-0.866450	-0.356914
C116	C	1.403567	-0.533117	-0.023580
C117	C	1.736901	-0.199783	0.309753
N118	N	1.135044	-0.834001	-0.351293
N119	N	1.468377	-0.500667	-0.017960
N120	N	1.801711	-0.167334	0.315374
N121	N	1.135014	-0.771543	-0.351282
N122	N	1.468348	-0.438210	-0.017948
N123	N	1.801681	-0.104877	0.315385
C124	C	1.070177	-0.739661	-0.356891
C125	C	1.403510	-0.406327	-0.023557
C126	C	1.736843	-0.072994	0.309776
C127	C	1.117673	-0.970592	-0.309622
C128	C	1.451006	-0.637258	0.023712
C129	C	1.784340	-0.303925	0.357045
C130	C	1.117709	-1.036335	-0.309644
C131	C	1.451042	-0.703002	0.023690
C132	C	1.784376	-0.369669	0.357023
C133	C	1.022926	-1.036354	-0.404273
C134	C	1.356259	-0.703021	-0.070940
C135	C	1.689593	-0.369687	0.262394
C136	C	1.022897	-0.970612	-0.404255
C137	C	1.356230	-0.637278	-0.070922
C138	C	1.689563	-0.303945	0.262412
C139	C	1.070269	-0.937734	-0.356925
C140	C	1.403602	-0.604401	-0.023592
C141	C	1.736936	-0.271068	0.309741
C142	C	1.263328	-0.303399	-0.356919
C143	C	1.596661	0.029934	-0.023585
C144	C	1.929994	0.363267	0.309748
C145	C	1.345642	-0.303410	-0.356935
C146	C	1.678975	0.029923	-0.023602
C147	C	2.012308	0.363256	0.309731
C148	C	1.070209	-0.303357	-0.550042
C149	C	1.403542	0.029976	-0.216708
C150	C	1.736875	0.363310	0.116625
C151	C	1.070227	-0.303350	-0.632356
C152	C	1.403560	0.029983	-0.299022
C153	C	1.736894	0.363316	0.034311
C154	C	1.070283	-0.139183	-0.356937
C155	C	1.403617	0.194151	-0.023604
C156	C	1.736950	0.527484	0.309730
C157	C	1.070334	-0.069215	-0.356961
C158	C	1.403667	0.264119	-0.023628
C159	C	1.737000	0.597452	0.309705
C160	C	1.070270	-0.303232	-0.931447
C161	C	1.403603	0.030101	-0.598114
C162	C	1.736937	0.363434	-0.264780
C163	C	1.012805	-0.351719	-0.900093
C164	C	1.346138	-0.018385	-0.566760
C165	C	1.679472	0.314948	-0.233426
C166	C	1.012960	-0.351944	-0.814475
C167	C	1.346294	-0.018610	-0.481141
C168	C	1.679627	0.314723	-0.147808
C169	C	1.070248	-0.303291	-0.783064
C170	C	1.403581	0.030042	-0.449731
C171	C	1.736915	0.363376	-0.116398
C172	C	1.148274	-0.321303	-0.814168
C173	C	1.481607	0.012030	-0.480835
C174	C	1.814940	0.345364	-0.147502
C175	C	1.147953	-0.321621	-0.899813
C176	C	1.481287	0.011712	-0.566480
C177	C	1.814620	0.345045	-0.233147
C178	C	1.050388	-0.236626	-0.899877
C179	C	1.383721	0.096707	-0.566543
C180	C	1.717054	0.430041	-0.233210
C181	C	1.048652	-0.237011	-0.814226
C182	C	1.381985	0.096323	-0.480892
C183	C	1.715318	0.429656	-0.147559
C184	C	1.070240	-0.303323	-0.699205
C185	C	1.403574	0.030010	-0.365871
C186	C	1.736907	0.363344	-0.032538
C187	C	1.070283	-0.303202	-1.015306
C188	C	1.403616	0.030131	-0.681973
C189	C	1.736950	0.363465	-0.348640
C190	C	1.070166	-0.303344	-0.164469
C191	C	1.403499	0.029990	0.168864
C192	C	1.736832	0.363323	0.502198
C193	C	1.070291	-0.303173	-0.082155
C194	C	1.403624	0.030160	0.251178
C195	C	1.736958	0.363494	0.584511
H196	H	0.506124	-0.265512	-0.242211
H197	H	0.839457	0.067821	0.091122
H198	H	1.172790	0.401154	0.424455
C199	C	0.907073	-0.387865	-0.967924
C200	C	1.240406	-0.054532	-0.634591
C201	C	1.573740	0.278801	-0.301257
C202	C	0.934459	-0.336660	-0.927880
C203	C	1.267792	-0.003326	-0.594547
C204	C	1.601125	0.330007	-0.261213
H205	H	0.858703	-0.378568	-0.985079
H206	H	1.192036	-0.045235	-0.651745
H207	H	1.525369	0.288099	-0.318412
H208	H	0.938460	-0.395899	-1.008904
H209	H	1.271793	-0.062566	-0.675571
H210	H	1.605126	0.270767	-0.342238
H211	H	0.905473	-0.423854	-0.936940
H212	H	1.238806	-0.090521	-0.603606
H213	H	1.572140	0.242812	-0.270273
H214	H	0.936064	-0.300672	-0.958866
H215	H	1.269397	0.032662	-0.625533
H216	H	1.602730	0.365995	-0.292199
H217	H	0.903064	-0.328618	-0.886894
H218	H	1.236397	0.004715	-0.553560
H219	H	1.569730	0.338049	-0.220227
H220	H	0.507249	-0.407065	-0.374809
H221	H	0.840582	-0.073731	-0.041475
H222	H	1.173915	0.259602	0.291858
H223	H	0.633980	-0.407079	-0.375715
H224	H	0.967314	-0.073746	-0.042382
H225	H	1.300647	0.259588	0.290952
C226	C	1.241613	-0.401418	-0.900713
C227	C	1.574946	-0.068085	-0.567380
C228	C	1.908279	0.265248	-0.234046
C229	C	1.170704	-0.387352	-0.926784
C230	C	1.504037	-0.054019	-0.593450
C231	C	1.837371	0.279314	-0.260117
H232	H	1.255655	-0.442001	-0.917356
H233	H	1.588988	-0.108668	-0.584023
H234	H	1.922321	0.224666	-0.250689
H235	H	1.275672	-0.371171	-0.918858
H236	H	1.609005	-0.037838	-0.585524
H237	H	1.942338	0.295495	-0.252191
H238	H	1.241596	-0.400632	-0.848242
H239	H	1.574930	-0.067298	-0.514909
H240	H	1.908263	0.266035	-0.181576
H241	H	1.170722	-0.388135	-0.979255
H242	H	1.504055	-0.054801	-0.645921
H243	H	1.837388	0.278532	-0.312588
H244	H	1.136636	-0.417608	-0.908643
H245	H	1.469970	-0.084274	-0.575310
H246	H	1.803303	0.249059	-0.241976
H247	H	1.165420	-0.369476	-0.792722
H248	H	1.498753	-0.036143	-0.459389
H249	H	1.832087	0.297191	-0.126055
C250	C	1.243654	-0.248545	-0.867450
C251	C	1.576987	0.084789	-0.534117
C252	C	1.910321	0.418122	-0.200783
C253	C	1.207717	-0.276026	-0.927822
C254	C	1.541050	0.057308	-0.594489
C255	C	1.874384	0.390641	-0.261155
H256	H	1.280553	-0.220401	-0.884741
H257	H	1.613886	0.112932	-0.551407
H258	H	1.947220	0.446265	-0.218074
H259	H	1.208779	-0.226203	-0.838371
H260	H	1.542112	0.107131	-0.505038
H261	H	1.875445	0.440464	-0.171704
H262	H	1.266014	-0.280395	-0.838301
H263	H	1.599347	0.052938	-0.504968
H264	H	1.932680	0.386272	-0.171634
H265	H	1.185353	-0.244176	-0.956968
H266	H	1.518686	0.089158	-0.623635
H267	H	1.852020	0.422491	-0.290302
H268	H	1.242598	-0.298368	-0.956913
H269	H	1.575932	0.034965	-0.623580
H270	H	1.909265	0.368298	-0.290247
C271	C	0.613510	-0.311704	-0.563755
C272	C	0.946843	0.021630	-0.230421
C273	C	1.280177	0.354963	0.102912
C274	C	0.642512	-0.329631	-0.495222
C275	C	0.975846	0.003702	-0.161888
C276	C	1.309179	0.337035	0.171445
H277	H	0.631356	-0.339215	-0.601007
H278	H	0.964689	-0.005881	-0.267674
H279	H	1.298023	0.327452	0.065659
H280	H	0.561122	-0.313801	-0.562051
H281	H	0.894455	0.019533	-0.228718
H282	H	1.227788	0.352866	0.104616
H283	H	0.628396	-0.269939	-0.574689
H284	H	0.961729	0.063394	-0.241355
H285	H	1.295062	0.396728	0.091978
H286	H	0.627622	-0.371394	-0.484285
H287	H	0.960956	-0.038061	-0.150952
H288	H	1.294289	0.295272	0.182381
H289	H	0.694912	-0.327540	-0.496924
H290	H	1.028245	0.005793	-0.163591
H291	H	1.361579	0.339126	0.169742
C292	C	0.460036	-0.303635	-0.547420
C293	C	0.793369	0.029698	-0.214086
C294	C	1.126703	0.363032	0.119247
C295	C	0.500618	-0.334610	-0.492580
C296	C	0.833951	-0.001276	-0.159247
C297	C	1.167284	0.332057	0.174087
H298	H	0.443154	-0.333309	-0.582776
H299	H	0.776488	0.000025	-0.249442
H300	H	1.109821	0.333358	0.083891
H301	H	0.418857	-0.283162	-0.525580
H302	H	0.752190	0.050171	-0.192247
H303	H	1.085523	0.383505	0.141086
H304	H	0.490581	-0.273434	-0.571103
H305	H	0.823914	0.059900	-0.237770
H306	H	1.157248	0.393233	0.095564
H307	H	0.470071	-0.364808	-0.468893
H308	H	0.803404	-0.031475	-0.135559
H309	H	1.136737	0.301859	0.197774
H310	H	0.541803	-0.355093	-0.514421
H311	H	0.875136	-0.021759	-0.181088
H312	H	1.208469	0.311574	0.152245
C313	C	1.030939	-0.419119	-0.709457
C314	C	1.364272	-0.085786	-0.376124
C315	C	1.697605	0.247547	-0.042791
C316	C	1.030714	-0.418584	-0.786810
C317	C	1.364048	-0.085251	-0.453477
C318	C	1.697381	0.248082	-0.120143
H319	H	1.041897	-0.460264	-0.692381
H320	H	1.375230	-0.126930	-0.359047
H321	H	1.708564	0.206403	-0.025714
H322	H	1.067327	-0.390689	-0.691833
H323	H	1.400660	-0.057356	-0.358500
H324	H	1.733993	0.275978	-0.025166
H325	H	0.983739	-0.406778	-0.691700
H326	H	1.317072	-0.073445	-0.358367
H327	H	1.650405	0.259889	-0.025034
H328	H	1.077916	-0.430921	-0.804567
H329	H	1.411250	-0.097588	-0.471234
H330	H	1.744583	0.235745	-0.137900
H331	H	0.994324	-0.447025	-0.804442
H332	H	1.327658	-0.113691	-0.471109
H333	H	1.660991	0.219642	-0.137775
H334	H	0.984355	-1.063127	-0.442802
H335	H	1.317688	-0.729794	-0.109469
H336	H	1.651022	-0.396461	0.223865
H337	H	1.192239	-0.287098	-0.793825
H338	H	1.525572	0.046236	-0.460492
H339	H	1.858906	0.379569	-0.127159
C340	C	1.097408	-0.183551	-0.708138
C341	C	1.430741	0.149782	-0.374805
C342	C	1.764074	0.483115	-0.041471
C343	C	1.101036	-0.185654	-0.785369
C344	C	1.434370	0.147680	-0.452036
C345	C	1.767703	0.481013	-0.118702
H346	H	1.129757	-0.151850	-0.690325
H347	H	1.463091	0.181483	-0.356992
H348	H	1.796424	0.514817	-0.023659
H349	H	1.048275	-0.174314	-0.693265
H350	H	1.381608	0.159019	-0.359931
H351	H	1.714941	0.492352	-0.026598
H352	H	1.111743	-0.223063	-0.688448
H353	H	1.445076	0.110270	-0.355114
H354	H	1.778409	0.443604	-0.021781
H355	H	1.086696	-0.146143	-0.805060
H356	H	1.420029	0.187190	-0.471727
H357	H	1.753362	0.520524	-0.138393
H358	H	1.150180	-0.194887	-0.800249
H359	H	1.483513	0.138447	-0.466916
H360	H	1.816846	0.471780	-0.133583
C361	C	0.558406	-0.181636	-0.473288
C362	C	0.891739	0.151697	-0.139955
C363	C	1.225072	0.485030	0.193378
C364	C	0.498848	-0.222411	-0.461488
C365	C	0.832181	0.110923	-0.128155
C366	C	1.165514	0.444256	0.205178
H367	H	0.540428	-0.142042	-0.489451
H368	H	0.873761	0.191292	-0.156117
H369	H	1.207095	0.524625	0.177216
H370	H	0.585050	-0.176444	-0.428511
H371	H	0.918384	0.156889	-0.095178
H372	H	1.251717	0.490223	0.238156
H373	H	0.590124	-0.198768	-0.509917
H374	H	0.923458	0.134565	-0.176583
H375	H	1.256791	0.467899	0.156750
H376	H	0.467132	-0.205281	-0.424856
H377	H	0.800465	0.128052	-0.091523
H378	H	1.133798	0.461386	0.241811
H379	H	0.472191	-0.227602	-0.506271
H380	H	0.805524	0.105732	-0.172938
H381	H	1.138858	0.439065	0.160395
H382	H	0.955101	-0.340671	-0.793443
H383	H	1.288435	-0.007338	-0.460110
H384	H	1.621768	0.325995	-0.126776
H385	H	0.633745	-0.265769	-0.241630
H386	H	0.967078	0.067564	0.091703
H387	H	1.300411	0.400897	0.425036
H388	H	1.156067	-0.542982	-0.271002
H389	H	1.489401	-0.209649	0.062332
H390	H	1.822734	0.123685	0.395665
C391	C	0.977133	-0.210985	-1.006233
C392	C	1.310466	0.122349	-0.672900
C393	C	1.643800	0.455682	-0.339566
C394	C	0.974917	-0.214466	-0.929015
C395	C	1.308250	0.118867	-0.595682
C396	C	1.641583	0.452200	-0.262349
H397	H	0.930538	-0.197311	-1.024222
H398	H	1.263871	0.136023	-0.690889
H399	H	1.597205	0.469356	-0.357555
H400	H	1.014273	-0.182027	-1.020908
H401	H	1.347607	0.151306	-0.687575
H402	H	1.680940	0.484639	-0.354241
H403	H	0.988080	-0.251260	-1.025936
H404	H	1.321413	0.082074	-0.692603
H405	H	1.654746	0.415407	-0.359270
H406	H	0.963976	-0.174190	-0.909312
H407	H	1.297309	0.159143	-0.575979
H408	H	1.630642	0.492477	-0.242645
H409	H	0.937765	-0.243425	-0.914334
H410	H	1.271098	0.089908	-0.581000
H411	H	1.604431	0.423242	-0.247667
H412	H	0.634331	-0.205465	-0.313095
H413	H	0.967664	0.127869	0.020238
H414	H	1.300998	0.461202	0.353572
H415	H	1.025801	-0.400788	-0.921614
H416	H	1.359134	-0.067455	-0.588281
H417	H	1.692468	0.265879	-0.254948
C418	C	1.211197	-0.628876	-0.216001
C419	C	1.544530	-0.295543	0.117333
C420	C	1.877864	0.037790	0.450666
C421	C	1.169624	-0.671617	-0.257546
C422	C	1.502958	-0.338284	0.075788
C423	C	1.836291	-0.004950	0.409121
H424	H	1.243355	-0.651179	-0.183889
H425	H	1.576688	-0.317845	0.149444
H426	H	1.910021	0.015488	0.482777
H427	H	1.239501	-0.603204	-0.248286
H428	H	1.572834	-0.269870	0.085048
H429	H	1.906168	0.063463	0.418381
H430	H	1.178927	-0.603267	-0.187642
H431	H	1.512260	-0.269933	0.145692
H432	H	1.845593	0.063400	0.479025
H433	H	1.201894	-0.697223	-0.285909
H434	H	1.535228	-0.363890	0.047425
H435	H	1.868561	-0.030557	0.380758
H436	H	1.141318	-0.697300	-0.225256
H437	H	1.474651	-0.363967	0.108077
H438	H	1.807985	-0.030634	0.441410
C439	C	1.012343	-0.495798	-0.503766
C440	C	1.345677	-0.162465	-0.170433
C441	C	1.679010	0.170868	0.162901
C442	C	0.970617	-0.533651	-0.456177
C443	C	1.303950	-0.200318	-0.122844
C444	C	1.637284	0.133016	0.210489
H445	H	0.980173	-0.473503	-0.535872
H446	H	1.313507	-0.140170	-0.202538
H447	H	1.646840	0.193164	0.130795
H448	H	1.040545	-0.466811	-0.475580
H449	H	1.373878	-0.133477	-0.142247
H450	H	1.707212	0.199856	0.191087
H451	H	1.044602	-0.521414	-0.532130
H452	H	1.377936	-0.188081	-0.198796
H453	H	1.711269	0.145252	0.134537
H454	H	0.938362	-0.508035	-0.427810
H455	H	1.271695	-0.174701	-0.094476
H456	H	1.605028	0.158632	0.238857
H457	H	0.942403	-0.562642	-0.484366
H458	H	1.275736	-0.229309	-0.151033
H459	H	1.609070	0.104025	0.182300
C460	C	1.217260	-0.896590	-0.299415
C461	C	1.550593	-0.563257	0.033919
C462	C	1.883926	-0.229923	0.367252
C463	C	1.169749	-0.934448	-0.257605
C464	C	1.503083	-0.601114	0.075728
C465	C	1.836416	-0.267781	0.409061
H466	H	1.249406	-0.874276	-0.267300
H467	H	1.582739	-0.540943	0.066033
H468	H	1.916072	-0.207609	0.399367
H469	H	1.245577	-0.922199	-0.331710
H470	H	1.578911	-0.588866	0.001624
H471	H	1.912244	-0.255533	0.334957
H472	H	1.189014	-0.867612	-0.327580
H473	H	1.522348	-0.534279	0.005753
H474	H	1.855681	-0.200946	0.339086
H475	H	1.197994	-0.963429	-0.229443
H476	H	1.531328	-0.630095	0.103890
H477	H	1.864661	-0.296762	0.437223
H478	H	1.141429	-0.908836	-0.225297
H479	H	1.474762	-0.575503	0.108036
H480	H	1.808095	-0.242169	0.441369
H481	H	0.984178	-0.662290	-0.442715
H482	H	1.317512	-0.328956	-0.109381
H483	H	1.650845	0.004377	0.223952
C484	C	1.211380	-1.029709	-0.216093
C485	C	1.544713	-0.696376	0.117240
C486	C	1.878046	-0.363043	0.450574
C487	C	1.169812	-1.072453	-0.257638
C488	C	1.503145	-0.739120	0.075696
C489	C	1.836478	-0.405787	0.409029
H490	H	1.243542	-1.052009	-0.183984
H491	H	1.576875	-0.718676	0.149350
H492	H	1.910208	-0.385342	0.482683
H493	H	1.239679	-1.004033	-0.248378
H494	H	1.573012	-0.670700	0.084955
H495	H	1.906345	-0.337366	0.418288
H496	H	1.179107	-1.004104	-0.187732
H497	H	1.512440	-0.670771	0.145601
H498	H	1.845773	-0.337437	0.478935
H499	H	1.202084	-1.098056	-0.286003
H500	H	1.535418	-0.764723	0.047330
H501	H	1.868751	-0.431389	0.380664
H502	H	1.141510	-1.098141	-0.225348
H503	H	1.474844	-0.764807	0.107985
H504	H	1.808177	-0.431474	0.441318
H505	H	0.507959	-0.383693	-0.277832
H506	H	0.841292	-0.050360	0.055501
H507	H	1.174625	0.282973	0.388834
H508	H	0.984298	-0.943858	-0.442774
H509	H	1.317632	-0.610525	-0.109441
H510	H	1.650965	-0.277192	0.223893
H511	H	0.507102	-0.205183	-0.313191
H512	H	0.840435	0.128150	0.020142
H513	H	1.173769	0.461483	0.353476
H514	H	1.092243	-0.200501	-0.920156
H515	H	1.425576	0.132832	-0.586822
H516	H	1.758909	0.466165	-0.253489
C517	C	0.719818	-0.391831	-0.260529
C518	C	1.053152	-0.058498	0.072804
C519	C	1.386485	0.274835	0.406138
C520	C	0.642537	-0.389289	-0.259006
C521	C	0.975870	-0.055956	0.074327
C522	C	1.309204	0.277378	0.407660
H523	H	0.737677	-0.403928	-0.213276
H524	H	1.071010	-0.070595	0.120057
H525	H	1.404343	0.262739	0.453390
H526	H	0.735256	-0.421642	-0.296362
H527	H	1.068590	-0.088309	0.036972
H528	H	1.401923	0.245024	0.370305
H529	H	0.738933	-0.351643	-0.272970
H530	H	1.072266	-0.018309	0.060364
H531	H	1.405600	0.315024	0.393697
H532	H	0.623422	-0.429479	-0.246571
H533	H	0.956755	-0.096146	0.086762
H534	H	1.290089	0.237188	0.420096
H535	H	0.627092	-0.359476	-0.223162
H536	H	0.960425	-0.026143	0.110171
H537	H	1.293759	0.307190	0.443505
H538	H	0.633959	-0.236275	-0.450961
H539	H	0.967292	0.097058	-0.117628
H540	H	1.300626	0.430392	0.215706
H541	H	0.991232	-0.223428	-0.793895
H542	H	1.324565	0.109906	-0.460562
H543	H	1.657898	0.443239	-0.127228
