data_functionalizedCrystal
_audit_creation_method	'MofGen! by Chris Wilmer'
_symmetry_space_group_name_H-M	'P1'
_symmetry_Int_Tables_number	1
_symmetry_cell_setting	triclinic
loop_
_symmetry_equiv_pos_as_xyz
  x,y,z
_cell_length_a	18.215407
_cell_length_b	29.839131
_cell_length_c	18.215399
_cell_angle_alpha	89.961473
_cell_angle_beta	89.983101
_cell_angle_gamma	90.032688
loop_
_atom_site_label
_atom_site_type_symbol
_atom_site_fract_x
_atom_site_fract_y
_atom_site_fract_z
Zn1	Zn	1.125019	-0.178888	-0.416004
Zn2	Zn	1.458352	0.154445	-0.082671
Zn3	Zn	1.791686	0.487778	0.250663
Zn4	Zn	1.124905	-0.254018	-0.292915
Zn5	Zn	1.458239	0.079316	0.040418
Zn6	Zn	1.791572	0.412649	0.373752
Zn7	Zn	1.001952	-0.178899	-0.292958
Zn8	Zn	1.335285	0.154434	0.040376
Zn9	Zn	1.668618	0.487767	0.373709
Zn10	Zn	1.001895	-0.253989	-0.415946
Zn11	Zn	1.335229	0.079345	-0.082613
Zn12	Zn	1.668562	0.412678	0.250720
O13	O	1.063443	-0.216449	-0.354456
O14	O	1.396776	0.116885	-0.021122
O15	O	1.730109	0.450218	0.312211
O16	O	1.227988	-0.188862	-0.399682
O17	O	1.561321	0.144471	-0.066349
O18	O	1.894655	0.477805	0.266984
O19	O	1.108571	-0.244070	-0.189936
O20	O	1.441904	0.089264	0.143397
O21	O	1.775238	0.422597	0.476730
O22	O	1.018348	-0.116031	-0.309322
O23	O	1.351681	0.217303	0.024011
O24	O	1.685015	0.550636	0.357344
O25	O	1.227905	-0.244059	-0.309249
O26	O	1.561238	0.089274	0.024084
O27	O	1.894571	0.422607	0.357417
O28	O	1.108765	-0.116023	-0.399724
O29	O	1.442098	0.217311	-0.066390
O30	O	1.775432	0.550644	0.266943
O31	O	1.018238	-0.188880	-0.189968
O32	O	1.351571	0.144453	0.143366
O33	O	1.684904	0.477786	0.476699
O34	O	0.898960	-0.188852	-0.309266
O35	O	1.232293	0.144481	0.024067
O36	O	1.565627	0.477814	0.357401
O37	O	1.018252	-0.244010	-0.518938
O38	O	1.351585	0.089323	-0.185605
O39	O	1.684919	0.422657	0.147728
O40	O	0.898918	-0.244020	-0.399625
O41	O	1.232252	0.089313	-0.066292
O42	O	1.565585	0.422646	0.267041
O43	O	1.108710	-0.188834	-0.518981
O44	O	1.442044	0.144499	-0.185647
O45	O	1.775377	0.477833	0.147686
O46	O	1.108516	-0.316881	-0.309193
O47	O	1.441850	0.016452	0.024140
O48	O	1.775183	0.349786	0.357473
O49	O	1.018142	-0.316860	-0.399584
O50	O	1.351475	0.016474	-0.066251
O51	O	1.684808	0.349807	0.267083
C52	C	0.872236	-0.216435	-0.354445
C53	C	1.205570	0.116899	-0.021111
C54	C	1.538903	0.450232	0.312222
C55	C	0.790438	-0.216440	-0.354457
C56	C	1.123771	0.116894	-0.021124
C57	C	1.457104	0.450227	0.312210
C58	C	0.525378	-0.245222	-0.401441
C59	C	0.858711	0.088112	-0.068108
C60	C	1.192044	0.421445	0.265225
C61	C	0.602236	-0.245218	-0.401438
C62	C	0.935570	0.088115	-0.068104
C63	C	1.268903	0.421449	0.265229
C64	C	0.602249	-0.187685	-0.307483
C65	C	0.935582	0.145648	0.025850
C66	C	1.268916	0.478981	0.359183
C67	C	0.525392	-0.187692	-0.307484
C68	C	0.858725	0.145641	0.025850
C69	C	1.192058	0.478975	0.359183
C70	C	0.486958	-0.216459	-0.354467
C71	C	0.820291	0.116874	-0.021134
C72	C	1.153625	0.450207	0.312200
C73	C	0.640674	-0.216449	-0.354463
C74	C	0.974007	0.116884	-0.021130
C75	C	1.307341	0.450218	0.312204
C76	C	0.724008	-0.216445	-0.354459
C77	C	1.057341	0.116889	-0.021125
C78	C	1.390674	0.450222	0.312208
C79	C	0.403619	-0.216464	-0.354470
C80	C	0.736952	0.116869	-0.021137
C81	C	1.070286	0.450202	0.312196
C82	C	1.063330	-0.333171	-0.354394
C83	C	1.396664	0.000162	-0.021060
C84	C	1.729997	0.333496	0.312273
C85	C	1.063350	-0.383106	-0.354392
C86	C	1.396683	-0.049772	-0.021059
C87	C	1.730016	0.283561	0.312275
C88	C	1.110513	-0.692710	-0.401595
C89	C	1.443846	-0.359377	-0.068262
C90	C	1.777179	-0.026043	0.265072
C91	C	1.110593	-0.880383	-0.401639
C92	C	1.443926	-0.547050	-0.068306
C93	C	1.777259	-0.213716	0.265027
O94	O	1.150582	-0.904615	-0.441727
O95	O	1.483915	-0.571281	-0.108394
O96	O	1.817249	-0.237948	0.224940
N97	N	1.063568	-0.903891	-0.354537
N98	N	1.396901	-0.570557	-0.021204
N99	N	1.730234	-0.237224	0.312129
C100	C	1.016516	-0.880477	-0.307425
C101	C	1.349849	-0.547144	0.025909
C102	C	1.683183	-0.213810	0.359242
O103	O	0.976515	-0.904778	-0.267368
O104	O	1.309848	-0.571445	0.065965
O105	O	1.643182	-0.238111	0.399298
C106	C	1.016433	-0.692805	-0.307385
C107	C	1.349766	-0.359472	0.025949
C108	C	1.683100	-0.026138	0.359282
C109	C	1.063466	-0.669300	-0.354484
C110	C	1.396800	-0.335966	-0.021151
C111	C	1.730133	-0.002633	0.312182
C112	C	1.157541	-0.669205	-0.448691
C113	C	1.490875	-0.335871	-0.115358
C114	C	1.824208	-0.002538	0.217975
C115	C	1.157524	-0.622289	-0.448677
C116	C	1.490857	-0.288956	-0.115344
C117	C	1.824190	0.044377	0.217990
C118	C	1.110477	-0.598879	-0.401566
C119	C	1.443811	-0.265546	-0.068233
C120	C	1.777144	0.067788	0.265100
C121	C	1.063449	-0.622384	-0.354470
C122	C	1.396782	-0.289051	-0.021137
C123	C	1.730115	0.044282	0.312197
C124	C	0.969378	-0.669392	-0.260276
C125	C	1.302712	-0.336059	0.073057
C126	C	1.636045	-0.002726	0.406390
C127	C	0.969360	-0.622471	-0.260272
C128	C	1.302694	-0.289138	0.073062
C129	C	1.636027	0.044195	0.406395
C130	C	1.016394	-0.598966	-0.307371
C131	C	1.349727	-0.265633	0.025962
C132	C	1.683060	0.067701	0.359295
C133	C	1.016385	-0.552059	-0.307345
C134	C	1.349718	-0.218725	0.025988
C135	C	1.683051	0.114608	0.359322
N136	N	1.063410	-0.528551	-0.354447
N137	N	1.396743	-0.195218	-0.021113
N138	N	1.730076	0.138116	0.312220
C139	C	1.110456	-0.551961	-0.401557
C140	C	1.443789	-0.218628	-0.068224
C141	C	1.777123	0.114706	0.265109
C142	C	1.016564	-0.979008	-0.307448
C143	C	1.349897	-0.645674	0.025885
C144	C	1.683231	-0.312341	0.359219
C145	C	1.016586	-1.025926	-0.307457
C146	C	1.349919	-0.692592	0.025876
C147	C	1.683252	-0.359259	0.359210
C148	C	1.110661	-1.025828	-0.401673
C149	C	1.443995	-0.692495	-0.068339
C150	C	1.777328	-0.359161	0.264994
C151	C	1.110643	-0.978909	-0.401659
C152	C	1.443976	-0.645576	-0.068326
C153	C	1.777310	-0.312243	0.265007
C154	C	1.063589	-0.955500	-0.354550
C155	C	1.396922	-0.622167	-0.021216
C156	C	1.730256	-0.288833	0.312117
C157	C	1.110416	-0.453435	-0.401523
C158	C	1.443749	-0.120102	-0.068190
C159	C	1.777082	0.213231	0.265143
C160	C	1.110396	-0.406516	-0.401503
C161	C	1.443730	-0.073182	-0.068169
C162	C	1.777063	0.260151	0.265164
C163	C	1.016318	-0.406617	-0.307290
C164	C	1.349652	-0.073284	0.026043
C165	C	1.682985	0.260049	0.359377
C166	C	1.016340	-0.453533	-0.307308
C167	C	1.349674	-0.120199	0.026026
C168	C	1.683007	0.213134	0.359359
C169	C	1.063391	-0.476941	-0.354430
C170	C	1.396725	-0.143607	-0.021097
C171	C	1.730058	0.189726	0.312236
O172	O	0.976410	-0.527798	-0.267284
O173	O	1.309744	-0.194465	0.066049
O174	O	1.643077	0.138869	0.399383
O175	O	1.150439	-0.527652	-0.441619
O176	O	1.483773	-0.194319	-0.108286
O177	O	1.817106	0.139015	0.225047
C178	C	1.110530	-0.739625	-0.401609
C179	C	1.443864	-0.406292	-0.068276
C180	C	1.777197	-0.072959	0.265057
C181	C	1.063502	-0.763131	-0.354513
C182	C	1.396835	-0.429797	-0.021180
C183	C	1.730168	-0.096464	0.312154
C184	C	1.016455	-0.739720	-0.307402
C185	C	1.349788	-0.406387	0.025931
C186	C	1.683122	-0.073054	0.359264
C187	C	1.063523	-0.810048	-0.354522
C188	C	1.396856	-0.476715	-0.021189
C189	C	1.730190	-0.143382	0.312145
C190	C	1.110569	-0.833459	-0.401633
C191	C	1.443903	-0.500125	-0.068299
C192	C	1.777236	-0.166792	0.265034
C193	C	1.157594	-0.809951	-0.448734
C194	C	1.490928	-0.476618	-0.115401
C195	C	1.824261	-0.143284	0.217932
C196	C	1.157577	-0.763036	-0.448720
C197	C	1.490910	-0.429702	-0.115387
C198	C	1.824243	-0.096369	0.217947
C199	C	0.969430	-0.763228	-0.260301
C200	C	1.302764	-0.429895	0.073033
C201	C	1.636097	-0.096561	0.406366
C202	C	0.969452	-0.810144	-0.260318
C203	C	1.302786	-0.476810	0.073015
C204	C	1.636119	-0.143477	0.406348
C205	C	1.016499	-0.833554	-0.307429
C206	C	1.349832	-0.500220	0.025904
C207	C	1.683165	-0.166887	0.359238
C208	C	1.255396	-0.216463	-0.354468
C209	C	1.588729	0.116871	-0.021134
C210	C	1.922062	0.450204	0.312199
C211	C	1.337194	-0.216469	-0.354473
C212	C	1.670528	0.116865	-0.021139
C213	C	2.003861	0.450198	0.312194
C214	C	1.063488	-0.216418	-0.546409
C215	C	1.396821	0.116916	-0.213076
C216	C	1.730154	0.450249	0.120258
C217	C	1.063507	-0.216404	-0.628208
C218	C	1.396840	0.116929	-0.294874
C219	C	1.730173	0.450262	0.038459
C220	C	1.063575	-0.099270	-0.354534
C221	C	1.396909	0.234063	-0.021201
C222	C	1.730242	0.567397	0.312132
C223	C	1.063632	-0.049336	-0.354568
C224	C	1.396965	0.283998	-0.021234
C225	C	1.730299	0.617331	0.312099
C226	C	1.110625	-0.187647	-0.816425
C227	C	1.443959	0.145686	-0.483092
C228	C	1.777292	0.479019	-0.149758
C229	C	1.110634	-0.187634	-0.893284
C230	C	1.443967	0.145699	-0.559951
C231	C	1.777301	0.479032	-0.226617
C232	C	1.016440	-0.245092	-0.893228
C233	C	1.349773	0.088241	-0.559895
C234	C	1.683107	0.421575	-0.226562
C235	C	1.016428	-0.245102	-0.816371
C236	C	1.349761	0.088231	-0.483038
C237	C	1.683095	0.421564	-0.149704
C238	C	1.063525	-0.216381	-0.777971
C239	C	1.396858	0.116953	-0.444638
C240	C	1.730192	0.450286	-0.111305
C241	C	1.063546	-0.216357	-0.931688
C242	C	1.396879	0.116976	-0.598354
C243	C	1.730212	0.450309	-0.265021
C244	C	1.063555	-0.216343	-1.015021
C245	C	1.396888	0.116990	-0.681688
C246	C	1.730222	0.450323	-0.348355
C247	C	1.063515	-0.216394	-0.694632
C248	C	1.396848	0.116939	-0.361299
C249	C	1.730182	0.450273	-0.027966
C250	C	1.063440	-0.216447	-0.163250
C251	C	1.396774	0.116886	0.170084
C252	C	1.730107	0.450220	0.503417
C253	C	1.063564	-0.216334	-0.081451
C254	C	1.396897	0.117000	0.251882
C255	C	1.730231	0.450333	0.585216
H256	H	0.633551	-0.164263	-0.269232
H257	H	0.966884	0.169070	0.064101
H258	H	1.300218	0.502403	0.397434
Br259	Br	1.174564	-0.148640	-0.945469
Br260	Br	1.507898	0.184693	-0.612135
Br261	Br	1.841231	0.518026	-0.278802
H262	H	0.978016	-0.387549	-0.268931
H263	H	1.311349	-0.054216	0.064403
H264	H	1.644682	0.279117	0.397736
H265	H	1.148973	-0.164259	-0.785162
H266	H	1.482306	0.169074	-0.451829
H267	H	1.815639	0.502407	-0.118496
H268	H	0.978097	-0.268477	-0.924503
H269	H	1.311430	0.064856	-0.591169
H270	H	1.644764	0.398190	-0.257836
Br271	Br	0.952495	-0.284097	-0.764179
Br272	Br	1.285828	0.049237	-0.430845
Br273	Br	1.619161	0.382570	-0.097512
Br274	Br	1.221411	-0.731143	-0.512644
Br275	Br	1.554744	-0.397810	-0.179311
Br276	Br	1.888078	-0.064476	0.154022
Br277	Br	0.473220	-0.284264	-0.465202
Br278	Br	0.806553	0.049070	-0.131869
Br279	Br	1.139886	0.382403	0.201465
H280	H	0.494110	-0.164269	-0.269228
H281	H	0.827443	0.169064	0.064105
H282	H	1.160776	0.502397	0.397439
Br283	Br	0.654375	-0.284257	-0.465188
Br284	Br	0.987708	0.049077	-0.131854
Br285	Br	1.321042	0.382410	0.201479
H286	H	1.148699	-0.387379	-0.439857
H287	H	1.482032	-0.054046	-0.106523
H288	H	1.815365	0.279287	0.226810
H289	H	0.931118	-0.744171	-0.221938
H290	H	1.264452	-0.410838	0.111395
H291	H	1.597785	-0.077504	0.444728
Br292	Br	1.174273	-0.485196	-0.465475
Br293	Br	1.507606	-0.151863	-0.132141
Br294	Br	1.840939	0.181471	0.201192
Br295	Br	1.221446	-0.841731	-0.512666
Br296	Br	1.554779	-0.508398	-0.179333
Br297	Br	1.888113	-0.175065	0.154000
H298	H	1.195820	-0.603154	-0.487032
H299	H	1.529153	-0.269821	-0.153698
H300	H	1.862487	0.063513	0.179635
Br301	Br	1.174476	-0.947014	-0.465582
Br302	Br	1.507809	-0.613681	-0.132249
Br303	Br	1.841142	-0.280348	0.201084
Br304	Br	1.174510	-1.057608	-0.465608
Br305	Br	1.507844	-0.724275	-0.132274
Br306	Br	1.841177	-0.390941	0.201059
Br307	Br	0.952765	-1.057820	-0.243521
Br308	Br	1.286098	-0.724486	0.089812
Br309	Br	1.619431	-0.391153	0.423146
H310	H	0.931153	-0.829277	-0.221957
H311	H	1.264487	-0.495944	0.111376
H312	H	1.597820	-0.162611	0.444709
Br313	Br	0.952695	-0.947245	-0.243511
Br314	Br	1.286028	-0.613911	0.089823
Br315	Br	1.619362	-0.280578	0.423156
Br316	Br	0.905542	-0.701280	-0.196353
Br317	Br	1.238875	-0.367947	0.136981
Br318	Br	1.572208	-0.034614	0.470314
H319	H	1.195852	-0.688260	-0.487059
H320	H	1.529185	-0.354927	-0.153726
H321	H	1.862519	-0.021594	0.179608
H322	H	0.931041	-0.603414	-0.221910
H323	H	1.264374	-0.270080	0.111423
H324	H	1.597708	0.063253	0.444756
H325	H	0.978048	-0.472672	-0.268949
H326	H	1.311381	-0.139338	0.064384
H327	H	1.644714	0.193995	0.397717
