data_functionalizedCrystal
_audit_creation_method	'MofGen! by Chris Wilmer'
_symmetry_space_group_name_H-M	'P1'
_symmetry_Int_Tables_number	1
_symmetry_cell_setting	triclinic
loop_
_symmetry_equiv_pos_as_xyz
  x,y,z
_cell_length_a	11.792254
_cell_length_b	10.489741
_cell_length_c	10.268362
_cell_angle_alpha	89.995004
_cell_angle_beta	89.995475
_cell_angle_gamma	84.368886
loop_
_atom_site_label
_atom_site_type_symbol
_atom_site_fract_x
_atom_site_fract_y
_atom_site_fract_z
O1	O	1.507372	0.174910	-0.108298
O2	O	1.177082	0.192911	-0.108301
O3	O	1.349742	-0.001713	-0.108292
O4	O	1.334711	0.369533	-0.108308
O5	O	1.349727	-0.001721	0.108309
O6	O	1.177066	0.192903	0.108299
O7	O	1.507357	0.174902	0.108302
Cu8	Cu	1.342210	0.183901	0.128078
Cu9	Cu	1.342228	0.183911	-0.128077
O10	O	1.334696	0.369525	0.108293
C11	C	1.134780	0.191773	-0.000001
C12	C	1.008758	0.188379	-0.000002
C13	C	0.906414	0.185621	-0.000008
C14	C	0.778018	0.182173	-0.000008
C15	C	1.348600	-0.049245	0.000008
C16	C	1.345203	-0.190863	0.000005
C17	C	1.235344	-0.258634	-0.000005
C18	C	1.287233	-0.350935	0.106791
C19	C	1.287274	-0.350901	-0.106761
C20	C	1.397137	-0.281298	0.106889
C21	C	1.397163	-0.281255	-0.106758
C22	C	1.449132	-0.373529	0.000064
C23	C	1.549658	0.176040	-0.000001
C24	C	1.675680	0.179434	-0.000008
C25	C	1.335839	0.417057	-0.000009
C26	C	1.339235	0.558675	-0.000016
N27	N	1.342206	0.183894	0.308244
N28	N	1.342241	0.183909	-0.308243
C29	C	1.342222	0.183908	0.573915
C30	C	1.342210	0.183904	0.426077
H31	H	1.240743	-0.381794	0.197078
H32	H	1.443574	-0.250625	0.197278
C33	C	1.113325	-0.191138	0.000131
C34	C	1.072817	-0.101445	-0.112867
C35	C	0.950803	-0.033948	-0.112724
C36	C	0.869297	-0.056143	0.000416
C37	C	0.909804	-0.145841	0.113422
C38	C	1.031818	-0.213338	0.113279
H39	H	1.133154	-0.085011	-0.196628
H40	H	0.920818	0.032453	-0.196379
H41	H	0.778975	-0.006178	0.000522
H42	H	0.849467	-0.162275	0.197183
H43	H	1.061803	-0.279738	0.196934
C44	C	1.459915	-0.239508	-0.228733
C45	C	1.507055	-0.340246	-0.329041
C46	C	1.569796	-0.298494	-0.451029
C47	C	1.585398	-0.156004	-0.472709
C48	C	1.538256	-0.055257	-0.372397
C49	C	1.475515	-0.097009	-0.250410
H50	H	1.495507	-0.445734	-0.312995
H51	H	1.604693	-0.373075	-0.525286
H52	H	1.631842	-0.125097	-0.563011
H53	H	1.549804	0.050231	-0.388443
H54	H	1.440618	-0.022428	-0.176153
H55	H	1.240782	-0.381706	-0.197057
H56	H	1.539538	-0.423256	0.000124
