data_functionalizedCrystal
_audit_creation_method	'MofGen! by Chris Wilmer'
_symmetry_space_group_name_H-M	'P1'
_symmetry_Int_Tables_number	1
_symmetry_cell_setting	triclinic
loop_
_symmetry_equiv_pos_as_xyz
  x,y,z
_cell_length_a	17.038272
_cell_length_b	16.992694
_cell_length_c	16.053802
_cell_angle_alpha	87.249047
_cell_angle_beta	87.248391
_cell_angle_gamma	89.110110
loop_
_atom_site_label
_atom_site_type_symbol
_atom_site_fract_x
_atom_site_fract_y
_atom_site_fract_z
O1	O	0.163385	-1.054593	0.069325
O2	O	0.663385	-0.554593	0.569325
O3	O	0.161558	-0.826187	0.069350
O4	O	0.661558	-0.326187	0.569350
O5	O	0.048571	-0.939032	0.069331
O6	O	0.548571	-0.439032	0.569331
O7	O	0.276372	-0.941748	0.069344
O8	O	0.776372	-0.441748	0.569344
O9	O	0.054763	-0.932819	-0.069527
O10	O	0.554763	-0.432819	0.430473
O11	O	0.167750	-0.819974	-0.069508
O12	O	0.667750	-0.319974	0.430492
O13	O	0.169577	-1.048380	-0.069533
O14	O	0.669577	-0.548380	0.430467
Zn15	Zn	0.169646	-0.933190	-0.091567
Zn16	Zn	0.669646	-0.433190	0.408433
Zn17	Zn	0.161489	-0.941376	0.091384
Zn18	Zn	0.661489	-0.441376	0.591384
O19	O	0.282564	-0.935535	-0.069514
O20	O	0.782564	-0.435535	0.430486
C21	C	0.022384	-0.933456	-0.000098
C22	C	0.522384	-0.433456	0.499902
C23	C	-0.064871	-0.926089	-0.000097
C24	C	0.435129	-0.426089	0.499903
C25	C	0.162304	-0.793711	-0.000076
C26	C	0.662304	-0.293711	0.499924
C27	C	0.155293	-0.706200	-0.000067
C28	C	0.655293	-0.206200	0.499933
C29	C	0.168831	-1.080856	-0.000105
C30	C	0.668831	-0.580856	0.499895
C31	C	0.175841	-1.168367	-0.000109
C32	C	0.675841	-0.668367	0.499891
C33	C	-0.110741	-0.993729	-0.000105
C34	C	0.389259	-0.493729	0.499895
C35	C	-0.192727	-0.986802	-0.000096
C36	C	0.307273	-0.486802	0.499904
C37	C	-0.228840	-0.912235	-0.000085
C38	C	0.271160	-0.412235	0.499915
C39	C	-0.182964	-0.844590	-0.000075
C40	C	0.317036	-0.344590	0.499925
C41	C	-0.100981	-0.851518	-0.000077
C42	C	0.399019	-0.351518	0.499923
C43	C	-0.476135	-0.887761	-0.000071
C44	C	0.023865	-0.387761	0.499929
C45	C	-0.558124	-0.880838	-0.000071
C46	C	-0.058124	-0.380838	0.499929
C47	C	-0.567881	-1.023051	-0.000091
C48	C	-0.067881	-0.523051	0.499909
C49	C	-0.485895	-1.029972	-0.000099
C50	C	0.014105	-0.529972	0.499901
C51	C	-0.440026	-0.962328	-0.000084
C52	C	0.059974	-0.462328	0.499916
C53	C	-0.312643	-0.905153	-0.000079
C54	C	0.187357	-0.405153	0.499921
C55	C	-0.356226	-0.969410	-0.000084
C56	C	0.143774	-0.469410	0.499916
C57	C	0.308751	-0.941111	-0.000084
C58	C	0.808751	-0.441111	0.499916
C59	C	0.396006	-0.948478	-0.000079
C60	C	0.896006	-0.448478	0.499921
N61	N	0.175214	-0.927609	-0.216427
N62	N	0.675214	-0.427609	0.283573
C63	C	0.222933	-0.660472	-0.000064
C64	C	0.722933	-0.160472	0.499936
C65	C	0.216342	-0.578245	-0.000076
C66	C	0.716342	-0.078245	0.499924
C67	C	0.142110	-0.541748	-0.000085
C68	C	0.642110	-0.041748	0.499915
C69	C	0.074465	-0.587482	-0.000091
C70	C	0.574465	-0.087482	0.499909
C71	C	0.081057	-0.669707	-0.000085
C72	C	0.581057	-0.169707	0.499915
C73	C	0.114789	-0.296327	-0.000109
C74	C	0.614789	0.203673	0.499891
C75	C	0.108201	-0.214096	-0.000112
C76	C	0.608201	0.285904	0.499888
C77	C	0.250079	-0.204864	-0.000099
C78	C	0.750079	0.295136	0.499901
C79	C	0.256665	-0.287091	-0.000088
C80	C	0.756665	0.212909	0.499912
C81	C	0.189020	-0.332818	-0.000098
C82	C	0.689020	0.167182	0.499902
N83	N	0.135371	-0.457699	-0.000094
N84	N	0.635371	0.042301	0.499906
N85	N	0.195760	-0.416865	-0.000095
N86	N	0.695760	0.083135	0.499905
C87	C	0.127157	-0.975645	-0.260129
C88	C	0.627157	-0.475645	0.239871
C89	C	0.131060	-0.971749	-0.347535
C90	C	0.631060	-0.471749	0.152465
C91	C	0.183023	-0.919820	-0.391237
C92	C	0.683023	-0.419820	0.108763
C93	C	0.231082	-0.871779	-0.347529
C94	C	0.731082	-0.371779	0.152471
C95	C	0.227175	-0.875672	-0.260125
C96	C	0.727175	-0.375672	0.239875
C97	C	0.200067	-0.902815	-0.652644
C98	C	0.700067	-0.402815	-0.152644
C99	C	0.203972	-0.898928	-0.740055
C100	C	0.703972	-0.398928	-0.240055
C101	C	0.103948	-0.998897	-0.740054
C102	C	0.603948	-0.498897	-0.240054
C103	C	0.100050	-1.002788	-0.652648
C104	C	0.600050	-0.502788	-0.152648
C105	C	0.148105	-0.954744	-0.608948
C106	C	0.648105	-0.454744	-0.108948
N107	N	0.187015	-0.915838	-0.480580
N108	N	0.687015	-0.415838	0.019420
N109	N	0.144109	-0.958723	-0.519606
N110	N	0.644109	-0.458723	-0.019606
N111	N	0.155915	-0.946963	0.216243
N112	N	0.655915	-0.446963	0.716243
H113	H	-0.230071	-1.041882	-0.000105
H114	H	0.269929	-0.541882	0.499895
H115	H	-0.438798	-0.832680	-0.000059
H116	H	0.061202	-0.332680	0.499941
H117	H	-0.587524	-0.820113	-0.000076
H118	H	-0.087524	-0.320113	0.499924
C119	C	0.218634	-0.788538	-0.838379
C120	C	0.718634	-0.288538	-0.338379
C121	C	0.261088	-0.841842	-0.788102
C122	C	0.761088	-0.341842	-0.288102
H123	H	0.253896	-0.753303	-0.868046
H124	H	0.753896	-0.253303	-0.368046
H125	H	0.182651	-0.759555	-0.804293
H126	H	0.682651	-0.259555	-0.304293
H127	H	0.190574	-0.816607	-0.876905
H128	H	0.690574	-0.316607	-0.376905
H129	H	0.289144	-0.813774	-0.749572
H130	H	0.789144	-0.313774	-0.249572
H131	H	0.297085	-0.870828	-0.822192
H132	H	0.797085	-0.370828	-0.322192
C133	C	0.233061	-0.774026	-0.161848
C134	C	0.733061	-0.274026	0.338152
C135	C	0.280001	-0.822870	-0.212085
C136	C	0.780001	-0.322870	0.287915
H137	H	0.265675	-0.741423	-0.132196
H138	H	0.765675	-0.241423	0.367804
H139	H	0.201563	-0.805510	-0.123316
H140	H	0.701563	-0.305510	0.376684
H141	H	0.200121	-0.742011	-0.195966
H142	H	0.700121	-0.242011	0.304034
H143	H	0.312938	-0.854890	-0.177967
H144	H	0.812938	-0.354890	0.322033
H145	H	0.311513	-0.791383	-0.250621
H146	H	0.811513	-0.291383	0.249379
C147	C	-0.041022	-0.706088	0.071297
C148	C	0.458978	-0.206088	0.571297
C149	C	0.006707	-0.719978	-0.000082
C150	C	0.506707	-0.219978	0.499918
H151	H	-0.086921	-0.737127	0.071298
H152	H	0.413079	-0.237127	0.571298
H153	H	-0.055571	-0.651902	0.071287
H154	H	0.444429	-0.151902	0.571287
H155	H	-0.012944	-0.719827	0.119717
H156	H	0.487056	-0.219827	0.619717
H157	H	-0.021369	-0.706233	-0.048501
H158	H	0.478631	-0.206233	0.451499
H159	H	0.021255	-0.774176	-0.000079
H160	H	0.521255	-0.274176	0.499921
H161	H	0.047750	-0.184383	-0.000119
H162	H	0.547750	0.315617	0.499881
C163	C	-0.026111	-0.297181	-0.000116
C164	C	0.473889	0.202819	0.499884
C165	C	0.040434	-0.346583	-0.000113
C166	C	0.540434	0.153417	0.499887
H167	H	-0.072016	-0.328212	-0.000114
H168	H	0.427984	0.171788	0.499886
H169	H	-0.023569	-0.262759	-0.048537
H170	H	0.476431	0.237241	0.451463
H171	H	-0.027884	-0.267078	0.048309
H172	H	0.472116	0.232922	0.548309
H173	H	0.042209	-0.376682	-0.048542
H174	H	0.542209	0.123318	0.451458
H175	H	0.037891	-0.381019	0.048312
H176	H	0.537891	0.118981	0.548312
C177	C	-0.196701	-0.718045	-0.071433
C178	C	0.303299	-0.218045	0.428567
C179	C	-0.222655	-0.762622	-0.000060
C180	C	0.277345	-0.262622	0.499940
H181	H	-0.221199	-0.667438	-0.071420
H182	H	0.278801	-0.167438	0.428580
H183	H	-0.209992	-0.743955	-0.119851
H184	H	0.290008	-0.243955	0.380149
H185	H	-0.141308	-0.712500	-0.071423
H186	H	0.358692	-0.212500	0.428577
H187	H	-0.278047	-0.768172	-0.000073
H188	H	0.221953	-0.268172	0.499927
H189	H	-0.209369	-0.736706	0.048371
H190	H	0.290631	-0.236706	0.548371
C191	C	-0.006303	-0.780004	0.071316
C192	C	0.493697	-0.280004	0.571316
C193	C	-0.050557	-0.777166	-0.000068
C194	C	0.449443	-0.277166	0.499932
H195	H	0.024821	-0.734098	0.071325
H196	H	0.524821	-0.234098	0.571325
H197	H	0.026933	-0.825399	0.071302
H198	H	0.526933	-0.325399	0.571302
H199	H	-0.040655	-0.782425	0.119732
H200	H	0.459345	-0.282425	0.619732
H201	H	-0.016205	-0.774751	-0.048485
H202	H	0.483795	-0.274751	0.451515
H203	H	-0.083797	-0.731759	-0.000063
H204	H	0.416203	-0.231759	0.499937
C205	C	-0.668911	-1.100958	0.071289
C206	C	-0.168911	-0.600958	0.571289
C207	C	-0.618300	-1.097404	-0.000096
C208	C	-0.118300	-0.597404	0.499904
H209	H	-0.700034	-1.146865	0.071290
H210	H	-0.200034	-0.646865	0.571290
H211	H	-0.702149	-1.055563	0.071287
H212	H	-0.202149	-0.555563	0.571287
H213	H	-0.638871	-1.102867	0.119704
H214	H	-0.138871	-0.602867	0.619704
H215	H	-0.648341	-1.095488	-0.048511
H216	H	-0.148341	-0.595488	0.451489
H217	H	-0.585058	-1.142810	-0.000101
H218	H	-0.085058	-0.642810	0.499899
C219	C	0.331869	-0.866844	-0.625735
C220	C	0.831869	-0.366844	-0.125735
C221	C	0.252899	-0.850013	-0.604620
C222	C	0.752899	-0.350013	-0.104620
H223	H	0.364487	-0.834248	-0.596081
H224	H	0.864487	-0.334248	-0.096081
H225	H	0.341621	-0.857098	-0.684039
H226	H	0.841621	-0.357098	-0.184039
H227	H	0.343057	-0.920601	-0.611392
H228	H	0.843057	-0.420601	-0.111392
H229	H	0.241710	-0.796257	-0.618969
H230	H	0.741710	-0.296257	-0.118969
H231	H	0.243143	-0.859752	-0.546303
H232	H	0.743143	-0.359752	-0.046303
C233	C	-0.128629	-1.133603	-0.000110
C234	C	0.371371	-0.633603	0.499890
C235	C	-0.071049	-1.075697	-0.000111
C236	C	0.428951	-0.575697	0.499889
H237	H	-0.104125	-1.184207	-0.000105
H238	H	0.395875	-0.684207	0.499895
H239	H	-0.158243	-1.125780	-0.048530
H240	H	0.341757	-0.625780	0.451470
H241	H	-0.162561	-1.130099	0.048316
H242	H	0.337439	-0.630099	0.548316
H243	H	-0.037121	-1.079197	-0.048541
H244	H	0.462879	-0.579197	0.451459
H245	H	-0.041422	-1.083523	0.048314
H246	H	0.458578	-0.583523	0.548314
C247	C	0.342710	-0.681088	0.071327
C248	C	0.842710	-0.181088	0.571327
C249	C	0.304534	-0.700582	-0.000053
C250	C	0.804534	-0.200582	0.499947
H251	H	0.393090	-0.705845	0.071327
H252	H	0.893090	-0.205845	0.571327
H253	H	0.312487	-0.698626	0.119740
H254	H	0.812487	-0.198626	0.619740
H255	H	0.348455	-0.625571	0.071314
H256	H	0.848455	-0.125571	0.571314
H257	H	0.298784	-0.756099	-0.000037
H258	H	0.798784	-0.256099	0.499963
H259	H	0.334764	-0.683049	-0.048479
H260	H	0.834764	-0.183049	0.451521
C261	C	0.281490	-0.821430	-0.481513
C262	C	0.781490	-0.321430	0.018487
C263	C	0.288203	-0.814700	-0.395565
C264	C	0.788203	-0.314700	0.104435
H265	H	0.316761	-0.786195	-0.511165
H266	H	0.816761	-0.286195	-0.011165
H267	H	0.229199	-0.808746	-0.495845
H268	H	0.729199	-0.308746	0.004155
H269	H	0.293971	-0.873913	-0.495817
H270	H	0.793971	-0.373913	0.004183
H271	H	0.275716	-0.762218	-0.381260
H272	H	0.775716	-0.262218	0.118740
H273	H	0.340507	-0.827379	-0.381227
H274	H	0.840507	-0.327379	0.118773
H275	H	-0.456497	-1.090692	-0.000108
H276	H	0.043503	-0.590692	0.499892
H277	H	-0.326819	-1.030124	-0.000074
H278	H	0.173181	-0.530124	0.499926
C279	C	0.112428	-1.086015	-0.161779
C280	C	0.612428	-0.586015	0.338221
C281	C	0.070015	-1.032690	-0.212073
C282	C	0.570015	-0.532690	0.287927
H283	H	0.077141	-1.121223	-0.132111
H284	H	0.577141	-0.621223	0.367889
H285	H	0.140503	-1.057964	-0.123261
H286	H	0.640503	-0.557964	0.376739
H287	H	0.148398	-1.115032	-0.195860
H288	H	0.648398	-0.615032	0.304140
H289	H	0.034049	-1.003669	-0.177991
H290	H	0.534049	-0.503669	0.322009
H291	H	0.041927	-1.060745	-0.250595
H292	H	0.541927	-0.560745	0.249405
C293	C	0.288046	-0.483604	0.071314
C294	C	0.788046	0.016396	0.571314
C295	C	0.290695	-0.527982	-0.000063
C296	C	0.790695	-0.027982	0.499937
H297	H	0.333950	-0.452571	0.071318
H298	H	0.833950	0.047429	0.571318
H299	H	0.285504	-0.518032	0.119729
H300	H	0.785504	-0.018032	0.619729
H301	H	0.242892	-0.450100	0.071293
H302	H	0.742892	0.049900	0.571293
H303	H	0.335846	-0.561489	-0.000039
H304	H	0.835846	-0.061489	0.499961
H305	H	0.293245	-0.493550	-0.048491
H306	H	0.793245	0.006450	0.451509
H307	H	0.014024	-0.557760	-0.000110
H308	H	0.514024	-0.057760	0.499890
H309	H	0.317112	-0.316801	-0.000071
H310	H	0.817112	0.183199	0.499929
H311	H	0.091928	-1.010863	-0.383116
H312	H	0.591928	-0.510863	0.116884
C313	C	0.365792	-0.174857	0.071293
C314	C	0.865792	0.325143	0.571293
C315	C	0.324430	-0.154597	-0.000094
C316	C	0.824430	0.345403	0.499906
H317	H	0.411692	-0.143820	0.071295
H318	H	0.911692	0.356180	0.571295
H319	H	0.380339	-0.229043	0.071291
H320	H	0.880339	0.270957	0.571291
H321	H	0.333397	-0.165434	0.119707
H322	H	0.833397	0.334566	0.619707
H323	H	0.356824	-0.164026	-0.048508
H324	H	0.856824	0.335974	0.451492
H325	H	0.309885	-0.100398	-0.000099
H326	H	0.809885	0.399602	0.499901
C327	C	0.001564	-1.101204	-0.661430
C328	C	0.501564	-0.601204	-0.161430
C329	C	0.042925	-1.059865	-0.604613
C330	C	0.542925	-0.559865	-0.104613
H331	H	-0.033704	-1.136438	-0.631773
H332	H	0.466296	-0.636438	-0.131773
H333	H	0.037554	-1.130187	-0.695509
H334	H	0.537554	-0.630187	-0.195509
H335	H	-0.027219	-1.065020	-0.695533
H336	H	0.472781	-0.565020	-0.195533
H337	H	0.071713	-1.096049	-0.570514
H338	H	0.571713	-0.596049	-0.070514
H339	H	0.006930	-1.030881	-0.570520
H340	H	0.506930	-0.530881	-0.070520
H341	H	-0.342056	-0.844440	-0.000072
H342	H	0.157944	-0.344440	0.499928
H343	H	0.064823	-1.038011	-0.775643
H344	H	0.564823	-0.538011	-0.275643
