data_functionalizedCrystal
_audit_creation_method	'MofGen! by Chris Wilmer'
_symmetry_space_group_name_H-M	'P1'
_symmetry_Int_Tables_number	1
_symmetry_cell_setting	triclinic
loop_
_symmetry_equiv_pos_as_xyz
  x,y,z
_cell_length_a	10.654543
_cell_length_b	10.654550
_cell_length_c	9.730223
_cell_angle_alpha	90.002824
_cell_angle_beta	90.001177
_cell_angle_gamma	95.516448
loop_
_atom_site_label
_atom_site_type_symbol
_atom_site_fract_x
_atom_site_fract_y
_atom_site_fract_z
O1	O	-1.667845	0.176356	0.114142
O2	O	-1.167845	0.676356	0.614142
O3	O	-1.302365	0.193171	0.114177
O4	O	-0.802365	0.693171	0.614177
O5	O	-1.493508	0.002024	0.114150
O6	O	-0.993508	0.502024	0.614150
O7	O	-1.476702	0.367503	0.114169
O8	O	-0.976702	0.867503	0.614169
O9	O	-1.493494	0.002024	-0.114430
O10	O	-0.993494	0.502024	0.385570
O11	O	-1.302351	0.193171	-0.114403
O12	O	-0.802351	0.693171	0.385597
O13	O	-1.667831	0.176356	-0.114438
O14	O	-1.167831	0.676356	0.385562
Zn15	Zn	-1.485089	0.184763	-0.150713
Zn16	Zn	-0.985089	0.684763	0.349287
Zn17	Zn	-1.485107	0.184763	0.150451
Zn18	Zn	-0.985107	0.684763	0.650451
O19	O	-1.476688	0.367503	-0.114411
O20	O	-0.976688	0.867503	0.385589
C21	C	-1.255560	0.191938	-0.000109
C22	C	-0.755560	0.691938	0.499891
C23	C	-1.116116	0.188249	-0.000095
C24	C	-0.616116	0.688249	0.499905
C25	C	-1.036631	0.300793	-0.000092
C26	C	-0.536631	0.800793	0.499908
C27	C	-0.905609	0.297319	-0.000112
C28	C	-0.405609	0.797319	0.499888
C29	C	-0.933573	0.068749	-0.000135
C30	C	-0.433573	0.568749	0.499865
C31	C	-1.064591	0.072224	-0.000124
C32	C	-0.564591	0.572224	0.499876
C33	C	-1.492267	-0.044774	-0.000139
C34	C	-0.992267	0.455226	0.499861
C35	C	-1.488575	-0.184217	-0.000137
C36	C	-0.988575	0.315783	0.499863
C37	C	-1.601117	-0.263706	-0.000147
C38	C	-1.101117	0.236294	0.499853
C39	C	-1.597641	-0.394726	-0.000130
C40	C	-1.097641	0.105274	0.499870
C41	C	-1.369070	-0.366758	-0.000098
C42	C	-0.869070	0.133242	0.499902
C43	C	-1.372548	-0.235740	-0.000105
C44	C	-0.872548	0.264260	0.499895
C45	C	-0.714635	0.177595	-0.000143
C46	C	-0.214635	0.677595	0.499857
C47	C	-0.854077	0.181301	-0.000127
C48	C	-0.354077	0.681301	0.499873
C49	C	-1.477929	0.414301	-0.000119
C50	C	-0.977929	0.914301	0.499881
C51	C	-1.481621	0.553744	-0.000113
C52	C	-0.981621	1.053744	0.499887
N53	N	-1.485086	0.184762	-0.356249
N54	N	-0.985086	0.684762	0.143751
C55	C	-1.561918	0.261643	-0.428174
C56	C	-1.061918	0.761643	0.071826
C57	C	-1.561938	0.261636	-0.572057
C58	C	-1.061938	0.761636	-0.072057
C59	C	-1.408285	0.107865	-0.572078
C60	C	-0.908285	0.607865	-0.072078
C61	C	-1.408272	0.107866	-0.428197
C62	C	-0.908272	0.607866	0.071803
N63	N	-1.485120	0.184754	0.355988
N64	N	-0.985120	0.684754	0.855988
H65	H	-1.078578	0.395268	-0.000079
H66	H	-0.578578	0.895268	0.499921
H67	H	-1.624465	0.324256	-0.369597
H68	H	-1.124465	0.824256	0.130403
H69	H	-1.624504	0.324238	-0.630611
H70	H	-1.124504	0.824238	-0.130611
H71	H	-1.129313	-0.019428	-0.000131
H72	H	-0.629313	0.480572	0.499869
H73	H	-0.840896	0.388964	-0.000112
H74	H	-0.340896	0.888964	0.499888
H75	H	-1.280897	-0.171016	-0.000093
H76	H	-0.780897	0.328984	0.499907
H77	H	-0.891604	-0.025715	-0.000166
H78	H	-0.391604	0.474285	0.499834
H79	H	-1.695593	-0.221761	-0.000170
H80	H	-1.195593	0.278239	0.499830
H81	H	-1.274605	-0.408724	-0.000075
H82	H	-0.774605	0.091276	0.499925
C83	C	-1.323781	0.023297	-0.651234
C84	C	-0.823781	0.523297	-0.151234
N85	N	-1.260125	-0.040396	-0.710854
N86	N	-0.760125	0.459604	-0.210854
H87	H	-1.689284	-0.459441	-0.000135
H88	H	-1.189284	0.040559	0.499865
H89	H	-1.345705	0.045255	-0.369635
H90	H	-0.845705	0.545255	0.130365
