data_functionalizedCrystal
_audit_creation_method	'MofGen! by Chris Wilmer'
_symmetry_space_group_name_H-M	'P1'
_symmetry_Int_Tables_number	1
_symmetry_cell_setting	triclinic
loop_
_symmetry_equiv_pos_as_xyz
  x,y,z
_cell_length_a	10.654546
_cell_length_b	10.654550
_cell_length_c	9.130313
_cell_angle_alpha	90.000110
_cell_angle_beta	89.998822
_cell_angle_gamma	95.515807
loop_
_atom_site_label
_atom_site_type_symbol
_atom_site_fract_x
_atom_site_fract_y
_atom_site_fract_z
O1	O	1.667837	-0.176372	-0.121827
O2	O	1.302358	-0.193183	-0.121823
O3	O	1.493500	-0.002038	-0.121820
O4	O	1.476694	-0.367517	-0.121831
O5	O	1.493498	-0.002043	0.121779
O6	O	1.302355	-0.193188	0.121776
O7	O	1.667834	-0.176377	0.121771
Cu8	Cu	1.485094	-0.184783	0.144016
Cu9	Cu	1.485097	-0.184777	-0.144068
O10	O	1.476692	-0.367522	0.121768
C11	C	1.255558	-0.191952	-0.000023
C12	C	1.116115	-0.188262	-0.000021
C13	C	1.050621	-0.186513	-0.132814
C14	C	0.919601	-0.183036	-0.132825
C15	C	0.919579	-0.183051	0.132759
C16	C	1.050596	-0.186538	0.132770
C17	C	1.116140	-0.188237	-0.265605
C18	C	1.050646	-0.186487	-0.398408
C19	C	0.919626	-0.183009	-0.398419
C20	C	0.854098	-0.181283	-0.265628
C21	C	1.492265	0.044757	-0.000022
C22	C	1.488573	0.184200	-0.000027
C23	C	1.714633	-0.177608	-0.000032
C24	C	1.854077	-0.181298	-0.000043
C25	C	1.477927	-0.414317	-0.000033
C26	C	1.481619	-0.553761	-0.000037
N27	N	1.485102	-0.184787	0.346639
C28	C	1.601115	0.263687	-0.000024
C29	C	1.597638	0.394708	-0.000034
C30	C	1.369068	0.366742	-0.000045
C31	C	1.372546	0.235724	-0.000045
C32	C	1.717142	0.212164	-0.000007
C33	C	1.829693	0.291652	-0.000002
C34	C	1.826216	0.422673	-0.000012
C35	C	1.710188	0.474206	-0.000027
N36	N	1.485100	-0.184764	-0.346690
C37	C	1.569762	-0.100177	0.423292
C38	C	1.569758	-0.100162	0.576629
C39	C	1.400431	-0.269378	0.576646
C40	C	1.400429	-0.269386	0.423312
C41	C	1.654434	-0.015578	0.346619
C42	C	1.739102	0.069038	0.423273
C43	C	1.739098	0.069053	0.576610
C44	C	1.654427	-0.015548	0.653293
H45	H	0.866303	-0.181597	-0.506554
C46	C	1.909767	0.094730	0.749050
C47	C	1.832155	0.162062	0.660874
H48	H	1.967214	0.152152	0.801075
H49	H	1.955388	0.042035	0.689239
H50	H	1.859331	0.044354	0.816655
H51	H	1.882591	0.212431	0.593262
H52	H	1.786530	0.214778	0.720691
C53	C	1.954921	0.586222	-0.125253
C54	C	1.949929	0.510045	-0.000021
H55	H	2.031304	0.640153	-0.125256
H56	H	1.885339	0.635661	-0.125249
H57	H	1.951527	0.534511	-0.210187
H58	H	1.953314	0.561757	0.084914
H59	H	2.019530	0.460603	-0.000012
C60	C	1.814223	0.144223	0.188214
C61	C	1.832114	0.162081	0.338988
H62	H	1.871637	0.201678	0.136186
H63	H	1.730280	0.158593	0.163122
H64	H	1.828640	0.060290	0.163078
H65	H	1.817688	0.246013	0.364126
H66	H	1.916077	0.147721	0.364090
H67	H	1.654423	-0.015520	0.778150
C68	C	0.653273	-0.284125	-0.193276
C69	C	0.710073	-0.177496	-0.265587
H70	H	0.564359	-0.281793	-0.193245
H71	H	0.682941	-0.284896	-0.095212
H72	H	0.673983	-0.358003	-0.242349
H73	H	0.689370	-0.103618	-0.216508
H74	H	0.680393	-0.176713	-0.363669
C75	C	1.290633	-0.300996	-0.193300
C76	C	1.260159	-0.192061	-0.265590
H77	H	1.379545	-0.303347	-0.193283
H78	H	1.252062	-0.373300	-0.242364
H79	H	1.260977	-0.300207	-0.095216
H80	H	1.289807	-0.192854	-0.363678
H81	H	1.298745	-0.119739	-0.216530
C82	C	1.328567	-0.486127	0.376093
C83	C	1.307379	-0.362393	0.339036
H84	H	1.271122	-0.543542	0.324055
H85	H	1.316441	-0.498229	0.478372
H86	H	1.412505	-0.500530	0.350959
H87	H	1.223443	-0.347987	0.364180
H88	H	1.319494	-0.350286	0.236735
C89	C	1.251500	-0.191803	-0.516319
C90	C	1.122669	-0.188387	-0.544367
H91	H	1.295959	-0.192969	-0.606432
H92	H	1.264016	-0.265480	-0.461772
H93	H	1.281899	-0.119261	-0.461749
H94	H	1.092267	-0.260934	-0.598927
H95	H	1.110145	-0.114703	-0.598936
C96	C	0.718728	-0.177696	0.250663
C97	C	0.847556	-0.181134	0.278716
H98	H	0.674270	-0.176500	0.340774
H99	H	0.688317	-0.250229	0.196113
H100	H	0.706229	-0.104011	0.196096
H101	H	0.860056	-0.254824	0.333274
H102	H	0.877977	-0.108594	0.333290
H103	H	1.103922	-0.187969	0.240901
H104	H	1.331496	-0.338257	0.639091
H105	H	1.280905	0.171003	-0.000045
C106	C	2.025580	0.275134	-0.125230
C107	C	1.957223	0.235009	-0.000000
H108	H	2.104310	0.240159	-0.125233
H109	H	2.039616	0.364529	-0.125224
H110	H	1.979179	0.247906	-0.210166
H111	H	2.003621	0.262246	0.084936
H112	H	1.943192	0.145596	0.000007
H113	H	1.707367	0.580893	-0.000051
H114	H	1.274604	0.408711	-0.000054
H115	H	1.654447	-0.015585	0.221765
H116	H	1.719985	0.105482	0.000006
