data_functionalizedCrystal
_audit_creation_method	'MofGen! by Chris Wilmer'
_symmetry_space_group_name_H-M	'P1'
_symmetry_Int_Tables_number	1
_symmetry_cell_setting	triclinic
loop_
_symmetry_equiv_pos_as_xyz
  x,y,z
_cell_length_a	14.853567
_cell_length_b	18.266242
_cell_length_c	14.853567
_cell_angle_alpha	90.002461
_cell_angle_beta	96.365070
_cell_angle_gamma	89.993618
loop_
_atom_site_label
_atom_site_type_symbol
_atom_site_fract_x
_atom_site_fract_y
_atom_site_fract_z
O1	O	1.196371	-0.060824	-0.117705
O2	O	1.696371	0.439176	0.382295
O3	O	0.933911	-0.060836	-0.131727
O4	O	1.433911	0.439164	0.368273
O5	O	1.072152	-0.060832	0.006514
O6	O	1.572152	0.439168	0.506514
O7	O	1.058131	-0.060828	-0.255946
O8	O	1.558131	0.439172	0.244054
O9	O	1.072128	0.060930	0.006520
O10	O	1.572128	0.560930	0.506520
O11	O	0.933887	0.060926	-0.131720
O12	O	1.433887	0.560926	0.368280
O13	O	1.196347	0.060938	-0.117699
O14	O	1.696347	0.560938	0.382301
Zn15	Zn	1.065113	0.080264	-0.124708
Zn16	Zn	1.565113	0.580264	0.375292
Zn17	Zn	1.065145	-0.080162	-0.124717
Zn18	Zn	1.565145	0.419838	0.375283
O19	O	1.058106	0.060934	-0.255939
O20	O	1.558106	0.560934	0.244061
C21	C	0.900311	0.000043	-0.131088
C22	C	1.400311	0.500043	0.368912
C23	C	0.800227	0.000039	-0.129184
C24	C	1.300227	0.500039	0.370816
C25	C	0.387693	0.000054	-0.039019
C26	C	0.887693	0.500054	0.460981
C27	C	0.366412	0.000055	-0.203251
C28	C	0.866412	0.500055	0.296749
C29	C	0.460446	0.000053	-0.205041
C30	C	0.960446	0.500053	0.294959
C31	C	0.518108	0.000050	-0.123819
C32	C	1.018108	0.500050	0.376181
C33	C	0.481736	0.000049	-0.040806
C34	C	0.981736	0.500049	0.459194
C35	C	0.496825	0.000046	-0.288053
C36	C	0.996825	0.500046	0.211947
C37	C	0.590864	0.000043	-0.289846
C38	C	1.090864	0.500043	0.210154
C39	C	0.648528	0.000045	-0.208623
C40	C	1.148528	0.500045	0.291377
C41	C	0.612150	0.000045	-0.125607
C42	C	1.112150	0.500045	0.374393
C43	C	0.669812	0.000042	-0.044384
C44	C	1.169812	0.500042	0.455616
C45	C	0.633437	0.000048	0.038633
C46	C	1.133437	0.500048	0.538633
C47	C	0.539399	0.000051	0.040417
C48	C	1.039399	0.500051	0.540417
C49	C	0.742565	0.000042	-0.210407
C50	C	1.242565	0.500042	0.289593
C51	C	0.763855	0.000038	-0.046172
C52	C	1.263855	0.500038	0.453828
N53	N	1.065098	0.189751	-0.124701
N54	N	1.565098	0.689751	0.375299
C55	C	1.126330	0.228062	-0.063519
C56	C	1.626330	0.728062	0.436481
C57	C	1.126336	0.304707	-0.063515
C58	C	1.626336	0.804707	0.436485
C59	C	1.065117	0.343038	-0.124709
C60	C	1.565117	0.843038	0.375291
C61	C	1.003872	0.304718	-0.185896
C62	C	1.503872	0.804718	0.314104
C63	C	1.003863	0.228075	-0.185893
C64	C	1.503863	0.728075	0.314107
N65	N	1.053741	0.463371	-0.204468
N66	N	1.553741	0.963371	0.295532
N67	N	1.053755	0.536179	-0.204468
N68	N	1.553755	1.036179	0.295532
C69	C	1.065140	0.573960	-0.124723
C70	C	1.565140	1.073960	0.375277
N71	N	1.076528	0.536183	-0.044974
N72	N	1.576528	1.036183	0.455026
N73	N	1.076519	0.463368	-0.044974
N74	N	1.576519	0.963368	0.455026
C75	C	1.065120	0.426145	-0.124720
C76	C	1.565120	0.926145	0.375280
C77	C	1.126382	0.695378	-0.063531
C78	C	1.626382	1.195378	0.436469
C79	C	1.126381	0.772025	-0.063526
C80	C	1.626381	1.272025	0.436474
C81	C	1.003922	0.772035	-0.185915
C82	C	1.503922	1.272035	0.314085
C83	C	1.003919	0.695390	-0.185912
C84	C	1.503919	1.195390	0.314088
C85	C	1.065154	0.657066	-0.124721
C86	C	1.565154	1.157066	0.375279
C87	C	1.229947	0.000057	-0.118337
C88	C	1.729947	0.500057	0.381663
C89	C	1.330031	0.000057	-0.120241
C90	C	1.830031	0.500057	0.379759
C91	C	1.071504	0.000047	0.040106
C92	C	1.571504	0.500047	0.540106
C93	C	1.069601	0.000040	0.140189
C94	C	1.569601	0.500040	0.640189
N95	N	1.065160	0.810351	-0.124719
N96	N	1.565160	1.310351	0.375281
C97	C	1.058754	0.000053	-0.289531
C98	C	1.558754	0.500053	0.210469
C99	C	1.060657	0.000055	-0.389615
C100	C	1.560657	0.500055	0.110385
C101	C	0.979435	0.000050	0.552723
C102	C	1.479435	0.500050	1.052723
C103	C	1.143668	0.000058	0.574004
C104	C	1.643668	0.500058	1.074004
C105	C	1.145458	0.000053	0.479971
C106	C	1.645458	0.500053	0.979971
C107	C	1.064235	0.000049	0.422309
C108	C	1.564235	0.500049	0.922309
C109	C	0.981223	0.000048	0.458680
C110	C	1.481223	0.500048	0.958680
C111	C	1.228469	0.000061	0.443591
C112	C	1.728469	0.500061	0.943591
C113	C	1.230262	0.000058	0.349552
C114	C	1.730262	0.500058	0.849552
C115	C	1.149039	0.000048	0.291889
C116	C	1.649039	0.500048	0.791889
C117	C	1.066023	0.000047	0.328266
C118	C	1.566023	0.500047	0.828266
C119	C	0.984800	0.000042	0.270604
C120	C	1.484800	0.500042	0.770604
C121	C	0.901783	0.000036	0.306979
C122	C	1.401783	0.500036	0.806979
C123	C	0.899999	0.000038	0.401017
C124	C	1.399999	0.500038	0.901017
C125	C	1.150823	0.000045	0.197851
C126	C	1.650823	0.500045	0.697851
C127	C	0.986588	0.000040	0.176561
C128	C	1.486588	0.500040	0.676561
H129	H	0.509774	0.000073	0.108005
H130	H	1.009774	0.500073	0.608005
H131	H	0.954073	0.803243	-0.235737
H132	H	1.454073	1.303243	0.264263
C133	C	0.302988	0.000060	-0.292588
C134	C	0.802988	0.500060	0.207412
H135	H	0.241773	0.000067	-0.279634
H136	H	0.741773	0.500067	0.220366
H137	H	0.314029	-0.042398	-0.326629
H138	H	0.814029	0.457602	0.173371
H139	H	0.314022	0.042529	-0.326614
H140	H	0.814022	0.542529	0.173386
C141	C	0.347690	0.000058	0.052295
C142	C	0.847690	0.500058	0.552295
H143	H	0.395502	0.000059	0.100409
H144	H	0.895502	0.500059	0.600409
H145	H	0.311447	-0.042399	0.056407
H146	H	0.811447	0.457601	0.556407
H147	H	0.311451	0.042528	0.056410
H148	H	0.811451	0.542528	0.556410
H149	H	0.449870	0.000041	-0.354180
H150	H	0.949870	0.500041	0.145820
H151	H	1.297860	0.000062	0.319944
H152	H	1.797860	0.500062	0.819944
C153	C	1.193742	0.814167	0.003777
C154	C	1.693742	1.314167	0.503777
H155	H	1.230213	0.780363	0.040212
H156	H	1.730213	1.280363	0.540212
H157	H	1.161278	0.844073	0.041371
H158	H	1.661278	1.344073	0.541371
H159	H	1.231309	0.844056	-0.028736
H160	H	1.731309	1.344056	0.471264
H161	H	0.953999	0.196882	-0.235716
H162	H	1.453999	0.696882	0.264284
C163	C	0.936572	0.653246	-0.253224
C164	C	1.436572	1.153246	0.246776
H165	H	0.900117	0.687050	-0.289675
H166	H	1.400117	1.187050	0.210325
H167	H	0.899003	0.623354	-0.220725
H168	H	1.399003	1.123354	0.279275
H169	H	0.969051	0.623342	-0.290814
H170	H	1.469051	1.123342	0.209186
C171	C	0.782580	0.000034	-0.301711
C172	C	1.282580	0.500034	0.198289
H173	H	0.846844	0.000027	-0.291144
H174	H	1.346844	0.500027	0.208856
H175	H	0.762791	0.042492	-0.335162
H176	H	1.262791	0.542492	0.164838
H177	H	0.762801	-0.042436	-0.335152
H178	H	1.262801	0.457564	0.164848
H179	H	1.209795	0.000067	0.620958
H180	H	1.709795	0.500067	1.120958
C181	C	0.630869	0.000047	-0.381159
C182	C	1.130869	0.500047	0.118841
H183	H	0.583059	0.000056	-0.429274
H184	H	1.083059	0.500056	0.070726
H185	H	0.667119	-0.042411	-0.385278
H186	H	1.167119	0.457589	0.114722
H187	H	0.667102	0.042516	-0.385263
H188	H	1.167102	0.542516	0.114737
H189	H	0.810798	0.000038	0.019971
H190	H	1.310798	0.500038	0.519971
H191	H	0.832411	0.000034	0.430643
H192	H	1.332411	0.500034	0.930643
H193	H	0.680397	0.000040	0.104764
H194	H	1.180397	0.500040	0.604764
H195	H	1.176189	0.196861	-0.013691
H196	H	1.676189	0.696861	0.486309
C197	C	1.193696	0.346857	0.003787
C198	C	1.693696	0.846857	0.503787
H199	H	1.230165	0.313056	0.040227
H200	H	1.730165	0.813056	0.540227
H201	H	1.161229	0.376767	0.041375
H202	H	1.661229	0.876767	0.541375
H203	H	1.231263	0.376745	-0.028727
H204	H	1.731263	0.876745	0.471273
H205	H	0.954025	0.335931	-0.235720
H206	H	1.454025	0.835931	0.264280
H207	H	1.176241	0.664174	-0.013702
H208	H	1.676241	1.164174	0.486298
C209	C	0.897241	0.000035	0.113140
C210	C	1.397241	0.500035	0.613140
H211	H	0.847548	0.000037	0.148274
H212	H	1.347548	0.500037	0.648274
H213	H	0.894533	-0.042424	0.076009
H214	H	1.394533	0.457576	0.576009
H215	H	0.894515	0.042503	0.076018
H216	H	1.394515	0.542503	0.576018
C217	C	0.812442	0.000031	0.243550
C218	C	1.312442	0.500031	0.743550
H219	H	0.762743	0.000032	0.278676
H220	H	1.262743	0.500032	0.778676
H221	H	0.809739	-0.042427	0.206418
H222	H	1.309739	0.457573	0.706418
H223	H	0.809721	0.042500	0.206430
H224	H	1.309721	0.542500	0.706430
H225	H	1.218414	0.000055	0.168238
H226	H	1.718414	0.500055	0.668238
H227	H	0.911844	0.000042	0.582344
H228	H	1.411844	0.500042	1.082344
C229	C	1.317805	0.000072	0.507017
C230	C	1.817805	0.500072	1.007017
H231	H	1.304848	0.000064	0.568232
H232	H	1.804848	0.500064	1.068232
H233	H	1.351827	0.042536	0.495982
H234	H	1.851827	0.542536	0.995982
H235	H	1.351850	-0.042392	0.495980
H236	H	1.851850	0.457608	0.995980
