data_functionalizedCrystal
_audit_creation_method	'MofGen! by Chris Wilmer'
_symmetry_space_group_name_H-M	'P1'
_symmetry_Int_Tables_number	1
_symmetry_cell_setting	triclinic
loop_
_symmetry_equiv_pos_as_xyz
  x,y,z
_cell_length_a	18.215407
_cell_length_b	19.805405
_cell_length_c	18.215399
_cell_angle_alpha	90.030610
_cell_angle_beta	90.019833
_cell_angle_gamma	90.026858
loop_
_atom_site_label
_atom_site_type_symbol
_atom_site_fract_x
_atom_site_fract_y
_atom_site_fract_z
Zn1	Zn	1.125064	-0.269462	0.416102
Zn2	Zn	1.625064	0.230538	0.916102
Zn3	Zn	1.124969	-0.382653	0.293030
Zn4	Zn	1.624969	0.117347	0.793030
Zn5	Zn	1.001997	-0.269484	0.293050
Zn6	Zn	1.501997	0.230516	0.793050
Zn7	Zn	1.001959	-0.382615	0.416055
Zn8	Zn	1.501959	0.117385	0.916055
O9	O	1.063497	-0.326054	0.354559
O10	O	1.563497	0.173946	0.854559
O11	O	1.228036	-0.284484	0.399788
O12	O	1.728036	0.215516	0.899788
O13	O	1.108633	-0.367666	0.190049
O14	O	1.608633	0.132334	0.690049
O15	O	1.018377	-0.174765	0.309401
O16	O	1.518377	0.325235	0.809401
O17	O	1.227966	-0.367644	0.309368
O18	O	1.727966	0.132356	0.809368
O19	O	1.108794	-0.174748	0.399807
O20	O	1.608794	0.325252	0.899807
O21	O	1.018285	-0.284521	0.190063
O22	O	1.518285	0.215479	0.690063
O23	O	0.899008	-0.284485	0.309355
O24	O	1.399008	0.215515	0.809355
O25	O	1.018313	-0.367580	0.519046
O26	O	1.518313	0.132420	1.019046
O27	O	0.898980	-0.367602	0.399727
O28	O	1.398980	0.132398	0.899727
O29	O	1.108758	-0.284447	0.519080
O30	O	1.608758	0.215553	1.019080
O31	O	1.108596	-0.477365	0.309322
O32	O	1.608596	0.022635	0.809322
O33	O	1.018221	-0.477337	0.399708
O34	O	1.518221	0.022663	0.899708
C35	C	0.872291	-0.326042	0.354538
C36	C	1.372291	0.173958	0.854538
C37	C	0.790492	-0.326053	0.354547
C38	C	1.290492	0.173947	0.854547
C39	C	0.602303	-0.369400	0.401544
C40	C	1.102303	0.130600	0.901544
C41	C	0.525444	-0.369403	0.401553
C42	C	1.025444	0.130597	0.901553
C43	C	0.525444	-0.282719	0.307591
C44	C	1.025444	0.217281	0.807591
C45	C	0.602301	-0.282714	0.307586
C46	C	1.102301	0.217286	0.807586
C47	C	0.640729	-0.326059	0.354561
C48	C	1.140729	0.173941	0.854561
C49	C	0.487013	-0.326066	0.354575
C50	C	0.987013	0.173934	0.854575
C51	C	0.403679	-0.326068	0.354585
C52	C	0.903679	0.173932	0.854585
C53	C	0.724068	-0.326056	0.354553
C54	C	1.224068	0.173944	0.854553
C55	C	1.063415	-0.501910	0.354524
C56	C	1.563415	-0.001910	0.854524
C57	C	1.063446	-0.577142	0.354533
C58	C	1.563446	-0.077142	0.854533
C59	C	1.110550	-0.612478	0.307518
C60	C	1.610550	-0.112478	0.807518
C61	C	1.110582	-0.683166	0.307535
C62	C	1.610582	-0.183166	0.807535
C63	C	1.063505	-0.718517	0.354562
C64	C	1.563505	-0.218517	0.854562
C65	C	1.016399	-0.683176	0.401582
C66	C	1.516399	-0.183176	0.901582
C67	C	1.016372	-0.612489	0.401569
C68	C	1.516372	-0.112489	0.901569
C69	C	1.016507	-0.968249	0.401637
C70	C	1.516507	-0.468249	0.901637
C71	C	1.016536	-1.038941	0.401645
C72	C	1.516536	-0.538941	0.901645
C73	C	1.110717	-1.038927	0.307602
C74	C	1.610717	-0.538927	0.807602
C75	C	1.110690	-0.968239	0.307589
C76	C	1.610690	-0.468239	0.807589
C77	C	1.063587	-0.932905	0.354611
C78	C	1.563587	-0.432905	0.854611
C79	C	1.063555	-0.856256	0.354594
C80	C	1.563555	-0.356256	0.854594
C81	C	1.063533	-0.795164	0.354577
C82	C	1.563533	-0.295164	0.854577
C83	C	1.255450	-0.326066	0.354581
C84	C	1.755450	0.173934	0.854581
C85	C	1.337249	-0.326071	0.354590
C86	C	1.837249	0.173929	0.854590
C87	C	1.063542	-0.326007	0.546512
C88	C	1.563542	0.173993	1.046512
C89	C	1.063561	-0.325987	0.628311
C90	C	1.563561	0.174013	1.128311
C91	C	1.063601	-0.149511	0.354611
C92	C	1.563601	0.350489	0.854611
C93	C	1.063645	-0.074279	0.354633
C94	C	1.563645	0.425721	0.854633
C95	C	1.063495	-0.326051	0.163353
C96	C	1.563495	0.173949	0.663353
C97	C	1.063619	-0.325880	0.081555
C98	C	1.563619	0.174120	0.581555
C99	C	1.110673	-0.282659	0.816524
C100	C	1.610673	0.217341	1.316524
C101	C	1.110682	-0.282639	0.893383
C102	C	1.610682	0.217361	1.393383
C103	C	1.016502	-0.369210	0.893336
C104	C	1.516502	0.130790	1.393336
C105	C	1.016490	-0.369226	0.816479
C106	C	1.516490	0.130774	1.316479
C107	C	1.063580	-0.325952	0.778075
C108	C	1.563580	0.174048	1.278075
C109	C	1.063600	-0.325916	0.931791
C110	C	1.563600	0.174084	1.431791
C111	C	1.063609	-0.325895	1.015125
C112	C	1.563609	0.174105	1.515125
C113	C	1.063570	-0.325972	0.694736
C114	C	1.563570	0.174028	1.194736
H115	H	0.633589	-0.404693	0.439797
H116	H	1.133589	0.095307	0.939797
O117	O	0.970832	-1.073387	0.447266
O118	O	1.470832	-0.573387	0.947266
C119	C	0.980971	-1.143354	0.437203
C120	C	1.480971	-0.643354	0.937203
H121	H	1.005102	-1.153022	0.380429
H122	H	1.505102	-0.653022	0.880429
H123	H	0.925856	-1.170260	0.442155
H124	H	1.425856	-0.670260	0.942155
H125	H	1.020151	-1.163357	0.480888
H126	H	1.520151	-0.663357	0.980888
O127	O	0.970673	-0.934036	0.447325
O128	O	1.470673	-0.434036	0.947325
C129	C	0.929137	-0.980398	0.488840
C130	C	1.429137	-0.480398	0.988840
H131	H	0.926637	-1.030808	0.458703
H132	H	1.426637	-0.530808	0.958703
H133	H	0.871138	-0.960019	0.496623
H134	H	1.371138	-0.460019	0.996623
H135	H	0.956048	-0.987857	0.544764
H136	H	1.456048	-0.487857	1.044764
O137	O	1.156456	-0.933825	0.262009
O138	O	1.656456	-0.433825	0.762009
C139	C	1.203959	-0.892887	0.303948
C140	C	1.703959	-0.392887	0.803948
H141	H	1.177966	-0.882283	0.359693
H142	H	1.677966	-0.382283	0.859693
H143	H	1.213819	-0.843190	0.273974
H144	H	1.713819	-0.343190	0.773974
H145	H	1.258503	-0.920082	0.312089
H146	H	1.758503	-0.420082	0.812089
H147	H	1.149073	-1.067705	0.269317
H148	H	1.649073	-0.567705	0.769317
H149	H	1.149028	-0.247385	0.924686
H150	H	1.649028	0.252615	1.424686
O151	O	0.970691	-0.717619	0.447196
O152	O	1.470691	-0.217619	0.947196
C153	C	0.980826	-0.787587	0.437139
C154	C	1.480826	-0.287587	0.937139
H155	H	1.004965	-0.797259	0.380369
H156	H	1.504965	-0.297259	0.880369
H157	H	0.925708	-0.814489	0.442084
H158	H	1.425708	-0.314489	0.942084
H159	H	1.019997	-0.807590	0.480831
H160	H	1.519997	-0.307590	0.980831
H161	H	1.149014	-0.247420	0.785258
H162	H	1.649014	0.252580	1.285258
H163	H	0.494146	-0.247431	0.269344
H164	H	0.994146	0.252569	0.769344
H165	H	0.494162	-0.404695	0.439812
H166	H	0.994162	0.095305	0.939812
O167	O	0.639518	-0.240588	0.261874
O168	O	1.139518	0.259412	0.761874
C169	C	0.589122	-0.202325	0.220421
C170	C	1.089122	0.297675	0.720421
H171	H	0.534322	-0.230047	0.217819
H172	H	1.034322	0.269953	0.717819
H173	H	0.611312	-0.195036	0.162452
H174	H	1.111312	0.304964	0.662452
H175	H	0.580982	-0.150951	0.247471
H176	H	1.080982	0.349049	0.747471
O177	O	1.156349	-0.578245	0.261809
O178	O	1.656349	-0.078245	0.761809
C179	C	1.197917	-0.624596	0.220304
C180	C	1.697917	-0.124596	0.720304
H181	H	1.200468	-0.674962	0.250461
H182	H	1.700468	-0.174962	0.750461
H183	H	1.255897	-0.604134	0.212501
H184	H	1.755897	-0.104134	0.712501
H185	H	1.171002	-0.632172	0.164389
H186	H	1.671002	-0.132172	0.664389
O187	O	1.156514	-0.717470	0.262023
O188	O	1.656514	-0.217470	0.762023
C189	C	1.204025	-0.758234	0.304059
C190	C	1.704025	-0.258234	0.804059
H191	H	1.208375	-0.736890	0.362032
H192	H	1.708375	-0.236890	0.862032
H193	H	1.260730	-0.758912	0.277604
H194	H	1.760730	-0.258912	0.777604
H195	H	1.181391	-0.811860	0.306532
H196	H	1.681391	-0.311860	0.806532
H197	H	0.978165	-0.404444	0.924614
H198	H	1.478165	0.095556	1.424614
O199	O	0.970548	-0.578266	0.447265
O200	O	1.470548	-0.078266	0.947265
C201	C	0.929016	-0.624624	0.488791
C202	C	1.429016	-0.124624	0.988791
H203	H	0.926497	-0.675032	0.458652
H204	H	1.426497	-0.175032	0.958652
H205	H	0.871023	-0.604235	0.496592
H206	H	1.371023	-0.104235	0.996592
H207	H	0.955943	-0.632089	0.544706
H208	H	1.455943	-0.132089	1.044706
O209	O	0.970719	-0.411348	0.779237
O210	O	1.470719	0.088652	1.279237
C211	C	0.929151	-0.449533	0.829613
C212	C	1.429151	0.050467	1.329613
H213	H	0.959299	-0.451869	0.884405
H214	H	1.459299	0.048131	1.384405
H215	H	0.921269	-0.502864	0.807383
H216	H	1.421269	-0.002864	1.307383
H217	H	0.873273	-0.424744	0.837783
H218	H	1.373273	0.075256	1.337783
