data_functionalizedCrystal
_audit_creation_method	'MofGen! by Chris Wilmer'
_symmetry_space_group_name_H-M	'P1'
_symmetry_Int_Tables_number	1
_symmetry_cell_setting	triclinic
loop_
_symmetry_equiv_pos_as_xyz
  x,y,z
_cell_length_a	19.851628
_cell_length_b	15.698487
_cell_length_c	19.851628
_cell_angle_alpha	119.992398
_cell_angle_beta	89.994907
_cell_angle_gamma	59.997754
loop_
_atom_site_label
_atom_site_type_symbol
_atom_site_fract_x
_atom_site_fract_y
_atom_site_fract_z
Zr1	Zr	0.648981	0.932283	0.088298
O2	O	0.541421	1.109986	0.195859
O3	O	0.681955	0.754574	0.055326
O4	O	0.681963	0.932255	0.195845
O5	O	0.541406	0.932329	-0.055506
O6	O	0.792824	0.932238	0.195831
O7	O	0.541413	0.932306	0.055340
O8	O	0.792810	0.614400	-0.055530
O9	O	0.541421	1.250168	0.195856
O10	O	0.778752	0.827658	0.041252
O11	O	0.696012	0.827688	-0.041461
O12	O	0.696022	1.036884	0.123981
O13	O	0.613282	1.036914	0.041268
Zr14	Zr	0.825783	0.932294	-0.088510
Zr15	Zr	0.825793	0.932256	0.088276
Zr16	Zr	0.648971	0.932320	-0.088489
Zr17	Zr	0.648981	1.155856	0.088294
Zr18	Zr	0.825783	0.708721	-0.088506
O19	O	0.792810	1.110003	-0.055539
O20	O	0.792824	1.109949	0.195828
O21	O	0.541406	1.110040	-0.055509
O22	O	0.933343	0.754590	-0.196072
O23	O	0.933358	0.754537	0.055296
O24	O	0.681940	0.754628	-0.196041
O25	O	0.933358	0.932247	0.055293
O26	O	0.792802	0.932322	-0.196058
O27	O	0.681940	0.932338	-0.196044
O28	O	0.933351	0.932271	-0.055553
O29	O	0.681962	1.250147	0.195839
O30	O	0.792802	0.614430	-0.196052
O31	O	0.933344	0.614409	-0.196069
O32	O	0.933352	0.614379	-0.055547
O33	O	0.541412	1.250198	0.055335
O34	O	0.681954	1.250177	0.055318
O35	O	0.778742	0.827693	-0.124194
O36	O	0.861482	0.827663	-0.041481
O37	O	0.778752	1.036889	0.041248
O38	O	0.696012	1.036919	-0.041465
C39	C	0.737382	0.652633	-0.000101
C40	C	0.737382	0.557720	-0.000100
C41	C	0.737380	0.383937	-0.000114
C42	C	0.737380	0.480642	-0.000108
C43	C	0.516218	0.932321	-0.000080
C44	C	0.441156	0.932332	-0.000070
C45	C	0.214703	1.046384	0.045009
C46	C	0.192344	0.989348	0.077696
C47	C	0.303750	0.932301	-0.000094
C48	C	0.192368	0.989345	-0.032766
C49	C	0.171018	0.932279	-0.000116
C50	C	0.282379	0.875264	0.032638
C51	C	0.282401	0.875277	-0.077867
C52	C	0.260095	0.818158	-0.045200
C53	C	0.380212	0.932317	-0.000079
C54	C	0.094560	0.932255	-0.000130
C55	C	0.958547	0.932256	-0.000133
C56	C	1.033608	0.932244	-0.000142
C57	C	0.737395	0.932241	0.221026
C58	C	0.737399	0.932225	0.296077
C59	C	0.737382	1.211944	-0.000111
C60	C	0.737382	1.306857	-0.000113
C61	C	0.782510	0.818161	0.432331
C62	C	0.704718	0.875191	0.499790
C63	C	0.737395	0.932247	0.433505
C64	C	0.815175	0.875201	0.499777
C65	C	0.737398	0.932260	0.566251
C66	C	0.659558	0.989278	0.499976
C67	C	0.770070	0.989272	0.499952
C68	C	0.692232	1.046385	0.567424
C69	C	0.737395	0.932237	0.357032
C70	C	0.737390	0.932280	0.642725
C71	C	0.737376	0.932319	0.778754
C72	C	0.737393	0.932287	0.703684
C73	C	0.958547	0.652600	-0.000128
C74	C	1.033608	0.557676	-0.000136
C75	C	0.737369	0.652680	-0.221234
C76	C	0.737365	0.557783	-0.296283
C77	C	0.958534	0.652647	-0.221261
C78	C	1.033591	0.557739	-0.296319
C79	C	0.516230	1.211930	0.221048
C80	C	0.441173	1.306837	0.296106
C81	C	0.516217	1.211977	-0.000085
C82	C	0.441156	1.306901	-0.000077
C83	C	0.737395	1.211897	0.221021
C84	C	0.737399	1.306793	0.296070
C85	C	1.025674	0.513096	0.043054
C86	C	1.096195	0.423917	0.043064
C87	C	1.174650	0.379314	-0.000122
C88	C	1.182583	0.423903	-0.043313
C89	C	1.112063	0.513086	-0.043317
C90	C	0.780547	0.513222	-0.374720
C91	C	0.780540	0.424069	-0.445243
C92	C	0.737355	0.379473	-0.437327
C93	C	0.694168	0.424043	-0.358882
C94	C	0.694170	0.513201	-0.288361
C95	C	1.112035	0.513154	-0.288392
C96	C	1.182566	0.423991	-0.358910
C97	C	1.174651	0.379408	-0.437354
C98	C	1.096198	0.424002	-0.445280
C99	C	1.025669	0.513170	-0.374763
C100	C	0.362729	1.351434	0.288179
C101	C	0.292198	1.440625	0.358697
C102	C	0.300114	1.485212	0.437142
C103	C	0.378566	1.440612	0.445067
C104	C	0.449095	1.351429	0.374550
C105	C	0.449091	1.351490	-0.043260
C106	C	0.378569	1.440693	-0.043250
C107	C	0.300114	1.485299	-0.000062
C108	C	0.292181	1.440706	0.043126
C109	C	0.362702	1.351511	0.043121
C110	C	0.780592	1.351361	0.288128
C111	C	0.780613	1.440514	0.358638
C112	C	0.737434	1.485105	0.437088
C113	C	0.694239	1.440529	0.445029
C114	C	0.694224	1.351371	0.374520
H115	H	0.153538	1.037554	0.143459
H116	H	0.242678	1.557830	0.494555
H117	H	0.593751	1.037467	0.499387
H118	H	0.815714	0.549522	-0.381181
H119	H	1.232086	0.306802	-0.494767
H120	H	0.196254	1.142847	0.083206
H121	H	1.089765	0.387690	-0.509159
H122	H	1.118535	0.549372	-0.078492
H123	H	0.815786	1.476799	0.352156
O124	O	0.328617	0.817857	0.065697
C125	C	0.399352	0.818577	0.065320
H126	H	0.387275	0.896131	0.063250
H127	H	0.453745	0.729670	0.008808
C128	C	0.434289	0.739443	0.146587
C129	C	0.419454	0.834704	0.144052
H130	H	0.446692	0.749385	0.195150
H131	H	0.386636	0.738953	0.146838
H132	H	0.479615	0.665364	0.099489
H133	H	0.374122	0.908779	0.191143
H134	H	0.467100	0.835206	0.143810
O135	O	0.822411	1.308164	0.211908
C136	C	0.766974	1.329948	0.168528
H137	H	0.701909	1.408114	0.214286
H138	H	0.768485	1.245784	0.126686
C139	C	0.872184	1.265844	0.059650
C140	C	0.792270	1.361855	0.115851
H141	H	0.887789	1.285520	0.027154
H142	H	0.909534	1.251162	0.088874
H143	H	0.873432	1.195715	0.024790
H144	H	0.791025	1.431976	0.150716
H145	H	0.754920	1.376548	0.086632
O146	O	0.282252	0.703005	-0.090824
C147	C	0.250890	0.683490	-0.156829
H148	H	0.239403	0.750932	-0.170725
H149	H	0.190452	0.695735	-0.139325
C150	C	0.327899	0.471698	-0.216736
C151	C	0.313797	0.554525	-0.233807
H152	H	0.366701	0.392145	-0.264219
H153	H	0.349026	0.484845	-0.172265
H154	H	0.277529	0.481917	-0.202148
H155	H	0.364164	0.544316	-0.248385
H156	H	0.292680	0.541373	-0.278282
O157	O	0.652283	1.483683	0.521177
C158	C	0.614132	1.425260	0.513081
H159	H	0.647990	1.334867	0.450158
H160	H	0.547099	1.483764	0.518870
C161	C	0.575685	1.515537	0.658695
C162	C	0.617275	1.404511	0.581415
H163	H	0.577620	1.502743	0.700849
H164	H	0.601385	1.554902	0.664151
H165	H	0.519828	1.564280	0.663508
H166	H	0.673132	1.355777	0.576599
H167	H	0.591584	1.365137	0.575960
H168	H	0.242698	1.557928	-0.000064
H169	H	0.654028	1.142925	0.625166
H170	H	0.321205	0.827113	-0.143615
O171	O	1.119669	0.556607	-0.212168
C172	C	1.081498	0.681559	-0.168757
H173	H	1.033397	0.719463	-0.195626
H174	H	1.129996	0.698547	-0.174652
C175	C	1.098344	0.697345	-0.044077
C176	C	1.039261	0.743900	-0.077074
H177	H	1.072293	0.735801	0.012478
H178	H	1.124063	0.613161	-0.073324
H179	H	1.138755	0.711505	-0.048997
H180	H	0.998857	0.729726	-0.072163
H181	H	1.013533	0.828083	-0.047824
H182	H	0.797729	1.037440	0.499240
O183	O	0.671729	0.817770	0.500758
C184	C	0.671520	0.819514	0.572463
H185	H	0.673187	0.897547	0.621631
H186	H	0.728009	0.731027	0.557163
C187	C	0.590685	0.739699	0.544649
C188	C	0.592725	0.835547	0.605041
H189	H	0.542083	0.749584	0.564743
H190	H	0.590827	0.738520	0.496338
H191	H	0.637763	0.665970	0.531905
H192	H	0.545653	0.909273	0.617776
H193	H	0.592572	0.836739	0.653354
H194	H	0.880954	0.826959	0.500421
H195	H	0.961799	0.549460	-0.381229
O196	O	0.386343	1.483896	0.521231
C197	C	0.429904	1.535415	0.530339
H198	H	0.423998	1.562365	0.485784
H199	H	0.497772	1.466973	0.516253
C200	C	0.401040	1.614645	0.674223
C201	C	0.393781	1.647754	0.619505
H202	H	0.378761	1.683937	0.729226
H203	H	0.371694	1.579931	0.668088
H204	H	0.457598	1.557607	0.662475
H205	H	0.337223	1.704778	0.631247
H206	H	0.423116	1.682479	0.625645
H207	H	0.512966	1.315119	0.381014
H208	H	0.737452	1.557704	0.494495
O209	O	0.652350	0.556451	-0.212125
C210	C	0.707804	0.534595	-0.168772
H211	H	0.764640	0.523512	-0.195694
H212	H	0.727135	0.448825	-0.174664
C213	C	0.595683	0.655164	-0.044023
C214	C	0.665487	0.641563	-0.077084
H215	H	0.569579	0.721144	0.012535
H216	H	0.558322	0.669886	-0.073231
H217	H	0.611802	0.583682	-0.048941
H218	H	0.649366	0.713038	-0.072175
H219	H	0.702844	0.626856	-0.047873
H220	H	0.961798	0.549411	0.078231
O221	O	1.258815	0.380474	-0.351312
C222	C	1.302203	0.255517	-0.389508
H223	H	1.275281	0.217694	-0.437569
H224	H	1.296343	0.238485	-0.341026
C225	C	1.426950	0.239577	-0.372773
C226	C	1.393887	0.193120	-0.431807
H227	H	1.483505	0.201086	-0.398861
H228	H	1.397718	0.323763	-0.347036
H229	H	1.422059	0.225380	-0.332375
H230	H	1.398769	0.207330	-0.472197
H231	H	1.423122	0.108934	-0.457551
H232	H	0.659048	1.315094	0.380998
H233	H	0.153565	1.037593	-0.060388
O234	O	0.215952	1.483912	0.351092
C235	C	0.172573	1.462107	0.389290
H236	H	0.199492	1.451020	0.437359
H237	H	0.178449	1.376355	0.340811
C238	C	0.047826	1.582721	0.372532
C239	C	0.080884	1.569113	0.431576
H240	H	-0.008733	1.648724	0.398612
H241	H	0.077051	1.597408	0.346794
H242	H	0.052730	1.511254	0.332137
H243	H	0.075989	1.640574	0.471963
H244	H	0.051655	1.554441	0.457321
H245	H	1.089719	0.387624	0.078235
H246	H	0.820594	0.721702	0.374493
O247	O	0.822573	0.380871	-0.521376
C248	C	0.860679	0.439367	-0.513231
H249	H	0.869225	0.476089	-0.450302
H250	H	0.820212	0.516836	-0.519000
C251	C	0.934928	0.303908	-0.658839
C252	C	0.945431	0.349002	-0.581551
H253	H	0.987206	0.248170	-0.700983
H254	H	0.909254	0.264501	-0.664327
H255	H	0.901203	0.368476	-0.663634
H256	H	0.979147	0.284437	-0.576752
H257	H	0.971113	0.388396	-0.576063
O258	O	1.243065	0.292638	-0.000063
C259	C	1.219228	0.262883	0.047336
H260	H	1.154126	0.287477	0.050582
H261	H	1.220509	0.315017	0.112313
C262	C	1.359360	0.096522	0.002966
C263	C	1.279403	0.126721	0.006947
H264	H	1.396480	0.012533	-0.021944
H265	H	1.375421	0.116571	-0.028965
H266	H	1.360416	0.139978	0.057117
H267	H	1.278345	0.083277	-0.047203
H268	H	1.263343	0.106661	0.038869
O269	O	0.652153	0.380880	-0.351053
C270	C	0.614054	0.439295	-0.266701
H271	H	0.605488	0.529692	-0.229076
H272	H	0.654536	0.380790	-0.245937
C273	C	0.539843	0.348999	-0.299646
C274	C	0.529315	0.460031	-0.253434
H275	H	0.487574	0.361786	-0.291461
H276	H	0.565513	0.309640	-0.356475
H277	H	0.573581	0.300256	-0.282337
H278	H	0.495587	0.508766	-0.270750
H279	H	0.503637	0.499399	-0.196607
H280	H	0.356268	1.315135	0.224312
O281	O	1.258859	0.380395	-0.085253
C282	C	1.319391	0.292138	-0.075967
H283	H	1.291887	0.253166	-0.060049
H284	H	1.341457	0.334784	-0.024273
C285	C	1.426637	0.238636	-0.176706
C286	C	1.392859	0.190762	-0.157163
H287	H	1.471958	0.176104	-0.226790
H288	H	1.385857	0.298098	-0.182961
H289	H	1.445020	0.274173	-0.133622
H290	H	1.374468	0.155240	-0.200242
H291	H	1.433639	0.131291	-0.150918
H292	H	0.737359	0.306876	-0.494757
O293	O	0.525235	1.308338	-0.085230
C294	C	0.517099	1.366817	-0.123352
H295	H	0.454166	1.457213	-0.089471
H296	H	0.522869	1.308354	-0.190375
C297	C	0.662723	1.276535	-0.161838
C298	C	0.585431	1.387565	-0.120221
H299	H	0.704875	1.289329	-0.159910
H300	H	0.668206	1.237132	-0.136157
H301	H	0.667520	1.227827	-0.217686
H302	H	0.580631	1.436265	-0.064371
H303	H	0.579949	1.426976	-0.145892
H304	H	0.385045	1.476986	-0.078421
H305	H	0.228293	1.477038	0.078289
H306	H	0.356229	1.315209	0.078282
