data_functionalizedCrystal
_audit_creation_method	'MofGen! by Chris Wilmer'
_symmetry_space_group_name_H-M	'P1'
_symmetry_Int_Tables_number	1
_symmetry_cell_setting	triclinic
loop_
_symmetry_equiv_pos_as_xyz
  x,y,z
_cell_length_a	10.654550
_cell_length_b	10.654551
_cell_length_c	9.730223
_cell_angle_alpha	89.997362
_cell_angle_beta	89.999957
_cell_angle_gamma	84.485180
loop_
_atom_site_label
_atom_site_type_symbol
_atom_site_fract_x
_atom_site_fract_y
_atom_site_fract_z
O1	O	1.667840	0.176399	-0.114181
O2	O	1.302361	0.193205	-0.114206
O3	O	1.493503	0.002062	-0.114190
O4	O	1.476698	0.367541	-0.114197
O5	O	1.493490	0.002057	0.114390
O6	O	1.302349	0.193199	0.114374
O7	O	1.667827	0.176393	0.114398
Zn8	Zn	1.485086	0.184795	0.150678
Zn9	Zn	1.485103	0.184802	-0.150486
O10	O	1.476686	0.367535	0.114383
C11	C	1.255557	0.191968	0.000081
C12	C	1.116114	0.188276	0.000071
C13	C	1.036629	0.300818	0.000073
C14	C	0.905608	0.297341	0.000097
C15	C	0.933570	0.068772	0.000112
C16	C	1.064589	0.072249	0.000097
C17	C	1.492262	-0.044738	0.000097
C18	C	1.488570	-0.184181	0.000091
C19	C	1.486844	-0.249682	-0.124510
C20	C	1.483364	-0.380703	-0.124511
C21	C	1.483342	-0.380710	0.124699
C22	C	1.486813	-0.249691	0.124699
C23	C	1.405180	-0.550771	-0.274214
C24	C	1.403476	-0.616279	-0.398822
C25	C	1.478075	-0.582737	-0.508827
C26	C	1.554409	-0.483691	-0.494231
C27	C	1.556125	-0.418191	-0.369622
C28	C	1.481496	-0.451729	-0.259621
C29	C	1.565006	-0.079621	0.274394
C30	C	1.566731	-0.014120	0.399005
C31	C	1.492140	-0.047661	0.509022
C32	C	1.415824	-0.146713	0.494439
C33	C	1.414100	-0.212214	0.369829
C34	C	1.488689	-0.178664	0.259811
C35	C	1.714632	0.177630	0.000109
C36	C	1.854075	0.181322	0.000109
C37	C	1.477926	0.414336	0.000092
C38	C	1.481619	0.553779	0.000089
N39	N	1.485084	0.184790	0.356214
N40	N	1.485114	0.184798	-0.356022
C41	C	1.569751	0.100188	0.428147
C42	C	1.569763	0.100189	0.572030
C43	C	1.400439	0.269404	0.572035
C44	C	1.400421	0.269396	0.428154
H45	H	0.891602	-0.025693	0.000141
H46	H	1.129309	-0.019401	0.000100
H47	H	1.476685	-0.636082	-0.610285
Cl48	Cl	1.294015	0.375766	0.662480
Cl49	Cl	1.101399	0.446679	0.000048
Cl50	Cl	0.805688	0.438829	0.000101
H51	H	1.638705	0.031297	0.630594
H52	H	1.488271	-0.196348	-0.225974
Cl53	Cl	1.658809	-0.037467	0.136094
H54	H	1.331469	0.338290	0.369583
Cl55	Cl	1.307511	-0.740785	-0.417171
Cl56	Cl	1.652078	-0.293686	-0.351265
Cl57	Cl	1.676180	-0.006179	0.337715
H58	H	1.615163	-0.456399	-0.583808
Cl59	Cl	1.311368	-0.592930	-0.135931
H60	H	1.481913	-0.434065	0.226151
H61	H	1.351952	-0.292865	0.357960
Cl62	Cl	1.322056	-0.188892	0.632753
Cl63	Cl	1.662687	0.110392	0.417343
Cl64	Cl	1.494325	0.034674	0.665684
