data_functionalizedCrystal
_audit_creation_method	'MofGen! by Chris Wilmer'
_symmetry_space_group_name_H-M	'P1'
_symmetry_Int_Tables_number	1
_symmetry_cell_setting	triclinic
loop_
_symmetry_equiv_pos_as_xyz
  x,y,z
_cell_length_a	16.109301
_cell_length_b	17.699083
_cell_length_c	15.186229
_cell_angle_alpha	89.995368
_cell_angle_beta	89.999362
_cell_angle_gamma	83.372248
loop_
_atom_site_label
_atom_site_type_symbol
_atom_site_fract_x
_atom_site_fract_y
_atom_site_fract_z
O1	O	1.102963	0.097285	-0.073175
O2	O	1.602963	0.597285	0.426825
O3	O	0.860880	0.109391	-0.073189
O4	O	1.360880	0.609391	0.426811
O5	O	0.988761	-0.006841	-0.073174
O6	O	1.488761	0.493159	0.426826
O7	O	0.975082	0.213517	-0.073190
O8	O	1.475082	0.713517	0.426810
O9	O	0.988753	-0.006843	0.073284
O10	O	1.488753	0.493157	0.573284
O11	O	0.860872	0.109390	0.073268
O12	O	1.360872	0.609390	0.573268
O13	O	1.102955	0.097283	0.073283
O14	O	1.602955	0.597283	0.573283
Zn15	Zn	0.981912	0.103336	0.096529
Zn16	Zn	1.481912	0.603336	0.596529
Zn17	Zn	0.981923	0.103338	-0.096435
Zn18	Zn	1.481923	0.603338	0.403565
O19	O	0.975074	0.213516	0.073267
O20	O	1.475074	0.713516	0.573267
C21	C	0.829902	0.108900	0.000038
C22	C	1.329902	0.608900	0.500038
C23	C	0.737609	0.107430	0.000033
C24	C	1.237609	0.607430	0.500033
C25	C	0.988267	-0.035040	0.000055
C26	C	1.488267	0.464960	0.500055
C27	C	0.986796	-0.119060	0.000055
C28	C	1.486796	0.380940	0.500055
C29	C	0.515224	0.172981	0.000038
C30	C	1.015224	0.672981	0.500038
C31	C	0.428506	0.171594	0.000044
C32	C	0.928506	0.671594	0.500044
C33	C	0.448618	0.033688	0.000050
C34	C	0.948618	0.533688	0.500050
C35	C	0.535334	0.035076	0.000051
C36	C	1.035334	0.535076	0.500051
C37	C	0.568635	0.104725	0.000040
C38	C	1.068635	0.604725	0.500040
C39	C	0.395200	0.101949	0.000046
C40	C	0.895200	0.601949	0.500046
C41	C	0.301177	0.100445	0.000052
C42	C	0.801177	0.600445	0.500052
C43	C	0.662664	0.106230	0.000036
C44	C	1.162664	0.606230	0.500036
C45	C	1.061860	-0.167574	0.000061
C46	C	1.561860	0.332426	0.500061
C47	C	1.060473	-0.246519	0.000053
C48	C	1.560473	0.253481	0.500053
C49	C	0.984022	-0.276949	0.000046
C50	C	1.484022	0.223051	0.500046
C51	C	0.908953	-0.228429	0.000038
C52	C	1.408953	0.271571	0.500038
C53	C	0.910341	-0.149485	0.000039
C54	C	1.410341	0.350515	0.500039
C55	C	0.903356	-0.546800	0.000030
C56	C	1.403356	-0.046800	0.500030
C57	C	0.901974	-0.625750	0.000031
C58	C	1.401974	-0.125750	0.500031
C59	C	1.053488	-0.643834	0.000044
C60	C	1.553488	-0.143834	0.500044
C61	C	1.054876	-0.564890	0.000046
C62	C	1.554876	-0.064890	0.500046
C63	C	0.979807	-0.516377	0.000033
C64	C	1.479807	-0.016377	0.500033
C65	C	0.981312	-0.430776	0.000040
C66	C	1.481312	0.069224	0.500040
C67	C	0.982517	-0.362549	0.000045
C68	C	1.482517	0.137451	0.500045
C69	C	1.133933	0.097774	0.000054
C70	C	1.633933	0.597774	0.500054
C71	C	1.226226	0.099244	0.000053
C72	C	1.726226	0.599244	0.500053
C73	C	0.975568	0.241714	0.000037
C74	C	1.475568	0.741714	0.500037
C75	C	0.977039	0.325734	0.000031
C76	C	1.477039	0.825734	0.500031
N77	N	0.981910	0.103334	0.228221
N78	N	1.481910	0.603334	0.728221
N79	N	0.981931	0.103334	-0.228128
N80	N	1.481931	0.603334	0.271872
C81	C	1.038555	0.051884	0.453951
C82	C	1.538555	0.551884	0.953951
C83	C	1.038558	0.051882	0.546141
C84	C	1.538558	0.551882	1.046141
C85	C	0.925280	0.154787	0.546136
C86	C	1.425280	0.654787	1.046136
C87	C	0.925274	0.154785	0.453948
C88	C	1.425274	0.654785	0.953948
C89	C	0.981916	0.103334	0.407858
C90	C	1.481916	0.603334	0.907858
C91	C	0.981925	0.103334	0.592236
C92	C	1.481925	0.603334	1.092236
C93	C	0.981927	0.103333	0.692192
C94	C	1.481927	0.603333	1.192192
C95	C	0.981913	0.103334	0.307896
C96	C	1.481913	0.603334	0.807896
H97	H	0.542334	0.229694	0.000036
H98	H	1.042334	0.729694	0.500036
C99	C	0.863002	0.211421	0.403243
C100	C	1.363002	0.711421	0.903243
N101	N	0.816113	0.254090	0.365052
N102	N	1.316113	0.754090	0.865052
H103	H	0.385022	0.227175	0.000044
H104	H	0.885022	0.727175	0.500044
H105	H	0.578824	-0.020510	0.000055
H106	H	1.078824	0.479490	0.500055
H107	H	1.084675	0.009988	0.416427
H108	H	1.584675	0.509988	0.916427
C109	C	0.411979	-0.042922	0.000054
C110	C	0.911979	0.457078	0.500054
N111	N	0.384383	-0.100627	0.000053
N112	N	0.884383	0.399373	0.500053
C113	C	1.136066	-0.697206	0.000049
C114	C	1.636066	-0.197206	0.500049
N115	N	1.198262	-0.737404	0.000054
N116	N	1.698262	-0.237404	0.500054
C117	C	1.138977	-0.531422	0.000054
C118	C	1.638977	-0.031422	0.500054
N119	N	1.202325	-0.506216	0.000056
N120	N	1.702325	-0.006216	0.500056
C121	C	0.817868	-0.659220	0.000016
C122	C	1.317868	-0.159220	0.500016
N123	N	0.754523	-0.684430	0.000004
N124	N	1.254523	-0.184430	0.500004
C125	C	0.820778	-0.493446	0.000011
C126	C	1.320778	0.006554	0.500011
N127	N	0.758576	-0.453256	-0.000006
N128	N	1.258576	0.046744	0.499994
H129	H	1.084677	0.009985	0.583667
H130	H	1.584677	0.509985	1.083667
H131	H	1.124115	-0.142805	0.000072
H132	H	1.624115	0.357195	0.500072
C133	C	0.862976	0.211379	0.596844
C134	C	1.362976	0.711379	1.096844
N135	N	0.816047	0.254005	0.635036
N136	N	1.316047	0.754005	1.135036
H137	H	1.121597	-0.286017	0.000060
H138	H	1.621597	0.213983	0.500060
C139	C	0.824856	-0.261905	0.000037
C140	C	1.324856	0.238095	0.500037
N141	N	0.761513	-0.287118	0.000043
N142	N	1.261513	0.212882	0.500043
H143	H	0.849216	-0.109986	0.000034
H144	H	1.349216	0.390014	0.500034
