data_functionalizedCrystal
_audit_creation_method	'MofGen! by Chris Wilmer'
_symmetry_space_group_name_H-M	'P1'
_symmetry_Int_Tables_number	1
_symmetry_cell_setting	triclinic
loop_
_symmetry_equiv_pos_as_xyz
  x,y,z
_cell_length_a	14.044220
_cell_length_b	19.188924
_cell_length_c	13.101039
_cell_angle_alpha	93.348752
_cell_angle_beta	86.340132
_cell_angle_gamma	88.165421
loop_
_atom_site_label
_atom_site_type_symbol
_atom_site_fract_x
_atom_site_fract_y
_atom_site_fract_z
O1	O	1.262226	0.164759	-0.085114
O2	O	1.762226	0.664759	0.414886
O3	O	0.986284	0.158686	-0.085140
O4	O	1.486284	0.658686	0.414860
O5	O	1.132221	0.060581	-0.085114
O6	O	1.632221	0.560581	0.414886
O7	O	1.116289	0.262864	-0.085140
O8	O	1.616289	0.762864	0.414860
O9	O	1.121750	0.067633	0.085314
O10	O	1.621750	0.567633	0.585314
O11	O	0.975813	0.165737	0.085288
O12	O	1.475813	0.665737	0.585288
O13	O	1.251756	0.171811	0.085314
O14	O	1.751756	0.671811	0.585314
Zn15	Zn	1.112122	0.169894	0.112360
Zn16	Zn	1.612122	0.669894	0.612360
Zn17	Zn	1.125918	0.160603	-0.112186
Zn18	Zn	1.625918	0.660603	0.387814
O19	O	1.105819	0.269916	0.085288
O20	O	1.605819	0.769916	0.585288
C21	C	0.945746	0.159553	0.000071
C22	C	1.445746	0.659553	0.500071
C23	C	0.840553	0.151624	0.000062
C24	C	1.340553	0.651624	0.500062
C25	C	0.647951	0.137129	0.000084
C26	C	1.147951	0.637129	0.500084
C27	C	0.590083	0.193364	0.000081
C28	C	1.090083	0.693364	0.500081
C29	C	0.482913	0.185299	0.000093
C30	C	0.982913	0.685299	0.500093
C31	C	0.755132	0.145193	0.000072
C32	C	1.255132	0.645193	0.500072
C33	C	1.126471	0.038063	0.000101
C34	C	1.626471	0.538063	0.500101
C35	C	1.124925	-0.039542	0.000103
C36	C	1.624925	0.460458	0.500103
C37	C	1.129911	-0.079831	-0.092797
C38	C	1.629911	0.420169	0.407203
C39	C	1.128446	-0.152748	-0.092805
C40	C	1.628446	0.347252	0.407195
C41	C	1.122013	-0.185374	0.000093
C42	C	1.622013	0.314626	0.500093
C43	C	1.117021	-0.145076	0.093006
C44	C	1.617021	0.354924	0.593006
C45	C	1.118477	-0.072159	0.093011
C46	C	1.618477	0.427841	0.593011
N47	N	1.169405	-0.298844	0.069239
N48	N	1.669405	0.201156	0.569239
N49	N	1.168025	-0.368112	0.069228
N50	N	1.668025	0.131888	0.569228
C51	C	1.117624	-0.405067	0.000083
C52	C	1.617624	0.094933	0.500083
N53	N	1.068670	-0.370139	-0.069067
N54	N	1.568670	0.129861	0.430933
N55	N	1.070055	-0.300865	-0.069059
N56	N	1.570055	0.199135	0.430941
C57	C	1.120433	-0.264440	0.000097
C58	C	1.620433	0.235560	0.500097
C59	C	1.121021	-0.524422	-0.092833
C60	C	1.621021	-0.024422	0.407167
C61	C	1.119550	-0.597341	-0.092837
C62	C	1.619550	-0.097341	0.407163
C63	C	1.108134	-0.589667	0.092976
C64	C	1.608134	-0.089667	0.592976
C65	C	1.109596	-0.516750	0.092978
C66	C	1.609596	-0.016750	0.592978
C67	C	1.116044	-0.484132	0.000070
C68	C	1.616044	0.015868	0.500070
C69	C	1.292294	0.170943	0.000101
C70	C	1.792294	0.670943	0.500101
C71	C	1.397487	0.178872	0.000103
C72	C	1.897487	0.678872	0.500103
C73	C	1.111569	0.292434	0.000071
C74	C	1.611569	0.792434	0.500071
C75	C	1.113115	0.370038	0.000062
C76	C	1.613115	0.870038	0.500062
N77	N	1.102714	0.176235	0.265607
N78	N	1.602714	0.676235	0.765607
N79	N	1.135334	0.154257	-0.265433
N80	N	1.635334	0.654257	0.234567
C81	C	1.089913	0.184868	0.474647
C82	C	1.589913	0.684868	0.974647
C83	C	1.148131	0.145626	0.525533
C84	C	1.648131	0.645626	1.025533
C85	C	1.141009	0.150430	0.641851
C86	C	1.641009	0.650430	1.141851
C87	C	1.097034	0.180065	0.358320
C88	C	1.597034	0.680065	0.858320
H89	H	0.617008	0.082933	0.000096
H90	H	1.117008	0.582933	0.500096
H91	H	1.203322	0.108423	0.481741
H92	H	1.703322	0.608423	0.981741
N93	N	1.020672	0.231530	0.529577
N94	N	1.520672	0.731530	1.029577
N95	N	0.958276	0.208203	0.589476
N96	N	1.458276	0.708203	1.089476
H97	H	0.909375	0.241157	0.628282
H98	H	1.409375	0.741157	1.128282
N99	N	1.124674	-0.638495	-0.187743
N100	N	1.624674	-0.138495	0.312257
N101	N	1.191926	-0.682311	-0.208455
N102	N	1.691926	-0.182311	0.291545
H103	H	1.195552	-0.711376	-0.275485
H104	H	1.695552	-0.211376	0.224515
N105	N	0.628911	0.261356	0.000072
N106	N	1.128911	0.761356	0.500072
N107	N	0.717178	0.267898	0.000062
N108	N	1.217178	0.767898	0.500062
H109	H	0.744606	0.315915	0.000054
H110	H	1.244606	0.815915	0.500054
N111	N	1.133563	-0.193915	-0.187704
N112	N	1.633563	0.306085	0.312296
N113	N	1.200813	-0.237734	-0.208415
N114	N	1.700813	0.262266	0.291585
H115	H	1.204429	-0.266807	-0.275438
H116	H	1.704429	0.233193	0.224562
H117	H	1.135159	-0.053278	-0.168450
H118	H	1.635159	0.446722	0.331550
H119	H	1.111780	-0.171644	0.168644
H120	H	1.611780	0.328356	0.668644
H121	H	1.114412	-0.039355	0.168664
H122	H	1.614412	0.460645	0.668664
N123	N	1.127610	-0.491110	-0.187739
N124	N	1.627610	0.008890	0.312261
N125	N	1.132055	-0.527095	-0.270684
N126	N	1.632055	-0.027095	0.229316
H127	H	1.136710	-0.503571	-0.337713
H128	H	1.636710	-0.003571	0.162287
N129	N	1.101549	-0.622995	0.187862
N130	N	1.601549	-0.122995	0.687862
N131	N	1.100243	-0.688098	0.187847
N132	N	1.600243	-0.188098	0.687847
H133	H	1.095587	-0.711640	0.254862
H134	H	1.595587	-0.211640	0.754862
N135	N	1.104504	-0.475601	0.187884
N136	N	1.604504	0.024399	0.687884
N137	N	1.098757	-0.504737	0.270824
N138	N	1.598757	-0.004737	0.770824
H139	H	1.095157	-0.475676	0.337857
H140	H	1.595157	0.024324	0.837857
