data_functionalizedCrystal
_audit_creation_method	'MofGen! by Chris Wilmer'
_symmetry_space_group_name_H-M	'P1'
_symmetry_Int_Tables_number	1
_symmetry_cell_setting	triclinic
loop_
_symmetry_equiv_pos_as_xyz
  x,y,z
_cell_length_a	18.215407
_cell_length_b	18.101397
_cell_length_c	18.215399
_cell_angle_alpha	90.027938
_cell_angle_beta	90.017813
_cell_angle_gamma	90.014279
loop_
_atom_site_label
_atom_site_type_symbol
_atom_site_fract_x
_atom_site_fract_y
_atom_site_fract_z
Zn1	Zn	1.125098	-0.294946	0.416076
Zn2	Zn	1.458431	0.038388	0.749410
Zn3	Zn	1.791765	0.371721	1.082743
Zn4	Zn	1.125017	-0.418792	0.293010
Zn5	Zn	1.458351	-0.085459	0.626343
Zn6	Zn	1.791684	0.247875	0.959677
Zn7	Zn	1.002031	-0.294957	0.293028
Zn8	Zn	1.335364	0.038376	0.626361
Zn9	Zn	1.668697	0.371710	0.959695
Zn10	Zn	1.002008	-0.418738	0.416039
Zn11	Zn	1.335341	-0.085405	0.749373
Zn12	Zn	1.668674	0.247929	1.082706
O13	O	1.063538	-0.356858	0.354538
O14	O	1.396872	-0.023525	0.687872
O15	O	1.730205	0.309809	1.021205
O16	O	1.228072	-0.311392	0.399759
O17	O	1.561405	0.021941	0.733093
O18	O	1.894738	0.355275	1.066426
O19	O	1.108679	-0.402392	0.190028
O20	O	1.442012	-0.069059	0.523361
O21	O	1.775346	0.264274	0.856695
O22	O	1.018399	-0.191323	0.309374
O23	O	1.351733	0.142011	0.642707
O24	O	1.685066	0.475344	0.976040
O25	O	1.228012	-0.402381	0.309343
O26	O	1.561346	-0.069048	0.642676
O27	O	1.894679	0.264285	0.976010
O28	O	1.108816	-0.191314	0.399777
O29	O	1.442150	0.142019	0.733110
O30	O	1.775483	0.475352	1.066443
O31	O	1.018321	-0.311411	0.190041
O32	O	1.351654	0.021922	0.523375
O33	O	1.684988	0.355255	0.856708
O34	O	0.899043	-0.311359	0.309338
O35	O	1.232377	0.021974	0.642671
O36	O	1.565710	0.355308	0.976004
O37	O	1.018360	-0.402289	0.519028
O38	O	1.351693	-0.068956	0.852362
O39	O	1.685026	0.264377	1.185695
O40	O	0.899026	-0.402300	0.399714
O41	O	1.232360	-0.068967	0.733047
O42	O	1.565693	0.264366	1.066380
O43	O	1.108794	-0.311340	0.519056
O44	O	1.442127	0.021994	0.852389
O45	O	1.775461	0.355327	1.185722
O46	O	1.108657	-0.522418	0.309307
O47	O	1.441990	-0.189084	0.642640
O48	O	1.775323	0.144249	0.975974
O49	O	1.018282	-0.522378	0.399696
O50	O	1.351615	-0.189045	0.733029
O51	O	1.684948	0.144289	1.066363
C52	C	0.872332	-0.356826	0.354524
C53	C	1.205666	-0.023492	0.687857
C54	C	1.538999	0.309841	1.021191
C55	C	0.790533	-0.356829	0.354535
C56	C	1.123867	-0.023496	0.687869
C57	C	1.457200	0.309837	1.021202
C58	C	0.525501	-0.309571	0.401693
C59	C	0.858834	0.023762	0.735026
C60	C	1.192168	0.357095	1.068360
C61	C	0.602360	-0.309559	0.401691
C62	C	0.935693	0.023774	0.735024
C63	C	1.269026	0.357107	1.068357
C64	C	0.602317	-0.404169	0.307400
C65	C	0.935651	-0.070836	0.640733
C66	C	1.268984	0.262498	0.974066
C67	C	0.525460	-0.404184	0.307406
C68	C	0.858793	-0.070851	0.640740
C69	C	1.192127	0.262482	0.974073
C70	C	0.487054	-0.356881	0.354552
C71	C	0.820387	-0.023548	0.687885
C72	C	1.153720	0.309786	1.021219
C73	C	0.640770	-0.356854	0.354543
C74	C	0.974103	-0.023521	0.687876
C75	C	1.307436	0.309813	1.021210
C76	C	0.724103	-0.356841	0.354540
C77	C	1.057437	-0.023508	0.687873
C78	C	1.390770	0.309825	1.021207
C79	C	0.403715	-0.356895	0.354556
C80	C	0.737048	-0.023561	0.687889
C81	C	1.070381	0.309772	1.021223
C82	C	1.063478	-0.549269	0.354512
C83	C	1.396811	-0.215935	0.687845
C84	C	1.730144	0.117398	1.021178
C85	C	1.063519	-0.631583	0.354525
C86	C	1.396853	-0.298249	0.687858
C87	C	1.730186	0.035084	1.021192
C88	C	1.063564	-0.782291	0.354550
C89	C	1.396897	-0.448958	0.687883
C90	C	1.730231	-0.115625	1.021217
C91	C	1.120481	-0.813639	0.297735
C92	C	1.453815	-0.480305	0.631068
C93	C	1.787148	-0.146972	0.964401
C94	C	1.120340	-0.899257	0.297526
C95	C	1.453673	-0.565924	0.630859
C96	C	1.787007	-0.232591	0.964192
C97	C	1.063609	-0.930674	0.354574
C98	C	1.396942	-0.597340	0.687908
C99	C	1.730276	-0.264007	1.021241
C100	C	0.985996	-0.899650	0.333701
C101	C	1.319329	-0.566316	0.667035
C102	C	1.652663	-0.232983	1.000368
C103	C	0.986299	-0.814005	0.333275
C104	C	1.319632	-0.480672	0.666608
C105	C	1.652966	-0.147338	0.999941
C106	C	1.083591	-0.813788	0.432386
C107	C	1.416924	-0.480454	0.765719
C108	C	1.750258	-0.147121	1.099053
C109	C	1.085328	-0.899438	0.431986
C110	C	1.418662	-0.566104	0.765319
C111	C	1.751995	-0.232771	1.098652
C112	C	1.063630	-1.014533	0.354590
C113	C	1.396963	-0.681200	0.687923
C114	C	1.730297	-0.347867	1.021256
C115	C	1.063538	-0.698432	0.354533
C116	C	1.396871	-0.365098	0.687866
C117	C	1.730205	-0.031765	1.021200
C118	C	1.255491	-0.356891	0.354553
C119	C	1.588825	-0.023558	0.687887
C120	C	1.922158	0.309775	1.021220
C121	C	1.337290	-0.356906	0.354560
C122	C	1.670624	-0.023572	0.687893
C123	C	2.003957	0.309761	1.021226
C124	C	1.063583	-0.356807	0.546491
C125	C	1.396917	-0.023474	0.879825
C126	C	1.730250	0.309860	1.213158
C127	C	1.063602	-0.356785	0.628290
C128	C	1.396936	-0.023452	0.961624
C129	C	1.730269	0.309881	1.294957
C130	C	1.063619	-0.163696	0.354581
C131	C	1.396953	0.169637	0.687915
C132	C	1.730286	0.502970	1.021248
C133	C	1.063654	-0.081382	0.354599
C134	C	1.396987	0.251951	0.687933
C135	C	1.730321	0.585285	1.021266
C136	C	1.063536	-0.356856	0.163332
C137	C	1.396869	-0.023522	0.496665
C138	C	1.730203	0.309811	0.829999
C139	C	1.063660	-0.356669	0.081534
C140	C	1.396993	-0.023335	0.414867
C141	C	1.730326	0.309998	0.748200
C142	C	1.110708	-0.309384	0.816500
C143	C	1.444042	0.023950	1.149833
C144	C	1.777375	0.357283	1.483166
C145	C	1.110717	-0.309362	0.893358
C146	C	1.444050	0.023971	1.226692
C147	C	1.777384	0.357305	1.560025
C148	C	1.016548	-0.404073	0.893319
C149	C	1.349882	-0.070739	1.226652
C150	C	1.683215	0.262594	1.559986
C151	C	1.016537	-0.404090	0.816461
C152	C	1.349870	-0.070757	1.149795
C153	C	1.683203	0.262577	1.483128
C154	C	1.063621	-0.356746	0.778054
C155	C	1.396954	-0.023413	1.111387
C156	C	1.730287	0.309920	1.444721
C157	C	1.063641	-0.356708	0.931770
C158	C	1.396975	-0.023374	1.265103
C159	C	1.730308	0.309959	1.598437
C160	C	1.063651	-0.356685	1.015104
C161	C	1.396984	-0.023351	1.348437
C162	C	1.730317	0.309982	1.681770
C163	C	1.063611	-0.356768	0.694715
C164	C	1.396944	-0.023435	1.028048
C165	C	1.730277	0.309898	1.361382
H166	H	0.633660	-0.271035	0.440079
H167	H	0.966993	0.062298	0.773412
H168	H	1.300327	0.395631	1.106745
H169	H	0.968769	-0.921152	0.277442
H170	H	1.302102	-0.587819	0.610775
H171	H	1.635435	-0.254486	0.944109
C172	C	1.162489	-0.257299	0.774254
C173	C	1.495822	0.076034	1.107587
C174	C	1.829156	0.409368	1.440920
H175	H	1.190528	-0.229083	0.808161
H176	H	1.523861	0.104250	1.141495
H177	H	1.857194	0.437584	1.474828
H178	H	1.194542	-0.285633	0.744266
H179	H	1.527875	0.047700	1.077600
H180	H	1.861208	0.381034	1.410933
H181	H	1.134336	-0.225033	0.744279
H182	H	1.467669	0.108300	1.077612
H183	H	1.801003	0.441633	1.410946
C184	C	1.162520	-0.257272	0.935649
C185	C	1.495854	0.076061	1.268983
C186	C	1.829187	0.409394	1.602316
H187	H	1.155783	-0.264037	0.986924
H188	H	1.489116	0.069296	1.320257
H189	H	1.822449	0.402630	1.653591
H190	H	1.211959	-0.268127	0.923056
H191	H	1.545292	0.065206	1.256390
H192	H	1.878625	0.398539	1.589723
H193	H	1.151770	-0.207511	0.923065
H194	H	1.485103	0.125822	1.256399
H195	H	1.818436	0.459156	1.589732
H196	H	0.978216	-0.442620	0.924600
H197	H	1.311549	-0.109286	1.257933
H198	H	1.644883	0.224047	1.591266
H199	H	0.978187	-0.442658	0.785158
H200	H	1.311520	-0.109325	1.118491
H201	H	1.644853	0.224009	1.451825
C202	C	0.927155	-0.927139	0.387887
C203	C	1.260489	-0.593806	0.721221
C204	C	1.593822	-0.260473	1.054554
H205	H	0.880660	-0.907725	0.374253
H206	H	1.213994	-0.574392	0.707586
H207	H	1.547327	-0.241058	1.040919
H208	H	0.925345	-0.979575	0.386768
H209	H	1.258678	-0.646242	0.720101
H210	H	1.592011	-0.312908	1.053435
H211	H	0.939157	-0.911063	0.436074
H212	H	1.272490	-0.577730	0.769407
H213	H	1.605824	-0.244396	1.102741
H214	H	0.494233	-0.271054	0.440082
H215	H	0.827566	0.062280	0.773415
H216	H	1.160900	0.395613	1.106749
C217	C	0.927050	-0.785989	0.386761
C218	C	1.260383	-0.452656	0.720094
C219	C	1.593717	-0.119322	1.053428
H220	H	0.902897	-0.826952	0.408649
H221	H	1.236230	-0.493619	0.741982
H222	H	1.569563	-0.160286	1.075315
H223	H	0.949397	-0.756790	0.423912
H224	H	1.282731	-0.423457	0.757245
H225	H	1.616064	-0.090124	1.090578
H226	H	0.892293	-0.756951	0.360711
H227	H	1.225626	-0.423617	0.694045
H228	H	1.558959	-0.090284	1.027378
H229	H	0.633597	-0.442680	0.269014
H230	H	0.966930	-0.109347	0.602347
H231	H	1.300264	0.223987	0.935681
H232	H	0.494155	-0.442714	0.269018
H233	H	0.827489	-0.109380	0.602351
H234	H	1.160822	0.223953	0.935684
H235	H	1.107374	-0.792163	0.240390
H236	H	1.440707	-0.458830	0.573724
H237	H	1.774040	-0.125497	0.907057
H238	H	1.177885	-0.920231	0.310563
H239	H	1.511219	-0.586898	0.643897
H240	H	1.844552	-0.253565	0.977230
H241	H	1.178194	-0.793005	0.310621
H242	H	1.511528	-0.459672	0.643954
H243	H	1.844861	-0.126339	0.977288
C244	C	0.963410	-0.787082	0.256423
C245	C	1.296743	-0.453749	0.589756
C246	C	1.630077	-0.120415	0.923090
H247	H	0.963389	-0.734607	0.255486
H248	H	1.296723	-0.401273	0.588819
H249	H	1.630056	-0.067940	0.922153
H250	H	0.997144	-0.805217	0.220977
H251	H	1.330477	-0.471884	0.554310
H252	H	1.663811	-0.138550	0.887643
H253	H	0.915565	-0.804806	0.245398
H254	H	1.248898	-0.471473	0.578732
H255	H	1.582231	-0.138140	0.912065
H256	H	1.139209	-0.792138	0.451411
H257	H	1.472542	-0.458805	0.784745
H258	H	1.805875	-0.125472	1.118078
C259	C	1.102416	-0.927014	0.219630
C260	C	1.435750	-0.593681	0.552963
C261	C	1.769083	-0.260347	0.886297
H262	H	1.102273	-0.979497	0.219235
H263	H	1.435606	-0.646163	0.552568
H264	H	1.768939	-0.312830	0.885901
H265	H	1.055463	-0.909297	0.205321
H266	H	1.388796	-0.575964	0.538654
H267	H	1.722129	-0.242630	0.871987
H268	H	1.138465	-0.909380	0.186276
H269	H	1.471798	-0.576047	0.519610
H270	H	1.805131	-0.242714	0.852943
C271	C	1.162342	-0.927109	0.453412
C272	C	1.495675	-0.593776	0.786745
C273	C	1.829009	-0.260443	1.120079
H274	H	1.181201	-0.957544	0.415330
H275	H	1.514534	-0.624211	0.748663
H276	H	1.847868	-0.290877	1.081997
H277	H	1.194090	-0.886099	0.460613
H278	H	1.527423	-0.552766	0.793946
H279	H	1.860757	-0.219432	1.127280
H280	H	1.159199	-0.954859	0.497553
H281	H	1.492533	-0.621526	0.830887
H282	H	1.825866	-0.288193	1.164220
H283	H	1.046926	-0.920819	0.476576
H284	H	1.380259	-0.587486	0.809910
H285	H	1.713592	-0.254153	1.143243
C286	C	1.027599	-0.786395	0.489572
C287	C	1.360933	-0.453061	0.822906
C288	C	1.694266	-0.119728	1.156239
H289	H	0.992188	-0.755910	0.466167
H290	H	1.325521	-0.422577	0.799500
H291	H	1.658854	-0.089244	1.132834
H292	H	1.003756	-0.827570	0.511393
H293	H	1.337089	-0.494237	0.844726
H294	H	1.670422	-0.160903	1.178059
H295	H	1.052313	-0.758786	0.526429
H296	H	1.385647	-0.425453	0.859762
H297	H	1.718980	-0.092120	1.193095
