data_functionalizedCrystal
_audit_creation_method	'MofGen! by Chris Wilmer'
_symmetry_space_group_name_H-M	'P1'
_symmetry_Int_Tables_number	1
_symmetry_cell_setting	triclinic
loop_
_symmetry_equiv_pos_as_xyz
  x,y,z
_cell_length_a	11.792241
_cell_length_b	9.065218
_cell_length_c	10.868271
_cell_angle_alpha	89.995547
_cell_angle_beta	90.001559
_cell_angle_gamma	95.395350
loop_
_atom_site_label
_atom_site_type_symbol
_atom_site_fract_x
_atom_site_fract_y
_atom_site_fract_z
O1	O	0.166426	-1.958842	0.102326
O2	O	0.180077	-1.529429	0.102328
O3	O	0.008139	-1.754556	0.102318
O4	O	0.338364	-1.733715	0.102336
O5	O	0.008144	-1.754536	-0.102326
O6	O	0.180083	-1.529409	-0.102317
O7	O	0.166431	-1.958822	-0.102319
Zn8	Zn	0.173258	-1.744112	-0.134809
Zn9	Zn	0.173251	-1.744139	0.134819
O10	O	0.338370	-1.733695	-0.102309
C11	C	-0.034156	-1.753237	-0.000004
C12	C	-0.160192	-1.749319	-0.000002
C13	C	0.178768	-1.474445	0.000006
C14	C	0.174845	-1.310639	0.000006
C15	C	0.167741	-2.013806	0.000006
C16	C	0.171664	-2.177612	0.000014
C17	C	-0.390944	-1.742113	0.000018
C18	C	-0.262537	-1.746117	0.000007
C19	C	0.380665	-1.735014	0.000016
C20	C	0.506701	-1.738933	0.000023
N21	N	0.173262	-1.744104	-0.318823
C22	C	0.173263	-1.744116	-0.430161
C23	C	0.173252	-1.744135	-0.569839
N24	N	0.173238	-1.744158	0.318833
