data_functionalizedCrystal
_audit_creation_method	'MofGen! by Chris Wilmer'
_symmetry_space_group_name_H-M	'P1'
_symmetry_Int_Tables_number	1
_symmetry_cell_setting	triclinic
loop_
_symmetry_equiv_pos_as_xyz
  x,y,z
_cell_length_a	6.817900
_cell_length_b	9.514072
_cell_length_c	11.102193
_cell_angle_alpha	88.635780
_cell_angle_beta	108.604059
_cell_angle_gamma	118.843421
loop_
_atom_site_label
_atom_site_type_symbol
_atom_site_fract_x
_atom_site_fract_y
_atom_site_fract_z
V1	V	-4.170264	-0.222216	-0.397253
O2	O	-4.067727	0.010666	-0.388667
O3	O	-4.204780	-0.440605	-0.395522
O4	O	-4.146136	-0.218803	-0.570059
O5	O	-4.126777	-0.212671	-0.212920
V6	V	-4.640003	-0.194360	-0.375086
O7	O	-4.461759	-0.283320	-0.445879
O8	O	-4.798706	-0.133255	-0.326460
O9	O	-4.382281	0.024030	-0.376817
O10	O	-4.859937	-0.427242	-0.383672
O11	O	-4.800888	-0.203904	-0.559419
O12	O	-4.440925	-0.197773	-0.202280
C13	C	-4.069166	-0.493844	-0.389509
C14	C	-4.178835	-0.672380	-0.389245
C15	C	-3.994359	-0.210911	-0.612148
C16	C	-4.056463	-0.209565	-0.753424
C17	C	-4.254562	-0.503723	-0.791069
C18	C	-4.382777	-0.650162	-0.876262
C19	C	-4.441127	-0.648889	-1.009002
C20	C	-4.371258	-0.501160	-1.056551
C21	C	-4.243042	-0.354721	-0.971359
C22	C	-4.184696	-0.356009	-0.838617
C23	C	-4.044961	-0.060568	-0.933715
C24	C	-3.986594	-0.061837	-0.800973
C25	C	-3.975091	0.087161	-0.981264
C26	C	-3.846859	0.233605	-0.896071
C27	C	-3.788508	0.232326	-0.763323
C28	C	-3.858379	0.084603	-0.715781
C29	C	-4.181240	0.077260	-0.382826
C30	C	-4.050811	0.255794	-0.383099
C31	C	-4.256046	-0.205670	-0.160185
C32	C	-4.173176	-0.207007	-0.018907
H33	H	-4.372381	-0.747490	-0.394350
O34	O	-4.450051	-0.793657	-0.830086
C35	C	-4.347314	-0.874907	-0.867763
H36	H	-4.302976	-0.829705	-0.956846
H37	H	-4.176613	-0.849523	-0.786191
C38	C	-4.580030	-1.114526	-0.789358
C39	C	-4.525592	-1.059018	-0.898779
H40	H	-4.689993	-1.228095	-0.808485
H41	H	-4.649240	-1.059785	-0.763970
H42	H	-4.437763	-1.093358	-0.721392
H43	H	-4.667852	-1.080168	-0.966737
H44	H	-4.456409	-1.113767	-0.924180
O45	O	-3.779410	0.376977	-0.942426
C46	C	-3.984106	0.378897	-1.024229
H47	H	-4.137802	0.248843	-1.062503
H48	H	-4.036567	0.445651	-0.968109
C49	C	-3.740447	0.626234	-1.090684
C50	C	-3.929214	0.466499	-1.137702
H51	H	-3.706588	0.680277	-1.160677
H52	H	-3.602538	0.624945	-1.035568
H53	H	-3.784190	0.681841	-1.043917
H54	H	-3.885459	0.410889	-1.184453
H55	H	-4.067115	0.467781	-1.192828
H56	H	-4.545533	-0.768134	-1.078367
O57	O	-3.819854	-0.654848	-0.376929
C58	C	-3.722867	-0.757479	-0.371211
H59	H	-3.827783	-0.871572	-0.332492
H60	H	-3.734768	-0.792866	-0.471754
C61	C	-3.330261	-0.527532	-0.329007
C62	C	-3.459109	-0.667657	-0.281440
H63	H	-3.167560	-0.472125	-0.273637
H64	H	-3.395602	-0.458387	-0.332864
H65	H	-3.340205	-0.557042	-0.412792
H66	H	-3.449188	-0.638144	-0.197664
H67	H	-3.393759	-0.736795	-0.277567
H68	H	-4.207029	-0.504773	-0.682986
H69	H	-4.418804	-0.500138	-1.164638
H70	H	-4.022626	0.088187	-1.089350
H71	H	-3.684116	0.351575	-0.693966
H72	H	-3.810863	0.083548	-0.607699
