data_functionalizedCrystal
_audit_creation_method	'MofGen! by Chris Wilmer'
_symmetry_space_group_name_H-M	'P1'
_symmetry_Int_Tables_number	1
_symmetry_cell_setting	triclinic
loop_
_symmetry_equiv_pos_as_xyz
  x,y,z
_cell_length_a	19.188930
_cell_length_b	23.532407
_cell_length_c	17.666332
_cell_angle_alpha	90.009886
_cell_angle_beta	90.023133
_cell_angle_gamma	82.996728
loop_
_atom_site_label
_atom_site_type_symbol
_atom_site_fract_x
_atom_site_fract_y
_atom_site_fract_z
O1	O	0.925923	0.071101	0.063199
O2	O	1.425923	0.571101	0.563199
O3	O	0.722581	0.080672	0.063148
O4	O	1.222581	0.580672	0.563148
O5	O	0.830384	-0.007032	0.063161
O6	O	1.330384	0.492968	0.563161
O7	O	0.818120	0.158805	0.063186
O8	O	1.318120	0.658805	0.563186
O9	O	0.830365	-0.007035	-0.062735
O10	O	1.330365	0.492965	0.437265
O11	O	0.722562	0.080670	-0.062748
O12	O	1.222562	0.580670	0.437252
O13	O	0.925904	0.071098	-0.062697
O14	O	1.425904	0.571098	0.437303
Cu15	Cu	0.824231	0.075884	-0.074218
Cu16	Cu	1.324231	0.575884	0.425782
Cu17	Cu	0.824254	0.075887	0.074669
Cu18	Cu	1.324254	0.575887	0.574669
O19	O	0.818101	0.158803	-0.062711
O20	O	1.318101	0.658803	0.437289
C21	C	0.696561	0.080361	0.000193
C22	C	1.196561	0.580361	0.500193
C23	C	0.619060	0.079431	0.000173
C24	C	1.119060	0.579431	0.500173
C25	C	0.573972	0.130893	0.000193
C26	C	1.073972	0.630893	0.500193
C27	C	0.501151	0.130019	0.000201
C28	C	1.001151	0.630019	0.500201
C29	C	0.473421	0.077680	0.000205
C30	C	0.973421	0.577680	0.500205
C31	C	0.518519	0.026211	0.000181
C32	C	1.018519	0.526211	0.500181
C33	C	0.591339	0.027086	0.000165
C34	C	1.091339	0.527086	0.500165
N35	N	0.365575	0.037674	0.043078
N36	N	0.865575	0.537674	0.543078
N37	N	0.296399	0.036845	0.043094
N38	N	0.796399	0.536845	0.543094
C39	C	0.254021	0.075038	0.000251
C40	C	0.754021	0.575038	0.500251
N41	N	0.283431	0.114099	-0.042600
N42	N	0.783431	0.614099	0.457400
N43	N	0.352613	0.114929	-0.042614
N44	N	0.852613	0.614929	0.457386
C45	C	0.394462	0.076724	0.000222
C46	C	0.894462	0.576724	0.500222
C47	C	0.129971	0.125556	0.000278
C48	C	0.629971	0.625556	0.500278
C49	C	0.057149	0.124680	0.000282
C50	C	0.557149	0.624680	0.500282
C51	C	0.074520	0.020870	0.000269
C52	C	0.574520	0.520870	0.500269
C53	C	0.147340	0.021748	0.000258
C54	C	0.647340	0.521748	0.500258
C55	C	0.175061	0.074092	0.000266
C56	C	0.675061	0.574092	0.500266
C57	C	0.830062	-0.028250	0.000211
C58	C	1.330062	0.471750	0.500211
C59	C	0.829123	-0.091469	0.000205
C60	C	1.329123	0.408531	0.500205
C61	C	0.887029	-0.490449	0.000261
C62	C	1.387029	0.009551	0.500261
C63	C	0.886157	-0.549851	0.000267
C64	C	1.386157	-0.049851	0.500267
O65	O	0.939837	-0.586482	0.000308
O66	O	1.439837	-0.086482	0.500308
N67	N	0.822068	-0.572613	0.000250
N68	N	1.322068	-0.072613	0.500250
C69	C	0.758848	-0.535970	0.000236
C70	C	1.258848	-0.035970	0.500236
O71	O	0.704255	-0.560786	0.000223
O72	O	1.204255	-0.060786	0.500223
C73	C	0.759721	-0.476569	0.000235
C74	C	1.259721	0.023431	0.500235
C75	C	0.823814	-0.453810	0.000244
C76	C	1.323814	0.046190	0.500244
C77	C	0.951117	-0.467690	0.000271
C78	C	1.451117	0.032310	0.500271
C79	C	0.951989	-0.408292	0.000264
C80	C	1.451989	0.091708	0.500264
C81	C	0.888773	-0.371653	0.000247
C82	C	1.388773	0.128347	0.500247
C83	C	0.824685	-0.394412	0.000237
C84	C	1.324685	0.105588	0.500237
C85	C	0.696501	-0.439927	0.000226
C86	C	1.196501	0.060073	0.500226
C87	C	0.697379	-0.380523	0.000227
C88	C	1.197379	0.119477	0.500227
C89	C	0.761472	-0.357764	0.000236
C90	C	1.261472	0.142236	0.500236
C91	C	0.762342	-0.298376	0.000214
C92	C	1.262342	0.201624	0.500214
N93	N	0.826430	-0.275614	0.000230
N94	N	1.326430	0.224386	0.500230
C95	C	0.889646	-0.312252	0.000247
C96	C	1.389646	0.187748	0.500247
C97	C	0.757019	-0.660717	0.000237
C98	C	1.257019	-0.160717	0.500237
C99	C	0.756146	-0.720116	0.000232
C100	C	1.256146	-0.220116	0.500232
C101	C	0.883455	-0.733993	0.000264
C102	C	1.383455	-0.233993	0.500264
C103	C	0.884328	-0.674592	0.000264
C104	C	1.384328	-0.174592	0.500264
C105	C	0.821108	-0.637954	0.000254
C106	C	1.321108	-0.137954	0.500254
C107	C	0.891472	-0.187512	0.000232
C108	C	1.391472	0.312488	0.500232
C109	C	0.892339	-0.128108	0.000222
C110	C	1.392339	0.371892	0.500222
C111	C	0.765029	-0.114236	0.000193
C112	C	1.265029	0.385764	0.500193
C113	C	0.764163	-0.173634	0.000199
C114	C	1.264163	0.326366	0.500199
C115	C	0.827390	-0.210272	0.000221
C116	C	1.327390	0.289728	0.500221
O117	O	0.708690	-0.261710	0.000176
O118	O	1.208690	0.238290	0.500176
O119	O	0.944230	-0.287428	0.000270
O120	O	1.444230	0.212572	0.500270
C121	C	0.951923	0.071410	0.000259
C122	C	1.451923	0.571410	0.500259
C123	C	1.029425	0.072340	0.000284
C124	C	1.529425	0.572340	0.500284
C125	C	0.818423	0.180021	0.000241
C126	C	1.318423	0.680021	0.500241
C127	C	0.819362	0.243240	0.000252
C128	C	1.319362	0.743240	0.500252
N129	N	0.824221	0.075881	-0.178938
N130	N	1.324221	0.575881	0.321062
C131	C	0.866320	0.110340	-0.218525
C132	C	1.366320	0.610340	0.281475
C133	C	0.866331	0.110339	-0.297772
C134	C	1.366331	0.610339	0.202228
C135	C	0.824230	0.075885	-0.337430
C136	C	1.324230	0.575885	0.162570
C137	C	0.782128	0.041419	-0.297834
C138	C	1.282128	0.541419	0.202166
C139	C	0.782124	0.041417	-0.218587
C140	C	1.282124	0.541417	0.281413
N141	N	0.763086	0.074482	-0.461885
N142	N	1.263086	0.574482	0.038115
N143	N	0.763092	0.074487	-0.537166
N144	N	1.263092	0.574487	-0.037166
C145	C	0.824243	0.075887	-0.576194
C146	C	1.324243	0.575887	-0.076194
N147	N	0.885387	0.077293	-0.537098
N148	N	1.385387	0.577293	-0.037098
N149	N	0.885380	0.077291	-0.461810
N150	N	1.385380	0.577291	0.038190
C151	C	0.824231	0.075882	-0.423359
C152	C	1.324231	0.575882	0.076641
C153	C	0.866357	0.110346	-0.701710
C154	C	1.366357	0.610346	-0.201710
C155	C	0.866370	0.110340	-0.780959
C156	C	1.366370	0.610340	-0.280959
C157	C	0.782161	0.041423	-0.781019
C158	C	1.282161	0.541423	-0.281019
C159	C	0.782155	0.041426	-0.701771
C160	C	1.282155	0.541426	-0.201771
C161	C	0.824252	0.075890	-0.662122
C162	C	1.324252	0.575890	-0.162122
N163	N	0.824270	0.075885	0.179389
N164	N	1.324270	0.575885	0.679389
H165	H	0.184052	-0.020158	0.000246
H166	H	0.684052	0.479842	0.500246
H167	H	0.747840	0.013356	-0.186356
H168	H	1.247840	0.513356	0.313644
H169	H	0.596537	0.173516	0.000201
H170	H	1.096537	0.673516	0.500201
N171	N	0.632800	-0.343097	0.000232
N172	N	1.132800	0.156903	0.500232
N173	N	0.590097	-0.345078	0.053298
N174	N	1.090097	0.154922	0.553298
H175	H	0.544489	-0.318647	0.053302
H176	H	1.044489	0.181353	0.553302
H177	H	0.900613	0.138401	-0.330010
H178	H	1.400613	0.638401	0.169990
N179	N	0.455093	0.182593	0.000217
N180	N	0.955093	0.682593	0.500217
N181	N	0.479854	0.229324	0.000220
N182	N	0.979854	0.729324	0.500220
H183	H	0.447328	0.266455	0.000231
H184	H	0.947328	0.766455	0.500231
N185	N	0.957811	-0.104861	0.000217
N186	N	1.457811	0.395139	0.500217
N187	N	1.000323	-0.116154	-0.052843
N188	N	1.500323	0.383846	0.447157
H189	H	1.046562	-0.099738	-0.052847
H190	H	1.546562	0.400262	0.447153
N191	N	0.739152	0.006232	-0.661320
N192	N	1.239152	0.506232	-0.161320
N193	N	0.766674	-0.031478	-0.617094
N194	N	1.266674	0.468522	-0.117094
H195	H	0.736303	-0.056337	-0.588525
H196	H	1.236303	0.443663	-0.088525
H197	H	0.495937	-0.016404	0.000195
H198	H	0.995937	0.483596	0.500195
H199	H	1.004180	-0.389768	0.000274
H200	H	1.504180	0.110232	0.500274
H201	H	0.628050	-0.014822	0.000150
H202	H	1.128050	0.485178	0.500150
N203	N	0.956063	-0.224921	0.000256
N204	N	1.456063	0.275079	0.500256
N205	N	1.013274	-0.204583	0.000265
N206	N	1.513274	0.295417	0.500265
H207	H	1.058892	-0.231003	0.000278
H208	H	1.558892	0.268997	0.500278
N209	N	0.158282	0.179026	0.000282
N210	N	0.658282	0.679026	0.500282
N211	N	0.118012	0.224973	0.000290
N212	N	0.618012	0.724973	0.500290
H213	H	0.138004	0.262738	0.000291
H214	H	0.638004	0.762738	0.500291
H215	H	0.051943	-0.021745	0.000319
H216	H	0.551943	0.478255	0.500319
H217	H	0.020438	0.166588	0.000293
H218	H	0.520438	0.666588	0.500293
H219	H	1.002598	-0.497516	0.000287
H220	H	1.502598	0.002484	0.500287
H221	H	0.711973	-0.192165	0.000171
H222	H	1.211973	0.307835	0.500171
N223	N	0.700461	-0.076802	0.000199
N224	N	1.200461	0.423198	0.500199
N225	N	0.657761	-0.078779	0.053269
N226	N	1.157761	0.421221	0.553269
H227	H	0.612159	-0.052339	0.053281
H228	H	1.112159	0.447661	0.553281
H229	H	0.936518	-0.656067	0.000272
H230	H	1.436518	-0.156067	0.500272
N231	N	0.948038	-0.771416	0.000280
N232	N	1.448038	-0.271416	0.500280
N233	N	0.990752	-0.769440	-0.052776
N234	N	1.490752	-0.269440	0.447224
H235	H	1.036362	-0.795870	-0.052766
H236	H	1.536362	-0.295870	0.447234
H237	H	0.705535	-0.630888	0.000222
H238	H	1.205535	-0.130888	0.500222
H239	H	0.900601	0.138401	-0.186247
H240	H	1.400601	0.638401	0.313753
N241	N	0.909387	0.145539	-0.821387
N242	N	1.409387	0.645539	-0.321387
N243	N	0.946969	0.176304	-0.785972
N244	N	1.446969	0.676304	-0.285972
H245	H	0.977351	0.201164	-0.814524
H246	H	1.477351	0.701164	-0.314524
N247	N	0.690670	-0.743350	0.000205
N248	N	1.190670	-0.243350	0.500205
N249	N	0.634236	-0.710624	0.000186
N250	N	1.134236	-0.210624	0.500186
H251	H	0.587991	-0.727030	0.000169
H252	H	1.087991	-0.227030	0.500169
N253	N	0.631024	-0.463155	0.000219
N254	N	1.131024	0.036845	0.500219
N255	N	0.574593	-0.430425	0.000213
N256	N	1.074593	0.069575	0.500213
H257	H	0.528346	-0.446827	0.000210
H258	H	1.028346	0.053173	0.500210
H259	H	0.747850	0.013366	-0.330128
H260	H	1.247850	0.513366	0.169872
N261	N	0.739163	0.006229	-0.821530
N262	N	1.239163	0.506229	-0.321530
N263	N	0.739174	0.006233	-0.892285
N264	N	1.239174	0.506233	-0.392285
H265	H	0.708807	-0.018624	-0.920900
H266	H	1.208807	0.481376	-0.420900
H267	H	0.900636	0.138408	-0.669425
H268	H	1.400636	0.638408	-0.169425
