data_functionalizedCrystal
_audit_creation_method	'MofGen! by Chris Wilmer'
_symmetry_space_group_name_H-M	'P1'
_symmetry_Int_Tables_number	1
_symmetry_cell_setting	triclinic
loop_
_symmetry_equiv_pos_as_xyz
  x,y,z
_cell_length_a	11.792241
_cell_length_b	16.109301
_cell_length_c	14.586319
_cell_angle_alpha	89.994230
_cell_angle_beta	90.000068
_cell_angle_gamma	83.827448
loop_
_atom_site_label
_atom_site_type_symbol
_atom_site_fract_x
_atom_site_fract_y
_atom_site_fract_z
O1	O	-1.505909	-0.113954	0.076154
O2	O	-1.175465	-0.125698	0.076176
O3	O	-1.349764	0.001162	0.076155
O4	O	-1.331609	-0.240814	0.076175
O5	O	-1.349750	0.001166	-0.076325
O6	O	-1.175451	-0.125695	-0.076305
O7	O	-1.505895	-0.113951	-0.076326
Cu8	Cu	-1.340671	-0.119822	-0.090238
Cu9	Cu	-1.340688	-0.119826	0.090088
O10	O	-1.331595	-0.240811	-0.076306
C11	C	-1.133173	-0.124959	-0.000062
C12	C	-1.007179	-0.122751	-0.000054
C13	C	-1.349022	0.032142	-0.000085
C14	C	-1.346817	0.124448	-0.000087
C15	C	-1.548186	-0.114690	-0.000087
C16	C	-1.674181	-0.116898	-0.000088
C17	C	-0.776502	-0.118690	-0.000080
C18	C	-0.904868	-0.120946	-0.000066
C19	C	-1.332338	-0.271791	-0.000063
C20	C	-1.334542	-0.364097	-0.000055
N21	N	-1.340668	-0.119819	-0.217070
C22	C	-1.445116	0.346258	-0.000078
C23	C	-1.443036	0.432988	-0.000071
C24	C	-1.236235	0.414087	-0.000061
C25	C	-1.238317	0.327358	-0.000062
C26	C	-1.342761	0.293446	-0.000075
C27	C	-1.338599	0.466905	-0.000067
C28	C	-1.336342	0.560942	-0.000058
C29	C	-1.345018	0.199404	-0.000082
C30	C	-1.417878	-0.063664	-0.548073
C31	C	-1.417875	-0.063665	-0.452092
C32	C	-1.263487	-0.175984	-0.452084
C33	C	-1.263496	-0.175987	-0.548063
C34	C	-1.340690	-0.119822	-0.596055
C35	C	-1.340678	-0.119820	-0.404095
C36	C	-1.340675	-0.119821	-0.300028
C37	C	-1.340696	-0.119822	-0.700129
N38	N	-1.340700	-0.119823	0.216920
H39	H	-1.526384	0.475984	-0.000071
C40	C	-1.178583	-0.237764	-0.600853
C41	C	-1.049343	-0.235738	-0.587674
C42	C	-0.964438	-0.297514	-0.640464
C43	C	-1.008774	-0.361316	-0.706433
C44	C	-1.138021	-0.363344	-0.719615
C45	C	-1.222926	-0.301568	-0.666825
H46	H	-1.016517	-0.188506	-0.538837
H47	H	-0.868761	-0.296012	-0.630706
H48	H	-0.945923	-0.407046	-0.745512
H49	H	-1.170847	-0.410576	-0.768452
H50	H	-1.318603	-0.303070	-0.676583
H51	H	-1.530161	0.318650	-0.000088
H52	H	-1.480736	-0.017933	-0.587146
C53	C	-1.121351	0.451393	-0.000048
C54	C	-1.119055	0.546790	-0.000046
C55	C	-1.004168	0.584093	-0.000033
C56	C	-0.891578	0.525999	-0.000021
C57	C	-0.893870	0.430596	-0.000023
C58	C	-1.008757	0.393293	-0.000036
H59	H	-1.202405	0.589800	-0.000055
H60	H	-1.002472	0.654717	-0.000032
H61	H	-0.806532	0.553613	-0.000011
H62	H	-0.810520	0.387586	-0.000014
H63	H	-1.010453	0.322669	-0.000037
C64	C	-1.125718	0.269259	-0.000061
C65	C	-1.040130	0.273379	0.079120
C66	C	-0.927537	0.215280	0.079125
C67	C	-0.900531	0.153062	-0.000052
C68	C	-0.986120	0.148940	-0.079239
C69	C	-1.098714	0.207038	-0.079244
H70	H	-1.060120	0.319439	0.137737
H71	H	-0.864178	0.218332	0.137745
H72	H	-0.817182	0.110054	-0.000048
H73	H	-0.966131	0.102880	-0.137856
H74	H	-1.162073	0.203987	-0.137864
H75	H	-1.480730	-0.017937	-0.413027
C76	C	-1.178567	-0.237757	-0.399292
C77	C	-1.178544	-0.237756	-0.293719
C78	C	-1.093618	-0.299528	-0.240930
C79	C	-1.008715	-0.361302	-0.293715
C80	C	-1.008735	-0.361305	-0.399295
C81	C	-1.093661	-0.299533	-0.452083
H82	H	-1.241397	-0.192025	-0.254638
H83	H	-1.093604	-0.299526	-0.162773
H84	H	-0.945848	-0.407030	-0.254638
H85	H	-0.945882	-0.407036	-0.438375
H86	H	-1.093675	-0.299535	-0.530241
