data_functionalizedCrystal
_audit_creation_method	'MofGen! by Chris Wilmer'
_symmetry_space_group_name_H-M	'P1'
_symmetry_Int_Tables_number	1
_symmetry_cell_setting	triclinic
loop_
_symmetry_equiv_pos_as_xyz
  x,y,z
_cell_length_a	6.817900
_cell_length_b	10.992421
_cell_length_c	27.923559
_cell_angle_alpha	95.469903
_cell_angle_beta	98.965071
_cell_angle_gamma	108.764763
loop_
_atom_site_label
_atom_site_type_symbol
_atom_site_fract_x
_atom_site_fract_y
_atom_site_fract_z
V1	V	-4.003980	-0.179588	-0.151261
O2	O	-3.964202	0.006750	-0.148389
O3	O	-3.982318	-0.354284	-0.150220
O4	O	-3.933478	-0.177651	-0.217235
O5	O	-4.013380	-0.171107	-0.080910
V6	V	-4.487007	-0.157202	-0.142848
O7	O	-4.266326	-0.228693	-0.169718
O8	O	-4.674859	-0.108098	-0.124392
O9	O	-4.285463	0.017494	-0.143889
O10	O	-4.644182	-0.343540	-0.145720
O11	O	-4.595004	-0.165683	-0.213199
O12	O	-4.334303	-0.159140	-0.076874
C13	C	-3.834538	-0.396846	-0.147832
C14	C	-3.897966	-0.539668	-0.147421
C15	C	-3.768049	-0.734915	-0.144103
C16	C	-3.701795	-0.586273	-0.144339
C17	C	-4.001558	-0.577756	-0.102177
C18	C	-4.066143	-0.726294	-0.101698
C19	C	-4.130037	-0.765996	-0.194445
C20	C	-4.060267	-0.617494	-0.195427
C21	C	-3.772237	-0.171530	-0.233315
C22	C	-3.796055	-0.171102	-0.287249
C23	C	-3.999776	-0.286343	-0.628630
C24	C	-4.089412	-0.284811	-0.831339
O25	O	-4.148507	-0.384748	-0.863441
N26	N	-4.044854	-0.166876	-0.849760
C27	C	-3.977895	-0.049316	-0.817500
O28	O	-3.942073	0.051029	-0.837819
C29	C	-3.888274	-0.050850	-0.614792
C30	C	-3.932817	-0.168792	-0.596374
C31	C	-4.044316	-0.404276	-0.610212
C32	C	-4.021897	-0.404657	-0.559537
C33	C	-3.954938	-0.287106	-0.527281
C34	C	-3.910397	-0.169174	-0.545700
C35	C	-3.821331	0.066708	-0.582534
C36	C	-3.798934	0.066313	-0.531854
C37	C	-3.843476	-0.051629	-0.513436
C38	C	-3.821019	-0.052004	-0.462770
N39	N	-3.865577	-0.169939	-0.444349
C40	C	-3.932536	-0.287490	-0.476605
C41	C	-4.024947	-0.048519	-0.923925
C42	C	-4.047348	-0.048135	-0.974601
C43	C	-4.158867	-0.283630	-0.988437
C44	C	-4.136451	-0.284012	-0.937759
C45	C	-4.069505	-0.166454	-0.905504
C46	C	-3.885449	-0.288282	-0.370184
C47	C	-3.863014	-0.288653	-0.319505
C48	C	-3.751508	-0.053159	-0.305674
C49	C	-3.773929	-0.052787	-0.356349
C50	C	-3.840911	-0.170360	-0.388604
O51	O	-3.761958	0.047879	-0.430640
O52	O	-3.968392	-0.387822	-0.456276
C53	C	-4.022195	-0.285962	-0.679305
C54	C	-3.977655	-0.168029	-0.697723
C55	C	-3.910696	-0.050478	-0.665467
C56	C	-4.000056	-0.167645	-0.748400
C57	C	-4.067015	-0.285196	-0.780656
C58	C	-4.111573	-0.403131	-0.762235
C59	C	-4.089154	-0.403513	-0.711560
C60	C	-3.866138	0.067457	-0.683888
C61	C	-3.888559	0.067829	-0.734563
C62	C	-3.955518	-0.049722	-0.766819
C63	C	-4.096586	0.060049	-0.146276
C64	C	-4.012395	0.202869	-0.146690
C65	C	-4.158887	-0.165264	-0.060791
C66	C	-4.114307	-0.165686	-0.006857
H67	H	-4.308157	-0.807141	-0.196816
Br68	Br	-3.495853	-0.498160	-0.086891
H69	H	-3.939986	-0.384021	-0.396441
Br70	Br	-3.567283	-0.543973	-0.198219
Br71	Br	-3.685952	-0.812937	-0.197650
Br72	Br	-4.243657	-0.527376	-0.103043
Br73	Br	-3.925127	-0.754770	-0.041824
Br74	Br	-4.303786	-0.567255	-0.203850
Br75	Br	-3.616883	-0.768487	-0.086703
Br76	Br	-3.810426	-0.486644	-0.042939
H77	H	-4.242406	-0.767176	-0.101626
Br78	Br	-3.923463	-0.448728	-0.294513
Br79	Br	-3.986840	0.111937	-0.999590
H80	H	-4.058182	-0.500698	-0.544547
H81	H	-4.098848	-0.500005	-0.636470
H82	H	-4.098741	-0.815926	-0.228680
Br83	Br	-3.937925	-0.578359	-0.251220
H84	H	-4.172722	-0.380051	-0.922767
H85	H	-3.970431	0.047217	-0.897666
Br86	Br	-4.249699	-0.443162	-1.032222
H87	H	-3.785040	0.162749	-0.597520
Br88	Br	-3.708117	0.225865	-0.488082
H89	H	-3.737669	0.043251	-0.371345
H90	H	-3.696981	0.042548	-0.279402
H91	H	-4.125428	-0.499553	-0.696570
H92	H	-4.166086	-0.498845	-0.788507
Br93	Br	-3.828077	0.227909	-0.759551
Br94	Br	-3.775184	0.227010	-0.640118
