data_functionalizedCrystal
_audit_creation_method	'MofGen! by Chris Wilmer'
_symmetry_space_group_name_H-M	'P1'
_symmetry_Int_Tables_number	1
_symmetry_cell_setting	triclinic
loop_
_symmetry_equiv_pos_as_xyz
  x,y,z
_cell_length_a	13.032831
_cell_length_b	12.594516
_cell_length_c	13.033454
_cell_angle_alpha	82.787220
_cell_angle_beta	89.091650
_cell_angle_gamma	82.821304
loop_
_atom_site_label
_atom_site_type_symbol
_atom_site_fract_x
_atom_site_fract_y
_atom_site_fract_z
Zn1	Zn	1.498563	-0.516762	-0.780905
Zn2	Zn	1.998563	-0.016762	-0.280905
Zn3	Zn	1.520294	-0.719846	-0.608926
Zn4	Zn	2.020294	-0.219846	-0.108926
Zn5	Zn	1.348404	-0.522436	-0.587135
Zn6	Zn	1.848404	-0.022436	-0.087135
Zn7	Zn	1.326555	-0.675245	-0.759057
Zn8	Zn	1.826555	-0.175245	-0.259057
O9	O	1.423454	-0.608572	-0.684006
O10	O	1.923454	-0.108572	-0.184006
O11	O	1.645368	-0.559993	-0.776354
O12	O	2.145368	-0.059993	-0.276354
O13	O	1.515731	-0.714700	-0.462112
O14	O	2.015731	-0.214700	0.037888
O15	O	1.368372	-0.372741	-0.612863
O16	O	1.868372	0.127259	-0.112863
O17	O	1.661334	-0.709198	-0.650002
O18	O	2.161334	-0.209198	-0.150002
O19	O	1.478693	-0.368572	-0.755225
O20	O	1.978693	0.131428	-0.255225
O21	O	1.389444	-0.569663	-0.446102
O22	O	1.889444	-0.069663	0.053898
O23	O	1.201583	-0.526415	-0.591678
O24	O	1.701583	-0.026415	-0.091678
O25	O	1.331134	-0.633181	-0.905879
O26	O	1.831134	-0.133181	-0.405879
O27	O	1.185530	-0.638683	-0.717988
O28	O	1.685530	-0.138683	-0.217988
O29	O	1.457507	-0.516745	-0.921930
O30	O	1.957507	-0.016745	-0.421930
O31	O	1.494545	-0.862872	-0.628817
O32	O	1.994545	-0.362872	-0.128817
O33	O	1.352206	-0.830104	-0.739118
O34	O	1.852206	-0.330104	-0.239118
C35	C	1.156239	-0.578326	-0.650099
C36	C	1.656239	-0.078326	-0.150099
C37	C	1.041920	-0.565408	-0.635617
C38	C	1.541920	-0.065408	-0.135617
C39	C	0.983050	-0.615314	-0.691563
C40	C	1.483050	-0.115314	-0.191563
C41	C	0.864896	-0.601965	-0.676598
C42	C	1.364896	-0.101965	-0.176598
C43	C	1.423388	-0.885107	-0.683987
C44	C	1.923388	-0.385107	-0.183987
C45	C	1.423449	-1.003416	-0.684025
C46	C	1.923449	-0.503416	-0.184025
C47	C	1.346030	-1.054891	-0.743969
C48	C	1.846030	-0.554891	-0.243969
C49	C	1.332888	-1.136611	-0.646947
C50	C	1.832888	-0.636611	-0.146947
C51	C	1.436683	-1.132503	-0.781075
C52	C	1.936683	-0.632503	-0.281075
C53	C	1.410264	-1.083579	-0.586947
C54	C	1.910264	-0.583579	-0.086947
C55	C	1.514094	-1.079460	-0.721145
C56	C	2.014094	-0.579460	-0.221145
C57	C	1.500996	-1.161162	-0.624063
C58	C	2.000996	-0.661162	-0.124063
C59	C	1.691712	-0.638938	-0.718046
C60	C	2.191712	-0.138938	-0.218046
C61	C	1.806028	-0.651878	-0.732551
C62	C	2.306028	-0.151878	-0.232551
C63	C	1.389459	-0.569355	-0.952266
C64	C	1.889459	-0.069355	-0.452266
C65	C	1.374973	-0.552643	-1.066582
C66	C	1.874973	-0.052643	-0.566582
C67	C	1.423545	-0.330958	-0.684050
C68	C	1.923545	0.169042	-0.184050
C69	C	1.423584	-0.212655	-0.684069
C70	C	1.923584	0.287345	-0.184069
C71	C	1.430999	-0.616953	-1.125469
C72	C	1.930999	-0.116953	-0.625469
C73	C	1.416027	-0.599682	-1.243621
C74	C	1.916027	-0.099682	-0.743621
C75	C	1.457375	-0.647567	-0.416797
C76	C	1.957375	-0.147567	0.083203
C77	C	1.472061	-0.664002	-0.302506
C78	C	1.972061	-0.164002	0.197494
H79	H	1.004847	-0.512793	-0.576645
H80	H	1.504847	-0.012793	-0.076645
H81	H	1.447823	-1.154349	-0.863132
H82	H	1.947823	-0.654349	-0.363132
H83	H	1.490052	-0.684795	-1.088413
H84	H	1.990052	-0.184795	-0.588413
O85	O	1.296764	-0.462757	-1.115652
O86	O	1.796764	0.037243	-0.615652
H87	H	1.297280	-0.463295	-1.200754
H88	H	1.797280	0.036705	-0.700754
H89	H	1.020123	-0.667920	-0.750544
H90	H	1.520123	-0.167920	-0.250544
O91	O	0.855118	-0.721571	-0.810682
O92	O	1.355118	-0.221571	-0.310682
H93	H	0.824347	-0.689327	-0.888847
H94	H	1.324347	-0.189327	-0.388847
O95	O	1.337814	-0.509792	-1.292687
O96	O	1.837814	-0.009792	-0.792687
H97	H	1.338331	-0.510329	-1.377788
H98	H	1.838331	-0.010329	-0.877788
O99	O	1.231433	-1.170175	-0.605367
O100	O	1.731433	-0.670175	-0.105367
H101	H	1.167233	-1.127106	-0.655231
H102	H	1.667233	-0.627106	-0.155231
O103	O	1.259194	-0.993838	-0.810986
O104	O	1.759194	-0.493838	-0.310986
H105	H	1.184096	-1.016573	-0.779946
H106	H	1.684096	-0.516573	-0.279946
H107	H	0.827827	-0.549346	-0.617621
H108	H	1.327827	-0.049346	-0.117621
O109	O	1.395382	-1.054817	-0.478206
O110	O	1.895382	-0.554817	0.021794
H111	H	1.395399	-0.966585	-0.479047
H112	H	1.895399	-0.466585	0.020953
O113	O	1.587811	-1.221964	-0.556863
O114	O	2.087811	-0.721964	-0.056863
H115	H	1.576627	-1.202490	-0.476401
H116	H	2.076627	-0.702490	0.023599
O117	O	1.615655	-1.046126	-0.762640
O118	O	2.115655	-0.546126	-0.262640
H119	H	1.626453	-1.065420	-0.843194
H120	H	2.126453	-0.565420	-0.343194
H121	H	1.531119	-0.731848	-1.265457
H122	H	2.031119	-0.231848	-0.765457
