data_functionalizedCrystal
_audit_creation_method	'MofGen! by Chris Wilmer'
_symmetry_space_group_name_H-M	'P1'
_symmetry_Int_Tables_number	1
_symmetry_cell_setting	triclinic
loop_
_symmetry_equiv_pos_as_xyz
  x,y,z
_cell_length_a	6.817900
_cell_length_b	9.582906
_cell_length_c	9.582889
_cell_angle_alpha	89.900356
_cell_angle_beta	111.207298
_cell_angle_gamma	111.207526
loop_
_atom_site_label
_atom_site_type_symbol
_atom_site_fract_x
_atom_site_fract_y
_atom_site_fract_z
V1	V	-4.156365	-0.466330	-0.206432
V2	V	-3.656365	0.033670	0.293568
O3	O	-4.100363	-0.457735	0.010562
O4	O	-3.600363	0.042265	0.510562
O5	O	-4.146474	-0.462869	-0.409938
O6	O	-3.646474	0.037131	0.090062
O7	O	-4.146477	-0.669836	-0.202975
O8	O	-3.646477	-0.169836	0.297025
O9	O	-4.100360	-0.249335	-0.197834
O10	O	-3.600360	0.250665	0.302166
V11	V	-4.630012	-0.440408	-0.180511
V12	V	-4.130012	0.059592	0.319489
O13	O	-4.439285	-0.523190	-0.263294
O14	O	-3.939285	-0.023190	0.236706
O15	O	-4.797289	-0.383548	-0.123649
O16	O	-4.297289	0.116452	0.376351
O17	O	-4.416697	-0.443869	0.022995
O18	O	-3.916697	0.056131	0.522995
O19	O	-4.803411	-0.449003	-0.397505
O20	O	-4.303411	0.050997	0.102495
O21	O	-4.803415	-0.657403	-0.189109
O22	O	-4.303415	-0.157403	0.310891
O23	O	-4.416693	-0.236902	-0.183968
O24	O	-3.916693	0.263098	0.316032
C25	C	-3.999597	-0.455442	-0.459557
C26	C	-3.499597	0.044558	0.040443
C27	C	-4.073053	-0.453970	-0.625924
C28	C	-3.573053	0.046030	-0.125924
C29	C	-3.999599	-0.719447	-0.195554
C30	C	-3.499599	-0.219447	0.304446
C31	C	-4.073054	-0.885813	-0.194074
C32	C	-3.573054	-0.385813	0.305926
C33	C	-4.226917	-0.451291	0.072606
C34	C	-3.726917	0.048709	0.572606
C35	C	-4.132700	-0.452774	0.238971
C36	C	-3.632700	0.047226	0.738971
C37	C	-4.226913	-0.187283	-0.191394
C38	C	-3.726913	0.312717	0.308606
C39	C	-4.132695	-0.020916	-0.192866
C40	C	-3.632695	0.479084	0.307134
