data_functionalizedCrystal
_audit_creation_method	'MofGen! by Chris Wilmer'
_symmetry_space_group_name_H-M	'P1'
_symmetry_Int_Tables_number	1
_symmetry_cell_setting	triclinic
loop_
_symmetry_equiv_pos_as_xyz
  x,y,z
_cell_length_a	11.169417
_cell_length_b	21.295412
_cell_length_c	11.169416
_cell_angle_alpha	90.020143
_cell_angle_beta	89.988411
_cell_angle_gamma	89.980163
loop_
_atom_site_label
_atom_site_type_symbol
_atom_site_fract_x
_atom_site_fract_y
_atom_site_fract_z
Zn1	Zn	1.834966	-0.355896	0.477797
Zn2	Zn	1.834854	-0.250640	0.678500
Zn3	Zn	1.634251	-0.250648	0.477834
Zn4	Zn	1.634259	-0.355879	0.678441
O5	O	1.734583	-0.303266	0.578143
O6	O	2.002901	-0.341937	0.504430
O7	O	1.808194	-0.162552	0.651921
O8	O	1.660919	-0.264619	0.309879
O9	O	2.002819	-0.264607	0.651885
O10	O	1.808384	-0.341944	0.309852
O11	O	1.660811	-0.162557	0.504493
O12	O	1.466302	-0.264603	0.504436
O13	O	1.660934	-0.443971	0.651785
O14	O	1.466309	-0.341916	0.651821
O15	O	1.808392	-0.443983	0.504373
O16	O	1.808202	-0.264591	0.846442
O17	O	1.660826	-0.341909	0.846399
C18	C	1.422758	-0.303258	0.578127
C19	C	1.289358	-0.303270	0.578149
C20	C	1.734677	-0.467456	0.578068
C21	C	1.734717	-0.537424	0.578037
C22	C	1.657995	-0.570284	0.501262
C23	C	1.657991	-0.636026	0.501240
C24	C	1.734729	-0.668907	0.577979
C25	C	1.811457	-0.636039	0.654769
C26	C	1.811450	-0.570298	0.654798
N27	N	1.839794	-0.772142	0.587143
N28	N	1.839797	-0.834594	0.587109
C29	C	1.734752	-0.866981	0.577899
N30	N	1.629701	-0.834559	0.568702
N31	N	1.629700	-0.772101	0.568730
C32	C	1.734744	-0.740192	0.577957
C33	C	1.658019	-0.971127	0.501096
C34	C	1.658013	-1.036870	0.501083
C35	C	1.811489	-1.036882	0.654606
C36	C	1.811485	-0.971140	0.654626
C37	C	1.734751	-0.938266	0.577865
C38	C	2.047625	-0.303273	0.578160
C39	C	2.181025	-0.303276	0.578167
C40	C	1.734535	-0.303261	0.889968
C41	C	1.734625	-0.303280	1.023368
C42	C	1.734558	-0.139714	0.578131
C43	C	1.734751	-0.069746	0.577824
C44	C	1.734663	-0.303284	0.265101
C45	C	1.734697	-0.303292	0.131701
H46	H	1.595508	-0.543522	0.438762
Br47	Br	1.915625	-1.081499	0.758766
H48	H	1.595537	-0.944359	0.438594
H49	H	1.873931	-0.543544	0.717315
H50	H	1.595528	-1.063623	0.438567
H51	H	1.873963	-0.944385	0.717141
H52	H	1.873937	-0.662815	0.717251
H53	H	1.595517	-0.662785	0.438714
