data_functionalizedCrystal
_audit_creation_method	'MofGen! by Chris Wilmer'
_symmetry_space_group_name_H-M	'P1'
_symmetry_Int_Tables_number	1
_symmetry_cell_setting	triclinic
loop_
_symmetry_equiv_pos_as_xyz
  x,y,z
_cell_length_a	17.699083
_cell_length_b	16.176319
_cell_length_c	17.699082
_cell_angle_alpha	89.998487
_cell_angle_beta	83.282748
_cell_angle_gamma	90.000480
loop_
_atom_site_label
_atom_site_type_symbol
_atom_site_fract_x
_atom_site_fract_y
_atom_site_fract_z
O1	O	-1.004077	0.068619	-0.095710
O2	O	-0.783699	0.068647	-0.108162
O3	O	-0.900115	0.068631	0.008253
O4	O	-0.887661	0.068635	-0.212125
O5	O	-0.900101	-0.068862	0.008254
O6	O	-0.783685	-0.068846	-0.108162
O7	O	-1.004064	-0.068874	-0.095709
Cu8	Cu	-0.893873	-0.081414	-0.101936
Cu9	Cu	-0.893889	0.081187	-0.101936
O10	O	-0.887648	-0.068858	-0.212125
C11	C	-0.755495	-0.000096	-0.107716
C12	C	-0.671477	-0.000085	-0.106377
N13	N	-0.893867	-0.195780	-0.101935
C14	C	-0.622856	-0.000083	-0.174711
C15	C	-0.543912	-0.000093	-0.173448
C16	C	-0.513592	-0.000099	-0.103852
C17	C	-0.562219	-0.000103	-0.035513
C18	C	-0.641161	-0.000099	-0.036776
C19	C	-0.243856	-0.000121	-0.030418
C20	C	-0.164908	-0.000122	-0.029160
C21	C	-0.146607	-0.000115	-0.167090
C22	C	-0.225549	-0.000111	-0.168353
C23	C	-0.274170	-0.000119	-0.100015
C24	C	-0.359769	-0.000110	-0.101384
C25	C	-0.427994	-0.000102	-0.102482
C26	C	-0.032267	-0.000128	-0.096156
C27	C	-0.116285	-0.000127	-0.097494
C28	C	-0.939682	-0.239045	-0.147783
C29	C	-0.939690	-0.325593	-0.147781
C30	C	-0.893879	-0.368872	-0.101933
C31	C	-0.848062	-0.325600	-0.056079
C32	C	-0.848059	-0.239055	-0.056078
C33	C	-0.848076	-0.674628	-0.056080
C34	C	-0.848082	-0.761180	-0.056085
C35	C	-0.939708	-0.761166	-0.147782
C36	C	-0.939704	-0.674621	-0.147782
C37	C	-0.893891	-0.631356	-0.101925
C38	C	-0.893884	-0.537512	-0.101928
C39	C	-0.893881	-0.462715	-0.101934
N40	N	-0.893901	0.195553	-0.101931
C41	C	-0.888100	-0.000111	-0.240322
C42	C	-0.889439	-0.000110	-0.324340
C43	C	-0.890075	0.074838	-0.363809
C44	C	-0.891343	0.074839	-0.442752
C45	C	-0.891967	-0.000109	-0.482225
C46	C	-0.891333	-0.075063	-0.442750
C47	C	-0.890071	-0.075063	-0.363808
C48	C	-0.896422	-0.075065	-0.761114
C49	C	-0.897681	-0.075059	-0.840061
C50	C	-0.897693	0.074838	-0.840058
C51	C	-0.896432	0.074838	-0.761116
C52	C	-0.895801	-0.000116	-0.721647
C53	C	-0.894429	-0.000116	-0.636048
C54	C	-0.893334	-0.000110	-0.567823
C55	C	-0.899662	-0.000114	0.036451
C56	C	-0.898324	-0.000110	0.120469
H57	H	-0.647536	-0.000078	-0.231384
H58	H	-0.895909	-0.136097	-0.728987
N59	N	-0.256532	-0.000118	-0.239438
N60	N	-0.327017	-0.000120	-0.240555
H61	H	-0.348899	-0.000129	-0.290759
N62	N	-0.892005	0.151399	-0.483064
N63	N	-0.945197	0.201578	-0.467166
H64	H	-0.945667	0.255653	-0.495635
H65	H	-0.107011	-0.000113	-0.222734
N66	N	-0.898363	0.151403	-0.880373
N67	N	-0.951558	0.201579	-0.864476
H68	H	-0.952032	0.255652	-0.892947
N69	N	-0.494258	-0.000096	-0.243257
N70	N	-0.521339	-0.000087	-0.305391
H71	H	-0.486271	-0.000091	-0.354697
N72	N	-0.898341	-0.151622	-0.880380
N73	N	-0.952375	-0.168341	-0.917354
H74	H	-0.952842	-0.222411	-0.945829
H75	H	-0.810773	-0.639413	-0.018740
N76	N	-0.986524	-0.805362	-0.194607
N77	N	-1.057071	-0.795691	-0.185458
H78	H	-1.090133	-0.826903	-0.218527
H79	H	-0.810752	-0.203829	-0.018743
N80	N	-0.986493	-0.194849	-0.194608
N81	N	-1.057040	-0.204517	-0.185448
H82	H	-1.090106	-0.173304	-0.218515
H83	H	-0.810775	-0.796416	-0.018748
H84	H	-0.891846	-0.136088	-0.474894
N85	N	-0.895786	0.151403	-0.720809
N86	N	-0.896356	0.218318	-0.756059
H87	H	-0.895901	0.272395	-0.727594
N88	N	-0.889423	-0.151629	-0.323500
N89	N	-0.889981	-0.218542	-0.358750
H90	H	-0.889526	-0.272620	-0.330283
H91	H	-0.889560	0.135870	-0.331677
N92	N	-0.133948	-0.000126	0.041942
N93	N	-0.177366	-0.000133	0.102952
H94	H	-0.155501	-0.000134	0.153166
N95	N	-0.293503	-0.000126	0.039392
N96	N	-0.266418	-0.000126	0.101525
H97	H	-0.301484	-0.000128	0.150832
H98	H	-0.537526	-0.000119	0.021154
H99	H	-0.810766	-0.360845	-0.018745
N100	N	-0.986485	-0.369766	-0.194633
N101	N	-0.977277	-0.360084	-0.265179
H102	H	-1.010329	-0.391278	-0.298273
N103	N	-0.690818	-0.000109	0.033032
N104	N	-0.663739	-0.000118	0.095167
H105	H	-0.698809	-0.000131	0.144472
H106	H	-0.977005	-0.639387	-0.185119
