data_functionalizedCrystal
_audit_creation_method	'MofGen! by Chris Wilmer'
_symmetry_space_group_name_H-M	'P1'
_symmetry_Int_Tables_number	1
_symmetry_cell_setting	triclinic
loop_
_symmetry_equiv_pos_as_xyz
  x,y,z
_cell_length_a	16.992694
_cell_length_b	18.266242
_cell_length_c	16.992695
_cell_angle_alpha	89.993686
_cell_angle_beta	89.331777
_cell_angle_gamma	90.003271
loop_
_atom_site_label
_atom_site_type_symbol
_atom_site_fract_x
_atom_site_fract_y
_atom_site_fract_z
O1	O	1.050856	0.060790	-0.166918
O2	O	1.300856	0.310790	0.083082
O3	O	1.550856	0.560790	0.333082
O4	O	1.800856	0.810790	0.583082
O5	O	0.822456	0.060811	-0.165087
O6	O	1.072456	0.310811	0.084913
O7	O	1.322456	0.560811	0.334913
O8	O	1.572456	0.810811	0.584913
O9	O	0.935740	0.060795	-0.051803
O10	O	1.185740	0.310795	0.198197
O11	O	1.435740	0.560795	0.448197
O12	O	1.685740	0.810795	0.698197
O13	O	0.937571	0.060806	-0.280203
O14	O	1.187571	0.310806	-0.030203
O15	O	1.437571	0.560806	0.219797
O16	O	1.687571	0.810806	0.469797
O17	O	0.935719	-0.060967	-0.051795
O18	O	1.185719	0.189033	0.198205
O19	O	1.435719	0.439033	0.448205
O20	O	1.685719	0.689033	0.698205
O21	O	0.822435	-0.060951	-0.165079
O22	O	1.072435	0.189049	0.084921
O23	O	1.322435	0.439049	0.334921
O24	O	1.572435	0.689049	0.584921
O25	O	1.050835	-0.060972	-0.166911
O26	O	1.300835	0.189028	0.083089
O27	O	1.550835	0.439028	0.333089
O28	O	1.800835	0.689028	0.583089
Zn29	Zn	0.936631	-0.080294	-0.165994
Zn30	Zn	1.186631	0.169706	0.084006
Zn31	Zn	1.436631	0.419706	0.334006
Zn32	Zn	1.686631	0.669706	0.584006
Zn33	Zn	0.936659	0.080133	-0.166004
Zn34	Zn	1.186659	0.330133	0.083996
Zn35	Zn	1.436659	0.580133	0.333996
Zn36	Zn	1.686659	0.830133	0.583996
O37	O	0.937550	-0.060956	-0.280195
O38	O	1.187550	0.189044	-0.030195
O39	O	1.437550	0.439044	0.219805
O40	O	1.687550	0.689044	0.469805
C41	C	0.793085	-0.000067	-0.162727
C42	C	1.043085	0.249933	0.087273
C43	C	1.293085	0.499933	0.337273
C44	C	1.543085	0.749933	0.587273
C45	C	0.705600	-0.000059	-0.155699
C46	C	0.955600	0.249941	0.094301
C47	C	1.205600	0.499941	0.344301
C48	C	1.455600	0.749941	0.594301
N49	N	0.936618	-0.189781	-0.165987
N50	N	1.186618	0.060219	0.084013
N51	N	1.436618	0.310219	0.334013
N52	N	1.686618	0.560219	0.584013
C53	C	0.659610	-0.000056	-0.223517
C54	C	0.909610	0.249944	0.026483
C55	C	1.159610	0.499944	0.276483
C56	C	1.409610	0.749944	0.526483
C57	C	0.577409	-0.000066	-0.216908
C58	C	0.827409	0.249934	0.033092
C59	C	1.077409	0.499934	0.283092
C60	C	1.327409	0.749934	0.533092
C61	C	0.541201	-0.000074	-0.142480
C62	C	0.791201	0.249926	0.107520
C63	C	1.041201	0.499926	0.357520
C64	C	1.291201	0.749926	0.607520
C65	C	0.587198	-0.000079	-0.074657
C66	C	0.837198	0.249921	0.175343
C67	C	1.087198	0.499921	0.425343
C68	C	1.337198	0.749921	0.675343
C69	C	0.669397	-0.000074	-0.081267
C70	C	0.919397	0.249926	0.168733
C71	C	1.169397	0.499926	0.418733
C72	C	1.419397	0.749926	0.668733
C73	C	0.295886	-0.000095	-0.115086
C74	C	0.545886	0.249905	0.134914
C75	C	0.795886	0.499905	0.384914
C76	C	1.045886	0.749905	0.634914
C77	C	0.213681	-0.000098	-0.108481
C78	C	0.463681	0.249902	0.141519
C79	C	0.713681	0.499902	0.391519
C80	C	0.963681	0.749902	0.641519
C81	C	0.203898	-0.000087	-0.250732
C82	C	0.453898	0.249913	-0.000732
C83	C	0.703898	0.499913	0.249268
C84	C	0.953898	0.749913	0.499268
C85	C	0.286099	-0.000077	-0.257335
C86	C	0.536099	0.249923	-0.007335
C87	C	0.786099	0.499923	0.242665
C88	C	1.036099	0.749923	0.492665
C89	C	0.332089	-0.000086	-0.189512
C90	C	0.582089	0.249914	0.060488
C91	C	0.832089	0.499914	0.310488
C92	C	1.082089	0.749914	0.560488
N93	N	0.457178	-0.000083	-0.135723
N94	N	0.707178	0.249917	0.114277
N95	N	0.957178	0.499917	0.364277
N96	N	1.207178	0.749917	0.614277
N97	N	0.416110	-0.000083	-0.196270
N98	N	0.666110	0.249917	0.053730
N99	N	0.916110	0.499917	0.303730
N100	N	1.166110	0.749917	0.553730
C101	C	0.986800	-0.228097	-0.115852
C102	C	1.236800	0.021903	0.134148
C103	C	1.486800	0.271903	0.384148
C104	C	1.736800	0.521903	0.634148
C105	C	0.986805	-0.304742	-0.115849
C106	C	1.236805	-0.054742	0.134151
C107	C	1.486805	0.195258	0.384151
C108	C	1.736805	0.445258	0.634151
C109	C	0.936636	-0.343067	-0.165994
C110	C	1.186636	-0.093067	0.084006
C111	C	1.436636	0.156933	0.334006
C112	C	1.686636	0.406933	0.584006
C113	C	0.886445	-0.304742	-0.216133
C114	C	1.136445	-0.054742	0.033867
C115	C	1.386445	0.195258	0.283867
C116	C	1.636445	0.445258	0.533867
C117	C	0.886436	-0.228099	-0.216129
C118	C	1.136436	0.021901	0.033871
C119	C	1.386436	0.271901	0.283871
C120	C	1.636436	0.521901	0.533871
N121	N	0.930981	-0.463396	-0.235021
N122	N	1.180981	-0.213396	0.014979
N123	N	1.430981	0.036604	0.264979
N124	N	1.680981	0.286604	0.514979
N125	N	0.930994	-0.536204	-0.235022
N126	N	1.180994	-0.286204	0.014978
N127	N	1.430994	-0.036204	0.264978
N128	N	1.680994	0.213796	0.514978
C129	C	0.936659	-0.573990	-0.166007
C130	C	1.186659	-0.323990	0.083993
C131	C	1.436659	-0.073990	0.333993
C132	C	1.686659	0.176010	0.583993
N133	N	0.942326	-0.536217	-0.096990
N134	N	1.192326	-0.286217	0.153010
N135	N	1.442326	-0.036217	0.403010
N136	N	1.692326	0.213783	0.653010
N137	N	0.942317	-0.463403	-0.096989
N138	N	1.192317	-0.213403	0.153011
N139	N	1.442317	0.036597	0.403011
N140	N	1.692317	0.286597	0.653011
C141	C	0.936640	-0.426174	-0.166003
C142	C	1.186640	-0.176174	0.083997
C143	C	1.436640	0.073826	0.333997
C144	C	1.686640	0.323826	0.583997
C145	C	0.986849	-0.695413	-0.115864
C146	C	1.236849	-0.445413	0.134136
C147	C	1.486849	-0.195413	0.384136
C148	C	1.736849	0.054587	0.634136
C149	C	0.986848	-0.772060	-0.115860
C150	C	1.236848	-0.522060	0.134140
C151	C	1.486848	-0.272060	0.384140
C152	C	1.736848	-0.022060	0.634140
C153	C	0.886492	-0.772058	-0.216151
C154	C	1.136492	-0.522058	0.033849
C155	C	1.386492	-0.272058	0.283849
C156	C	1.636492	-0.022058	0.533849
C157	C	0.886489	-0.695414	-0.216148
C158	C	1.136489	-0.445414	0.033852
C159	C	1.386489	-0.195414	0.283852
C160	C	1.636489	0.054586	0.533852
C161	C	0.936671	-0.657096	-0.166006
C162	C	1.186671	-0.407096	0.083994
C163	C	1.436671	-0.157096	0.333994
C164	C	1.686671	0.092904	0.583994
C165	C	1.080205	-0.000092	-0.169270
C166	C	1.330205	0.249908	0.080730
C167	C	1.580205	0.499908	0.330730
C168	C	1.830205	0.749908	0.580730
C169	C	1.167690	-0.000096	-0.176299
C170	C	1.417690	0.249904	0.073701
C171	C	1.667690	0.499904	0.323701
C172	C	1.917690	0.749904	0.573701
N173	N	0.936678	0.189620	-0.166005
N174	N	1.186678	0.439620	0.083995
N175	N	1.436678	0.689620	0.333995
N176	N	1.686678	0.939620	0.583995
C177	C	0.933374	-0.000086	-0.022439
C178	C	1.183374	0.249914	0.227561
C179	C	1.433374	0.499914	0.477561
C180	C	1.683374	0.749914	0.727561
C181	C	0.926345	-0.000085	0.065046
C182	C	1.176345	0.249915	0.315046
C183	C	1.426345	0.499915	0.565046
C184	C	1.676345	0.749915	0.815046
C185	C	0.939917	-0.000073	-0.309559
C186	C	1.189917	0.249927	-0.059559
C187	C	1.439917	0.499927	0.190441
C188	C	1.689917	0.749927	0.440441
C189	C	0.946945	-0.000069	-0.397044
C190	C	1.196945	0.249931	-0.147044
C191	C	1.446945	0.499931	0.102956
C192	C	1.696945	0.749931	0.352956
C193	C	0.994163	-0.000092	0.111037
C194	C	1.244163	0.249908	0.361037
C195	C	1.494163	0.499908	0.611037
C196	C	1.744163	0.749908	0.861037
C197	C	0.987554	-0.000084	0.193238
C198	C	1.237554	0.249916	0.443238
C199	C	1.487554	0.499916	0.693238
C200	C	1.737554	0.749916	0.943238
C201	C	0.913127	-0.000075	0.229446
C202	C	1.163127	0.249925	0.479446
C203	C	1.413127	0.499925	0.729446
C204	C	1.663127	0.749925	0.979446
C205	C	0.845303	-0.000066	0.183449
C206	C	1.095303	0.249934	0.433449
C207	C	1.345303	0.499934	0.683449
C208	C	1.595303	0.749934	0.933449
C209	C	0.851913	-0.000068	0.101250
C210	C	1.101913	0.249932	0.351250
C211	C	1.351913	0.499932	0.601250
C212	C	1.601913	0.749932	0.851250
C213	C	0.885732	-0.000062	0.474760
C214	C	1.135732	0.249938	0.724760
C215	C	1.385732	0.499938	0.974760
C216	C	1.635732	0.749938	1.224760
C217	C	0.879127	-0.000062	0.556966
C218	C	1.129127	0.249938	0.806966
C219	C	1.379127	0.499938	1.056966
C220	C	1.629127	0.749938	1.306966
C221	C	1.021379	-0.000080	0.566749
C222	C	1.271379	0.249920	0.816749
C223	C	1.521379	0.499920	1.066749
C224	C	1.771379	0.749920	1.316749
C225	C	1.027982	-0.000086	0.484547
C226	C	1.277982	0.249914	0.734547
C227	C	1.527982	0.499914	0.984547
C228	C	1.777982	0.749914	1.234547
C229	C	0.960159	-0.000073	0.438558
C230	C	1.210159	0.249927	0.688558
C231	C	1.460159	0.499927	0.938558
C232	C	1.710159	0.749927	1.188558
N233	N	0.906369	-0.000070	0.313468
N234	N	1.156369	0.249930	0.563468
N235	N	1.406369	0.499930	0.813468
N236	N	1.656369	0.749930	1.063468
N237	N	0.966917	-0.000073	0.354537
N238	N	1.216917	0.249927	0.604537
N239	N	1.466917	0.499927	0.854537
N240	N	1.716917	0.749927	1.104537
H241	H	0.689084	-0.000049	-0.284124
H242	H	0.939084	0.249951	-0.034124
H243	H	1.189084	0.499951	0.215876
H244	H	1.439084	0.749951	0.465876
H245	H	0.818516	-0.000066	0.586443
H246	H	1.068516	0.249934	0.836443
H247	H	1.318516	0.499934	1.086443
H248	H	1.568516	0.749934	1.336443
H249	H	1.027709	-0.803257	-0.075029
H250	H	1.277709	-0.553257	0.174971
H251	H	1.527709	-0.303257	0.424971
H252	H	1.777709	-0.053257	0.674971
H253	H	0.796688	-0.000062	0.063804
H254	H	1.046688	0.249938	0.313804
H255	H	1.296688	0.499938	0.563804
H256	H	1.546688	0.749938	0.813804
O257	O	0.832366	-0.654088	-0.270232
O258	O	1.082366	-0.404088	-0.020232
O259	O	1.332366	-0.154088	0.229768
O260	O	1.582366	0.095912	0.479768
H261	H	0.792024	-0.619187	-0.234671
H262	H	1.042024	-0.369187	0.015329
H263	H	1.292024	-0.119187	0.265329
H264	H	1.542024	0.130813	0.515329
O265	O	0.832381	-0.813383	-0.270241
O266	O	1.082381	-0.563383	-0.020241
O267	O	1.332381	-0.313383	0.229759
O268	O	1.582381	-0.063383	0.479759
H269	H	0.840820	-0.873116	-0.261825
H270	H	1.090820	-0.623116	-0.011825
H271	H	1.340820	-0.373116	0.238175
H272	H	1.590820	-0.123116	0.488175
H273	H	0.315574	-0.000062	-0.317942
H274	H	0.565574	0.249938	-0.067942
H275	H	0.815574	0.499938	0.182058
H276	H	1.065574	0.749938	0.432058
O277	O	0.527801	-0.000064	-0.290053
O278	O	0.777801	0.249936	-0.040053
O279	O	1.027801	0.499936	0.209947
O280	O	1.277801	0.749936	0.459947
H281	H	0.566789	-0.000048	-0.342917
H282	H	0.816789	0.249952	-0.092917
H283	H	1.066789	0.499952	0.157083
H284	H	1.316789	0.749952	0.407083
H285	H	0.166444	-0.000081	-0.305950
H286	H	0.416444	0.249919	-0.055950
H287	H	0.666444	0.499919	0.194050
H288	H	0.916444	0.749919	0.444050
O289	O	0.765029	-0.000059	0.222505
O290	O	1.015029	0.249941	0.472505
O291	O	1.265029	0.499941	0.722505
O292	O	1.515029	0.749941	0.972505
H293	H	0.732202	0.049575	0.204384
H294	H	0.982202	0.299575	0.454384
H295	H	1.232202	0.549575	0.704384
H296	H	1.482202	0.799575	0.954384
H297	H	0.184203	-0.000104	-0.047870
H298	H	0.434203	0.249896	0.202130
H299	H	0.684203	0.499896	0.452130
H300	H	0.934203	0.749896	0.702130
H301	H	0.557710	-0.000096	-0.014056
H302	H	0.807710	0.249904	0.235944
H303	H	1.057710	0.499904	0.485944
H304	H	1.307710	0.749904	0.735944
H305	H	1.027670	-0.335944	-0.075021
H306	H	1.277670	-0.085944	0.174979
H307	H	1.527670	0.164056	0.424979
H308	H	1.777670	0.414056	0.674979
H309	H	1.088589	-0.000094	0.455073
H310	H	1.338589	0.249906	0.705073
H311	H	1.588589	0.499906	0.955073
H312	H	1.838589	0.749906	1.205073
H313	H	0.845596	-0.335951	-0.256961
H314	H	1.095596	-0.085951	-0.006961
H315	H	1.345596	0.164049	0.243039
H316	H	1.595596	0.414049	0.493039
O317	O	0.719008	-0.000075	-0.008122
O318	O	0.969008	0.249925	0.241878
O319	O	1.219008	0.499925	0.491878
O320	O	1.469008	0.749925	0.741878
H321	H	0.680022	-0.000075	0.044744
H322	H	0.930022	0.249925	0.294744
H323	H	1.180022	0.499925	0.544744
H324	H	1.430022	0.749925	0.794744
O325	O	0.345486	-0.000105	-0.041938
O326	O	0.595486	0.249895	0.208062
O327	O	0.845486	0.499895	0.458062
O328	O	1.095486	0.749895	0.708062
H329	H	0.306495	-0.000105	0.010925
H330	H	0.556495	0.249895	0.260925
H331	H	0.806495	0.499895	0.510925
H332	H	1.056495	0.749895	0.760925
O333	O	1.040912	-0.186766	-0.061762
O334	O	1.290912	0.063234	0.188238
O335	O	1.540912	0.313234	0.438238
O336	O	1.790912	0.563234	0.688238
H337	H	1.075801	-0.226291	-0.026893
H338	H	1.325801	0.023709	0.223107
H339	H	1.575801	0.273709	0.473107
H340	H	1.825801	0.523709	0.723107
O341	O	1.094526	-0.000094	0.616353
O342	O	1.344526	0.249906	0.866353
O343	O	1.594526	0.499906	1.116353
O344	O	1.844526	0.749906	1.366353
H345	H	1.129913	0.049527	0.602912
H346	H	1.379913	0.299527	0.852912
H347	H	1.629913	0.549527	1.102912
H348	H	1.879913	0.799527	1.352912
H349	H	0.845571	-0.196901	-0.256956
H350	H	1.095571	0.053099	-0.006956
H351	H	1.345571	0.303099	0.243044
H352	H	1.595571	0.553099	0.493044
H353	H	1.054770	-0.000104	0.081563
H354	H	1.304770	0.249896	0.331563
H355	H	1.554770	0.499896	0.581563
H356	H	1.804770	0.749896	0.831563
H357	H	1.027708	-0.664213	-0.075033
H358	H	1.277708	-0.414213	0.174967
H359	H	1.527708	-0.164213	0.424967
H360	H	1.777708	0.085787	0.674967
H361	H	0.830505	-0.000052	0.437325
H362	H	1.080505	0.249948	0.687325
H363	H	1.330505	0.499948	0.937325
H364	H	1.580505	0.749948	1.187325
O365	O	1.060700	-0.000104	0.242845
O366	O	1.310700	0.249896	0.492845
O367	O	1.560700	0.499896	0.742845
O368	O	1.810700	0.749896	0.992845
H369	H	1.113564	-0.000125	0.203858
H370	H	1.363564	0.249875	0.453858
H371	H	1.613564	0.499875	0.703858
H372	H	1.863564	0.749875	0.953858
