data_functionalizedCrystal
_audit_creation_method	'MofGen! by Chris Wilmer'
_symmetry_space_group_name_H-M	'P1'
_symmetry_Int_Tables_number	1
_symmetry_cell_setting	triclinic
loop_
_symmetry_equiv_pos_as_xyz
  x,y,z
_cell_length_a	12.759401
_cell_length_b	13.897447
_cell_length_c	12.759393
_cell_angle_alpha	90.032074
_cell_angle_beta	90.018567
_cell_angle_gamma	90.018574
loop_
_atom_site_label
_atom_site_type_symbol
_atom_site_fract_x
_atom_site_fract_y
_atom_site_fract_z
Zn1	Zn	1.606220	-0.383983	0.593980
Zn2	Zn	1.606100	-0.545312	0.418298
Zn3	Zn	1.430522	-0.384030	0.418319
Zn4	Zn	1.430496	-0.545235	0.593939
O5	O	1.518334	-0.464640	0.506134
O6	O	1.753225	-0.405396	0.570683
O7	O	1.582769	-0.523970	0.271280
O8	O	1.453890	-0.249042	0.441646
O9	O	1.753137	-0.523924	0.441611
O10	O	1.582975	-0.249007	0.570703
O11	O	1.453773	-0.405477	0.271295
O12	O	1.283498	-0.405402	0.441607
O13	O	1.453846	-0.523792	0.740966
O14	O	1.283478	-0.523838	0.570635
O15	O	1.582949	-0.405321	0.740995
O16	O	1.582744	-0.680283	0.441572
O17	O	1.453729	-0.680227	0.570615
C18	C	1.245367	-0.464617	0.506119
C19	C	1.128590	-0.464631	0.506138
C20	C	1.073768	-0.403030	0.573450
C21	C	0.964043	-0.403048	0.573457
C22	C	0.963975	-0.526277	0.438836
C23	C	1.073697	-0.526253	0.438825
C24	C	1.073806	-0.331887	0.651176
C25	C	0.964082	-0.331906	0.651182
C26	C	1.518249	-0.715254	0.506110
C27	C	1.518309	-0.822468	0.506134
C28	C	1.518359	-0.909538	0.506158
C29	C	1.518433	-1.018770	0.506185
C30	C	1.792368	-0.464663	0.506149
C31	C	1.909144	-0.464673	0.506156
C32	C	1.518408	-0.464543	0.780167
C33	C	1.518439	-0.464501	0.896944
C34	C	1.518449	-0.213047	0.506181
C35	C	1.518498	-0.105833	0.506202
C36	C	1.518322	-0.464667	0.233167
C37	C	1.518494	-0.464437	0.116390
C38	C	1.585673	-0.402807	0.951823
C39	C	1.585698	-0.402772	1.061547
C40	C	1.451253	-0.526133	1.061504
C41	C	1.451223	-0.526163	0.951782
C42	C	1.663297	-0.331589	0.951849
C43	C	1.663322	-0.331554	1.061574
H44	H	0.919267	-0.576448	0.384033
C45	C	1.134006	-0.594006	0.364773
C46	C	1.209455	-0.669770	0.410136
C47	C	1.269766	-0.737524	0.336081
C48	C	1.254629	-0.729514	0.216662
C49	C	1.179177	-0.653747	0.171293
C50	C	1.118866	-0.585993	0.245349
H51	H	1.220663	-0.675703	0.498542
H52	H	1.325620	-0.793612	0.369666
H53	H	1.299275	-0.779670	0.161842
H54	H	1.167969	-0.647814	0.082887
H55	H	1.063012	-0.529904	0.211763
H56	H	1.641535	-0.256887	0.922094
H57	H	1.634215	-0.260575	1.095622
H58	H	0.934335	-0.352008	0.732518
H59	H	1.103580	-0.257150	0.629523
H60	H	1.744691	-0.351563	1.091352
C61	C	1.119835	-0.368134	0.755518
C62	C	1.046230	-0.399220	0.844938
C63	C	1.092260	-0.435468	0.949280
C64	C	1.211894	-0.440630	0.964202
C65	C	1.285506	-0.409543	0.874779
C66	C	1.239476	-0.373295	0.770437
H67	H	0.957663	-0.395399	0.833895
H68	H	1.037766	-0.458480	1.015477
H69	H	1.245968	-0.467463	1.041442
H70	H	1.374073	-0.413364	0.885822
H71	H	1.293970	-0.350283	0.704240
C72	C	1.377246	-0.594019	0.891427
C73	C	1.257822	-0.586108	0.906532
C74	C	1.183835	-0.653966	0.846184
C75	C	1.229271	-0.729735	0.770731
C76	C	1.348701	-0.737649	0.755622
C77	C	1.422688	-0.669791	0.815970
H78	H	1.224182	-0.530017	0.962391
H79	H	1.095425	-0.648107	0.857369
H80	H	1.174501	-0.779968	0.726057
H81	H	1.382341	-0.793741	0.699764
H82	H	1.511098	-0.675650	0.804785
H83	H	0.930047	-0.260910	0.622183
H84	H	1.396526	-0.576334	1.106166
H85	H	1.740566	-0.358370	0.917813
