data_functionalizedCrystal
_audit_creation_method	'MofGen! by Chris Wilmer'
_symmetry_space_group_name_H-M	'P1'
_symmetry_Int_Tables_number	1
_symmetry_cell_setting	triclinic
loop_
_symmetry_equiv_pos_as_xyz
  x,y,z
_cell_length_a	12.827893
_cell_length_b	29.839131
_cell_length_c	12.827885
_cell_angle_alpha	90.036821
_cell_angle_beta	90.019272
_cell_angle_gamma	90.041391
loop_
_atom_site_label
_atom_site_type_symbol
_atom_site_fract_x
_atom_site_fract_y
_atom_site_fract_z
Zn1	Zn	1.597481	-0.178832	0.590798
Zn2	Zn	1.597295	-0.253969	0.416036
Zn3	Zn	1.422722	-0.178854	0.416071
Zn4	Zn	1.422628	-0.253936	0.590736
O5	O	1.510031	-0.216398	0.503410
O6	O	1.743692	-0.188804	0.567626
O7	O	1.574100	-0.244028	0.269805
O8	O	1.446021	-0.115984	0.439289
O9	O	1.743556	-0.244007	0.439230
O10	O	1.574415	-0.115968	0.567660
O11	O	1.445841	-0.188841	0.269830
O12	O	1.276473	-0.188809	0.439230
O13	O	1.445861	-0.243950	0.736981
O14	O	1.276404	-0.243971	0.567556
O15	O	1.574324	-0.188771	0.737026
O16	O	1.574008	-0.316832	0.439170
O17	O	1.445681	-0.316807	0.567522
C18	C	1.238522	-0.216389	0.503390
C19	C	1.122368	-0.216396	0.503407
C20	C	1.070577	-0.243735	0.566808
C21	C	0.950527	-0.243743	0.566827
C22	C	1.509843	-0.333120	0.503359
C23	C	1.509858	-0.383055	0.503371
C24	C	1.576973	-0.692698	0.436675
C25	C	1.577102	-0.880371	0.436716
O26	O	1.634016	-0.904636	0.379969
N27	N	1.510248	-0.903840	0.503489
C28	C	1.443362	-0.880387	0.570262
O29	O	1.386509	-0.904655	0.627065
C30	C	1.443239	-0.692715	0.570226
C31	C	1.510090	-0.669249	0.503441
C32	C	1.643819	-0.669232	0.369897
C33	C	1.643782	-0.622317	0.369883
C34	C	1.576899	-0.598867	0.436648
C35	C	1.510053	-0.622333	0.503427
C36	C	1.376359	-0.669263	0.637003
C37	C	1.376336	-0.622342	0.636990
C38	C	1.443187	-0.598876	0.570205
C39	C	1.443133	-0.551969	0.570179
N40	N	1.509987	-0.528500	0.503406
C41	C	1.576870	-0.551949	0.436641
C42	C	1.443430	-0.978918	0.570274
C43	C	1.443459	-1.025835	0.570282
C44	C	1.577201	-1.025816	0.436738
C45	C	1.577165	-0.978898	0.436725
C46	C	1.510284	-0.955449	0.503501
C47	C	1.576787	-0.453424	0.436617
C48	C	1.576741	-0.406504	0.436606
C49	C	1.443004	-0.406527	0.570154
C50	C	1.443045	-0.453443	0.570161
C51	C	1.509945	-0.476890	0.503389
O52	O	1.386257	-0.527675	0.626905
O53	O	1.633731	-0.527674	0.379862
C54	C	1.577010	-0.739614	0.436689
C55	C	1.510164	-0.763080	0.503468
C56	C	1.443281	-0.739630	0.570233
C57	C	1.510193	-0.809997	0.503476
C58	C	1.577076	-0.833447	0.436710
C59	C	1.643930	-0.809978	0.369937
C60	C	1.643893	-0.763063	0.369924
C61	C	1.376427	-0.763099	0.637006
C62	C	1.376468	-0.810014	0.637013
C63	C	1.443351	-0.833464	0.570248
C64	C	1.782602	-0.216407	0.503431
C65	C	1.898755	-0.216410	0.503440
C66	C	1.510103	-0.216354	0.775981
C67	C	1.510133	-0.216336	0.892134
C68	C	1.510249	-0.099219	0.503485
C69	C	1.510342	-0.049285	0.503517
C70	C	1.510021	-0.216408	0.231900
C71	C	1.510193	-0.216300	0.115748
C72	C	1.573708	-0.189027	0.943941
C73	C	1.573740	-0.189007	1.063991
H74	H	0.905987	-0.267150	0.621104
C75	C	1.361813	-0.721975	0.777590
C76	C	1.302883	-0.695048	0.710426
H77	H	1.316448	-0.737895	0.822919
H78	H	1.407311	-0.703637	0.817578
H79	H	1.401632	-0.742661	0.737820
H80	H	1.263069	-0.674361	0.750197
H81	H	1.257366	-0.713388	0.670435
H82	H	1.077832	-0.192995	0.449144
H83	H	0.943287	-0.193005	0.449153
C84	C	1.708949	-0.411205	0.304604
C85	C	1.650233	-0.380711	0.363195
H86	H	1.754322	-0.395282	0.259292
H87	H	1.663453	-0.429537	0.264599
H88	H	1.748905	-0.429473	0.350190
H89	H	1.610271	-0.362445	0.317610
H90	H	1.695734	-0.362371	0.403204
C91	C	1.775995	-0.664488	0.237886
C92	C	1.717340	-0.695002	0.296493
H93	H	1.821376	-0.680396	0.192558
H94	H	1.815930	-0.646161	0.283452
H95	H	1.730453	-0.646218	0.197886
H96	H	1.762881	-0.713270	0.336499
H97	H	1.677401	-0.713337	0.250920
C98	C	1.428489	-0.506168	0.710726
C99	C	1.369558	-0.479242	0.643561
H100	H	1.383123	-0.522095	0.756040
H101	H	1.473969	-0.487829	0.750731
H102	H	1.468328	-0.526847	0.670956
H103	H	1.329725	-0.458561	0.683331
H104	H	1.324060	-0.497583	0.603553
C105	C	1.588199	-0.128669	0.821094
C106	C	1.647158	-0.157484	0.883843
H107	H	1.633549	-0.109198	0.783990
H108	H	1.542765	-0.111458	0.863682
H109	H	1.548309	-0.145810	0.773043
H110	H	1.687043	-0.140343	0.931900
H111	H	1.692610	-0.174696	0.841251
H112	H	1.631265	-0.472509	0.382247
H113	H	1.698221	-0.603213	0.315504
C114	C	1.302812	-0.926214	0.584667
C115	C	1.369902	-0.953144	0.643673
H116	H	1.257422	-0.910303	0.629979
H117	H	1.262886	-0.944549	0.539108
H118	H	1.342632	-0.905522	0.544909
H119	H	1.330082	-0.973839	0.683425
H120	H	1.409831	-0.934808	0.689250
C121	C	1.244153	-0.627077	0.769009
C122	C	1.302816	-0.596568	0.710395
H123	H	1.198763	-0.611165	0.814320
H124	H	1.289681	-0.645343	0.809017
H125	H	1.204218	-0.645410	0.723437
H126	H	1.342758	-0.578238	0.755966
H127	H	1.257283	-0.578295	0.670384
C128	C	1.709361	-0.983602	0.304724
C129	C	1.650656	-0.953106	0.363321
H130	H	1.754737	-0.967680	0.259411
H131	H	1.663859	-1.001931	0.264719
H132	H	1.749314	-1.001873	0.350307
H133	H	1.610697	-0.934838	0.317738
H134	H	1.696163	-0.934769	0.403329
C135	C	1.104306	-0.319817	0.617361
C136	C	1.130684	-0.275326	0.640076
H137	H	1.141407	-0.339319	0.662601
H138	H	1.122109	-0.326345	0.547111
H139	H	1.031514	-0.323961	0.626984
H140	H	1.203476	-0.271181	0.630446
H141	H	1.112888	-0.268795	0.710343
H142	H	1.631660	-1.044917	0.382375
C143	C	1.495646	-0.276700	0.992841
C144	C	1.436712	-0.247866	1.055613
H145	H	1.450281	-0.296185	0.955706
H146	H	1.541104	-0.293895	1.035417
H147	H	1.535509	-0.259574	0.944816
H148	H	1.396856	-0.264992	1.103643
H149	H	1.391236	-0.230669	1.013034
H150	H	1.389013	-1.044938	0.624656
C151	C	1.383594	-0.334610	0.629429
C152	C	1.369493	-0.380745	0.643545
H153	H	1.338219	-0.318693	0.674748
H154	H	1.368323	-0.326954	0.559209
H155	H	1.453801	-0.326893	0.644775
H156	H	1.299287	-0.388463	0.628192
H157	H	1.384756	-0.388404	0.713781
H158	H	1.698329	-0.743960	0.315541
C159	C	1.588288	-0.128603	1.186891
C160	C	1.647220	-0.157439	1.124123
H161	H	1.633654	-0.109112	1.224009
H162	H	1.548439	-0.145724	1.234922
H163	H	1.542817	-0.111410	1.144306
H164	H	1.692685	-0.174634	1.166708
H165	H	1.687087	-0.140317	1.076087
H166	H	1.455722	-0.239699	0.936657
C167	C	1.784567	-0.862670	0.355610
C168	C	1.717483	-0.835752	0.296566
H169	H	1.829988	-0.878578	0.310322
H170	H	1.744752	-0.883360	0.395359
H171	H	1.824470	-0.844323	0.401179
H172	H	1.677575	-0.854099	0.251001
H173	H	1.757303	-0.815059	0.256799
C174	C	1.244278	-0.805309	0.769032
C175	C	1.302981	-0.835805	0.710433
H176	H	1.198922	-0.821230	0.814365
H177	H	1.204313	-0.787046	0.723460
H178	H	1.289790	-0.786972	0.809025
H179	H	1.257468	-0.854139	0.670433
H180	H	1.342949	-0.854076	0.756011
H181	H	1.321964	-0.744010	0.691376
