data_functionalizedCrystal
_audit_creation_method	'MofGen! by Chris Wilmer'
_symmetry_space_group_name_H-M	'P1'
_symmetry_Int_Tables_number	1
_symmetry_cell_setting	triclinic
loop_
_symmetry_equiv_pos_as_xyz
  x,y,z
_cell_length_a	14.908571
_cell_length_b	29.839131
_cell_length_c	29.839126
_cell_angle_alpha	89.975848
_cell_angle_beta	86.687887
_cell_angle_gamma	86.737317
loop_
_atom_site_label
_atom_site_type_symbol
_atom_site_fract_x
_atom_site_fract_y
_atom_site_fract_z
Zn1	Zn	1.379060	-0.218582	-0.293561
Zn2	Zn	1.378904	-0.293698	-0.218427
Zn3	Zn	1.228198	-0.214245	-0.214117
Zn4	Zn	1.228114	-0.289341	-0.289203
O5	O	1.303569	-0.253967	-0.253827
O6	O	1.505282	-0.232185	-0.287222
O7	O	1.358883	-0.283167	-0.154987
O8	O	1.248312	-0.151956	-0.224675
O9	O	1.505167	-0.287373	-0.232021
O10	O	1.359149	-0.155143	-0.283043
O11	O	1.248160	-0.224793	-0.151821
O12	O	1.101945	-0.220568	-0.220449
O13	O	1.248167	-0.279947	-0.352649
O14	O	1.101882	-0.275741	-0.275615
O15	O	1.359067	-0.227960	-0.355851
O16	O	1.358800	-0.355985	-0.227795
O17	O	1.248015	-0.352783	-0.279794
C18	C	1.069180	-0.247212	-0.247092
C19	C	0.968908	-0.244333	-0.244221
C20	C	0.780468	-0.296463	-0.296194
C21	C	0.686253	-0.293759	-0.293498
C22	C	0.686261	-0.236219	-0.236137
C23	C	0.780476	-0.238923	-0.238833
C24	C	0.827576	-0.269046	-0.268862
C25	C	0.921793	-0.271752	-0.271555
C26	C	0.921799	-0.214210	-0.214196
C27	C	0.827584	-0.211506	-0.211500
C28	C	1.303406	-0.370685	-0.253800
C29	C	1.303419	-0.420620	-0.253806
C30	C	1.361360	-0.731924	-0.226796
C31	C	1.361471	-0.919601	-0.226817
O32	O	1.410605	-0.945274	-0.203831
N33	N	1.303756	-0.941414	-0.253866
C34	C	1.246013	-0.916306	-0.280915
O35	O	1.196932	-0.939166	-0.303926
C36	C	1.245907	-0.728631	-0.280896
C37	C	1.303620	-0.706819	-0.253842
C38	C	1.419068	-0.710113	-0.199744
C39	C	1.419036	-0.663197	-0.199737
C40	C	1.361296	-0.638092	-0.226783
C41	C	1.303588	-0.659903	-0.253835
C42	C	1.188170	-0.703523	-0.307947
C43	C	1.188150	-0.656602	-0.307941
C44	C	1.245862	-0.634791	-0.280886
C45	C	1.245816	-0.587882	-0.280874
N46	N	1.303531	-0.566068	-0.253824
C47	C	1.361271	-0.591173	-0.226779
C48	C	1.246072	-1.014838	-0.280922
C49	C	1.246097	-1.061757	-0.280926
C50	C	1.361556	-1.065048	-0.226829
C51	C	1.361526	-1.018129	-0.226822
C52	C	1.303787	-0.993025	-0.253872
C53	C	1.361199	-0.492645	-0.226766
C54	C	1.361159	-0.445725	-0.226761
C55	C	1.245704	-0.442437	-0.280860
C56	C	1.245740	-0.489354	-0.280864
C57	C	1.303495	-0.514457	-0.253816
O58	O	1.196715	-0.562180	-0.303851
O59	O	1.410359	-0.568305	-0.203778
C60	C	1.361392	-0.778841	-0.226803
C61	C	1.303683	-0.800652	-0.253855
C62	C	1.245943	-0.775547	-0.280900
C63	C	1.303709	-0.847571	-0.253859
C64	C	1.361449	-0.872676	-0.226814
C65	C	1.419164	-0.850862	-0.199764
C66	C	1.419132	-0.803946	-0.199757
C67	C	1.188228	-0.797361	-0.307950
C68	C	1.188264	-0.844277	-0.307954
C69	C	1.246004	-0.869382	-0.280909
C70	C	1.538873	-0.260749	-0.260589
C71	C	1.639146	-0.263639	-0.263470
C72	C	1.303625	-0.253951	-0.371007
C73	C	1.303649	-0.253945	-0.420942
C74	C	1.303757	-0.136794	-0.253865
C75	C	1.303837	-0.086862	-0.253881
C76	C	1.246013	-0.223505	-0.728940
C77	C	1.246039	-0.223474	-0.916614
O78	O	1.196990	-0.197637	-0.939479
N79	N	1.303692	-0.253862	-0.941729
C80	C	1.361338	-0.284260	-0.919922
O81	O	1.410369	-0.310109	-0.945590
C82	C	1.361307	-0.284293	-0.732249
C83	C	1.303657	-0.253900	-0.707137
C84	C	1.188368	-0.193116	-0.703828
C85	C	1.188365	-0.193122	-0.656913
C86	C	1.246009	-0.223517	-0.635109
C87	C	1.303655	-0.253907	-0.660221
C88	C	1.418948	-0.314693	-0.710443
C89	C	1.418933	-0.314699	-0.663521
C90	C	1.361283	-0.284307	-0.638409
C91	C	1.361296	-0.284309	-0.591502
N92	N	1.303643	-0.253922	-0.566388
C93	C	1.246000	-0.223526	-0.588191
C94	C	1.361351	-0.284241	-1.018453
C95	C	1.361360	-0.284232	-1.065371
C96	C	1.246060	-0.223447	-1.062060
C97	C	1.246056	-0.223453	-1.015141
C98	C	1.303698	-0.253854	-0.993338
C99	C	1.246000	-0.223541	-0.489665
C100	C	1.246005	-0.223549	-0.442746
C101	C	1.361302	-0.284336	-0.446061
C102	C	1.361300	-0.284327	-0.492976
C103	C	1.303642	-0.253928	-0.514777
O104	O	1.410312	-0.310136	-0.568608
O105	O	1.196962	-0.197688	-0.562515
C106	C	1.246016	-0.223499	-0.775856
C107	C	1.303662	-0.253888	-0.800968
C108	C	1.361305	-0.284283	-0.779164
C109	C	1.303671	-0.253879	-0.847886
C110	C	1.246027	-0.223484	-0.869689
C111	C	1.188375	-0.193097	-0.844575
C112	C	1.188372	-0.193103	-0.797659
C113	C	1.418958	-0.314671	-0.804279
C114	C	1.418956	-0.314661	-0.851194
C115	C	1.361313	-0.284266	-0.872998
C116	C	1.303565	-0.253951	-0.137104
C117	C	1.303716	-0.253837	-0.087175
H118	H	1.408155	-0.427967	-0.204728
C119	C	0.775765	-0.178373	-0.178470
C120	C	0.711052	-0.141272	-0.196148
C121	C	0.659234	-0.108139	-0.163117
C122	C	0.672129	-0.112108	-0.112408
C123	C	0.736844	-0.149211	-0.094727
C124	C	0.788663	-0.182344	-0.127758
H125	H	0.701504	-0.138333	-0.233689
H126	H	0.611327	-0.080673	-0.176205
H127	H	0.633770	-0.087581	-0.087956
H128	H	0.746392	-0.152150	-0.057187
H129	H	0.836570	-0.209810	-0.114670
H130	H	1.408253	-0.309070	-0.513424
H131	H	1.466033	-0.645441	-0.177708
C132	C	1.124687	-0.727505	-0.337712
C133	C	1.022133	-0.718148	-0.331063
C134	C	0.958647	-0.742128	-0.360832
C135	C	0.997716	-0.775465	-0.397248
C136	C	1.100276	-0.784824	-0.403898
C137	C	1.163762	-0.760844	-0.374130
H138	H	0.993207	-0.693469	-0.304104
H139	H	0.882725	-0.735200	-0.355909
H140	H	0.950720	-0.793217	-0.419284
H141	H	1.129202	-0.809503	-0.430857
H142	H	1.239684	-0.767772	-0.379053
H143	H	1.408314	-0.308976	-1.085814
C144	C	0.634430	-0.203084	-0.203113
C145	C	0.569720	-0.165988	-0.220804
C146	C	0.517883	-0.132852	-0.187782
C147	C	0.530757	-0.136812	-0.137070
C148	C	0.595470	-0.173909	-0.119377
C149	C	0.647306	-0.207045	-0.152399
H150	H	0.560187	-0.163056	-0.258346
H151	H	0.469978	-0.105390	-0.200880
H152	H	0.492384	-0.112282	-0.112626
H153	H	0.605002	-0.176842	-0.081835
H154	H	0.695211	-0.234507	-0.139301
H155	H	1.199113	-0.198705	-0.994698
C156	C	1.182585	-0.190117	-0.415123
C157	C	1.182575	-0.190118	-0.363515
C158	C	1.119156	-0.156687	-0.335894
C159	C	1.055747	-0.123255	-0.359881
C160	C	1.055754	-0.123253	-0.411492
C161	C	1.119173	-0.156683	-0.439113
H162	H	1.229516	-0.214868	-0.345755
H163	H	1.119151	-0.156690	-0.297688
H164	H	1.008800	-0.098508	-0.339435
H165	H	1.008813	-0.098503	-0.429251
H166	H	1.119178	-0.156681	-0.477319
C167	C	0.634433	-0.323919	-0.323563
C168	C	0.530800	-0.320947	-0.320600
C169	C	0.478980	-0.351108	-0.350666
C170	C	0.530793	-0.384241	-0.383695
C171	C	0.634432	-0.387214	-0.386659
C172	C	0.686252	-0.357053	-0.356593
H173	H	0.492440	-0.296419	-0.296148
H174	H	0.402260	-0.348906	-0.348472
H175	H	0.492433	-0.406568	-0.405952
H176	H	0.672792	-0.411743	-0.411111
H177	H	0.762972	-0.359255	-0.358787
C178	C	1.424723	-0.520254	-0.197011
C179	C	1.417403	-0.513618	-0.145726
C180	C	1.480920	-0.541226	-0.115968
C181	C	1.551757	-0.575472	-0.137495
C182	C	1.559079	-0.582110	-0.188782
C183	C	1.495562	-0.554501	-0.218540
H184	H	1.364963	-0.488266	-0.129789
H185	H	1.475499	-0.536312	-0.078002
H186	H	1.598776	-0.595909	-0.115466
H187	H	1.611519	-0.607462	-0.204720
H188	H	1.500983	-0.559415	-0.256506
H189	H	1.408236	-0.309082	-0.428300
H190	H	1.466092	-0.730549	-0.177720
C191	C	1.182645	-0.190013	-1.086049
C192	C	1.111802	-0.207442	-1.116257
C193	C	1.048385	-0.174012	-1.140248
C194	C	1.055811	-0.123154	-1.134030
C195	C	1.126657	-0.105723	-1.103820
C196	C	1.190074	-0.139152	-1.079829
H197	H	1.106302	-0.245092	-1.120861
H198	H	0.995940	-0.186916	-1.162611
H199	H	1.008866	-0.098408	-1.151789
H200	H	1.132157	-0.068073	-1.099216
H201	H	1.242519	-0.126248	-1.057466
H202	H	1.141428	-0.168355	-0.777217
C203	C	1.425016	-0.994139	-0.197065
C204	C	1.385957	-0.960796	-0.160652
C205	C	1.449452	-0.936809	-0.130895
C206	C	1.552006	-0.946164	-0.137551
C207	C	1.591070	-0.979508	-0.173966
C208	C	1.527575	-1.003495	-0.203724
H209	H	1.310036	-0.953870	-0.155723
H210	H	1.420533	-0.912125	-0.103937
H211	H	1.599009	-0.928407	-0.115523
H212	H	1.666992	-0.986435	-0.178895
H213	H	1.556494	-1.028179	-0.230681
H214	H	1.465896	-0.339424	-0.786531
C215	C	1.124964	-0.159662	-0.868565
C216	C	1.022400	-0.160375	-0.859160
C217	C	0.958989	-0.126944	-0.883152
C218	C	0.998141	-0.092801	-0.916549
C219	C	1.100710	-0.092087	-0.925956
C220	C	1.164121	-0.125517	-0.901963
H221	H	0.993413	-0.185651	-0.834436
H222	H	0.883061	-0.127473	-0.876189
H223	H	0.951200	-0.068053	-0.934310
H224	H	1.129698	-0.066811	-0.950680
H225	H	1.240050	-0.124989	-0.908927
H226	H	1.408571	-1.085497	-0.204807
C227	C	0.973607	-0.304885	-0.304586
C228	C	0.960590	-0.355578	-0.300461
C229	C	1.012401	-0.388711	-0.333495
C230	C	1.077229	-0.371151	-0.370653
C231	C	1.090249	-0.320455	-0.374780
C232	C	1.038438	-0.287322	-0.341746
H233	H	0.912598	-0.368580	-0.272953
H234	H	1.002763	-0.426240	-0.330440
H235	H	1.115583	-0.395678	-0.395107
H236	H	1.138241	-0.307454	-0.402288
H237	H	1.048076	-0.249794	-0.344801
C238	C	0.832286	-0.329599	-0.329221
C239	C	0.819274	-0.380292	-0.325089
C240	C	0.871092	-0.413428	-0.358117
C241	C	0.935922	-0.395872	-0.395277
C242	C	0.948937	-0.345176	-0.399410
C243	C	0.897119	-0.312040	-0.366383
H244	H	0.771281	-0.393290	-0.297580
H245	H	0.861457	-0.450957	-0.355056
H246	H	0.974280	-0.420401	-0.419726
H247	H	0.996930	-0.332177	-0.426920
H248	H	0.906754	-0.274511	-0.369443
H249	H	0.960164	-0.191887	-0.191939
C250	C	1.124774	-0.868266	-0.337717
C251	C	1.022218	-0.858915	-0.331067
C252	C	0.958737	-0.882902	-0.360833
C253	C	0.997812	-0.916238	-0.397249
C254	C	1.100374	-0.925590	-0.403900
C255	C	1.163855	-0.901604	-0.374134
H256	H	0.993287	-0.834236	-0.304109
H257	H	0.882814	-0.875979	-0.355909
H258	H	0.950820	-0.933994	-0.419283
H259	H	1.129304	-0.950269	-0.430859
H260	H	1.239778	-0.908527	-0.379059
H261	H	1.199094	-1.079511	-0.302952
H262	H	1.199052	-0.994401	-0.302950
C263	C	1.124631	-0.628987	-0.337695
C264	C	1.022084	-0.632544	-0.331042
C265	C	0.958563	-0.604930	-0.360794
C266	C	0.997590	-0.573760	-0.397200
C267	C	1.100143	-0.570202	-0.403855
C268	C	1.163663	-0.597816	-0.374102
H269	H	0.993189	-0.655619	-0.304091
H270	H	0.882647	-0.607564	-0.355867
H271	H	0.950569	-0.553319	-0.419224
H272	H	1.129038	-0.547127	-0.430806
H273	H	1.239580	-0.595182	-0.379029
H274	H	1.198749	-0.507113	-0.302895
H275	H	1.465910	-0.339410	-0.871637
H276	H	1.198690	-0.421989	-0.302878
H277	H	1.466127	-0.786191	-0.177727
C278	C	1.182581	-0.190101	-0.513642
C279	C	1.080019	-0.190808	-0.504227
C280	C	1.016606	-0.157365	-0.528204
C281	C	1.055755	-0.123216	-0.561596
C282	C	1.158322	-0.122508	-0.571012
C283	C	1.221735	-0.155950	-0.547035
H284	H	1.051034	-0.216088	-0.479507
H285	H	0.940679	-0.157890	-0.521233
H286	H	1.008813	-0.098460	-0.579345
H287	H	1.187307	-0.097227	-0.595732
H288	H	1.297662	-0.155426	-0.554006
H289	H	1.466175	-0.871311	-0.177741
H290	H	1.141210	-0.776924	-0.329974
H291	H	1.465892	-0.339442	-0.730881
C292	C	1.124957	-0.159674	-0.727806
C293	C	1.022395	-0.160380	-0.718394
C294	C	0.958986	-0.126933	-0.742367
C295	C	0.998140	-0.092780	-0.775754
C296	C	1.100708	-0.092074	-0.785168
C297	C	1.164116	-0.125521	-0.761194
H298	H	0.993406	-0.185663	-0.693677
H299	H	0.883058	-0.127456	-0.735398
H300	H	0.951201	-0.068021	-0.793501
H301	H	1.129697	-0.066791	-0.809884
H302	H	1.240044	-0.124997	-0.768164
C303	C	1.424777	-0.317681	-0.994479
C304	C	1.527336	-0.316960	-1.003898
C305	C	1.590770	-0.350398	-0.979929
C306	C	1.551646	-0.384557	-0.946540
C307	C	1.449082	-0.385279	-0.937120
C308	C	1.385647	-0.351841	-0.961089
H309	H	1.556303	-0.291672	-1.028615
H310	H	1.666695	-0.349863	-0.986903
H311	H	1.598603	-0.409310	-0.928797
H312	H	1.420114	-0.410567	-0.912402
H313	H	1.309723	-0.352376	-0.954115
H314	H	1.141417	-0.168375	-0.636470
C315	C	1.482343	-0.348140	-0.639537
C316	C	1.584906	-0.347432	-0.648946
C317	C	1.648315	-0.380871	-0.624963
C318	C	1.609160	-0.415018	-0.591570
C319	C	1.506592	-0.415727	-0.582160
C320	C	1.443183	-0.382288	-0.606143
H321	H	1.613895	-0.322153	-0.673667
H322	H	1.724243	-0.380345	-0.631929
H323	H	1.656099	-0.439771	-0.573816
H324	H	1.477603	-0.441006	-0.557439
H325	H	1.367255	-0.382813	-0.599177
