data_functionalizedCrystal
_audit_creation_method	'MofGen! by Chris Wilmer'
_symmetry_space_group_name_H-M	'P1'
_symmetry_Int_Tables_number	1
_symmetry_cell_setting	triclinic
loop_
_symmetry_equiv_pos_as_xyz
  x,y,z
_cell_length_a	16.959455
_cell_length_b	29.839131
_cell_length_c	16.959447
_cell_angle_alpha	89.966004
_cell_angle_beta	89.983056
_cell_angle_gamma	90.038367
loop_
_atom_site_label
_atom_site_type_symbol
_atom_site_fract_x
_atom_site_fract_y
_atom_site_fract_z
Zn1	Zn	1.208287	-0.178881	-0.446889
Zn2	Zn	1.208154	-0.254014	-0.314702
Zn3	Zn	1.076109	-0.178895	-0.314726
Zn4	Zn	1.076031	-0.253980	-0.446841
O5	O	1.142145	-0.216443	-0.380790
O6	O	1.318880	-0.188855	-0.429364
O7	O	1.190615	-0.244069	-0.204094
O8	O	1.093731	-0.116026	-0.332288
O9	O	1.318783	-0.244056	-0.332247
O10	O	1.190842	-0.116015	-0.429388
O11	O	1.093603	-0.188880	-0.204112
O12	O	0.965488	-0.188847	-0.332242
O13	O	1.093598	-0.243998	-0.557458
O14	O	0.965430	-0.244012	-0.429305
O15	O	1.190766	-0.188823	-0.557493
O16	O	1.190539	-0.316877	-0.332200
O17	O	1.093469	-0.316852	-0.429282
C18	C	0.936779	-0.216428	-0.380771
C19	C	0.848922	-0.216432	-0.380782
C20	C	0.477453	-0.187695	-0.330354
C21	C	0.477441	-0.245227	-0.431270
C22	C	0.559987	-0.245221	-0.431265
C23	C	0.601270	-0.216451	-0.380803
C24	C	0.560006	-0.187688	-0.330346
C25	C	0.601257	-0.273987	-0.481716
C26	C	0.683808	-0.273982	-0.481713
C27	C	0.725092	-0.245210	-0.431254
C28	C	0.683823	-0.216445	-0.380795
C29	C	0.725105	-0.187675	-0.330333
C30	C	0.683838	-0.158908	-0.279878
C31	C	0.601290	-0.158916	-0.279887
C32	C	0.807640	-0.245202	-0.431245
C33	C	0.807659	-0.187669	-0.330325
C34	C	1.142003	-0.333165	-0.380750
C35	C	1.142014	-0.383100	-0.380760
C36	C	1.192782	-0.692743	-0.330313
C37	C	1.192879	-0.880416	-0.330344
O38	O	1.235931	-0.904681	-0.287422
N39	N	1.142309	-0.903885	-0.380849
C40	C	1.091715	-0.880432	-0.431354
O41	O	1.048710	-0.904699	-0.474319
C42	C	1.091622	-0.692760	-0.431327
C43	C	1.142190	-0.669294	-0.380812
C44	C	1.243346	-0.669277	-0.279803
C45	C	1.243318	-0.622362	-0.279793
C46	C	1.192726	-0.598912	-0.330293
C47	C	1.142162	-0.622378	-0.380802
C48	C	1.041032	-0.669308	-0.481835
C49	C	1.041015	-0.622387	-0.481826
C50	C	1.091582	-0.598921	-0.431311
C51	C	1.091541	-0.552013	-0.431292
N52	N	1.142112	-0.528545	-0.380786
C53	C	1.192704	-0.551994	-0.330287
C54	C	1.091766	-0.978962	-0.431364
C55	C	1.091788	-1.025880	-0.431370
C56	C	1.192954	-1.025861	-0.330360
C57	C	1.192927	-0.978943	-0.330351
C58	C	1.142336	-0.955494	-0.380858
C59	C	1.192641	-0.453469	-0.330268
C60	C	1.192606	-0.406549	-0.330260
C61	C	1.091444	-0.406572	-0.431273
C62	C	1.091475	-0.453487	-0.431278
C63	C	1.142080	-0.476935	-0.380773
O64	O	1.048519	-0.527719	-0.474197
O65	O	1.235715	-0.527719	-0.287341
C66	C	1.192810	-0.739659	-0.330323
C67	C	1.142245	-0.763125	-0.380833
C68	C	1.091653	-0.739675	-0.431332
C69	C	1.142268	-0.810042	-0.380839
C70	C	1.192860	-0.833492	-0.330339
C71	C	1.243430	-0.810023	-0.279834
C72	C	1.243402	-0.763108	-0.279824
C73	C	1.041083	-0.763144	-0.481838
C74	C	1.041114	-0.810059	-0.481843
C75	C	1.091707	-0.833508	-0.431344
C76	C	1.348313	-0.216458	-0.380808
C77	C	1.436170	-0.216464	-0.380816
C78	C	1.142188	-0.216405	-0.586958
C79	C	1.142206	-0.216389	-0.674814
C80	C	1.142310	-0.099264	-0.380846
C81	C	1.142380	-0.049330	-0.380870
C82	C	1.091765	-0.187607	-1.046306
C83	C	1.192785	-0.245077	-1.046275
C84	C	1.192772	-0.245087	-0.963729
C85	C	1.142253	-0.216358	-0.922468
C86	C	1.091748	-0.187618	-0.963752
C87	C	1.243270	-0.273830	-0.922438
C88	C	1.243258	-0.273842	-0.839887
C89	C	1.192743	-0.245110	-0.798624
C90	C	1.142236	-0.216368	-0.839914
C91	C	1.091718	-0.187639	-0.798653
C92	C	1.041215	-0.158895	-0.839941
C93	C	1.041233	-0.158886	-0.922490
C94	C	1.192724	-0.245119	-0.716076
C95	C	1.091701	-0.187649	-0.716099
C96	C	1.142149	-0.216447	-0.175423
C97	C	1.142284	-0.216337	-0.087567
H98	H	0.567639	-0.297413	-0.522794
Cl99	Cl	1.028282	-0.151472	-1.098208
Cl100	Cl	0.735679	-0.310144	-0.545143
H101	H	1.234148	-1.044962	-0.289242
Cl102	Cl	1.256258	-0.482938	-0.266774
H103	H	1.050603	-1.044982	-0.472496
H104	H	0.999886	-0.744055	-0.522962
Cl105	Cl	0.977710	-0.122778	-0.788060
H106	H	1.284497	-0.603258	-0.238662
Cl107	Cl	1.028157	-0.949491	-0.494864
H108	H	1.284549	-0.688365	-0.238680
H109	H	1.233848	-0.268519	-0.682462
H110	H	0.841236	-0.268625	-0.472322
Cl111	Cl	1.306766	-0.309949	-0.974312
Cl112	Cl	0.735746	-0.122745	-0.216437
Cl113	Cl	1.306749	-0.309974	-0.787989
Cl114	Cl	1.028192	-0.151527	-0.664235
H115	H	1.233784	-0.387444	-0.289123
H116	H	1.050249	-0.387472	-0.472387
Cl117	Cl	1.027887	-0.482988	-0.494767
H118	H	1.284622	-0.829124	-0.238713
H119	H	1.234104	-0.959839	-0.289218
H120	H	1.233909	-0.268470	-1.079875
Cl121	Cl	0.977466	-0.698796	-0.545353
Cl122	Cl	0.977536	-0.839553	-0.545353
H123	H	0.841265	-0.164238	-0.289237
Cl124	Cl	1.306980	-0.733615	-0.216320
Cl125	Cl	0.977747	-0.122755	-0.974399
H126	H	0.999818	-0.603297	-0.522958
H127	H	0.443849	-0.164272	-0.289277
Cl128	Cl	0.425543	-0.281402	-0.494688
Cl129	Cl	0.549407	-0.122755	-0.216463
