data_functionalizedCrystal
_audit_creation_method	'MofGen! by Chris Wilmer'
_symmetry_space_group_name_H-M	'P1'
_symmetry_Int_Tables_number	1
_symmetry_cell_setting	triclinic
loop_
_symmetry_equiv_pos_as_xyz
  x,y,z
_cell_length_a	10.654553
_cell_length_b	10.723024
_cell_length_c	9.130313
_cell_angle_alpha	89.999893
_cell_angle_beta	89.999282
_cell_angle_gamma	84.477024
loop_
_atom_site_label
_atom_site_type_symbol
_atom_site_fract_x
_atom_site_fract_y
_atom_site_fract_z
O1	O	1.667805	0.175288	-0.121812
O2	O	1.302325	0.191983	-0.121811
O3	O	1.493496	0.002060	-0.121806
O4	O	1.476635	0.365210	-0.121817
O5	O	1.493493	0.002065	0.121793
O6	O	1.302323	0.191988	0.121788
O7	O	1.667803	0.175293	0.121787
Cu8	Cu	1.485063	0.183641	0.144030
Cu9	Cu	1.485065	0.183635	-0.144054
O10	O	1.476632	0.365215	0.121782
C11	C	1.255526	0.190759	-0.000011
C12	C	1.116083	0.187089	-0.000011
C13	C	1.492267	-0.044437	-0.000008
C14	C	1.488596	-0.182992	-0.000013
C15	C	0.919543	0.181911	0.132765
C16	C	1.050563	0.185366	0.132773
C17	C	1.050575	0.185368	-0.132812
C18	C	0.919557	0.181922	-0.132818
C19	C	0.919537	0.181905	0.286098
C20	C	1.050558	0.185360	0.286107
C21	C	1.595565	-0.257957	-0.000016
C22	C	1.591774	-0.401161	-0.000021
C23	C	1.714602	0.176517	-0.000016
C24	C	1.854044	0.180187	-0.000026
C25	C	1.477861	0.411712	-0.000019
C26	C	1.481532	0.550267	-0.000023
N27	N	1.485070	0.183644	0.346653
N28	N	1.485068	0.183621	-0.346676
C29	C	1.569742	0.099576	0.423307
C30	C	1.569739	0.099561	0.576644
C31	C	1.400387	0.267694	0.576659
C32	C	1.400385	0.267702	0.423325
C33	C	1.667520	0.002508	0.423299
C34	C	1.667516	0.002493	0.576636
H35	H	0.866231	0.180533	-0.240949
H36	H	1.683347	-0.465579	-0.000016
Br37	Br	1.331268	-0.252709	-0.000034
Br38	Br	1.616667	-0.148568	0.655905
Br39	Br	1.828367	0.038115	0.646013
Br40	Br	1.285449	0.381776	0.319290
H41	H	1.389953	-0.385322	-0.000011
H42	H	0.873240	0.268143	0.344971
H43	H	1.331438	0.336131	0.639102
Br44	Br	1.139492	0.187724	-0.313021
H45	H	0.889977	0.090892	0.333673
H46	H	1.080108	0.276379	0.333684
Br47	Br	1.631808	-0.157355	0.353920
H48	H	1.096854	0.099117	0.344975
H49	H	1.689952	-0.216120	-0.000007
H50	H	1.758699	0.032903	0.375740
