data_functionalizedCrystal
_audit_creation_method	'MofGen! by Chris Wilmer'
_symmetry_space_group_name_H-M	'P1'
_symmetry_Int_Tables_number	1
_symmetry_cell_setting	triclinic
loop_
_symmetry_equiv_pos_as_xyz
  x,y,z
_cell_length_a	23.096457
_cell_length_b	16.704494
_cell_length_c	16.704494
_cell_angle_alpha	89.699037
_cell_angle_beta	56.632684
_cell_angle_gamma	56.633868
loop_
_atom_site_label
_atom_site_type_symbol
_atom_site_fract_x
_atom_site_fract_y
_atom_site_fract_z
Zr1	Zr	0.578439	-0.066967	0.811585
O2	O	0.720441	-0.209829	0.668719
O3	O	0.451150	-0.023177	0.855378
O4	O	0.585795	-0.200228	0.845774
O5	O	0.574862	0.106889	0.685903
O6	O	0.574862	-0.192649	0.985442
O7	O	0.585795	-0.032778	0.678324
O8	O	0.334006	0.124064	1.002622
O9	O	0.815718	-0.209823	0.668723
O10	O	0.489897	0.001162	0.978292
O11	O	0.489897	0.099737	0.879716
O12	O	0.648425	-0.108718	0.868408
O13	O	0.648425	-0.010142	0.769833
Zr14	Zr	0.543563	0.167875	1.046428
Zr15	Zr	0.561001	-0.054878	1.034339
Zr16	Zr	0.561001	0.155787	0.823674
Zr17	Zr	0.730395	-0.066957	0.811592
Zr18	Zr	0.391607	0.167865	1.046422
O19	O	0.670853	0.124085	1.002635
O20	O	0.695647	-0.192641	0.985446
O21	O	0.695647	0.106897	0.685908
O22	O	0.401561	0.310737	1.189294
O23	O	0.426356	-0.005989	1.172105
O24	O	0.426356	0.293549	0.872567
O25	O	0.547141	-0.005981	1.172110
O26	O	0.536207	0.301137	1.012239
O27	O	0.547140	0.293557	0.872572
O28	O	0.536207	0.133686	1.179690
O29	O	0.801858	-0.200215	0.845783
O30	O	0.320145	0.301123	1.012231
O31	O	0.306284	0.310731	1.189290
O32	O	0.320145	0.133672	1.179681
O33	O	0.801858	-0.032764	0.678332
O34	O	0.787997	-0.023156	0.855392
O35	O	0.473578	0.209626	0.989605
O36	O	0.473578	0.111050	1.088181
O37	O	0.632106	0.001171	0.978297
O38	O	0.632106	0.099746	0.879722
C39	C	0.370927	0.050442	0.928999
C40	C	0.306418	0.050438	0.928996
C41	C	0.582813	0.035333	0.650376
C42	C	0.590216	0.030202	0.555811
C43	C	0.539189	0.329084	0.944128
C44	C	0.531786	0.423649	0.949260
C45	C	0.276118	-0.001022	0.980445
C46	C	0.215494	-0.001013	0.980455
C47	C	0.185187	0.050441	0.928997
C48	C	0.215490	0.101912	0.877547
C49	C	0.276106	0.101911	0.877547
N50	N	0.130313	0.038091	0.840043
N51	N	0.072733	0.038087	0.840045
C52	C	0.002554	0.050450	0.928996
N53	N	-0.007859	0.062798	1.017943
N54	N	0.049730	0.062796	1.017939
C55	C	0.119459	0.050449	0.928992
C56	C	-0.093482	-0.001002	0.980461
C57	C	-0.154111	-0.000985	0.980475
C58	C	-0.154107	0.101932	0.877556
C59	C	-0.093486	0.101923	0.877552
C60	C	-0.063174	0.050450	0.929002
C61	C	0.751075	0.050466	0.929014
C62	C	0.815585	0.050470	0.929017
C63	C	0.582813	-0.228176	0.913885
C64	C	0.590216	-0.322741	0.908753
C65	C	0.683395	0.486622	0.844160
C66	C	0.676444	0.575471	0.848979
C67	C	0.510934	0.690196	0.963710
C68	C	0.517885	0.601347	0.958891
C69	C	0.604119	0.499561	0.899115
C70	C	0.611068	0.410712	0.894303
C71	C	0.445560	0.525438	1.009028
C72	C	0.438609	0.614287	1.013847
C73	C	0.438608	0.135298	0.492842
C74	C	0.445559	0.130479	0.403992
C75	C	0.611068	0.015751	0.289263
C76	C	0.604117	0.020570	0.378112
C77	C	0.517884	0.080344	0.479900
C78	C	0.510934	0.085157	0.568750
C79	C	0.676442	-0.029564	0.454020
C80	C	0.683394	-0.034383	0.365171
C81	C	0.539189	0.065575	1.207638
C82	C	0.531786	0.070706	1.302202
C83	C	0.349115	0.065563	1.207630
C84	C	0.277203	0.070690	1.302192
C85	C	0.349115	0.329072	0.944120
C86	C	0.277203	0.423633	0.949250
C87	C	0.327303	0.344193	1.222751
C88	C	0.247988	0.443885	1.322446
C89	C	0.794699	-0.243285	0.635262
C90	C	0.874014	-0.342977	0.535568
C91	C	0.772887	0.035346	0.650384
C92	C	0.844799	0.030218	0.555821
C93	C	0.772887	-0.228164	0.913893
C94	C	0.844799	-0.322725	0.908764
C95	C	0.251952	0.015728	1.289238
C96	C	0.184393	0.020525	1.378079
C97	C	0.142083	0.080290	1.479874
C98	C	0.167340	0.135254	1.492827
C99	C	0.234902	0.130451	1.403986
C100	C	0.234913	0.525409	1.009020
C101	C	0.167352	0.614267	1.013836
C102	C	0.142078	0.601347	0.958888
C103	C	0.184375	0.499559	0.899110
C104	C	0.251939	0.410703	0.894288
C105	C	0.210740	0.439247	1.420728
C106	C	0.136224	0.532910	1.514409
C107	C	0.098953	0.631211	1.509806
C108	C	0.136208	0.635847	1.411513
C109	C	0.210727	0.542184	1.317834
C110	C	0.911269	-0.338339	0.437286
C111	C	0.985804	-0.432002	0.343604
C112	C	1.023079	-0.530303	0.348207
C113	C	0.985820	-0.534939	0.446500
C114	C	0.911291	-0.441276	0.540179
C115	C	0.870058	0.085171	0.568775
C116	C	0.937635	0.080349	0.479932
C117	C	0.979948	0.020581	0.378137
C118	C	0.954687	-0.034379	0.365185
C119	C	0.887116	-0.029563	0.454027
C120	C	0.870051	-0.309770	0.963725
C121	C	0.937610	-0.398610	0.958926
C122	C	0.979920	-0.500404	0.899159
C123	C	0.954663	-0.513357	0.844196
C124	C	0.887100	-0.424517	0.849002
H125	H	0.190819	-0.042919	1.022352
H126	H	0.880959	-0.445065	0.620202
N127	N	0.018566	0.732233	1.610845
H128	H	0.036297	0.775014	1.613224
H129	H	0.000657	0.714289	1.673748
H130	H	0.753609	0.403745	0.795495
N131	N	0.121687	0.199729	1.602625
H132	H	0.147927	0.233828	1.597363
H133	H	0.133070	0.151902	1.639153
N134	N	0.345604	0.724069	1.078325
H135	H	0.353228	0.778393	1.073043
H136	H	0.306601	0.736413	1.154857
N137	N	0.859860	-0.088818	0.440055
H138	H	0.871992	-0.141708	0.471517
H139	H	0.896928	-0.127341	0.362072
H140	H	0.681274	-0.032899	0.206377
H141	H	0.958190	0.125109	0.490499
N142	N	0.250924	0.333230	1.425708
H143	H	0.216012	0.344520	1.502192
H144	H	0.317544	0.292120	1.389081
N145	N	1.052827	0.015392	0.282319
H146	H	1.062401	0.059280	0.305982
H147	H	1.032611	0.044016	0.241270
H148	H	1.083766	-0.606561	0.271920
N149	N	0.308810	-0.056535	1.035935
H150	H	0.280412	-0.089134	1.068530
H151	H	0.290071	-0.003614	1.093347
N152	N	0.182801	0.157417	0.822052
H153	H	0.139804	0.149608	0.829856
H154	H	0.237284	0.124726	0.744414
N155	N	0.824429	0.149638	0.678561
H156	H	0.850697	0.183709	0.673270
H157	H	0.835816	0.101806	0.715083
H158	H	0.835611	-0.226892	1.012393
H159	H	0.989148	-0.083041	0.282292
N160	N	0.069193	0.697187	0.964104
H161	H	0.096043	0.693246	0.890424
H162	H	0.046263	0.763571	1.010358
N163	N	0.964843	-0.384613	1.018204
H164	H	1.032290	-0.421758	0.966442
H165	H	0.952638	-0.416047	1.071106
N166	N	0.417926	0.149630	0.678531
H167	H	0.407260	0.206510	0.720790
H168	H	0.415500	0.101790	0.715029
N169	N	1.052784	-0.596210	0.893996
H170	H	1.105500	-0.597914	0.863041
H171	H	1.075691	-0.662618	0.847819
N172	N	1.000302	-0.623151	0.779736
H173	H	1.046935	-0.677456	0.785035
H174	H	1.032015	-0.635516	0.703198
N175	N	0.262131	0.189739	1.417966
H176	H	0.225070	0.228327	1.495935
H177	H	0.249991	0.242574	1.386450
N178	N	0.157096	0.485637	0.839864
H179	H	0.194133	0.407679	0.801265
H180	H	0.169223	0.517168	0.787041
N181	N	0.859870	-0.438498	0.789717
H182	H	0.896931	-0.516466	0.751128
H183	H	0.872009	-0.406982	0.736881
N184	N	0.761953	-0.088846	0.440061
H185	H	0.795256	-0.062447	0.402355
H186	H	0.803357	-0.167070	0.396711
N187	N	0.345607	0.199750	0.602628
H188	H	0.296439	0.233828	0.597344
H189	H	0.335019	0.256577	0.644834
N190	N	-0.186790	0.157435	0.822057
H191	H	-0.220128	0.235095	0.854733
H192	H	-0.229754	0.149551	0.829882
N193	N	0.308785	0.157420	0.822052
H194	H	0.342121	0.124756	0.744391
H195	H	0.351747	0.149598	0.829938
H196	H	0.286364	0.327835	0.845620
N197	N	0.157165	-0.038762	1.364086
H198	H	0.132853	-0.012341	1.326388
H199	H	0.107977	-0.026647	1.435839
H200	H	0.880926	-0.258306	0.433517
N201	N	0.121735	0.724039	1.078329
H202	H	0.053528	0.766300	1.135209
H203	H	0.133186	0.760545	1.030499
N204	N	-0.060786	-0.056511	1.035953
H205	H	-0.089189	-0.089104	1.068555
H206	H	-0.079520	-0.003590	1.093358
N207	N	0.262171	0.539365	1.068281
H208	H	0.311390	0.467638	1.056166
H209	H	0.206847	0.582790	1.146500
H210	H	1.016128	-0.428207	0.263580
N211	N	-0.186800	-0.056485	1.035974
H212	H	-0.158396	-0.089093	1.068562
H213	H	-0.168065	-0.113886	0.983046
H214	H	0.105850	0.715896	1.407781
N215	N	0.360059	0.189743	0.417939
H216	H	0.318576	0.267985	0.461317
H217	H	0.326838	0.163251	0.455607
N218	N	-0.060800	0.157426	0.822061
H219	H	-0.089198	0.190026	0.789464
H220	H	0.008238	0.104505	0.764652
N221	N	0.096050	0.527896	1.620415
H222	H	0.130967	0.451409	1.609107
H223	H	0.029431	0.564520	1.661527
H224	H	1.016179	-0.614986	0.450236
H225	H	0.241045	0.545976	1.237812
H226	H	0.681284	0.327836	0.845633
N227	N	0.069205	0.085479	1.575694
H228	H	0.089370	0.056834	1.616785
H229	H	0.059660	0.041604	1.551952
N230	N	0.761944	0.561524	0.789713
H231	H	0.803428	0.518146	0.711470
H232	H	0.795164	0.523856	0.816206
N233	N	0.417932	0.799982	1.028190
H234	H	0.425562	0.854301	1.022904
H235	H	0.378930	0.812327	1.104722
H236	H	0.286401	-0.032952	1.206358
H237	H	0.381007	0.535968	1.053776
N238	N	0.776397	-0.098842	0.255387
H239	H	0.768773	-0.093555	0.201064
H240	H	0.815413	-0.175377	0.243027
