data_functionalizedCrystal
_audit_creation_method	'MofGen! by Chris Wilmer'
_symmetry_space_group_name_H-M	'P1'
_symmetry_Int_Tables_number	1
_symmetry_cell_setting	triclinic
loop_
_symmetry_equiv_pos_as_xyz
  x,y,z
_cell_length_a	19.188933
_cell_length_b	19.188930
_cell_length_c	9.730223
_cell_angle_alpha	89.993564
_cell_angle_beta	90.001221
_cell_angle_gamma	83.145175
loop_
_atom_site_label
_atom_site_type_symbol
_atom_site_fract_x
_atom_site_fract_y
_atom_site_fract_z
O1	O	0.926140	0.087171	-0.114259
O2	O	1.426140	0.587171	0.385741
O3	O	0.722829	0.098904	-0.114274
O4	O	1.222829	0.598904	0.385726
O5	O	0.830351	-0.008618	-0.114240
O6	O	1.330351	0.491382	0.385760
O7	O	0.818617	0.194693	-0.114294
O8	O	1.318617	0.694693	0.385706
O9	O	0.830350	-0.008615	0.114340
O10	O	1.330350	0.491385	0.614340
O11	O	0.722828	0.098907	0.114306
O12	O	1.222828	0.598907	0.614306
O13	O	0.926139	0.087174	0.114320
O14	O	1.426139	0.587174	0.614320
Zn15	Zn	0.824483	0.093041	0.150605
Zn16	Zn	1.324483	0.593041	0.650605
Zn17	Zn	0.824485	0.093037	-0.150559
Zn18	Zn	1.324485	0.593037	0.349441
O19	O	0.818616	0.194696	0.114286
O20	O	1.318616	0.694696	0.614286
C21	C	0.696817	0.098525	0.000014
C22	C	1.196817	0.598525	0.500014
C23	C	0.619313	0.097384	0.000010
C24	C	1.119313	0.597384	0.500010
C25	C	0.066058	0.089237	-0.124572
C26	C	0.566058	0.589237	0.375428
C27	C	0.138882	0.090305	-0.124578
C28	C	0.638882	0.590305	0.375422
C29	C	0.175299	0.090844	0.000020
C30	C	0.675299	0.590844	0.500020
C31	C	0.138887	0.090297	0.124634
C32	C	0.638887	0.590297	0.624634
C33	C	0.066065	0.089222	0.124636
C34	C	0.566065	0.589222	0.624636
N35	N	0.284318	0.132264	0.092754
N36	N	0.784318	0.632264	0.592754
N37	N	0.353496	0.133286	0.092743
N38	N	0.853496	0.633286	0.592743
C39	C	0.394707	0.094082	0.000022
C40	C	0.894707	0.594082	0.500022
N41	N	0.364127	0.053825	-0.092710
N42	N	0.864127	0.553825	0.407290
N43	N	0.294942	0.052805	-0.092703
N44	N	0.794942	0.552805	0.407297
C45	C	0.254262	0.092009	0.000032
C46	C	0.754262	0.592009	0.500032
C47	C	0.510075	0.095782	-0.124590
C48	C	1.010075	0.595782	0.375410
C49	C	0.582901	0.096846	-0.124590
C50	C	1.082901	0.596846	0.375410
C51	C	0.582904	0.096845	0.124625
C52	C	1.082904	0.596845	0.624625
C53	C	0.510080	0.095774	0.124622
C54	C	1.010080	0.595774	0.624622
C55	C	0.473669	0.095246	0.000011
C56	C	0.973669	0.595246	0.500011
C57	C	0.829971	-0.034628	0.000054
C58	C	1.329971	0.465372	0.500054
C59	C	0.828830	-0.112132	0.000066
C60	C	1.328830	0.387868	0.500066
C61	C	0.891921	-0.157056	0.000077
C62	C	1.391921	0.342944	0.500077
C63	C	0.890849	-0.229880	0.000055
C64	C	1.390849	0.270120	0.500055
C65	C	0.826683	-0.257777	0.000049
C66	C	1.326683	0.242223	0.500049
C67	C	0.763584	-0.212843	0.000030
C68	C	1.263584	0.287157	0.500030
C69	C	0.764658	-0.140021	0.000039
C70	C	1.264658	0.359979	0.500039
N71	N	0.777636	-0.365781	0.077836
N72	N	1.277636	0.134219	0.577836
N73	N	0.776620	-0.434960	0.077831
N74	N	1.276620	0.065040	0.577831
C75	C	0.823445	-0.477185	0.000021
C76	C	1.323445	0.022815	0.500021
N77	N	0.871335	-0.447620	-0.077766
N78	N	1.371335	0.052380	0.422234
N79	N	0.872352	-0.378436	-0.077755
N80	N	1.372352	0.121564	0.422245
C81	C	0.825512	-0.336739	0.000040
C82	C	1.325512	0.163261	0.500040
C83	C	0.885378	-0.601073	0.000007
C84	C	1.385378	-0.101073	0.500007
C85	C	0.884304	-0.673898	-0.000024
C86	C	1.384304	-0.173898	0.499976
C87	C	0.757037	-0.656860	-0.000035
C88	C	1.257037	-0.156860	0.499965
C89	C	0.758113	-0.584037	-0.000018
C90	C	1.258113	-0.084037	0.499982
C91	C	0.822286	-0.556148	0.000009
C92	C	1.322286	-0.056148	0.500009
C93	C	0.952150	0.087553	0.000029
C94	C	1.452150	0.587553	0.500029
C95	C	1.029655	0.088694	0.000024
C96	C	1.529655	0.588694	0.500024
C97	C	0.818997	0.220705	-0.000011
C98	C	1.318997	0.720705	0.499989
C99	C	0.820137	0.298210	-0.000032
C100	C	1.320137	0.798210	0.499968
N101	N	0.824487	0.093043	0.356141
N102	N	1.324487	0.593043	0.856141
N103	N	0.824486	0.093029	-0.356095
N104	N	1.324486	0.593029	0.143905
C105	C	0.872110	0.045448	0.428083
C106	C	1.372110	0.545448	0.928083
C107	C	0.872108	0.045439	0.571966
C108	C	1.372108	0.545439	1.071966
C109	C	0.776858	0.140627	0.571953
C110	C	1.276858	0.640627	1.071953
C111	C	0.776857	0.140631	0.428073
C112	C	1.276857	0.640631	0.928073
C113	C	0.919740	-0.002141	0.356151
C114	C	1.419740	0.497859	0.856151
C115	C	0.967367	-0.049739	0.428093
C116	C	1.467367	0.450261	0.928093
C117	C	0.967366	-0.049748	0.571976
C118	C	1.467366	0.450252	1.071976
C119	C	0.919736	-0.002158	0.643917
C120	C	1.419736	0.497842	1.143917
H121	H	0.612540	0.097283	-0.226056
H122	H	1.112540	0.597283	0.273944
H123	H	0.919734	-0.002173	0.761077
H124	H	1.419734	0.497827	1.261077
H125	H	0.738077	0.179387	0.369498
H126	H	1.238077	0.679387	0.869498
H127	H	0.738081	0.179373	0.630537
H128	H	1.238081	0.679373	1.130537
H129	H	0.704792	-0.679573	-0.000046
H130	H	1.204792	-0.179573	0.499954
H131	H	0.935682	-0.710475	-0.000022
H132	H	1.435682	-0.210475	0.499978
N133	N	0.028882	0.088684	-0.251870
N134	N	0.528882	0.588684	0.248130
N135	N	0.043609	0.039602	-0.335292
N136	N	0.543609	0.539602	0.164708
H137	H	0.017354	0.039210	-0.425199
H138	H	0.517354	0.539210	0.074801
N139	N	0.176068	0.090857	-0.251868
N140	N	0.676068	0.590857	0.248132
N141	N	0.143550	0.090381	-0.363114
N142	N	0.643550	0.590381	0.136886
H143	H	0.169810	0.090771	-0.453015
H144	H	0.669810	0.590771	0.046985
H145	H	0.168542	0.090734	0.226082
H146	H	0.668542	0.590734	0.726082
N147	N	0.693660	-0.538154	-0.000024
N148	N	1.193660	-0.038154	0.499976
N149	N	0.636372	-0.563068	-0.000035
N150	N	1.136372	-0.063068	0.499965
H151	H	0.590848	-0.530664	-0.000044
H152	H	1.090848	-0.030664	0.499956
H153	H	0.711340	-0.235562	0.000023
H154	H	1.211340	0.264438	0.500023
N155	N	0.028887	0.088664	0.251927
N156	N	0.528887	0.588664	0.751927
N157	N	0.061407	0.089138	0.363170
N158	N	0.561407	0.589138	0.863170
H159	H	0.035150	0.088745	0.453073
H160	H	0.535150	0.588745	0.953073
H161	H	0.937631	-0.578365	0.000023
H162	H	1.437631	-0.078365	0.500023
H163	H	0.919747	-0.002137	0.238995
H164	H	1.419747	0.497863	0.738995
N165	N	0.955304	-0.275769	0.000065
N166	N	1.455304	0.224231	0.500065
N167	N	1.012594	-0.250859	0.000086
N168	N	1.512594	0.249141	0.500086
H169	H	1.058116	-0.283266	0.000095
H170	H	1.558116	0.216734	0.500095
N171	N	0.472890	0.095225	-0.251880
N172	N	0.972890	0.595225	0.248120
N173	N	0.487609	0.046137	-0.335293
N174	N	0.987609	0.546137	0.164707
H175	H	0.461349	0.045741	-0.425194
H176	H	0.961349	0.545741	0.074806
N177	N	0.620105	0.097386	0.251889
N178	N	1.120105	0.597386	0.751889
N179	N	0.685124	0.098342	0.251874
N180	N	1.185124	0.598342	0.751874
H181	H	0.711402	0.098721	0.341757
H182	H	1.211402	0.598721	0.841757
N183	N	0.472901	0.095220	0.251909
N184	N	0.972901	0.595220	0.751909
N185	N	0.505421	0.095697	0.363151
N186	N	1.005421	0.595697	0.863151
H187	H	0.479165	0.095304	0.453055
H188	H	0.979165	0.595304	0.953055
N189	N	1.016005	-0.098351	0.354593
N190	N	1.516005	0.401649	0.854593
N191	N	1.016000	-0.098340	0.226129
N192	N	1.516000	0.401660	0.726129
H193	H	1.050350	-0.132673	0.174220
H194	H	1.550350	0.367327	0.674220
H195	H	0.944175	-0.134354	0.000095
H196	H	1.444175	0.365646	0.500095
H197	H	1.006141	-0.088508	0.630549
H198	H	1.506141	0.411492	1.130549
N199	N	0.700202	-0.094139	0.000020
N200	N	1.200202	0.405861	0.500020
N201	N	0.642914	-0.119051	0.000001
N202	N	1.142914	0.380949	0.500001
H203	H	0.597391	-0.086646	-0.000011
H204	H	1.097391	0.413354	0.499989
