data_functionalizedCrystal
_audit_creation_method	'MofGen! by Chris Wilmer'
_symmetry_space_group_name_H-M	'P1'
_symmetry_Int_Tables_number	1
_symmetry_cell_setting	triclinic
loop_
_symmetry_equiv_pos_as_xyz
  x,y,z
_cell_length_a	13.032831
_cell_length_b	13.032423
_cell_length_c	13.032268
_cell_angle_alpha	89.069225
_cell_angle_beta	89.113023
_cell_angle_gamma	90.886572
loop_
_atom_site_label
_atom_site_type_symbol
_atom_site_fract_x
_atom_site_fract_y
_atom_site_fract_z
Zn1	Zn	1.423768	0.684117	0.684422
Zn2	Zn	1.429028	0.835045	0.491171
Zn3	Zn	1.278248	0.641799	0.496627
Zn4	Zn	1.235874	0.829568	0.642068
O5	O	1.341729	0.747632	0.578572
O6	O	1.566202	0.724140	0.674229
O7	O	1.428961	0.793993	0.350151
O8	O	1.313084	0.505667	0.541546
O9	O	1.570066	0.835026	0.532248
O10	O	1.419997	0.536758	0.679518
O11	O	1.318184	0.652016	0.354159
O12	O	1.130891	0.646705	0.500478
O13	O	1.240864	0.825691	0.789431
O14	O	1.099759	0.784658	0.607333
O15	O	1.378909	0.718829	0.820547
O16	O	1.387873	0.976064	0.491180
O17	O	1.245964	0.972040	0.602044
C18	C	1.078574	0.710496	0.549902
C19	C	0.965989	0.694636	0.537658
C20	C	0.900421	0.755910	0.584962
C21	C	0.784058	0.739519	0.572308
C22	C	1.312915	1.010811	0.541449
C23	C	1.300677	1.123417	0.525612
C24	C	1.335415	1.305309	0.570506
C25	C	1.348072	1.188926	0.586878
C26	C	1.605912	0.784914	0.607354
C27	C	1.718491	0.800802	0.619620
C28	C	1.304573	0.776370	0.842769
C29	C	1.288739	0.788616	0.955354
C30	C	1.370627	1.483425	0.615867
C31	C	1.382804	1.370819	0.631764
C32	C	1.378808	0.718942	0.315419
C33	C	1.394869	0.706438	0.202896
C34	C	1.349981	0.741202	1.020944
C35	C	1.333618	0.753858	1.137307
H36	H	0.754051	0.674918	0.522442
H37	H	0.748497	0.865395	0.669498
O38	O	0.926252	0.609085	0.471578
H39	H	0.841092	0.609649	0.471993
H40	H	0.930433	0.820500	0.634834
H41	H	1.398013	1.158857	0.651453
O42	O	1.480379	0.640256	1.163182
H43	H	1.522747	0.607447	1.228931
H44	H	1.250724	1.153486	0.461046
H45	H	1.285469	1.335385	0.505943
O46	O	1.248106	0.820043	1.177014
H47	H	1.248675	0.819601	1.262179
H48	H	1.432741	1.340745	0.696334
H49	H	1.414525	0.691236	0.990952
O50	O	1.203232	0.854797	0.995067
H51	H	1.203800	0.854355	1.080231
