data_functionalizedCrystal
_audit_creation_method	'MofGen! by Chris Wilmer'
_symmetry_space_group_name_H-M	'P1'
_symmetry_Int_Tables_number	1
_symmetry_cell_setting	triclinic
loop_
_symmetry_equiv_pos_as_xyz
  x,y,z
_cell_length_a	17.917603
_cell_length_b	23.196402
_cell_length_c	23.196402
_cell_angle_alpha	90.005244
_cell_angle_beta	57.014580
_cell_angle_gamma	63.033869
loop_
_atom_site_label
_atom_site_type_symbol
_atom_site_fract_x
_atom_site_fract_y
_atom_site_fract_z
Zr1	Zr	0.818615	0.584136	-0.104429
O2	O	0.974641	0.497561	-0.201965
O3	O	0.662588	0.606873	-0.070725
O4	O	0.818612	0.612347	-0.196478
O5	O	0.818619	0.492095	0.018659
O6	O	0.818611	0.707218	-0.196478
O7	O	0.818617	0.492087	-0.076211
O8	O	0.539512	0.697427	0.028473
O9	O	1.097718	0.501886	-0.206291
O10	O	0.726763	0.691966	-0.060946
O11	O	0.726766	0.621171	0.009854
O12	O	0.910464	0.627616	-0.138205
O13	O	0.910467	0.556820	-0.067405
Zr14	Zr	0.818615	0.735458	0.046879
Zr15	Zr	0.818612	0.735445	-0.104427
Zr16	Zr	0.818618	0.584149	0.046878
Zr17	Zr	1.014908	0.591035	-0.111329
Zr18	Zr	0.622322	0.728559	0.053780
O19	O	0.974641	0.712721	0.013175
O20	O	0.974637	0.712702	-0.201963
O21	O	0.974646	0.497579	0.013174
O22	O	0.662588	0.822033	0.144415
O23	O	0.662584	0.822015	-0.070723
O24	O	0.662593	0.606892	0.144414
O25	O	0.818611	0.827499	-0.076208
O26	O	0.818617	0.707247	0.138929
O27	O	0.818619	0.612376	0.138928
O28	O	0.818612	0.827507	0.018661
O29	O	1.097716	0.622157	-0.206291
O30	O	0.539514	0.697437	0.148741
O31	O	0.539512	0.817708	0.148742
O32	O	0.539509	0.817697	0.028474
O33	O	1.097720	0.501897	-0.086023
O34	O	1.097718	0.622167	-0.086022
O35	O	0.726766	0.691979	0.080655
O36	O	0.726763	0.762774	0.009855
O37	O	0.910464	0.698423	-0.067404
O38	O	0.910467	0.627628	0.003396
C39	C	0.573082	0.651167	-0.020143
C40	C	0.489751	0.648238	-0.017213
C41	C	0.818619	0.659813	0.160487
C42	C	0.818620	0.659819	0.224720
C43	C	0.818611	0.849061	-0.028773
C44	C	0.818610	0.913296	-0.028773
C45	C	0.337182	0.642887	-0.011863
C46	C	0.300043	0.676705	-0.045684
C47	C	0.215148	0.673728	-0.042708
C48	C	0.422084	0.645864	-0.014839
C49	C	1.064147	0.668427	-0.037407
C50	C	1.147479	0.671356	-0.040336
C51	C	0.818619	0.470533	-0.028776
C52	C	0.818620	0.406298	-0.028777
C53	C	0.722723	0.977059	0.011559
C54	C	0.722721	1.037415	0.011556
C55	C	0.818612	1.034002	-0.028770
C56	C	0.914512	0.970227	-0.069111
C57	C	0.914511	0.909874	-0.069112
C58	C	0.892079	1.103886	-0.026074
C59	C	0.892076	1.164240	-0.026067
C60	C	0.818620	1.220150	-0.028771
C61	C	0.745149	1.215706	-0.031466
C62	C	0.745148	1.155353	-0.031467
C63	C	0.818625	1.099441	-0.028774
C64	C	0.722725	1.349360	0.011559
C65	C	0.722728	1.409715	0.011551
C66	C	0.914522	1.342525	-0.069111
C67	C	0.914516	1.282172	-0.069107
C68	C	0.818615	1.285595	-0.028768
C69	C	0.818611	0.659781	-0.218036
C70	C	0.818610	0.659775	-0.282270
C71	C	0.914507	0.626231	0.214567
C72	C	0.914509	0.626221	0.274921
C73	C	0.818617	0.659812	0.345429
C74	C	0.722717	0.693400	0.355580
C75	C	0.722719	0.693404	0.295225
C76	C	0.745151	0.719132	0.471949
C77	C	0.745153	0.719131	0.532300
C78	C	0.818609	0.659800	0.531583
C79	C	0.892080	0.600471	0.470499
C80	C	0.892082	0.600474	0.410145
C81	C	0.818605	0.659811	0.410877
C82	C	0.914505	0.626198	0.586870
C83	C	0.914502	0.626185	0.647227
C84	C	0.722708	0.693371	0.727885
C85	C	0.722713	0.693377	0.667528
C86	C	0.818615	0.659792	0.597023
C87	C	0.573079	0.840431	-0.020141
C88	C	0.489746	0.901737	-0.017211
C89	C	0.573086	0.651183	0.169118
C90	C	0.489756	0.648260	0.236282
C91	C	0.573082	0.840448	0.169120
C92	C	0.489751	0.901759	0.236284
C93	C	1.064147	0.479146	-0.226669
C94	C	1.147479	0.417835	-0.293833
C95	C	1.064151	0.479163	-0.037408
C96	C	1.147484	0.417857	-0.040338
C97	C	1.064143	0.668411	-0.226668
C98	C	1.147474	0.671334	-0.293831
C99	C	0.450612	0.893566	-0.052799
C100	C	0.372323	0.951164	-0.050060
C101	C	0.333164	1.016932	-0.011729
C102	C	0.372305	1.025102	0.023859
C103	C	0.450599	0.967505	0.021116
C104	C	0.450623	0.683848	0.304786
C105	C	0.372337	0.681099	0.367898
C106	C	0.333179	0.642765	0.362505
C107	C	0.372320	0.607173	0.293993
C108	C	0.450610	0.609919	0.230882
C109	C	0.450616	0.967512	0.230868
C110	C	0.372328	1.025126	0.293969
C111	C	0.333171	1.016986	0.362485
C112	C	0.372314	0.951226	0.367900
C113	C	0.450606	0.893613	0.304799
C114	C	1.186623	0.352082	-0.288417
C115	C	1.264935	0.294469	-0.351519
C116	C	1.304096	0.302609	-0.420036
C117	C	1.264949	0.368369	-0.425450
C118	C	1.186643	0.425981	-0.362349
C119	C	1.186626	0.426028	-0.004757
C120	C	1.264937	0.368431	-0.007513
C121	C	1.304098	0.302663	-0.045846
C122	C	1.264953	0.294493	-0.081432
C123	C	1.186649	0.352090	-0.078680
C124	C	1.186607	0.709674	-0.288414
C125	C	1.264894	0.712434	-0.351515
C126	C	1.304052	0.676850	-0.420032
C127	C	1.264911	0.638509	-0.425447
C128	C	1.186620	0.635753	-0.362347
H129	H	0.305221	0.611700	0.019324
H130	H	0.482497	0.715063	0.309191
H131	H	0.644632	0.979852	0.044405
H132	H	1.154773	0.479519	-0.366767
O133	O	1.307130	0.377256	0.030883
H134	H	1.368168	0.326161	0.022528
H135	H	1.154782	0.345427	-0.107652
O136	O	1.017940	1.213394	-0.112607
H137	H	1.022526	1.184288	-0.075459
O138	O	0.619297	1.106201	0.055064
H139	H	0.552612	1.098440	0.083117
O140	O	0.342384	0.718014	-0.087007
H141	H	0.378099	0.697915	-0.145076
O142	O	0.619288	0.729603	0.803931
H143	H	0.573304	0.706630	0.811687
H144	H	0.340466	1.078666	0.289547
O145	O	1.388553	0.240464	-0.488090
H146	H	1.409220	0.257165	-0.536649
O147	O	0.619301	1.478495	0.055048
H148	H	0.573325	1.483027	0.113469
H149	H	1.296844	0.374989	-0.481244
H150	H	0.685334	0.767441	0.582030
O151	O	0.492668	0.571641	0.157001
H152	H	0.452222	0.544570	0.163863
H153	H	0.685328	1.151737	-0.033663
H154	H	1.154736	0.738651	-0.232630
O155	O	1.388526	0.240541	-0.048788
H156	H	1.409141	0.257279	-0.017590
O157	O	0.665918	1.276000	-0.034388
H158	H	0.678268	1.318712	-0.033945
H159	H	1.296754	0.743655	-0.347092
H160	H	0.644637	1.352147	0.044403
H161	H	0.269412	1.063825	-0.009501
O162	O	1.017953	1.338833	-0.112632
H163	H	1.001846	1.391513	-0.105862
O164	O	1.388506	0.679821	-0.488085
H165	H	1.358465	0.701895	-0.518902
H166	H	1.296851	0.240938	-0.112642
O167	O	0.971291	1.169043	-0.023136
H168	H	1.022375	1.120025	-0.021262
O169	O	1.144410	0.496961	0.036578
H170	H	1.184808	0.492956	0.060842
O171	O	1.307160	0.600122	-0.499350
H172	H	1.368185	0.608477	-0.542311
O173	O	1.144427	0.594389	-0.368193
H174	H	1.184825	0.570105	-0.426440
H175	H	0.685324	0.767448	0.472546
O176	O	0.971300	1.043586	-0.023147
H177	H	1.022372	1.056820	-0.021257
H178	H	0.992597	0.598882	0.157162
O179	O	0.492792	0.822692	0.310645
H180	H	0.452392	0.826718	0.368892
H181	H	0.992588	0.967452	-0.101946
O182	O	1.017936	0.841093	-0.112610
H183	H	1.084618	0.848856	-0.140651
O184	O	0.330124	0.719494	0.441787
H185	H	0.243749	0.757303	0.474093
O186	O	1.017933	0.589999	0.263981
H187	H	1.084617	0.566650	0.204815
H188	H	0.951902	0.552167	0.360412
H189	H	0.951895	0.552158	0.469910
H190	H	0.992593	0.598847	0.529461
H191	H	0.992588	0.598830	0.638953
H192	H	0.644632	0.720731	0.675799
O193	O	0.492785	0.976323	0.059517
H194	H	0.528444	1.006889	0.036916
H195	H	0.644642	0.720748	0.412991
O196	O	0.248719	0.639819	0.430578
H197	H	0.228080	0.671017	0.479117
H198	H	0.644633	0.720755	0.303498
H199	H	0.482495	0.840020	-0.084021
O200	O	0.248715	1.079132	0.430539
H201	H	0.228056	1.062431	0.479097
O202	O	0.330106	0.942345	-0.088440
H203	H	0.370479	0.886935	-0.115541
H204	H	0.340411	1.078658	0.055067
H205	H	0.340426	0.575963	0.289613
H206	H	0.340421	0.944608	0.423694
O207	O	0.492854	0.976301	0.156971
H208	H	0.452490	1.031707	0.163817
H209	H	1.296796	0.240930	-0.347097
O210	O	1.144399	0.343294	-0.214521
H211	H	1.184795	0.287889	-0.221369
