data_functionalizedCrystal
_audit_creation_method	'MofGen! by Chris Wilmer'
_symmetry_space_group_name_H-M	'P1'
_symmetry_Int_Tables_number	1
_symmetry_cell_setting	triclinic
loop_
_symmetry_equiv_pos_as_xyz
  x,y,z
_cell_length_a	11.169417
_cell_length_b	12.759394
_cell_length_c	11.169409
_cell_angle_alpha	90.034466
_cell_angle_beta	90.020564
_cell_angle_gamma	90.015716
loop_
_atom_site_label
_atom_site_type_symbol
_atom_site_fract_x
_atom_site_fract_y
_atom_site_fract_z
Zn1	Zn	1.834934	-0.418157	0.678525
Zn2	Zn	2.334934	0.081843	1.178525
Zn3	Zn	1.834805	-0.593883	0.477834
Zn4	Zn	2.334805	-0.093883	0.977834
Zn5	Zn	1.634217	-0.418221	0.477859
Zn6	Zn	2.134217	0.081779	0.977859
Zn7	Zn	1.634211	-0.593798	0.678479
Zn8	Zn	2.134211	-0.093798	1.178479
O9	O	1.734542	-0.506015	0.578174
O10	O	2.234542	-0.006015	1.078174
O11	O	2.002866	-0.441477	0.651911
O12	O	2.502866	0.058523	1.151911
O13	O	1.808145	-0.570644	0.309887
O14	O	2.308145	-0.070644	0.809887
O15	O	1.660899	-0.271192	0.504507
O16	O	2.160899	0.228808	1.004507
O17	O	2.002771	-0.570582	0.504465
O18	O	2.502771	-0.070582	1.004465
O19	O	1.808364	-0.271145	0.651935
O20	O	2.308364	0.228855	1.151935
O21	O	1.660774	-0.441586	0.309906
O22	O	2.160774	0.058414	0.809906
O23	O	1.466266	-0.441503	0.504463
O24	O	1.966266	0.058497	1.004463
O25	O	1.660889	-0.570436	0.846435
O26	O	2.160889	-0.070436	1.346435
O27	O	1.466262	-0.570498	0.651857
O28	O	1.966262	-0.070498	1.151857
O29	O	1.808359	-0.441394	0.846468
O30	O	2.308359	0.058606	1.346468
O31	O	1.808139	-0.740893	0.504420
O32	O	2.308139	-0.240893	1.004420
O33	O	1.660764	-0.740830	0.651833
O34	O	2.160764	-0.240830	1.151833
C35	C	1.422717	-0.505999	0.578159
C36	C	1.922717	-0.005999	1.078159
C37	C	1.289317	-0.506017	0.578180
C38	C	1.789317	-0.006017	1.078180
C39	C	1.734470	-0.778982	0.578145
C40	C	2.234470	-0.278982	1.078145
C41	C	1.734548	-0.895759	0.578173
C42	C	2.234548	-0.395759	1.078173
C43	C	1.888125	-0.895771	0.424787
C44	C	2.388125	-0.395771	0.924787
C45	C	1.964945	-0.950638	0.348108
C46	C	2.464945	-0.450638	0.848108
C47	C	1.965015	-1.060359	0.348140
C48	C	2.465015	-0.560359	0.848140
C49	C	1.888260	-1.115217	0.424863
C50	C	2.388260	-0.615217	0.924863
C51	C	1.811441	-1.060350	0.501541
C52	C	2.311441	-0.560350	1.001541
C53	C	1.811376	-0.950626	0.501498
C54	C	2.311376	-0.450626	1.001498
C55	C	1.657872	-1.060338	0.654932
C56	C	2.157872	-0.560338	1.154932
C57	C	1.657793	-0.950616	0.654895
C58	C	2.157793	-0.450616	1.154895
C59	C	1.581117	-1.115195	0.731654
C60	C	2.081117	-0.615195	1.231654
C61	C	1.504289	-1.060329	0.808329
C62	C	2.004289	-0.560329	1.308329
C63	C	1.504221	-0.950600	0.808292
C64	C	2.004221	-0.450600	1.308292
C65	C	1.580974	-0.895750	0.731574
C66	C	2.080974	-0.395750	1.231574
C67	C	2.047584	-0.506032	0.578190
C68	C	2.547584	-0.006032	1.078190
C69	C	2.180984	-0.506039	0.578197
C70	C	2.680984	-0.006039	1.078197
C71	C	1.734638	-0.505898	0.891217
C72	C	2.234638	-0.005898	1.391217
C73	C	1.734679	-0.505849	1.024617
C74	C	2.234679	-0.005849	1.524617
C75	C	1.734647	-0.231981	0.578229
C76	C	2.234647	0.268019	1.078229
C77	C	1.734691	-0.115205	0.578253
C78	C	2.234691	0.384795	1.078253
C79	C	1.734515	-0.506055	0.266349
C80	C	2.234515	-0.006055	0.766349
C81	C	1.734706	-0.505809	0.132950
C82	C	2.234706	-0.005809	0.632950
H83	H	1.888060	-0.806430	0.424737
H84	H	2.388060	-0.306430	0.924737
H85	H	1.580918	-0.806409	0.731529
H86	H	2.080918	-0.306409	1.231529
H87	H	2.027441	-0.905963	0.285643
H88	H	2.527441	-0.405963	0.785643
H89	H	2.027575	-1.105032	0.285708
H90	H	2.527575	-0.605032	0.785708
H91	H	1.888335	-1.204558	0.424893
H92	H	2.388335	-0.704558	0.924893
H93	H	1.441670	-0.905933	0.870738
H94	H	1.941670	-0.405933	1.370738
F95	F	1.580796	-1.231970	0.731289
F96	F	2.080796	-0.731970	1.231289
F97	F	1.422618	-1.118717	0.889980
F98	F	1.922618	-0.618717	1.389980
