data_functionalizedCrystal
_audit_creation_method	'MofGen! by Chris Wilmer'
_symmetry_space_group_name_H-M	'P1'
_symmetry_Int_Tables_number	1
_symmetry_cell_setting	triclinic
loop_
_symmetry_equiv_pos_as_xyz
  x,y,z
_cell_length_a	21.395362
_cell_length_b	19.805405
_cell_length_c	21.395356
_cell_angle_alpha	89.970920
_cell_angle_beta	89.957023
_cell_angle_gamma	90.042288
loop_
_atom_site_label
_atom_site_type_symbol
_atom_site_fract_x
_atom_site_fract_y
_atom_site_fract_z
Zn1	Zn	0.957872	-0.269193	-0.354580
Zn2	Zn	1.291206	0.064140	-0.021246
Zn3	Zn	1.624539	0.397473	0.312087
Zn4	Zn	0.957784	-0.382381	-0.249800
Zn5	Zn	1.291118	-0.049048	0.083534
Zn6	Zn	1.624451	0.284285	0.416867
Zn7	Zn	0.853089	-0.269243	-0.249781
Zn8	Zn	1.186422	0.064090	0.083553
Zn9	Zn	1.519756	0.397424	0.416886
Zn10	Zn	0.853064	-0.382377	-0.354504
Zn11	Zn	1.186398	-0.049044	-0.021171
Zn12	Zn	1.519731	0.284289	0.312162
O13	O	0.905452	-0.325799	-0.302166
O14	O	1.238786	0.007535	0.031167
O15	O	1.572119	0.340868	0.364501
O16	O	1.045539	-0.284189	-0.340720
O17	O	1.378872	0.049144	-0.007386
O18	O	1.712205	0.382478	0.325947
O19	O	0.943870	-0.367396	-0.162119
O20	O	1.277203	-0.034063	0.171214
O21	O	1.610537	0.299271	0.504548
O22	O	0.867036	-0.174520	-0.263706
O23	O	1.200369	0.158813	0.069627
O24	O	1.533702	0.492147	0.402960
O25	O	1.045474	-0.367348	-0.263738
O26	O	1.378807	-0.034014	0.069595
O27	O	1.712141	0.299319	0.402929
O28	O	0.944020	-0.174483	-0.340701
O29	O	1.277353	0.158850	-0.007368
O30	O	1.610686	0.492183	0.325965
O31	O	0.866951	-0.284274	-0.162105
O32	O	1.200284	0.049060	0.171228
O33	O	1.533617	0.382393	0.504561
O34	O	0.765408	-0.284270	-0.263633
O35	O	1.098741	0.049064	0.069700
O36	O	1.432074	0.382397	0.403033
O37	O	0.866994	-0.367341	-0.442192
O38	O	1.200327	-0.034007	-0.108859
O39	O	1.533660	0.299326	0.224475
O40	O	0.765390	-0.367389	-0.340573
O41	O	1.098723	-0.034055	-0.007240
O42	O	1.432056	0.299278	0.326094
O43	O	0.943996	-0.284185	-0.442247
O44	O	1.277329	0.049148	-0.108914
O45	O	1.610662	0.382482	0.224419
O46	O	0.943846	-0.477097	-0.263665
O47	O	1.277179	-0.143764	0.069668
O48	O	1.610513	0.189569	0.403002
O49	O	0.866908	-0.477094	-0.340591
O50	O	1.200242	-0.143761	-0.007258
O51	O	1.533575	0.189572	0.326075
C52	C	0.742665	-0.325835	-0.302093
C53	C	1.075998	0.007499	0.031240
C54	C	1.409331	0.340832	0.364573
C55	C	0.673024	-0.325866	-0.302077
C56	C	1.006357	0.007467	0.031256
C57	C	1.339690	0.340800	0.364590
C58	C	0.640317	-0.369204	-0.342080
C59	C	0.973651	-0.035870	-0.008746
C60	C	1.306984	0.297463	0.324587
C61	C	0.574882	-0.369187	-0.342108
C62	C	0.908215	-0.035854	-0.008774
C63	C	1.241549	0.297480	0.324559
C64	C	0.542155	-0.325840	-0.302122
C65	C	0.875489	0.007493	0.031212
C66	C	1.208822	0.340827	0.364545
C67	C	0.574869	-0.282494	-0.262116
C68	C	0.908203	0.050839	0.071217
C69	C	1.241536	0.384173	0.404550
C70	C	0.640303	-0.282507	-0.262094
C71	C	0.973637	0.050826	0.071239
C72	C	1.306970	0.384159	0.404573
C73	C	0.438431	-0.320397	-0.245717
C74	C	0.771764	0.012936	0.087617
C75	C	1.105098	0.346269	0.420950
C76	C	0.372998	-0.320389	-0.245738
C77	C	0.706331	0.012944	0.087595
C78	C	1.039665	0.346278	0.420929
C79	C	0.340335	-0.325796	-0.302191
C80	C	0.673668	0.007537	0.031142
C81	C	1.007001	0.340871	0.364476
C82	C	0.373112	-0.331225	-0.358624
C83	C	0.706445	0.002108	-0.025291
C84	C	1.039779	0.335441	0.308042
C85	C	0.438546	-0.331239	-0.358602
C86	C	0.771879	0.002095	-0.025269
C87	C	1.105213	0.335428	0.308065
C88	C	0.471203	-0.325821	-0.302142
C89	C	0.804536	0.007513	0.031192
C90	C	1.137870	0.340846	0.364525
C91	C	0.236676	-0.369118	-0.342227
C92	C	0.570009	-0.035784	-0.008894
C93	C	0.903343	0.297549	0.324440
C94	C	0.171239	-0.369096	-0.342256
C95	C	0.504573	-0.035763	-0.008923
C96	C	0.837906	0.297570	0.324411
C97	C	0.171228	-0.282407	-0.262259
C98	C	0.504561	0.050926	0.071074
C99	C	0.837895	0.384260	0.404407
C100	C	0.236663	-0.282425	-0.262236
C101	C	0.569997	0.050909	0.071097
C102	C	0.903330	0.384242	0.404431
C103	C	0.269383	-0.325784	-0.302219
C104	C	0.602717	0.007550	0.031114
C105	C	0.936050	0.340883	0.364448
C106	C	0.905382	-0.501655	-0.302136
C107	C	1.238715	-0.168322	0.031198
C108	C	1.572049	0.165012	0.364531
C109	C	0.905409	-0.576887	-0.302144
C110	C	1.238742	-0.243553	0.031190
C111	C	1.572076	0.089780	0.364523
C112	C	0.945509	-0.612210	-0.262130
C113	C	1.278843	-0.278877	0.071203
C114	C	1.612176	0.054457	0.404536
C115	C	0.945536	-0.682898	-0.262144
C116	C	1.278869	-0.349565	0.071189
C117	C	1.612203	-0.016232	0.404523
C118	C	0.905459	-0.718262	-0.302169
C119	C	1.238792	-0.384929	0.031165
C120	C	1.572125	-0.051596	0.364498
C121	C	0.865357	-0.682934	-0.342187
C122	C	1.198690	-0.349601	-0.008853
C123	C	1.532023	-0.016267	0.324480
C124	C	0.865334	-0.612247	-0.342175
C125	C	1.198667	-0.278914	-0.008842
C126	C	1.532000	0.054420	0.324491
C127	C	0.865449	-0.968007	-0.342233
C128	C	1.198782	-0.634674	-0.008900
C129	C	1.532116	-0.301341	0.324434
C130	C	0.865474	-1.038699	-0.342240
C131	C	1.198807	-0.705366	-0.008906
C132	C	1.532141	-0.372033	0.324427
C133	C	0.945651	-1.038659	-0.262202
C134	C	1.278985	-0.705325	0.071132
C135	C	1.612318	-0.371992	0.404465
C136	C	0.945628	-0.967972	-0.262191
C137	C	1.278962	-0.634638	0.071143
C138	C	1.612295	-0.301305	0.404476
C139	C	0.905529	-0.932650	-0.302210
C140	C	1.238862	-0.599316	0.031123
C141	C	1.572196	-0.265983	0.364456
C142	C	0.905501	-0.856001	-0.302196
C143	C	1.238835	-0.522668	0.031138
C144	C	1.572168	-0.189335	0.364471
C145	C	0.905483	-0.794909	-0.302181
C146	C	1.238816	-0.461576	0.031153
C147	C	1.572149	-0.128243	0.364486
C148	C	1.068876	-0.325763	-0.302239
C149	C	1.402209	0.007570	0.031094
C150	C	1.735542	0.340903	0.364427
C151	C	1.138517	-0.325748	-0.302271
C152	C	1.471850	0.007585	0.031063
C153	C	1.805184	0.340918	0.364396
C154	C	0.905502	-0.325757	-0.465589
C155	C	1.238835	0.007577	-0.132256
C156	C	1.572168	0.340910	0.201077
C157	C	0.905523	-0.325739	-0.535231
C158	C	1.238856	0.007594	-0.201897
C159	C	1.572189	0.340928	0.131436
C160	C	0.905540	-0.149256	-0.302210
C161	C	1.238874	0.184077	0.031123
C162	C	1.572207	0.517411	0.364456
C163	C	0.905578	-0.074024	-0.302229
C164	C	1.238911	0.259309	0.031104
C165	C	1.572244	0.592643	0.364438
C166	C	0.865482	-0.282452	-0.567927
C167	C	1.198815	0.050881	-0.234593
C168	C	1.532148	0.384214	0.098740
C169	C	0.865479	-0.282440	-0.633362
C170	C	1.198813	0.050894	-0.300029
C171	C	1.532146	0.384227	0.033304
C172	C	0.905530	-0.325707	-0.666099
C173	C	1.238863	0.007627	-0.332766
C174	C	1.572196	0.340960	0.000568
C175	C	0.945574	-0.369002	-0.633395
C176	C	1.278907	-0.035668	-0.300062
C177	C	1.612240	0.297665	0.033272
C178	C	0.945570	-0.369018	-0.567961
C179	C	1.278903	-0.035685	-0.234628
C180	C	1.612237	0.297649	0.098706
C181	C	0.961982	-0.331011	-0.769804
C182	C	1.295315	0.002322	-0.436471
C183	C	1.628649	0.335655	-0.103138
C184	C	0.961987	-0.330990	-0.835237
C185	C	1.295320	0.002343	-0.501904
C186	C	1.628653	0.335676	-0.168571
C187	C	0.905540	-0.325661	-0.867920
C188	C	1.238873	0.007672	-0.534587
C189	C	1.572207	0.341006	-0.201253
C190	C	0.849087	-0.320338	-0.835161
C191	C	1.182421	0.012995	-0.501828
C192	C	1.515754	0.346328	-0.168495
C193	C	0.849084	-0.320354	-0.769727
C194	C	1.182417	0.012979	-0.436394
C195	C	1.515750	0.346312	-0.103061
C196	C	0.905538	-0.325694	-0.737051
C197	C	1.238871	0.007639	-0.403718
C198	C	1.572204	0.340972	-0.070385
C199	C	0.865493	-0.282358	-0.971569
C200	C	1.198826	0.050975	-0.638235
C201	C	1.532160	0.384308	-0.304902
C202	C	0.865490	-0.282351	-1.037005
C203	C	1.198823	0.050983	-0.703672
C204	C	1.532157	0.384316	-0.370339
C205	C	0.945590	-0.368909	-1.037037
C206	C	1.278923	-0.035576	-0.703704
C207	C	1.612256	0.297758	-0.370370
C208	C	0.945587	-0.368920	-0.971601
C209	C	1.278921	-0.035587	-0.638268
C210	C	1.612254	0.297746	-0.304935
C211	C	0.905540	-0.325642	-0.938871
C212	C	1.238873	0.007692	-0.605538
C213	C	1.572207	0.341025	-0.272205
C214	C	0.905439	-0.325792	-0.139378
C215	C	1.238773	0.007542	0.193955
C216	C	1.572106	0.340875	0.527288
C217	C	0.905540	-0.325619	-0.069738
C218	C	1.238873	0.007714	0.263596
C219	C	1.572207	0.341048	0.596929
H220	H	0.465231	-0.335657	-0.404552
H221	H	0.798564	-0.002324	-0.071219
H222	H	1.131897	0.331009	0.262114
F223	F	0.789008	-0.314663	-0.869939
F224	F	1.122341	0.018671	-0.536606
F225	F	1.455675	0.352004	-0.203272
F226	F	0.822655	-0.574654	-0.384765
F227	F	1.155989	-0.241320	-0.051432
F228	F	1.489322	0.092013	0.281902
H229	H	0.978305	-1.067427	-0.229618
H230	H	1.311638	-0.734093	0.103715
H231	H	1.644971	-0.400760	0.437049
F232	F	0.136431	-0.415221	-0.384838
F233	F	0.469764	-0.081888	-0.051505
F234	F	0.803098	0.251446	0.281829
F235	F	0.271501	-0.415260	-0.384783
F236	F	0.604835	-0.081927	-0.051450
F237	F	0.938168	0.251406	0.281884
H238	H	0.548247	-0.404477	-0.374685
H239	H	0.881581	-0.071144	-0.041352
H240	H	1.214914	0.262189	0.291982
F241	F	0.988218	-0.720489	-0.219558
F242	F	1.321551	-0.387156	0.113775
F243	F	1.654885	-0.053822	0.447109
F244	F	0.822771	-0.930424	-0.384825
F245	F	1.156104	-0.597091	-0.051492
F246	F	1.489438	-0.263757	0.281841
H247	H	0.803118	-0.316022	-0.743058
H248	H	1.136451	0.017311	-0.409725
H249	H	1.469785	0.350645	-0.076391
F250	F	0.988190	-0.415091	-0.533162
F251	F	1.321523	-0.081758	-0.199829
F252	F	1.654857	0.251576	0.133504
F253	F	0.540038	-0.236359	-0.219563
F254	F	0.873372	0.096975	0.113770
F255	F	1.206705	0.430308	0.447104
H256	H	0.666932	-0.247215	-0.229519
H257	H	1.000266	0.086119	0.103814
H258	H	1.333599	0.419452	0.437148
F259	F	0.338120	-0.314611	-0.185677
F260	F	0.671453	0.018723	0.147656
F261	F	1.004787	0.352056	0.480989
F262	F	0.988195	-0.415052	-0.668237
F263	F	1.321529	-0.081719	-0.334903
F264	F	1.654862	0.251615	-0.001570
F265	F	0.822817	-1.076335	-0.384843
F266	F	1.156150	-0.743002	-0.051509
F267	F	1.489484	-0.409668	0.281824
H268	H	0.144582	-0.247110	-0.229705
H269	H	0.477916	0.086223	0.103628
H270	H	0.811249	0.419557	0.436962
F271	F	0.675137	-0.415348	-0.384635
F272	F	1.008470	-0.082015	-0.051302
F273	F	1.341803	0.251318	0.282031
H274	H	0.346519	-0.335627	-0.404594
H275	H	0.679852	-0.002294	-0.071261
H276	H	1.013185	0.331039	0.262073
H277	H	0.832879	-0.247104	-1.063625
H278	H	1.166212	0.086230	-0.730292
H279	H	1.499546	0.419563	-0.396959
F280	F	1.022067	-0.336660	-0.870095
F281	F	1.355401	-0.003327	-0.536762
F282	F	1.688734	0.330006	-0.203429
F283	F	0.822707	-0.720573	-0.384788
F284	F	1.156040	-0.387240	-0.051454
F285	F	1.489374	-0.053906	0.281879
F286	F	1.022064	-0.336688	-0.735027
F287	F	1.355397	-0.003355	-0.401694
F288	F	1.688731	0.329979	-0.068361
H289	H	0.978142	-0.583421	-0.229535
H290	H	1.311475	-0.250088	0.103798
H291	H	1.644809	0.083245	0.437132
F292	F	0.988211	-0.414961	-1.071873
F293	F	1.321544	-0.081628	-0.738540
F294	F	1.654878	0.251705	-0.405207
H295	H	0.832869	-0.247214	-0.541282
H296	H	1.166203	0.086120	-0.207949
H297	H	1.499536	0.419453	0.125385
H298	H	0.263293	-0.247138	-0.229658
H299	H	0.596626	0.086195	0.103675
H300	H	0.929960	0.419529	0.437008
H301	H	0.465020	-0.315991	-0.199743
H302	H	0.798354	0.017342	0.133591
H303	H	1.131687	0.350675	0.466924
F304	F	0.822871	-0.236355	-0.668167
F305	F	1.156204	0.096978	-0.334834
F306	F	1.489538	0.430312	-0.001500
F307	F	0.822869	-0.236301	-0.936733
F308	F	1.156202	0.097032	-0.603399
F309	F	1.489536	0.430366	-0.270066
H310	H	0.978261	-0.939181	-0.229597
H311	H	1.311594	-0.605847	0.103737
H312	H	1.644927	-0.272514	0.437070
H313	H	0.978195	-0.404168	-0.944980
H314	H	1.311528	-0.070834	-0.611647
H315	H	1.644861	0.262499	-0.278313
