data_functionalizedCrystal
_audit_creation_method	'MofGen! by Chris Wilmer'
_symmetry_space_group_name_H-M	'P1'
_symmetry_Int_Tables_number	1
_symmetry_cell_setting	triclinic
loop_
_symmetry_equiv_pos_as_xyz
  x,y,z
_cell_length_a	16.109301
_cell_length_b	13.596369
_cell_length_c	16.109301
_cell_angle_alpha	89.992589
_cell_angle_beta	96.538519
_cell_angle_gamma	90.002607
loop_
_atom_site_label
_atom_site_type_symbol
_atom_site_fract_x
_atom_site_fract_y
_atom_site_fract_z
O1	O	1.103133	0.081732	-0.106869
O2	O	1.353133	0.331732	0.143131
O3	O	1.603133	0.581732	0.393131
O4	O	1.853133	0.831732	0.643131
O5	O	0.861071	0.081748	-0.120168
O6	O	1.111071	0.331748	0.129832
O7	O	1.361071	0.581748	0.379832
O8	O	1.611071	0.831748	0.629832
O9	O	0.988751	0.081730	0.007513
O10	O	1.238751	0.331730	0.257513
O11	O	1.488751	0.581730	0.507513
O12	O	1.738751	0.831730	0.757513
O13	O	0.975452	0.081751	-0.234549
O14	O	1.225452	0.331751	0.015451
O15	O	1.475452	0.581751	0.265451
O16	O	1.725452	0.831751	0.515451
O17	O	0.988739	-0.081853	0.007520
O18	O	1.238739	0.168147	0.257520
O19	O	1.488739	0.418147	0.507520
O20	O	1.738739	0.668147	0.757520
O21	O	0.861058	-0.081835	-0.120161
O22	O	1.111058	0.168165	0.129839
O23	O	1.361058	0.418165	0.379839
O24	O	1.611058	0.668165	0.629839
O25	O	1.103120	-0.081851	-0.106862
O26	O	1.353120	0.168149	0.143138
O27	O	1.603120	0.418149	0.393138
O28	O	1.853120	0.668149	0.643138
Zn29	Zn	0.982087	-0.107815	-0.113510
Zn30	Zn	1.232087	0.142185	0.136490
Zn31	Zn	1.482087	0.392185	0.386490
Zn32	Zn	1.732087	0.642185	0.636490
Zn33	Zn	0.982104	0.107713	-0.113519
Zn34	Zn	1.232104	0.357713	0.136481
Zn35	Zn	1.482104	0.607713	0.386481
Zn36	Zn	1.732104	0.857713	0.636481
O37	O	0.975439	-0.081832	-0.234542
O38	O	1.225439	0.168168	0.015458
O39	O	1.475439	0.418168	0.265458
O40	O	1.725439	0.668168	0.515458
C41	C	0.830090	-0.000041	-0.119626
C42	C	1.080090	0.249959	0.130374
C43	C	1.330090	0.499959	0.380374
C44	C	1.580090	0.749959	0.630374
C45	C	0.737794	-0.000035	-0.118011
C46	C	0.987794	0.249965	0.131989
C47	C	1.237794	0.499965	0.381989
C48	C	1.487794	0.749965	0.631989
N49	N	0.982082	-0.254907	-0.113504
N50	N	1.232082	-0.004907	0.136496
N51	N	1.482082	0.245093	0.386496
N52	N	1.732082	0.495093	0.636496
C53	C	0.515522	-0.000041	-0.190018
C54	C	0.765522	0.249959	0.059982
C55	C	1.015522	0.499959	0.309982
C56	C	1.265522	0.749959	0.559982
C57	C	0.428801	-0.000047	-0.188494
C58	C	0.678801	0.249953	0.061506
C59	C	0.928801	0.499953	0.311506
C60	C	1.178801	0.749953	0.561506
C61	C	0.448676	-0.000056	-0.037006
C62	C	0.698676	0.249944	0.212994
C63	C	0.948676	0.499944	0.462994
C64	C	1.198676	0.749944	0.712994
C65	C	0.535394	-0.000057	-0.038530
C66	C	0.785394	0.249943	0.211470
C67	C	1.035394	0.499943	0.461470
C68	C	1.285394	0.749943	0.711470
C69	C	0.568815	-0.000044	-0.115039
C70	C	0.818815	0.249956	0.134961
C71	C	1.068815	0.499956	0.384961
C72	C	1.318815	0.749956	0.634961
C73	C	0.395376	-0.000050	-0.111990
C74	C	0.645376	0.249950	0.138010
C75	C	0.895376	0.499950	0.388010
C76	C	1.145376	0.749950	0.638010
C77	C	0.301350	-0.000057	-0.110337
C78	C	0.551350	0.249943	0.139663
C79	C	0.801350	0.499943	0.389663
C80	C	1.051350	0.749943	0.639663
C81	C	0.662847	-0.000039	-0.116693
C82	C	0.912847	0.249961	0.133307
C83	C	1.162847	0.499961	0.383307
C84	C	1.412847	0.749961	0.633307
C85	C	0.982103	-0.656198	-0.113520
C86	C	1.232103	-0.406198	0.136480
C87	C	1.482103	-0.156198	0.386480
C88	C	1.732103	0.093802	0.636480
C89	C	0.982094	-0.544546	-0.113518
C90	C	1.232094	-0.294546	0.136482
C91	C	1.482094	-0.044546	0.386482
C92	C	1.732094	0.205454	0.636482
C93	C	0.982093	-0.455556	-0.113513
C94	C	1.232093	-0.205556	0.136487
C95	C	1.482093	0.044444	0.386487
C96	C	1.732093	0.294444	0.636487
C97	C	0.982083	-0.343897	-0.113510
C98	C	1.232083	-0.093897	0.136490
C99	C	1.482083	0.156103	0.386490
C100	C	1.732083	0.406103	0.636490
C101	C	1.134101	-0.000059	-0.107404
C102	C	1.384101	0.249941	0.142596
C103	C	1.634101	0.499941	0.392596
C104	C	1.884101	0.749941	0.642596
C105	C	1.226397	-0.000058	-0.109019
C106	C	1.476397	0.249942	0.140981
C107	C	1.726397	0.499942	0.390981
C108	C	1.976397	0.749942	0.640981
C109	C	0.988206	-0.000062	0.038491
C110	C	1.238206	0.249938	0.288491
C111	C	1.488206	0.499938	0.538491
C112	C	1.738206	0.749938	0.788491
C113	C	0.986591	-0.000063	0.130786
C114	C	1.236591	0.249937	0.380786
C115	C	1.486591	0.499937	0.630786
C116	C	1.736591	0.749937	0.880786
N117	N	0.982116	0.254805	-0.113519
N118	N	1.232116	0.504805	0.136481
N119	N	1.482116	0.754805	0.386481
N120	N	1.732116	1.004805	0.636481
C121	C	0.975984	-0.000038	-0.265521
C122	C	1.225984	0.249962	-0.015521
C123	C	1.475984	0.499962	0.234479
C124	C	1.725984	0.749962	0.484479
C125	C	0.977600	-0.000030	-0.357816
C126	C	1.227600	0.249970	-0.107816
C127	C	1.477600	0.499970	0.142184
C128	C	1.727600	0.749970	0.392184
C129	C	1.058599	-0.000052	0.353059
C130	C	1.308599	0.249948	0.603059
C131	C	1.558599	0.499948	0.853059
C132	C	1.808599	0.749948	1.103059
C133	C	1.057075	-0.000044	0.439779
C134	C	1.307075	0.249956	0.689779
C135	C	1.557075	0.499956	0.939779
C136	C	1.807075	0.749956	1.189779
C137	C	0.905586	-0.000038	0.419905
C138	C	1.155586	0.249962	0.669905
C139	C	1.405586	0.499962	0.919905
C140	C	1.655586	0.749962	1.169905
C141	C	0.907111	-0.000039	0.333186
C142	C	1.157111	0.249961	0.583186
C143	C	1.407111	0.499961	0.833186
C144	C	1.657111	0.749961	1.083186
C145	C	0.983620	-0.000051	0.299766
C146	C	1.233620	0.249949	0.549766
C147	C	1.483620	0.499949	0.799766
C148	C	1.733620	0.749949	1.049766
C149	C	0.980571	-0.000042	0.473205
C150	C	1.230571	0.249958	0.723205
C151	C	1.480571	0.499958	0.973205
C152	C	1.730571	0.749958	1.223205
C153	C	0.978918	-0.000033	0.567231
C154	C	1.228918	0.249967	0.817231
C155	C	1.478918	0.499967	1.067231
C156	C	1.728918	0.749967	1.317231
C157	C	0.985273	-0.000058	0.205734
C158	C	1.235273	0.249942	0.455734
C159	C	1.485273	0.499942	0.705734
C160	C	1.735273	0.749942	0.955734
H161	H	0.542730	-0.000038	-0.252317
H162	H	0.792730	0.249962	-0.002317
H163	H	1.042730	0.499962	0.247683
H164	H	1.292730	0.749962	0.497683
H165	H	0.385413	-0.000046	-0.249550
H166	H	0.635413	0.249954	0.000450
H167	H	0.885413	0.499954	0.250450
H168	H	1.135413	0.749954	0.500450
O169	O	0.834349	0.000005	0.281292
O170	O	1.084349	0.250005	0.531292
O171	O	1.334349	0.500005	0.781292
O172	O	1.584349	0.750005	1.031292
C173	C	0.852103	-0.000018	0.197587
C174	C	1.102103	0.249982	0.447587
C175	C	1.352103	0.499982	0.697587
C176	C	1.602103	0.749982	0.947587
H177	H	0.917410	0.030947	0.194285
H178	H	1.167410	0.280947	0.444285
H179	H	1.417410	0.530947	0.694285
H180	H	1.667410	0.780947	0.944285
H181	H	0.804316	0.047479	0.158276
H182	H	1.054316	0.297479	0.408276
H183	H	1.304316	0.547479	0.658276
H184	H	1.554316	0.797479	0.908276
H185	H	0.848941	-0.078496	0.172513
H186	H	1.098941	0.171504	0.422513
H187	H	1.348941	0.421504	0.672513
H188	H	1.598941	0.671504	0.922513
O189	O	0.416347	-0.000099	0.037384
O190	O	0.666347	0.249901	0.287384
O191	O	0.916347	0.499901	0.537384
O192	O	1.166347	0.749901	0.787384
C193	C	0.481984	-0.000077	0.103236
C194	C	0.731984	0.249923	0.353236
C195	C	0.981984	0.499923	0.603236
C196	C	1.231984	0.749923	0.853236
H197	H	0.540885	-0.031052	0.079947
H198	H	0.790885	0.218948	0.329947
H199	H	1.040885	0.468948	0.579947
H200	H	1.290885	0.718948	0.829947
H201	H	0.463875	-0.047565	0.156657
H202	H	0.713875	0.202435	0.406657
H203	H	0.963875	0.452435	0.656657
H204	H	1.213875	0.702435	0.906657
H205	H	0.494268	0.078402	0.126352
H206	H	0.744268	0.328402	0.376352
H207	H	0.994268	0.578402	0.626352
H208	H	1.244268	0.828402	0.876352
H209	H	0.578788	-0.000062	0.022530
H210	H	0.828788	0.249938	0.272530
H211	H	1.078788	0.499938	0.522530
H212	H	1.328788	0.749938	0.772530
H213	H	1.118130	-0.000043	0.483168
H214	H	1.368130	0.249957	0.733168
H215	H	1.618130	0.499957	0.983168
H216	H	1.868130	0.749957	1.233168
H217	H	1.120897	-0.000060	0.325851
H218	H	1.370897	0.249940	0.575851
H219	H	1.620897	0.499940	0.825851
H220	H	1.870897	0.749940	1.075851
H221	H	0.843295	-0.000030	0.447127
H222	H	1.093295	0.249970	0.697127
H223	H	1.343295	0.499970	0.947127
H224	H	1.593295	0.749970	1.197127
