data_functionalizedCrystal
_audit_creation_method	'MofGen! by Chris Wilmer'
_symmetry_space_group_name_H-M	'P1'
_symmetry_Int_Tables_number	1
_symmetry_cell_setting	triclinic
loop_
_symmetry_equiv_pos_as_xyz
  x,y,z
_cell_length_a	21.395362
_cell_length_b	18.050589
_cell_length_c	21.395355
_cell_angle_alpha	89.987098
_cell_angle_beta	89.956060
_cell_angle_gamma	90.044101
loop_
_atom_site_label
_atom_site_type_symbol
_atom_site_fract_x
_atom_site_fract_y
_atom_site_fract_z
Zn1	Zn	0.957870	-0.295431	-0.354610
Zn2	Zn	0.957777	-0.419603	-0.249843
Zn3	Zn	0.853085	-0.295465	-0.249811
Zn4	Zn	0.853059	-0.419618	-0.354548
O5	O	0.905448	-0.357529	-0.302203
O6	O	1.045536	-0.311882	-0.340752
O7	O	0.943862	-0.403144	-0.162161
O8	O	0.867035	-0.191536	-0.263726
O9	O	1.045468	-0.403110	-0.263780
O10	O	0.944020	-0.191511	-0.340721
O11	O	0.866945	-0.311940	-0.162138
O12	O	0.765404	-0.311955	-0.263665
O13	O	0.866990	-0.403136	-0.442234
O14	O	0.765385	-0.403170	-0.340615
O15	O	0.943995	-0.311896	-0.442280
O16	O	0.943836	-0.523529	-0.263719
O17	O	0.866900	-0.523540	-0.340645
C18	C	0.742660	-0.357568	-0.302130
C19	C	0.673019	-0.357603	-0.302114
C20	C	0.905372	-0.550481	-0.302192
C21	C	0.905397	-0.633027	-0.302209
C22	C	0.640312	-0.405161	-0.342121
C23	C	0.574877	-0.405143	-0.342149
C24	C	0.542151	-0.357574	-0.302159
C25	C	0.574865	-0.310007	-0.262148
C26	C	0.640300	-0.310021	-0.262126
C27	C	0.438426	-0.351592	-0.245753
C28	C	0.372993	-0.351583	-0.245774
C29	C	0.340330	-0.357526	-0.302228
C30	C	0.373108	-0.363494	-0.358662
C31	C	0.438542	-0.363508	-0.358640
C32	C	0.471198	-0.357553	-0.302179
C33	C	0.236671	-0.405067	-0.342269
C34	C	0.171234	-0.405044	-0.342298
C35	C	0.171224	-0.309911	-0.262291
C36	C	0.236659	-0.309931	-0.262268
C37	C	0.269379	-0.357513	-0.302256
C38	C	0.863601	-0.832511	-0.344027
C39	C	0.848322	-0.881943	-0.286848
C40	C	0.905459	-0.784157	-0.302217
C41	C	0.920768	-0.881806	-0.359402
C42	C	0.905517	-0.930142	-0.302230
C43	C	0.890151	-0.832503	-0.245009
C44	C	0.962623	-0.832361	-0.317601
C45	C	0.947366	-0.881772	-0.260383
C46	C	0.905424	-0.700059	-0.302211
C47	C	0.905552	-1.014239	-0.302230
C48	C	1.068871	-0.357490	-0.302276
C49	C	1.138513	-0.357474	-0.302307
C50	C	0.905500	-0.357514	-0.465626
C51	C	0.905522	-0.357508	-0.535268
C52	C	0.905541	-0.163823	-0.302227
C53	C	0.905581	-0.081278	-0.302237
C54	C	0.945617	-0.309997	-0.568006
C55	C	0.945616	-0.309965	-0.633441
C56	C	0.905527	-0.357457	-0.666136
C57	C	0.865425	-0.404971	-0.633390
C58	C	0.865422	-0.404996	-0.567956
C59	C	0.900554	-0.424328	-0.769805
C60	C	0.900560	-0.424304	-0.835238
C61	C	0.905531	-0.357379	-0.867957
C62	C	0.910508	-0.290475	-0.835234
C63	C	0.910505	-0.290501	-0.769800
C64	C	0.905525	-0.357435	-0.737088
C65	C	0.945627	-0.309829	-0.971647
C66	C	0.945621	-0.309796	-1.037084
C67	C	0.865434	-0.404809	-1.037032
C68	C	0.865436	-0.404835	-0.971596
C69	C	0.905535	-0.357347	-0.938908
C70	C	0.905432	-0.357490	-0.139415
C71	C	0.905531	-0.357288	-0.069774
H72	H	0.666948	-0.443905	-0.374684
H73	H	0.548216	-0.271275	-0.229589
N74	N	0.991797	-0.908757	-0.215986
N75	N	0.999323	-0.976933	-0.209080
H76	H	1.030699	-0.995994	-0.177723
H77	H	0.832786	-0.443470	-1.063651
N78	N	0.270063	-0.261348	-0.221395
N79	N	0.240838	-0.218876	-0.185693
H80	H	0.264429	-0.184560	-0.156825
N81	N	0.873858	-0.805442	-0.184335
N82	N	0.871176	-0.737251	-0.174545
H83	H	0.859664	-0.718136	-0.131697
H84	H	0.548242	-0.443870	-0.374731
H85	H	0.978268	-0.271327	-0.541395
H86	H	1.010926	-0.810569	-0.330628
H87	H	0.978264	-0.271272	-0.660102
H88	H	0.896512	-0.478780	-0.861876
H89	H	0.914556	-0.236026	-0.743160
N90	N	0.270107	-0.453649	-0.383122
N91	N	0.328530	-0.453655	-0.383097
H92	H	0.352144	-0.487965	-0.411950
N93	N	0.936974	-0.908977	-0.420064
N94	N	0.903694	-0.893189	-0.466167
H95	H	0.915134	-0.912377	-0.509011
N96	N	0.824478	-0.453490	-0.666780
N97	N	0.828593	-0.522020	-0.659480
H98	H	0.799670	-0.556286	-0.683060
H99	H	0.914556	-0.235979	-0.861872
N100	N	0.986586	-0.261316	-0.938262
N101	N	1.022378	-0.218891	-0.967504
H102	H	1.051306	-0.184626	-0.943928
H103	H	0.978270	-0.271103	-1.063738
H104	H	0.896338	-0.478812	-0.743171
N105	N	0.824476	-0.453373	-0.938161
N106	N	0.788683	-0.495771	-0.967358
H107	H	0.759752	-0.530052	-0.943745
H108	H	0.828150	-0.810879	-0.379334
N109	N	0.673713	-0.261432	-0.221264
N110	N	0.666469	-0.192909	-0.225525
H111	H	0.690068	-0.158592	-0.196666
H112	H	0.800008	-0.903738	-0.273849
N113	N	0.472015	-0.369605	-0.416286
N114	N	0.442851	-0.374914	-0.466689
H115	H	0.466491	-0.379218	-0.507404
N116	N	0.824459	-0.453532	-0.534521
N117	N	0.788663	-0.495928	-0.563716
H118	H	0.759732	-0.530208	-0.540103
H119	H	0.346516	-0.368333	-0.404632
H120	H	0.144605	-0.443770	-0.374881
H121	H	0.144579	-0.271177	-0.229733
H122	H	0.465014	-0.346749	-0.199778
N123	N	0.339524	-0.345497	-0.188125
N124	N	0.368692	-0.340183	-0.137725
H125	H	0.345056	-0.335887	-0.097008
