data_functionalizedCrystal
_audit_creation_method	'MofGen! by Chris Wilmer'
_symmetry_space_group_name_H-M	'P1'
_symmetry_Int_Tables_number	1
_symmetry_cell_setting	triclinic
loop_
_symmetry_equiv_pos_as_xyz
  x,y,z
_cell_length_a	14.044220
_cell_length_b	13.101039
_cell_length_c	16.109304
_cell_angle_alpha	86.635836
_cell_angle_beta	88.325758
_cell_angle_gamma	93.659868
loop_
_atom_site_label
_atom_site_type_symbol
_atom_site_fract_x
_atom_site_fract_y
_atom_site_fract_z
O1	O	1.262855	0.085094	0.196241
O2	O	0.986890	0.085120	0.189007
O3	O	1.132452	0.085107	0.072157
O4	O	1.117293	0.085107	0.313091
O5	O	1.122008	-0.085322	0.080556
O6	O	0.976446	-0.085309	0.197406
O7	O	1.252411	-0.085335	0.204640
Zn8	Zn	1.112770	-0.112381	0.202356
Zn9	Zn	1.126531	0.112166	0.191290
O10	O	1.106849	-0.085322	0.321490
C11	C	0.946355	-0.000091	0.190040
C12	C	0.841132	-0.000081	0.180596
N13	N	1.103386	-0.265629	0.209908
C14	C	0.648475	-0.000101	0.163331
C15	C	0.590821	-0.000105	0.230311
C16	C	0.483620	-0.000117	0.220705
C17	C	0.755686	-0.000090	0.172936
C18	C	1.090619	-0.474671	0.220191
C19	C	1.148687	-0.525552	0.173452
C20	C	1.141583	-0.641869	0.179173
C21	C	1.097722	-0.358342	0.214471
C22	C	1.292947	-0.000122	0.203606
C23	C	1.398170	-0.000126	0.213050
C24	C	1.126616	-0.000106	0.045336
C25	C	1.124774	-0.000098	-0.047097
N26	N	1.135922	0.265414	0.183732
C27	C	1.126210	0.092799	-0.264329
C28	C	1.124470	0.092798	-0.351179
C29	C	1.113088	-0.093013	-0.342018
C30	C	1.114822	-0.093011	-0.255170
C31	C	1.121387	-0.000102	-0.216328
C32	C	1.117914	-0.000105	-0.390026
C33	C	1.116028	-0.000106	-0.484192
C34	C	1.123272	-0.000100	-0.122156
C35	C	1.112685	-0.000108	0.348311
C36	C	1.114528	-0.000108	0.440743
H37	H	0.621974	-0.000100	0.294868
H38	H	1.128395	0.168448	-0.390258
H39	H	0.617324	-0.000107	0.098779
H40	H	1.035574	-0.518463	0.264501
F41	F	1.133194	0.191681	-0.222993
F42	F	1.106101	-0.191887	-0.383364
H43	H	1.110889	-0.168667	-0.216086
H44	H	1.203736	-0.481754	0.129140
