data_functionalizedCrystal
_audit_creation_method	'MofGen! by Chris Wilmer'
_symmetry_space_group_name_H-M	'P1'
_symmetry_Int_Tables_number	1
_symmetry_cell_setting	triclinic
loop_
_symmetry_equiv_pos_as_xyz
  x,y,z
_cell_length_a	16.959455
_cell_length_b	16.959454
_cell_length_c	16.959447
_cell_angle_alpha	89.978286
_cell_angle_beta	90.016723
_cell_angle_gamma	90.000062
loop_
_atom_site_label
_atom_site_type_symbol
_atom_site_fract_x
_atom_site_fract_y
_atom_site_fract_z
Zn1	Zn	1.208489	0.314688	0.447007
Zn2	Zn	1.208455	0.446880	0.314848
Zn3	Zn	1.076317	0.314717	0.314839
Zn4	Zn	1.076326	0.446826	0.446981
O5	O	1.142397	0.380778	0.380919
O6	O	1.319095	0.332234	0.429490
O7	O	1.190909	0.429384	0.204236
O8	O	1.093860	0.204103	0.332378
O9	O	1.319070	0.429355	0.332394
O10	O	1.190966	0.204081	0.429481
O11	O	1.093828	0.332284	0.204229
O12	O	0.965707	0.332231	0.332353
O13	O	1.093875	0.429263	0.557595
O14	O	0.965714	0.429291	0.429437
O15	O	1.190975	0.332181	0.557614
O16	O	1.190918	0.557484	0.332369
O17	O	1.093843	0.557444	0.429446
C18	C	0.937030	0.380759	0.380892
C19	C	0.849174	0.380770	0.380899
C20	C	1.142416	0.174610	0.380931
C21	C	1.142424	0.086753	0.380937
C22	C	1.193026	-0.284736	0.431507
C23	C	1.091909	-0.284709	0.330393
C24	C	1.091898	-0.202163	0.330390
C25	C	1.142452	-0.160900	0.380946
C26	C	1.193018	-0.202183	0.431504
C27	C	1.041339	-0.160874	0.279826
C28	C	1.041326	-0.078323	0.279821
C29	C	1.091877	-0.037058	0.330381
C30	C	1.142444	-0.078346	0.380943
C31	C	1.192998	-0.037083	0.431498
C32	C	1.243562	-0.078370	0.482064
C33	C	1.243569	-0.160918	0.482065
C34	C	1.091870	0.045490	0.330381
C35	C	1.192990	0.045470	0.431495
C36	C	0.807873	0.330163	0.330433
C37	C	0.807921	0.431383	0.431377
C38	C	0.725375	0.431392	0.431389
C39	C	0.684074	0.380785	0.380922
C40	C	0.725319	0.330169	0.330444
C41	C	0.684124	0.482001	0.481872
C42	C	0.601573	0.482011	0.481886
C43	C	0.560271	0.431408	0.431415
C44	C	0.601521	0.380791	0.380934
C45	C	0.560220	0.330184	0.330468
C46	C	0.601469	0.279571	0.279982
C47	C	0.684017	0.279566	0.279973
C48	C	0.477722	0.431412	0.431424
C49	C	0.477667	0.330190	0.330479
C50	C	1.348565	0.380798	0.380946
C51	C	1.436421	0.380806	0.380957
C52	C	1.142399	0.586144	0.380923
C53	C	1.142472	0.674001	0.380951
C54	C	1.142430	0.380713	0.587087
C55	C	1.142444	0.380685	0.674943
C56	C	1.142409	0.380786	0.175552
C57	C	1.142548	0.380591	0.087696
C58	C	1.091983	0.431147	1.046412
C59	C	1.193093	0.330056	1.046427
C60	C	1.193072	0.330072	0.963881
C61	C	1.142506	0.380628	0.922597
C62	C	1.091962	0.431167	0.963858
C63	C	1.243622	0.279540	0.922613
C64	C	1.243603	0.279555	0.840062
C65	C	1.193033	0.330108	0.798776
C66	C	1.142486	0.380648	0.840043
C67	C	1.091920	0.431204	0.798759
C68	C	1.041368	0.481741	0.840024
C69	C	1.041391	0.481719	0.922573
C70	C	1.193009	0.330129	0.716228
C71	C	1.091899	0.431224	0.716205
H72	H	1.234152	0.079061	0.472671
O73	O	1.292585	0.230410	0.799901
C74	C	1.303169	0.123653	0.706783
C75	C	1.247617	0.179284	0.752198
H76	H	1.266835	0.082293	0.668217
H77	H	1.344483	0.159890	0.668068
H78	H	1.339321	0.087555	0.750494
H79	H	1.211414	0.215394	0.708544
H80	H	1.206355	0.143003	0.790926
H81	H	1.050714	0.472386	0.682598
H82	H	1.234266	0.288900	1.080045
H83	H	1.284727	-0.044762	0.523223
O84	O	0.992365	0.530783	0.962780
C85	C	0.947557	0.575517	1.089947
C86	C	1.003130	0.519927	1.044508
H87	H	0.956230	0.566748	1.156031
H88	H	0.961426	0.639277	1.073767
H89	H	0.883827	0.561641	1.073671
H90	H	1.066880	0.533732	1.060758
H91	H	0.989194	0.456184	1.060690
O92	O	1.292854	0.230518	0.962675
C93	C	1.427317	0.192128	0.987908
C94	C	1.371649	0.247711	0.942500
H95	H	1.491033	0.205997	0.971601
H96	H	1.418717	0.200792	1.054006
H97	H	1.413400	0.128400	0.971691
H98	H	1.385531	0.311460	0.958651
H99	H	1.380259	0.238979	0.876413
H100	H	1.050753	-0.318308	0.289228
H101	H	1.000183	-0.194473	0.238661
O102	O	0.724331	0.531046	0.530929
C103	C	0.817559	0.541792	0.637635
C104	C	0.772081	0.486156	0.582116
H105	H	0.856162	0.505520	0.679044
H106	H	0.856243	0.583063	0.601313
H107	H	0.773888	0.577985	0.673685
H108	H	0.815694	0.449912	0.546054
H109	H	0.733385	0.444937	0.618483
H110	H	1.234170	0.288985	0.682633
H111	H	0.567995	0.523225	0.522993
H112	H	0.444141	0.472616	0.472533
O113	O	0.848159	0.480513	0.480323
C114	C	0.975355	0.525327	0.525076
C115	C	0.929880	0.469655	0.469591
H116	H	1.041434	0.516555	0.516430
H117	H	0.959186	0.589065	0.511094
H118	H	0.959103	0.511535	0.588827
H119	H	0.946108	0.483376	0.405821
H120	H	0.946054	0.405933	0.483640
H121	H	1.284737	-0.194539	0.523233
H122	H	1.050822	0.472291	1.080014
H123	H	0.567831	0.238363	0.238896
H124	H	0.841461	0.288957	0.289327
O125	O	0.992342	0.530968	0.799948
C126	C	0.953946	0.665425	0.774690
C127	C	1.009520	0.609766	0.820117
H128	H	0.967803	0.729144	0.790992
H129	H	0.962632	0.656824	0.708595
H130	H	0.890214	0.651502	0.790893
H131	H	1.073273	0.623654	0.803980
H132	H	1.000765	0.618377	0.886201
O133	O	0.992132	-0.038343	0.230683
C134	C	0.891868	-0.047035	0.130360
C135	C	0.947528	-0.092411	0.185978
H136	H	0.855803	-0.090729	0.094189
H137	H	0.850485	-0.008430	0.166607
H138	H	0.928156	-0.008344	0.089067
H139	H	0.911304	-0.131145	0.227281
H140	H	0.988914	-0.130966	0.149681
H141	H	1.234193	-0.318354	0.472680
O142	O	1.042872	0.085630	0.281183
C143	C	1.032215	0.178903	0.174493
C144	C	1.087799	0.133482	0.230150
H145	H	1.068515	0.217615	0.133230
H146	H	0.996102	0.135267	0.138299
H147	H	0.990867	0.217497	0.210790
H148	H	1.129196	0.094888	0.193915
H149	H	1.123857	0.177161	0.266347
H150	H	0.444045	0.288981	0.289382
O151	O	0.724208	0.230424	0.231016
C152	C	0.851360	0.185585	0.186239
C153	C	0.805939	0.241266	0.241733
H154	H	0.917448	0.194343	0.194873
H155	H	0.835188	0.121850	0.200224
H156	H	0.835061	0.199380	0.122491
H157	H	0.822213	0.227542	0.305500
H158	H	0.822115	0.304985	0.227680
