data_functionalizedCrystal
_audit_creation_method	'MofGen! by Chris Wilmer'
_symmetry_space_group_name_H-M	'P1'
_symmetry_Int_Tables_number	1
_symmetry_cell_setting	triclinic
loop_
_symmetry_equiv_pos_as_xyz
  x,y,z
_cell_length_a	9.065218
_cell_length_b	9.198806
_cell_length_c	9.065218
_cell_angle_alpha	90.001601
_cell_angle_beta	85.015885
_cell_angle_gamma	90.004041
loop_
_atom_site_label
_atom_site_type_symbol
_atom_site_fract_x
_atom_site_fract_y
_atom_site_fract_z
O1	O	1.960401	0.120890	0.216354
O2	O	1.531116	0.120891	0.234101
O3	O	1.754631	0.120887	0.010585
O4	O	1.736885	0.120893	0.439870
O5	O	1.754614	-0.120898	0.010583
O6	O	1.531098	-0.120894	0.234099
O7	O	1.960383	-0.120895	0.216352
Cu8	Cu	1.745739	-0.142971	0.225225
Cu9	Cu	1.745760	0.142967	0.225228
O10	O	1.736867	-0.120892	0.439868
C11	C	1.476120	-0.000001	0.232394
C12	C	1.312277	-0.000000	0.227294
N13	N	1.745735	-0.344085	0.225223
C14	C	1.832180	-0.416282	0.311194
C15	C	1.832203	-0.583695	0.311192
C16	C	2.015378	0.000000	0.218059
C17	C	2.179221	0.000009	0.223158
C18	C	1.752917	-0.000003	-0.044403
C19	C	1.747817	0.000004	-0.208245
N20	N	1.745776	0.344081	0.225218
C21	C	1.738582	0.000002	0.494855
C22	C	1.743681	0.000004	0.658698
H23	H	1.906179	-0.354153	0.384792
H24	H	1.671755	-0.593840	0.151619
O25	O	1.647717	-0.426345	0.127701
H26	H	1.569588	-0.495701	0.197584
H27	H	1.906204	-0.645782	0.384803
