data_functionalizedCrystal
_audit_creation_method	'MofGen! by Chris Wilmer'
_symmetry_space_group_name_H-M	'P1'
_symmetry_Int_Tables_number	1
_symmetry_cell_setting	triclinic
loop_
_symmetry_equiv_pos_as_xyz
  x,y,z
_cell_length_a	11.169417
_cell_length_b	18.050588
_cell_length_c	11.169409
_cell_angle_alpha	90.035796
_cell_angle_beta	90.019513
_cell_angle_gamma	90.030810
loop_
_atom_site_label
_atom_site_type_symbol
_atom_site_fract_x
_atom_site_fract_y
_atom_site_fract_z
Zn1	Zn	1.834802	-0.295575	0.678504
Zn2	Zn	2.334802	0.204425	1.178504
Zn3	Zn	1.834624	-0.419790	0.477809
Zn4	Zn	2.334624	0.080210	0.977809
Zn5	Zn	1.634088	-0.295621	0.477839
Zn6	Zn	2.134088	0.204379	0.977839
Zn7	Zn	1.634028	-0.419730	0.678455
Zn8	Zn	2.134028	0.080270	1.178455
O9	O	1.734386	-0.357679	0.578152
O10	O	2.234386	0.142321	1.078152
O11	O	2.002728	-0.312058	0.651889
O12	O	2.502728	0.187942	1.151889
O13	O	1.807973	-0.403363	0.309863
O14	O	2.307973	0.096637	0.809863
O15	O	1.660813	-0.191690	0.504491
O16	O	2.160813	0.308310	1.004491
O17	O	2.002597	-0.403318	0.504439
O18	O	2.502597	0.096682	1.004439
O19	O	1.808276	-0.191656	0.651919
O20	O	2.308276	0.308344	1.151919
O21	O	1.660640	-0.312136	0.309885
O22	O	2.160640	0.187864	0.809885
O23	O	1.466130	-0.312078	0.504444
O24	O	1.966130	0.187922	1.004444
O25	O	1.660711	-0.403216	0.846411
O26	O	2.160711	0.096784	1.346411
O27	O	1.466086	-0.403261	0.651835
O28	O	1.966086	0.096739	1.151835
O29	O	1.808218	-0.312000	0.846447
O30	O	2.308218	0.188000	1.346447
O31	O	1.807915	-0.523706	0.504391
O32	O	2.307915	-0.023706	1.004391
O33	O	1.660538	-0.523663	0.651805
O34	O	2.160538	-0.023663	1.151805
C35	C	1.422561	-0.357669	0.578138
C36	C	1.922561	0.142331	1.078138
C37	C	1.289161	-0.357682	0.578160
C38	C	1.789161	0.142318	1.078160
C39	C	1.734233	-0.550631	0.578116
C40	C	2.234233	-0.050631	1.078116
C41	C	1.734278	-0.633177	0.578140
C42	C	2.234278	-0.133177	1.078140
C43	C	1.654261	-0.882005	0.658305
C44	C	2.154261	-0.382005	1.158305
C45	C	1.763699	-0.832531	0.687749
C46	C	2.263699	-0.332531	1.187749
C47	C	1.734527	-0.930297	0.578207
C48	C	2.234527	-0.430297	1.078207
C49	C	1.624972	-0.832690	0.548786
C50	C	2.124972	-0.332690	1.048786
C51	C	1.734399	-0.784312	0.578177
C52	C	2.234399	-0.284312	1.078177
C53	C	1.844025	-0.881909	0.607709
C54	C	2.344025	-0.381909	1.107709
C55	C	1.705223	-0.882073	0.468695
C56	C	2.205223	-0.382073	0.968695
C57	C	1.814737	-0.832621	0.498098
C58	C	2.314737	-0.332621	0.998098
C59	C	1.734600	-1.014395	0.578228
C60	C	2.234600	-0.514395	1.078228
C61	C	1.734339	-0.700215	0.578157
C62	C	2.234339	-0.200215	1.078157
C63	C	2.047428	-0.357689	0.578166
C64	C	2.547428	0.142311	1.078166
C65	C	2.180828	-0.357694	0.578172
C66	C	2.680828	0.142306	1.078172
C67	C	1.734478	-0.357596	0.891194
C68	C	2.234478	0.142404	1.391194
C69	C	1.734517	-0.357561	1.024594
C70	C	2.234517	0.142439	1.524594
C71	C	1.734571	-0.163973	0.578214
C72	C	2.234571	0.336027	1.078214
C73	C	1.734650	-0.081427	0.578241
C74	C	2.234650	0.418573	1.078241
C75	C	1.734363	-0.357707	0.266327
C76	C	2.234363	0.142293	0.766327
C77	C	1.734556	-0.357533	0.132927
C78	C	2.234556	0.142467	0.632927
H79	H	1.586520	-0.903687	0.726105
H80	H	2.086520	-0.403687	1.226105
H81	H	1.936648	-0.903441	0.632688
H82	H	2.436648	-0.403441	1.132688
H83	H	1.788439	-0.810771	0.780349
H84	H	2.288439	-0.310771	1.280349
F85	F	1.503943	-0.804426	0.516275
F86	F	2.003943	-0.304426	1.016275
H87	H	1.882640	-0.811074	0.430349
H88	H	2.382640	-0.311074	0.930349
F89	F	1.672846	-0.910538	0.347694
F90	F	2.172846	-0.410538	0.847694
