data_functionalizedCrystal
_audit_creation_method	'MofGen! by Chris Wilmer'
_symmetry_space_group_name_H-M	'P1'
_symmetry_Int_Tables_number	1
_symmetry_cell_setting	triclinic
loop_
_symmetry_equiv_pos_as_xyz
  x,y,z
_cell_length_a	25.639242
_cell_length_b	18.215405
_cell_length_c	18.215399
_cell_angle_alpha	90.032960
_cell_angle_beta	89.974553
_cell_angle_gamma	89.979588
loop_
_atom_site_label
_atom_site_type_symbol
_atom_site_fract_x
_atom_site_fract_y
_atom_site_fract_z
Zn1	Zn	0.799292	0.293062	-0.416272
Zn2	Zn	1.049292	0.543062	-0.166272
Zn3	Zn	1.299292	0.793062	0.083728
Zn4	Zn	1.549292	1.043062	0.333728
Zn5	Zn	0.799232	0.416139	-0.293200
Zn6	Zn	1.049232	0.666139	-0.043200
Zn7	Zn	1.299232	0.916139	0.206800
Zn8	Zn	1.549232	1.166139	0.456800
Zn9	Zn	0.711863	0.293081	-0.293201
Zn10	Zn	0.961863	0.543081	-0.043201
Zn11	Zn	1.211863	0.793081	0.206799
Zn12	Zn	1.461863	1.043081	0.456799
Zn13	Zn	0.711835	0.416082	-0.416206
Zn14	Zn	0.961835	0.666082	-0.166206
Zn15	Zn	1.211835	0.916082	0.083794
Zn16	Zn	1.461835	1.166082	0.333794
O17	O	0.755555	0.354591	-0.354720
O18	O	1.005555	0.604591	-0.104720
O19	O	1.255555	0.854591	0.145280
O20	O	1.505555	1.104591	0.395280
O21	O	0.872449	0.309404	-0.399973
O22	O	1.122449	0.559404	-0.149973
O23	O	1.372449	0.809404	0.100027
O24	O	1.622449	1.059404	0.350027
O25	O	0.787629	0.399846	-0.190216
O26	O	1.037629	0.649846	0.059784
O27	O	1.287629	0.899846	0.309784
O28	O	1.537629	1.149846	0.559784
O29	O	0.723498	0.190094	-0.309554
O30	O	0.973498	0.440094	-0.059554
O31	O	1.223498	0.690094	0.190446
O32	O	1.473498	0.940094	0.440446
O33	O	0.872405	0.399828	-0.309553
O34	O	1.122405	0.649828	-0.059553
O35	O	1.372405	0.899828	0.190447
O36	O	1.622405	1.149828	0.440447
O37	O	0.787732	0.190080	-0.399974
O38	O	1.037732	0.440080	-0.149974
O39	O	1.287732	0.690080	0.100026
O40	O	1.537732	0.940080	0.350026
O41	O	0.723440	0.309436	-0.190216
O42	O	0.973440	0.559436	0.059784
O43	O	1.223440	0.809436	0.309784
O44	O	1.473440	1.059436	0.559784
O45	O	0.638694	0.309381	-0.309491
O46	O	0.888694	0.559381	-0.059491
O47	O	1.138694	0.809381	0.190509
O48	O	1.388694	1.059381	0.440509
O49	O	0.723449	0.399731	-0.519199
O50	O	0.973449	0.649731	-0.269199
O51	O	1.223449	0.899731	-0.019199
O52	O	1.473449	1.149731	0.230801
O53	O	0.638673	0.399750	-0.399862
O54	O	0.888673	0.649750	-0.149862
O55	O	1.138673	0.899750	0.100138
O56	O	1.388673	1.149750	0.350138
O57	O	0.787704	0.309349	-0.519247
O58	O	1.037704	0.559349	-0.269247
O59	O	1.287704	0.809349	-0.019247
O60	O	1.537704	1.059349	0.230753
O61	O	0.787601	0.519115	-0.309489
O62	O	1.037601	0.769115	-0.059489
O63	O	1.287601	1.019115	0.190511
O64	O	1.537601	1.269115	0.440511
O65	O	0.723391	0.519074	-0.399862
O66	O	0.973391	0.769074	-0.149862
O67	O	1.223391	1.019074	0.100138
O68	O	1.473391	1.269074	0.350138
C69	C	0.755500	0.545797	-0.354684
C70	C	1.005500	0.795797	-0.104684
C71	C	1.255500	1.045797	0.145316
C72	C	1.505500	1.295797	0.395316
C73	C	0.755525	0.627596	-0.354694
C74	C	1.005525	0.877596	-0.104694
C75	C	1.255525	1.127596	0.145306
C76	C	1.505525	1.377596	0.395306
C77	C	0.619713	0.354562	-0.354670
C78	C	0.869713	0.604562	-0.104670
C79	C	1.119713	0.854562	0.145330
C80	C	1.369713	1.104562	0.395330
C81	C	0.561599	0.354567	-0.354666
C82	C	0.811599	0.604567	-0.104666
C83	C	1.061599	0.854567	0.145334
C84	C	1.311599	1.104567	0.395334
C85	C	0.755580	0.354532	-0.546673
C86	C	1.005580	0.604532	-0.296673
C87	C	1.255580	0.854532	-0.046673
C88	C	1.505580	1.104532	0.203327
C89	C	0.755591	0.354507	-0.628472
C90	C	1.005591	0.604507	-0.378472
C91	C	1.255591	0.854507	-0.128472
C92	C	1.505591	1.104507	0.121528
C93	C	0.201234	0.401724	-0.401732
C94	C	0.451234	0.651724	-0.151732
C95	C	0.701234	0.901724	0.098268
C96	C	0.951234	1.151724	0.348268
C97	C	0.146629	0.401729	-0.401743
C98	C	0.396629	0.651729	-0.151743
C99	C	0.646629	0.901729	0.098257
C100	C	0.896629	1.151729	0.348257
O101	O	0.118391	0.441787	-0.441718
O102	O	0.368391	0.691787	-0.191718
O103	O	0.618391	0.941787	0.058282
O104	O	0.868391	1.191787	0.308282
N105	N	0.119316	0.354611	-0.354768
N106	N	0.369316	0.604611	-0.104768
N107	N	0.619316	0.854611	0.145232
N108	N	0.869316	1.104611	0.395232
C109	C	0.146611	0.307481	-0.307783
C110	C	0.396611	0.557481	-0.057783
C111	C	0.646611	0.807481	0.192217
C112	C	0.896611	1.057481	0.442217
O113	O	0.118365	0.267403	-0.267828
O114	O	0.368365	0.517403	-0.017828
O115	O	0.618365	0.767403	0.232172
O116	O	0.868365	1.017403	0.482172
C117	C	0.201214	0.307473	-0.307775
C118	C	0.451214	0.557473	-0.057775
C119	C	0.701214	0.807473	0.192225
C120	C	0.951214	1.057473	0.442225
C121	C	0.228524	0.354599	-0.354749
C122	C	0.478524	0.604599	-0.104749
C123	C	0.728524	0.854599	0.145251
C124	C	0.978524	1.104599	0.395251
C125	C	0.228544	0.448846	-0.448702
C126	C	0.478544	0.698846	-0.198702
C127	C	0.728544	0.948846	0.051298
C128	C	0.978544	1.198846	0.301298
C129	C	0.283144	0.448842	-0.448689
C130	C	0.533144	0.698842	-0.198689
C131	C	0.783144	0.948842	0.051311
C132	C	1.033144	1.198842	0.301311
C133	C	0.310435	0.401717	-0.401706
C134	C	0.560435	0.651717	-0.151706
C135	C	0.810435	0.901717	0.098294
C136	C	1.060435	1.151717	0.348294
C137	C	0.283125	0.354595	-0.354736
C138	C	0.533125	0.604595	-0.104736
C139	C	0.783125	0.854595	0.145264
C140	C	1.033125	1.104595	0.395264
C141	C	0.228507	0.260339	-0.260795
C142	C	0.478507	0.510339	-0.010795
C143	C	0.728507	0.760339	0.239205
C144	C	0.978507	1.010339	0.489205
C145	C	0.283114	0.260335	-0.260792
C146	C	0.533114	0.510335	-0.010792
C147	C	0.783114	0.760335	0.239208
C148	C	1.033114	1.010335	0.489208
C149	C	0.310424	0.307461	-0.307765
C150	C	0.560424	0.557461	-0.057765
C151	C	0.810424	0.807461	0.192235
C152	C	1.060424	1.057461	0.442235
C153	C	0.365016	0.307466	-0.307740
C154	C	0.615016	0.557466	-0.057740
C155	C	0.865016	0.807466	0.192260
C156	C	1.115016	1.057466	0.442260
N157	N	0.392328	0.354584	-0.354716
N158	N	0.642328	0.604584	-0.104716
N159	N	0.892328	0.854584	0.145284
N160	N	1.142328	1.104584	0.395284
C161	C	0.365038	0.401709	-0.401699
C162	C	0.615038	0.651709	-0.151699
C163	C	0.865038	0.901709	0.098301
C164	C	1.115038	1.151709	0.348301
C165	C	0.031940	0.307499	-0.307803
C166	C	0.281940	0.557499	-0.057803
C167	C	0.531940	0.807499	0.192197
C168	C	0.781940	1.057499	0.442197
C169	C	-0.022662	0.307510	-0.307806
C170	C	0.227338	0.557510	-0.057806
C171	C	0.477338	0.807510	0.192194
C172	C	0.727338	1.057510	0.442194
C173	C	-0.022640	0.401758	-0.401767
C174	C	0.227360	0.651758	-0.151767
C175	C	0.477360	0.901758	0.098233
C176	C	0.727360	1.151758	0.348233
C177	C	0.031964	0.401750	-0.401760
C178	C	0.281964	0.651750	-0.151760
C179	C	0.531964	0.901750	0.098240
C180	C	0.781964	1.151750	0.348240
C181	C	0.059253	0.354617	-0.354778
C182	C	0.309253	0.604617	-0.104778
C183	C	0.559253	0.854617	0.145222
C184	C	0.809253	1.104617	0.395222
C185	C	0.479703	0.401698	-0.401668
C186	C	0.729703	0.651698	-0.151668
C187	C	0.979703	0.901698	0.098332
C188	C	1.229703	1.151698	0.348332
C189	C	0.534309	0.401692	-0.401649
C190	C	0.784309	0.651692	-0.151649
C191	C	1.034309	0.901692	0.098351
C192	C	1.284309	1.151692	0.348351
C193	C	0.534281	0.307443	-0.307690
C194	C	0.784281	0.557443	-0.057690
C195	C	1.034281	0.807443	0.192310
C196	C	1.284281	1.057443	0.442310
C197	C	0.479681	0.307451	-0.307706
C198	C	0.729681	0.557451	-0.057706
C199	C	0.979681	0.807451	0.192294
C200	C	1.229681	1.057451	0.442294
C201	C	0.452393	0.354581	-0.354701
C202	C	0.702393	0.604581	-0.104701
C203	C	0.952393	0.854581	0.145299
C204	C	1.202393	1.104581	0.395299
O205	O	0.393289	0.267426	-0.267788
O206	O	0.643289	0.517426	-0.017788
O207	O	0.893289	0.767426	0.232212
O208	O	1.143289	1.017426	0.482212
O209	O	0.393291	0.441773	-0.441654
O210	O	0.643291	0.691773	-0.191654
O211	O	0.893291	0.941773	0.058346
O212	O	1.143291	1.191773	0.308346
C213	C	0.891928	0.354620	-0.354770
C214	C	1.141928	0.604620	-0.104770
C215	C	1.391928	0.854620	0.145230
C216	C	1.641928	1.104620	0.395230
C217	C	0.950043	0.354633	-0.354792
C218	C	1.200043	0.604633	-0.104792
C219	C	1.450043	0.854633	0.145208
C220	C	1.700043	1.104633	0.395208
C221	C	0.755625	0.162638	-0.354771
C222	C	1.005625	0.412638	-0.104771
C223	C	1.255625	0.662638	0.145229
C224	C	1.505625	0.912638	0.395229
C225	C	0.755655	0.080839	-0.354793
C226	C	1.005655	0.330839	-0.104793
C227	C	1.255655	0.580839	0.145207
C228	C	1.505655	0.830839	0.395207
C229	C	0.789037	0.815787	-0.307724
C230	C	1.039037	1.065787	-0.057724
C231	C	1.289037	1.315787	0.192276
C232	C	1.539037	1.565787	0.442276
C233	C	0.789061	0.892646	-0.307741
C234	C	1.039061	1.142646	-0.057741
C235	C	1.289061	1.392646	0.192259
C236	C	1.539061	1.642646	0.442259
C237	C	0.722141	0.892642	-0.401769
C238	C	0.972141	1.142642	-0.151769
C239	C	1.222141	1.392642	0.098231
C240	C	1.472141	1.642642	0.348231
C241	C	0.722120	0.815785	-0.401754
C242	C	0.972120	1.065785	-0.151754
C243	C	1.222120	1.315785	0.098246
C244	C	1.472120	1.565785	0.348246
C245	C	0.755568	0.777359	-0.354727
C246	C	1.005568	1.027359	-0.104727
C247	C	1.255568	1.277359	0.145273
C248	C	1.505568	1.527359	0.395273
C249	C	0.755612	0.931075	-0.354760
C250	C	1.005612	1.181075	-0.104760
C251	C	1.255612	1.431075	0.145240
C252	C	1.505612	1.681075	0.395240
C253	C	0.755637	1.014409	-0.354779
C254	C	1.005637	1.264409	-0.104779
C255	C	1.255637	1.514409	0.145221
C256	C	1.505637	1.764409	0.395221
C257	C	0.755544	0.694020	-0.354708
C258	C	1.005544	0.944020	-0.104708
C259	C	1.255544	1.194020	0.145292
C260	C	1.505544	1.444020	0.395292
C261	C	0.722196	0.307399	-0.816667
C262	C	0.972196	0.557399	-0.566667
C263	C	1.222196	0.807399	-0.316667
C264	C	1.472196	1.057399	-0.066667
C265	C	0.722205	0.307384	-0.893526
C266	C	0.972205	0.557384	-0.643526
C267	C	1.222205	0.807384	-0.393526
C268	C	1.472205	1.057384	-0.143526
C269	C	0.789048	0.401527	-0.893514
C270	C	1.039048	0.651527	-0.643514
C271	C	1.289048	0.901527	-0.393514
C272	C	1.539048	1.151527	-0.143514
C273	C	0.789036	0.401545	-0.816657
C274	C	1.039036	0.651545	-0.566657
C275	C	1.289036	0.901545	-0.316657
C276	C	1.539036	1.151545	-0.066657
C277	C	0.755611	0.354477	-0.778235
C278	C	1.005611	0.604477	-0.528235
C279	C	1.255611	0.854477	-0.278235
C280	C	1.505611	1.104477	-0.028235
C281	C	0.755632	0.354444	-0.931951
C282	C	1.005632	0.604444	-0.681951
C283	C	1.255632	0.854444	-0.431951
C284	C	1.505632	1.104444	-0.181951
C285	C	0.755642	0.354428	-1.015285
C286	C	1.005642	0.604428	-0.765285
C287	C	1.255642	0.854428	-0.515285
C288	C	1.505642	1.104428	-0.265285
C289	C	0.755600	0.354493	-0.694896
C290	C	1.005600	0.604493	-0.444896
C291	C	1.255600	0.854493	-0.194896
C292	C	1.505600	1.104493	0.055104
C293	C	0.755561	0.354596	-0.163513
C294	C	1.005561	0.604596	0.086487
C295	C	1.255561	0.854596	0.336487
C296	C	1.505561	1.104596	0.586487
C297	C	0.755652	0.354414	-0.081715
C298	C	1.005652	0.604414	0.168285
C299	C	1.255652	0.854414	0.418285
C300	C	1.505652	1.104414	0.668285
H301	H	0.556542	0.440071	-0.439901
H302	H	0.806542	0.690071	-0.189901
H303	H	1.056542	0.940071	0.060099
H304	H	1.306542	1.190071	0.310099
H305	H	-0.044894	0.269143	-0.269548
H306	H	0.205106	0.519143	-0.019548
H307	H	0.455106	0.769143	0.230452
H308	H	0.705106	1.019143	0.480452
H309	H	0.694978	0.269073	-0.785386
H310	H	0.944978	0.519073	-0.535386
H311	H	1.194978	0.769073	-0.285386
H312	H	1.444978	1.019073	-0.035386
H313	H	0.305330	0.221949	-0.222537
H314	H	0.555330	0.471949	0.027463
H315	H	0.805330	0.721949	0.277463
H316	H	1.055330	0.971949	0.527463
H317	H	0.694908	0.923938	-0.440055
H318	H	0.944908	1.173938	-0.190055
H319	H	1.194908	1.423938	0.059945
H320	H	1.444908	1.673938	0.309945
H321	H	0.694995	0.269049	-0.924813
H322	H	0.944995	0.519049	-0.674813
H323	H	1.194995	0.769049	-0.424813
H324	H	1.444995	1.019049	-0.174813
H325	H	0.816316	0.923930	-0.269467
H326	H	1.066316	1.173930	-0.019467
H327	H	1.316316	1.423930	0.230533
H328	H	1.566316	1.673930	0.480533
H329	H	0.816248	0.439885	-0.785365
H330	H	1.066248	0.689885	-0.535365
H331	H	1.316248	0.939885	-0.285365
H332	H	1.566248	1.189885	-0.035365
H333	H	0.054196	0.440123	-0.440011
H334	H	0.304196	0.690123	-0.190011
H335	H	0.554196	0.940123	0.059989
H336	H	0.804196	1.190123	0.309989
H337	H	0.694865	0.784495	-0.440034
H338	H	0.944865	1.034495	-0.190034
H339	H	1.194865	1.284495	0.059966
H340	H	1.444865	1.534495	0.309966
H341	H	0.054156	0.269119	-0.269539
H342	H	0.304156	0.519119	-0.019539
H343	H	0.554156	0.769119	0.230461
H344	H	0.804156	1.019119	0.480461
H345	H	0.457492	0.440074	-0.439937
H346	H	0.707492	0.690074	-0.189937
H347	H	0.957492	0.940074	0.060063
H348	H	1.207492	1.190074	0.310063
H349	H	0.816262	0.439848	-0.924807
H350	H	1.066262	0.689848	-0.674807
H351	H	1.316262	0.939848	-0.424807
H352	H	1.566262	1.189848	-0.174807
H353	H	0.206330	0.487221	-0.486965
H354	H	0.456330	0.737221	-0.236965
H355	H	0.706330	0.987221	0.013035
H356	H	0.956330	1.237221	0.263035
H357	H	0.206281	0.221966	-0.222542
H358	H	0.456281	0.471966	0.027458
H359	H	0.706281	0.721966	0.277458
H360	H	0.956281	0.971966	0.527458
H361	H	0.556511	0.269077	-0.269436
H362	H	0.806511	0.519077	-0.019436
H363	H	1.056511	0.769077	0.230564
H364	H	1.306511	1.019077	0.480564
H365	H	0.305376	0.487216	-0.486941
H366	H	0.555376	0.737216	-0.236941
H367	H	0.805376	0.987216	0.013059
H368	H	1.055376	1.237216	0.263059
H369	H	-0.044870	0.440127	-0.440026
H370	H	0.205130	0.690127	-0.190026
H371	H	0.455130	0.940127	0.059974
H372	H	0.705130	1.190127	0.309974
H373	H	0.816273	0.784503	-0.269433
H374	H	1.066273	1.034503	-0.019433
H375	H	1.316273	1.284503	0.230567
H376	H	1.566273	1.534503	0.480567
H377	H	0.457444	0.269078	-0.269455
H378	H	0.707444	0.519078	-0.019455
H379	H	0.957444	0.769078	0.230545
H380	H	1.207444	1.019078	0.480545
