data_functionalizedCrystal
_audit_creation_method	'MofGen! by Chris Wilmer'
_symmetry_space_group_name_H-M	'P1'
_symmetry_Int_Tables_number	1
_symmetry_cell_setting	triclinic
loop_
_symmetry_equiv_pos_as_xyz
  x,y,z
_cell_length_a	14.519709
_cell_length_b	17.699083
_cell_length_c	16.776229
_cell_angle_alpha	90.007545
_cell_angle_beta	89.998478
_cell_angle_gamma	96.518420
loop_
_atom_site_label
_atom_site_type_symbol
_atom_site_fract_x
_atom_site_fract_y
_atom_site_fract_z
O1	O	1.223449	-0.099215	-0.066186
O2	O	0.954923	-0.110899	-0.066211
O3	O	1.096772	0.005110	-0.066191
O4	O	1.081599	-0.215225	-0.066206
O5	O	1.096754	0.005117	0.066386
O6	O	0.954904	-0.110892	0.066366
O7	O	1.223430	-0.099208	0.066390
Zn8	Zn	1.089164	-0.105049	0.087428
Zn9	Zn	1.089189	-0.105058	-0.087248
O10	O	1.081580	-0.215218	0.066370
C11	C	0.920556	-0.110351	0.000075
C12	C	0.818181	-0.108719	0.000065
C13	C	1.096219	0.033312	0.000098
C14	C	1.094588	0.117335	0.000098
C15	C	1.082134	-0.243420	0.000080
C16	C	1.083765	-0.327442	0.000075
C17	C	0.443311	-0.102712	0.000102
C18	C	0.547612	-0.104380	0.000092
C19	C	0.630743	-0.105716	0.000083
C20	C	0.735050	-0.107384	0.000074
C21	C	1.257797	-0.099756	0.000104
C22	C	1.360171	-0.101388	0.000107
N23	N	1.089154	-0.105042	0.206639
C24	C	1.177851	0.165718	0.000107
C25	C	1.176313	0.244665	0.000099
C26	C	1.091511	0.275229	0.000089
C27	C	1.008242	0.226840	0.000078
C28	C	1.009781	0.147894	0.000080
C29	C	1.002033	0.545221	0.000071
C30	C	1.000501	0.624173	0.000072
C31	C	1.168566	0.641992	0.000091
C32	C	1.170105	0.563046	0.000092
C33	C	1.086836	0.514664	0.000077
C34	C	1.088505	0.429060	0.000083
C35	C	1.089841	0.360831	0.000089
N36	N	1.089206	-0.105059	-0.206459
C37	C	1.151984	-0.053694	0.248365
C38	C	1.151989	-0.053694	0.331817
C39	C	1.089168	-0.105045	0.373542
C40	C	1.026331	-0.156395	0.331810
C41	C	1.026322	-0.156392	0.248359
C42	C	1.026364	-0.156410	0.668357
C43	C	1.026380	-0.156411	0.751814
C44	C	1.152031	-0.053712	0.751815
C45	C	1.152022	-0.053709	0.668364
C46	C	1.089183	-0.105056	0.626640
C47	C	1.089177	-0.105055	0.536151
C48	C	1.089177	-0.105050	0.464028
H49	H	1.244114	0.284056	0.000108
H50	H	1.203196	-0.011900	0.785796
H51	H	0.941980	0.108501	0.000072
O52	O	1.261572	0.530085	0.000092
H53	H	1.301576	0.549521	0.054124
H54	H	0.975200	-0.198220	0.634392
O55	O	0.958621	-0.211798	0.796825
H56	H	0.997370	-0.248657	0.834823
O57	O	1.219769	0.001687	0.623361
H58	H	1.264519	-0.030247	0.585329
H59	H	1.203144	-0.011881	0.214398
O60	O	0.958574	-0.211787	0.376807
H61	H	0.969142	-0.203171	0.441846
H62	H	0.939195	0.251731	0.000065
O63	O	0.909028	0.657136	0.000056
H64	H	0.904293	0.692675	0.054097
O65	O	0.912227	0.493042	0.000075
H66	H	0.853004	0.527561	0.000082
H67	H	1.203150	-0.011882	0.365790
H68	H	0.975158	-0.198203	0.214387
H69	H	1.246907	0.140840	0.000120
H70	H	1.236367	0.681395	0.000099
