data_functionalizedCrystal
_audit_creation_method	'MofGen! by Chris Wilmer'
_symmetry_space_group_name_H-M	'P1'
_symmetry_Int_Tables_number	1
_symmetry_cell_setting	triclinic
loop_
_symmetry_equiv_pos_as_xyz
  x,y,z
_cell_length_a	13.897449
_cell_length_b	19.077068
_cell_length_c	13.897441
_cell_angle_alpha	87.735129
_cell_angle_beta	89.981404
_cell_angle_gamma	87.671720
loop_
_atom_site_label
_atom_site_type_symbol
_atom_site_fract_x
_atom_site_fract_y
_atom_site_fract_z
Zn1	Zn	1.459191	0.280161	-0.560773
Zn2	Zn	1.959191	0.780161	-0.060773
Zn3	Zn	1.452582	0.397870	-0.405941
Zn4	Zn	1.952582	0.897870	0.094059
Zn5	Zn	1.297884	0.280193	-0.399493
Zn6	Zn	1.797884	0.780193	0.100507
Zn7	Zn	1.291356	0.397825	-0.567191
Zn8	Zn	1.791356	0.897825	-0.067191
O9	O	1.375253	0.339012	-0.483350
O10	O	1.875253	0.839012	0.016650
O11	O	1.593296	0.295781	-0.540247
O12	O	2.093296	0.795781	-0.040247
O13	O	1.432028	0.382291	-0.270106
O14	O	1.932028	0.882291	0.229894
O15	O	1.324780	0.181698	-0.415503
O16	O	1.824780	0.681698	0.084497
O17	O	1.588440	0.382261	-0.426492
O18	O	2.088440	0.882261	0.073508
O19	O	1.443291	0.181675	-0.533994
O20	O	1.943291	0.681675	-0.033994
O21	O	1.318372	0.295835	-0.265368
O22	O	1.818372	0.795835	0.234632
O23	O	1.162037	0.295792	-0.421726
O24	O	1.662037	0.795792	0.078274
O25	O	1.313653	0.382185	-0.701320
O26	O	1.813653	0.882185	-0.201320
O27	O	1.157240	0.382216	-0.544933
O28	O	1.657240	0.882216	-0.044933
O29	O	1.436961	0.295738	-0.696604
O30	O	1.936961	0.795738	-0.196604
O31	O	1.425697	0.496355	-0.432716
O32	O	1.925697	0.996355	0.067284
O33	O	1.307245	0.496322	-0.551186
O34	O	1.807245	0.996322	-0.051186
C35	C	1.365072	0.521876	-0.493368
C36	C	1.865072	1.021876	0.006632
C37	C	1.360804	0.600106	-0.497686
C38	C	1.860804	1.100106	0.002314
C39	C	1.124639	0.339003	-0.483327
C40	C	1.624639	0.839003	0.016673
C41	C	1.017425	0.339016	-0.483341
C42	C	1.517425	0.839016	0.016659
C43	C	1.375316	0.338953	-0.734939
C44	C	1.875316	0.838953	-0.234939
C45	C	1.375342	0.338928	-0.842152
C46	C	1.875342	0.838928	-0.342152
C47	C	0.821130	0.339018	-0.483367
C48	C	1.321130	0.839018	0.016633
C49	C	0.930362	0.339015	-0.483350
C50	C	1.430362	0.839015	0.016650
C51	C	1.626846	0.339022	-0.483373
C52	C	2.126846	0.839022	0.016627
C53	C	1.734059	0.339027	-0.483383
C54	C	2.234059	0.839027	0.016617
C55	C	1.385501	0.155434	-0.473313
C56	C	1.885501	0.655434	0.026687
C57	C	1.389868	0.077205	-0.469036
C58	C	1.889868	0.577205	0.030964
C59	C	1.420519	0.636852	-0.438085
C60	C	1.920519	1.136852	0.061915
C61	C	1.416511	0.710357	-0.442152
C62	C	1.916511	1.210357	0.057848
C63	C	1.352782	0.747115	-0.505816
C64	C	1.852782	1.247115	-0.005816
C65	C	1.293065	0.710364	-0.565424
C66	C	1.793065	1.210364	-0.065424
C67	C	1.297079	0.636860	-0.561361
C68	C	1.797079	1.136860	-0.061361
C69	C	1.334164	0.966949	-0.524581
C70	C	1.834164	1.466949	-0.024581
C71	C	1.330153	1.040458	-0.528637
C72	C	1.830153	1.540458	-0.028637
C73	C	1.453601	1.040447	-0.405366
C74	C	1.953601	1.540447	0.094634
C75	C	1.457605	0.966941	-0.401305
C76	C	1.957605	1.466941	0.098695
C77	C	1.397891	0.930197	-0.460916
C78	C	1.897891	1.430197	0.039084
N79	N	1.348682	0.822250	-0.509973
N80	N	1.848682	1.322250	-0.009973
N81	N	1.401997	0.855064	-0.456764
N82	N	1.901997	1.355064	0.043236
C83	C	1.375363	0.338908	-0.929221
C84	C	1.875363	0.838908	-0.429221
C85	C	1.375392	0.338876	-1.038452
C86	C	1.875392	0.838876	-0.538452
C87	C	1.375250	0.339020	-0.232736
C88	C	1.875250	0.839020	0.267264
C89	C	1.375421	0.338847	-0.125513
C90	C	1.875421	0.838847	0.374487
H91	H	1.465136	0.740273	-0.393618
H92	H	1.965136	1.240273	0.106382
C93	C	1.499446	1.063146	-0.243330
C94	C	1.999446	1.563146	0.256670
C95	C	1.519241	1.080842	-0.339855
C96	C	2.019241	1.580842	0.160145
H97	H	1.539970	1.088089	-0.202889
H98	H	2.039970	1.588089	0.297111
H99	H	1.510961	1.014116	-0.231804
H100	H	2.010961	1.514116	0.268196
H101	H	1.433982	1.075244	-0.229832
H102	H	1.933982	1.575244	0.270168
H103	H	1.584703	1.068739	-0.353355
H104	H	2.084703	1.568739	0.146645
H105	H	1.507733	1.129883	-0.351386
H106	H	2.007733	1.629883	0.148614
C107	C	1.468834	0.614288	-0.273543
C108	C	1.968834	1.114288	0.226457
C109	C	1.490571	0.596452	-0.368101
C110	C	1.990571	1.096452	0.131899
H111	H	1.512088	0.589350	-0.230340
H112	H	2.012088	1.089350	0.269660
H113	H	1.404696	0.602285	-0.258711
H114	H	1.904696	1.102285	0.241289
H115	H	1.474991	0.663325	-0.267448
H116	H	1.974991	1.163325	0.232552
H117	H	1.484406	0.547415	-0.374198
H118	H	1.984406	1.047415	0.125802
H119	H	1.554725	0.608450	-0.382938
H120	H	2.054725	1.108450	0.117062
C121	C	1.171455	0.702987	-0.686870
C122	C	1.671455	1.202987	-0.186870
C123	C	1.223016	0.750766	-0.635410
C124	C	1.723016	1.250766	-0.135410
H125	H	1.128213	0.727930	-0.730081
H126	H	1.628213	1.227930	-0.230081
H127	H	1.136144	0.674365	-0.643231
H128	H	1.636144	1.174365	-0.143231
H129	H	1.215041	0.674270	-0.722213
H130	H	1.715041	1.174270	-0.222213
H131	H	1.179430	0.779479	-0.600061
H132	H	1.679430	1.279479	-0.100061
H133	H	1.258328	0.779399	-0.679056
H134	H	1.758328	1.279399	-0.179056
H135	H	1.278269	1.070385	-0.580497
H136	H	1.778269	1.570385	-0.080497
C137	C	1.211717	0.974354	-0.646810
C138	C	1.711717	1.474354	-0.146810
C139	C	1.268509	0.926566	-0.590086
C140	C	1.768509	1.426566	-0.090086
H141	H	1.171174	0.949420	-0.687243
H142	H	1.671174	1.449420	-0.187243
H143	H	1.252156	1.002972	-0.685333
H144	H	1.752156	1.502972	-0.185333
H145	H	1.173291	1.003074	-0.606319
H146	H	1.673291	1.503074	-0.106319
H147	H	1.306939	0.897849	-0.630577
H148	H	1.806939	1.397849	-0.130577
H149	H	1.228065	0.897936	-0.551559
H150	H	1.728065	1.397936	-0.051559
H151	H	1.248454	0.606942	-0.609895
H152	H	1.748454	1.106942	-0.109895
C153	C	1.475594	0.884352	-0.266996
C154	C	1.975594	1.384352	0.233004
C155	C	1.527661	0.926544	-0.331322
C156	C	2.027661	1.426544	0.168678
H157	H	1.518844	0.859417	-0.223785
H158	H	2.018844	1.359417	0.276215
H159	H	1.440616	0.851947	-0.301909
H160	H	1.940616	1.351947	0.198091
H161	H	1.432021	0.913081	-0.231656
H162	H	1.932021	1.413081	0.268344
H163	H	1.571229	0.897814	-0.366667
H164	H	2.071229	1.397814	0.133333
H165	H	1.562655	0.958953	-0.296405
H166	H	2.062655	1.458953	0.203595
