data_functionalizedCrystal
_audit_creation_method	'MofGen! by Chris Wilmer'
_symmetry_space_group_name_H-M	'P1'
_symmetry_Int_Tables_number	1
_symmetry_cell_setting	triclinic
loop_
_symmetry_equiv_pos_as_xyz
  x,y,z
_cell_length_a	12.784905
_cell_length_b	12.837942
_cell_length_c	16.176319
_cell_angle_alpha	89.994101
_cell_angle_beta	89.991820
_cell_angle_gamma	83.968130
loop_
_atom_site_label
_atom_site_type_symbol
_atom_site_fract_x
_atom_site_fract_y
_atom_site_fract_z
O1	O	1.410971	0.006438	-0.068751
O2	O	1.105972	0.050430	-0.068752
O3	O	1.251709	-0.121859	-0.068747
O4	O	1.265235	0.178727	-0.068757
O5	O	1.251685	-0.121867	0.068747
O6	O	1.105949	0.050422	0.068741
O7	O	1.410948	0.006430	0.068742
Cu8	Cu	1.258446	0.028426	0.081296
Cu9	Cu	1.258474	0.028435	-0.081306
O10	O	1.265211	0.178719	0.068737
C11	C	1.066651	0.053288	-0.000005
C12	C	0.949519	0.061801	-0.000005
C13	C	0.735568	-0.111642	-0.000014
C14	C	0.625513	-0.103648	-0.000014
C15	C	0.619351	0.085781	-0.000012
C16	C	0.729407	0.077787	-0.000012
C17	C	0.787511	-0.020928	-0.000012
C18	C	0.897569	-0.028921	-0.000006
C19	C	0.891405	0.160508	-0.000009
C20	C	0.781350	0.168502	-0.000009
C21	C	1.247128	-0.160072	-0.000000
C22	C	1.233500	-0.273920	-0.000002
C23	C	1.397331	-0.529646	-0.000019
C24	C	1.384532	-0.636618	-0.000020
C25	C	1.195102	-0.594839	-0.000012
C26	C	1.207901	-0.487867	-0.000010
C27	C	1.309019	-0.455275	-0.000013
C28	C	1.321818	-0.348301	-0.000005
C29	C	1.132389	-0.306523	-0.000003
C30	C	1.119589	-0.413495	-0.000004
C31	C	1.450269	0.003573	-0.000007
C32	C	1.567401	-0.004940	-0.000012
C33	C	1.269792	0.216932	-0.000011
C34	C	1.283420	0.330781	-0.000015
N35	N	1.258434	0.028417	0.195661
N36	N	1.258493	0.028434	-0.195671
C37	C	1.322991	-0.047846	0.238928
C38	C	1.322996	-0.047847	0.325475
C39	C	1.258450	0.028420	0.368754
C40	C	1.193886	0.104687	0.325481
C41	C	1.193876	0.104683	0.238936
C42	C	1.193924	0.104703	0.674509
C43	C	1.193941	0.104703	0.761061
C44	C	1.323044	-0.047827	0.761048
C45	C	1.323034	-0.047831	0.674503
C46	C	1.258467	0.028432	0.631238
C47	C	1.258460	0.028432	0.537394
C48	C	1.258461	0.028425	0.462596
H49	H	0.944876	-0.109300	-0.000004
H50	H	0.583225	-0.177517	-0.000018
H51	H	0.782878	-0.192020	-0.000009
Br52	Br	0.982365	-0.457738	-0.000012
H53	H	1.375598	-0.109931	0.639268
H54	H	1.112776	-0.621395	-0.000019
Br55	Br	1.410673	-0.151332	0.819769
Br56	Br	1.534558	-0.485408	0.000004
Br57	Br	1.012529	-0.205584	0.000020
Br58	Br	1.106337	0.208216	0.819797
Br59	Br	1.106276	0.208188	0.384213
Br60	Br	0.540477	0.219740	-0.000035
H61	H	1.141353	0.166801	0.639290
Br62	Br	0.961904	0.283628	0.000013
Br63	Br	0.702484	0.302465	-0.000017
Br64	Br	1.459047	-0.304069	0.000000
Br65	Br	1.410604	-0.151350	0.180201
H66	H	1.141306	0.166783	0.203709
H67	H	1.456445	-0.697169	-0.000028
Br68	Br	1.410606	-0.151352	0.384196
