data_functionalizedCrystal
_audit_creation_method	'MofGen! by Chris Wilmer'
_symmetry_space_group_name_H-M	'P1'
_symmetry_Int_Tables_number	1
_symmetry_cell_setting	triclinic
loop_
_symmetry_equiv_pos_as_xyz
  x,y,z
_cell_length_a	10.654549
_cell_length_b	17.699092
_cell_length_c	9.730223
_cell_angle_alpha	89.997288
_cell_angle_beta	89.997731
_cell_angle_gamma	83.885573
loop_
_atom_site_label
_atom_site_type_symbol
_atom_site_fract_x
_atom_site_fract_y
_atom_site_fract_z
O1	O	1.665984	0.106301	-0.114253
O2	O	2.165984	0.606301	0.385747
O3	O	1.300328	0.116429	-0.114262
O4	O	1.800328	0.616429	0.385738
O5	O	1.493481	0.001242	-0.114254
O6	O	1.993481	0.501242	0.385746
O7	O	1.472831	0.221488	-0.114261
O8	O	1.972831	0.721488	0.385739
O9	O	1.493469	0.001238	0.114326
O10	O	1.993469	0.501238	0.614326
O11	O	1.300316	0.116426	0.114318
O12	O	1.800316	0.616426	0.614318
O13	O	1.665971	0.106298	0.114327
O14	O	2.165971	0.606298	0.614327
Zn15	Zn	1.483142	0.111361	0.150615
Zn16	Zn	1.983142	0.611361	0.650615
Zn17	Zn	1.483158	0.111365	-0.150549
Zn18	Zn	1.983158	0.611365	0.349451
O19	O	1.472819	0.221485	0.114319
O20	O	1.972819	0.721485	0.614319
C21	C	1.253537	0.115684	0.000027
C22	C	1.753537	0.615684	0.500027
C23	C	1.114133	0.113459	0.000023
C24	C	1.614133	0.613459	0.500023
C25	C	1.492734	-0.026962	0.000034
C26	C	1.992734	0.473038	0.500034
C27	C	1.490508	-0.110993	0.000028
C28	C	1.990508	0.389007	0.500028
C29	C	0.902471	0.179183	0.000027
C30	C	1.402471	0.679183	0.500027
C31	C	1.033455	0.181279	0.000019
C32	C	1.533455	0.681279	0.500019
C33	C	1.063821	0.043538	0.000022
C34	C	1.563821	0.543538	0.500022
C35	C	0.932839	0.041442	0.000021
C36	C	1.432839	0.541442	0.500021
C37	C	1.489473	-0.150466	-0.124573
C38	C	1.989473	0.349534	0.375427
C39	C	1.487374	-0.229422	-0.124575
C40	C	1.987374	0.270578	0.375425
C41	C	1.486320	-0.268905	0.000026
C42	C	1.986320	0.231095	0.500026
C43	C	1.487352	-0.229427	0.124636
C44	C	1.987352	0.270573	0.624636
C45	C	1.489442	-0.150472	0.124636
C46	C	1.989442	0.349528	0.624636
C47	C	1.478922	-0.547846	0.124638
C48	C	1.978922	-0.047846	0.624638
C49	C	1.476836	-0.626807	0.124628
C50	C	1.976836	-0.126807	0.624628
C51	C	1.476855	-0.626796	-0.124573
C52	C	1.976855	-0.126796	0.375427
C53	C	1.478944	-0.547841	-0.124573
C54	C	1.978944	-0.047841	0.375427
C55	C	1.479970	-0.508369	0.000036
C56	C	1.979970	-0.008369	0.500036
C57	C	1.482243	-0.422755	0.000037
C58	C	1.982243	0.077245	0.500037
C59	C	1.484055	-0.354518	0.000027
C60	C	1.984055	0.145482	0.500027
C61	C	1.712763	0.107043	0.000036
C62	C	2.212763	0.607043	0.500036
C63	C	1.852167	0.109268	0.000030
C64	C	2.352167	0.609268	0.500030
C65	C	1.473566	0.249688	0.000029
C66	C	1.973566	0.749688	0.500029
C67	C	1.475792	0.333720	0.000026
C68	C	1.975792	0.833720	0.500026
N69	N	1.483140	0.111358	0.356151
N70	N	1.983140	0.611358	0.856151
N71	N	1.483170	0.111363	-0.356086
N72	N	1.983170	0.611363	0.143914
C73	C	1.568697	0.060375	0.428081
C74	C	2.068697	0.560375	0.928081
C75	C	1.568709	0.060375	0.571964
C76	C	2.068709	0.560375	1.071964
C77	C	1.397604	0.162348	0.571975
C78	C	1.897604	0.662348	1.071975
C79	C	1.397586	0.162344	0.428095
C80	C	1.897586	0.662344	0.928095
H81	H	0.836790	0.234411	0.000033
H82	H	1.336790	0.734411	0.500033
C83	C	1.303519	0.218467	0.348968
C84	C	1.803519	0.718467	0.848968
N85	N	1.232690	0.260749	0.289369
N86	N	1.732690	0.760749	0.789369
H87	H	1.486486	-0.261580	0.226088
H88	H	1.986486	0.238420	0.726088
C89	C	1.088782	0.258192	0.000026
C90	C	1.588782	0.758192	0.500026
N91	N	1.130453	0.316126	0.000034
N92	N	1.630453	0.816126	0.500034
H93	H	1.638376	0.018859	0.630525
H94	H	2.138376	0.518859	1.130525
H95	H	1.475975	-0.658952	0.226099
H96	H	1.975975	-0.158952	0.726099
C97	C	0.877503	-0.035474	0.000033
C98	C	1.377503	0.464526	0.500033
N99	N	0.835823	-0.093405	0.000043
N100	N	1.335823	0.406595	0.500043
H101	H	1.490267	-0.118333	0.226099
H102	H	1.990267	0.381667	0.726099
C103	C	1.662798	0.004283	0.348948
C104	C	2.162798	0.504283	0.848948
N105	N	1.733674	-0.037970	0.289349
N106	N	2.233674	0.462030	0.789349
C107	C	1.490632	-0.107042	-0.261645
C108	C	1.990632	0.392958	0.238355
N109	N	1.491499	-0.074336	-0.364893
N110	N	1.991499	0.425664	0.135107
H111	H	1.129520	-0.011683	0.000018
H112	H	1.629520	0.488317	0.500018
H113	H	1.486536	-0.261557	-0.226037
H114	H	1.986536	0.238443	0.273963
H115	H	1.327950	0.203861	0.630566
H116	H	1.827950	0.703861	1.130566
H117	H	1.476013	-0.658943	-0.226036
H118	H	1.976013	-0.158943	0.273964
C119	C	1.480103	-0.504414	-0.261642
C120	C	1.980103	-0.004414	0.238358
N121	N	1.480970	-0.471705	-0.364887
N122	N	1.980970	0.028295	0.135113
H123	H	1.479782	-0.515719	0.226102
H124	H	1.979782	-0.015719	0.726102
