data_functionalizedCrystal
_audit_creation_method	'MofGen! by Chris Wilmer'
_symmetry_space_group_name_H-M	'P1'
_symmetry_Int_Tables_number	1
_symmetry_cell_setting	triclinic
loop_
_symmetry_equiv_pos_as_xyz
  x,y,z
_cell_length_a	10.686220
_cell_length_b	16.120484
_cell_length_c	10.686551
_cell_angle_alpha	91.292191
_cell_angle_beta	89.691918
_cell_angle_gamma	97.070967
loop_
_atom_site_label
_atom_site_type_symbol
_atom_site_fract_x
_atom_site_fract_y
_atom_site_fract_z
Zn1	Zn	1.957921	-0.203137	0.579045
Zn2	Zn	2.457921	0.296863	1.079045
Zn3	Zn	1.931025	-0.353948	0.381655
Zn4	Zn	2.431025	0.146052	0.881655
Zn5	Zn	1.730532	-0.224452	0.387111
Zn6	Zn	2.230532	0.275548	0.887111
Zn7	Zn	1.737575	-0.352260	0.607294
Zn8	Zn	2.237575	0.147740	1.107294
O9	O	1.839263	-0.283449	0.488776
O10	O	2.339263	0.216551	0.988776
O11	O	2.130476	-0.214929	0.538756
O12	O	2.630476	0.285071	1.038756
O13	O	1.890226	-0.346397	0.207623
O14	O	2.390226	0.153603	0.707623
O15	O	1.769004	-0.105021	0.403033
O16	O	2.269004	0.394979	0.903033
O17	O	2.110716	-0.325729	0.393734
O18	O	2.610716	0.174271	0.893734
O19	O	1.936065	-0.089361	0.544046
O20	O	2.436065	0.410639	1.044046
O21	O	1.742924	-0.251257	0.211631
O22	O	2.242924	0.248743	0.711631
O23	O	1.555343	-0.249619	0.430424
O24	O	2.055343	0.250381	0.930424
O25	O	1.781008	-0.322851	0.778303
O26	O	2.281008	0.177149	1.278303
O27	O	1.560518	-0.343519	0.592192
O28	O	2.060518	0.156481	1.092192
O29	O	1.942895	-0.213292	0.757549
O30	O	2.442895	0.286708	1.257549
O31	O	1.897056	-0.470327	0.421125
O32	O	2.397056	0.029673	0.921125
O33	O	1.754928	-0.469087	0.586902
O34	O	2.254928	0.030913	1.086902
C35	C	1.512264	-0.298700	0.514966
C36	C	2.012264	0.201300	1.014966
C37	C	1.372373	-0.305242	0.526202
C38	C	1.872373	0.194758	1.026202
C39	C	1.823874	-0.499938	0.506511
C40	C	2.323874	0.000062	1.006511
C41	C	1.817409	-0.592545	0.514131
C42	C	2.317409	-0.092545	1.014131
C43	C	1.805615	-0.762098	0.528067
C44	C	2.305615	-0.262098	1.028067
C45	C	1.873138	-0.803948	0.449488
C46	C	2.373138	-0.303948	0.949488
C47	C	1.866576	-0.898293	0.457242
C48	C	2.366576	-0.398293	0.957242
C49	C	1.812176	-0.667744	0.520315
C50	C	2.312176	-0.167744	1.020315
C51	C	2.167539	-0.268140	0.462485
C52	C	2.667539	0.231860	0.962485
C53	C	2.307431	-0.261616	0.451281
C54	C	2.807431	0.238384	0.951281
C55	C	1.865737	-0.265505	0.814505
C56	C	2.365737	0.234495	1.314505
C57	C	1.877019	-0.257859	0.953311
C58	C	2.377019	0.242141	1.453311
C59	C	1.854749	-0.066112	0.470997
C60	C	2.354749	0.433888	0.970997
C61	C	1.861348	0.026504	0.463420
C62	C	2.361348	0.526504	0.963420
C63	C	1.812969	-0.301259	0.164304
C64	C	2.312969	0.198741	0.664304
C65	C	1.801948	-0.308660	0.025460
C66	C	2.301948	0.191340	0.525460
H67	H	1.358852	-0.219261	0.378542
H68	H	1.858852	0.280739	0.878542
H69	H	1.742882	-0.797121	0.601158
H70	H	2.242882	-0.297121	1.101158
C71	C	1.967942	-0.196298	1.143787
C72	C	2.467942	0.303702	1.643787
C73	C	1.975438	-0.191238	1.013274
C74	C	2.475438	0.308762	1.513274
H75	H	2.028695	-0.155165	1.180802
H76	H	2.528695	0.344835	1.680802
H77	H	1.984095	-0.250256	1.168202
H78	H	2.484095	0.249744	1.668202
H79	H	1.885953	-0.186890	1.170868
H80	H	2.385953	0.313110	1.670868
H81	H	2.057425	-0.200652	0.986192
H82	H	2.557425	0.299348	1.486192
H83	H	1.959294	-0.137268	0.988848
H84	H	2.459294	0.362732	1.488848
C85	C	1.390666	-0.401469	0.691454
C86	C	1.890666	0.098531	1.191454
C87	C	1.302962	-0.362428	0.624404
C88	C	1.802962	0.137572	1.124404
H89	H	1.347811	-0.436775	0.752073
H90	H	1.847811	0.063225	1.252073
H91	H	1.448404	-0.360205	0.732266
H92	H	1.948404	0.139795	1.232266
H93	H	1.435247	-0.433916	0.635491
H94	H	1.935247	0.066084	1.135491
H95	H	1.258386	-0.329976	0.680366
H96	H	1.758386	0.170024	1.180366
H97	H	1.245201	-0.403698	0.583590
H98	H	1.745201	0.096302	1.083590
C99	C	1.764689	-0.429548	0.889177
C100	C	2.264689	0.070452	1.389177
C101	C	1.703531	-0.375273	0.965495
C102	C	2.203531	0.124727	1.465495
H103	H	1.703928	-0.470668	0.852145
H104	H	2.203928	0.029332	1.352145
H105	H	1.821326	-0.456092	0.938287
H106	H	2.321326	0.043908	1.438287
H107	H	1.810273	-0.398690	0.825327
H108	H	2.310273	0.101310	1.325327
H109	H	1.657954	-0.406129	1.029351
H110	H	2.157954	0.093871	1.529351
H111	H	1.646872	-0.348726	0.916382
H112	H	2.146872	0.151274	1.416382
C113	C	1.948002	-0.671008	0.362107
C114	C	2.448002	-0.171008	0.862107
C115	C	1.957819	-0.756673	0.350793
C116	C	2.457819	-0.256673	0.850793
H117	H	2.000268	-0.641823	0.301171
H118	H	2.500268	-0.141823	0.801171
H119	H	1.974160	-0.651282	0.443396
H120	H	2.474160	-0.151282	0.943396
H121	H	1.862919	-0.661823	0.349407
H122	H	2.362919	-0.161823	0.849407
H123	H	2.042901	-0.765858	0.363503
H124	H	2.542901	-0.265858	0.863503
H125	H	1.931667	-0.776405	0.269485
H126	H	2.431667	-0.276405	0.769485
