data_functionalizedCrystal
_audit_creation_method	'MofGen! by Chris Wilmer'
_symmetry_space_group_name_H-M	'P1'
_symmetry_Int_Tables_number	1
_symmetry_cell_setting	triclinic
loop_
_symmetry_equiv_pos_as_xyz
  x,y,z
_cell_length_a	21.295417
_cell_length_b	21.295420
_cell_length_c	19.120904
_cell_angle_alpha	87.577302
_cell_angle_beta	87.591662
_cell_angle_gamma	90.028757
loop_
_atom_site_label
_atom_site_type_symbol
_atom_site_fract_x
_atom_site_fract_y
_atom_site_fract_z
Zn1	Zn	-0.265835	0.947123	0.397096
Zn2	Zn	-0.366613	0.951531	0.279640
Zn3	Zn	-0.261359	0.846351	0.279662
Zn4	Zn	-0.371065	0.841817	0.397048
O5	O	-0.316218	0.896705	0.338361
O6	O	-0.279213	1.035796	0.381526
O7	O	-0.348915	0.941320	0.181361
O8	O	-0.173865	0.859771	0.295269
O9	O	-0.353254	1.039035	0.295232
O10	O	-0.177153	0.933807	0.381547
O11	O	-0.271585	0.864045	0.181377
O12	O	-0.275902	0.757660	0.295222
O13	O	-0.360842	0.852044	0.495336
O14	O	-0.356503	0.754329	0.381465
O15	O	-0.283530	0.929411	0.495372
O16	O	-0.455292	0.936924	0.295185
O17	O	-0.458563	0.856318	0.381444
C18	C	-0.316200	0.733154	0.338341
C19	C	-0.316208	0.663186	0.338349
C20	C	-0.358259	0.162011	0.383224
C21	C	-0.358259	0.227754	0.383217
C22	C	-0.316233	0.262345	0.338383
C23	C	-0.274215	0.231189	0.293541
C24	C	-0.274221	0.165447	0.293545
N25	N	-0.260915	0.365788	0.333103
N26	N	-0.260911	0.428240	0.333104
C27	C	-0.316215	0.460420	0.338368
N28	N	-0.371524	0.427790	0.343646
N29	N	-0.371526	0.365333	0.343649
C30	C	-0.316223	0.333631	0.338374
C31	C	-0.358233	0.562855	0.383197
C32	C	-0.358234	0.628599	0.383184
C33	C	-0.274185	0.632033	0.293512
C34	C	-0.274189	0.566290	0.293520
C35	C	-0.316213	0.531705	0.338367
C36	C	-0.479768	0.896624	0.338322
C37	C	-0.549737	0.896646	0.338329
C38	C	-0.580881	0.938652	0.293460
C39	C	-0.646624	0.938681	0.293476
C40	C	-0.681220	0.896693	0.338354
C41	C	-0.650068	0.854684	0.383231
C42	C	-0.584326	0.854661	0.383219
N43	N	-0.784689	0.841421	0.343701
N44	N	-0.847140	0.841445	0.343708
C45	C	-0.879296	0.896762	0.338394
N46	N	-0.846641	0.952056	0.333058
N47	N	-0.784183	0.952031	0.333047
C48	C	-0.752506	0.896714	0.338372
C49	C	-0.981727	0.938802	0.293540
C50	C	-1.047471	0.938832	0.293560
C51	C	-1.050914	0.854830	0.383312
C52	C	-0.985171	0.854806	0.383295
C53	C	-0.950581	0.896791	0.338405
C54	C	-0.152030	0.896803	0.338416
C55	C	-0.082063	0.896845	0.338439
C56	C	-0.323182	0.889730	0.521550
C57	C	-0.326150	0.886758	0.599614
C58	C	-0.316236	1.060895	0.338382
C59	C	-0.316244	1.130862	0.338391
C60	C	-0.309236	0.903689	0.155885
C61	C	-0.306091	0.906784	0.077822
C62	C	-0.287293	0.925641	0.636308
C63	C	-0.290080	0.922840	0.709658
C64	C	-0.331725	0.881160	0.746311
C65	C	-0.370583	0.842273	0.709612
C66	C	-0.367794	0.845071	0.636264
C67	C	-0.342159	0.870694	0.967774
C68	C	-0.344947	0.867901	1.041128
C69	C	-0.264442	0.948468	1.041168
C70	C	-0.261659	0.951264	0.967818
C71	C	-0.300514	0.912375	0.931126
C72	C	-0.334576	0.878298	0.821286
C73	C	-0.297661	0.915235	0.856152
H74	H	-0.392452	0.653960	0.419691
Cl75	Cl	-0.245301	0.967625	0.810072
H76	H	-1.079081	0.820646	0.419855
Cl77	Cl	-0.416642	0.796185	0.590134
H78	H	-0.239998	0.259357	0.257036
Cl79	Cl	-0.391007	0.821805	0.921656
Cl80	Cl	-0.221396	0.126287	0.237179
H81	H	-0.404490	0.808333	0.739462
H82	H	-0.258440	0.954504	0.739531
H83	H	-0.392480	0.133856	0.419739
H84	H	-0.239968	0.660196	0.257005
Cl85	Cl	-0.411081	0.266921	0.439585
H86	H	-0.558968	0.820454	0.419758
H87	H	-0.392452	0.534695	0.419712
H88	H	-0.953563	0.972991	0.256990
H89	H	-0.232807	0.980128	1.071051
Cl90	Cl	-0.221362	0.527129	0.237160
H91	H	-0.671987	0.972889	0.256939
Cl92	Cl	-0.537400	0.991442	0.237038
H93	H	-0.368487	0.844364	0.851138
H94	H	-0.678240	0.820499	0.419772
H95	H	-1.072828	0.973042	0.257024
H96	H	-0.378862	0.833958	1.070969
Cl97	Cl	-0.946015	0.801993	0.439702
H98	H	-0.253383	0.959583	0.606470
Cl99	Cl	-0.209302	1.003665	0.921745
