data_functionalizedCrystal
_audit_creation_method	'MofGen! by Chris Wilmer'
_symmetry_space_group_name_H-M	'P1'
_symmetry_Int_Tables_number	1
_symmetry_cell_setting	triclinic
loop_
_symmetry_equiv_pos_as_xyz
  x,y,z
_cell_length_a	14.044220
_cell_length_b	14.044190
_cell_length_c	9.130307
_cell_angle_alpha	89.991681
_cell_angle_beta	90.003348
_cell_angle_gamma	93.190328
loop_
_atom_site_label
_atom_site_type_symbol
_atom_site_fract_x
_atom_site_fract_y
_atom_site_fract_z
O1	O	1.277170	0.230166	-0.121673
O2	O	1.777170	0.730166	0.378327
O3	O	1.000498	0.221861	-0.121709
O4	O	1.500498	0.721861	0.378291
O5	O	1.134678	0.087677	-0.121663
O6	O	1.634678	0.587677	0.378337
O7	O	1.142990	0.364350	-0.121720
O8	O	1.642990	0.864350	0.378280
O9	O	1.134673	0.087676	0.121936
O10	O	1.634673	0.587676	0.621936
O11	O	1.000493	0.221859	0.121890
O12	O	1.500493	0.721859	0.621890
O13	O	1.277165	0.230165	0.121926
O14	O	1.777165	0.730165	0.621926
Cu15	Cu	1.138829	0.226012	0.144150
Cu16	Cu	1.638829	0.726012	0.644150
Cu17	Cu	1.138834	0.226014	-0.143934
Cu18	Cu	1.638834	0.726014	0.356066
O19	O	1.142985	0.364348	0.121879
O20	O	1.642985	0.864348	0.621879
C21	C	0.964874	0.218224	0.000086
C22	C	1.464874	0.718224	0.500086
C23	C	0.858731	0.207380	0.000073
C24	C	1.358731	0.707380	0.500073
C25	C	1.131039	0.052054	0.000140
C26	C	1.631039	0.552054	0.500140
C27	C	1.120191	-0.054089	0.000152
C28	C	1.620191	0.445911	0.500152
C29	C	0.664392	0.187553	0.000106
C30	C	1.164392	0.687553	0.500106
C31	C	0.613264	0.264468	0.000097
C32	C	1.113264	0.764468	0.500097
C33	C	0.505128	0.253436	0.000115
C34	C	1.005128	0.753436	0.500115
C35	C	0.772539	0.198583	0.000088
C36	C	1.272539	0.698583	0.500088
C37	C	1.177292	-0.299547	0.000102
C38	C	1.677292	0.200453	0.500102
C39	C	1.100375	-0.248422	0.000102
C40	C	1.600375	0.251578	0.500102
C41	C	1.111404	-0.140285	0.000130
C42	C	1.611404	0.359715	0.500130
C43	C	1.166265	-0.407694	0.000074
C44	C	1.666265	0.092306	0.500074
C45	C	1.312789	0.233801	0.000127
C46	C	1.812789	0.733801	0.500127
C47	C	1.418932	0.244646	0.000130
C48	C	1.918932	0.744646	0.500130
C49	C	1.146624	0.399971	0.000073
C50	C	1.646624	0.899971	0.500073
C51	C	1.157472	0.506114	0.000052
C52	C	1.657472	1.006114	0.500052
N53	N	1.138831	0.226010	0.346773
N54	N	1.638831	0.726010	0.846773
N55	N	1.138838	0.226008	-0.346557
N56	N	1.638838	0.726008	0.153443
C57	C	1.257703	0.107233	0.346804
C58	C	1.757703	0.607233	0.846804
C59	C	1.317146	0.047847	0.423486
C60	C	1.817146	0.547847	0.923486
C61	C	1.317155	0.047847	0.576820
C62	C	1.817155	0.547847	1.076820
C63	C	1.257714	0.107237	0.653474
C64	C	1.757714	0.607237	1.153474
C65	C	1.198271	0.166623	0.576792
C66	C	1.698271	0.666623	1.076792
C67	C	1.198270	0.166618	0.423455
C68	C	1.698270	0.666618	0.923455
C69	C	1.079396	0.285394	0.576761
C70	C	1.579396	0.785394	1.076761
C71	C	1.079390	0.285400	0.423428
C72	C	1.579390	0.785400	0.923428
C73	C	1.019955	0.344784	0.653416
C74	C	1.519955	0.844784	1.153416
C75	C	0.960516	0.404176	0.576734
C76	C	1.460516	0.904176	1.076734
C77	C	0.960509	0.404174	0.423391
C78	C	1.460509	0.904174	0.923391
C79	C	1.019948	0.344786	0.346745
C80	C	1.519948	0.844786	0.846745
H81	H	0.650706	0.338602	0.000075
H82	H	1.150706	0.838602	0.500075
H83	H	1.026243	-0.285865	0.000084
H84	H	1.526243	0.214135	0.500084
O85	O	1.275487	-0.249961	0.000143
O86	O	1.775487	0.250039	0.500143
H87	H	1.268847	-0.171577	0.000175
H88	H	1.768847	0.328423	0.500175
H89	H	0.912118	0.452522	0.639155
H90	H	1.412118	0.952522	1.139155
O91	O	0.614810	0.089357	0.000126
O92	O	1.114810	0.589357	0.500126
H93	H	0.536425	0.095994	0.000123
H94	H	1.036425	0.595994	0.500123
O95	O	1.257692	0.107236	0.181423
O96	O	1.757692	0.607236	0.681423
H97	H	1.309004	0.055960	0.141003
H98	H	1.809004	0.555960	0.641003
H99	H	1.019960	0.344777	0.778268
H100	H	1.519960	0.844777	1.278268
H101	H	1.365541	-0.000510	0.361061
H102	H	1.865541	0.499490	0.861061
O103	O	1.381272	-0.016195	0.659542
O104	O	1.881272	0.483805	1.159542
H105	H	1.422610	-0.057487	0.580487
H106	H	1.922610	0.442513	1.080487
H107	H	1.257717	0.107225	0.778327
H108	H	1.757717	0.607225	1.278327
O109	O	0.896398	0.468229	0.340683
O110	O	1.396398	0.968229	0.840683
H111	H	0.855077	0.509526	0.419751
H112	H	1.355077	1.009526	0.919751
O113	O	1.019941	0.344773	0.181364
O114	O	1.519941	0.844773	0.681364
H115	H	1.041235	0.417391	0.140901
H116	H	1.541235	0.917391	0.640901
