data_functionalizedCrystal
_audit_creation_method	'MofGen! by Chris Wilmer'
_symmetry_space_group_name_H-M	'P1'
_symmetry_Int_Tables_number	1
_symmetry_cell_setting	triclinic
loop_
_symmetry_equiv_pos_as_xyz
  x,y,z
_cell_length_a	16.625548
_cell_length_b	15.297327
_cell_length_c	15.298431
_cell_angle_alpha	91.656067
_cell_angle_beta	80.342932
_cell_angle_gamma	99.707980
loop_
_atom_site_label
_atom_site_type_symbol
_atom_site_fract_x
_atom_site_fract_y
_atom_site_fract_z
Zn1	Zn	1.106092	-0.262950	0.555577
Zn2	Zn	1.098134	-0.434799	0.434440
Zn3	Zn	0.989969	-0.288341	0.409124
Zn4	Zn	0.944655	-0.409397	0.580858
O5	O	1.034712	-0.348872	0.495000
O6	O	1.217865	-0.285751	0.539523
O7	O	1.099420	-0.436627	0.308514
O8	O	1.027667	-0.162391	0.407377
O9	O	1.212019	-0.412007	0.450524
O10	O	1.112982	-0.143737	0.514975
O11	O	1.019951	-0.329025	0.289915
O12	O	0.871128	-0.304394	0.431891
O13	O	0.950436	-0.368714	0.700072
O14	O	0.837837	-0.393334	0.558062
O15	O	1.069043	-0.261120	0.681498
O16	O	1.055481	-0.554010	0.475037
O17	O	0.942720	-0.535348	0.582610
C18	C	0.993339	-0.576460	0.534333
C19	C	0.975710	-0.673818	0.551189
C20	C	0.825227	-0.348863	0.494973
C21	C	0.735602	-0.348877	0.494986
C22	C	1.161008	-0.986969	0.374826
C23	C	1.177572	-0.895497	0.358984
C24	C	1.127108	-0.840073	0.407034
C25	C	1.060077	-0.876130	0.470928
C26	C	1.043507	-0.967611	0.486766
C27	C	1.009607	-0.820715	0.518975
C28	C	0.942576	-0.856772	0.582869
C29	C	0.926010	-0.948245	0.598705
C30	C	0.976474	-1.003669	0.550655
C31	C	1.026177	-0.729233	0.503136
C32	C	0.908676	-0.709876	0.615077
C33	C	0.892112	-0.801348	0.630919
C34	C	0.407420	-0.348877	0.495025
C35	C	0.498731	-0.348875	0.495011
C36	C	0.571508	-0.348878	0.495005
C37	C	0.662825	-0.348875	0.494992
C38	C	1.245016	-0.348881	0.495027
C39	C	1.334634	-0.348884	0.495039
C40	C	1.005572	-0.309251	0.723454
C41	C	0.993155	-0.292368	0.820807
C42	C	1.076267	-0.120391	0.455532
C43	C	1.093975	-0.023027	0.438714
C44	C	1.063797	-0.388275	0.267424
C45	C	1.076416	-0.404912	0.170028
C46	C	0.945945	-0.228410	0.856853
C47	C	0.934267	-0.212548	0.948322
C48	C	0.969803	-0.260637	1.003753
C49	C	1.017019	-0.324592	0.967706
C50	C	1.028693	-0.340460	0.876230
C51	C	1.052551	-0.372687	1.023129
C52	C	1.099767	-0.436642	0.987083
C53	C	1.111439	-0.452507	0.895614
C54	C	1.075903	-0.404418	0.840184
C55	C	1.040878	-0.356819	1.114606
C56	C	1.123626	-0.468869	1.133982
C57	C	1.135303	-0.484731	1.042513
H58	H	1.080754	-0.699885	0.451113
N59	N	1.212555	-1.043577	0.325751
N60	N	1.288066	-1.032281	0.329844
H61	H	1.324474	-1.072260	0.295178
N62	N	0.857135	-0.653270	0.664181
N63	N	0.850275	-0.649436	0.746769
H64	H	0.813876	-0.609454	0.781447
H65	H	0.917010	-0.189268	0.811715
N66	N	1.246027	-0.858686	0.293704
N67	N	1.249173	-0.882974	0.214660
H68	H	1.297522	-0.856981	0.168548
H69	H	1.173747	-0.536804	1.013151
N70	N	0.823630	-0.838172	0.696173
N71	N	0.778573	-0.788687	0.739068
H72	H	0.730206	-0.814693	0.785154
N73	N	0.886062	-0.147212	0.985152
N74	N	0.875651	-0.133046	1.066823
H75	H	0.841608	-0.086895	1.092835
H76	H	1.002435	-0.304745	1.143945
N77	N	0.957866	-0.244427	1.097184
N78	N	0.915709	-0.187324	1.129357
H79	H	0.907278	-0.175870	1.195346
H80	H	1.085411	-0.417326	0.765701
H81	H	1.149873	-0.504595	0.866271
H82	H	1.152565	-0.508025	1.179114
N83	N	1.144054	-0.746637	0.390852
N84	N	1.212009	-0.702574	0.402136
H85	H	1.223987	-0.636582	0.390706
N86	N	0.959573	-1.097108	0.566837
N87	N	1.004646	-1.146577	0.523938
H88	H	0.992715	-1.212570	0.535366
H89	H	0.871421	-0.977601	0.650721
