data_functionalizedCrystal
_audit_creation_method	'MofGen! by Chris Wilmer'
_symmetry_space_group_name_H-M	'P1'
_symmetry_Int_Tables_number	1
_symmetry_cell_setting	triclinic
loop_
_symmetry_equiv_pos_as_xyz
  x,y,z
_cell_length_a	10.540539
_cell_length_b	8.140239
_cell_length_c	9.065218
_cell_angle_alpha	90.003526
_cell_angle_beta	84.770688
_cell_angle_gamma	89.998336
loop_
_atom_site_label
_atom_site_type_symbol
_atom_site_fract_x
_atom_site_fract_y
_atom_site_fract_z
O1	O	1.686648	0.136529	0.207934
O2	O	2.186648	0.636529	0.707934
O3	O	1.317308	0.136548	0.227526
O4	O	1.817308	0.636548	0.727526
O5	O	1.509612	0.136535	0.003050
O6	O	2.009612	0.636535	0.503050
O7	O	1.494344	0.136542	0.432411
O8	O	1.994344	0.636542	0.932411
O9	O	1.509611	-0.136692	0.003038
O10	O	2.009611	0.363308	0.503038
O11	O	1.317306	-0.136679	0.227514
O12	O	1.817306	0.363321	0.727514
O13	O	1.686647	-0.136698	0.207923
O14	O	2.186647	0.363302	0.707923
Zn15	Zn	1.501976	-0.180069	0.217717
Zn16	Zn	2.001976	0.319931	0.717717
Zn17	Zn	1.501978	0.179919	0.217732
Zn18	Zn	2.001978	0.679919	0.717732
O19	O	1.494342	-0.136685	0.432399
O20	O	1.994342	0.363315	0.932399
C21	C	1.269999	-0.000063	0.226051
C22	C	1.769999	0.499937	0.726051
C23	C	1.129034	-0.000055	0.221655
C24	C	1.629034	0.499945	0.721655
C25	C	1.508144	-0.000076	-0.051936
C26	C	2.008144	0.499924	0.448064
C27	C	1.503757	-0.000068	-0.215757
C28	C	2.003757	0.499932	0.284243
N29	N	1.501980	0.425602	0.217731
N30	N	2.001980	0.925602	0.717731
C31	C	0.944985	-0.000696	0.053221
C32	C	1.444985	0.499304	0.553221
C33	C	1.091619	-0.000063	0.057677
C34	C	1.591619	0.499937	0.557677
C35	C	1.067654	0.155966	0.300575
C36	C	1.567654	0.655966	0.800575
C37	C	0.921089	0.156080	0.294979
C38	C	1.421089	0.656080	0.794979
C39	C	0.920611	-0.154630	0.298301
C40	C	1.420611	0.345370	0.798301
C41	C	1.067599	-0.156675	0.299812
C42	C	1.567599	0.343325	0.799812
C43	C	1.733956	-0.000084	0.209398
C44	C	2.233956	0.499916	0.709398
C45	C	1.874920	-0.000081	0.213794
C46	C	2.374920	0.499919	0.713794
N47	N	1.501984	-0.425752	0.217706
N48	N	2.001984	0.074248	0.717706
C49	C	1.495811	-0.000070	0.487384
C50	C	1.995811	0.499930	0.987384
C51	C	1.500198	-0.000068	0.651205
C52	C	2.000198	0.499932	1.151205
H53	H	1.134003	-0.111906	-0.004420
H54	H	1.634003	0.388094	0.495580
Cl55	Cl	1.102889	0.164975	0.486483
Cl56	Cl	1.602889	0.664975	0.986483
H57	H	0.916159	-0.112588	-0.011565
H58	H	1.416159	0.387412	0.488435
Cl59	Cl	0.897975	0.171080	-0.046377
Cl60	Cl	1.397975	0.671080	0.453623
H61	H	1.133134	0.111971	-0.004848
H62	H	1.633134	0.611971	0.495152
H63	H	0.892664	0.272706	0.236659
H64	H	1.392664	0.772706	0.736659
H65	H	0.873556	0.163164	0.412909
H66	H	1.373556	0.663164	0.912909
H67	H	0.888868	-0.272893	0.245229
H68	H	1.388868	0.227107	0.745229
H69	H	0.873822	-0.155682	0.416742
H70	H	1.373822	0.344318	0.916742
H71	H	1.110041	0.272079	0.245762
H72	H	1.610041	0.772079	0.745762
H73	H	1.108347	-0.272100	0.242158
H74	H	1.608347	0.227900	0.742158
H75	H	1.092267	-0.166094	0.419362
H76	H	1.592267	0.333906	0.919362
