data_functionalizedCrystal
_audit_creation_method	'MofGen! by Chris Wilmer'
_symmetry_space_group_name_H-M	'P1'
_symmetry_Int_Tables_number	1
_symmetry_cell_setting	triclinic
loop_
_symmetry_equiv_pos_as_xyz
  x,y,z
_cell_length_a	10.654550
_cell_length_b	16.109301
_cell_length_c	9.730223
_cell_angle_alpha	89.997247
_cell_angle_beta	89.996251
_cell_angle_gamma	83.973192
loop_
_atom_site_label
_atom_site_type_symbol
_atom_site_fract_x
_atom_site_fract_y
_atom_site_fract_z
O1	O	1.666250	0.116770	-0.114408
O2	O	1.300620	0.127896	-0.114386
O3	O	1.493479	0.001362	-0.114384
O4	O	1.473391	0.243304	-0.114410
O5	O	1.493477	0.001365	0.114196
O6	O	1.300618	0.127899	0.114194
O7	O	1.666248	0.116773	0.114172
Zn8	Zn	1.483433	0.122337	0.150475
Zn9	Zn	1.483436	0.122332	-0.150689
O10	O	1.473389	0.243307	0.114170
C11	C	1.253832	0.127080	-0.000093
C12	C	1.114422	0.124636	-0.000085
C13	C	1.033926	0.199138	-0.000113
C14	C	0.902936	0.196836	-0.000136
C15	C	0.932952	0.045526	-0.000109
C16	C	1.063939	0.047828	-0.000076
C17	C	1.016595	0.286496	-0.000135
C18	C	0.885606	0.284194	-0.000158
C19	C	1.492665	-0.029616	-0.000093
C20	C	1.490225	-0.121926	-0.000091
C21	C	1.598991	-0.343552	-0.000119
C22	C	1.596689	-0.430286	-0.000130
C23	C	1.367868	-0.411772	-0.000111
C24	C	1.370172	-0.325040	-0.000110
C25	C	1.485737	-0.290932	-0.000107
C26	C	1.481131	-0.464399	-0.000119
C27	C	1.478634	-0.558440	-0.000131
C28	C	1.488234	-0.196885	-0.000097
C29	C	1.713036	0.117589	-0.000124
C30	C	1.852446	0.120033	-0.000141
C31	C	1.474204	0.274286	-0.000124
C32	C	1.476643	0.366595	-0.000135
N33	N	1.483440	0.122339	0.356011
N34	N	1.483438	0.122324	-0.356225
C35	C	1.568859	0.066329	0.427939
C36	C	1.568856	0.066319	0.571822
C37	C	1.398010	0.178336	0.571837
C38	C	1.398008	0.178342	0.427957
C39	C	1.667500	0.001659	0.427931
C40	C	1.667497	0.001649	0.571814
H41	H	1.693091	-0.315785	-0.000119
H42	H	1.051874	0.314310	-0.098825
H43	H	1.763815	0.015894	0.610857
H44	H	1.273779	-0.439553	-0.000111
O45	O	1.775829	0.025975	0.374628
C46	C	1.869975	0.125255	0.232741
C47	C	1.747209	0.097799	0.293025
H48	H	1.846875	0.183317	0.166729
H49	H	1.935598	0.139938	0.319950
H50	H	1.918336	0.072788	0.166836
H51	H	1.698741	0.150231	0.358914
H52	H	1.681675	0.083089	0.205751
O53	O	1.141955	-0.024620	-0.000092
C54	C	1.157899	-0.174942	0.000047
C55	C	1.069402	-0.092954	0.000029
H56	H	1.099275	-0.230211	0.000175
H57	H	1.219982	-0.177717	-0.095616
H58	H	1.219968	-0.177589	0.095705
H59	H	1.007254	-0.090252	-0.095564
H60	H	1.007405	-0.090213	0.095756
O61	O	1.260066	-0.274004	-0.000280
C62	C	1.065236	-0.231599	-0.118730
C63	C	1.189861	-0.289457	-0.118684
H64	H	1.008452	-0.244059	-0.214464
H65	H	1.008276	-0.244096	-0.023130
H66	H	1.086766	-0.163757	-0.118667
H67	H	1.168445	-0.357318	-0.118795
H68	H	1.246785	-0.276887	-0.214276
H69	H	1.688912	-0.473126	-0.000143
O70	O	1.632145	-0.070469	0.624836
C71	C	1.565553	-0.205930	0.577082
C72	C	1.605575	-0.124306	0.516849
H73	H	1.544035	-0.249473	0.489804
H74	H	1.645284	-0.237447	0.642953
H75	H	1.477619	-0.191270	0.643097
H76	H	1.693480	-0.138895	0.450771
H77	H	1.525770	-0.092812	0.451056
H78	H	1.328442	0.223942	0.369395
H79	H	0.891833	-0.017009	-0.000123
H80	H	1.328452	0.223932	0.630431
H81	H	1.646924	-0.062244	0.388885
H82	H	1.045462	0.320662	0.095527
O83	O	0.830875	0.315751	0.117621
C84	C	0.862235	0.377293	0.339051
C85	C	0.924378	0.341600	0.205727
H86	H	0.937806	0.398185	0.410333
H87	H	0.790998	0.432965	0.313414
H88	H	0.811893	0.327092	0.392149
H89	H	0.974788	0.391741	0.152563
H90	H	0.995547	0.285909	0.231453
H91	H	0.843427	0.317108	-0.095829
