data_functionalizedCrystal
_audit_creation_method	'MofGen! by Chris Wilmer'
_symmetry_space_group_name_H-M	'P1'
_symmetry_Int_Tables_number	1
_symmetry_cell_setting	triclinic
loop_
_symmetry_equiv_pos_as_xyz
  x,y,z
_cell_length_a	10.654550
_cell_length_b	14.519709
_cell_length_c	9.730223
_cell_angle_alpha	89.994652
_cell_angle_beta	89.999957
_cell_angle_gamma	84.082538
loop_
_atom_site_label
_atom_site_type_symbol
_atom_site_fract_x
_atom_site_fract_y
_atom_site_fract_z
O1	O	1.666594	0.129532	-0.114191
O2	O	1.300996	0.141873	-0.114216
O3	O	1.493488	0.001514	-0.114190
O4	O	1.474102	0.269891	-0.114216
O5	O	1.493476	0.001511	0.114390
O6	O	1.300984	0.141869	0.114364
O7	O	1.666581	0.129528	0.114389
Zn8	Zn	1.483781	0.135698	0.150669
Zn9	Zn	1.483797	0.135703	-0.150495
O10	O	1.474089	0.269887	0.114363
C11	C	1.254201	0.140965	0.000071
C12	C	1.114784	0.138254	0.000061
C13	C	1.034504	0.220895	0.000057
C14	C	0.903507	0.218342	0.000081
C15	C	0.933084	0.050500	0.000108
C16	C	1.064078	0.053054	0.000094
C17	C	1.492579	-0.032852	0.000100
C18	C	1.489871	-0.135247	0.000100
C19	C	1.479904	-0.510195	0.000064
C20	C	1.482672	-0.405872	0.000075
C21	C	1.484887	-0.322724	0.000083
C22	C	1.487656	-0.218395	0.000091
C23	C	1.713377	0.130436	0.000099
C24	C	1.852794	0.133147	0.000100
C25	C	1.474999	0.304253	0.000070
C26	C	1.477706	0.406649	0.000061
N27	N	1.483779	0.135694	0.356205
N28	N	1.483809	0.135700	-0.356032
C29	C	1.569043	0.073570	0.428142
C30	C	1.569056	0.073570	0.572025
C31	C	1.398535	0.197827	0.572021
C32	C	1.398518	0.197822	0.428140
H33	H	1.129446	-0.014247	0.000101
H34	H	1.329120	0.248412	0.630605
C35	C	1.305884	0.265379	0.350274
C36	C	1.231250	0.319811	0.444064
C37	C	1.145915	0.382057	0.372384
H38	H	1.253415	0.231948	0.294159
H39	H	1.351103	0.304127	0.294158
H40	H	1.186034	0.281068	0.500157
H41	H	1.283684	0.353263	0.500183
H42	H	1.191134	0.420805	0.316268
H43	H	1.093455	0.348617	0.316271
H44	H	1.095273	0.419002	0.436009
H45	H	1.638466	0.022980	0.369576
H46	H	1.075783	0.290270	0.000041
H47	H	0.838147	0.285637	0.000081
H48	H	0.891783	-0.018867	0.000143
C49	C	1.661773	0.006082	0.649880
C50	C	1.736452	-0.048309	0.556081
C51	C	1.821890	-0.110485	0.627749
H52	H	1.616674	-0.032707	0.706026
H53	H	1.714192	0.039595	0.705965
H54	H	1.684039	-0.081820	0.500019
H55	H	1.781579	-0.009546	0.499932
H56	H	1.874309	-0.076971	0.683834
H57	H	1.776780	-0.149267	0.683892
H58	H	1.872577	-0.147390	0.564117
