data_functionalizedCrystal
_audit_creation_method	'MofGen! by Chris Wilmer'
_symmetry_space_group_name_H-M	'P1'
_symmetry_Int_Tables_number	1
_symmetry_cell_setting	triclinic
loop_
_symmetry_equiv_pos_as_xyz
  x,y,z
_cell_length_a	10.686285
_cell_length_b	17.077404
_cell_length_c	17.077396
_cell_angle_alpha	90.018362
_cell_angle_beta	94.391882
_cell_angle_gamma	85.629649
loop_
_atom_site_label
_atom_site_type_symbol
_atom_site_fract_x
_atom_site_fract_y
_atom_site_fract_z
Zn1	Zn	-0.502416	1.224118	0.419907
Zn2	Zn	-0.713437	1.234132	0.278597
Zn3	Zn	-0.502452	1.092852	0.288655
Zn4	Zn	-0.713354	1.102921	0.409827
O5	O	-0.607915	1.163506	0.349247
O6	O	-0.530428	1.335294	0.401170
O7	O	-0.685499	1.215368	0.170082
O8	O	-0.325872	1.101860	0.314494
O9	O	-0.685464	1.342652	0.297351
O10	O	-0.325845	1.198300	0.410923
O11	O	-0.530490	1.111570	0.177472
O12	O	-0.530409	0.984340	0.304720
O13	O	-0.685323	1.119021	0.521014
O14	O	-0.685358	0.991737	0.393745
O15	O	-0.530348	1.208064	0.528419
O16	O	-0.890002	1.225132	0.287578
O17	O	-0.889941	1.128731	0.383992
C18	C	-0.607879	0.959556	0.349231
C19	C	-0.607894	0.872307	0.349241
C20	C	-0.527311	0.827494	0.403370
C21	C	-0.527319	0.745514	0.403373
C22	C	-0.607918	0.708349	0.349251
C23	C	-0.688505	0.753168	0.295116
C24	C	-0.688490	0.835146	0.295110
C25	C	-0.688534	0.582300	0.295134
C26	C	-0.688551	0.500316	0.295141
C27	C	-0.527363	0.492667	0.403397
C28	C	-0.527347	0.574645	0.403391
C29	C	-0.607937	0.619459	0.349258
C30	C	-0.935755	1.179132	0.333617
C31	C	-1.076007	1.185889	0.326956
C32	C	-0.278794	1.147840	0.364955
C33	C	-0.138543	1.141164	0.371649
C34	C	-0.607822	1.163549	0.553995
C35	C	-0.607782	1.163567	0.641247
C36	C	-0.607952	1.368252	0.349263
C37	C	-0.607967	1.455502	0.349270
C38	C	-0.607916	1.163504	0.145299
C39	C	-0.607601	1.163620	0.058064
C40	C	-0.527080	1.209933	0.686095
C41	C	-0.527038	1.209941	0.768077
C42	C	-0.607706	1.163586	0.805210
C43	C	-0.688411	1.117214	0.760357
C44	C	-0.688446	1.117203	0.678376
C45	C	-0.688335	1.117242	0.931231
C46	C	-0.688303	1.117254	1.013217
C47	C	-0.526928	1.209980	1.020932
C48	C	-0.526962	1.209969	0.938951
C49	C	-0.607670	1.163598	0.894103
H50	H	-0.461681	0.857747	0.447444
H51	H	-0.753986	1.079506	1.043448
C52	C	-0.776124	1.066891	0.882670
C53	C	-0.846801	1.026322	0.932733
C54	C	-0.927709	0.979952	0.888026
H55	H	-0.728030	1.030319	0.852969
H56	H	-0.831180	1.099534	0.848093
H57	H	-0.791752	0.993682	0.967297
H58	H	-0.894921	1.062875	0.962435
H59	H	-0.982765	1.012595	0.853448
H60	H	-0.879605	0.943385	0.858326
H61	H	-0.975681	0.952426	0.921986
C62	C	-1.147909	1.243848	0.269234
C63	C	-1.277391	1.239287	0.273910
C64	C	-1.343665	1.292686	0.220770
H65	H	-1.126612	1.231456	0.217441
H66	H	-1.126345	1.295564	0.281819
H67	H	-1.298946	1.187583	0.261320
H68	H	-1.298726	1.251688	0.325691
H69	H	-1.322101	1.344402	0.233355
H70	H	-1.322357	1.280289	0.168980
H71	H	-1.431525	1.289604	0.223941
H72	H	-0.754124	0.722902	0.251045
H73	H	-0.461395	1.247684	0.655867
H74	H	-0.754108	0.871633	0.251033
H75	H	-0.461702	0.709030	0.447451
H76	H	-0.461724	0.604902	0.447466
H77	H	-0.461325	1.247699	0.804589
C78	C	-0.776288	1.066981	0.629706
C79	C	-0.901129	1.090040	0.643675
C80	C	-0.982086	1.043801	0.598845
H81	H	-0.757986	1.013339	0.643967
H82	H	-0.764837	1.073628	0.575554
H83	H	-0.912574	1.083386	0.697815
H84	H	-0.919471	1.143675	0.629410
H85	H	-0.970634	1.050448	0.544692
H86	H	-0.963772	0.990161	0.613109
H87	H	-1.066799	1.059444	0.608310
C88	C	-0.776105	0.631062	0.236487
C89	C	-0.857037	0.682022	0.276993
C90	C	-0.937715	0.726962	0.222999
H91	H	-0.824236	0.597286	0.204231
H92	H	-0.727797	0.660768	0.204647
H93	H	-0.905340	0.652318	0.308820
H94	H	-0.808941	0.715814	0.309245
H95	H	-0.889407	0.756668	0.191158
H96	H	-0.985837	0.693180	0.190746
H97	H	-0.992629	0.761549	0.250474
H98	H	-1.084787	1.097704	0.415009
H99	H	-0.461283	1.247720	0.908720
H100	H	-0.461210	1.247735	1.057451
H101	H	-0.461742	0.456175	0.447474
H102	H	-0.754183	0.470059	0.251071
H103	H	-0.754087	1.079468	0.790597
