data_functionalizedCrystal
_audit_creation_method	'MofGen! by Chris Wilmer'
_symmetry_space_group_name_H-M	'P1'
_symmetry_Int_Tables_number	1
_symmetry_cell_setting	triclinic
loop_
_symmetry_equiv_pos_as_xyz
  x,y,z
_cell_length_a	19.077105
_cell_length_b	21.295411
_cell_length_c	21.295417
_cell_angle_alpha	89.979403
_cell_angle_beta	87.725910
_cell_angle_gamma	87.678773
loop_
_atom_site_label
_atom_site_type_symbol
_atom_site_fract_x
_atom_site_fract_y
_atom_site_fract_z
Zn1	Zn	1.075994	-0.394530	-0.289414
Zn2	Zn	1.325994	-0.144530	-0.039414
Zn3	Zn	1.575994	0.105470	0.210586
Zn4	Zn	1.825994	0.355470	0.460586
Zn5	Zn	1.075886	-0.289253	-0.394662
Zn6	Zn	1.325886	-0.039253	-0.144662
Zn7	Zn	1.575886	0.210747	0.105338
Zn8	Zn	1.825886	0.460747	0.355338
Zn9	Zn	0.958286	-0.285051	-0.285177
Zn10	Zn	1.208286	-0.035051	-0.035177
Zn11	Zn	1.458286	0.214949	0.214823
Zn12	Zn	1.708286	0.464949	0.464823
Zn13	Zn	0.958253	-0.390263	-0.390411
Zn14	Zn	1.208253	-0.140263	-0.140411
Zn15	Zn	1.458253	0.109737	0.109589
Zn16	Zn	1.708253	0.359737	0.359589
O17	O	1.017105	-0.339774	-0.339916
O18	O	1.267105	-0.089774	-0.089916
O19	O	1.517105	0.160226	0.160084
O20	O	1.767105	0.410226	0.410084
O21	O	1.174470	-0.384109	-0.306927
O22	O	1.424470	-0.134109	-0.056927
O23	O	1.674470	0.115891	0.193073
O24	O	1.924470	0.365891	0.443073
O25	O	1.060255	-0.200605	-0.380144
O26	O	1.310255	0.049395	-0.130144
O27	O	1.560255	0.299395	0.119856
O28	O	1.810255	0.549395	0.369856
O29	O	0.973959	-0.299600	-0.197652
O30	O	1.223959	-0.049600	0.052348
O31	O	1.473959	0.200400	0.302348
O32	O	1.723959	0.450400	0.552348
O33	O	1.174391	-0.306763	-0.384253
O34	O	1.424391	-0.056763	-0.134253
O35	O	1.674391	0.193237	0.115747
O36	O	1.924391	0.443237	0.365747
O37	O	1.060438	-0.380034	-0.200764
O38	O	1.310438	-0.130034	0.049236
O39	O	1.560438	0.119966	0.299236
O40	O	1.810438	0.369966	0.549236
O41	O	0.973854	-0.197518	-0.299706
O42	O	1.223854	0.052482	-0.049706
O43	O	1.473854	0.302482	0.200294
O44	O	1.723854	0.552482	0.450294
O45	O	0.859791	-0.295463	-0.295584
O46	O	1.109791	-0.045463	-0.045584
O47	O	1.359791	0.204537	0.204416
O48	O	1.609791	0.454537	0.454416
O49	O	0.973903	-0.478920	-0.377007
O50	O	1.223903	-0.228920	-0.127007
O51	O	1.473903	0.021080	0.122993
O52	O	1.723903	0.271080	0.372993
O53	O	0.859767	-0.372763	-0.372899
O54	O	1.109767	-0.122763	-0.122899
O55	O	1.359767	0.127237	0.127101
O56	O	1.609767	0.377237	0.377101
O57	O	1.060406	-0.482054	-0.302805
O58	O	1.310406	-0.232054	-0.052805
O59	O	1.560406	0.017946	0.197195
O60	O	1.810406	0.267946	0.447195
O61	O	1.060223	-0.302626	-0.482185
O62	O	1.310223	-0.052626	-0.232185
O63	O	1.560223	0.197374	0.017815
O64	O	1.810223	0.447374	0.267815
O65	O	0.973799	-0.376838	-0.479062
O66	O	1.223799	-0.126838	-0.229062
O67	O	1.473799	0.123162	0.020938
O68	O	1.723799	0.373162	0.270938
C69	C	0.834241	-0.333194	-0.333321
C70	C	1.084241	-0.083194	-0.083321
C71	C	1.334241	0.166806	0.166679
C72	C	1.584241	0.416806	0.416679
C73	C	0.756011	-0.330394	-0.330515
C74	C	1.006011	-0.080394	-0.080515
C75	C	1.256011	0.169606	0.169485
C76	C	1.506011	0.419606	0.419485
C77	C	0.719264	-0.369261	-0.369511
C78	C	0.969264	-0.119261	-0.119511
C79	C	1.219264	0.130739	0.130489
C80	C	1.469264	0.380739	0.380489
C81	C	0.645759	-0.366633	-0.366866
C82	C	0.895759	-0.116633	-0.116866
C83	C	1.145759	0.133367	0.133134
C84	C	1.395759	0.383367	0.383134
C85	C	0.609002	-0.325135	-0.325228
C86	C	0.859002	-0.075135	-0.075228
C87	C	1.109002	0.174865	0.174772
C88	C	1.359002	0.424865	0.424772
C89	C	0.645754	-0.286266	-0.286228
C90	C	0.895754	-0.036266	-0.036228
C91	C	1.145754	0.213734	0.213772
C92	C	1.395754	0.463734	0.463772
C93	C	0.719258	-0.288898	-0.288870
C94	C	0.969258	-0.038898	-0.038870
C95	C	1.219258	0.211102	0.211130
C96	C	1.469258	0.461102	0.461130
C97	C	0.389168	-0.312959	-0.313000
C98	C	0.639168	-0.062959	-0.063000
C99	C	0.889168	0.187041	0.187000
C100	C	1.139168	0.437041	0.437000
C101	C	0.315659	-0.310329	-0.310362
C102	C	0.565659	-0.060329	-0.060362
C103	C	0.815659	0.189671	0.189638
C104	C	1.065659	0.439671	0.439638
C105	C	0.315669	-0.390697	-0.391000
C106	C	0.565669	-0.140697	-0.141000
C107	C	0.815669	0.109303	0.109000
C108	C	1.065669	0.359303	0.359000
C109	C	0.389175	-0.393322	-0.393641
C110	C	0.639175	-0.143322	-0.143641
C111	C	0.889175	0.106678	0.106359
C112	C	1.139175	0.356678	0.356359
C113	C	0.425920	-0.354456	-0.354639
C114	C	0.675920	-0.104456	-0.104639
C115	C	0.925920	0.145544	0.145361
C116	C	1.175920	0.395544	0.395361
N117	N	0.533868	-0.322446	-0.322525
N118	N	0.783868	-0.072446	-0.072525
N119	N	1.033868	0.177554	0.177475
N120	N	1.283868	0.427554	0.427475
N121	N	0.501053	-0.357148	-0.357339
N122	N	0.751053	-0.107148	-0.107339
N123	N	1.001053	0.142852	0.142661
N124	N	1.251053	0.392852	0.392661
C125	C	1.017163	-0.503967	-0.339905
C126	C	1.267163	-0.253967	-0.089905
C127	C	1.517163	-0.003967	0.160095
C128	C	1.767163	0.246033	0.410095
C129	C	1.017188	-0.573936	-0.339900
C130	C	1.267188	-0.323936	-0.089900
C131	C	1.517188	-0.073936	0.160100
C132	C	1.767188	0.176064	0.410100
C133	C	1.062228	-0.608435	-0.301261
C134	C	1.312228	-0.358435	-0.051261
C135	C	1.562228	-0.108435	0.198739
C136	C	1.812228	0.141565	0.448739
C137	C	1.062227	-0.674178	-0.301234
C138	C	1.312227	-0.424178	-0.051234
C139	C	1.562227	-0.174178	0.198766
C140	C	1.812227	0.075822	0.448766
C141	C	1.017193	-0.705419	-0.339857
C142	C	1.267193	-0.455419	-0.089857
C143	C	1.517193	-0.205419	0.160143
C144	C	1.767193	0.044581	0.410143
C145	C	0.972144	-0.670911	-0.378498
C146	C	1.222144	-0.420911	-0.128498
C147	C	1.472144	-0.170911	0.121502
C148	C	1.722144	0.079089	0.371502
C149	C	0.972142	-0.605169	-0.378520
C150	C	1.222142	-0.355169	-0.128520
C151	C	1.472142	-0.105169	0.121480
C152	C	1.722142	0.144831	0.371480
N153	N	1.011764	-0.808440	-0.394729
N154	N	1.261764	-0.558440	-0.144729
N155	N	1.511764	-0.308440	0.105271
N156	N	1.761764	-0.058440	0.355271
N157	N	1.011771	-0.870892	-0.394707
N158	N	1.261771	-0.620892	-0.144707
N159	N	1.511771	-0.370892	0.105293
N160	N	1.761771	-0.120892	0.355293
C161	C	1.017198	-0.903493	-0.339793
C162	C	1.267198	-0.653493	-0.089793
C163	C	1.517198	-0.403493	0.160207
C164	C	1.767198	-0.153493	0.410207
N165	N	1.022632	-0.871285	-0.284901
N166	N	1.272632	-0.621285	-0.034901
N167	N	1.522632	-0.371285	0.215099
N168	N	1.772632	-0.121285	0.465099
N169	N	1.022629	-0.808827	-0.284924
N170	N	1.272629	-0.558827	-0.034924
N171	N	1.522629	-0.308827	0.215076
N172	N	1.772629	-0.058827	0.465076
C173	C	1.017191	-0.776704	-0.339837
C174	C	1.267191	-0.526704	-0.089837
C175	C	1.517191	-0.276704	0.160163
C176	C	1.767191	-0.026704	0.410163
C177	C	1.062240	-1.009279	-0.301121
C178	C	1.312240	-0.759279	-0.051121
C179	C	1.562240	-0.509279	0.198879
C180	C	1.812240	-0.259279	0.448879
C181	C	1.062234	-1.075022	-0.301093
C182	C	1.312234	-0.825022	-0.051093
C183	C	1.562234	-0.575022	0.198907
C184	C	1.812234	-0.325022	0.448907
C185	C	0.972154	-1.071754	-0.378363
C186	C	1.222154	-0.821754	-0.128363
C187	C	1.472154	-0.571754	0.121637
C188	C	1.722154	-0.321754	0.371637
C189	C	0.972157	-1.006011	-0.378386
C190	C	1.222157	-0.756011	-0.128386
C191	C	1.472157	-0.506011	0.121614
C192	C	1.722157	-0.256011	0.371614
C193	C	1.017203	-0.974778	-0.339766
C194	C	1.267203	-0.724778	-0.089766
C195	C	1.517203	-0.474778	0.160234
C196	C	1.767203	-0.224778	0.410234
C197	C	1.200682	-0.346380	-0.346537
C198	C	1.450682	-0.096380	-0.096537
C199	C	1.700682	0.153620	0.153463
C200	C	1.950682	0.403620	0.403463
C201	C	1.278912	-0.349196	-0.349358
C202	C	1.528912	-0.099196	-0.099358
C203	C	1.778912	0.150804	0.150642
C204	C	2.028912	0.400804	0.400642
C205	C	1.017015	-0.339739	-0.503464
C206	C	1.267015	-0.089739	-0.253464
C207	C	1.517015	0.160261	-0.003464
C208	C	1.767015	0.410261	0.246536
C209	C	1.017041	-0.339748	-0.573433
C210	C	1.267041	-0.089748	-0.323433
C211	C	1.517041	0.160252	-0.073433
C212	C	1.767041	0.410252	0.176567
C213	C	1.017087	-0.176222	-0.339883
C214	C	1.267087	0.073778	-0.089883
C215	C	1.517087	0.323778	0.160117
C216	C	1.767087	0.573778	0.410117
C217	C	1.017198	-0.106258	-0.339715
C218	C	1.267198	0.143742	-0.089715
C219	C	1.517198	0.393742	0.160285
C220	C	1.767198	0.643742	0.410285
C221	C	1.062045	-0.381657	-0.607863
C222	C	1.312045	-0.131657	-0.357863
C223	C	1.562045	0.118343	-0.107863
C224	C	1.812045	0.368343	0.142137
C225	C	1.062070	-0.381674	-0.673606
C226	C	1.312070	-0.131674	-0.423606
C227	C	1.562070	0.118326	-0.173606
C228	C	1.812070	0.368326	0.076394
C229	C	1.017098	-0.339769	-0.704918
C230	C	1.267098	-0.089769	-0.454918
C231	C	1.517098	0.160231	-0.204918
C232	C	1.767098	0.410231	0.045082
C233	C	0.972085	-0.297857	-0.670480
C234	C	1.222085	-0.047857	-0.420480
C235	C	1.472085	0.202143	-0.170480
C236	C	1.722085	0.452143	0.079520
C237	C	0.972057	-0.297846	-0.604738
C238	C	1.222057	-0.047846	-0.354738
C239	C	1.472057	0.202154	-0.104738
C240	C	1.722057	0.452154	0.145262
N241	N	1.011777	-0.284487	-0.807979
N242	N	1.261777	-0.034487	-0.557979
N243	N	1.511777	0.215513	-0.307979
N244	N	1.761777	0.465513	-0.057979
N245	N	1.011808	-0.284500	-0.870431
N246	N	1.261808	-0.034500	-0.620431
N247	N	1.511808	0.215500	-0.370431
N248	N	1.761808	0.465500	-0.120431
C249	C	1.017180	-0.339801	-0.902995
C250	C	1.267180	-0.089801	-0.652995
C251	C	1.517180	0.160199	-0.402995
C252	C	1.767180	0.410199	-0.152995
N253	N	1.022534	-0.395091	-0.870748
N254	N	1.272534	-0.145091	-0.620748
N255	N	1.522534	0.104909	-0.370748
N256	N	1.772534	0.354909	-0.120748
N257	N	1.022506	-0.395078	-0.808290
N258	N	1.272506	-0.145078	-0.558290
N259	N	1.522506	0.104922	-0.308290
N260	N	1.772506	0.354922	-0.058290
C261	C	1.017124	-0.339777	-0.776204
C262	C	1.267124	-0.089777	-0.526204
C263	C	1.517124	0.160223	-0.276204
C264	C	1.767124	0.410223	-0.026204
C265	C	1.062214	-0.381732	-1.008711
C266	C	1.312214	-0.131732	-0.758711
C267	C	1.562214	0.118268	-0.508711
C268	C	1.812214	0.368268	-0.258711
C269	C	1.062234	-0.381749	-1.074456
C270	C	1.312234	-0.131749	-0.824456
C271	C	1.562234	0.118251	-0.574456
C272	C	1.812234	0.368251	-0.324456
C273	C	0.972253	-0.297926	-1.071329
C274	C	1.222253	-0.047926	-0.821329
C275	C	1.472253	0.202074	-0.571329
C276	C	1.722253	0.452074	-0.321329
C277	C	0.972229	-0.297915	-1.005586
C278	C	1.222229	-0.047915	-0.755586
C279	C	1.472229	0.202085	-0.505586
C280	C	1.722229	0.452085	-0.255586
C281	C	1.017213	-0.339817	-0.974281
C282	C	1.267213	-0.089817	-0.724281
C283	C	1.517213	0.160183	-0.474281
C284	C	1.767213	0.410183	-0.224281
C285	C	1.017214	-0.339824	-0.175729
C286	C	1.267214	-0.089824	0.074271
C287	C	1.517214	0.160176	0.324271
C288	C	1.767214	0.410176	0.574271
C289	C	1.017260	-0.339845	-0.105763
C290	C	1.267260	-0.089845	0.144237
C291	C	1.517260	0.160155	0.394237
C292	C	1.767260	0.410155	0.644237
H293	H	0.285733	-0.276539	-0.276448
H294	H	0.535733	-0.026539	-0.026448
H295	H	0.785733	0.223461	0.223552
H296	H	1.035733	0.473461	0.473552
H297	H	0.749176	-0.257251	-0.257112
H298	H	0.999176	-0.007251	-0.007112
H299	H	1.249176	0.242749	0.242888
H300	H	1.499176	0.492749	0.492888
H301	H	0.419098	-0.427113	-0.427549
H302	H	0.669098	-0.177113	-0.177549
H303	H	0.919098	0.072887	0.072451
H304	H	1.169098	0.322887	0.322451
H305	H	0.419077	-0.281306	-0.281246
H306	H	0.669077	-0.031306	-0.031246
H307	H	0.919077	0.218694	0.218754
H308	H	1.169077	0.468694	0.468754
H309	H	0.285743	-0.422340	-0.422753
H310	H	0.535743	-0.172340	-0.172753
H311	H	0.785743	0.077660	0.077247
H312	H	1.035743	0.327660	0.327247
H313	H	1.098881	-0.415880	-1.102487
H314	H	1.348881	-0.165880	-0.852487
H315	H	1.598881	0.084120	-0.602487
H316	H	1.848881	0.334120	-0.352487
H317	H	1.098908	-0.583009	-0.269813
H318	H	1.348908	-0.333009	-0.019813
H319	H	1.598908	-0.083009	0.230187
H320	H	1.848908	0.166991	0.480187
H321	H	0.935475	-0.696351	-0.409943
H322	H	1.185475	-0.446351	-0.159943
H323	H	1.435475	-0.196351	0.090057
H324	H	1.685475	0.053649	0.340057
H325	H	1.098903	-0.702273	-0.269766
H326	H	1.348903	-0.452273	-0.019766
H327	H	1.598903	-0.202273	0.230234
H328	H	1.848903	0.047727	0.480234
H329	H	0.615820	-0.252480	-0.252322
H330	H	0.865820	-0.002480	-0.002322
H331	H	1.115820	0.247520	0.247678
H332	H	1.365820	0.497520	0.497678
H333	H	0.615843	-0.398282	-0.398622
H334	H	0.865843	-0.148282	-0.148622
H335	H	1.115843	0.101718	0.101378
H336	H	1.365843	0.351718	0.351378
H337	H	1.098712	-0.415809	-0.701644
H338	H	1.348712	-0.165809	-0.451644
H339	H	1.598712	0.084191	-0.201644
H340	H	1.848712	0.334191	0.048356
H341	H	0.935461	-0.577080	-0.409983
H342	H	1.185461	-0.327080	-0.159983
H343	H	1.435461	-0.077080	0.090017
H344	H	1.685461	0.172920	0.340017
H345	H	1.098915	-0.983847	-0.269671
H346	H	1.348915	-0.733847	-0.019671
H347	H	1.598915	-0.483847	0.230329
H348	H	1.848915	-0.233847	0.480329
H349	H	1.098910	-1.103111	-0.269625
H350	H	1.348910	-0.853111	-0.019625
H351	H	1.598910	-0.603111	0.230375
H352	H	1.848910	-0.353111	0.480375
H353	H	0.935467	-0.263739	-0.695978
H354	H	1.185467	-0.013739	-0.445978
H355	H	1.435467	0.236261	-0.195978
H356	H	1.685467	0.486261	0.054022
H357	H	0.935408	-0.263717	-0.576705
H358	H	1.185408	-0.013717	-0.326705
H359	H	1.435408	0.236283	-0.076705
H360	H	1.685408	0.486283	0.173295
H361	H	0.935585	-0.263785	-0.977551
H362	H	1.185585	-0.013785	-0.727551
H363	H	1.435585	0.236215	-0.477551
H364	H	1.685585	0.486215	-0.227551
H365	H	0.935631	-0.263811	-1.096822
H366	H	1.185631	-0.013811	-0.846822
H367	H	1.435631	0.236189	-0.596822
H368	H	1.685631	0.486189	-0.346822
H369	H	1.098840	-0.415853	-0.983222
H370	H	1.348840	-0.165853	-0.733222
H371	H	1.598840	0.084147	-0.483222
H372	H	1.848840	0.334147	-0.233222
H373	H	0.935480	-1.097189	-0.409804
H374	H	1.185480	-0.847189	-0.159804
H375	H	1.435480	-0.597189	0.090196
H376	H	1.685480	-0.347189	0.340196
H377	H	0.935484	-0.977921	-0.409854
H378	H	1.185484	-0.727921	-0.159854
H379	H	1.435484	-0.477921	0.090146
H380	H	1.685484	-0.227921	0.340146
H381	H	1.098672	-0.415778	-0.582376
H382	H	1.348672	-0.165778	-0.332376
H383	H	1.598672	0.084222	-0.082376
H384	H	1.848672	0.334222	0.167624
H385	H	0.749187	-0.403052	-0.403420
H386	H	0.999187	-0.153052	-0.153420
H387	H	1.249187	0.096948	0.096580
H388	H	1.499187	0.346948	0.346580
