data_functionalizedCrystal
_audit_creation_method	'MofGen! by Chris Wilmer'
_symmetry_space_group_name_H-M	'P1'
_symmetry_Int_Tables_number	1
_symmetry_cell_setting	triclinic
loop_
_symmetry_equiv_pos_as_xyz
  x,y,z
_cell_length_a	15.297475
_cell_length_b	15.298671
_cell_length_c	15.296721
_cell_angle_alpha	91.597403
_cell_angle_beta	88.382971
_cell_angle_gamma	110.785676
loop_
_atom_site_label
_atom_site_type_symbol
_atom_site_fract_x
_atom_site_fract_y
_atom_site_fract_z
Zn1	Zn	1.393295	0.709303	0.628150
Zn2	Zn	1.893295	1.209303	1.128150
Zn3	Zn	1.444439	0.840536	0.463451
Zn4	Zn	1.944439	1.340536	0.963451
Zn5	Zn	1.262074	0.658104	0.463497
Zn6	Zn	1.762074	1.158104	0.963497
Zn7	Zn	1.270899	0.831577	0.585823
Zn8	Zn	1.770899	1.331577	1.085823
O9	O	1.342677	0.759880	0.535231
O10	O	1.842677	1.259880	1.035231
O11	O	1.527622	0.751888	0.623998
O12	O	2.027622	1.251888	1.123998
O13	O	1.437959	0.798658	0.343337
O14	O	1.937959	1.298658	0.843337
O15	O	1.254383	0.537375	0.503072
O16	O	1.754383	1.037375	1.003072
O17	O	1.565198	0.848304	0.502994
O18	O	2.065198	1.348304	1.002994
O19	O	1.350790	0.574991	0.624042
O20	O	1.850790	1.074991	1.124042
O21	O	1.303976	0.664626	0.343370
O22	O	1.803976	1.164626	0.843370
O23	O	1.135701	0.655939	0.462029
O24	O	1.635701	1.155939	0.962029
O25	O	1.269424	0.833036	0.711559
O26	O	1.769424	1.333036	1.211559
O27	O	1.142185	0.783389	0.551902
O28	O	1.642185	1.283389	1.051902
O29	O	1.359347	0.743201	0.742657
O30	O	1.859347	1.243201	1.242657
O31	O	1.446516	0.966868	0.461951
O32	O	1.946516	1.466868	0.961951
O33	O	1.319017	0.960286	0.551857
O34	O	1.819017	1.460286	1.051857
C35	C	1.105873	0.713137	0.502378
C36	C	1.605873	1.213137	1.002378
C37	C	1.004568	0.693165	0.488341
C38	C	1.504568	1.193165	0.988341
C39	C	1.389296	0.996649	0.502328
C40	C	1.889296	1.496649	1.002328
C41	C	1.409319	1.097961	0.488293
C42	C	1.909319	1.597961	0.988293
C43	C	0.732734	0.902629	0.635558
C44	C	1.232734	1.402629	1.135558
C45	C	0.827916	0.921400	0.648743
C46	C	1.327916	1.421400	1.148743
C47	C	0.872084	0.864343	0.608644
C48	C	1.372084	1.364343	1.108644
C49	C	0.821060	0.788512	0.555357
C50	C	1.321060	1.288512	1.055357
C51	C	0.725870	0.769743	0.542165
C52	C	1.225870	1.269743	1.042165
C53	C	0.865220	0.731457	0.515251
C54	C	1.365220	1.231457	1.015251
C55	C	0.814196	0.655626	0.461963
C56	C	1.314196	1.155626	0.961963
C57	C	0.719015	0.636860	0.448774
C58	C	1.219015	1.136860	0.948774
C59	C	0.674847	0.693917	0.488873
C60	C	1.174847	1.193917	0.988873
C61	C	0.960410	0.750225	0.528443
C62	C	1.460410	1.250225	1.028443
C63	C	0.953546	0.617339	0.435049
C64	C	1.453546	1.117339	0.935049
C65	C	0.858363	0.598569	0.421864
C66	C	1.358363	1.098569	0.921864
C67	C	1.485143	1.148965	0.434943
C68	C	1.985143	1.648965	0.934943
C69	C	1.503963	1.244155	0.421760
C70	C	2.003963	1.744155	0.921760
C71	C	1.446956	1.288347	0.461921
C72	C	1.946956	1.788347	0.961921
C73	C	1.371126	1.237342	0.515267
C74	C	1.871126	1.737342	1.015267
C75	C	1.352309	1.142145	0.528456
C76	C	1.852309	1.642145	1.028456
C77	C	1.314122	1.281527	0.555434
C78	C	1.814122	1.781527	1.055434
C79	C	1.238292	1.230521	0.608780
C80	C	1.738292	1.730521	1.108780
C81	C	1.219477	1.135333	0.621967
C82	C	1.719477	1.635333	1.121967
C83	C	1.276484	1.091140	0.581806
C84	C	1.776484	1.591140	1.081806
C85	C	1.332939	1.376724	0.542245
C86	C	1.832939	1.876724	1.042245
C87	C	1.200105	1.369903	0.635758
C88	C	1.700105	1.869903	1.135758
C89	C	1.181285	1.274713	0.648941
C90	C	1.681285	1.774713	1.148941
C91	C	1.580406	0.806806	0.568212
C92	C	2.080406	1.306806	1.068212
C93	C	1.681711	0.826803	0.582267
C94	C	2.181711	1.326803	1.082267
C95	C	1.309665	0.792830	0.759125
C96	C	1.809665	1.292830	1.259125
C97	C	1.295597	0.806872	0.854535
C98	C	1.795597	1.306872	1.354535
C99	C	1.295889	1.522194	0.568294
C100	C	1.795889	2.022194	1.068294
C101	C	1.275929	1.420907	0.582408
C102	C	1.775929	1.920907	1.082408
C103	C	1.375599	0.727003	0.312224
C104	C	1.875599	1.227003	0.812224
C105	C	1.389793	0.712739	0.216874
C106	C	1.889793	1.212739	0.716874
C107	C	1.242166	0.860239	0.883165
C108	C	1.742166	1.360239	1.383165
C109	C	1.228951	0.873437	0.972807
C110	C	1.728951	1.373437	1.472807
C111	C	1.269160	0.833264	1.033828
C112	C	1.769160	1.333264	1.533828
C113	C	1.322587	0.779890	1.005199
C114	C	1.822587	1.279890	1.505199
C115	C	1.335809	0.766696	0.915548
C116	C	1.835809	1.266696	1.415548
C117	C	1.362803	0.739721	1.066211
C118	C	1.862803	1.239721	1.566211
C119	C	1.416230	0.686348	1.037581
C120	C	1.916230	1.186348	1.537581
C121	C	1.429450	0.673156	0.947939
C122	C	1.929450	1.173156	1.447939
C123	C	1.389241	0.713329	0.886918
C124	C	1.889241	1.213329	1.386918
C125	C	1.349581	0.752915	1.155862
C126	C	1.849581	1.252915	1.655862
C127	C	1.443224	0.659372	1.188244
C128	C	1.943224	1.159372	1.688244
C129	C	1.456440	0.646174	1.098602
C130	C	1.956440	1.146174	1.598602
H131	H	1.001944	0.811968	0.571831
H132	H	1.501944	1.311968	1.071831
Cl133	Cl	0.991742	0.887940	0.625224
Cl134	Cl	1.491742	1.387940	1.125224
H135	H	0.989507	0.570880	0.402396
H136	H	1.489507	1.070880	0.902396
H137	H	1.261165	1.013630	0.592537
H138	H	1.761165	1.513630	1.092537
H139	H	0.816806	0.536826	0.378477
H140	H	1.316806	1.036826	0.878477
Cl141	Cl	1.405836	0.696724	0.774219
Cl142	Cl	1.905836	1.196724	1.274219
Cl143	Cl	1.470308	1.407894	0.444959
Cl144	Cl	1.970308	1.907894	0.944959
H145	H	1.119543	1.233173	0.692376
H146	H	1.619543	1.733173	1.192376
Cl147	Cl	1.493780	0.608870	1.264951
Cl148	Cl	1.993780	1.108870	1.764951
Cl149	Cl	1.556807	1.093408	0.384472
Cl150	Cl	2.056807	1.593408	0.884472
H151	H	1.157739	1.093806	0.665412
H152	H	1.657739	1.593806	1.165412
Cl153	Cl	0.892054	1.016727	0.715729
Cl154	Cl	1.392054	1.516727	1.215729
H155	H	1.185452	0.916895	0.996111
H156	H	1.685452	1.416895	1.496111
Cl157	Cl	1.428264	1.440833	0.475183
Cl158	Cl	1.928264	1.940833	0.975183
H159	H	1.209439	0.892948	0.833475
H160	H	1.709439	1.392948	1.333475
H161	H	1.153687	1.405885	0.668463
H162	H	1.653687	1.905885	1.168463
H163	H	0.696765	0.949082	0.668195
H164	H	1.196765	1.449082	1.168195
Cl165	Cl	1.282416	0.820009	1.191842
Cl166	Cl	1.782416	1.320009	1.691842
H167	H	1.472964	0.629705	0.924632
H168	H	1.972964	1.129705	1.424632
Cl169	Cl	0.555183	0.670318	0.472306
Cl170	Cl	1.055183	1.170318	0.972306
Cl171	Cl	1.252543	0.849854	1.146522
Cl172	Cl	1.752543	1.349854	1.646522
Cl173	Cl	1.599289	1.308270	0.354702
Cl174	Cl	2.099289	1.808270	0.854702
Cl175	Cl	0.654875	0.541536	0.381776
Cl176	Cl	1.154875	1.041536	0.881776
H177	H	1.499941	0.602717	1.075279
H178	H	1.999941	1.102717	1.575279
