data_functionalizedCrystal
_audit_creation_method	'MofGen! by Chris Wilmer'
_symmetry_space_group_name_H-M	'P1'
_symmetry_Int_Tables_number	1
_symmetry_cell_setting	triclinic
loop_
_symmetry_equiv_pos_as_xyz
  x,y,z
_cell_length_a	8.559649
_cell_length_b	9.798715
_cell_length_c	8.559649
_cell_angle_alpha	89.998585
_cell_angle_beta	110.221336
_cell_angle_gamma	90.003279
loop_
_atom_site_label
_atom_site_type_symbol
_atom_site_fract_x
_atom_site_fract_y
_atom_site_fract_z
O1	O	2.126880	0.113470	0.055038
O2	O	1.651396	0.113475	-0.028743
O3	O	1.931029	0.113470	0.250890
O4	O	1.847247	0.113474	-0.224595
O5	O	1.931010	-0.113512	0.250889
O6	O	1.651377	-0.113507	-0.028745
O7	O	2.126862	-0.113513	0.055037
Zn8	Zn	1.889117	-0.149548	0.013146
Zn9	Zn	1.889141	0.149511	0.013148
O10	O	1.847229	-0.113508	-0.224596
C11	C	1.591077	-0.000015	-0.035093
C12	C	1.411378	-0.000013	-0.053992
N13	N	1.889112	-0.353648	0.013147
C14	C	2.006582	-0.421427	0.131014
C15	C	2.006609	-0.578589	0.131023
C16	C	2.187180	-0.000019	0.061387
C17	C	2.366879	-0.000012	0.080286
C18	C	1.937369	-0.000018	0.311198
C19	C	1.956268	-0.000011	0.490898
N20	N	1.889160	0.353610	0.013162
C21	C	1.840889	-0.000016	-0.284904
C22	C	1.821990	-0.000015	-0.464604
H23	H	1.466258	-0.000007	0.209705
H24	H	1.311990	-0.000005	-0.183420
H25	H	1.788589	-0.588112	-0.087760
Br26	Br	2.173824	-0.324231	0.299561
H27	H	2.107185	-0.636876	0.231930
Br28	Br	1.721499	-0.450844	-0.155033
H29	H	1.692570	-0.000018	0.436018
H30	H	2.085696	-0.000023	0.590286
