data_functionalizedCrystal
_audit_creation_method	'MofGen! by Chris Wilmer'
_symmetry_space_group_name_H-M	'P1'
_symmetry_Int_Tables_number	1
_symmetry_cell_setting	triclinic
loop_
_symmetry_equiv_pos_as_xyz
  x,y,z
_cell_length_a	12.594516
_cell_length_b	12.759401
_cell_length_c	12.594510
_cell_angle_alpha	90.017659
_cell_angle_beta	90.032321
_cell_angle_gamma	90.016330
loop_
_atom_site_label
_atom_site_type_symbol
_atom_site_fract_x
_atom_site_fract_y
_atom_site_fract_z
Zn1	Zn	-0.423638	1.606236	0.601777
Zn2	Zn	-0.601667	1.606129	0.423805
Zn3	Zn	-0.423704	1.430541	0.423816
Zn4	Zn	-0.601576	1.430523	0.601745
O5	O	-0.512646	1.518357	0.512786
O6	O	-0.447265	1.753243	0.578177
O7	O	-0.578126	1.582800	0.274860
O8	O	-0.274749	1.453900	0.447441
O9	O	-0.578062	1.753165	0.447421
O10	O	-0.274701	1.582982	0.578188
O11	O	-0.447377	1.453796	0.274869
O12	O	-0.447288	1.283518	0.447411
O13	O	-0.577906	1.453869	0.750695
O14	O	-0.577970	1.283504	0.578134
O15	O	-0.447176	1.582965	0.750719
O16	O	-0.750601	1.582782	0.447391
O17	O	-0.750534	1.453765	0.578123
C18	C	-0.512627	1.245390	0.512771
C19	C	-0.512645	1.128613	0.512790
C20	C	-0.789187	1.518289	0.512775
C21	C	-0.907493	1.518355	0.512806
C22	C	-0.580810	0.964041	0.580758
C23	C	-0.580798	1.073765	0.580747
C24	C	-0.444506	1.073732	0.444832
C25	C	-0.444524	0.964010	0.444839
C26	C	-0.706344	1.223714	0.618556
C27	C	-0.774470	1.278591	0.686523
C28	C	-0.790934	1.243016	0.790354
C29	C	-0.739256	1.152565	0.826239
C30	C	-0.671122	1.097693	0.758277
C31	C	-0.654678	1.133267	0.654432
C32	C	-0.318977	0.814060	0.407041
C33	C	-0.250837	0.759186	0.339084
C34	C	-0.234362	0.794759	0.235251
C35	C	-0.286021	0.885213	0.199370
C36	C	-0.354161	0.940087	0.267327
C37	C	-0.370638	0.904506	0.371158
C38	C	-0.976748	1.448176	0.583862
C39	C	-1.047624	1.422578	0.486740
C40	C	-1.047416	1.544049	0.609945
C41	C	-0.976810	1.492707	0.415633
C42	C	-0.976596	1.614222	0.538903
C43	C	-1.047440	1.588661	0.441715
C44	C	-0.235025	1.518455	0.512820
C45	C	-0.116720	1.518497	0.512834
C46	C	-0.512523	1.518427	0.790407
C47	C	-0.512471	1.518456	0.908712
C48	C	-0.512666	1.792391	0.512801
C49	C	-0.512675	1.909167	0.512808
C50	C	-0.512692	1.518349	0.236245
C51	C	-0.512444	1.518523	0.117940
C52	C	-0.441362	1.588693	0.977978
C53	C	-0.415309	1.492871	1.048774
C54	C	-0.538449	1.614334	1.048716
C55	C	-0.486369	1.422584	0.977950
C56	C	-0.609553	1.544111	0.977885
C57	C	-0.583538	1.448224	1.048649
H58	H	-0.636303	0.919391	0.636102
H59	H	-0.333198	1.471194	1.079912
H60	H	-0.560430	1.695388	1.079804
Cl61	Cl	-0.358830	1.142685	0.359396
Cl62	Cl	-0.928819	1.356388	0.676501
Cl63	Cl	-0.419111	1.053799	0.222216
Cl64	Cl	-0.185884	0.645475	0.384197
H65	H	-0.945924	1.470938	0.333473
H66	H	-1.078284	1.648070	0.381568
H67	H	-0.643661	1.388787	1.079484
H68	H	-0.464290	1.341506	0.946996
H69	H	-0.691642	1.565817	0.946726
H70	H	-0.272602	0.914181	0.114823
H71	H	-1.078431	1.565723	0.692082
Cl72	Cl	-1.095790	1.297504	0.452666
Cl73	Cl	-0.148687	0.725779	0.149824
H74	H	-0.381192	1.647984	0.946944
Cl75	Cl	-0.606158	0.983991	0.803380
Cl76	Cl	-0.759943	1.107857	0.956783
H77	H	-0.816546	1.352236	0.657296
Cl78	Cl	-0.876580	1.312006	0.875795
Cl79	Cl	-0.685663	1.268437	0.488016
H80	H	-0.332387	0.785086	0.491590
Cl81	Cl	-0.928390	1.739263	0.573020
