data_functionalizedCrystal
_audit_creation_method	'MofGen! by Chris Wilmer'
_symmetry_space_group_name_H-M	'P1'
_symmetry_Int_Tables_number	1
_symmetry_cell_setting	triclinic
loop_
_symmetry_equiv_pos_as_xyz
  x,y,z
_cell_length_a	19.288864
_cell_length_b	10.540539
_cell_length_c	17.766277
_cell_angle_alpha	89.995823
_cell_angle_beta	89.976791
_cell_angle_gamma	83.830869
loop_
_atom_site_label
_atom_site_type_symbol
_atom_site_fract_x
_atom_site_fract_y
_atom_site_fract_z
O1	O	0.922410	0.158345	-0.062832
O2	O	0.720292	0.179706	-0.062781
O3	O	0.825962	-0.015784	-0.062807
O4	O	0.816739	0.353835	-0.062806
O5	O	0.825943	-0.015794	0.062382
O6	O	0.720273	0.179696	0.062408
O7	O	0.922391	0.158335	0.062356
Cu8	Cu	0.821330	0.169015	0.073813
Cu9	Cu	0.821352	0.169026	-0.074237
O10	O	0.816721	0.353825	0.062382
C11	C	0.694401	0.179013	-0.000180
C12	C	0.617284	0.176950	-0.000160
C13	C	0.573353	0.291654	-0.000172
C14	C	0.500893	0.289716	-0.000180
C15	C	0.472367	0.173067	-0.000192
C16	C	0.516308	0.058347	-0.000176
C17	C	0.588766	0.060289	-0.000160
C18	C	0.363500	0.081371	-0.044076
C19	C	0.291042	0.079434	-0.044097
C20	C	0.248881	0.167074	-0.000237
C21	C	0.279185	0.256671	0.043633
C22	C	0.351644	0.258613	0.043649
C23	C	0.393799	0.170949	-0.000208
C24	C	0.126381	0.279684	-0.000257
C25	C	0.053919	0.277741	-0.000261
C26	C	0.069336	0.046369	-0.000264
C27	C	0.141795	0.048315	-0.000253
C28	C	0.170313	0.164976	-0.000253
C29	C	0.825261	-0.063076	-0.000214
C30	C	0.823192	-0.203978	-0.000217
C31	C	0.743903	-0.385638	-0.000478
C32	C	0.746000	-0.239067	-0.000197
C33	C	0.860329	-0.266470	0.071262
C34	C	0.857694	-0.412955	0.071323
C35	C	0.859286	-0.413497	-0.071040
C36	C	0.859997	-0.266531	-0.071986
C37	C	0.948281	0.159027	-0.000246
C38	C	1.025399	0.161091	-0.000271
C39	C	0.817422	0.401117	-0.000212
C40	C	0.819491	0.542019	-0.000214
N41	N	0.821320	0.169006	0.177943
N42	N	0.821368	0.169025	-0.178368
C43	C	0.868126	0.082485	0.217318
C44	C	0.868130	0.082479	0.296120
C45	C	0.821334	0.169016	0.335544
C46	C	0.774519	0.255543	0.296159
C47	C	0.774512	0.255538	0.217359
C48	C	0.812807	0.284670	0.460383
C49	C	0.812819	0.284676	0.539182
C50	C	0.821353	0.169031	0.578590
C51	C	0.829889	0.053373	0.539189
C52	C	0.829882	0.053368	0.460389
C53	C	0.821337	0.169030	0.420989
C54	C	0.868166	0.082497	0.703411
C55	C	0.868165	0.082489	0.782214
C56	C	0.774558	0.255564	0.782252
C57	C	0.774555	0.255560	0.703450
C58	C	0.821363	0.169028	0.664034
H59	H	0.177565	-0.045090	-0.000247
H60	H	0.913209	-0.462161	0.074552
C61	C	0.702861	-0.425516	0.068403
C62	C	0.635103	-0.488307	0.057285
C63	C	0.594063	-0.528184	0.126167
C64	C	0.620781	-0.505270	0.206166
C65	C	0.688542	-0.442475	0.217287
C66	C	0.729583	-0.402598	0.148405
H67	H	0.615322	-0.505273	-0.001938
H68	H	0.543902	-0.574669	0.117934
H69	H	0.590401	-0.534789	0.257157
H70	H	0.708324	-0.425510	0.276510
H71	H	0.779744	-0.356114	0.156638
H72	H	0.917016	-0.245379	0.073906
H73	H	0.266374	0.006484	-0.079822
H74	H	0.736444	0.326019	0.671388
H75	H	0.805873	0.378851	0.571256
H76	H	0.906246	0.012021	0.328185
H77	H	0.046111	-0.048609	-0.000320
H78	H	0.836837	-0.040796	0.571274
H79	H	0.397822	0.010002	-0.079796
C80	C	0.825458	-0.208165	0.143144
C81	C	0.852704	-0.254093	0.221036
C82	C	0.817828	-0.195791	0.292916
C83	C	0.755706	-0.091561	0.286905
C84	C	0.728457	-0.045627	0.209010
C85	C	0.763332	-0.103929	0.137130
H86	H	0.898693	-0.331255	0.225489
H87	H	0.838000	-0.229794	0.350579
H88	H	0.729889	-0.048402	0.340114
H89	H	0.682467	0.031535	0.204557
H90	H	0.743160	-0.069926	0.079467
H91	H	0.493077	-0.036629	-0.000196
H92	H	0.805846	0.378849	0.428304
C93	C	0.706509	-0.180613	-0.069405
C94	C	0.672841	-0.267289	-0.125318
C95	C	0.633341	-0.208840	-0.194524
C96	C	0.627509	-0.063715	-0.207818
C97	C	0.661179	0.022970	-0.151904
C98	C	0.700679	-0.035479	-0.082697
H99	H	0.677157	-0.374727	-0.115478
H100	H	0.608416	-0.273010	-0.235915
H101	H	0.598269	-0.020448	-0.259049
H102	H	0.656863	0.130408	-0.161743
H103	H	0.725604	0.028692	-0.041306
H104	H	0.716558	-0.196659	0.051142
C105	C	0.919647	-0.012697	0.660050
C106	C	0.919647	-0.012704	0.573373
C107	C	0.971128	-0.107900	0.530015
C108	C	1.022608	-0.203088	0.573334
C109	C	1.022609	-0.203084	0.660016
C110	C	0.971128	-0.107888	0.703374
H111	H	0.881537	0.057763	0.541301
H112	H	0.971127	-0.107902	0.465847
H113	H	1.060717	-0.273557	0.541238
H114	H	1.060719	-0.273551	0.692088
H115	H	0.971129	-0.107886	0.767542
H116	H	0.906278	0.012027	0.814274
H117	H	0.736416	0.326000	0.328261
H118	H	0.596567	0.386649	-0.000173
C119	C	0.384979	0.357152	0.091910
C120	C	0.437854	0.312009	0.153780
C121	C	0.471190	0.410545	0.202046
C122	C	0.451650	0.554224	0.188441
C123	C	0.398772	0.599374	0.126568
C124	C	0.365437	0.500838	0.078303
H125	H	0.452321	0.205643	0.163854
H126	H	0.510334	0.377121	0.247848
H127	H	0.476327	0.627166	0.224170
H128	H	0.384305	0.705741	0.116495
H129	H	0.326293	0.534262	0.032500
H130	H	0.465117	0.383125	-0.000187
H131	H	0.736453	0.326019	0.814350
H132	H	0.244859	0.328035	0.079348
H133	H	0.149601	0.374676	-0.000246
H134	H	0.830232	-0.440547	0.124769
H135	H	0.906238	0.012023	0.185229
H136	H	0.836830	-0.040804	0.428312
H137	H	0.713418	-0.413555	-0.051736
C138	C	0.825547	-0.455353	-0.144233
C139	C	0.855922	-0.422083	-0.221033
C140	C	0.822174	-0.463937	-0.294221
C141	C	0.758050	-0.539060	-0.290610
C142	C	0.727672	-0.572334	-0.213808
C143	C	0.761420	-0.530480	-0.140619
H144	H	0.903393	-0.366469	-0.223708
H145	H	0.844662	-0.439305	-0.351075
H146	H	0.733068	-0.570042	-0.344788
H147	H	0.680201	-0.627948	-0.211132
H148	H	0.738931	-0.555112	-0.083765
H149	H	0.736396	0.325994	0.185298
H150	H	0.018151	0.371151	-0.000266
C151	C	0.823282	-0.210450	-0.143404
C152	C	0.790267	-0.298592	-0.198978
C153	C	0.753521	-0.242521	-0.270383
C154	C	0.749792	-0.098308	-0.286214
C155	C	0.782808	-0.010157	-0.230638
C156	C	0.819554	-0.066228	-0.159233
H157	H	0.793027	-0.405355	-0.187260
H158	H	0.729080	-0.307777	-0.311524
H159	H	0.722591	-0.056801	-0.339072
H160	H	0.780048	0.096606	-0.242355
H161	H	0.843995	-0.000972	-0.118092
H162	H	0.916276	-0.243564	-0.076317
C163	C	0.934608	-0.478966	-0.071717
C164	C	0.984034	-0.458483	-0.005819
C165	C	1.059354	-0.523953	-0.006488
C166	C	1.085248	-0.609905	-0.073056
C167	C	1.035822	-0.630392	-0.138959
C168	C	0.960502	-0.564922	-0.138290
H169	H	0.964866	-0.394852	0.043463
H170	H	1.095943	-0.508786	0.042298
H171	H	1.141005	-0.658369	-0.073552
H172	H	1.054989	-0.694022	-0.188241
H173	H	0.923913	-0.580088	-0.187076
H174	H	0.624535	-0.033120	-0.000151
