data_functionalizedCrystal
_audit_creation_method	'MofGen! by Chris Wilmer'
_symmetry_space_group_name_H-M	'P1'
_symmetry_Int_Tables_number	1
_symmetry_cell_setting	triclinic
loop_
_symmetry_equiv_pos_as_xyz
  x,y,z
_cell_length_a	14.044220
_cell_length_b	15.944493
_cell_length_c	12.503572
_cell_angle_alpha	93.528588
_cell_angle_beta	86.164750
_cell_angle_gamma	88.331960
loop_
_atom_site_label
_atom_site_type_symbol
_atom_site_fract_x
_atom_site_fract_y
_atom_site_fract_z
O1	O	1.263130	0.198065	-0.089180
O2	O	1.596463	0.531398	0.244153
O3	O	1.929797	0.864732	0.577487
O4	O	0.987164	0.190756	-0.089208
O5	O	1.320497	0.524089	0.244125
O6	O	1.653831	0.857423	0.577458
O7	O	1.132712	0.072699	-0.089202
O8	O	1.466046	0.406032	0.244131
O9	O	1.799379	0.739365	0.577464
O10	O	1.117582	0.316123	-0.089186
O11	O	1.450915	0.649456	0.244147
O12	O	1.784248	0.982789	0.577481
O13	O	1.121766	0.081593	0.089439
O14	O	1.455099	0.414927	0.422772
O15	O	1.788433	0.748260	0.756106
O16	O	0.976218	0.199651	0.089433
O17	O	1.309551	0.532984	0.422767
O18	O	1.642884	0.866318	0.756100
O19	O	1.252184	0.206960	0.089461
O20	O	1.585517	0.540293	0.422795
O21	O	1.918851	0.873626	0.756128
Cu22	Cu	1.113201	0.204117	0.105759
Cu23	Cu	1.446535	0.537451	0.439092
Cu24	Cu	1.779868	0.870784	0.772425
Cu25	Cu	1.126146	0.193598	-0.105506
Cu26	Cu	1.459480	0.526932	0.227828
Cu27	Cu	1.792813	0.860265	0.561161
O28	O	1.106636	0.325017	0.089455
O29	O	1.439969	0.658351	0.422789
O30	O	1.773302	0.991684	0.756122
C31	C	0.946377	0.192005	0.000109
C32	C	1.279711	0.525338	0.333442
C33	C	1.613044	0.858671	0.666775
C34	C	0.841154	0.182463	0.000097
C35	C	1.174487	0.515796	0.333431
C36	C	1.507820	0.849129	0.666764
C37	C	1.126621	0.045805	0.000114
C38	C	1.459954	0.379138	0.333447
C39	C	1.793288	0.712471	0.666780
C40	C	1.124768	-0.047584	0.000100
C41	C	1.458101	0.285750	0.333433
C42	C	1.791435	0.619083	0.666767
C43	C	0.648494	0.165020	0.000117
C44	C	0.981827	0.498353	0.333451
C45	C	1.315161	0.831687	0.666784
C46	C	0.590849	0.232692	0.000126
C47	C	0.924182	0.566025	0.333460
C48	C	1.257515	0.899358	0.666793
C49	C	0.483646	0.222986	0.000138
C50	C	0.816980	0.556320	0.333471
C51	C	1.150313	0.889653	0.666804
C52	C	0.755707	0.174724	0.000106
C53	C	1.089040	0.508057	0.333439
C54	C	1.422373	0.841391	0.666773
C55	C	1.210440	-0.276927	0.000129
C56	C	1.543773	0.056406	0.333462
C57	C	1.877106	0.389740	0.666796
C58	C	1.169636	-0.335340	-0.087955
C59	C	1.502970	-0.002007	0.245379
C60	C	1.836303	0.331327	0.578712
C61	C	1.121332	-0.218561	0.000113
C62	C	1.454665	0.114772	0.333446
C63	C	1.787999	0.448105	0.666779
C64	C	1.158824	-0.326548	0.088172
C65	C	1.492157	0.006785	0.421505
C66	C	1.825490	0.340118	0.754838
C67	C	1.118020	-0.383718	0.000130
C68	C	1.451353	-0.050385	0.333463
C69	C	1.784686	0.282949	0.666796
C70	C	1.080557	-0.275748	-0.088044
C71	C	1.413891	0.057585	0.245290
C72	C	1.747224	0.390919	0.578623
C73	C	1.069753	-0.266948	0.088162
C74	C	1.403086	0.066385	0.421495
C75	C	1.736420	0.399719	0.754829
C76	C	1.028886	-0.325334	0.000057
C77	C	1.362219	0.007999	0.333390
C78	C	1.695552	0.341332	0.666723
C79	C	1.123243	-0.123419	0.000102
C80	C	1.456576	0.209915	0.333435
C81	C	1.789910	0.543248	0.666769
C82	C	1.116102	-0.478858	0.000133
C83	C	1.449435	-0.145525	0.333466
C84	C	1.782769	0.187808	0.666799
C85	C	1.292971	0.205711	0.000142
C86	C	1.626304	0.539045	0.333475
C87	C	1.959638	0.872378	0.666809
C88	C	1.398195	0.215253	0.000146
C89	C	1.731528	0.548586	0.333480
C90	C	2.064861	0.881920	0.666813
C91	C	1.112727	0.351911	0.000137
C92	C	1.446060	0.685245	0.333470
C93	C	1.779394	1.018578	0.666804
C94	C	1.114580	0.445299	0.000144
C95	C	1.447914	0.778632	0.333477
C96	C	1.781247	1.111966	0.666810
N97	N	1.104103	0.211516	0.254351
N98	N	1.437437	0.544849	0.587684
N99	N	1.770770	0.878183	0.921017
N100	N	1.135252	0.186194	-0.254097
N101	N	1.468585	0.519527	0.079236
N102	N	1.801919	0.852861	0.412569
C103	C	1.090720	0.222407	0.473465
C104	C	1.424053	0.555740	0.806799
C105	C	1.757387	0.889073	1.140132
C106	C	1.148632	0.175306	0.526795
C107	C	1.481966	0.508639	0.860128
C108	C	1.815299	0.841973	1.193461
C109	C	1.141186	0.181366	0.648718
C110	C	1.474519	0.514699	0.982051
C111	C	1.807852	0.848032	1.315384
C112	C	1.098166	0.216348	0.351531
C113	C	1.431499	0.549681	0.684865
C114	C	1.764832	0.883015	1.018198
H115	H	0.622009	0.297917	0.000126
H116	H	0.955342	0.631250	0.333459
H117	H	1.288675	0.964583	0.666792
Cl118	Cl	0.600388	0.064323	0.000112
Cl119	Cl	0.933722	0.397657	0.333446
Cl120	Cl	1.267055	0.730990	0.666779
H121	H	1.027591	-0.237095	0.162626
H122	H	1.360924	0.096238	0.495959
H123	H	1.694258	0.429572	0.829293
Cl124	Cl	1.328949	-0.243926	0.000009
Cl125	Cl	1.662282	0.089407	0.333342
Cl126	Cl	1.995615	0.422740	0.666676
Cl127	Cl	1.234178	0.106370	0.455918
Cl128	Cl	1.567511	0.439703	0.789252
Cl129	Cl	1.900844	0.773037	1.122585
Cl130	Cl	1.005544	0.291690	0.544341
Cl131	Cl	1.338878	0.625023	0.877675
Cl132	Cl	1.672211	0.958357	1.211008
Cl133	Cl	1.234779	-0.381407	-0.202916
Cl134	Cl	1.568112	-0.048074	0.130418
Cl135	Cl	1.901446	0.285259	0.463751
H136	H	1.047515	-0.253456	-0.162591
H137	H	1.380848	0.079877	0.170742
H138	H	1.714182	0.413210	0.504076
Cl139	Cl	0.910296	-0.358102	-0.000026
Cl140	Cl	1.243630	-0.024768	0.333308
Cl141	Cl	1.576963	0.308565	0.666641
Cl142	Cl	1.209905	-0.361137	0.203139
Cl143	Cl	1.543238	-0.027804	0.536472
Cl144	Cl	1.876572	0.305530	0.869806
