data_functionalizedCrystal
_audit_creation_method	'MofGen! by Chris Wilmer'
_symmetry_space_group_name_H-M	'P1'
_symmetry_Int_Tables_number	1
_symmetry_cell_setting	triclinic
loop_
_symmetry_equiv_pos_as_xyz
  x,y,z
_cell_length_a	10.654550
_cell_length_b	8.559649
_cell_length_c	9.130313
_cell_angle_alpha	89.997262
_cell_angle_beta	89.999724
_cell_angle_gamma	77.131797
loop_
_atom_site_label
_atom_site_type_symbol
_atom_site_fract_x
_atom_site_fract_y
_atom_site_fract_z
O1	O	1.644682	0.224185	-0.121684
O2	O	1.276997	0.245544	-0.121710
O3	O	1.493232	0.002621	-0.121693
O4	O	1.428446	0.467107	-0.121701
O5	O	1.493220	0.002614	0.121906
O6	O	1.276984	0.245537	0.121889
O7	O	1.644669	0.224178	0.121915
Cu8	Cu	1.460826	0.234857	0.144144
Cu9	Cu	1.460840	0.234865	-0.143939
O10	O	1.428433	0.467100	0.121898
C11	C	1.230355	0.243972	0.000086
C12	C	1.091396	0.239280	0.000076
C13	C	0.997136	0.382309	0.000078
C14	C	0.866571	0.377890	0.000103
C15	C	0.924541	0.087402	0.000119
C16	C	1.055103	0.091822	0.000104
C17	C	1.498136	-0.056858	0.000104
C18	C	1.512750	-0.234076	0.000097
C19	C	1.691311	0.225750	0.000116
C20	C	1.830270	0.230442	0.000116
C21	C	1.423530	0.526579	0.000098
C22	C	1.408915	0.703797	0.000095
N23	N	1.460824	0.234850	0.346767
N24	N	1.460853	0.234859	-0.346562
C25	C	1.556598	0.127329	0.423426
C26	C	1.556610	0.127330	0.576763
C27	C	1.365070	0.342385	0.576768
C28	C	1.365054	0.342375	0.423434
H29	H	0.894975	-0.032654	0.000151
N30	N	1.276346	-0.187080	0.000066
H31	H	1.209131	-0.253712	0.000066
H32	H	1.265653	-0.117217	0.090365
N33	N	1.261794	0.458362	0.659473
H34	H	1.265304	0.571816	0.632771
H35	H	1.174594	0.438785	0.632780
N36	N	0.764879	0.532134	0.000108
H37	H	0.709438	0.536748	0.090425
H38	H	0.807754	0.626148	0.000038
H39	H	1.634596	0.039775	0.639175
N40	N	1.645329	-0.343201	0.000130
H41	H	1.637332	-0.458580	0.000141
H42	H	1.693680	-0.321943	-0.090173
N43	N	1.659886	0.011359	0.340732
H44	H	1.720558	-0.056756	0.412569
H45	H	1.618670	-0.059779	0.277127
N46	N	1.156773	-0.062460	0.000114
H47	H	1.146723	-0.126734	-0.090181
H48	H	1.244942	-0.037157	0.000164
N49	N	1.036285	0.541344	0.000046
H50	H	0.956754	0.631280	0.000052
H51	H	1.089203	0.549509	0.090342
N52	N	1.261741	0.458336	0.340738
H53	H	1.201077	0.526460	0.412570
H54	H	1.302939	0.529467	0.277096
