data_functionalizedCrystal
_audit_creation_method	'MofGen! by Chris Wilmer'
_symmetry_space_group_name_H-M	'P1'
_symmetry_Int_Tables_number	1
_symmetry_cell_setting	triclinic
loop_
_symmetry_equiv_pos_as_xyz
  x,y,z
_cell_length_a	16.992701
_cell_length_b	16.992695
_cell_length_c	15.455313
_cell_angle_alpha	87.142836
_cell_angle_beta	87.139804
_cell_angle_gamma	89.332304
loop_
_atom_site_label
_atom_site_type_symbol
_atom_site_fract_x
_atom_site_fract_y
_atom_site_fract_z
O1	O	1.047609	-0.170134	0.072139
O2	O	1.547609	0.329866	0.572139
O3	O	0.819209	-0.168305	0.072140
O4	O	1.319209	0.331695	0.572140
O5	O	0.932493	-0.055019	0.072133
O6	O	1.432493	0.444981	0.572133
O7	O	0.934324	-0.283420	0.072146
O8	O	1.434324	0.216580	0.572146
O9	O	0.938965	-0.048561	-0.072130
O10	O	1.438965	0.451439	0.427870
O11	O	0.825680	-0.161847	-0.072123
O12	O	1.325680	0.338153	0.427877
O13	O	1.054080	-0.163676	-0.072123
O14	O	1.554080	0.336324	0.427877
Cu15	Cu	0.940471	-0.162172	-0.085295
Cu16	Cu	1.440471	0.337828	0.414705
Cu17	Cu	0.932818	-0.169809	0.085312
Cu18	Cu	1.432818	0.330191	0.585312
O19	O	0.940796	-0.276962	-0.072116
O20	O	1.440796	0.223038	0.427884
C21	C	0.793084	-0.162721	0.000008
C22	C	1.293084	0.337279	0.500008
C23	C	0.705600	-0.155693	0.000008
C24	C	1.205600	0.344307	0.500008
C25	C	0.213681	-0.108471	0.000009
C26	C	0.713681	0.391529	0.500009
C27	C	0.295882	-0.115080	0.000004
C28	C	0.795882	0.384920	0.500004
C29	C	0.332089	-0.189509	0.000012
C30	C	0.832089	0.310491	0.500012
C31	C	0.286090	-0.257331	0.000017
C32	C	0.786090	0.242669	0.500017
C33	C	0.203891	-0.250721	0.000015
C34	C	0.703891	0.249279	0.500015
C35	C	0.577402	-0.216905	0.000011
C36	C	1.077402	0.283095	0.500011
C37	C	0.659607	-0.223510	0.000015
C38	C	1.159607	0.276490	0.500015
C39	C	0.669394	-0.081259	0.000001
C40	C	1.169394	0.418741	0.500001
C41	C	0.587192	-0.074655	0.000005
C42	C	1.087192	0.425345	0.500005
C43	C	0.541201	-0.142478	0.000005
C44	C	1.041201	0.357522	0.500005
N45	N	0.416111	-0.196266	0.000010
N46	N	0.916111	0.303734	0.500010
N47	N	0.457181	-0.135719	0.000001
N48	N	0.957181	0.364281	0.500001
C49	C	0.933373	-0.022430	0.000001
C50	C	1.433373	0.477570	0.500001
C51	C	0.926345	0.065054	0.000002
C52	C	1.426345	0.565054	0.500002
C53	C	1.080204	-0.169261	0.000010
C54	C	1.580204	0.330739	0.500010
C55	C	1.167689	-0.176289	0.000016
C56	C	1.667689	0.323711	0.500016
N57	N	0.927435	-0.175175	0.205308
N58	N	1.427435	0.324825	0.705308
C59	C	0.939915	-0.309551	0.000017
C60	C	1.439915	0.190449	0.500017
C61	C	0.946944	-0.397036	0.000022
C62	C	1.446944	0.102964	0.500022
C63	C	0.994163	0.111046	0.000001
C64	C	1.494163	0.611046	0.500001
C65	C	0.987553	0.193246	0.000009
C66	C	1.487553	0.693246	0.500009
C67	C	0.913126	0.229454	0.000012
C68	C	1.413126	0.729454	0.500012
C69	C	0.845302	0.183456	0.000016
C70	C	1.345302	0.683456	0.500016
C71	C	0.851912	0.101257	0.000014
C72	C	1.351912	0.601257	0.500014
C73	C	0.885731	0.474767	0.000024
C74	C	1.385731	0.974767	0.500024
C75	C	0.879126	0.556973	0.000023
C76	C	1.379126	1.056973	0.500023
C77	C	1.021377	0.566757	0.000018
C78	C	1.521377	1.066757	0.500018
C79	C	1.027981	0.484556	0.000011
C80	C	1.527981	0.984556	0.500011
C81	C	0.960158	0.438566	0.000019
C82	C	1.460158	0.938566	0.500019
N83	N	0.906368	0.313476	0.000018
N84	N	1.406368	0.813476	0.500018
N85	N	0.966915	0.354545	0.000020
N86	N	1.466915	0.854545	0.500020
N87	N	0.945860	-0.156800	-0.205291
N88	N	1.445860	0.343200	0.294709
C89	C	0.975666	-0.127152	0.250699
C90	C	1.475666	0.372848	0.750699
C91	C	0.971593	-0.131209	0.341507
C92	C	1.471593	0.368791	0.841507
C93	C	0.919285	-0.183284	0.386922
C94	C	1.419285	0.316716	0.886922
C95	C	0.871052	-0.231312	0.341525
C96	C	1.371052	0.268688	0.841525
C97	C	0.875129	-0.227259	0.250718
C98	C	1.375129	0.272741	0.750718
C99	C	0.901704	-0.200775	0.658505
C100	C	1.401704	0.299225	1.158505
C101	C	0.897629	-0.204823	0.749318
C102	C	1.397629	0.295177	1.249318
C103	C	0.998172	-0.104720	0.749294
C104	C	1.498172	0.395280	1.249294
C105	C	1.002241	-0.100669	0.658485
C106	C	1.502241	0.399331	1.158485
C107	C	0.954011	-0.148699	0.613096
C108	C	1.454011	0.351301	1.113096
N109	N	0.915119	-0.187430	0.479743
N110	N	1.415119	0.312570	0.979743
N111	N	0.958181	-0.144557	0.520277
N112	N	1.458181	0.355443	1.020277
H113	H	0.557719	-0.014048	-0.000002
H114	H	1.057719	0.485952	0.499998
O115	O	0.854774	-0.247460	0.614555
O116	O	1.354774	0.252540	1.114555
C117	C	0.807746	-0.294303	0.674116
C118	C	1.307746	0.205697	1.174116
H119	H	0.801989	-0.264850	0.738835
H120	H	1.301989	0.235150	1.238835
H121	H	0.746796	-0.301056	0.647879
H122	H	1.246796	0.198944	1.147879
H123	H	0.836424	-0.354880	0.683795
H124	H	1.336424	0.145120	1.183795
O125	O	0.806799	0.592105	0.000188
O126	O	1.306799	1.092105	0.500188
C127	C	0.761792	0.565685	0.074898
C128	C	1.261792	1.065685	0.574898
H129	H	0.802885	0.543607	0.127114
H130	H	1.302885	1.043607	0.627114
H131	H	0.724069	0.616404	0.099981
H132	H	1.224069	1.116404	0.599981
H133	H	0.722028	0.515682	0.058013
H134	H	1.222028	1.015682	0.558013
H135	H	0.689084	-0.284121	0.000010
H136	H	1.189084	0.215879	0.500010
H137	H	0.184208	-0.047864	0.000007
H138	H	0.684208	0.452136	0.500007
H139	H	0.796687	0.063811	0.000015
H140	H	1.296687	0.563811	0.500015
H141	H	0.333326	-0.059855	-0.000005
H142	H	0.833326	0.440145	0.499995
H143	H	0.828464	-0.273717	0.378507
H144	H	1.328464	0.226283	0.878507
O145	O	0.846920	-0.255456	0.793534
O146	O	1.346920	0.244544	1.293534
C147	C	0.889667	-0.309119	0.846065
C148	C	1.389667	0.190881	1.346065
H149	H	0.948744	-0.282378	0.859657
H150	H	1.448744	0.217622	1.359657
H151	H	0.854706	-0.322275	0.909924
H152	H	1.354706	0.177725	1.409924
H153	H	0.900118	-0.366097	0.811092
H154	H	1.400118	0.133903	1.311092
H155	H	0.706848	-0.026041	-0.000000
H156	H	1.206848	0.473959	0.500000
H157	H	1.037440	-0.065617	0.786258
H158	H	1.537440	0.434383	1.286258
H159	H	0.539966	-0.272132	0.000016
H160	H	1.039966	0.227868	0.500016
H161	H	0.315576	-0.317933	0.000018
H162	H	0.815576	0.182067	0.500018
H163	H	0.835855	-0.266365	0.213762
H164	H	1.335855	0.233635	0.713762
H165	H	1.010867	-0.092105	0.378464
H166	H	1.510867	0.407895	0.878464
O167	O	0.159238	-0.316629	0.000180
O168	O	0.659238	0.183371	0.500180
C169	C	0.173006	-0.364864	0.074889
C170	C	0.673006	0.135136	0.574889
H171	H	0.196124	-0.327401	0.127107
H172	H	0.696124	0.172599	0.627107
H173	H	0.115602	-0.393900	0.099970
H174	H	0.615602	0.106100	0.599970
H175	H	0.218424	-0.412295	0.058004
H176	H	0.718424	0.087705	0.558004
O177	O	1.066521	0.076002	0.000038
O178	O	1.566521	0.576002	0.500038
C179	C	1.124962	0.134227	0.000021
C180	C	1.624962	0.634227	0.500021
H181	H	1.098171	0.190162	0.027331
H182	H	1.598171	0.690162	0.527331
H183	H	1.174735	0.112025	0.041907
H184	H	1.674735	0.612025	0.541907
H185	H	1.149236	0.147577	-0.069188
H186	H	1.649236	0.647577	0.430812
H187	H	1.042778	0.230690	0.000006
H188	H	1.542778	0.730690	0.500006
O189	O	1.100339	0.449512	0.000044
O190	O	1.600339	0.949512	0.500044
C191	C	1.158783	0.507734	0.000019
C192	C	1.658783	1.007734	0.500019
H193	H	1.132000	0.563668	0.027340
H194	H	1.632000	1.063668	0.527340
H195	H	1.208563	0.485526	0.041893
H196	H	1.708563	0.985526	0.541893
H197	H	1.183046	0.521087	-0.069193
H198	H	1.683046	1.021087	0.430807
O199	O	1.026543	-0.076543	0.206721
O200	O	1.526543	0.423457	0.706721
C201	C	1.068224	-0.035012	0.266261
C202	C	1.568224	0.464988	0.766261
H203	H	1.068170	-0.070240	0.330997
H204	H	1.568170	0.429760	0.830997
H205	H	1.131530	-0.025918	0.240024
H206	H	1.631530	0.474082	0.740024
H207	H	1.038678	0.024703	0.275909
H208	H	1.538678	0.524703	0.775909
O209	O	1.087175	0.611548	0.000057
O210	O	1.587175	1.111548	0.500057
C211	C	1.065387	0.691864	0.000038
C212	C	1.565387	1.191864	0.500038
H213	H	1.002133	0.697662	0.027348
H214	H	1.502133	1.197662	0.527348
H215	H	1.106419	0.724350	0.041923
H216	H	1.606419	1.224350	0.541923
H217	H	1.069990	0.718526	-0.069172
H218	H	1.569990	1.218526	0.430828
O219	O	0.819864	0.430062	0.000180
O220	O	1.319864	0.930062	0.500180
C221	C	0.816083	0.378861	0.074885
C222	C	1.316083	0.878861	0.574885
H223	H	0.852114	0.404065	0.127105
H224	H	1.352114	0.904065	0.627105
H225	H	0.752126	0.372485	0.099965
H226	H	1.252126	0.872485	0.599965
H227	H	0.840949	0.318632	0.057994
H228	H	1.340949	0.818632	0.557994
H229	H	0.784701	0.212942	0.000023
H230	H	1.284701	0.712942	0.500023
H231	H	1.044835	-0.058265	0.621510
H232	H	1.544835	0.441735	1.121510
