data_functionalizedCrystal
_audit_creation_method	'MofGen! by Chris Wilmer'
_symmetry_space_group_name_H-M	'P1'
_symmetry_Int_Tables_number	1
_symmetry_cell_setting	triclinic
loop_
_symmetry_equiv_pos_as_xyz
  x,y,z
_cell_length_a	14.971490
_cell_length_b	14.971494
_cell_length_c	13.448316
_cell_angle_alpha	90.004885
_cell_angle_beta	89.990907
_cell_angle_gamma	96.383397
loop_
_atom_site_label
_atom_site_type_symbol
_atom_site_fract_x
_atom_site_fract_y
_atom_site_fract_z
O1	O	-1.186949	0.116580	0.082742
O2	O	-0.926550	0.130535	0.082732
O3	O	-1.063725	-0.006642	0.082735
O4	O	-1.049774	0.253757	0.082739
O5	O	-1.063707	-0.006650	-0.082649
O6	O	-0.926532	0.130527	-0.082652
O7	O	-1.186932	0.116572	-0.082642
Cu8	Cu	-1.056730	0.123549	-0.097748
Cu9	Cu	-1.056751	0.123559	0.097837
O10	O	-1.049756	0.253749	-0.082645
C11	C	-0.893216	0.129907	0.000038
C12	C	-0.793919	0.128034	0.000035
C13	C	-1.063091	-0.039970	0.000044
C14	C	-1.061217	-0.139267	0.000049
C15	C	-0.366223	0.119961	0.090204
C16	C	-0.459523	0.121717	0.090201
C17	C	-0.506159	0.122597	0.000048
C18	C	-0.459492	0.121711	-0.090109
C19	C	-0.366194	0.119948	-0.090105
C20	C	-0.653954	0.125387	-0.090111
C21	C	-0.747258	0.127151	-0.090115
C22	C	-0.747283	0.127156	0.090196
C23	C	-0.653985	0.125393	0.090199
C24	C	-0.607324	0.124509	0.000042
C25	C	-1.060348	-0.185907	0.090201
C26	C	-1.058582	-0.279206	0.090202
C27	C	-1.057691	-0.325864	0.000050
C28	C	-1.058557	-0.279217	-0.090109
C29	C	-1.060317	-0.185919	-0.090109
C30	C	-1.054891	-0.473681	-0.090102
C31	C	-1.053133	-0.566986	-0.090102
C32	C	-1.053156	-0.566968	0.090208
C33	C	-1.054916	-0.473670	0.090208
C34	C	-1.055784	-0.427029	0.000049
C35	C	-0.220265	0.117202	0.000051
C36	C	-0.319561	0.119078	0.000054
C37	C	-1.050390	0.287078	0.000047
C38	C	-1.052264	0.386374	0.000049
N39	N	-1.056723	0.123541	-0.235312
C40	C	-1.117483	0.062824	-0.287351
C41	C	-1.117488	0.062823	-0.391455
C42	C	-1.056737	0.123545	-0.443517
C43	C	-0.995971	0.184264	-0.391471
C44	C	-0.995962	0.184260	-0.287369
C45	C	-0.995996	0.184270	-0.608451
C46	C	-0.996006	0.184276	-0.712559
C47	C	-1.117522	0.062834	-0.712536
C48	C	-1.117513	0.062829	-0.608435
C49	C	-1.056747	0.123551	-0.556396
N50	N	-1.056766	0.123559	0.235402
H51	H	-0.497511	0.122431	0.163610
H52	H	-1.166963	0.013382	-0.433824
H53	H	-1.166957	0.013381	-0.244969
H54	H	-0.946535	0.233721	-0.754943
O55	O	-0.320750	0.119210	-0.177614
C56	C	-0.205381	0.194669	-0.282278
C57	C	-0.256759	0.195611	-0.183128
H58	H	-0.153645	0.256442	-0.286778
H59	H	-0.169756	0.131335	-0.286800
H60	H	-0.254759	0.195558	-0.346699
H61	H	-0.207440	0.194755	-0.118651
H62	H	-0.292398	0.258940	-0.178693
H63	H	-0.785279	0.127877	0.163605
H64	H	-1.061079	-0.147926	0.163613
O65	O	-1.176560	0.003761	-0.558013
C66	C	-1.297124	-0.116659	-0.568970
C67	C	-1.230290	-0.049824	-0.626195
H68	H	-1.340594	-0.159987	-0.624070
H69	H	-1.258502	-0.161470	-0.520277
H70	H	-1.341797	-0.077947	-0.520185
H71	H	-1.185600	-0.088463	-0.675034
H72	H	-1.268967	-0.005014	-0.674824
O73	O	-0.792431	0.127950	-0.177778
C74	C	-0.782563	0.127782	-0.356621
C75	C	-0.731296	0.126859	-0.257416
H76	H	-0.733156	0.126919	-0.421035
H77	H	-0.834337	0.066042	-0.361184
H78	H	-0.818152	0.191139	-0.361083
H79	H	-0.695654	0.063543	-0.252888
H80	H	-0.679573	0.188642	-0.252895
O81	O	-0.936937	0.243343	-0.558053
C82	C	-0.816384	0.363771	-0.569056
C83	C	-0.883225	0.296932	-0.626255
H84	H	-0.772928	0.407103	-0.624172
H85	H	-0.854999	0.408578	-0.520329
H86	H	-0.771697	0.325062	-0.520308
H87	H	-0.927929	0.335568	-0.675057
H88	H	-0.844554	0.252126	-0.674919
H89	H	-1.166999	0.013392	-0.754912
O90	O	-0.936908	0.243329	-0.236969
C91	C	-0.816346	0.363748	-0.247973
C92	C	-0.883195	0.296917	-0.305172
H93	H	-0.772889	0.407079	-0.303089
H94	H	-0.854956	0.408558	-0.199242
H95	H	-0.771661	0.325034	-0.199228
H96	H	-0.927896	0.335558	-0.353970
H97	H	-0.844529	0.252108	-0.353839
O98	O	-0.320862	0.119266	0.177755
C99	C	-0.205458	0.194678	0.282384
C100	C	-0.256769	0.195590	0.183206
H101	H	-0.153615	0.256369	0.286815
H102	H	-0.254791	0.195666	0.346856
H103	H	-0.169941	0.131278	0.286875
H104	H	-0.292289	0.258980	0.178618
H105	H	-0.207395	0.194554	0.118782
H106	H	-0.616015	0.124684	0.163611
H107	H	-1.061012	-0.147944	-0.163520
H108	H	-0.615964	0.124678	-0.163527
H109	H	-0.946502	0.233702	-0.433866
O110	O	-1.057820	-0.324384	0.177864
C111	C	-1.058065	-0.314526	0.356707
C112	C	-1.058930	-0.263252	0.257497
H113	H	-1.058943	-0.265120	0.421116
H114	H	-1.119819	-0.366285	0.361245
H115	H	-0.994721	-0.350133	0.361201
H116	H	-1.122232	-0.227591	0.252937
H117	H	-0.997133	-0.211543	0.253001
H118	H	-1.055648	-0.435684	0.163618
H119	H	-1.052448	-0.604947	0.163619
H120	H	-0.497471	0.122421	-0.163514
H121	H	-1.052400	-0.604971	-0.163512
O122	O	-1.055755	-0.428514	-0.177771
C123	C	-1.055463	-0.438361	-0.356614
C124	C	-1.054509	-0.489627	-0.257406
H125	H	-1.054436	-0.487746	-0.421025
H126	H	-1.118842	-0.402816	-0.361203
H127	H	-0.993746	-0.386550	-0.361054
H128	H	-1.116182	-0.541481	-0.252899
H129	H	-0.991089	-0.525110	-0.252859
H130	H	-1.057826	-0.317213	-0.163512
