data_functionalizedCrystal
_audit_creation_method	'MofGen! by Chris Wilmer'
_symmetry_space_group_name_H-M	'P1'
_symmetry_Int_Tables_number	1
_symmetry_cell_setting	triclinic
loop_
_symmetry_equiv_pos_as_xyz
  x,y,z
_cell_length_a	14.853567
_cell_length_b	14.853576
_cell_length_c	9.130307
_cell_angle_alpha	89.997762
_cell_angle_beta	90.001452
_cell_angle_gamma	83.636707
loop_
_atom_site_label
_atom_site_type_symbol
_atom_site_fract_x
_atom_site_fract_y
_atom_site_fract_z
O1	O	1.196365	0.117702	-0.121695
O2	O	0.933906	0.131724	-0.121720
O3	O	1.072142	-0.006516	-0.121701
O4	O	1.058129	0.255942	-0.121714
O5	O	1.072137	-0.006518	0.121898
O6	O	0.933901	0.131722	0.121879
O7	O	1.196360	0.117701	0.121904
Cu8	Cu	1.065130	0.124711	0.144134
Cu9	Cu	1.065136	0.124713	-0.143950
O10	O	1.058124	0.255941	0.121885
C11	C	0.900315	0.131088	0.000077
C12	C	0.800231	0.129184	0.000067
C13	C	0.387694	0.039018	0.000104
C14	C	0.366418	0.203251	0.000095
C15	C	0.460452	0.205041	0.000090
C16	C	0.518112	0.123818	0.000090
C17	C	0.481737	0.040806	0.000095
C18	C	0.496834	0.288052	0.000070
C19	C	0.590873	0.289845	0.000064
C20	C	0.648534	0.208622	0.000075
C21	C	0.612154	0.125606	0.000081
C22	C	0.669814	0.044384	0.000081
C23	C	0.633436	-0.038633	0.000098
C24	C	0.539398	-0.040417	0.000106
C25	C	0.742572	0.210406	0.000067
C26	C	0.763856	0.046171	0.000072
C27	C	1.071503	-0.040106	0.000097
C28	C	1.069596	-0.140189	0.000092
C29	C	1.068701	-0.187203	-0.132701
C30	C	1.068707	-0.187218	0.132880
C31	C	1.066920	-0.281252	0.132880
C32	C	1.066025	-0.328266	0.000088
C33	C	1.066917	-0.281246	-0.132705
C34	C	1.066037	-0.328280	0.265670
C35	C	1.064251	-0.422320	0.265676
C36	C	1.063350	-0.469335	0.132882
C37	C	1.064241	-0.422309	0.000084
C38	C	1.063346	-0.469324	-0.132709
C39	C	1.064230	-0.422299	-0.265508
C40	C	1.066016	-0.328261	-0.265499
C41	C	1.061565	-0.563372	0.132872
C42	C	1.061562	-0.563367	-0.132713
C43	C	1.229951	0.118337	0.000105
C44	C	1.330035	0.120241	0.000104
C45	C	1.058763	0.289530	0.000084
C46	C	1.060670	0.389613	0.000080
N47	N	1.065133	0.124710	0.346757
N48	N	1.065140	0.124708	-0.346573
C49	C	1.187591	0.002334	0.346764
C50	C	1.248826	-0.058852	0.423434
C51	C	1.248835	-0.058852	0.576767
C52	C	1.187601	0.002337	0.653434
C53	C	1.126366	0.063523	0.576764
C54	C	1.126365	0.063519	0.423427
C55	C	1.003905	0.185893	0.576757
C56	C	1.003899	0.185899	0.423424
C57	C	0.942671	0.247083	0.653424
C58	C	0.881439	0.308274	0.576754
C59	C	0.881433	0.308273	0.423412
C60	C	0.942664	0.247085	0.346754
H61	H	0.449881	0.354178	0.000055
H62	H	0.358071	-0.028572	0.000124
C63	C	1.369882	-0.179823	0.561389
C64	C	1.316139	-0.126112	0.661052
H65	H	1.411434	-0.221343	0.613426
H66	H	1.332318	-0.212322	0.501590
H67	H	1.402354	-0.142228	0.501576
H68	H	1.283662	-0.163707	0.720858
H69	H	1.353708	-0.093610	0.720876
H70	H	0.942668	0.247082	0.221902
H71	H	0.620483	0.357442	0.000050
H72	H	1.060826	-0.601638	-0.240850
C73	C	0.712091	0.372561	0.000044
C74	C	0.782559	0.301648	0.000050
H75	H	0.736779	0.428893	0.000043
H76	H	0.675857	0.368446	-0.084898
H77	H	0.675856	0.368445	0.084999
H78	H	0.818791	0.305761	-0.084912
H79	H	0.818809	0.305766	0.085000
C80	C	1.268314	-0.181466	0.250902
C81	C	1.316158	-0.126060	0.339114
H82	H	1.309890	-0.222940	0.198832
H83	H	1.230792	-0.214017	0.310695
H84	H	1.231823	-0.145015	0.183336
H85	H	1.352644	-0.162511	0.406687
H86	H	1.353696	-0.093507	0.279316
C87	C	0.760384	0.429236	0.438821
C88	C	0.814122	0.375533	0.339141
H89	H	0.718833	0.470764	0.386797
H90	H	0.727919	0.391642	0.498624
H91	H	0.797957	0.461734	0.498629
H92	H	0.776549	0.343030	0.279340
H93	H	0.846589	0.413132	0.279314
C94	C	0.986251	-0.441220	0.492033
C95	C	1.063261	-0.473995	0.411652
H96	H	0.985634	-0.473124	0.582150
H97	H	0.987456	-0.378494	0.511018
H98	H	0.933436	-0.449830	0.437448
H99	H	1.116077	-0.465379	0.466232
H100	H	1.062064	-0.536736	0.392671
H101	H	1.069418	-0.148911	-0.240823
H102	H	0.810798	-0.019971	0.000078
C103	C	0.645040	-0.201157	0.000100
C104	C	0.696820	-0.127912	0.000087
H105	H	0.684175	-0.256271	0.000081
H106	H	0.607933	-0.198446	0.085054
H107	H	0.607906	-0.198435	-0.084844
H108	H	0.733950	-0.130631	0.085036
H109	H	0.733943	-0.130625	-0.084876
H110	H	1.069442	-0.148934	0.240994
H111	H	1.063507	-0.460591	-0.373628
C112	C	1.068765	-0.184131	0.383584
C113	C	1.067021	-0.276602	0.411629
H114	H	1.069366	-0.152226	0.473698
H115	H	1.121582	-0.175526	0.329030
H116	H	1.016519	-0.161928	0.329023
H117	H	1.119270	-0.298808	0.466181
H118	H	1.014198	-0.285213	0.466206
C119	C	0.404694	-0.116076	0.000102
C120	C	0.499409	-0.131663	0.000108
H121	H	0.380006	-0.172408	0.000091
H122	H	0.384920	-0.082638	0.085045
H123	H	0.384921	-0.082625	-0.084852
H124	H	0.519182	-0.165109	0.085069
H125	H	0.519191	-0.165116	-0.084844
H126	H	1.060847	-0.601656	0.240996
H127	H	0.319467	0.269378	0.000083
H128	H	1.066739	-0.289966	-0.373617
H129	H	1.187597	0.002335	0.221912
C130	C	0.960950	0.332069	0.873058
C131	C	0.942674	0.247087	0.821971
H132	H	0.960945	0.332074	0.977112
H133	H	1.018575	0.344511	0.838373
H134	H	0.915712	0.377256	0.838353
H135	H	0.987915	0.201900	0.856667
H136	H	0.885040	0.234635	0.856671
C137	C	1.169325	-0.082651	0.873081
C138	C	1.187607	0.002329	0.821981
H139	H	1.169334	-0.082655	0.977135
H140	H	1.111697	-0.095088	0.838399
H141	H	1.214558	-0.127841	0.838382
H142	H	1.142370	0.047519	0.856671
H143	H	1.245243	0.014776	0.856678
H144	H	0.831582	0.358086	0.639186
