data_functionalizedCrystal
_audit_creation_method	'MofGen! by Chris Wilmer'
_symmetry_space_group_name_H-M	'P1'
_symmetry_Int_Tables_number	1
_symmetry_cell_setting	triclinic
loop_
_symmetry_equiv_pos_as_xyz
  x,y,z
_cell_length_a	10.723024
_cell_length_b	9.198806
_cell_length_c	19.188930
_cell_angle_alpha	89.991701
_cell_angle_beta	96.193675
_cell_angle_gamma	90.003648
loop_
_atom_site_label
_atom_site_type_symbol
_atom_site_fract_x
_atom_site_fract_y
_atom_site_fract_z
O1	O	1.655155	0.120901	-0.097922
O2	O	1.291808	0.120908	-0.107295
O3	O	1.483967	0.120876	-0.001021
O4	O	1.462996	0.120933	-0.204196
O5	O	1.483952	-0.120909	-0.001021
O6	O	1.291793	-0.120877	-0.107295
O7	O	1.655140	-0.120884	-0.097922
Cu8	Cu	1.473465	-0.142957	-0.102608
Cu9	Cu	1.473483	0.142982	-0.102609
O10	O	1.462981	-0.120852	-0.204196
C11	C	1.245315	0.000016	-0.106613
C12	C	1.106803	0.000017	-0.104572
N13	N	1.473462	-0.344071	-0.102608
C14	C	0.916362	0.000002	-0.041179
C15	C	1.059522	0.000001	-0.043287
C16	C	1.483280	-0.000021	0.024995
C17	C	1.481242	-0.000033	0.102512
C18	C	1.701633	0.000012	-0.098604
C19	C	1.840145	0.000020	-0.100645
C20	C	1.554148	-0.416282	-0.057789
C21	C	1.554167	-0.583694	-0.057787
N22	N	1.473496	0.344096	-0.102604
C23	C	1.463668	0.000048	-0.230211
C24	C	1.465706	0.000070	-0.307729
C25	C	1.593994	-0.000042	0.146704
C26	C	1.592079	-0.000019	0.219540
C27	C	1.477405	-0.000016	0.248182
C28	C	1.364638	0.000002	0.203981
C29	C	1.366556	-0.000007	0.131146
N30	N	1.389745	-0.082298	0.356756
N31	N	1.387930	-0.082293	0.425947
C32	C	1.471618	0.000014	0.467628
N33	N	1.557208	0.082297	0.437506
N34	N	1.559026	0.082285	0.368310
C35	C	1.475312	-0.000005	0.327158
C36	C	1.582302	0.000032	0.590797
C37	C	1.580382	0.000065	0.663634
C38	C	1.352937	0.000070	0.648073
C39	C	1.354860	0.000053	0.575238
C40	C	1.469546	0.000027	0.546604
H41	H	0.875629	-0.000034	0.011292
H42	H	1.125011	-0.000005	0.007620
H43	H	1.404393	-0.406188	-0.140974
Cl44	Cl	1.224798	0.000003	0.075588
Cl45	Cl	1.220476	0.000017	0.239986
H46	H	1.623250	-0.645792	-0.019419
Cl47	Cl	1.366842	-0.560046	-0.161854
H48	H	0.880878	0.000026	-0.153116
Cl49	Cl	1.738170	-0.000034	0.110711
Cl50	Cl	1.726475	-0.000009	0.554797
H51	H	1.041321	0.000038	-0.155482
Cl52	Cl	1.733836	-0.000029	0.275105
Cl53	Cl	1.660502	-0.320389	0.001610
Cl54	Cl	1.722142	0.000063	0.719191
Cl55	Cl	1.208773	0.000083	0.684073
Cl56	Cl	1.213105	0.000057	0.519680
