data_functionalizedCrystal
_audit_creation_method	'MofGen! by Chris Wilmer'
_symmetry_space_group_name_H-M	'P1'
_symmetry_Int_Tables_number	1
_symmetry_cell_setting	triclinic
loop_
_symmetry_equiv_pos_as_xyz
  x,y,z
_cell_length_a	15.944551
_cell_length_b	14.044220
_cell_length_c	12.503552
_cell_angle_alpha	86.160109
_cell_angle_beta	86.481026
_cell_angle_gamma	91.656192
loop_
_atom_site_label
_atom_site_type_symbol
_atom_site_fract_x
_atom_site_fract_y
_atom_site_fract_z
O1	O	0.198066	-1.263185	0.089211
O2	O	0.698066	-0.763185	0.589211
O3	O	0.190757	-0.987217	0.089238
O4	O	0.690757	-0.487217	0.589238
O5	O	0.072701	-1.132736	0.089214
O6	O	0.572701	-0.632736	0.589214
O7	O	0.316122	-1.117665	0.089235
O8	O	0.816122	-0.617665	0.589235
O9	O	0.081588	-1.121780	-0.089427
O10	O	0.581588	-0.621780	0.410573
O11	O	0.199643	-0.976260	-0.089403
O12	O	0.699643	-0.476260	0.410597
O13	O	0.206952	-1.252228	-0.089430
O14	O	0.706952	-0.752228	0.410570
Cu15	Cu	0.204109	-1.113244	-0.105728
Cu16	Cu	0.704109	-0.613244	0.394272
Cu17	Cu	0.193600	-1.126201	0.105535
Cu18	Cu	0.693600	-0.626201	0.605535
O19	O	0.325008	-1.106709	-0.089406
O20	O	0.825008	-0.606709	0.410594
C21	C	0.192001	-0.946424	-0.000079
C22	C	0.692001	-0.446424	0.499921
C23	C	0.182459	-0.841198	-0.000069
C24	C	0.682459	-0.341198	0.499931
C25	C	0.045804	-1.126632	-0.000107
C26	C	0.545804	-0.626632	0.499893
C27	C	-0.047583	-1.124756	-0.000107
C28	C	0.452417	-0.624756	0.499893
C29	C	0.205708	-1.293021	-0.000111
C30	C	0.705708	-0.793021	0.499889
C31	C	0.215249	-1.398247	-0.000114
C32	C	0.715249	-0.898247	0.499886
C33	C	-0.269530	-1.030073	-0.000083
C34	C	0.230470	-0.530073	0.499917
C35	C	-0.322874	-1.068639	-0.088168
C36	C	0.177126	-0.568639	0.411832
C37	C	-0.218563	-1.121363	-0.000099
C38	C	0.281437	-0.621363	0.499901
C39	C	-0.331617	-1.079463	0.087958
C40	C	0.168383	-0.579463	0.587958
C41	C	-0.383722	-1.118079	-0.000086
C42	C	0.116278	-0.618079	0.499914
C43	C	-0.270673	-1.159950	-0.088256
C44	C	0.229327	-0.659950	0.411744
C45	C	-0.279414	-1.170766	0.087949
C46	C	0.220586	-0.670766	0.587949
C47	C	-0.332734	-1.209396	-0.000158
C48	C	0.167266	-0.709396	0.499842
C49	C	-0.123419	-1.123252	-0.000107
C50	C	0.376581	-0.623252	0.499893
C51	C	-0.478865	-1.116197	-0.000085
C52	C	0.021135	-0.616197	0.499915
C53	C	0.351905	-1.112813	-0.000083
C54	C	0.851905	-0.612813	0.499917
C55	C	0.445291	-1.114689	-0.000076
C56	C	0.945291	-0.614689	0.499924
N57	N	0.211500	-1.104137	-0.254319
N58	N	0.711500	-0.604137	0.245681
C59	C	0.165017	-0.648534	-0.000092
C60	C	0.665017	-0.148534	0.499908
C61	C	0.232688	-0.590906	-0.000091
C62	C	0.732688	-0.090906	0.499909
C63	C	0.222983	-0.483701	-0.000104
C64	C	0.722983	0.016299	0.499896
C65	C	0.174721	-0.755749	-0.000079
C66	C	0.674721	-0.255749	0.499921
C67	C	0.175327	-1.148707	-0.526760
C68	C	0.675327	-0.648707	-0.026760
C69	C	0.222374	-1.090749	-0.473426
C70	C	0.722374	-0.590749	0.026574
C71	C	0.216322	-1.098200	-0.351504
C72	C	0.716322	-0.598200	0.148496
C73	C	0.181377	-1.141257	-0.648693
C74	C	0.681377	-0.641257	-0.148693
N75	N	0.186203	-1.135315	0.254127
N76	N	0.686203	-0.635315	0.754127
H77	H	-0.241893	-0.954293	-0.000164
H78	H	0.258107	-0.454293	0.499836
C79	C	-0.369863	-1.311847	-0.000238
C80	C	0.130137	-0.811847	0.499762
N81	N	-0.397832	-1.389011	-0.000304
N82	N	0.102168	-0.889011	0.499696
H83	H	-0.358290	-1.045406	0.162432
H84	H	0.141710	-0.545406	0.662432
H85	H	0.099799	-0.617360	-0.000104
H86	H	0.599799	-0.117360	0.499896
H87	H	0.297911	-0.622081	-0.000080
H88	H	0.797911	-0.122081	0.499920
C89	C	-0.253317	-1.229054	0.188549
C90	C	0.246683	-0.729054	0.688549
N91	N	-0.233659	-1.272950	0.264330
N92	N	0.266341	-0.772950	0.764330
H93	H	-0.342169	-1.025460	-0.162629
H94	H	0.157831	-0.525460	0.337371
H95	H	0.267197	-1.035535	-0.519333
H96	H	0.767197	-0.535535	-0.019333
H97	H	-0.244085	-1.193957	-0.162807
H98	H	0.255915	-0.693957	0.337193
C99	C	0.114770	-1.223287	-0.464745
C100	C	0.614770	-0.723287	0.035255
N101	N	0.069157	-1.279460	-0.418023
N102	N	0.569157	-0.779460	0.081977
