data_functionalizedCrystal
_audit_creation_method	'MofGen! by Chris Wilmer'
_symmetry_space_group_name_H-M	'P1'
_symmetry_Int_Tables_number	1
_symmetry_cell_setting	triclinic
loop_
_symmetry_equiv_pos_as_xyz
  x,y,z
_cell_length_a	27.732064
_cell_length_b	27.732046
_cell_length_c	10.065875
_cell_angle_alpha	81.290399
_cell_angle_beta	81.333551
_cell_angle_gamma	97.354298
loop_
_atom_site_label
_atom_site_type_symbol
_atom_site_fract_x
_atom_site_fract_y
_atom_site_fract_z
O1	O	0.648033	-0.050412	-0.113263
O2	O	0.898033	0.199588	0.136737
O3	O	1.148033	0.449588	0.386737
O4	O	1.398033	0.699588	0.636737
O5	O	0.507244	-0.059145	-0.113322
O6	O	0.757244	0.190855	0.136678
O7	O	1.007244	0.440855	0.386678
O8	O	1.257244	0.690855	0.636678
O9	O	0.582010	0.015616	-0.113260
O10	O	0.832010	0.265616	0.136740
O11	O	1.082010	0.515616	0.386740
O12	O	1.332010	0.765616	0.636740
O13	O	0.573267	-0.125173	-0.113325
O14	O	0.823267	0.124827	0.136675
O15	O	1.073267	0.374827	0.386675
O16	O	1.323267	0.624827	0.636675
O17	O	0.567752	0.001303	0.113717
O18	O	0.817752	0.251303	0.363717
O19	O	1.067752	0.501303	0.613717
O20	O	1.317752	0.751303	0.863717
O21	O	0.492987	-0.073458	0.113655
O22	O	0.742987	0.176542	0.363655
O23	O	0.992987	0.426542	0.613655
O24	O	1.242987	0.676542	0.863655
O25	O	0.633776	-0.064725	0.113714
O26	O	0.883776	0.185275	0.363714
O27	O	1.133776	0.435275	0.613714
O28	O	1.383776	0.685275	0.863714
Zn29	Zn	0.561118	-0.071364	0.149722
Zn30	Zn	0.811118	0.178636	0.399722
Zn31	Zn	1.061118	0.428636	0.649722
Zn32	Zn	1.311118	0.678636	0.899722
Zn33	Zn	0.579902	-0.052506	-0.149330
Zn34	Zn	0.829902	0.197494	0.100670
Zn35	Zn	1.079902	0.447494	0.350670
Zn36	Zn	1.329902	0.697494	0.600670
O37	O	0.559010	-0.139486	0.113652
O38	O	0.809010	0.110514	0.363652
O39	O	1.059010	0.360514	0.613652
O40	O	1.309010	0.610514	0.863652
C41	C	0.482109	-0.066117	0.000159
C42	C	0.732109	0.183883	0.250159
C43	C	0.982109	0.433883	0.500159
C44	C	1.232109	0.683883	0.750159
C45	C	0.428456	-0.065559	0.000138
C46	C	0.678456	0.184441	0.250138
C47	C	0.928456	0.434441	0.500138
C48	C	1.178456	0.684441	0.750138
C49	C	0.051377	-0.017598	0.000238
C50	C	0.301377	0.232402	0.250238
C51	C	0.551377	0.482402	0.500238
C52	C	0.801377	0.732402	0.750238
C53	C	0.253040	-0.019642	0.000202
C54	C	0.503040	0.230358	0.250202
C55	C	0.753040	0.480358	0.500202
C56	C	1.003040	0.730358	0.750202
O57	O	0.284288	0.017574	0.000270
O58	O	0.534288	0.267574	0.250270
O59	O	0.784288	0.517574	0.500270
O60	O	1.034288	0.767574	0.750270
N61	N	0.272169	-0.063975	0.000175
N62	N	0.522169	0.186025	0.250175
N63	N	0.772169	0.436025	0.500175
N64	N	1.022169	0.686025	0.750175
C65	C	0.240878	-0.107800	0.000167
C66	C	0.490878	0.142200	0.250167
C67	C	0.740878	0.392200	0.500167
C68	C	0.990878	0.642200	0.750167
O69	O	0.261775	-0.145556	0.000157
O70	O	0.511775	0.104444	0.250157
O71	O	0.761775	0.354444	0.500157
O72	O	1.011775	0.604444	0.750157
C73	C	0.039216	-0.105756	0.000213
C74	C	0.289216	0.144244	0.250213
C75	C	0.539216	0.394244	0.500213
C76	C	0.789216	0.644244	0.750213
C77	C	0.020091	-0.061420	0.000226
C78	C	0.270091	0.188580	0.250226
C79	C	0.520091	0.438580	0.500226
C80	C	0.770091	0.688580	0.750226
C81	C	0.032252	0.026734	0.000252
C82	C	0.282252	0.276734	0.250252
C83	C	0.532252	0.526734	0.500252
C84	C	0.782252	0.776734	0.750252
C85	C	-0.018161	0.027245	0.000254
C86	C	0.231839	0.277245	0.250254
C87	C	0.481839	0.527245	0.500254
C88	C	0.731839	0.777245	0.750254
C89	C	-0.049447	-0.016576	0.000242
C90	C	0.200553	0.233424	0.250242
C91	C	0.450553	0.483424	0.500242
C92	C	0.700553	0.733424	0.750242
C93	C	-0.030321	-0.060909	0.000227
C94	C	0.219679	0.189091	0.250227
C95	C	0.469679	0.439091	0.500227
C96	C	0.719679	0.689091	0.750227
C97	C	0.007925	-0.149582	0.000214
C98	C	0.257925	0.100418	0.250214
C99	C	0.507925	0.350418	0.500214
C100	C	0.757925	0.600418	0.750214
C101	C	-0.042493	-0.149067	0.000229
C102	C	0.207507	0.100933	0.250229
C103	C	0.457507	0.350933	0.500229
C104	C	0.707507	0.600933	0.750229
C105	C	-0.061618	-0.104731	0.000242
C106	C	0.188382	0.145269	0.250242
C107	C	0.438382	0.395269	0.500242
C108	C	0.688382	0.645269	0.750242
C109	C	-0.112020	-0.104220	0.000216
C110	C	0.137980	0.145780	0.250216
C111	C	0.387980	0.395780	0.500216
C112	C	0.637980	0.645780	0.750216
N113	N	-0.131149	-0.059887	0.000243
N114	N	0.118851	0.190113	0.250243
N115	N	0.368851	0.440113	0.500243
N116	N	0.618851	0.690113	0.750243
C117	C	-0.099863	-0.016065	0.000256
C118	C	0.150137	0.233935	0.250256
C119	C	0.400137	0.483935	0.500256
C120	C	0.650137	0.733935	0.750256
C121	C	0.346754	-0.108870	0.000140
C122	C	0.596754	0.141130	0.250140
C123	C	0.846754	0.391130	0.500140
C124	C	1.096754	0.641130	0.750140
C125	C	0.397170	-0.109381	0.000126
C126	C	0.647170	0.140619	0.250126
C127	C	0.897170	0.390619	0.500126
C128	C	1.147170	0.640619	0.750126
C129	C	0.409328	-0.021223	0.000163
C130	C	0.659328	0.228777	0.250163
C131	C	0.909328	0.478777	0.500163
C132	C	1.159328	0.728777	0.750163
C133	C	0.358912	-0.020712	0.000168
C134	C	0.608912	0.229288	0.250168
C135	C	0.858912	0.479288	0.500168
C136	C	1.108912	0.729288	0.750168
C137	C	0.327625	-0.064537	0.000166
C138	C	0.577625	0.185463	0.250166
C139	C	0.827625	0.435463	0.500166
C140	C	1.077625	0.685463	0.750166
C141	C	-0.205732	-0.014996	0.000258
C142	C	0.044268	0.235004	0.250258
C143	C	0.294268	0.485004	0.500258
C144	C	0.544268	0.735004	0.750258
C145	C	-0.256149	-0.014488	0.000254
C146	C	-0.006149	0.235512	0.250254
C147	C	0.243851	0.485512	0.500254
C148	C	0.493851	0.735512	0.750254
C149	C	-0.268303	-0.102646	0.000223
C150	C	-0.018303	0.147354	0.250223
C151	C	0.231697	0.397354	0.500223
C152	C	0.481697	0.647354	0.750223
C153	C	-0.217891	-0.103154	0.000220
C154	C	0.032109	0.146846	0.250220
C155	C	0.282109	0.396846	0.500220
C156	C	0.532109	0.646846	0.750220
C157	C	-0.186606	-0.059325	0.000242
C158	C	0.063394	0.190675	0.250242
C159	C	0.313394	0.440675	0.500242
C160	C	0.563394	0.690675	0.750242
O161	O	-0.143298	-0.141418	0.000164
O162	O	0.106702	0.108582	0.250164
O163	O	0.356702	0.358582	0.500164
O164	O	0.606702	0.608582	0.750164
O165	O	-0.120771	0.021683	0.000295
O166	O	0.129229	0.271683	0.250295
O167	O	0.379229	0.521683	0.500295
O168	O	0.629229	0.771683	0.750295
C169	C	0.101790	-0.018109	0.000237
C170	C	0.351790	0.231891	0.250237
C171	C	0.601790	0.481891	0.500237
C172	C	0.851790	0.731891	0.750237
C173	C	0.120915	-0.062442	0.000222
C174	C	0.370915	0.187558	0.250222
C175	C	0.620915	0.437558	0.500222
C176	C	0.870915	0.687558	0.750222
C177	C	0.089629	-0.106264	0.000210
C178	C	0.339629	0.143736	0.250210
C179	C	0.589629	0.393736	0.500210
C180	C	0.839629	0.643736	0.750210
C181	C	0.171331	-0.062953	0.000208
C182	C	0.421331	0.187047	0.250208
C183	C	0.671331	0.437047	0.500208
C184	C	0.921331	0.687047	0.750208
C185	C	0.202617	-0.019131	0.000221
C186	C	0.452617	0.230869	0.250221
C187	C	0.702617	0.480869	0.500221
C188	C	0.952617	0.730869	0.750221
C189	C	0.183488	0.025201	0.000247
C190	C	0.433488	0.275201	0.250247
C191	C	0.683488	0.525201	0.500247
C192	C	0.933488	0.775201	0.750247
C193	C	0.133076	0.025712	0.000249
C194	C	0.383076	0.275712	0.250249
C195	C	0.633076	0.525712	0.500249
C196	C	0.883076	0.775712	0.750249
C197	C	0.108757	-0.150596	0.000183
C198	C	0.358757	0.099404	0.250183
C199	C	0.608757	0.349404	0.500183
C200	C	0.858757	0.599404	0.750183
C201	C	0.159170	-0.151104	0.000180
C202	C	0.409170	0.098896	0.250180
C203	C	0.659170	0.348896	0.500180
C204	C	0.909170	0.598896	0.750180
C205	C	0.190457	-0.107282	0.000193
C206	C	0.440457	0.142718	0.250193
C207	C	0.690457	0.392718	0.500193
C208	C	0.940457	0.642718	0.750193
C209	C	0.574697	0.026466	0.000233
C210	C	0.824697	0.276466	0.250233
C211	C	1.074697	0.526466	0.500233
C212	C	1.324697	0.776466	0.750233
C213	C	0.574144	0.080120	0.000248
C214	C	0.824144	0.330120	0.250248
C215	C	1.074144	0.580120	0.500248
C216	C	1.324144	0.830120	0.750248
C217	C	0.614851	0.418935	0.000217
C218	C	0.864851	0.668935	0.250217
C219	C	1.114851	0.918935	0.500217
C220	C	1.364851	1.168935	0.750217
C221	C	0.612802	0.620595	0.000211
C222	C	0.862802	0.870595	0.250211
C223	C	1.112802	1.120595	0.500211
C224	C	1.362802	1.370595	0.750211
O225	O	0.650025	0.651851	0.000168
O226	O	0.900025	0.901851	0.250168
O227	O	1.150025	1.151851	0.500168
O228	O	1.400025	1.401851	0.750168
N229	N	0.568468	0.639723	0.000195
N230	N	0.818468	0.889723	0.250195
N231	N	1.068468	1.139723	0.500195
N232	N	1.318468	1.389723	0.750195
C233	C	0.524644	0.608432	0.000172
C234	C	0.774644	0.858432	0.250172
C235	C	1.024644	1.108432	0.500172
C236	C	1.274644	1.358432	0.750172
O237	O	0.486889	0.629329	0.000144
O238	O	0.736889	0.879329	0.250144
O239	O	0.986889	1.129329	0.500144
O240	O	1.236889	1.379329	0.750144
C241	C	0.526695	0.406773	0.000168
C242	C	0.776695	0.656773	0.250168
C243	C	1.026695	0.906773	0.500168
C244	C	1.276695	1.156773	0.750168
C245	C	0.571030	0.387648	0.000198
C246	C	0.821030	0.637648	0.250198
C247	C	1.071030	0.887648	0.500198
C248	C	1.321030	1.137648	0.750198
C249	C	0.659183	0.399809	0.000245
C250	C	0.909183	0.649809	0.250245
C251	C	1.159183	0.899809	0.500245
C252	C	1.409183	1.149809	0.750245
C253	C	0.659695	0.349397	0.000254
C254	C	0.909695	0.599397	0.250254
C255	C	1.159695	0.849397	0.500254
C256	C	1.409695	1.099397	0.750254
C257	C	0.615874	0.318110	0.000235
C258	C	0.865874	0.568110	0.250235
C259	C	1.115874	0.818110	0.500235
C260	C	1.365874	1.068110	0.750235
C261	C	0.571542	0.337236	0.000207
C262	C	0.821542	0.587236	0.250207
C263	C	1.071542	0.837236	0.500207
C264	C	1.321542	1.087236	0.750207
C265	C	0.482872	0.375484	0.000136
C266	C	0.732872	0.625484	0.250136
C267	C	0.982872	0.875484	0.500136
C268	C	1.232872	1.125484	0.750136
C269	C	0.483389	0.325067	0.000131
C270	C	0.733389	0.575067	0.250131
C271	C	0.983389	0.825067	0.500131
C272	C	1.233389	1.075067	0.750131
C273	C	0.527724	0.305942	0.000161
C274	C	0.777724	0.555942	0.250161
C275	C	1.027724	0.805942	0.500161
C276	C	1.277724	1.055942	0.750161
C277	C	0.528232	0.255536	0.000197
C278	C	0.778232	0.505536	0.250197
C279	C	1.028232	0.755536	0.500197
C280	C	1.278232	1.005536	0.750197
N281	N	0.572566	0.236409	0.000213
N282	N	0.822566	0.486409	0.250213
N283	N	1.072566	0.736409	0.500213
N284	N	1.322566	0.986409	0.750213
C285	C	0.616387	0.267696	0.000232
C286	C	0.866387	0.517696	0.250232
C287	C	1.116387	0.767696	0.500232
C288	C	1.366387	1.017696	0.750232
C289	C	0.523571	0.714306	0.000176
C290	C	0.773571	0.964306	0.250176
C291	C	1.023571	1.214306	0.500176
C292	C	1.273571	1.464306	0.750176
C293	C	0.523058	0.764720	0.000180
C294	C	0.773058	1.014720	0.250180
C295	C	1.023058	1.264720	0.500180
C296	C	1.273058	1.514720	0.750180
C297	C	0.611216	0.776880	0.000216
C298	C	0.861216	1.026880	0.250216
C299	C	1.111216	1.276880	0.500216
C300	C	1.361216	1.526880	0.750216
C301	C	0.611727	0.726464	0.000222
C302	C	0.861727	0.976464	0.250222
C303	C	1.111727	1.226464	0.500222
C304	C	1.361727	1.476464	0.750222
C305	C	0.567904	0.695179	0.000192
C306	C	0.817904	0.945179	0.250192
C307	C	1.067904	1.195179	0.500192
C308	C	1.317904	1.445179	0.750192
C309	C	0.617457	0.161825	0.000252
C310	C	0.867457	0.411825	0.250252
C311	C	1.117457	0.661825	0.500252
C312	C	1.367457	0.911825	0.750252
C313	C	0.617965	0.111407	0.000267
C314	C	0.867965	0.361407	0.250267
C315	C	1.117965	0.611407	0.500267
C316	C	1.367965	0.861407	0.750267
C317	C	0.529807	0.099252	0.000223
C318	C	0.779807	0.349252	0.250223
C319	C	1.029807	0.599252	0.500223
C320	C	1.279807	0.849252	0.750223
C321	C	0.529299	0.149665	0.000216
C322	C	0.779299	0.399665	0.250216
C323	C	1.029299	0.649665	0.500216
C324	C	1.279299	0.899665	0.750216
C325	C	0.573129	0.180951	0.000226
C326	C	0.823129	0.430951	0.250226
C327	C	1.073129	0.680951	0.500226
C328	C	1.323129	0.930951	0.750226
O329	O	0.491030	0.224253	0.000224
O330	O	0.741030	0.474253	0.250224
O331	O	0.991030	0.724253	0.500224
O332	O	1.241030	0.974253	0.750224
O333	O	0.654138	0.246791	0.000229
O334	O	0.904138	0.496791	0.250229
O335	O	1.154138	0.746791	0.500229
O336	O	1.404138	0.996791	0.750229
C337	C	0.614340	0.469348	0.000208
C338	C	0.864340	0.719348	0.250208
C339	C	1.114340	0.969348	0.500208
C340	C	1.364340	1.219348	0.750208
C341	C	0.570008	0.488473	0.000180
C342	C	0.820008	0.738473	0.250180
C343	C	1.070008	0.988473	0.500180
C344	C	1.320008	1.238473	0.750180
C345	C	0.526187	0.457186	0.000161
C346	C	0.776187	0.707186	0.250161
C347	C	1.026187	0.957186	0.500161
C348	C	1.276187	1.207186	0.750161
C349	C	0.569495	0.538888	0.000183
C350	C	0.819495	0.788888	0.250183
C351	C	1.069495	1.038888	0.500183
C352	C	1.319495	1.288888	0.750183
C353	C	0.613315	0.570174	0.000202
C354	C	0.863315	0.820174	0.250202
C355	C	1.113315	1.070174	0.500202
C356	C	1.363315	1.320174	0.750202
C357	C	0.657649	0.551047	0.000218
C358	C	0.907649	0.801047	0.250218
C359	C	1.157649	1.051047	0.500218
C360	C	1.407649	1.301047	0.750218
C361	C	0.658161	0.500635	0.000227
C362	C	0.908161	0.750635	0.250227
C363	C	1.158161	1.000635	0.500227
C364	C	1.408161	1.250635	0.750227
C365	C	0.481853	0.476314	0.000145
C366	C	0.731853	0.726314	0.250145
C367	C	0.981853	0.976314	0.500145
C368	C	1.231853	1.226314	0.750145
C369	C	0.481345	0.526727	0.000138
C370	C	0.731345	0.776727	0.250138
C371	C	0.981345	1.026727	0.500138
C372	C	1.231345	1.276727	0.750138
C373	C	0.525166	0.558014	0.000157
C374	C	0.775166	0.808014	0.250157
C375	C	1.025166	1.058014	0.500157
C376	C	1.275166	1.308014	0.750157
C377	C	0.658911	-0.057753	0.000229
C378	C	0.908911	0.192247	0.250229
C379	C	1.158911	0.442247	0.500229
C380	C	1.408911	0.692247	0.750229
C381	C	0.712564	-0.058310	0.000241
C382	C	0.962564	0.191690	0.250241
C383	C	1.212564	0.441690	0.500241
C384	C	1.462564	0.691690	0.750241
N385	N	0.548301	-0.084233	0.353817
N386	N	0.798301	0.165767	0.603817
N387	N	1.048301	0.415767	0.853817
N388	N	1.298301	0.665767	1.103817
C389	C	0.566323	0.849663	0.000172
C390	C	0.816323	1.099663	0.250172
C391	C	1.066323	1.349663	0.500172
C392	C	1.316323	1.599663	0.750172
C393	C	0.566878	0.796007	0.000199
C394	C	0.816878	1.046007	0.250199
C395	C	1.066878	1.296007	0.500199
C396	C	1.316878	1.546007	0.750199
N397	N	0.592722	-0.039633	-0.353425
N398	N	0.842722	0.210367	-0.103425
N399	N	1.092722	0.460367	0.146575
N400	N	1.342722	0.710367	0.396575
C401	C	0.575440	-0.056981	0.421618
C402	C	0.825440	0.193019	0.671618
C403	C	1.075440	0.443019	0.921618
C404	C	1.325440	0.693019	1.171618
C405	C	0.565580	-0.066889	0.578777
C406	C	0.815580	0.183111	0.828777
C407	C	1.065580	0.433111	1.078777
C408	C	1.315580	0.683111	1.328777
H409	H	-0.271717	0.021618	0.000261
H410	H	-0.021717	0.271618	0.250261
H411	H	0.228283	0.521618	0.500261
H412	H	0.478283	0.771618	0.750261
H413	H	0.653148	0.187293	0.000255
H414	H	0.903148	0.437293	0.250255
H415	H	1.153148	0.687293	0.500255
H416	H	1.403148	0.937293	0.750255
H417	H	-0.293785	-0.138324	0.000206
H418	H	-0.043785	0.111676	0.250206
H419	H	0.206215	0.361676	0.500206
H420	H	0.456215	0.611676	0.750206
H421	H	0.654069	0.095838	0.000294
H422	H	0.904069	0.345838	0.250294
H423	H	1.154069	0.595838	0.500294
H424	H	1.404069	0.845838	0.750294
H425	H	0.343344	0.015391	0.000179
H426	H	0.593344	0.265391	0.250179
H427	H	0.843344	0.515391	0.500179
H428	H	1.093344	0.765391	0.750179
H429	H	0.694263	0.485068	0.000251
H430	H	0.944263	0.735068	0.250251
H431	H	1.194263	0.985068	0.500251
H432	H	1.444263	1.235068	0.750251
N433	N	0.313028	-0.156153	0.000145
N434	N	0.563028	0.093847	0.250145
N435	N	0.813028	0.343847	0.500145
N436	N	1.063028	0.593847	0.750145
H437	H	0.297113	-0.152618	-0.083984
H438	H	0.547113	0.097382	0.166016
H439	H	0.797113	0.347382	0.416016
H440	H	1.047113	0.597382	0.666016
H441	H	0.286592	-0.163196	0.084353
H442	H	0.536592	0.086804	0.334353
H443	H	0.786592	0.336804	0.584353
H444	H	1.036592	0.586804	0.834353
H445	H	0.517765	-0.114899	0.412117
H446	H	0.767765	0.135101	0.662117
H447	H	1.017765	0.385101	0.912117
H448	H	1.267765	0.635101	1.162117
H449	H	0.486954	0.780286	0.000179
H450	H	0.736954	1.030286	0.250179
H451	H	0.986954	1.280286	0.500179
H452	H	1.236954	1.530286	0.750179
N453	N	0.434587	0.442572	0.000123
N454	N	0.684587	0.692572	0.250123
N455	N	0.934587	0.942572	0.500123
N456	N	1.184587	1.192572	0.750123
H457	H	0.406427	0.462344	0.000112
H458	H	0.656427	0.712344	0.250112
H459	H	0.906427	0.962344	0.500112
H460	H	1.156427	1.212344	0.750112
H461	H	0.427592	0.416091	0.084272
H462	H	0.677592	0.666091	0.334272
H463	H	0.927592	0.916091	0.584272
H464	H	1.177592	1.166091	0.834272
N465	N	0.704914	0.584800	0.000226
N466	N	0.954914	0.834800	0.250226
N467	N	1.204914	1.084800	0.500226
N468	N	1.454914	1.334800	0.750226
H469	H	0.733081	0.565038	0.000239
H470	H	0.983081	0.815038	0.250239
H471	H	1.233081	1.065038	0.500239
H472	H	1.483081	1.315038	0.750239
H473	H	0.701335	0.600683	0.084366
H474	H	0.951335	0.850683	0.334366
H475	H	1.201335	1.100683	0.584366
H476	H	1.451335	1.350683	0.834366
N477	N	0.179796	-0.198926	0.000145
N478	N	0.429796	0.051074	0.250145
N479	N	0.679796	0.301074	0.500145
N480	N	0.929796	0.551074	0.750145
H481	H	0.152322	-0.226606	0.000138
H482	H	0.402322	0.023394	0.250138
H483	H	0.652322	0.273394	0.500138
H484	H	0.902322	0.523394	0.750138
H485	H	0.195167	-0.206365	0.084287
H486	H	0.445167	0.043635	0.334287
H487	H	0.695167	0.293635	0.584287
H488	H	0.945167	0.543635	0.834287
H489	H	0.412737	-0.145483	0.000096
H490	H	0.662737	0.104517	0.250096
H491	H	0.912737	0.354517	0.500096
H492	H	1.162737	0.604517	0.750096
H493	H	-0.067965	-0.184757	0.000235
H494	H	0.182035	0.065243	0.250235
H495	H	0.432035	0.315243	0.500235
H496	H	0.682035	0.565243	0.750235
H497	H	0.695798	0.333830	0.000273
H498	H	0.945798	0.583830	0.250273
H499	H	1.195798	0.833830	0.500273
H500	H	1.445798	1.083830	0.750273
N501	N	0.476301	0.680565	0.000146
N502	N	0.726301	0.930565	0.250146
N503	N	0.976301	1.180565	0.500146
N504	N	1.226301	1.430565	0.750146
H505	H	0.448142	0.700337	0.000141
H506	H	0.698142	0.950337	0.250141
H507	H	0.948142	1.200337	0.500141
H508	H	1.198142	1.450337	0.750141
H509	H	0.469306	0.654081	0.084289
H510	H	0.719306	0.904081	0.334289
H511	H	0.969306	1.154081	0.584289
H512	H	1.219306	1.404081	0.834289
N513	N	0.706449	0.433552	0.000275
N514	N	0.956449	0.683552	0.250275
N515	N	1.206449	0.933552	0.500275
N516	N	1.456449	1.183552	0.750275
H517	H	0.731096	0.432736	-0.083851
H518	H	0.981096	0.682736	0.166149
H519	H	1.231096	0.932736	0.416149
H520	H	1.481096	1.182736	0.666149
H521	H	0.720475	0.422108	0.084485
H522	H	0.970475	0.672108	0.334485
H523	H	1.220475	0.922108	0.584485
H524	H	1.470475	1.172108	0.834485
N525	N	0.436118	0.291323	0.000137
N526	N	0.686118	0.541323	0.250137
N527	N	0.936118	0.791323	0.500137
N528	N	1.186118	1.041323	0.750137
H529	H	0.443165	0.256481	0.000152
H530	H	0.693165	0.506481	0.250152
H531	H	0.943165	0.756481	0.500152
H532	H	1.193165	1.006481	0.750152
H533	H	0.422061	0.302777	-0.084011
H534	H	0.672061	0.552777	0.165989
H535	H	0.922061	0.802777	0.415989
H536	H	1.172061	1.052777	0.665989
H537	H	0.535042	-0.097557	0.637073
H538	H	0.785042	0.152443	0.887073
H539	H	1.035042	0.402443	1.137073
H540	H	1.285042	0.652443	1.387073
N541	N	-0.171994	0.032275	0.000286
N542	N	0.078006	0.282275	0.250286
N543	N	0.328006	0.532275	0.500286
N544	N	0.578006	0.782275	0.750286
H545	H	-0.191767	0.060434	0.000294
H546	H	0.058233	0.310434	0.250294
H547	H	0.308233	0.560434	0.500294
H548	H	0.558233	0.810434	0.750294
H549	H	-0.145532	0.039291	-0.083858
H550	H	0.104468	0.289291	0.166142
H551	H	0.354468	0.539291	0.416142
H552	H	0.604468	0.789291	0.666142
H553	H	0.117510	0.061816	0.000260
H554	H	0.367510	0.311816	0.250260
H555	H	0.617510	0.561816	0.500260
H556	H	0.867510	0.811816	0.750260
N557	N	0.659546	0.705838	0.000255
N558	N	0.909546	0.955838	0.250255
N559	N	1.159546	1.205838	0.500255
N560	N	1.409546	1.455838	0.750255
H561	H	0.687225	0.733312	0.000272
H562	H	0.937225	0.983312	0.250272
H563	H	1.187225	1.233312	0.500272
H564	H	1.437225	1.483312	0.750272
H565	H	0.666968	0.690489	-0.083890
H566	H	0.916968	0.940489	0.166110
H567	H	1.166968	1.190489	0.416110
H568	H	1.416968	1.440489	0.666110
H569	H	0.494129	0.073769	0.000213
H570	H	0.744129	0.323769	0.250213
H571	H	0.994129	0.573769	0.500213
H572	H	1.244129	0.823769	0.750213
N573	N	0.633169	0.000996	0.569373
N574	N	0.883169	0.250996	0.819373
N575	N	1.133169	0.500996	1.069373
N576	N	1.383169	0.750996	1.319373
H577	H	0.634480	0.002317	0.468047
H578	H	0.884480	0.252317	0.718047
H579	H	1.134480	0.502317	0.968047
H580	H	1.384480	0.752317	1.218047
H581	H	0.665891	-0.005817	0.594268
H582	H	0.915891	0.244183	0.844268
H583	H	1.165891	0.494183	1.094268
H584	H	1.415891	0.744183	1.344268
H585	H	-0.033727	0.063348	0.000270
H586	H	0.216273	0.313348	0.250270
H587	H	0.466273	0.563348	0.500270
H588	H	0.716273	0.813348	0.750270
N589	N	0.658480	0.810630	0.000240
N590	N	0.908480	1.060630	0.250240
N591	N	1.158480	1.310630	0.500240
N592	N	1.408480	1.560630	0.750240
H593	H	0.651424	0.845468	0.000238
H594	H	0.901424	1.095468	0.250238
H595	H	1.151424	1.345468	0.500238
H596	H	1.401424	1.595468	0.750238
H597	H	0.683102	0.809777	-0.083900
H598	H	0.933102	1.059777	0.166100
H599	H	1.183102	1.309777	0.416100
H600	H	1.433102	1.559777	0.666100
H601	H	0.493195	0.165235	0.000230
H602	H	0.743195	0.415235	0.250230
H603	H	0.993195	0.665235	0.500230
H604	H	1.243195	0.915235	0.750230
N605	N	0.065992	0.074003	0.000276
N606	N	0.315992	0.324003	0.250276
N607	N	0.565992	0.574003	0.500276
N608	N	0.815992	0.824003	0.750276
H609	H	0.046217	0.102160	0.000290
H610	H	0.296217	0.352160	0.250290
H611	H	0.546217	0.602160	0.500290
H612	H	0.796217	0.852160	0.750290
H613	H	0.092452	0.081020	-0.083873
H614	H	0.342452	0.331020	0.166127
H615	H	0.592452	0.581020	0.416127
H616	H	0.842452	0.831020	0.666127
H617	H	0.605972	-0.026311	0.363319
H618	H	0.855972	0.223689	0.613319
H619	H	1.105972	0.473689	0.863319
H620	H	1.355972	0.723689	1.113319
N621	N	0.443077	0.026043	0.000176
N622	N	0.693077	0.276043	0.250176
N623	N	0.943077	0.526043	0.500176
N624	N	1.193077	0.776043	0.750176
H625	H	0.477916	0.018987	0.000166
H626	H	0.727916	0.268987	0.250166
H627	H	0.977916	0.518987	0.500166
H628	H	1.227916	0.768987	0.750166
H629	H	0.431643	0.040073	0.084335
H630	H	0.681643	0.290073	0.334335
H631	H	0.931643	0.540073	0.584335
H632	H	1.181643	0.790073	0.834335
N633	N	0.028546	-0.197401	0.000186
N634	N	0.278546	0.052599	0.250186
N635	N	0.528546	0.302599	0.500186
N636	N	0.778546	0.552599	0.750186
H637	H	0.001069	-0.225080	0.000184
H638	H	0.251069	0.024920	0.250184
H639	H	0.501069	0.274920	0.500184
H640	H	0.751069	0.524920	0.750184
H641	H	0.043919	-0.204843	0.084323
H642	H	0.293919	0.045157	0.334323
H643	H	0.543919	0.295157	0.584323
H644	H	0.793919	0.545157	0.834323
H645	H	0.208971	0.060883	0.000250
H646	H	0.458971	0.310883	0.250250
H647	H	0.708971	0.560883	0.500250
H648	H	0.958971	0.810883	0.750250
N649	N	-0.197258	-0.150971	0.000187
N650	N	0.052742	0.099029	0.250187
N651	N	0.302742	0.349029	0.500187
N652	N	0.552742	0.599029	0.750187
H653	H	-0.224729	-0.178653	0.000174
H654	H	0.025271	0.071347	0.250174
H655	H	0.275271	0.321347	0.500174
H656	H	0.525271	0.571347	0.750174
H657	H	-0.181889	-0.158408	0.084334
H658	H	0.068111	0.091592	0.334334
H659	H	0.318111	0.341592	0.584334
H660	H	0.568111	0.591592	0.834334
H661	H	0.083288	-0.186282	0.000175
H662	H	0.333288	0.063718	0.250175
H663	H	0.583288	0.313718	0.500175
H664	H	0.833288	0.563718	0.750175
N665	N	0.435051	0.396103	0.000121
N666	N	0.685051	0.646103	0.250121
N667	N	0.935051	0.896103	0.500121
N668	N	1.185051	1.146103	0.750121
H669	H	0.407373	0.368627	0.000106
H670	H	0.657373	0.618627	0.250106
H671	H	0.907373	0.868627	0.500106
H672	H	1.157373	1.118627	0.750106
H673	H	0.438199	0.422057	-0.084021
H674	H	0.688199	0.672057	0.165979
H675	H	0.938199	0.922057	0.415979
H676	H	1.188199	1.172057	0.665979
N677	N	0.433521	0.547350	0.000128
N678	N	0.683521	0.797350	0.250128
N679	N	0.933521	1.047350	0.500128
N680	N	1.183521	1.297350	0.750128
H681	H	0.405841	0.519876	0.000118
H682	H	0.655841	0.769876	0.250118
H683	H	0.905841	1.019876	0.500118
H684	H	1.155841	1.269876	0.750118
H685	H	0.436671	0.573302	-0.084019
H686	H	0.686671	0.823302	0.165981
H687	H	0.936671	1.073302	0.415981
H688	H	1.186671	1.323302	0.665981
