data_functionalizedCrystal
_audit_creation_method	'MofGen! by Chris Wilmer'
_symmetry_space_group_name_H-M	'P1'
_symmetry_Int_Tables_number	1
_symmetry_cell_setting	triclinic
loop_
_symmetry_equiv_pos_as_xyz
  x,y,z
_cell_length_a	27.732048
_cell_length_b	15.995350
_cell_length_c	15.072220
_cell_angle_alpha	89.997847
_cell_angle_beta	90.001640
_cell_angle_gamma	96.932485
loop_
_atom_site_label
_atom_site_type_symbol
_atom_site_fract_x
_atom_site_fract_y
_atom_site_fract_z
O1	O	0.062299	-1.110182	0.073717
O2	O	0.562299	-0.610182	0.573717
O3	O	0.069993	-0.866307	0.073737
O4	O	0.569993	-0.366307	0.573737
O5	O	-0.004218	-0.995819	0.073709
O6	O	0.495782	-0.495819	0.573709
O7	O	0.136510	-0.980671	0.073744
O8	O	0.636510	-0.480671	0.573744
O9	O	-0.004209	-0.995802	-0.073856
O10	O	0.495791	-0.495802	0.426144
O11	O	0.070002	-0.866291	-0.073828
O12	O	0.570002	-0.366291	0.426172
O13	O	0.062308	-1.110165	-0.073848
O14	O	0.562308	-0.610165	0.426152
Zn15	Zn	0.066156	-0.988225	-0.097267
Zn16	Zn	0.566156	-0.488225	0.402733
Zn17	Zn	0.066144	-0.988247	0.097156
Zn18	Zn	0.566144	-0.488247	0.597156
O19	O	0.136519	-0.980654	-0.073821
O20	O	0.636519	-0.480654	0.426179
C21	C	0.069679	-0.835108	-0.000044
C22	C	0.569679	-0.335108	0.499956
C23	C	0.068726	-0.742170	-0.000037
C24	C	0.568726	-0.242170	0.499963
C25	C	-0.022222	-0.995493	-0.000076
C26	C	0.477778	-0.495493	0.499924
C27	C	-0.075881	-0.994535	-0.000083
C28	C	0.424119	-0.494535	0.499917
N29	N	0.066165	-0.988217	-0.229956
N30	N	0.566165	-0.488217	0.270044
C31	C	-0.414392	-1.065040	-0.000043
C32	C	0.085608	-0.565040	0.499957
C33	C	-0.616067	-1.061487	-0.000030
C34	C	-0.116067	-0.561487	0.499970
O35	O	-0.647045	-1.125959	0.000004
O36	O	-0.147045	-0.625959	0.500004
N37	N	-0.635522	-0.984692	-0.000025
N38	N	-0.135522	-0.484692	0.499975
C39	C	-0.604555	-0.908780	-0.000017
C40	C	-0.104555	-0.408780	0.499983
O41	O	-0.625730	-0.843380	-0.000003
O42	O	-0.125730	-0.343380	0.499997
C43	C	-0.402881	-0.912334	-0.000023
C44	C	0.097119	-0.412334	0.499977
C45	C	-0.383429	-0.989134	-0.000037
C46	C	0.116571	-0.489134	0.499963
C47	C	-0.394940	-1.141834	-0.000056
C48	C	0.105060	-0.641834	0.499944
C49	C	-0.344524	-1.142721	-0.000064
C50	C	0.155476	-0.642721	0.499936
C51	C	-0.313561	-1.066815	-0.000059
C52	C	0.186439	-0.566815	0.499941
C53	C	-0.333013	-0.990021	-0.000045
C54	C	0.166987	-0.490021	0.499955
C55	C	-0.371914	-0.836422	-0.000009
C56	C	0.128086	-0.336422	0.499991
C57	C	-0.321493	-0.837317	-0.000008
C58	C	0.178507	-0.337317	0.499992
C59	C	-0.302041	-0.914117	-0.000023
C60	C	0.197959	-0.414117	0.499977
C61	C	-0.251634	-0.915002	-0.000048
C62	C	0.248366	-0.415002	0.499952
N63	N	-0.232179	-0.991797	-0.000053
N64	N	0.267821	-0.491797	0.499947
C65	C	-0.263142	-1.067703	-0.000059
C66	C	0.236858	-0.567703	0.499941
C67	C	-0.710437	-0.906920	-0.000015
C68	C	-0.210437	-0.406920	0.499985
C69	C	-0.760855	-0.906031	-0.000015
C70	C	-0.260855	-0.406031	0.499985
C71	C	-0.772364	-1.058739	-0.000027
C72	C	-0.272364	-0.558739	0.499973
C73	C	-0.721945	-1.059627	-0.000033
C74	C	-0.221945	-0.559627	0.499967
C75	C	-0.690982	-0.983715	-0.000021
C76	C	-0.190982	-0.483715	0.499979
C77	C	-0.157265	-1.069561	-0.000076
C78	C	0.342735	-0.569561	0.499924
C79	C	-0.106844	-1.070442	-0.000088
C80	C	0.393156	-0.570442	0.499912
C81	C	-0.095340	-0.917734	-0.000072
C82	C	0.404660	-0.417734	0.499928
C83	C	-0.145756	-0.916853	-0.000065
C84	C	0.354244	-0.416853	0.499935
C85	C	-0.176718	-0.992773	-0.000064
C86	C	0.323282	-0.492773	0.499936
O87	O	-0.220628	-0.850565	-0.000072
O88	O	0.279372	-0.350565	0.499928
O89	O	-0.241958	-1.133094	-0.000053
O90	O	0.258042	-0.633094	0.499947
C91	C	-0.464808	-1.064153	-0.000035
C92	C	0.035192	-0.564153	0.499965
C93	C	-0.484260	-0.987359	-0.000022
C94	C	0.015740	-0.487359	0.499978
C95	C	-0.453297	-0.911452	-0.000016
C96	C	0.046703	-0.411452	0.499984
C97	C	-0.534679	-0.986470	-0.000022
C98	C	-0.034679	-0.486470	0.499978
C99	C	-0.565642	-1.062377	-0.000027
C100	C	-0.065642	-0.562377	0.499973
C101	C	-0.546187	-1.139172	-0.000032
C102	C	-0.046187	-0.639172	0.499968
C103	C	-0.495771	-1.140059	-0.000040
C104	C	0.004229	-0.640059	0.499960
C105	C	-0.472752	-0.834657	-0.000011
C106	C	0.027248	-0.334657	0.499989
C107	C	-0.523168	-0.833776	-0.000004
C108	C	-0.023168	-0.333776	0.499996
C109	C	-0.554132	-0.909683	-0.000009
C110	C	-0.054132	-0.409683	0.499991
C111	C	0.154523	-0.980980	-0.000034
C112	C	0.654523	-0.480980	0.499966
C113	C	0.208182	-0.981938	-0.000021
C114	C	0.708182	-0.481938	0.499979
C115	C	0.062621	-1.141364	-0.000066
C116	C	0.562621	-0.641364	0.499934
C117	C	0.063575	-1.234303	-0.000066
C118	C	0.563575	-0.734303	0.499934
C119	C	0.065301	-0.404467	-0.000056
C120	C	0.565301	0.095533	0.499944
C121	C	0.012449	-0.452585	-0.000399
C122	C	0.512449	0.047415	0.499601
C123	C	0.013403	-0.549263	-0.000060
C124	C	0.513403	-0.049263	0.499940
C125	C	0.067000	-0.572006	-0.000047
C126	C	0.567000	-0.072006	0.499953
C127	C	0.093063	-0.530591	0.084223
C128	C	0.593063	-0.030591	0.584223
C129	C	0.091735	-0.433972	0.084287
C130	C	0.591735	0.066028	0.584287
C131	C	0.092837	-0.433600	-0.083522
C132	C	0.592837	0.066400	0.416478
C133	C	0.092825	-0.530546	-0.084630
C134	C	0.592825	-0.030546	0.415370
C135	C	0.067962	-0.666691	-0.000039
C136	C	0.567962	-0.166691	0.499961
C137	C	0.064340	-0.309782	-0.000058
C138	C	0.564340	0.190218	0.499942
C139	C	0.066153	-0.988232	-0.410954
C140	C	0.566153	-0.488232	0.089046
C141	C	0.105848	-0.918922	-0.448608
C142	C	0.605848	-0.418922	0.051392
C143	C	0.105739	-0.918688	-0.551433
C144	C	0.605739	-0.418688	-0.051433
C145	C	0.066143	-0.988247	-0.589158
C146	C	0.566143	-0.488247	-0.089158
C147	C	0.015648	-0.970176	-0.551826
C148	C	0.515648	-0.470176	-0.051826
C149	C	0.015886	-0.969670	-0.448968
C150	C	0.515886	-0.469670	0.051032
C151	C	0.076499	-1.075831	-0.448846
C152	C	0.576499	-0.575831	0.051154
C153	C	0.077639	-1.075237	-0.551710
C154	C	0.577639	-0.575237	-0.051710
C155	C	0.066134	-0.988258	-0.689871
C156	C	0.566134	-0.488258	-0.189871
C157	C	0.066159	-0.988220	-0.310240
C158	C	0.566159	-0.488220	0.189760
N159	N	0.066132	-0.988263	0.229845
N160	N	0.566132	-0.488263	0.729845
H161	H	-0.091010	-1.132984	-0.000102
H162	H	0.408990	-0.632984	0.499898
F163	F	-0.781551	-0.824290	-0.000016
F164	F	-0.281551	-0.324290	0.499984
H165	H	0.130537	-0.401222	0.088120
H166	H	0.630537	0.098778	0.588120
H167	H	0.006799	-0.905816	-0.424991
H168	H	0.506799	-0.405816	0.075009
F169	F	0.038668	-1.143234	-0.417011
F170	F	0.538668	-0.643234	0.082989
F171	F	0.067918	-0.566480	-0.166115
F172	F	0.567918	-0.066480	0.333885
H173	H	-0.685230	-0.845100	-0.000005
H174	H	-0.185230	-0.345100	0.499995
F175	F	0.144526	-0.548407	0.088347
F176	F	0.644526	-0.048407	0.588347
H177	H	-0.479938	-1.202598	-0.000051
H178	H	0.020062	-0.702598	0.499949
F179	F	0.155069	-0.932539	-0.416278
F180	F	0.655069	-0.432539	0.083722
H181	H	-0.008673	-0.434329	-0.060832
H182	H	0.491327	0.065671	0.439168
F183	F	-0.579149	-1.219957	-0.000043
F184	F	-0.079149	-0.719957	0.499957
H185	H	0.131910	-0.545405	-0.089710
H186	H	0.631910	-0.045405	0.410290
F187	F	-0.543864	-0.752029	0.000006
F188	F	-0.043864	-0.252029	0.500006
F189	F	-0.023895	-1.033210	-0.416406
F190	F	0.476105	-0.533210	0.083594
H191	H	-0.447546	-0.772844	-0.000005
H192	H	0.052454	-0.272844	0.499995
H193	H	-0.328691	-1.205260	-0.000072
H194	H	0.171309	-0.705260	0.499928
F195	F	-0.023906	-1.034466	-0.583761
F196	F	0.476094	-0.534466	-0.083761
H197	H	-0.007084	-0.577950	-0.060468
H198	H	0.492916	-0.077950	0.439532
H199	H	0.131805	-0.401334	-0.084083
H200	H	0.631805	0.098666	0.415917
H201	H	-0.008583	-0.433270	0.059692
H202	H	0.491417	0.066730	0.559692
F203	F	-0.427887	-1.222631	-0.000061
F204	F	0.072113	-0.722631	0.499939
H205	H	-0.070121	-0.855933	-0.000071
H206	H	0.429879	-0.355933	0.499929
F207	F	0.097306	-0.834404	-0.414842
F208	F	0.597306	-0.334404	0.085158
F209	F	0.003481	-0.887683	-0.585511
F210	F	0.503481	-0.387683	-0.085511
F211	F	-0.013457	-0.586010	0.079149
F212	F	0.486543	-0.086010	0.579149
F213	F	0.123617	-1.098846	-0.414938
F214	F	0.623617	-0.598846	0.085062
H215	H	0.075563	-0.413281	-0.147396
H216	H	0.575563	0.086719	0.352604
F217	F	0.126195	-1.093192	-0.583598
F218	F	0.626195	-0.593192	-0.083598
F219	F	-0.701247	-1.141367	-0.000048
F220	F	-0.201247	-0.641367	0.499952
H221	H	0.072721	-0.415917	0.147272
H222	H	0.572721	0.084083	0.647272
H223	H	0.050615	-1.129161	-0.577389
H224	H	0.550615	-0.629161	-0.077389
H225	H	-0.387743	-0.773883	0.000008
H226	H	0.112257	-0.273883	0.500008
F227	F	0.154793	-0.932559	-0.584429
F228	F	0.654793	-0.432559	-0.084429
F229	F	-0.190210	-1.150364	-0.000075
F230	F	0.309790	-0.650364	0.499925
F231	F	-0.166459	-0.835115	-0.000066
F232	F	0.333541	-0.335115	0.499934
F233	F	0.069392	-0.567991	0.166187
F234	F	0.569392	-0.067991	0.666187
H235	H	0.099105	-0.853668	-0.576054
H236	H	0.599105	-0.353668	-0.076054
H237	H	-0.797583	-1.120545	-0.000032
H238	H	-0.297583	-0.620545	0.499968
H239	H	-0.296285	-0.775499	0.000003
H240	H	0.203715	-0.275499	0.500003
