data_functionalizedCrystal
_audit_creation_method	'MofGen! by Chris Wilmer'
_symmetry_space_group_name_H-M	'P1'
_symmetry_Int_Tables_number	1
_symmetry_cell_setting	triclinic
loop_
_symmetry_equiv_pos_as_xyz
  x,y,z
_cell_length_a	10.654554
_cell_length_b	17.699083
_cell_length_c	16.176319
_cell_angle_alpha	90.006703
_cell_angle_beta	89.996293
_cell_angle_gamma	96.115238
loop_
_atom_site_label
_atom_site_type_symbol
_atom_site_fract_x
_atom_site_fract_y
_atom_site_fract_z
O1	O	0.158804	-1.005090	-0.068727
O2	O	0.658804	-0.505090	0.431273
O3	O	0.179466	-0.784843	-0.068731
O4	O	0.679466	-0.284843	0.431269
O5	O	-0.013693	-0.900029	-0.068730
O6	O	0.486307	-0.400029	0.431270
O7	O	0.351962	-0.889905	-0.068728
O8	O	0.851962	-0.389905	0.431272
O9	O	-0.013705	-0.900013	0.068763
O10	O	0.486295	-0.400013	0.568763
O11	O	0.179454	-0.784827	0.068762
O12	O	0.679454	-0.284827	0.568762
O13	O	0.158791	-1.005074	0.068766
O14	O	0.658791	-0.505074	0.568766
Cu15	Cu	0.169121	-0.894949	0.081318
Cu16	Cu	0.669121	-0.394949	0.581318
Cu17	Cu	0.169136	-0.894968	-0.081283
Cu18	Cu	0.669136	-0.394968	0.418717
O19	O	0.351950	-0.889889	0.068765
O20	O	0.851950	-0.389889	0.568765
C21	C	0.178720	-0.756634	0.000015
C22	C	0.678720	-0.256634	0.500015
C23	C	0.176499	-0.672601	0.000013
C24	C	0.676499	-0.172601	0.500013
C25	C	0.175446	-0.633119	0.074962
C26	C	0.675446	-0.133119	0.574962
C27	C	0.173339	-0.554163	0.074962
C28	C	0.673339	-0.054163	0.574962
C29	C	0.172295	-0.514691	0.000014
C30	C	0.672295	-0.014691	0.500014
C31	C	0.173344	-0.554179	-0.074940
C32	C	0.673344	-0.054179	0.425060
C33	C	0.175442	-0.633134	-0.074940
C34	C	0.675442	-0.133134	0.425060
C35	C	0.164884	-0.235763	-0.074943
C36	C	0.664884	0.264237	0.425057
C37	C	0.162790	-0.156802	-0.074937
C38	C	0.662790	0.343198	0.425063
C39	C	0.162781	-0.156792	0.074959
C40	C	0.662781	0.343208	0.574959
C41	C	0.164879	-0.235747	0.074960
C42	C	0.664879	0.264253	0.574960
C43	C	0.165921	-0.275229	0.000006
C44	C	0.665921	0.224771	0.500006
C45	C	0.168203	-0.360842	0.000006
C46	C	0.668203	0.139158	0.500006
C47	C	0.170022	-0.429079	0.000013
C48	C	0.670022	0.070921	0.500013
C49	C	-0.060484	-0.899277	0.000015
C50	C	0.439516	-0.399277	0.500015
C51	C	-0.199888	-0.897051	0.000009
C52	C	0.300112	-0.397051	0.500009
C53	C	-0.381189	-0.825045	0.000018
C54	C	0.118811	-0.325045	0.500018
C55	C	-0.250204	-0.827136	0.000010
C56	C	0.249796	-0.327136	0.500010
C57	C	-0.280564	-0.964878	0.000008
C58	C	0.219436	-0.464878	0.500008
C59	C	-0.411547	-0.962786	0.000010
C60	C	0.088453	-0.462786	0.500010
C61	C	-0.431497	-0.755126	0.000027
C62	C	0.068503	-0.255126	0.500027
C63	C	-0.350829	-0.687298	0.000027
C64	C	0.149171	-0.187298	0.500027
C65	C	-0.219844	-0.689389	0.000019
C66	C	0.280156	-0.189389	0.500019
C67	C	-0.169527	-0.759309	0.000011
C68	C	0.330473	-0.259309	0.500011
C69	C	0.398741	-0.890641	0.000019
C70	C	0.898741	-0.390641	0.500019
C71	C	0.538145	-0.892867	0.000019
C72	C	1.038145	-0.392867	0.500019
C73	C	0.159530	-0.033285	0.000018
C74	C	0.659530	0.466715	0.500018
C75	C	0.161728	-0.117319	0.000012
C76	C	0.661728	0.382681	0.500012
N77	N	0.169110	-0.894942	0.195684
N78	N	0.669110	-0.394942	0.695684
N79	N	0.169137	-0.894982	-0.195648
N80	N	0.669137	-0.394982	0.304352
C81	C	0.083615	-0.945961	0.238948
C82	C	0.583615	-0.445961	0.738948
C83	C	0.083613	-0.945965	0.325495
C84	C	0.583613	-0.445965	0.825495
C85	C	0.169115	-0.894952	0.368776
C86	C	0.669115	-0.394952	0.868776
C87	C	0.254615	-0.843927	0.325505
C88	C	0.754615	-0.343927	0.825505
C89	C	0.254609	-0.843920	0.238960
C90	C	0.754609	-0.343920	0.738960
C91	C	0.254638	-0.843953	0.674534
C92	C	0.754638	-0.343953	1.174534
C93	C	0.254640	-0.843965	0.761085
C94	C	0.754640	-0.343965	1.261085
C95	C	0.083643	-0.945998	0.761069
C96	C	0.583643	-0.445998	1.261069
C97	C	0.083637	-0.945991	0.674524
C98	C	0.583637	-0.445991	1.174524
C99	C	0.169132	-0.894964	0.631260
C100	C	0.669132	-0.394964	1.131260
C101	C	0.169131	-0.894959	0.537416
C102	C	0.669131	-0.394959	1.037416
C103	C	0.169123	-0.894960	0.462619
C104	C	0.669123	-0.394960	0.962619
H105	H	0.176307	-0.665251	0.135993
H106	H	0.676307	-0.165251	0.635993
C107	C	0.348848	-0.787920	0.626955
C108	C	0.848848	-0.287920	1.126955
N109	N	0.419869	-0.745749	0.591117
N110	N	0.919869	-0.245749	1.091117
H111	H	0.176302	-0.665280	-0.135971
H112	H	0.676302	-0.165280	0.364029
C113	C	0.348695	-0.787840	0.808692
C114	C	0.848695	-0.287840	1.308692
N115	N	0.419532	-0.745567	0.844550
N116	N	0.919532	-0.245567	1.344550
C117	C	0.166020	-0.279184	-0.157394
C118	C	0.666020	0.220816	0.342606
N119	N	0.166871	-0.311891	-0.219501
N120	N	0.666871	0.188109	0.280499
C121	C	0.172210	-0.510733	0.157411
C122	C	0.672210	-0.010733	0.657411
N123	N	0.171369	-0.478022	0.219516
N124	N	0.671369	0.021978	0.719516
H125	H	0.014018	-0.987533	0.639287
H126	H	0.514018	-0.487533	1.139287
C127	C	0.172192	-0.510757	-0.157385
C128	C	0.672192	-0.010757	0.342615
N129	N	0.171328	-0.478052	-0.219484
N130	N	0.671328	0.021948	0.280516
H131	H	0.014024	-0.987546	0.796303
H132	H	0.514024	-0.487546	1.296303
H133	H	-0.239585	-1.021803	-0.000010
H134	H	0.260415	-0.521803	0.499990
H135	H	-0.538150	-0.753415	0.000035
H136	H	-0.038150	-0.253415	0.500035
H137	H	0.165735	-0.267881	0.135990
H138	H	0.665735	0.232119	0.635990
H139	H	-0.062869	-0.761006	0.000001
H140	H	0.437131	-0.261006	0.500001
C141	C	0.348656	-0.787805	0.373117
C142	C	0.848656	-0.287805	0.873117
N143	N	0.419489	-0.745532	0.408978
N144	N	0.919489	-0.245532	0.908978
C145	C	0.161620	-0.113355	0.157411
C146	C	0.661620	0.386645	0.657411
N147	N	0.160747	-0.080640	0.219511
N148	N	0.660747	0.419360	0.719511
C149	C	-0.406182	-0.610391	0.000036
C150	C	0.093818	-0.110391	0.500036
N151	N	-0.447871	-0.552463	0.000045
N152	N	0.052129	-0.052463	0.500045
H153	H	-0.154168	-0.634161	0.000010
H154	H	0.345832	-0.134161	0.500010
C155	C	-0.500284	-1.037394	0.000013
C156	C	-0.000284	-0.537394	0.500013
N157	N	-0.567122	-1.093591	0.000013
N158	N	-0.067122	-0.593591	0.500013
H159	H	0.161938	-0.124666	-0.135973
H160	H	0.661938	0.375334	0.364027
C161	C	-0.010446	-1.002080	0.191347
C162	C	0.489554	-0.502080	0.691347
N163	N	-0.081299	-1.044348	0.155497
N164	N	0.418701	-0.544348	0.655497
H165	H	0.013996	-0.987509	0.360721
H166	H	0.513996	-0.487509	0.860721
C167	C	0.348671	-0.787800	0.191369
C168	C	0.848671	-0.287800	0.691369
N169	N	0.419522	-0.745530	0.155525
N170	N	0.919522	-0.245530	0.655525
