data_functionalizedCrystal
_audit_creation_method	'MofGen! by Chris Wilmer'
_symmetry_space_group_name_H-M	'P1'
_symmetry_Int_Tables_number	1
_symmetry_cell_setting	triclinic
loop_
_symmetry_equiv_pos_as_xyz
  x,y,z
_cell_length_a	14.044220
_cell_length_b	13.339070
_cell_length_c	11.804365
_cell_angle_alpha	74.875130
_cell_angle_beta	77.070841
_cell_angle_gamma	75.590914
loop_
_atom_site_label
_atom_site_type_symbol
_atom_site_fract_x
_atom_site_fract_y
_atom_site_fract_z
O1	O	-0.472647	1.405378	-0.099063
O2	O	-0.408759	1.105085	-0.099057
O3	O	-0.301534	1.250723	-0.099055
O4	O	-0.579872	1.259740	-0.099065
O5	O	-0.329722	1.212379	0.099001
O6	O	-0.436948	1.066740	0.098998
O7	O	-0.500836	1.367034	0.098992
Cu8	Cu	-0.471465	1.213386	0.117079
Cu9	Cu	-0.438129	1.258733	-0.117144
O10	O	-0.608061	1.221395	0.098990
C11	C	-0.412061	1.047249	-0.000028
C12	C	-0.379893	0.932044	-0.000026
C13	C	-0.630015	0.589828	-0.000055
C14	C	-0.660241	0.698069	-0.000061
C15	C	-0.590157	0.756568	-0.000052
C16	C	-0.489841	0.706815	-0.000037
C17	C	-0.459610	0.598565	-0.000041
C18	C	-0.419752	0.765305	-0.000038
C19	C	-0.319436	0.715552	-0.000023
C20	C	-0.289211	0.607312	-0.000026
C21	C	-0.359295	0.548814	-0.000035
C22	C	-0.449983	0.873556	-0.000034
C23	C	-0.279578	0.882293	-0.000020
C24	C	-0.249352	0.774051	-0.000014
C25	C	-0.630319	1.244514	-0.000039
C26	C	-0.738639	1.256285	-0.000044
C27	C	-0.936961	1.277803	-0.000039
C28	C	-0.972639	1.194322	-0.000036
C29	C	-1.082992	1.206295	-0.000033
C30	C	-0.826598	1.265832	-0.000042
C31	C	-0.279276	1.227605	-0.000028
C32	C	-0.170954	1.215835	-0.000031
C33	C	-0.497533	1.424870	-0.000039
C34	C	-0.529700	1.540076	-0.000049
N35	N	-0.494914	1.181499	0.281820
N36	N	-0.414675	1.290627	-0.281884
C37	C	-0.358348	1.367198	0.655771
C38	C	-0.340605	1.391319	0.531110
C39	C	-0.379180	1.338866	0.468781
C40	C	-0.435503	1.262288	0.531126
C41	C	-0.453254	1.238171	0.655799
C42	C	-0.474086	1.209838	0.468809
C43	C	-0.530409	1.133260	0.531154
C44	C	-0.548157	1.109146	0.655816
C45	C	-0.509581	1.161600	0.718144
C46	C	-0.456335	1.233956	0.344136
C47	C	-0.551241	1.104928	0.344164
C48	C	-0.568984	1.080807	0.468826
H49	H	-0.222508	0.929924	-0.000018
O50	O	-0.361810	1.362383	0.347686
C51	C	-0.303847	1.441237	0.306024
H52	H	-0.261007	1.440205	0.377869
H53	H	-0.354761	1.522278	0.283878
C54	C	-0.282243	1.420559	0.105136
C55	C	-0.229619	1.419285	0.193374
H56	H	-0.236459	1.407023	0.035645
H57	H	-0.321297	1.367437	0.133203
H58	H	-0.324669	1.488095	0.086696
H59	H	-0.187205	1.351746	0.211823
H60	H	-0.190556	1.472396	0.165307
H61	H	-0.989290	1.358259	-0.000036
H62	H	-0.920307	1.113859	-0.000034
O63	O	-0.285630	1.465519	0.470798
C64	C	-0.189519	1.433890	0.501570
H65	H	-0.172215	1.344230	0.535735
H66	H	-0.186517	1.474594	0.574097
C67	C	-0.133215	1.575590	0.349093
C68	C	-0.111959	1.465468	0.391047
H69	H	-0.085372	1.595073	0.280920
H70	H	-0.197968	1.596903	0.328364
H71	H	-0.130714	1.609497	0.409543
H72	H	-0.114472	1.431563	0.330602
H73	H	-0.047205	1.444150	0.411763
H74	H	-0.410478	1.296306	0.293386
O75	O	-0.320998	1.418304	0.716256
C76	C	-0.359449	1.528205	0.685747
H77	H	-0.432439	1.542358	0.651474
H78	H	-0.303349	1.567783	0.613379
C79	C	-0.288984	1.558289	0.838573
C80	C	-0.378637	1.575672	0.796487
H81	H	-0.300817	1.587572	0.906880
H82	H	-0.263076	1.484248	0.859125
H83	H	-0.242244	1.591272	0.778256
H84	H	-0.425372	1.542679	0.856798
H85	H	-0.404554	1.649710	0.775947
H86	H	-0.524024	1.141958	0.819654
O87	O	-0.623680	1.006362	0.529209
C88	C	-0.653947	0.965250	0.447476
H89	H	-0.601185	0.977683	0.358608
H90	H	-0.733054	1.007959	0.434212
C91	C	-0.716221	0.830583	0.605309
C92	C	-0.651414	0.845845	0.496163
H93	H	-0.714664	0.756929	0.635342
H94	H	-0.695834	0.858283	0.660375
H95	H	-0.782138	0.866181	0.594241
H96	H	-0.585497	0.810258	0.507235
H97	H	-0.671790	0.818136	0.441100
H98	H	-0.594027	1.046801	0.706577
H99	H	-0.167671	0.733529	-0.000013
O100	O	-0.619418	0.861688	0.000107
C101	C	-0.597411	0.880379	0.102707
H102	H	-0.535112	0.813928	0.136909
H103	H	-0.666860	0.882912	0.174525
C104	C	-0.640231	1.068752	0.029554
C105	C	-0.563708	0.987141	0.071557
H106	H	-0.619445	1.134611	0.010342
H107	H	-0.655061	1.056161	-0.039567
H108	H	-0.698098	1.070850	0.089410
H109	H	-0.505847	0.985036	0.011696
H110	H	-0.548867	0.999735	0.140668
H111	H	-0.531661	0.914053	-0.000041
H112	H	-0.741917	0.738572	-0.000081
O113	O	-0.697964	0.532838	-0.000013
C114	C	-0.649763	0.426639	-0.000049
H115	H	-0.577751	0.408355	0.037454
H116	H	-0.631695	0.414118	-0.095069
C117	C	-0.807243	0.374702	0.031547
C118	C	-0.718800	0.352243	0.077618
H119	H	-0.849828	0.328810	0.079451
H120	H	-0.839717	0.446251	0.031567
H121	H	-0.792172	0.364268	-0.047636
H122	H	-0.733869	0.362690	0.156793
H123	H	-0.686329	0.280694	0.077614
H124	H	-0.334690	0.460674	-0.000030
H125	H	-0.582655	1.062218	0.293417
O126	O	-0.191713	0.559133	-0.000179
C127	C	-0.132670	0.608090	-0.102763
H128	H	-0.173978	0.692061	-0.136961
H129	H	-0.117242	0.560472	-0.174593
C130	C	0.017519	0.509327	-0.029594
C131	C	-0.033212	0.612465	-0.071590
H132	H	0.078871	0.512022	-0.010367
H133	H	-0.022259	0.476340	0.039517
H134	H	0.030366	0.469656	-0.089459
H135	H	-0.046069	0.652130	-0.011720
H136	H	0.006566	0.645459	-0.140690
