data_functionalizedCrystal
_audit_creation_method	'MofGen! by Chris Wilmer'
_symmetry_space_group_name_H-M	'P1'
_symmetry_Int_Tables_number	1
_symmetry_cell_setting	triclinic
loop_
_symmetry_equiv_pos_as_xyz
  x,y,z
_cell_length_a	15.944551
_cell_length_b	11.792241
_cell_length_c	10.268362
_cell_angle_alpha	89.999626
_cell_angle_beta	90.006236
_cell_angle_gamma	96.153923
loop_
_atom_site_label
_atom_site_type_symbol
_atom_site_fract_x
_atom_site_fract_y
_atom_site_fract_z
O1	O	0.115128	-1.505960	0.108177
O2	O	0.126993	-1.175521	0.108207
O3	O	-0.001173	-1.349764	0.108180
O4	O	0.243295	-1.331717	0.108205
O5	O	-0.001179	-1.349749	-0.108421
O6	O	0.126988	-1.175506	-0.108393
O7	O	0.115123	-1.505945	-0.108424
Cu8	Cu	0.121055	-1.340724	-0.128186
Cu9	Cu	0.121061	-1.340742	0.127970
O10	O	0.243290	-1.331702	-0.108396
C11	C	-0.032473	-1.349008	-0.000121
C12	C	-0.125729	-1.346761	-0.000121
C13	C	0.126245	-1.133229	-0.000089
C14	C	0.124015	-1.007234	-0.000078
C15	C	0.115871	-1.548237	-0.000124
C16	C	0.118102	-1.674233	-0.000127
C17	C	-0.341098	-1.233389	-0.000093
C18	C	-0.401880	-1.286028	-0.106895
C19	C	-0.296474	-1.342698	-0.000111
C20	C	-0.401858	-1.286069	0.106656
C21	C	-0.461404	-1.338765	-0.000095
C22	C	-0.356028	-1.395367	-0.107001
C23	C	-0.355999	-1.395392	0.106646
C24	C	-0.416764	-1.448111	-0.000182
C25	C	-0.201461	-1.344961	-0.000121
C26	C	-0.556415	-1.336511	-0.000095
C27	C	0.274590	-1.332459	-0.000093
C28	C	0.367846	-1.334705	-0.000084
N29	N	0.121050	-1.340720	-0.308352
C30	C	0.119913	-0.776555	-0.000116
C31	C	0.122192	-0.904922	-0.000095
C32	C	0.121060	-1.340736	-0.574022
C33	C	0.121057	-1.340724	-0.426184
N34	N	0.121060	-1.340756	0.308135
H35	H	-0.308200	-1.142657	-0.000191
C36	C	-0.429335	-1.223560	-0.228862
N37	N	-0.450012	-1.176501	-0.320722
C38	C	-0.328745	-1.457761	-0.229121
N39	N	-0.308194	-1.504751	-0.321103
H40	H	-0.449513	-1.538922	-0.000251
C41	C	-0.429272	-1.223594	0.228635
N42	N	-0.449916	-1.176531	0.320505
C43	C	-0.328516	-1.457806	0.228624
N44	N	-0.307813	-1.504807	0.320508
