data_functionalizedCrystal
_audit_creation_method	'MofGen! by Chris Wilmer'
_symmetry_space_group_name_H-M	'P1'
_symmetry_Int_Tables_number	1
_symmetry_cell_setting	triclinic
loop_
_symmetry_equiv_pos_as_xyz
  x,y,z
_cell_length_a	21.295417
_cell_length_b	13.032951
_cell_length_c	13.032268
_cell_angle_alpha	90.885735
_cell_angle_beta	82.859352
_cell_angle_gamma	97.168217
loop_
_atom_site_label
_atom_site_type_symbol
_atom_site_fract_x
_atom_site_fract_y
_atom_site_fract_z
Zn1	Zn	-0.425147	-1.498331	0.780770
Zn2	Zn	-0.518932	-1.520042	0.608767
Zn3	Zn	-0.398847	-1.348199	0.587013
Zn4	Zn	-0.515523	-1.326292	0.758887
O5	O	-0.464612	-1.423216	0.683859
O6	O	-0.450021	-1.645127	0.776215
O7	O	-0.493423	-1.515501	0.461967
O8	O	-0.314257	-1.368196	0.612769
O9	O	-0.518925	-1.661078	0.649845
O10	O	-0.333579	-1.478498	0.755121
O11	O	-0.405197	-1.389248	0.445985
O12	O	-0.401891	-1.201377	0.591551
O13	O	-0.513115	-1.330859	0.905704
O14	O	-0.487612	-1.185282	0.717826
O15	O	-0.446715	-1.457255	0.921781
O16	O	-0.606559	-1.494258	0.628627
O17	O	-0.604054	-1.351911	0.738920
C18	C	-0.441528	-1.156013	0.649954
C19	C	-0.431670	-1.041700	0.635473
C20	C	-0.628149	-1.423088	0.683785
C21	C	-0.698120	-1.423123	0.683800
C22	C	-0.469743	-0.982811	0.691403
C23	C	-0.459554	-0.864662	0.676438
C24	C	-0.732280	-1.497294	0.626445
C25	C	-0.798028	-1.497339	0.626474
C26	C	-0.829612	-1.423197	0.683845
C27	C	-0.795445	-1.349021	0.741212
C28	C	-0.729699	-1.348984	0.741189
N29	N	-0.925632	-1.332234	0.680269
N30	N	-0.988088	-1.332273	0.680285
C31	C	-1.027701	-1.423305	0.683919
N32	N	-1.002497	-1.514301	0.687516
N33	N	-0.940035	-1.514262	0.687494
C34	C	-0.900902	-1.423229	0.683876
C35	C	-1.133152	-1.497530	0.626593
C36	C	-1.198902	-1.497576	0.626629
C37	C	-1.196317	-1.349249	0.741361
C38	C	-1.130569	-1.349212	0.741331
C39	C	-1.098990	-1.423351	0.683941
C40	C	-0.300441	-1.423369	0.683959
C41	C	-0.230482	-1.423434	0.684002
C42	C	-0.482468	-1.389192	0.952101
C43	C	-0.490078	-1.374693	1.066409
C44	C	-0.487780	-0.691462	0.717890
C45	C	-0.497633	-0.805775	0.732375
C46	C	-0.446785	-1.457167	0.416668
C47	C	-0.439016	-1.471865	0.302386
C48	C	-0.460617	-1.430767	1.125326
C49	C	-0.468481	-1.415783	1.243470
H50	H	-0.509879	-1.019863	0.750368
C51	C	-0.509978	-1.337048	1.292696
C52	C	-0.572463	-1.362653	1.269421
C53	C	-0.610705	-1.290140	1.314739
H54	H	-0.509844	-1.337381	1.365550
H55	H	-0.493672	-1.270153	1.266353
H56	H	-0.588764	-1.429530	1.295769
H57	H	-0.572617	-1.362312	1.196576
H58	H	-0.594399	-1.223245	1.288396
H59	H	-0.610565	-1.290479	1.387590
H60	H	-0.653103	-1.307498	1.298945
H61	H	-0.407966	-1.530964	1.265366
H62	H	-0.821165	-1.288655	0.787926
H63	H	-0.701886	-1.288584	0.787896
C64	C	-1.236027	-1.578308	0.564610
C65	C	-1.283237	-1.636818	0.631340
C66	C	-1.317434	-1.711248	0.574277
H67	H	-1.255421	-1.544930	0.514753
H68	H	-1.207802	-1.622501	0.530506
H69	H	-1.311457	-1.592631	0.665428
H70	H	-1.263860	-1.670219	0.681198
H71	H	-1.289209	-1.755441	0.540172
H72	H	-1.336824	-1.677862	0.524421
H73	H	-1.349466	-1.750963	0.619545
H74	H	-1.222032	-1.288885	0.788078
H75	H	-0.521117	-1.315586	1.103433
H76	H	-1.102754	-1.288811	0.788029
H77	H	-0.537771	-0.842821	0.791347
C78	C	-1.098925	-1.577986	0.564121
C79	C	-1.106274	-1.568612	0.459529
C80	C	-1.074761	-1.642718	0.401951
H81	H	-1.054862	-1.567419	0.572185
H82	H	-1.116635	-1.645191	0.587940
H83	H	-1.088561	-1.501424	0.435718
H84	H	-1.150329	-1.579190	0.451433
H85	H	-1.092472	-1.709922	0.425769
H86	H	-1.030700	-1.632144	0.410023
H87	H	-1.079748	-1.636374	0.330981
C88	C	-0.378209	-0.992118	0.556854
C89	C	-0.378750	-0.884792	0.557608
C90	C	-0.329519	-0.839089	0.485181
H91	H	-0.338399	-1.007657	0.574148
H92	H	-0.384265	-1.018369	0.489907
H93	H	-0.372690	-0.858550	0.624540
H94	H	-0.418548	-0.869223	0.540303
H95	H	-0.335575	-0.865340	0.418234
H96	H	-0.289713	-0.854636	0.502481
H97	H	-0.329883	-0.766265	0.485676
C98	C	-0.698118	-1.577914	0.564127
C99	C	-0.742114	-1.642898	0.513928
C100	C	-0.710668	-1.717189	0.456526
H101	H	-0.666125	-1.544415	0.514213
H102	H	-0.678942	-1.617742	0.609165
H103	H	-0.761280	-1.603075	0.468893
H104	H	-0.774109	-1.676421	0.563817
H105	H	-0.691493	-1.757017	0.501565
H106	H	-0.678676	-1.683681	0.406618
H107	H	-0.740516	-1.761295	0.422467
C108	C	-0.835239	-1.577790	0.564272
C109	C	-0.899576	-1.561955	0.576581
C110	C	-0.933870	-1.636043	0.519294
H111	H	-0.818665	-1.571592	0.493228
H112	H	-0.831442	-1.644993	0.588123
H113	H	-0.903368	-1.494768	0.552726
H114	H	-0.916168	-1.568162	0.647613
H115	H	-0.930074	-1.703246	0.543144
H116	H	-0.917291	-1.629839	0.448253
H117	H	-0.977527	-1.625314	0.527645
C118	C	-0.419110	-1.509441	1.076005
C119	C	-0.356618	-1.483813	1.099234
C120	C	-0.318362	-1.556257	1.053808
H121	H	-0.435369	-1.576365	1.102280
H122	H	-0.419284	-1.509028	1.003148
H123	H	-0.356447	-1.484236	1.172076
H124	H	-0.340340	-1.416901	1.072958
H125	H	-0.318535	-1.555844	0.980951
H126	H	-0.334626	-1.623177	1.080087
H127	H	-0.275955	-1.538873	1.069555
H128	H	-0.419411	-0.827614	0.617476
