data_functionalizedCrystal
_audit_creation_method	'MofGen! by Chris Wilmer'
_symmetry_space_group_name_H-M	'P1'
_symmetry_Int_Tables_number	1
_symmetry_cell_setting	triclinic
loop_
_symmetry_equiv_pos_as_xyz
  x,y,z
_cell_length_a	16.109302
_cell_length_b	16.109301
_cell_length_c	15.186229
_cell_angle_alpha	89.996245
_cell_angle_beta	89.994701
_cell_angle_gamma	83.461682
loop_
_atom_site_label
_atom_site_type_symbol
_atom_site_fract_x
_atom_site_fract_y
_atom_site_fract_z
O1	O	1.103130	0.106869	-0.073268
O2	O	1.603130	0.606869	0.426732
O3	O	0.861068	0.120168	-0.073261
O4	O	1.361068	0.620168	0.426739
O5	O	0.988749	-0.007513	-0.073259
O6	O	1.488749	0.492487	0.426741
O7	O	0.975450	0.234549	-0.073270
O8	O	1.475450	0.734549	0.426730
O9	O	0.988740	-0.007514	0.073198
O10	O	1.488740	0.492486	0.573198
O11	O	0.861060	0.120166	0.073196
O12	O	1.361060	0.620166	0.573196
O13	O	1.103122	0.106867	0.073189
O14	O	1.603122	0.606867	0.573189
Zn15	Zn	0.982090	0.113516	0.096446
Zn16	Zn	1.482090	0.613516	0.596446
Zn17	Zn	0.982101	0.113519	-0.096518
Zn18	Zn	1.482101	0.613519	0.403482
O19	O	0.975441	0.234547	0.073187
O20	O	1.475441	0.734547	0.573187
C21	C	0.988206	-0.038488	-0.000031
C22	C	1.488206	0.461512	0.499969
C23	C	0.986591	-0.130784	-0.000032
C24	C	1.486591	0.369216	0.499968
C25	C	0.830089	0.119628	-0.000032
C26	C	1.330089	0.619628	0.499968
C27	C	0.737794	0.118013	-0.000029
C28	C	1.237794	0.618013	0.499971
C29	C	1.057074	-0.439782	-0.000049
C30	C	1.557074	0.060218	0.499951
C31	C	1.058599	-0.353062	-0.000044
C32	C	1.558599	0.146938	0.499956
C33	C	0.907111	-0.333189	-0.000028
C34	C	1.407111	0.166811	0.499972
C35	C	0.905586	-0.419907	-0.000027
C36	C	1.405586	0.080093	0.499973
C37	C	0.980570	-0.473202	-0.000042
C38	C	1.480570	0.026798	0.499958
C39	C	0.983620	-0.299763	-0.000038
C40	C	1.483620	0.200237	0.499962
C41	C	0.985273	-0.205737	-0.000033
C42	C	1.485273	0.294263	0.499967
C43	C	0.978917	-0.567234	-0.000046
C44	C	1.478917	-0.067234	0.499954
C45	C	0.525448	0.114276	0.079796
C46	C	1.025448	0.614276	0.579796
C47	C	0.438728	0.112750	0.079793
C48	C	0.938728	0.612750	0.579793
C49	C	0.438748	0.112756	-0.079882
C50	C	0.938748	0.612756	0.420118
C51	C	0.525467	0.114277	-0.079878
C52	C	1.025467	0.614277	0.420122
C53	C	0.568815	0.115041	-0.000036
C54	C	1.068815	0.615041	0.499964
C55	C	0.395375	0.111994	-0.000043
C56	C	0.895375	0.611994	0.499957
C57	C	0.301350	0.110338	-0.000047
C58	C	0.801350	0.610338	0.499953
C59	C	0.662847	0.116695	-0.000032
C60	C	1.162847	0.616695	0.499968
C61	C	1.134101	0.107407	-0.000042
C62	C	1.634101	0.607407	0.499958
C63	C	1.226396	0.109022	-0.000051
C64	C	1.726396	0.609022	0.499949
C65	C	0.975984	0.265523	-0.000043
C66	C	1.475984	0.765523	0.499957
C67	C	0.977600	0.357819	-0.000048
C68	C	1.477600	0.857819	0.499952
N69	N	0.982088	0.113514	0.228139
N70	N	1.482088	0.613514	0.728139
N71	N	0.982109	0.113514	-0.228211
N72	N	1.482109	0.613514	0.271789
C73	C	1.038644	0.056996	0.453862
C74	C	1.538644	0.556996	0.953862
C75	C	1.038647	0.056994	0.546052
C76	C	1.538647	0.556994	1.046052
C77	C	0.925547	0.170035	0.546059
C78	C	1.425547	0.670035	1.046059
C79	C	0.925541	0.170032	0.453871
C80	C	1.425541	0.670032	0.953871
C81	C	0.982094	0.113514	0.407775
C82	C	1.482094	0.613514	0.907775
C83	C	0.982103	0.113514	0.592153
C84	C	1.482103	0.613514	1.092153
C85	C	0.982105	0.113513	0.692109
C86	C	1.482105	0.613513	1.192109
C87	C	0.982091	0.113514	0.307813
C88	C	1.482091	0.613514	0.807813
H89	H	1.118131	-0.483172	-0.000061
H90	H	1.618131	0.016828	0.499939
Cl91	Cl	0.579990	0.115232	-0.180248
Cl92	Cl	1.079990	0.615232	0.319752
Cl93	Cl	0.579940	0.115232	0.180169
Cl94	Cl	1.079940	0.615232	0.680169
H95	H	1.084692	0.010975	0.416333
H96	H	1.584692	0.510975	0.916333
Cl97	Cl	1.109739	-0.014061	0.603988
Cl98	Cl	1.609739	0.485939	1.103988
H99	H	0.879503	0.216052	0.583600
H100	H	1.379503	0.716052	1.083600
H101	H	0.879487	0.216056	0.416344
H102	H	1.379487	0.716056	0.916344
H103	H	0.843284	-0.447118	-0.000017
H104	H	1.343284	0.052882	0.499983
H105	H	1.120896	-0.325856	-0.000049
H106	H	1.620896	0.174144	0.499951
Cl107	Cl	0.384214	0.111790	0.180160
Cl108	Cl	0.884214	0.611790	0.680160
Cl109	Cl	0.384251	0.111775	-0.180249
Cl110	Cl	0.884251	0.611775	0.319751
Cl111	Cl	0.812850	-0.266185	-0.000017
Cl112	Cl	1.312850	0.233815	0.499983
