data_functionalizedCrystal
_audit_creation_method	'MofGen! by Chris Wilmer'
_symmetry_space_group_name_H-M	'P1'
_symmetry_Int_Tables_number	1
_symmetry_cell_setting	triclinic
loop_
_symmetry_equiv_pos_as_xyz
  x,y,z
_cell_length_a	14.586319
_cell_length_b	19.288864
_cell_length_c	19.288857
_cell_angle_alpha	96.865323
_cell_angle_beta	90.005938
_cell_angle_gamma	89.982652
loop_
_atom_site_label
_atom_site_type_symbol
_atom_site_fract_x
_atom_site_fract_y
_atom_site_fract_z
O1	O	0.076539	-0.921345	0.086647
O2	O	0.076477	-0.719084	0.098336
O3	O	0.076498	-0.826062	-0.008639
O4	O	0.076517	-0.814367	0.193622
O5	O	-0.075982	-0.826054	-0.008641
O6	O	-0.076004	-0.719077	0.098334
O7	O	-0.075942	-0.921338	0.086646
Cu8	Cu	-0.089896	-0.820206	0.092490
Cu9	Cu	0.090430	-0.820215	0.092492
O10	O	-0.075964	-0.814360	0.193621
C11	C	0.000228	-0.693204	0.097959
C12	C	0.000204	-0.616100	0.096830
C13	C	0.000257	-0.825683	-0.034516
C14	C	0.000254	-0.824556	-0.111620
N15	N	-0.216728	-0.820205	0.092488
C16	C	-0.451724	-0.867591	0.045135
C17	C	-0.547706	-0.867593	0.045134
C18	C	-0.547735	-0.772831	0.139843
C19	C	-0.451755	-0.772827	0.139841
C20	C	-0.403752	-0.820210	0.092488
C21	C	-0.595713	-0.820217	0.092488
C22	C	-0.699780	-0.820219	0.092487
C23	C	-0.299679	-0.820208	0.092488
N24	N	0.217262	-0.820222	0.092488
C25	C	0.000308	-0.947218	0.087022
C26	C	0.000338	-1.024321	0.088151
C27	C	0.000224	-0.571402	0.159598
C28	C	0.000234	-0.498955	0.158537
C29	C	0.000242	-0.471209	0.094705
C30	C	0.000217	-0.515917	0.031929
C31	C	0.000198	-0.588363	0.032991
C32	C	0.053689	-0.362951	0.044526
C33	C	0.053714	-0.290507	0.043466
C34	C	0.000298	-0.247764	0.091425
C35	C	-0.053132	-0.277473	0.140456
C36	C	-0.053151	-0.349918	0.141519
C37	C	0.000263	-0.392656	0.093546
C38	C	0.000327	-0.124510	0.153048
C39	C	0.000332	-0.052062	0.151984
C40	C	0.000324	-0.069026	0.025374
C41	C	0.000310	-0.141472	0.026439
C42	C	0.000316	-0.169210	0.090278
C43	C	0.083371	-0.824034	-0.147830
C44	C	0.083378	-0.822965	-0.220276
C45	C	0.000262	-0.822432	-0.256511
C46	C	-0.082866	-0.822950	-0.220292
C47	C	-0.082870	-0.824012	-0.147847
C48	C	-0.063397	-0.861431	-0.376744
C49	C	-0.063390	-0.860373	-0.449188
C50	C	0.000272	-0.819155	-0.479957
C51	C	0.063941	-0.779002	-0.438274
C52	C	0.063936	-0.780064	-0.365828
C53	C	0.000257	-0.821281	-0.335066
C54	C	0.083402	-0.817473	-0.594721
C55	C	0.083405	-0.816400	-0.667168
C56	C	-0.082841	-0.816392	-0.667184
C57	C	-0.082842	-0.817458	-0.594738
C58	C	0.000282	-0.818002	-0.558511
C59	C	0.000279	-0.814739	0.219498
C60	C	0.000288	-0.815866	0.296602
H61	H	-0.412643	-0.906172	0.006577
Br62	Br	0.000256	-0.438282	0.243729
H63	H	-0.150556	-0.824434	-0.118365
Br64	Br	-0.386642	-0.708515	0.204104
Br65	Br	0.000231	-0.609043	0.246236
H66	H	0.151086	-0.817912	-0.565223
Br67	Br	0.196188	-0.822254	-0.269429
Br68	Br	0.000219	-0.478265	-0.054702
Br69	Br	0.196217	-0.815684	-0.716311
Br70	Br	0.150337	-0.725573	-0.309259
Br71	Br	0.000351	0.008602	0.237178
H72	H	0.000319	-0.147095	0.205029
H73	H	-0.096659	-0.374104	0.181439
H74	H	-0.096630	-0.242672	0.179509
H75	H	-0.586762	-0.906173	0.006574
Br76	Br	-0.612884	-0.708529	0.204107
H77	H	0.000387	-0.046436	-0.026600
Br78	Br	0.000285	-0.202138	-0.058751
H79	H	0.097224	-0.266324	0.003546
H80	H	0.097193	-0.397748	0.005471
H81	H	-0.150539	-0.822515	-0.249800
H82	H	0.000182	-0.624757	-0.018124
Br83	Br	0.196182	-0.824769	-0.098668
H84	H	0.115780	-0.745438	-0.463324
Br85	Br	-0.195644	-0.815662	-0.716351
Br86	Br	-0.195651	-0.818163	-0.545592
Br87	Br	-0.149790	-0.914870	-0.505752
H88	H	-0.115245	-0.894995	-0.351698
