data_functionalizedCrystal
_audit_creation_method	'MofGen! by Chris Wilmer'
_symmetry_space_group_name_H-M	'P1'
_symmetry_Int_Tables_number	1
_symmetry_cell_setting	triclinic
loop_
_symmetry_equiv_pos_as_xyz
  x,y,z
_cell_length_a	19.121102
_cell_length_b	21.295417
_cell_length_c	19.120904
_cell_angle_alpha	87.591662
_cell_angle_beta	89.911827
_cell_angle_gamma	87.584620
loop_
_atom_site_label
_atom_site_type_symbol
_atom_site_fract_x
_atom_site_fract_y
_atom_site_fract_z
Zn1	Zn	1.054814	-0.307921	0.442032
Zn2	Zn	1.554814	0.192079	0.942032
Zn3	Zn	1.059724	-0.408895	0.324785
Zn4	Zn	1.559724	0.091105	0.824785
Zn5	Zn	0.942584	-0.298967	0.319816
Zn6	Zn	1.442584	0.201033	0.819816
Zn7	Zn	0.937535	-0.408472	0.436987
Zn8	Zn	1.437535	0.091528	0.936987
O9	O	0.998664	-0.356064	0.380905
O10	O	1.498664	0.143936	0.880905
O11	O	1.153571	-0.325239	0.430669
O12	O	1.653571	0.174761	0.930669
O13	O	1.048352	-0.390743	0.226021
O14	O	1.548352	0.109257	0.726021
O15	O	0.957530	-0.212069	0.336060
O16	O	1.457530	0.287931	0.836060
O17	O	1.157177	-0.399425	0.344528
O18	O	1.657177	0.100575	0.844528
O19	O	1.039985	-0.218647	0.425851
O20	O	1.539985	0.281353	0.925851
O21	O	0.962291	-0.309980	0.222371
O22	O	1.462291	0.190020	0.722371
O23	O	0.843809	-0.309569	0.331169
O24	O	1.343809	0.190431	0.831169
O25	O	0.948925	-0.398703	0.535761
O26	O	1.448925	0.101297	1.035761
O27	O	0.840100	-0.390022	0.417254
O28	O	1.340100	0.109978	0.917254
O29	O	1.035089	-0.324829	0.539467
O30	O	1.535089	0.175171	1.039467
O31	O	1.043456	-0.496925	0.339637
O32	O	1.543456	0.003075	0.839637
O33	O	0.953685	-0.496614	0.422072
O34	O	1.453685	0.003386	0.922072
C35	C	0.816517	-0.348778	0.373125
C36	C	1.316517	0.151222	0.873125
C37	C	0.738593	-0.345677	0.369814
C38	C	1.238593	0.154323	0.869814
C39	C	0.700074	-0.386166	0.413007
C40	C	1.200074	0.113834	0.913007
C41	C	0.626856	-0.383244	0.409899
C42	C	1.126856	0.116756	0.909899
C43	C	0.592158	-0.339836	0.363593
C44	C	1.092158	0.160164	0.863593
C45	C	0.630682	-0.299344	0.320398
C46	C	1.130682	0.200656	0.820398
C47	C	0.703899	-0.302263	0.323510
C48	C	1.203899	0.197737	0.823510
C49	C	0.371187	-0.328921	0.351961
C50	C	0.871187	0.171079	0.851961
C51	C	0.297965	-0.326006	0.348850
C52	C	0.797965	0.173994	0.848850
C53	C	0.294144	-0.409906	0.438353
C54	C	0.794144	0.090094	0.938353
C55	C	0.367362	-0.412824	0.441458
C56	C	0.867362	0.087176	0.941458
C57	C	0.405880	-0.372329	0.398265
C58	C	0.905880	0.127671	0.898265
C59	C	0.517318	-0.336850	0.360413
C60	C	1.017318	0.163150	0.860413
C61	C	0.480719	-0.375313	0.401449
C62	C	0.980719	0.124687	0.901449
C63	C	0.998574	-0.519610	0.380862
C64	C	1.498574	-0.019610	0.880862
C65	C	0.998599	-0.589580	0.380870
C66	C	1.498599	-0.089580	0.880870
C67	C	1.045380	-0.622590	0.337994
C68	C	1.545380	-0.122590	0.837994
C69	C	1.045413	-0.688335	0.338011
C70	C	1.545413	-0.188335	0.838011
C71	C	0.998651	-0.721065	0.380897
C72	C	1.498651	-0.221065	0.880897
C73	C	0.951865	-0.688046	0.423781
C74	C	1.451865	-0.188046	0.923781
C75	C	0.951839	-0.622304	0.423768
C76	C	1.451839	-0.122304	0.923768
N77	N	0.937094	-0.822078	0.383622
N78	N	1.437094	-0.322078	0.883622
N79	N	0.937121	-0.884530	0.383630
N80	N	1.437121	-0.384530	0.883630
C81	C	0.998728	-0.919144	0.380940
C82	C	1.498728	-0.419144	0.880940
N83	N	1.060308	-0.888946	0.378228
N84	N	1.560308	-0.388946	0.878228
N85	N	1.060281	-0.826487	0.378215
N86	N	1.560281	-0.326487	0.878215
C87	C	0.998674	-0.792352	0.380916
C88	C	1.498674	-0.292352	0.880916
C89	C	1.045548	-1.023443	0.338080
C90	C	1.545548	-0.523443	0.838080
C91	C	1.045581	-1.089189	0.338103
C92	C	1.545581	-0.589189	0.838103
C93	C	0.952028	-1.088899	0.423869
C94	C	1.452028	-0.588899	0.923869
C95	C	0.952001	-1.023154	0.423850
C96	C	1.452001	-0.523154	0.923850
C97	C	0.998760	-0.990430	0.380953
C98	C	1.498760	-0.490430	0.880953
C99	C	1.181523	-0.363378	0.388716
C100	C	1.681523	0.136622	0.888716
C101	C	1.259446	-0.366495	0.392044
C102	C	1.759446	0.133505	0.892044
C103	C	0.990896	-0.362718	0.563763
C104	C	1.490896	0.137282	1.063763
C105	C	0.987586	-0.365553	0.641686
C106	C	1.487586	0.134447	1.141686
C107	C	0.998773	-0.191880	0.380964
C108	C	1.498773	0.308120	0.880964
C109	C	0.998820	-0.121914	0.380989
C110	C	1.498820	0.378086	0.880989
C111	C	1.006442	-0.349392	0.198761
C112	C	1.506442	0.150608	0.698761
C113	C	1.009889	-0.346384	0.120844
C114	C	1.509889	0.153616	0.620844
C115	C	1.030890	-0.328425	0.680225
C116	C	1.530890	0.171575	1.180225
C117	C	1.027771	-0.331086	0.753441
C118	C	1.527771	0.168914	1.253441
C119	C	0.981351	-0.370880	0.788118
C120	C	1.481351	0.129120	1.288118
C121	C	0.938043	-0.408010	0.749573
C122	C	1.438043	0.091990	1.249573
C123	C	0.941159	-0.405345	0.676358
C124	C	1.441159	0.094655	1.176358
C125	C	0.969696	-0.380849	1.009084
C126	C	1.469696	0.119151	1.509084
C127	C	0.966585	-0.383513	1.082305
C128	C	1.466585	0.116487	1.582305
C129	C	1.056312	-0.306588	1.086168
C130	C	1.556312	0.193412	1.586168
C131	C	1.059427	-0.303929	1.012951
C132	C	1.559427	0.196071	1.512951
C133	C	1.016116	-0.341056	0.974413
C134	C	1.516116	0.158944	1.474413
C135	C	0.978164	-0.373603	0.862957
C136	C	1.478164	0.126397	1.362957
C137	C	1.019300	-0.338330	0.899575
C138	C	1.519300	0.161670	1.399575
H139	H	0.595497	-0.416215	0.445071
H140	H	1.095497	0.083785	0.945071
H141	H	0.269716	-0.290651	0.311147
H142	H	0.769716	0.209349	0.811147
F143	F	1.068696	-0.295973	0.862668
F144	F	1.568696	0.204027	1.362668
H145	H	0.602426	-0.263997	0.282698
H146	H	1.102426	0.236003	0.782698
F147	F	1.095153	-0.587767	0.292346
F148	F	1.595153	-0.087767	0.792346
F149	F	0.412171	-0.285821	0.305993
F150	F	0.912171	0.214179	0.805993
H151	H	0.928782	-0.415919	1.110536
H152	H	1.428782	0.084081	1.610536
F153	F	0.253145	-0.453002	0.484317
F154	F	0.753145	0.046998	0.984317
F155	F	0.928764	-0.415956	0.899868
F156	F	1.428764	0.084044	1.399868
F157	F	0.404284	-0.459026	0.490742
F158	F	0.904284	0.040974	0.990742
F159	F	0.480383	-0.290653	0.311133
F160	F	0.980383	0.209347	0.811133
H161	H	0.913743	-0.595426	0.458684
H162	H	1.413743	-0.095426	0.958684
H163	H	0.934439	-0.411090	0.977716
H164	H	1.434439	0.088910	1.477716
F165	F	0.744893	-0.259168	0.277539
F166	F	1.244893	0.240832	0.777539
F167	F	0.517648	-0.421508	0.450730
F168	F	1.017648	0.078492	0.950730
H169	H	1.091573	-0.276360	1.117553
H170	H	1.591573	0.223640	1.617553
H171	H	1.083625	-0.996798	0.303153
H172	H	1.583625	-0.496798	0.803153
H173	H	0.913904	-0.996275	0.458761
H174	H	1.413904	-0.496275	0.958761
F175	F	1.095206	-0.723475	0.292374
F176	F	1.595206	-0.223475	0.792374
F177	F	1.095380	-1.124322	0.292470
F178	F	1.595380	-0.624322	0.792470
H179	H	0.905889	-0.435572	0.644980
H180	H	1.405889	0.064428	1.144980
F181	F	1.073885	-0.291591	0.794455
F182	F	1.573885	0.208409	1.294455
H183	H	0.728320	-0.421515	0.450712
H184	H	1.228320	0.078485	0.950712
F185	F	0.902101	-0.722881	0.469426
F186	F	1.402101	-0.222881	0.969426
F187	F	0.902264	-1.123728	0.469515
F188	F	1.402264	-0.623728	0.969515
F189	F	1.080300	-0.286074	0.643326
F190	F	1.580300	0.213926	1.143326
F191	F	1.108834	-0.261575	0.976051
F192	F	1.608834	0.238425	1.476051
H193	H	0.900244	-0.440409	0.777813
H194	H	1.400244	0.059591	1.277813
