data_functionalizedCrystal
_audit_creation_method	'MofGen! by Chris Wilmer'
_symmetry_space_group_name_H-M	'P1'
_symmetry_Int_Tables_number	1
_symmetry_cell_setting	triclinic
loop_
_symmetry_equiv_pos_as_xyz
  x,y,z
_cell_length_a	14.044220
_cell_length_b	12.837942
_cell_length_c	11.295483
_cell_angle_alpha	94.530417
_cell_angle_beta	85.525227
_cell_angle_gamma	94.008909
loop_
_atom_site_label
_atom_site_type_symbol
_atom_site_fract_x
_atom_site_fract_y
_atom_site_fract_z
O1	O	1.286265	0.245585	-0.098895
O2	O	1.009476	0.236489	-0.098925
O3	O	1.141733	0.089567	-0.098903
O4	O	1.154009	0.392507	-0.098916
O5	O	1.130114	0.102450	0.099146
O6	O	0.997858	0.249372	0.099124
O7	O	1.274647	0.258468	0.099154
Cu8	Cu	1.135192	0.255096	0.117222
Cu9	Cu	1.148932	0.239861	-0.116993
O10	O	1.142390	0.405390	0.099132
C11	C	1.131777	0.057005	0.000120
C12	C	1.119410	-0.059216	0.000117
C13	C	0.967993	0.238949	0.000096
C14	C	0.861696	0.227074	0.000084
C15	C	1.268089	-0.286427	0.000108
C16	C	1.256474	-0.395627	0.000105
C17	C	1.084564	-0.386819	0.000099
C18	C	1.096180	-0.277619	0.000102
C19	C	1.187945	-0.227427	0.000108
C20	C	1.199560	-0.118224	0.000120
C21	C	1.027651	-0.109419	0.000105
C22	C	1.016036	-0.218619	0.000102
C23	C	0.667072	0.205367	0.000109
C24	C	0.617046	0.289584	0.000110
C25	C	0.508750	0.277506	0.000124
C26	C	0.775377	0.217444	0.000095
C27	C	1.316130	0.256008	0.000131
C28	C	1.422428	0.267882	0.000135
C29	C	1.152346	0.437952	0.000106
C30	C	1.164714	0.554173	0.000102
N31	N	1.125534	0.265812	0.281957
N32	N	1.158595	0.229138	-0.281728
C33	C	1.228107	0.151941	0.531264
C34	C	1.220817	0.160047	0.655926
C35	C	1.103658	0.290124	0.655947
C36	C	1.110949	0.282018	0.531284
C37	C	1.173176	0.212926	0.468947
C38	C	1.180471	0.204826	0.344282
C39	C	1.063309	0.334896	0.344305
C40	C	1.056018	0.343002	0.468968
H41	H	1.274279	-0.077359	0.000130
H42	H	1.278782	0.095691	0.480508
C43	C	1.344632	-0.460524	0.000111
H44	H	1.400943	-0.414987	0.000124
H45	H	1.347724	-0.507797	-0.068952
H46	H	1.339623	-0.498813	0.069185
H47	H	0.628571	0.124202	0.000119
C48	C	0.983633	-0.442043	0.000090
H49	H	0.988198	-0.515528	0.000094
H50	H	0.954265	-0.426826	-0.068971
H51	H	0.946173	-0.417855	0.069166
C52	C	0.915102	-0.273836	0.000102
H53	H	0.919660	-0.347322	0.000108
H54	H	0.885730	-0.258618	-0.068957
H55	H	0.877647	-0.249641	0.069179
H56	H	0.655549	0.370756	0.000101
C57	C	1.248914	0.128824	0.275713
H58	H	1.280576	0.093658	0.330685
H59	H	1.294948	0.166962	0.227072
H60	H	1.213432	0.078945	0.227092
H61	H	1.265546	0.110387	0.706661
H62	H	0.962391	-0.061368	0.000115
H63	H	1.052987	0.346370	0.706718
C64	C	0.987578	0.419001	0.537545
H65	H	0.991107	0.415101	0.620715
H66	H	0.923951	0.400394	0.517126
H67	H	1.005469	0.488409	0.517112
H68	H	1.342808	-0.245559	0.000125
C69	C	1.002894	0.401994	0.275755
H70	H	1.016147	0.387274	0.192582
H71	H	1.018392	0.474051	0.296195
H72	H	0.936871	0.386039	0.296186
