data_functionalizedCrystal
_audit_creation_method	'MofGen! by Chris Wilmer'
_symmetry_space_group_name_H-M	'P1'
_symmetry_Int_Tables_number	1
_symmetry_cell_setting	triclinic
loop_
_symmetry_equiv_pos_as_xyz
  x,y,z
_cell_length_a	12.827893
_cell_length_b	12.827892
_cell_length_c	19.805399
_cell_angle_alpha	89.975345
_cell_angle_beta	90.016644
_cell_angle_gamma	89.974912
loop_
_atom_site_label
_atom_site_type_symbol
_atom_site_fract_x
_atom_site_fract_y
_atom_site_fract_z
Zn1	Zn	1.597572	0.416058	0.382681
Zn2	Zn	1.597444	0.590813	0.269498
Zn3	Zn	1.422821	0.416087	0.269511
Zn4	Zn	1.422769	0.590758	0.382651
O5	O	1.510152	0.503429	0.326085
O6	O	1.743791	0.439251	0.367674
O7	O	1.574249	0.567671	0.174783
O8	O	1.446078	0.269847	0.284541
O9	O	1.743697	0.567643	0.284519
O10	O	1.574466	0.269826	0.367686
O11	O	1.445954	0.439300	0.174793
O12	O	1.276578	0.439246	0.284512
O13	O	1.445988	0.567548	0.477371
O14	O	1.276540	0.567576	0.367635
O15	O	1.574415	0.439197	0.477393
O16	O	1.574198	0.737042	0.284490
O17	O	1.445865	0.737001	0.367623
C18	C	1.238642	0.503409	0.326072
C19	C	1.122489	0.503425	0.326083
C20	C	1.510040	0.774939	0.326067
C21	C	1.510088	0.891092	0.326081
C22	C	1.510210	0.503363	0.502628
C23	C	1.510235	0.503335	0.577860
C24	C	1.070712	0.567026	0.367151
C25	C	0.950662	0.567045	0.367163
C26	C	1.782722	0.503450	0.326098
C27	C	1.898875	0.503459	0.326104
C28	C	1.573582	0.942783	0.367260
C29	C	1.573633	1.062833	0.367276
C30	C	1.510249	1.230859	0.326113
C31	C	1.510182	1.114706	0.326111
C32	C	1.510153	0.503419	0.150229
C33	C	1.510331	0.503153	0.074997
C34	C	1.577109	0.436499	0.613217
C35	C	1.577119	0.436469	0.683905
C36	C	1.510261	0.503281	0.719235
C37	C	1.443380	0.570119	0.683874
C38	C	1.443365	0.570144	0.613187
C39	C	1.443439	0.570022	0.968947
C40	C	1.443462	0.569995	1.039639
C41	C	1.577194	0.436347	1.039666
C42	C	1.577178	0.436372	0.968978
C43	C	1.510294	0.503206	0.933623
C44	C	1.510282	0.503237	0.856974
C45	C	1.510278	0.503256	0.795883
H46	H	1.115262	0.621460	0.402305
C47	C	1.369677	0.991977	0.316682
C48	C	1.436788	1.054713	0.278514
H49	H	1.324364	0.954940	0.287297
H50	H	1.409480	0.943876	0.342498
H51	H	1.329662	1.034574	0.346128
H52	H	1.476809	1.012115	0.249072
H53	H	1.396981	1.102819	0.252687
C54	C	1.392405	0.746972	0.947169
C55	C	1.369910	0.643482	0.930097
H56	H	1.347005	0.792321	0.923181
H57	H	1.382861	0.756506	0.994320
H58	H	1.462601	0.762278	0.935573
H59	H	1.299715	0.628174	0.941698
H60	H	1.379445	0.633944	0.882936
H61	H	1.455762	0.935714	0.290842
H62	H	1.631577	0.382047	0.712689
C63	C	1.384026	0.629432	0.792219
C64	C	1.369887	0.643561	0.722708
H65	H	1.338658	0.674779	0.816191
H66	H	1.368769	0.559221	0.803809
H67	H	1.454237	0.644730	0.803800
H68	H	1.299677	0.628254	0.711126
H69	H	1.385136	0.713787	0.711113
C70	C	1.628091	0.259558	0.591483
C71	C	1.650600	0.363054	0.574385
H72	H	1.673458	0.214213	0.567507
H73	H	1.637673	0.249988	0.638636
H74	H	1.557881	0.244279	0.579889
H75	H	1.720809	0.378335	0.585983
H76	H	1.641027	0.372628	0.527220
H77	H	1.077939	0.448984	0.290934
H78	H	1.631625	0.381970	0.940216
C79	C	1.624405	1.096480	0.481903
C80	C	1.647016	1.122835	0.414875
H81	H	1.669714	1.133521	0.511288
H82	H	1.554181	1.114370	0.491751
H83	H	1.634003	1.023674	0.488128
H84	H	1.637411	1.195640	0.408648
H85	H	1.717257	1.104952	0.405023
C86	C	1.636597	0.376941	1.148036
C87	C	1.650704	0.362867	1.078531
H88	H	1.681975	0.331575	1.172027
H89	H	1.651859	0.447142	1.159613
H90	H	1.566390	0.361635	1.159608
H91	H	1.720909	0.378181	1.066958
H92	H	1.635448	0.292650	1.066950
H93	H	1.389013	0.624403	1.068404
C94	C	1.311202	0.702278	0.620256
C95	C	1.369874	0.643630	0.574320
H96	H	1.265838	0.747652	0.596260
H97	H	1.271248	0.656740	0.647823
H98	H	1.356734	0.742231	0.647831
H99	H	1.324342	0.603671	0.546748
H100	H	1.409831	0.689173	0.546741
H101	H	0.906136	0.621499	0.402321
H102	H	0.943394	0.449009	0.290939
H103	H	1.627900	0.898163	0.402506
