data_functionalizedCrystal
_audit_creation_method	'MofGen! by Chris Wilmer'
_symmetry_space_group_name_H-M	'P1'
_symmetry_Int_Tables_number	1
_symmetry_cell_setting	triclinic
loop_
_symmetry_equiv_pos_as_xyz
  x,y,z
_cell_length_a	14.044191
_cell_length_b	14.971486
_cell_length_c	13.448316
_cell_angle_alpha	90.006811
_cell_angle_beta	89.995859
_cell_angle_gamma	91.597047
loop_
_atom_site_label
_atom_site_type_symbol
_atom_site_fract_x
_atom_site_fract_y
_atom_site_fract_z
O1	O	1.257956	-0.215694	-0.082644
O2	O	1.757956	0.284306	0.417356
O3	O	0.981977	-0.207905	-0.082657
O4	O	1.481977	0.292095	0.417343
O5	O	1.127363	-0.082182	-0.082643
O6	O	1.627363	0.417818	0.417357
O7	O	1.112570	-0.341417	-0.082658
O8	O	1.612570	0.158583	0.417342
O9	O	1.127345	-0.082172	0.082740
O10	O	1.627345	0.417828	0.582740
O11	O	0.981959	-0.207895	0.082727
O12	O	1.481959	0.292105	0.582727
O13	O	1.257937	-0.215684	0.082739
O14	O	1.757937	0.284316	0.582739
Cu15	Cu	1.119947	-0.211789	0.097834
Cu16	Cu	1.619947	0.288211	0.597834
Cu17	Cu	1.119968	-0.211800	-0.097752
Cu18	Cu	1.619968	0.288200	0.402248
O19	O	1.112551	-0.341407	0.082726
O20	O	1.612551	0.158593	0.582726
C21	C	0.946650	-0.204493	0.000033
C22	C	1.446650	0.295507	0.500033
C23	C	0.841412	-0.194329	0.000029
C24	C	1.341412	0.305671	0.500029
C25	C	0.591187	-0.247831	0.000036
C26	C	1.091187	0.252169	0.500036
C27	C	0.648734	-0.175762	0.000038
C28	C	1.148734	0.324238	0.500038
C29	C	0.755950	-0.186095	0.000033
C30	C	1.255950	0.313905	0.500033
C31	C	0.483960	-0.237499	0.000041
C32	C	0.983960	0.262501	0.500041
C33	C	1.126693	-0.048800	0.000048
C34	C	1.626693	0.451200	0.500048
C35	C	1.124710	0.050653	0.000047
C36	C	1.624710	0.550653	0.500047
C37	C	1.293265	-0.219096	0.000047
C38	C	1.793265	0.280904	0.500047
C39	C	1.398502	-0.229260	0.000045
C40	C	1.898502	0.270740	0.500045
C41	C	1.113222	-0.374788	0.000032
C42	C	1.613222	0.125212	0.500032
C43	C	1.115205	-0.474242	0.000026
C44	C	1.615205	0.025758	0.500026
N45	N	1.119938	-0.211780	0.235398
N46	N	1.619938	0.288220	0.735398
C47	C	1.210121	0.101148	0.000052
C48	C	1.710121	0.601148	0.500052
C49	C	1.208252	0.194594	0.000042
C50	C	1.708252	0.694594	0.500042
C51	C	1.120972	0.237545	0.000034
C52	C	1.620972	0.737545	0.500034
C53	C	1.035555	0.187043	0.000027
C54	C	1.535555	0.687043	0.500027
C55	C	1.037425	0.093598	0.000030
C56	C	1.537425	0.593598	0.500030
C57	C	1.031664	0.381812	0.000023
C58	C	1.531664	0.881812	0.500023
C59	C	1.029794	0.475263	0.000022
C60	C	1.529794	0.975263	0.500022
C61	C	1.202492	0.482808	0.000035
C62	C	1.702492	0.982808	0.500035
C63	C	1.204361	0.389364	0.000038
C64	C	1.704361	0.889364	0.500038
C65	C	1.118944	0.338868	0.000032
C66	C	1.618944	0.838868	0.500032
N67	N	1.119984	-0.211802	-0.235316
N68	N	1.619984	0.288198	0.264684
C69	C	1.184335	-0.156137	0.287445
C70	C	1.684335	0.343863	0.787445
C71	C	1.184341	-0.156137	0.391548
C72	C	1.684341	0.343863	0.891548
C73	C	1.119954	-0.211785	0.443603
C74	C	1.619954	0.288215	0.943603
C75	C	1.055550	-0.267431	0.391549
C76	C	1.555550	0.232569	0.891549
C77	C	1.055540	-0.267426	0.287448
C78	C	1.555540	0.232574	0.787448
C79	C	1.055576	-0.267439	0.608529
C80	C	1.555576	0.232561	1.108529
C81	C	1.055587	-0.267446	0.712638
C82	C	1.555587	0.232554	1.212638
C83	C	1.184377	-0.156150	0.712629
C84	C	1.684377	0.343850	1.212629
C85	C	1.184368	-0.156145	0.608528
C86	C	1.684368	0.343855	1.108528
C87	C	1.119965	-0.211792	0.556481
C88	C	1.619965	0.288208	1.056481
H89	H	0.622439	-0.317285	0.000029
H90	H	1.122439	0.182715	0.500029
Cl91	Cl	0.600484	-0.068520	0.000043
Cl92	Cl	1.100484	0.431480	0.500043
H93	H	1.272042	0.523926	0.000037
H94	H	1.772042	1.023926	0.500037
H95	H	1.281194	0.066185	0.000064
H96	H	1.781194	0.566185	0.500064
Cl97	Cl	0.920069	0.529257	0.000013
Cl98	Cl	1.420069	1.029257	0.500013
H99	H	1.003101	-0.312735	0.245072
H100	H	1.503101	0.187265	0.745072
Cl101	Cl	0.925831	0.241038	0.000005
Cl102	Cl	1.425831	0.741038	0.500005
Cl103	Cl	0.924280	0.318334	0.000015
Cl104	Cl	1.424280	0.818334	0.500015
Cl105	Cl	1.315630	0.258070	0.000051
Cl106	Cl	1.815630	0.758070	0.500051
H107	H	1.236816	-0.110840	0.755012
H108	H	1.736816	0.389160	1.255012
H109	H	0.967874	0.052486	0.000026
H110	H	1.467874	0.552486	0.500026
H111	H	1.275432	0.354396	0.000051
H112	H	1.775432	0.854396	0.500051
H113	H	1.236771	-0.110826	0.245068
H114	H	1.736771	0.389174	0.745068
H115	H	1.236777	-0.110827	0.433924
H116	H	1.736777	0.389173	0.933924
H117	H	1.236801	-0.110836	0.566145
H118	H	1.736801	0.389164	1.066145
H119	H	1.003155	-0.312759	0.755016
H120	H	1.503155	0.187241	1.255016
Cl121	Cl	0.974608	-0.337395	0.543103
Cl122	Cl	1.474608	0.162605	1.043103
Cl123	Cl	0.974600	-0.337386	0.456987
Cl124	Cl	1.474600	0.162614	0.956987
