data_functionalizedCrystal
_audit_creation_method	'MofGen! by Chris Wilmer'
_symmetry_space_group_name_H-M	'P1'
_symmetry_Int_Tables_number	1
_symmetry_cell_setting	triclinic
loop_
_symmetry_equiv_pos_as_xyz
  x,y,z
_cell_length_a	19.188930
_cell_length_b	14.519709
_cell_length_c	13.596369
_cell_angle_alpha	90.006934
_cell_angle_beta	90.019208
_cell_angle_gamma	83.412462
loop_
_atom_site_label
_atom_site_type_symbol
_atom_site_fract_x
_atom_site_fract_y
_atom_site_fract_z
O1	O	-0.926555	-0.115137	-0.082110
O2	O	-0.723299	-0.130636	-0.082043
O3	O	-0.830316	0.011385	-0.082069
O4	O	-0.819538	-0.257158	-0.082083
O5	O	-0.830306	0.011393	0.081514
O6	O	-0.723289	-0.130629	0.081540
O7	O	-0.926545	-0.115130	0.081473
Zn8	Zn	-0.824915	-0.122878	0.107479
Zn9	Zn	-0.824929	-0.122888	-0.108049
O10	O	-0.819528	-0.257151	0.081500
C11	C	-0.697281	-0.130131	-0.000242
C12	C	-0.619771	-0.128624	-0.000217
C13	C	-0.952563	-0.115635	-0.000329
C14	C	-1.030073	-0.117142	-0.000361
C15	C	-0.575144	-0.211957	-0.000236
C16	C	-0.502315	-0.210542	-0.000247
C17	C	-0.474117	-0.125788	-0.000258
C18	C	-0.518754	-0.042444	-0.000232
C19	C	-0.591581	-0.043861	-0.000212
N20	N	-0.365910	-0.061007	-0.055968
N21	N	-0.296726	-0.059666	-0.055990
C22	C	-0.254693	-0.121511	-0.000318
N23	N	-0.284455	-0.184762	0.055365
N24	N	-0.353645	-0.186106	0.055382
C25	C	-0.395149	-0.124241	-0.000280
C26	C	-0.131096	-0.203315	-0.000348
C27	C	-0.058266	-0.201896	-0.000352
C28	C	-0.074706	-0.033796	-0.000348
C29	C	-0.147535	-0.035217	-0.000333
C30	C	-0.175725	-0.119980	-0.000338
C31	C	-0.829809	0.045746	-0.000277
C32	C	-0.828304	0.148118	-0.000276
C33	C	-0.820035	-0.291511	-0.000294
C34	C	-0.821541	-0.393883	-0.000302
N35	N	-0.824911	-0.122871	0.254571
C36	C	-0.822762	0.522979	-0.000300
C37	C	-0.824301	0.418681	-0.000293
C38	C	-0.825533	0.335552	-0.000287
C39	C	-0.827072	0.231247	-0.000282
N40	N	-0.824939	-0.122888	-0.255140
C41	C	-0.824928	-0.122889	0.655862
C42	C	-0.824921	-0.122887	0.544210
C43	C	-0.824920	-0.122880	0.455220
C44	C	-0.824912	-0.122877	0.343561
H45	H	-0.598091	-0.280978	-0.000242
C46	C	-0.453967	-0.301122	-0.000329
C47	C	-0.494243	-0.375655	-0.000353
C48	C	-0.449732	-0.459111	-0.000446
H49	H	-0.425175	-0.304200	0.056688
H50	H	-0.425252	-0.304104	-0.057409
H51	H	-0.522947	-0.372675	0.056721
H52	H	-0.523034	-0.372609	-0.057367
H53	H	-0.421016	-0.462092	-0.057526
H54	H	-0.420942	-0.462178	0.056573
H55	H	-0.477052	-0.509691	-0.000471
H56	H	-0.154049	-0.272334	-0.000337
C57	C	-0.196027	0.055232	-0.000125
C58	C	-0.238275	0.059346	0.084057
C59	C	-0.282949	0.142663	0.084291
H60	H	-0.224864	0.058256	-0.057096
H61	H	-0.168830	0.105941	-0.000081
H62	H	-0.265470	0.008652	0.084005
H63	H	-0.209457	0.056339	0.141042
H64	H	-0.255752	0.193371	0.084335
H65	H	-0.311782	0.145679	0.027316
H66	H	-0.311615	0.145469	0.141412
H67	H	-0.495790	0.026564	-0.000255
C68	C	-0.639922	0.046720	-0.000248
C69	C	-0.599644	0.121250	-0.000281
C70	C	-0.644153	0.204708	-0.000331
H71	H	-0.668671	0.049795	0.056786
H72	H	-0.668682	0.049707	-0.057311
H73	H	-0.570897	0.118265	0.056776
H74	H	-0.570897	0.118206	-0.057311
H75	H	-0.672913	0.207695	-0.057394
H76	H	-0.672900	0.207773	0.056705
H77	H	-0.616831	0.255286	-0.000362
C78	C	-0.009926	-0.292479	-0.000421
C79	C	-0.050206	-0.367007	-0.000448
C80	C	-0.005699	-0.450466	-0.000525
H81	H	0.018860	-0.295554	0.056602
H82	H	0.018796	-0.295468	-0.057495
H83	H	-0.078916	-0.364020	0.056620
H84	H	-0.078991	-0.363963	-0.057467
H85	H	0.023023	-0.453455	-0.057599
H86	H	0.023085	-0.453531	0.056500
H87	H	-0.033022	-0.501044	-0.000552
C88	C	-0.044236	0.058320	-0.000307
C89	C	-0.098911	0.130999	-0.000266
C90	C	-0.070865	0.215871	-0.000211
H91	H	-0.016197	0.062497	-0.057342
H92	H	-0.016168	0.062419	0.056755
H93	H	-0.126967	0.126902	-0.057323
H94	H	-0.126954	0.126852	0.056765
H95	H	-0.042798	0.219970	0.056851
H96	H	-0.042827	0.220039	-0.057247
H97	H	-0.107958	0.265194	-0.000174
