data_functionalizedCrystal
_audit_creation_method	'MofGen! by Chris Wilmer'
_symmetry_space_group_name_H-M	'P1'
_symmetry_Int_Tables_number	1
_symmetry_cell_setting	triclinic
loop_
_symmetry_equiv_pos_as_xyz
  x,y,z
_cell_length_a	12.784905
_cell_length_b	19.188937
_cell_length_c	11.295483
_cell_angle_alpha	85.919817
_cell_angle_beta	86.327249
_cell_angle_gamma	101.872625
loop_
_atom_site_label
_atom_site_type_symbol
_atom_site_fract_x
_atom_site_fract_y
_atom_site_fract_z
O1	O	1.417478	0.000763	-0.099032
O2	O	1.750812	0.334096	0.234301
O3	O	2.084145	0.667429	0.567635
O4	O	1.107886	-0.029146	-0.099034
O5	O	1.441219	0.304187	0.234300
O6	O	1.774552	0.637521	0.567633
O7	O	1.271612	0.087987	-0.099022
O8	O	1.604945	0.421321	0.234312
O9	O	1.938278	0.754654	0.567645
O10	O	1.253752	-0.116371	-0.099044
O11	O	1.587085	0.216963	0.234290
O12	O	1.920419	0.550296	0.567623
O13	O	1.257231	0.077714	0.099028
O14	O	1.590565	0.411047	0.432361
O15	O	1.923898	0.744380	0.765695
O16	O	1.093505	-0.039420	0.099016
O17	O	1.426839	0.293914	0.432349
O18	O	1.760172	0.627247	0.765683
O19	O	1.403098	-0.009511	0.099018
O20	O	1.736431	0.323823	0.432351
O21	O	2.069765	0.657156	0.765685
Cu22	Cu	1.246989	-0.025403	0.117100
Cu23	Cu	1.580322	0.307930	0.450434
Cu24	Cu	1.913655	0.641263	0.783767
Cu25	Cu	1.263995	-0.013254	-0.117116
Cu26	Cu	1.597328	0.320080	0.216217
Cu27	Cu	1.930662	0.653413	0.549550
O28	O	1.239372	-0.126644	0.099006
O29	O	1.572705	0.206689	0.432339
O30	O	1.906038	0.540022	0.765673
C31	C	1.061087	-0.036228	-0.000009
C32	C	1.394420	0.297105	0.333324
C33	C	1.727754	0.630439	0.666658
C34	C	0.943067	-0.042016	-0.000009
C35	C	1.276400	0.291318	0.333324
C36	C	1.609733	0.624651	0.666657
C37	C	0.747227	0.075903	-0.000018
C38	C	1.080560	0.409236	0.333316
C39	C	1.413894	0.742570	0.666649
C40	C	0.636337	0.070468	-0.000018
C41	C	0.969670	0.403802	0.333315
C42	C	1.303004	0.737135	0.666649
C43	C	0.610395	-0.058319	-0.000019
C44	C	0.943729	0.275014	0.333314
C45	C	1.277062	0.608348	0.666648
C46	C	0.721285	-0.052884	-0.000019
C47	C	1.054619	0.280449	0.333315
C48	C	1.387952	0.613782	0.666648
C49	C	0.789698	0.014229	-0.000016
C50	C	1.123031	0.347562	0.333317
C51	C	1.456364	0.680896	0.666650
C52	C	0.900589	0.019663	-0.000007
C53	C	1.233922	0.352996	0.333326
C54	C	1.567256	0.686329	0.666659
C55	C	0.874646	-0.109123	-0.000017
C56	C	1.207979	0.224210	0.333317
C57	C	1.541313	0.557543	0.666650
C58	C	0.763756	-0.114558	-0.000017
C59	C	1.097089	0.218775	0.333316
C60	C	1.430423	0.552109	0.666650
C61	C	1.263842	0.108827	0.000003
C62	C	1.597175	0.442161	0.333337
C63	C	1.930509	0.775494	0.666670
C64	C	1.262102	0.186230	0.000004
C65	C	1.595436	0.519563	0.333338
C66	C	1.928769	0.852896	0.666671
C67	C	1.241887	0.733164	0.107943
C68	C	1.575221	1.066497	0.441277
C69	C	1.908554	1.399831	0.774610
C70	C	1.243510	0.660434	0.107949
C71	C	1.576843	0.993768	0.441282
C72	C	1.910177	1.327101	0.774615
C73	C	1.252165	0.629663	-0.000008
C74	C	1.585499	0.962996	0.333326
C75	C	1.918832	1.296329	0.666659
C76	C	1.259171	0.671623	-0.107977
C77	C	1.592504	1.004956	0.225356
C78	C	1.925837	1.338290	0.558690
C79	C	1.257537	0.744350	-0.107979
C80	C	1.590871	1.077683	0.225354
C81	C	1.924204	1.411016	0.558687
N82	N	1.321065	0.528509	-0.080363
N83	N	1.654398	0.861843	0.252970
N84	N	1.987731	1.195176	0.586304
N85	N	1.322618	0.459422	-0.080354
N86	N	1.655952	0.792755	0.252980
N87	N	1.989285	1.126089	0.586313
C88	C	1.257085	0.410542	-0.000008
C89	C	1.590419	0.743875	0.333326
C90	C	1.923752	1.077209	0.666659
N91	N	1.189952	0.433360	0.080347
N92	N	1.523286	0.766693	0.413680
N93	N	1.856619	1.100027	0.747014
N94	N	1.188403	0.502454	0.080341
N95	N	1.521737	0.835787	0.413674
N96	N	1.855070	1.169121	0.747008
C97	C	1.253937	0.550804	-0.000017
C98	C	1.587270	0.884137	0.333316
C99	C	1.920604	1.217470	0.666649
C100	C	1.251832	0.289728	0.107961
C101	C	1.585166	0.623061	0.441294
C102	C	1.918499	0.956395	0.774628
C103	C	1.253449	0.216996	0.107962
C104	C	1.586782	0.550330	0.441295
C105	C	1.920115	0.883663	0.774628
C106	C	1.269120	0.228188	-0.107967
C107	C	1.602454	0.561522	0.225366
C108	C	1.935787	0.894855	0.558699
C109	C	1.267493	0.300917	-0.107965
C110	C	1.600826	0.634250	0.225368
C111	C	1.934160	0.967583	0.558702
C112	C	1.258854	0.331683	0.000003
C113	C	1.592187	0.665016	0.333336
C114	C	1.925521	0.998350	0.666669
C115	C	1.449897	-0.002429	-0.000009
C116	C	1.783230	0.330905	0.333324
C117	C	2.116563	0.664238	0.666657
C118	C	1.567918	0.003359	-0.000017
C119	C	1.901251	0.336693	0.333316
C120	C	2.234584	0.670026	0.666650
N121	N	1.235035	-0.033948	0.281836
N122	N	1.568368	0.299385	0.615169
N123	N	1.901702	0.632719	0.948503
C124	C	1.247146	0.852516	-0.000017
C125	C	1.580479	1.185850	0.333316
C126	C	1.913812	1.519183	0.666649
C127	C	1.248898	0.775116	-0.000012
C128	C	1.582231	1.108449	0.333321
C129	C	1.915565	1.441782	0.666655
N130	N	1.275957	-0.004703	-0.281852
N131	N	1.609290	0.328630	0.051482
N132	N	1.942624	0.661964	0.384815
C133	C	1.362006	0.056844	0.531135
C134	C	1.695340	0.390178	0.864468
C135	C	2.028673	0.723511	1.197801
C136	C	1.352980	0.050383	0.655798
C137	C	1.686314	0.383716	0.989131
C138	C	2.019647	0.717049	1.322464
C139	C	1.207953	-0.053329	0.655827
C140	C	1.541286	0.280004	0.989161
C141	C	1.874619	0.613337	1.322494
C142	C	1.216979	-0.046868	0.531164
C143	C	1.550312	0.286466	0.864498
C144	C	1.883645	0.619799	1.197831
C145	C	1.294009	0.008220	0.468822
C146	C	1.627342	0.341554	0.802156
C147	C	1.960676	0.674887	1.135489
C148	C	1.303039	0.014678	0.344157
C149	C	1.636373	0.348012	0.677490
C150	C	1.969706	0.681345	1.010824
C151	C	1.158007	-0.089030	0.344189
C152	C	1.491341	0.244303	0.677522
C153	C	1.824674	0.577637	1.010855
C154	C	1.148981	-0.095492	0.468852
C155	C	1.482315	0.237842	0.802185
C156	C	1.815648	0.571175	1.135518
H157	H	0.601763	0.120690	-0.000022
H158	H	0.935097	0.454023	0.333312
H159	H	1.268430	0.787356	0.666645
H160	H	1.365764	0.059532	0.293399
H161	H	1.699097	0.392865	0.626733
H162	H	2.032431	0.726199	0.960066
H163	H	1.237781	0.626268	0.195862
H164	H	1.571114	0.959601	0.529195
H165	H	1.904448	1.292934	0.862528
H166	H	1.102642	-0.128625	0.293440
H167	H	1.435976	0.204709	0.626773
H168	H	1.769309	0.538042	0.960107
H169	H	0.956289	0.074309	-0.000003
H170	H	1.289623	0.407643	0.333330
H171	H	1.622956	0.740976	0.666663
H172	H	1.408349	0.089978	0.706529
H173	H	1.741683	0.423311	1.039862
H174	H	2.075016	0.756645	1.373196
H175	H	0.909236	-0.159343	-0.000009
H176	H	1.242569	0.173990	0.333324
H177	H	1.575902	0.507323	0.666657
H178	H	1.145229	-0.098177	0.706602
H179	H	1.478563	0.235157	1.039935
H180	H	1.811896	0.568490	1.373269
H181	H	0.802929	0.130549	-0.000008
H182	H	1.136263	0.463882	0.333326
H183	H	1.469596	0.797215	0.666659
H184	H	0.554677	-0.112958	-0.000037
H185	H	0.888010	0.220375	0.333297
H186	H	1.221343	0.553709	0.666630
H187	H	1.273209	0.335076	-0.195874
H188	H	1.606543	0.668409	0.137459
H189	H	1.939876	1.001743	0.470793
H190	H	0.708040	-0.169199	-0.000024
H191	H	1.041374	0.164134	0.333309
H192	H	1.374707	0.497467	0.666643
H193	H	1.234851	0.758208	0.195859
H194	H	1.568185	1.091542	0.529192
H195	H	1.901518	1.424875	0.862526
H196	H	1.266214	0.646564	-0.195876
H197	H	1.599547	0.979897	0.137458
H198	H	1.932881	1.313230	0.470791
H199	H	1.086262	-0.140342	0.519625
H200	H	1.419595	0.192991	0.852958
H201	H	1.752928	0.526325	1.186292
H202	H	1.263245	0.778507	-0.195892
H203	H	1.596578	1.111840	0.137441
H204	H	1.929912	1.445174	0.470775
H205	H	1.244789	0.314778	0.195874
H206	H	1.578122	0.648111	0.529208
H207	H	1.911455	0.981444	0.862541
H208	H	1.247737	0.182839	0.195875
H209	H	1.581070	0.516173	0.529209
H210	H	1.914403	0.849506	0.862542
H211	H	1.424735	0.101695	0.480375
H212	H	1.758068	0.435028	0.813708
H213	H	2.091401	0.768362	1.147042
H214	H	1.276155	0.203133	-0.195867
H215	H	1.609488	0.536466	0.137466
H216	H	1.942822	0.869800	0.470799
