data_functionalizedCrystal
_audit_creation_method	'MofGen! by Chris Wilmer'
_symmetry_space_group_name_H-M	'P1'
_symmetry_Int_Tables_number	1
_symmetry_cell_setting	triclinic
loop_
_symmetry_equiv_pos_as_xyz
  x,y,z
_cell_length_a	19.077236
_cell_length_b	12.827892
_cell_length_c	19.076919
_cell_angle_alpha	87.721647
_cell_angle_beta	89.887323
_cell_angle_gamma	87.689617
loop_
_atom_site_label
_atom_site_type_symbol
_atom_site_fract_x
_atom_site_fract_y
_atom_site_fract_z
Zn1	Zn	1.058322	0.379341	-0.440572
Zn2	Zn	1.062975	0.546811	-0.323079
Zn3	Zn	0.945537	0.378793	-0.318352
Zn4	Zn	0.940796	0.560753	-0.435818
O5	O	1.001908	0.466425	-0.379455
O6	O	1.157273	0.395951	-0.428954
O7	O	1.051329	0.518459	-0.224120
O8	O	0.960535	0.232628	-0.334576
O9	O	1.160691	0.518991	-0.342632
O10	O	1.043398	0.233031	-0.424371
O11	O	0.965048	0.395017	-0.220648
O12	O	0.846575	0.408536	-0.329966
O13	O	0.952454	0.542752	-0.534780
O14	O	0.843092	0.542221	-0.416268
O15	O	1.038800	0.409470	-0.538273
O16	O	1.046731	0.694898	-0.338022
O17	O	0.956966	0.705141	-0.420851
C18	C	0.819337	0.476833	-0.372089
C19	C	0.741231	0.481311	-0.368954
C20	C	0.702755	0.419466	-0.412493
C21	C	0.629367	0.423668	-0.409542
C22	C	0.594456	0.489723	-0.363054
C23	C	0.632938	0.551571	-0.319511
C24	C	0.706325	0.547362	-0.322459
C25	C	0.375165	0.509164	-0.349407
C26	C	0.301772	0.513370	-0.346463
C27	C	0.298207	0.385466	-0.436494
C28	C	0.371595	0.381267	-0.439441
C29	C	0.410070	0.443111	-0.395895
N30	N	0.519442	0.494023	-0.360038
N31	N	0.485083	0.438805	-0.398908
C32	C	1.001858	0.737937	-0.379450
C33	C	1.001900	0.854089	-0.379474
C34	C	1.046366	0.900771	-0.338539
C35	C	1.046410	1.020820	-0.338562
C36	C	1.185192	0.455977	-0.386851
C37	C	1.263296	0.451525	-0.390002
C38	C	0.994579	0.477727	-0.562735
C39	C	0.991456	0.482544	-0.640838
C40	C	1.001970	1.193853	-0.379485
C41	C	1.001982	1.077701	-0.379519
C42	C	1.034942	0.415417	-0.679351
C43	C	1.031999	0.419939	-0.752737
C44	C	0.985573	0.491594	-0.787609
C45	C	0.942082	0.558724	-0.749091
C46	C	0.945022	0.554196	-0.675706
C47	C	0.971956	0.512572	-1.006890
C48	C	0.969021	0.517097	-1.080280
C49	C	1.058938	0.378310	-1.083921
C50	C	1.061877	0.373793	-1.010535
C51	C	1.018383	0.440919	-0.972023
N52	N	0.982565	0.496220	-0.862621
N53	N	1.021388	0.436287	-0.897012
C54	C	1.009248	0.455088	-0.196890
C55	C	1.012507	0.449970	-0.118792
H56	H	0.731174	0.365680	-0.450350
Cl57	Cl	0.910649	0.607179	-1.124118
H58	H	1.084477	1.060985	-0.303514
Cl59	Cl	0.917279	0.596960	-0.958485
Cl60	Cl	0.754695	0.625115	-0.267722
Cl61	Cl	0.890349	0.638585	-0.627290
H62	H	0.904278	0.617063	-0.777489
H63	H	0.406482	0.559522	-0.313949
Cl64	Cl	0.249834	0.307722	-0.491232
Cl65	Cl	0.943197	1.015703	-0.433628
H66	H	0.598043	0.373309	-0.444997
H67	H	0.963866	0.902999	-0.414540
H68	H	0.604508	0.605349	-0.281656
Cl69	Cl	0.415477	0.298230	-0.497889
H70	H	0.273351	0.567165	-0.308607
H71	H	1.072750	0.357070	-0.650964
Cl72	Cl	1.086701	0.335591	-0.801151
Cl73	Cl	1.105098	0.825267	-0.284405
H74	H	1.099684	0.315446	-0.982147
Cl75	Cl	1.113609	0.293925	-1.132339
