data_functionalizedCrystal
_audit_creation_method	'MofGen! by Chris Wilmer'
_symmetry_space_group_name_H-M	'P1'
_symmetry_Int_Tables_number	1
_symmetry_cell_setting	triclinic
loop_
_symmetry_equiv_pos_as_xyz
  x,y,z
_cell_length_a	25.639242
_cell_length_b	16.120484
_cell_length_c	16.120256
_cell_angle_alpha	84.383827
_cell_angle_beta	92.869764
_cell_angle_gamma	87.078463
loop_
_atom_site_label
_atom_site_type_symbol
_atom_site_fract_x
_atom_site_fract_y
_atom_site_fract_z
Zn1	Zn	0.772385	0.356869	-0.489652
Zn2	Zn	1.272385	0.856869	0.010348
Zn3	Zn	0.772320	0.489555	-0.356962
Zn4	Zn	1.272320	0.989555	0.143038
Zn5	Zn	0.689622	0.349789	-0.349877
Zn6	Zn	1.189622	0.849789	0.150123
Zn7	Zn	0.680261	0.496587	-0.496662
Zn8	Zn	1.180261	0.996587	0.003338
O9	O	0.728647	0.423200	-0.423288
O10	O	1.228647	0.923200	0.076712
O11	O	0.845540	0.374490	-0.472082
O12	O	1.345540	0.874490	0.027918
O13	O	0.765240	0.465108	-0.239061
O14	O	1.265240	0.965108	0.260939
O15	O	0.704546	0.233764	-0.362519
O16	O	1.204546	0.733764	0.137481
O17	O	0.845492	0.471973	-0.374595
O18	O	1.345492	0.971973	0.125405
O19	O	0.765352	0.238965	-0.465212
O20	O	1.265352	0.738965	0.034788
O21	O	0.704483	0.362423	-0.233855
O22	O	1.204483	0.862423	0.266145
O23	O	0.615217	0.369243	-0.369316
O24	O	1.115217	0.869243	0.130684
O25	O	0.688591	0.483960	-0.612694
O26	O	1.188591	0.983960	-0.112694
O27	O	0.608339	0.477095	-0.477159
O28	O	1.108339	0.977095	0.022841
O29	O	0.756275	0.381309	-0.607544
O30	O	1.256275	0.881309	-0.107544
O31	O	0.756163	0.607452	-0.381392
O32	O	1.256163	1.107452	0.118608
O33	O	0.688528	0.612619	-0.484029
O34	O	1.188528	1.112619	0.015971
C35	C	0.721336	0.640365	-0.434259
C36	C	1.221336	1.140365	0.065741
C37	C	0.718255	0.733270	-0.438980
C38	C	1.218255	1.233270	0.061020
C39	C	0.592808	0.423164	-0.423230
C40	C	1.092808	0.923164	0.076770
C41	C	0.534693	0.423170	-0.423226
C42	C	1.034693	0.923170	0.076774
C43	C	0.721396	0.434209	-0.641293
C44	C	1.221396	0.934209	-0.141293
C45	C	0.718306	0.438900	-0.734194
C46	C	1.218306	0.938900	-0.234194
C47	C	0.170754	0.479445	-0.479396
C48	C	0.670754	0.979445	0.020604
C49	C	0.116149	0.479451	-0.479409
C50	C	0.616149	0.979451	0.020591
O51	O	0.084874	0.527255	-0.527117
O52	O	0.584874	1.027255	-0.027117
N53	N	0.092405	0.423226	-0.423344
N54	N	0.592405	0.923226	0.076656
C55	C	0.123270	0.366986	-0.367267
C56	C	0.623270	0.866986	0.132733
O57	O	0.098060	0.319162	-0.319581
O58	O	0.598060	0.819162	0.180419
C59	C	0.177874	0.366976	-0.367258
C60	C	0.677874	0.866976	0.132742
C61	C	0.201614	0.423211	-0.423322
C62	C	0.701614	0.923211	0.076678
C63	C	0.194495	0.535675	-0.535455
C64	C	0.694495	1.035675	-0.035455
C65	C	0.249096	0.535670	-0.535440
C66	C	0.749096	1.035670	-0.035440
C67	C	0.279956	0.479435	-0.479366
C68	C	0.779956	0.979435	0.020634
C69	C	0.256215	0.423206	-0.423307
C70	C	0.756215	0.923206	0.076693
C71	C	0.208737	0.310733	-0.311186
C72	C	0.708737	0.810733	0.188814
C73	C	0.263345	0.310728	-0.311183
C74	C	0.763345	0.810728	0.188817
C75	C	0.287085	0.366963	-0.367246
C76	C	0.787085	0.866963	0.132754
C77	C	0.341677	0.366967	-0.367218
C78	C	0.841677	0.866967	0.132782
N79	N	0.365421	0.423192	-0.423283
N80	N	0.865421	0.923192	0.076717
C81	C	0.334560	0.479426	-0.479357
C82	C	0.834560	0.979426	0.020643
C83	C	0.008598	0.367008	-0.367291
C84	C	0.508598	0.867008	0.132709
C85	C	-0.046005	0.367020	-0.367295
C86	C	0.453995	0.867020	0.132705
C87	C	-0.053122	0.479485	-0.479438
C88	C	0.446878	0.979485	0.020562
C89	C	0.001482	0.479476	-0.479430
C90	C	0.501482	0.979476	0.020570
C91	C	0.032341	0.423233	-0.423356
C92	C	0.532341	0.923233	0.076644
C93	C	0.449227	0.479412	-0.479322
C94	C	0.949227	0.979412	0.020678
C95	C	0.503833	0.479405	-0.479300
C96	C	1.003833	0.979405	0.020700
C97	C	0.510946	0.366937	-0.367160
C98	C	1.010946	0.866937	0.132840
C99	C	0.456344	0.366947	-0.367179
C100	C	0.956344	0.866947	0.132821
C101	C	0.425486	0.423188	-0.423267
C102	C	0.925486	0.923188	0.076733
O103	O	0.372985	0.319185	-0.319537
O104	O	0.872985	0.819185	0.180463
O105	O	0.359777	0.527235	-0.527043
O106	O	0.859777	1.027235	-0.027043
C107	C	0.865017	0.423237	-0.423347
C108	C	1.365017	0.923237	0.076653
C109	C	0.923130	0.423252	-0.423372
C110	C	1.423130	0.923252	0.076628
C111	C	0.736001	0.205189	-0.412293
C112	C	1.236001	0.705189	0.087707
C113	C	0.739134	0.112285	-0.407608
C114	C	1.239134	0.612285	0.092392
C115	C	0.712632	0.903369	-0.447616
C116	C	1.212632	1.403369	0.052384
C117	C	0.744755	0.942191	-0.398974
C118	C	1.244755	1.442191	0.101026
C119	C	0.741627	1.036840	-0.403779
C120	C	1.241627	1.536840	0.096221
C121	C	0.715760	0.808712	-0.442812
C122	C	1.215760	1.308712	0.057188
C123	C	0.744761	0.398715	-0.943127
C124	C	1.244761	0.898715	-0.443127
C125	C	0.712648	0.447430	-0.904278
C126	C	1.212648	0.947430	-0.404278
C127	C	0.715797	0.442682	-0.809634
C128	C	1.215797	0.942682	-0.309634
C129	C	0.741612	0.403461	-1.037779
C130	C	1.241612	0.903461	-0.537779
C131	C	0.735902	0.412174	-0.206128
C132	C	1.235902	0.912174	0.293872
C133	C	0.739101	0.407248	-0.113216
C134	C	1.239101	0.907248	0.386784
H135	H	0.523159	0.525201	-0.524954
H136	H	1.023159	1.025201	-0.024954
C137	C	0.784502	0.891583	-0.338648
C138	C	1.284502	1.391583	0.161352
C139	C	0.779728	0.806405	-0.345789
C140	C	1.279728	1.306405	0.154211
C141	C	0.816325	0.759756	-0.290222
C142	C	1.316325	1.259756	0.209778
H143	H	0.818784	0.906301	-0.351581
H144	H	1.318784	1.406301	0.148419
H145	H	0.778275	0.902993	-0.283171
H146	H	1.278275	1.402993	0.216829
H147	H	0.785958	0.795000	-0.401254
H148	H	1.285958	1.295000	0.098746
H149	H	0.745453	0.791662	-0.332849
H150	H	1.245453	1.291662	0.167151
H151	H	0.810098	0.771166	-0.234744
H152	H	1.310098	1.271166	0.265256
H153	H	0.850605	0.774481	-0.303159
H154	H	1.350605	1.274481	0.196841
H155	H	0.813087	0.701958	-0.295054
H156	H	1.313087	1.201958	0.204946
C157	C	0.672846	0.953973	-0.507865
C158	C	1.172846	1.453973	-0.007865
C159	C	0.677603	1.039148	-0.500684
C160	C	1.177603	1.539148	-0.000684
C161	C	0.640955	1.085799	-0.556159
C162	C	1.140955	1.585799	-0.056159
H163	H	0.679020	0.942626	-0.563367
H164	H	1.179020	1.442626	-0.063367
H165	H	0.638580	0.939196	-0.494852
H166	H	1.138580	1.439196	0.005148
H167	H	0.711861	1.053920	-0.513702
H168	H	1.211861	1.553920	-0.013702
H169	H	0.671423	1.050521	-0.445194
H170	H	1.171423	1.550521	0.054806
H171	H	0.606689	1.071022	-0.543147
H172	H	1.106689	1.571022	-0.043147
H173	H	0.647132	1.074445	-0.611657
H174	H	1.147132	1.574445	-0.111657
H175	H	0.644174	1.143594	-0.551289
H176	H	1.144174	1.643594	-0.051289
C177	C	0.274965	0.596677	-0.596230
C178	C	0.774965	1.096677	-0.096230
C179	C	0.329391	0.584659	-0.584220
C180	C	0.829391	1.084659	-0.084220
C181	C	0.353234	0.640850	-0.640204
C182	C	0.853234	1.140850	-0.140204
H183	H	0.264623	0.587414	-0.651827
H184	H	0.764623	1.087414	-0.151827
H185	H	0.264566	0.652217	-0.586743
H186	H	0.764566	1.152217	-0.086743
H187	H	0.339785	0.529133	-0.593713
H188	H	0.839785	1.029133	-0.093713
H189	H	0.339747	0.593929	-0.528634
H190	H	0.839747	1.093929	-0.028634
H191	H	0.342836	0.696389	-0.630718
H192	H	0.842836	1.196389	-0.130718
H193	H	0.342889	0.631582	-0.695798
H194	H	0.842889	1.131582	-0.195798
H195	H	0.390165	0.632708	-0.632058
H196	H	0.890165	1.132708	-0.132058
H197	H	0.682788	0.492697	-0.942097
H198	H	1.182788	0.992697	-0.442097
H199	H	0.169373	0.581468	-0.581122
H200	H	0.669373	1.081468	-0.081122
C201	C	0.784557	0.338444	-0.892560
C202	C	1.284557	0.838444	-0.392560
C203	C	0.779819	0.345688	-0.807384
C204	C	1.279819	0.845688	-0.307384
C205	C	0.816476	0.290192	-0.760767
C206	C	1.316476	0.790192	-0.260767
H207	H	0.778379	0.282939	-0.903857
H208	H	1.278379	0.782939	-0.403857
H209	H	0.818819	0.351401	-0.907412
H210	H	1.318819	0.851401	-0.407412
H211	H	0.745565	0.332725	-0.792538
H212	H	1.245565	0.832725	-0.292538
H213	H	0.786002	0.401180	-0.796062
H214	H	1.286002	0.901180	-0.296062
H215	H	0.850739	0.303149	-0.775619
H216	H	1.350739	0.803149	-0.275619
H217	H	0.810295	0.234692	-0.772071
H218	H	1.310295	0.734692	-0.272071
H219	H	0.813270	0.295105	-0.702971
H220	H	1.313270	0.795105	-0.202971
H221	H	0.424108	0.525207	-0.524996
H222	H	0.924108	1.025207	-0.024996
C223	C	0.430664	0.305806	-0.306270
C224	C	0.930664	0.805806	0.193730
C225	C	0.469380	0.256547	-0.257171
C226	C	0.969380	0.756547	0.242829
C227	C	0.445748	0.200201	-0.201065
C228	C	0.945748	0.700201	0.298935
H229	H	0.409494	0.335783	-0.271340
H230	H	0.909494	0.835783	0.228660
H231	H	0.409544	0.271008	-0.336451
H232	H	0.909544	0.771008	0.163549
H233	H	0.490491	0.291341	-0.226991
H234	H	0.990491	0.791341	0.273009
H235	H	0.490552	0.226552	-0.292077
H236	H	0.990552	0.726552	0.207923
H237	H	0.424628	0.165403	-0.231246
H238	H	0.924628	0.665403	0.268754
H239	H	0.424579	0.230185	-0.166141
H240	H	0.924579	0.730185	0.333859
H241	H	0.472013	0.166768	-0.167750
H242	H	0.972013	0.666768	0.332250
H243	H	0.020807	0.525266	-0.525082
H244	H	0.520807	1.025266	-0.025082
H245	H	-0.078259	0.525272	-0.525099
H246	H	0.421741	1.025272	-0.025099
H247	H	-0.065329	0.321237	-0.321635
H248	H	0.434671	0.821237	0.178365
C249	C	0.042165	0.306083	-0.306355
C250	C	0.542165	0.806083	0.193645
C251	C	0.073707	0.350612	-0.255099
C252	C	0.573707	0.850612	0.244901
C253	C	0.104637	0.294517	-0.198963
C254	C	0.604637	0.794517	0.301037
H255	H	0.020264	0.272580	-0.272887
H256	H	0.520264	0.772580	0.227113
H257	H	0.063661	0.271334	-0.336516
H258	H	0.563661	0.771334	0.163484
H259	H	0.052213	0.385346	-0.224939
H260	H	0.552213	0.885346	0.275061
H261	H	0.095618	0.384112	-0.288543
H262	H	0.595618	0.884112	0.211457
H263	H	0.126133	0.259768	-0.229125
H264	H	0.626133	0.759768	0.270875
H265	H	0.082732	0.261017	-0.165502
H266	H	0.582732	0.761017	0.334498
H267	H	0.126045	0.324721	-0.164185
H268	H	0.626045	0.824721	0.335815
C269	C	0.182889	0.249665	-0.250435
C270	C	0.682889	0.749665	0.249565
C271	C	0.151750	0.198573	-0.295127
C272	C	0.651750	0.698573	0.204873
C273	C	0.127921	0.142327	-0.239181
C274	C	0.627921	0.642327	0.260819
H275	H	0.209029	0.216092	-0.217005
H276	H	0.709029	0.716092	0.282995
H277	H	0.161696	0.279747	-0.215606
H278	H	0.661696	0.779747	0.284394
H279	H	0.172941	0.168494	-0.329942
H280	H	0.672941	0.668494	0.170058
H281	H	0.125601	0.232123	-0.328554
H282	H	0.625601	0.732123	0.171446
H283	H	0.106728	0.172408	-0.204351
H284	H	0.606728	0.672408	0.295649
H285	H	0.154065	0.108759	-0.205754
H286	H	0.654065	0.608759	0.294246
H287	H	0.106787	0.107659	-0.269495
H288	H	0.606787	0.607659	0.230505
C289	C	0.296759	0.249631	-0.250202
C290	C	0.796759	0.749631	0.249798
C291	C	0.264276	0.200407	-0.201096
C292	C	0.764276	0.700407	0.298904
C293	C	0.295036	0.144127	-0.144902
C294	C	0.795036	0.644127	0.355098
H295	H	0.318234	0.214797	-0.280290
H296	H	0.818234	0.714797	0.219710
H297	H	0.318180	0.279685	-0.215291
H298	H	0.818180	0.779685	0.284709
H299	H	0.242863	0.170355	-0.236003
H300	H	0.742863	0.670355	0.263997
H301	H	0.242800	0.235218	-0.170990
H302	H	0.742800	0.735218	0.329010
H303	H	0.316458	0.174181	-0.109992
H304	H	0.816458	0.674181	0.390008
H305	H	0.316510	0.109299	-0.174997
H306	H	0.816510	0.609299	0.325003
H307	H	0.273001	0.110727	-0.111572
H308	H	0.773001	0.610727	0.388428
C309	C	0.544548	0.305919	-0.306377
C310	C	1.044548	0.805919	0.193623
C311	C	0.597447	0.317939	-0.318389
C312	C	1.097447	0.817939	0.181611
C313	C	0.628418	0.261732	-0.262424
C314	C	1.128418	0.761732	0.237576
H315	H	0.537116	0.315164	-0.250774
H316	H	1.037116	0.815164	0.249226
H317	H	0.537110	0.250384	-0.315881
H318	H	1.037110	0.750384	0.184119
H319	H	0.604882	0.373460	-0.308879
H320	H	1.104882	0.873460	0.191121
H321	H	0.604895	0.308687	-0.373981
H322	H	1.104895	0.808687	0.126019
H323	H	0.620980	0.206198	-0.271927
H324	H	1.120980	0.706198	0.228073
H325	H	0.620982	0.270983	-0.206824
H326	H	1.120982	0.770983	0.293176
H327	H	0.664313	0.269875	-0.270571
H328	H	1.164313	0.769875	0.229429
