data_functionalizedCrystal
_audit_creation_method	'MofGen! by Chris Wilmer'
_symmetry_space_group_name_H-M	'P1'
_symmetry_Int_Tables_number	1
_symmetry_cell_setting	triclinic
loop_
_symmetry_equiv_pos_as_xyz
  x,y,z
_cell_length_a	17.699104
_cell_length_b	14.853559
_cell_length_c	16.176319
_cell_angle_alpha	89.995393
_cell_angle_beta	89.991696
_cell_angle_gamma	83.461486
loop_
_atom_site_label
_atom_site_type_symbol
_atom_site_fract_x
_atom_site_fract_y
_atom_site_fract_z
O1	O	1.004362	0.114098	-0.068759
O2	O	0.784024	0.128911	-0.068757
O3	O	0.900082	-0.009747	-0.068757
O4	O	0.888304	0.252756	-0.068759
O5	O	0.900066	-0.009756	0.068736
O6	O	0.784008	0.128902	0.068736
O7	O	1.004346	0.114089	0.068734
Cu8	Cu	0.894175	0.121495	0.081289
Cu9	Cu	0.894194	0.121506	-0.081312
O10	O	0.888288	0.252747	0.068734
C11	C	0.755818	0.128373	-0.000010
C12	C	0.671796	0.126771	-0.000009
C13	C	0.147111	0.199126	-0.000018
C14	C	0.226059	0.200626	-0.000021
C15	C	0.274467	0.119228	-0.000020
C16	C	0.243925	0.036326	-0.000025
C17	C	0.164978	0.034827	-0.000029
C18	C	0.562306	0.042368	-0.000012
C19	C	0.641257	0.043874	-0.000006
C20	C	0.623387	0.208167	-0.000004
C21	C	0.544440	0.206669	-0.000007
C22	C	0.513905	0.123767	-0.000017
C23	C	0.428301	0.122141	-0.000016
C24	C	0.360070	0.120853	-0.000015
C25	C	0.899541	-0.043338	-0.000012
C26	C	0.897946	-0.143416	-0.000017
C27	C	0.891185	-0.566562	-0.074964
C28	C	0.891167	-0.566567	0.074936
C29	C	0.892673	-0.472539	0.074937
C30	C	0.893433	-0.425518	-0.000014
C31	C	0.892688	-0.472525	-0.074966
C32	C	0.893410	-0.425523	0.149887
C33	C	0.894915	-0.331489	0.149891
C34	C	0.895681	-0.284468	0.074939
C35	C	0.894937	-0.331481	-0.000016
C36	C	0.895697	-0.284461	-0.074967
C37	C	0.894958	-0.331473	-0.149922
C38	C	0.893454	-0.425504	-0.149918
C39	C	0.897185	-0.190437	0.074934
C40	C	0.897201	-0.190424	-0.074968
C41	C	1.032552	0.114628	-0.000015
C42	C	1.116573	0.116230	-0.000021
C43	C	0.888828	0.286339	-0.000013
C44	C	0.890424	0.386417	-0.000013
N45	N	0.894168	0.121487	0.195655
N46	N	0.894208	0.121506	-0.195677
C47	C	0.945574	0.060114	0.238919
C48	C	0.945578	0.060114	0.325466
C49	C	0.894178	0.121490	0.368747
C50	C	0.842767	0.182866	0.325477
C51	C	0.842760	0.182862	0.238932
C52	C	0.842793	0.182883	0.674505
C53	C	0.842805	0.182884	0.761057
C54	C	0.945610	0.060134	0.761039
C55	C	0.945603	0.060130	0.674494
C56	C	0.894190	0.121502	0.631231
C57	C	0.894185	0.121502	0.537387
C58	C	0.894186	0.121496	0.462590
H59	H	0.537454	-0.025135	-0.000018
H60	H	0.897770	-0.152161	0.135962
H61	H	0.987436	0.010139	0.360691
H62	H	0.892787	-0.463814	0.210908
H63	H	0.895572	-0.293176	-0.210948
C64	C	0.786872	0.249541	0.372316
C65	C	0.741836	0.303270	0.315900
C66	C	0.690330	0.364694	0.359016
H67	H	0.814044	0.287123	0.406070
H68	H	0.755300	0.217174	0.406071
H69	H	0.773404	0.335635	0.282160
H70	H	0.714647	0.265713	0.282145
H71	H	0.658757	0.332327	0.392771
H72	H	0.717508	0.402270	0.392768
H73	H	0.659762	0.401151	0.320745
C74	C	1.001441	-0.006610	0.627653
C75	C	1.046449	-0.060377	0.684067
C76	C	1.097887	-0.121880	0.640948
H77	H	1.033047	0.025668	0.593875
H78	H	0.974194	-0.044151	0.593922
H79	H	1.073695	-0.022840	0.717783
H80	H	1.014865	-0.092675	0.717846
H81	H	1.070639	-0.159421	0.607218
H82	H	1.129487	-0.089593	0.607172
H83	H	1.128426	-0.158373	0.679218
H84	H	0.800899	0.232837	0.203707
H85	H	0.107702	0.265410	-0.000012
C86	C	0.656688	0.298087	-0.000048
C87	C	0.736186	0.281986	-0.000072
C88	C	0.766886	0.364795	-0.000123
H89	H	0.640157	0.331661	0.047885
H90	H	0.640126	0.331605	-0.048015
H91	H	0.752741	0.248482	0.047889
H92	H	0.752738	0.248426	-0.048002
H93	H	0.750324	0.398313	-0.048089
H94	H	0.750350	0.398362	0.047812
H95	H	0.820829	0.353881	-0.000147
H96	H	0.680671	-0.022414	-0.000008
H97	H	0.283345	-0.029950	-0.000030
H98	H	0.250919	0.268128	-0.000026
H99	H	0.505029	0.272951	-0.000004
C100	C	0.895765	-0.280622	0.231354
C101	C	0.894797	-0.341932	0.296991
C102	C	0.895595	-0.295107	0.372046
H103	H	0.852266	-0.236964	0.234593
H104	H	0.940473	-0.250940	0.234509
H105	H	0.850094	-0.371599	0.293837
H106	H	0.938292	-0.385592	0.293779
H107	H	0.940303	-0.265424	0.375201
H108	H	0.852095	-0.251450	0.375276
H109	H	0.894945	-0.336699	0.416590
H110	H	0.890586	-0.604844	-0.135991
C111	C	0.131966	-0.055268	0.000010
C112	C	0.191256	-0.126233	0.000033
C113	C	0.160876	-0.209243	0.000075
H114	H	0.101561	-0.059391	-0.047926
H115	H	0.101553	-0.059323	0.047974
H116	H	0.221656	-0.122181	-0.047925
H117	H	0.221666	-0.122141	0.047966
H118	H	0.130462	-0.213298	0.048039
H119	H	0.130471	-0.213357	-0.047862
H120	H	0.201098	-0.257403	0.000098
C121	C	0.786870	0.249416	0.808008
C122	C	0.712486	0.234871	0.786999
C123	C	0.660942	0.296130	0.830242
H124	H	0.795036	0.309616	0.793852
H125	H	0.794190	0.240623	0.865754
H126	H	0.705168	0.243671	0.729265
H127	H	0.704296	0.174683	0.801156
H128	H	0.668263	0.287337	0.887989
H129	H	0.669115	0.356327	0.816083
H130	H	0.610467	0.286265	0.815999
C131	C	0.897985	-0.139532	-0.156433
C132	C	0.896998	-0.200829	-0.222069
C133	C	0.897710	-0.153980	-0.297125
H134	H	0.942659	-0.109811	-0.159667
H135	H	0.854451	-0.095900	-0.159596
H136	H	0.940528	-0.244445	-0.218908
H137	H	0.852327	-0.230552	-0.218863
H138	H	0.854176	-0.110348	-0.300288
H139	H	0.942385	-0.124260	-0.300350
H140	H	0.897033	-0.195561	-0.341668
C141	C	0.892603	-0.476701	-0.231206
C142	C	0.891099	-0.569109	-0.215160
C143	C	0.890301	-0.616301	-0.290020
H144	H	0.936940	-0.468372	-0.262067
H145	H	0.848733	-0.454366	-0.262006
H146	H	0.934964	-0.591437	-0.184372
H147	H	0.846765	-0.577466	-0.184311
H148	H	0.846432	-0.593966	-0.320821
H149	H	0.934639	-0.607964	-0.320876
H150	H	0.889274	-0.679003	-0.279143
C151	C	0.787066	0.249669	0.627591
C152	C	0.799447	0.338241	0.648620
C153	C	0.748131	0.399794	0.605410
H154	H	0.736515	0.240073	0.641759
H155	H	0.794417	0.240945	0.569839
H156	H	0.792090	0.346961	0.706359
H157	H	0.849987	0.347866	0.634450
H158	H	0.755483	0.391070	0.547658
H159	H	0.697584	0.390190	0.619581
H160	H	0.756529	0.459897	0.619666
H161	H	0.890543	-0.604856	0.135958
H162	H	0.987432	0.010138	0.203684
H163	H	0.987472	0.010159	0.796273
