data_functionalizedCrystal
_audit_creation_method	'MofGen! by Chris Wilmer'
_symmetry_space_group_name_H-M	'P1'
_symmetry_Int_Tables_number	1
_symmetry_cell_setting	triclinic
loop_
_symmetry_equiv_pos_as_xyz
  x,y,z
_cell_length_a	17.038272
_cell_length_b	14.421503
_cell_length_c	15.944564
_cell_angle_alpha	89.996887
_cell_angle_beta	92.692254
_cell_angle_gamma	89.997443
loop_
_atom_site_label
_atom_site_type_symbol
_atom_site_fract_x
_atom_site_fract_y
_atom_site_fract_z
O1	O	1.037433	-0.077000	-0.182390
O2	O	1.370767	0.256333	0.150943
O3	O	1.704100	0.589667	0.484276
O4	O	0.809802	-0.077027	-0.179494
O5	O	1.143135	0.256306	0.153839
O6	O	1.476468	0.589639	0.487173
O7	O	0.929828	-0.077004	-0.059112
O8	O	1.263162	0.256329	0.274222
O9	O	1.596495	0.589663	0.607555
O10	O	0.917407	-0.077023	-0.302773
O11	O	1.250740	0.256310	0.030560
O12	O	1.584073	0.589643	0.363894
O13	O	0.929809	0.077219	-0.059129
O14	O	1.263142	0.410553	0.274204
O15	O	1.596475	0.743886	0.607537
O16	O	0.809782	0.077196	-0.179512
O17	O	1.143115	0.410529	0.153821
O18	O	1.476448	0.743863	0.487155
O19	O	1.037413	0.077223	-0.182408
O20	O	1.370747	0.410557	0.150925
O21	O	1.704080	0.743890	0.484258
Cu22	Cu	0.923596	0.091292	-0.180962
Cu23	Cu	1.256929	0.424625	0.152372
Cu24	Cu	1.590262	0.757958	0.485705
Cu25	Cu	0.923619	-0.091096	-0.180941
Cu26	Cu	1.256953	0.242238	0.152393
Cu27	Cu	1.590286	0.575571	0.485726
O28	O	0.917387	0.077200	-0.302791
O29	O	1.250720	0.410533	0.030543
O30	O	1.584053	0.743867	0.363876
C31	C	0.780663	0.000081	-0.176869
C32	C	1.113996	0.333414	0.156465
C33	C	1.447329	0.666748	0.489798
C34	C	0.693867	0.000071	-0.169009
C35	C	1.027200	0.333404	0.164324
C36	C	1.360534	0.666738	0.497657
N37	N	0.923585	0.219573	-0.180976
N38	N	1.256918	0.552906	0.152357
N39	N	1.590252	0.886239	0.485690
N40	N	0.923636	-0.219377	-0.180920
N41	N	1.256970	0.113957	0.152414
N42	N	1.590303	0.447290	0.485747
C43	C	0.643777	0.000066	-0.241167
C44	C	0.977111	0.333399	0.092166
C45	C	1.310444	0.666733	0.425500
C46	C	0.562224	0.000079	-0.233777
C47	C	0.895558	0.333413	0.099556
C48	C	1.228891	0.666746	0.432889
C49	C	0.530762	0.000091	-0.154229
C50	C	0.864096	0.333424	0.179104
C51	C	1.197429	0.666758	0.512437
C52	C	0.580859	0.000099	-0.082067
C53	C	0.914192	0.333432	0.251267
C54	C	1.247525	0.666765	0.584600
C55	C	0.662410	0.000092	-0.089457
C56	C	0.995743	0.333425	0.243876
C57	C	1.329077	0.666759	0.577210
C58	C	0.284996	0.000118	-0.128121
C59	C	0.618329	0.333451	0.205213
C60	C	0.951662	0.666785	0.538546
C61	C	0.203438	0.000122	-0.120736
C62	C	0.536771	0.333455	0.212598
C63	C	0.870105	0.666789	0.545931
C64	C	0.184809	0.000104	-0.272447
C65	C	0.518142	0.333437	0.060887
C66	C	0.851476	0.666771	0.394220
C67	C	0.266363	0.000092	-0.279830
C68	C	0.599696	0.333425	0.053503
C69	C	0.933030	0.666758	0.386836
C70	C	0.316452	0.000104	-0.207667
C71	C	0.649785	0.333438	0.125666
C72	C	0.983119	0.666771	0.458999
C73	C	0.447402	0.000102	-0.146674
C74	C	0.780736	0.333435	0.186659
C75	C	1.114069	0.666768	0.519992
C76	C	0.399810	0.000100	-0.215223
C77	C	0.733144	0.333434	0.118110
C78	C	1.066477	0.666767	0.451443
C79	C	1.066553	0.000113	-0.185034
C80	C	1.399886	0.333446	0.148300
C81	C	1.733219	0.666780	0.481633
C82	C	1.153348	0.000117	-0.192893
C83	C	1.486681	0.333450	0.140440
C84	C	1.820015	0.666784	0.473774
C85	C	0.929301	0.000108	-0.027790
C86	C	1.262634	0.333441	0.305544
C87	C	1.595968	0.666775	0.638877
C88	C	0.927750	0.000109	0.065566
C89	C	1.261083	0.333442	0.398900
C90	C	1.594416	0.666775	0.732233
C91	C	0.868075	0.469216	-0.236614
C92	C	1.201408	0.802549	0.096720
C93	C	1.534741	1.135882	0.430053
C94	C	0.938725	0.531025	-0.257965
C95	C	1.272058	0.864359	0.075368
C96	C	1.605392	1.197692	0.408701
C97	C	0.923604	0.408734	-0.180958
C98	C	1.256937	0.742068	0.152376
C99	C	1.590271	1.075401	0.485709
C100	C	0.852972	0.531018	-0.159627
C101	C	1.186305	0.864352	0.173706
C102	C	1.519639	1.197685	0.507040
C103	C	0.923616	0.591456	-0.180941
C104	C	1.256949	0.924789	0.152392
C105	C	1.590283	1.258122	0.485726
C106	C	0.994290	0.469183	-0.202349
C107	C	1.327623	0.802516	0.130984
C108	C	1.660956	1.135850	0.464317
C109	C	0.908490	0.469171	-0.103975
C110	C	1.241824	0.802504	0.229358
C111	C	1.575157	1.135837	0.562692
C112	C	0.979192	0.530952	-0.125298
C113	C	1.312525	0.864286	0.208035
C114	C	1.645858	1.197619	0.541369
C115	C	0.923596	0.303473	-0.180969
C116	C	1.256929	0.636806	0.152364
C117	C	1.590263	0.970140	0.485697
C118	C	0.923632	0.696715	-0.180929
C119	C	1.256966	1.030048	0.152404
C120	C	1.590299	1.363381	0.485737
C121	C	0.849641	0.000087	0.285999
C122	C	1.182974	0.333421	0.619332
C123	C	1.516307	0.666754	0.952665
C124	C	0.885895	0.076134	0.344418
C125	C	1.219229	0.409467	0.677751
C126	C	1.552562	0.742800	1.011084
C127	C	0.924943	0.000102	0.236492
C128	C	1.258277	0.333435	0.569825
C129	C	1.591610	0.666769	0.903158
C130	C	0.885933	-0.075919	0.344417
C131	C	1.219266	0.257415	0.677751
C132	C	1.552599	0.590748	1.011084
C133	C	0.922227	0.000091	0.401597
C134	C	1.255560	0.333425	0.734931
C135	C	1.588894	0.666758	1.068264
C136	C	0.961219	0.076211	0.293681
C137	C	1.294552	0.409544	0.627014
C138	C	1.627885	0.742877	0.960348
C139	C	0.961246	-0.075910	0.293675
C140	C	1.294579	0.257424	0.627008
C141	C	1.627912	0.590757	0.960342
C142	C	0.997555	0.000155	0.352072
C143	C	1.330888	0.333488	0.685406
C144	C	1.664222	0.666822	1.018739
C145	C	0.926506	0.000109	0.141378
C146	C	1.259839	0.333442	0.474712
C147	C	1.593173	0.666775	0.808045
C148	C	0.920670	0.000091	0.496709
C149	C	1.254003	0.333425	0.830042
C150	C	1.587337	0.666758	1.163376
C151	C	0.917903	0.000087	0.665887
C152	C	1.251237	0.333421	0.999220
C153	C	1.584570	0.666754	1.332553
C154	C	0.919423	0.000084	0.572528
C155	C	1.252756	0.333417	0.905862
C156	C	1.586090	0.666750	1.239195
H157	H	0.669386	0.000056	-0.305943
H158	H	1.002720	0.333389	0.027390
H159	H	1.336053	0.666722	0.360724
F160	F	0.299840	0.000074	-0.364496
F161	F	0.633174	0.333408	-0.031162
F162	F	0.966507	0.666741	0.302171
F163	F	1.040643	0.566166	-0.063771
F164	F	1.373976	0.899500	0.269563
F165	F	1.707309	1.232833	0.602896
H166	H	0.951519	0.558194	-0.323061
H167	H	1.284853	0.891528	0.010272
H168	H	1.618186	1.224861	0.343606
H169	H	0.854037	0.140417	0.366792
H170	H	1.187370	0.473750	0.700126
H171	H	1.520703	0.807083	1.033459
F172	F	1.079320	0.000218	0.389577
F173	F	1.412653	0.333551	0.722911
F174	F	1.745987	0.666885	1.056244
H175	H	0.521444	0.000074	-0.292536
H176	H	0.854777	0.333408	0.040798
H177	H	1.188111	0.666741	0.374131
H178	H	0.555236	0.000122	-0.017297
H179	H	0.888570	0.333455	0.316036
H180	H	1.221903	0.666788	0.649370
H181	H	0.895674	0.441980	-0.038898
H182	H	1.229007	0.775313	0.294435
H183	H	1.562341	1.108647	0.627768
F184	F	0.774892	0.566523	-0.136054
F185	F	1.108226	0.899856	0.197279
F186	F	1.441559	1.233190	0.530612
H187	H	0.787139	0.000156	0.257154
H188	H	1.120472	0.333489	0.590487
H189	H	1.453806	0.666822	0.923820
H190	H	0.703193	0.000096	-0.030699
H191	H	1.036526	0.333429	0.302635
H192	H	1.369860	0.666762	0.635968
H193	H	0.144018	0.000096	-0.331197
H194	H	0.477352	0.333429	0.002136
H195	H	0.810685	0.666762	0.335469
H196	H	0.993034	0.140572	0.271411
H197	H	1.326367	0.473905	0.604744
H198	H	1.659700	0.807239	0.938078
F199	F	1.072389	0.433834	-0.226020
F200	F	1.405723	0.767167	0.107314
F201	F	1.739056	1.100500	0.440647
F202	F	1.002852	-0.159937	0.264401
F203	F	1.336185	0.173396	0.597735
F204	F	1.669519	0.506729	0.931068
H205	H	0.325769	0.000129	-0.069360
H206	H	0.659102	0.333462	0.263973
H207	H	0.992436	0.666796	0.597307
F208	F	0.433296	0.000092	-0.299881
F209	F	0.766629	0.333425	0.033452
F210	F	1.099963	0.666758	0.366785
F211	F	0.169957	0.000151	-0.036066
F212	F	0.503290	0.333484	0.297267
F213	F	0.836623	0.666817	0.630601
F214	F	0.413911	0.000111	-0.062016
F215	F	0.747244	0.333444	0.271318
F216	F	1.080578	0.666778	0.604651
F217	F	0.844296	-0.159945	0.373661
F218	F	1.177629	0.173388	0.706994
F219	F	1.510962	0.506722	1.040327
H220	H	0.821163	0.442109	-0.283724
H221	H	1.154497	0.775442	0.049609
H222	H	1.487830	1.108776	0.382943
