data_functionalizedCrystal
_audit_creation_method	'MofGen! by Chris Wilmer'
_symmetry_space_group_name_H-M	'P1'
_symmetry_Int_Tables_number	1
_symmetry_cell_setting	triclinic
loop_
_symmetry_equiv_pos_as_xyz
  x,y,z
_cell_length_a	21.395362
_cell_length_b	12.827892
_cell_length_c	21.395355
_cell_angle_alpha	89.986862
_cell_angle_beta	89.956060
_cell_angle_gamma	90.031272
loop_
_atom_site_label
_atom_site_type_symbol
_atom_site_fract_x
_atom_site_fract_y
_atom_site_fract_z
Zn1	Zn	0.957926	-0.415711	-0.354609
Zn2	Zn	1.457926	0.084289	0.145391
Zn3	Zn	0.957857	-0.590438	-0.249841
Zn4	Zn	1.457857	-0.090438	0.250159
Zn5	Zn	0.853141	-0.415760	-0.249810
Zn6	Zn	1.353141	0.084240	0.250190
Zn7	Zn	0.853138	-0.590459	-0.354546
Zn8	Zn	1.353138	-0.090459	0.145454
O9	O	0.905516	-0.503092	-0.302202
O10	O	1.405516	-0.003092	0.197798
O11	O	1.045595	-0.438860	-0.340751
O12	O	1.545595	0.061140	0.159249
O13	O	0.943938	-0.567278	-0.162159
O14	O	1.443938	-0.067278	0.337841
O15	O	0.867071	-0.269517	-0.263725
O16	O	1.367071	0.230483	0.236275
O17	O	1.045544	-0.567231	-0.263778
O18	O	1.545544	-0.067231	0.236222
O19	O	0.944056	-0.269482	-0.340721
O20	O	1.444056	0.230518	0.159279
O21	O	0.867004	-0.438943	-0.162137
O22	O	1.367004	0.061057	0.337863
O23	O	0.765463	-0.438963	-0.263664
O24	O	1.265463	0.061037	0.236336
O25	O	0.867067	-0.567267	-0.442232
O26	O	1.367067	-0.067267	0.057768
O27	O	0.765461	-0.567314	-0.340613
O28	O	1.265461	-0.067314	0.159387
O29	O	0.944054	-0.438881	-0.442279
O30	O	1.444054	0.061119	0.057721
O31	O	0.943935	-0.736677	-0.263717
O32	O	1.443935	-0.236677	0.236283
O33	O	0.866999	-0.736692	-0.340643
O34	O	1.366999	-0.236692	0.159357
C35	C	0.742728	-0.503147	-0.302129
C36	C	1.242728	-0.003147	0.197871
C37	C	0.673087	-0.503196	-0.302113
C38	C	1.173087	-0.003196	0.197887
C39	C	0.905476	-0.774602	-0.302191
C40	C	1.405476	-0.274602	0.197809
C41	C	0.905517	-0.890755	-0.302207
C42	C	1.405517	-0.390755	0.197793
C43	C	0.640389	-0.570117	-0.342120
C44	C	1.140389	-0.070117	0.157880
C45	C	0.574953	-0.570091	-0.342148
C46	C	1.074953	-0.070091	0.157852
C47	C	0.542218	-0.503156	-0.302157
C48	C	1.042218	-0.003156	0.197843
C49	C	0.574924	-0.436222	-0.262147
C50	C	1.074924	0.063778	0.237853
C51	C	0.640358	-0.436242	-0.262125
C52	C	1.140358	0.063758	0.237875
C53	C	0.438492	-0.494737	-0.245752
C54	C	0.938492	0.005263	0.254248
C55	C	0.373059	-0.494724	-0.245773
C56	C	0.873059	0.005276	0.254227
C57	C	0.340398	-0.503088	-0.302227
C58	C	0.840398	-0.003088	0.197773
C59	C	0.373177	-0.511486	-0.358661
C60	C	0.873177	-0.011486	0.141339
C61	C	0.438611	-0.511506	-0.358638
C62	C	0.938611	-0.011506	0.141362
C63	C	0.471266	-0.503126	-0.302177
C64	C	0.971266	-0.003126	0.197823
C65	C	0.236747	-0.569984	-0.342268
C66	C	0.736747	-0.069984	0.157732
C67	C	0.171311	-0.569951	-0.342297
C68	C	0.671311	-0.069951	0.157703
C69	C	0.171283	-0.436087	-0.262290
C70	C	0.671283	0.063913	0.237710
C71	C	0.236718	-0.436115	-0.262267
C72	C	0.736718	0.063885	0.237733
C73	C	0.269446	-0.503069	-0.302255
C74	C	0.769446	-0.003069	0.197745
C75	C	0.943633	-0.942497	-0.264184
C76	C	1.443633	-0.442497	0.235816
C77	C	0.943675	-1.062548	-0.264200
C78	C	1.443675	-0.562548	0.235800
C79	C	1.068939	-0.503037	-0.302275
C80	C	1.568939	-0.003037	0.197725
C81	C	1.138580	-0.503014	-0.302306
C82	C	1.638580	-0.003014	0.197694
C83	C	0.905568	-0.503071	-0.465625
C84	C	1.405568	-0.003071	0.034375
C85	C	0.905590	-0.503062	-0.535266
C86	C	1.405590	-0.003062	-0.035266
C87	C	0.905572	-0.230522	-0.302227
C88	C	1.405572	0.269478	0.197773
C89	C	0.905596	-0.114369	-0.302237
C90	C	1.405596	0.385631	0.197763
C91	C	0.945675	-0.436208	-0.568005
C92	C	1.445675	0.063792	-0.068005
C93	C	0.945674	-0.436163	-0.633440
C94	C	1.445674	0.063837	-0.133440
C95	C	0.905595	-0.502991	-0.666135
C96	C	1.405595	-0.002991	-0.166135
C97	C	0.865501	-0.569849	-0.633389
C98	C	1.365501	-0.069849	-0.133389
C99	C	0.865499	-0.569885	-0.567954
C100	C	1.365499	-0.069885	-0.067954
C101	C	0.900634	-0.597087	-0.769804
C102	C	1.400634	-0.097087	-0.269804
C103	C	0.900641	-0.597053	-0.835237
C104	C	1.400641	-0.097053	-0.335237
C105	C	0.905598	-0.502880	-0.867956
C106	C	1.405598	-0.002880	-0.367956
C107	C	0.910563	-0.408738	-0.835233
C108	C	1.410563	0.091262	-0.335233
C109	C	0.910560	-0.408774	-0.769799
C110	C	1.410560	0.091226	-0.269799
C111	C	0.905592	-0.502959	-0.737087
C112	C	1.405592	-0.002959	-0.237087
C113	C	0.945685	-0.435972	-0.971646
C114	C	1.445685	0.064028	-0.471646
C115	C	0.945680	-0.435925	-1.037083
C116	C	1.445680	0.064075	-0.537083
C117	C	0.865510	-0.569621	-1.037030
C118	C	1.365510	-0.069621	-0.537030
C119	C	0.865512	-0.569658	-0.971595
C120	C	1.365512	-0.069658	-0.471595
C121	C	0.905603	-0.502835	-0.938907
C122	C	1.405603	-0.002835	-0.438907
C123	C	0.905500	-0.503038	-0.139414
C124	C	1.405500	-0.003038	0.360586
C125	C	0.905599	-0.502752	-0.069773
C126	C	1.405599	-0.002752	0.430227
H127	H	0.548326	-0.624586	-0.374729
H128	H	1.048326	-0.124586	0.125271
N129	N	0.862368	-1.055436	-0.345360
N130	N	1.362368	-0.555436	0.154640
H131	H	0.872073	-1.074322	-0.390152
H132	H	1.372073	-0.574322	0.109848
H133	H	0.817620	-1.074491	-0.335532
H134	H	1.317620	-0.574491	0.164468
H135	H	0.978320	-0.381794	-0.541394
H136	H	1.478320	0.118206	-0.041394
N137	N	0.136043	-0.642140	-0.385448
N138	N	0.636043	-0.142140	0.114552
H139	H	0.108843	-0.690486	-0.359940
H140	H	0.608843	-0.190486	0.140060
H141	H	0.108982	-0.599666	-0.414532
H142	H	0.608982	-0.099666	0.085468
N143	N	0.895288	-0.698589	-0.870524
N144	N	1.395288	-0.198589	-0.370524
H145	H	0.856682	-0.697175	-0.897647
H146	H	1.356682	-0.197175	-0.397647
H147	H	0.933486	-0.708310	-0.897662
H148	H	1.433486	-0.208310	-0.397662
N149	N	0.862329	-0.949784	-0.345347
N150	N	1.362329	-0.449784	0.154653
H151	H	0.887817	-0.995000	-0.374397
H152	H	1.387817	-0.495000	0.125603
H153	H	0.833355	-0.995084	-0.319786
H154	H	1.333355	-0.495084	0.180214
N155	N	0.988920	-0.363807	-1.072387
N156	N	1.488920	0.136193	-0.572387
H157	H	1.017946	-0.406248	-1.099563
H158	H	1.517946	0.093752	-0.599563
H159	H	0.963428	-0.315376	-1.099475
H160	H	1.463428	0.184624	-0.599475
N161	N	0.915905	-0.307163	-0.870520
N162	N	1.415905	0.192837	-0.370520
H163	H	0.879685	-0.260417	-0.859100
H164	H	1.379685	0.239583	-0.359100
H165	H	0.956483	-0.271679	-0.859152
H166	H	1.456483	0.228321	-0.359152
H167	H	0.978326	-0.381555	-0.945030
H168	H	1.478326	0.118445	-0.445030
N169	N	0.822278	-0.641935	-0.668650
N170	N	1.322278	-0.141935	-0.168650
H171	H	0.796882	-0.684295	-0.637978
H172	H	1.296882	-0.184295	-0.137978
H173	H	0.793293	-0.599394	-0.695778
H174	H	1.293293	-0.099394	-0.195778
H175	H	0.978315	-0.381717	-0.660101
H176	H	1.478315	0.118283	-0.160101
N177	N	0.915916	-0.307246	-0.734504
N178	N	1.415916	0.192754	-0.234504
H179	H	0.919059	-0.247578	-0.765156
H180	H	1.419059	0.252422	-0.265156
H181	H	0.877742	-0.297570	-0.707326
H182	H	1.377742	0.202430	-0.207326
H183	H	0.832854	-0.624324	-0.541299
H184	H	1.332854	-0.124324	-0.041299
H185	H	0.346375	-0.487893	-0.199821
H186	H	0.846375	0.012107	0.300179
H187	H	0.976236	-0.897922	-0.231621
H188	H	1.476236	-0.397922	0.268379
H189	H	0.346585	-0.518294	-0.404631
H190	H	0.846585	-0.018294	0.095369
N191	N	0.822275	-0.641692	-1.072284
N192	N	1.322275	-0.141692	-0.572284
H193	H	0.828357	-0.631524	-1.118705
H194	H	1.328357	-0.131524	-0.618705
H195	H	0.832009	-0.716330	-1.060860
H196	H	1.332009	-0.216330	-0.560860
H197	H	0.465297	-0.518341	-0.404589
H198	H	0.965297	-0.018341	0.095411
H199	H	0.976306	-1.107045	-0.231645
H200	H	1.476306	-0.607045	0.268355
H201	H	0.667032	-0.624635	-0.374682
H202	H	1.167032	-0.124635	0.125318
H203	H	0.832874	-0.624104	-0.944939
H204	H	1.332874	-0.124104	-0.444939
N205	N	0.895294	-0.698666	-0.734517
N206	N	1.395294	-0.198666	-0.234517
H207	H	0.892160	-0.758297	-0.765174
H208	H	1.392160	-0.258297	-0.265174
H209	H	0.933472	-0.708357	-0.707401
H210	H	1.433472	-0.208357	-0.207401
H211	H	0.144630	-0.381582	-0.229732
H212	H	0.644630	0.118418	0.270268
N213	N	0.272053	-0.642191	-0.385396
N214	N	0.772053	-0.142191	0.114604
H215	H	0.241407	-0.684577	-0.410750
H216	H	0.741407	-0.184577	0.089250
H217	H	0.299256	-0.599734	-0.414424
H218	H	0.799256	-0.099734	0.085576
N219	N	0.271982	-0.363928	-0.219114
N220	N	0.771982	0.136072	0.280886
H221	H	0.260538	-0.380039	-0.174333
H222	H	0.760538	0.119961	0.325667
H223	H	0.318390	-0.374120	-0.225218
H224	H	0.818390	0.125880	0.274782
N225	N	0.473715	-0.485712	-0.184857
N226	N	0.973715	0.014288	0.315143
H227	H	0.462271	-0.546068	-0.156762
H228	H	0.962271	-0.046068	0.343238
H229	H	0.520129	-0.486964	-0.193459
H230	H	1.020129	0.013036	0.306541
N231	N	0.539620	-0.364040	-0.219007
N232	N	1.039620	0.135960	0.280993
H233	H	0.512514	-0.315669	-0.244522
H234	H	1.012514	0.184331	0.255478
H235	H	0.512462	-0.406520	-0.189948
H236	H	1.012462	0.093480	0.310052
N237	N	0.675630	-0.364053	-0.218977
N238	N	1.175630	0.135947	0.281023
H239	H	0.644966	-0.321638	-0.193649
H240	H	1.144966	0.178362	0.306351
H241	H	0.702729	-0.406521	-0.189927
H242	H	1.202729	0.093479	0.310073
