data_functionalizedCrystal
_audit_creation_method	'MofGen! by Chris Wilmer'
_symmetry_space_group_name_H-M	'P1'
_symmetry_Int_Tables_number	1
_symmetry_cell_setting	triclinic
loop_
_symmetry_equiv_pos_as_xyz
  x,y,z
_cell_length_a	9.065218
_cell_length_b	17.019294
_cell_length_c	7.540329
_cell_angle_alpha	86.117441
_cell_angle_beta	89.996962
_cell_angle_gamma	84.203176
loop_
_atom_site_label
_atom_site_type_symbol
_atom_site_fract_x
_atom_site_fract_y
_atom_site_fract_z
O1	O	1.957264	0.115662	-0.165148
O2	O	1.527722	0.125150	-0.166599
O3	O	1.754476	0.005659	-0.148341
O4	O	1.730510	0.235153	-0.183406
O5	O	1.754462	0.005657	0.146624
O6	O	1.527708	0.125148	0.128366
O7	O	1.957250	0.115661	0.129817
Cu8	Cu	1.742478	0.120404	0.156025
Cu9	Cu	1.742494	0.120406	-0.192806
O10	O	1.730496	0.235152	0.111559
C11	C	1.472753	0.124237	-0.018977
C12	C	1.308984	0.121511	-0.018562
C13	C	1.753560	-0.023737	0.003629
C14	C	1.750834	-0.111327	0.017001
C15	C	1.749565	-0.152472	-0.137501
C16	C	1.746994	-0.234771	-0.124931
C17	C	1.745704	-0.275925	0.042142
C18	C	1.746969	-0.234775	0.196656
C19	C	1.749529	-0.152476	0.184085
C20	C	1.737964	-0.524413	0.088144
C21	C	1.735408	-0.606718	0.100704
C22	C	1.735430	-0.606708	-0.220885
C23	C	1.737999	-0.524409	-0.233442
C24	C	1.739256	-0.483265	-0.078928
C25	C	1.743081	-0.360049	0.054995
C26	C	1.741869	-0.399142	-0.091782
C27	C	2.012219	0.116573	-0.017808
C28	C	2.175988	0.119300	-0.018235
C29	C	1.731412	0.264548	-0.040415
C30	C	1.734138	0.352138	-0.053798
N31	N	1.742478	0.120403	0.401373
N32	N	1.742506	0.120402	-0.438154
H33	H	1.750623	-0.118971	-0.273551
H34	H	1.734350	-0.640223	0.236762
H35	H	1.734403	-0.640216	-0.346681
H36	H	1.745966	-0.268268	-0.250744
H37	H	1.739017	-0.490926	0.213961
H38	H	1.739051	-0.490907	-0.369491
H39	H	1.750543	-0.118976	0.309897
N40	N	1.741742	-0.402089	0.225650
N41	N	1.636365	-0.441483	0.267528
H42	H	1.635413	-0.471178	0.388053
N43	N	1.745634	-0.276821	0.367306
N44	N	1.743349	-0.350301	0.378511
H45	H	1.742409	-0.379996	0.499036
N46	N	1.743205	-0.357097	-0.262424
N47	N	1.848579	-0.317698	-0.304285
H48	H	1.849530	-0.287995	-0.424801
