data_functionalizedCrystal
_audit_creation_method	'MofGen! by Chris Wilmer'
_symmetry_space_group_name_H-M	'P1'
_symmetry_Int_Tables_number	1
_symmetry_cell_setting	triclinic
loop_
_symmetry_equiv_pos_as_xyz
  x,y,z
_cell_length_a	15.298206
_cell_length_b	13.897447
_cell_length_c	15.296720
_cell_angle_alpha	80.352969
_cell_angle_beta	69.221745
_cell_angle_gamma	80.357664
loop_
_atom_site_label
_atom_site_type_symbol
_atom_site_fract_x
_atom_site_fract_y
_atom_site_fract_z
Zn1	Zn	1.330658	-0.681644	0.279377
Zn2	Zn	1.830658	-0.181644	0.779377
Zn3	Zn	1.357483	-0.819147	0.123880
Zn4	Zn	1.857483	-0.319147	0.623880
Zn5	Zn	1.202071	-0.634130	0.150835
Zn6	Zn	1.702071	-0.134130	0.650835
Zn7	Zn	1.175125	-0.819132	0.306300
Zn8	Zn	1.675125	-0.319132	0.806300
O9	O	1.266334	-0.738513	0.215098
O10	O	1.766334	-0.238513	0.715098
O11	O	1.464348	-0.719775	0.236202
O12	O	1.964348	-0.219775	0.736202
O13	O	1.359370	-0.774726	-0.002683
O14	O	1.859370	-0.274726	0.497317
O15	O	1.219178	-0.505463	0.167900
O16	O	1.719178	-0.005463	0.667900
O17	O	1.484056	-0.820798	0.121959
O18	O	1.984056	-0.320798	0.621959
O19	O	1.313651	-0.540371	0.262339
O20	O	1.813651	-0.040371	0.762339
O21	O	1.245189	-0.638794	0.017121
O22	O	1.745189	-0.138794	0.517121
O23	O	1.068365	-0.638780	0.194006
O24	O	1.568365	-0.138780	0.694006
O25	O	1.173254	-0.820772	0.432867
O26	O	1.673254	-0.320772	0.932867
O27	O	1.048568	-0.774700	0.308226
O28	O	1.548568	-0.274700	0.808226
O29	O	1.287523	-0.719760	0.413087
O30	O	1.787523	-0.219760	0.913087
O31	O	1.333242	-0.954115	0.148066
O32	O	1.833242	-0.454115	0.648066
O33	O	1.199265	-0.954104	0.282089
O34	O	1.699265	-0.454104	0.782089
C35	C	1.024725	-0.701583	0.256963
C36	C	1.524725	-0.201583	0.756963
C37	C	0.921359	-0.685811	0.274895
C38	C	1.421359	-0.185811	0.774895
C39	C	0.862527	-0.625914	0.342896
C40	C	1.362527	-0.125914	0.842896
C41	C	0.765410	-0.611087	0.359746
C42	C	1.265410	-0.111087	0.859746
C43	C	0.727114	-0.656161	0.308602
C44	C	1.227114	-0.156161	0.808602
C45	C	0.785946	-0.716064	0.240604
C46	C	1.285946	-0.216064	0.740604
C47	C	0.883074	-0.730887	0.223747
C48	C	1.383074	-0.230887	0.723747
C49	C	0.747661	-0.761134	0.189452
C50	C	1.247661	-0.261134	0.689452
C51	C	0.806493	-0.821038	0.121454
C52	C	1.306493	-0.321038	0.621454
C53	C	0.903611	-0.835858	0.104600
C54	C	1.403611	-0.335858	0.604600
C55	C	0.941906	-0.790784	0.155745
C56	C	1.441906	-0.290784	0.655745
C57	C	0.650534	-0.746311	0.206309
C58	C	1.150534	-0.246311	0.706309
C59	C	0.671081	-0.851284	0.087159
C60	C	1.171081	-0.351284	0.587159
C61	C	0.768198	-0.866111	0.070309
C62	C	1.268198	-0.366111	0.570309
C63	C	1.266262	-0.989113	0.215090
C64	C	1.766262	-0.489113	0.715090
C65	C	1.266311	-1.096338	0.215102
C66	C	1.766311	-0.596338	0.715102
C67	C	1.266352	-1.183418	0.215116
C68	C	1.766352	-0.683418	0.715116
C69	C	1.266413	-1.292664	0.215128
C70	C	1.766413	-0.792664	0.715128
C71	C	1.508887	-0.775588	0.173071
C72	C	2.008887	-0.275588	0.673071
C73	C	1.612248	-0.791387	0.155161
C74	C	2.112248	-0.291387	0.655161
C75	C	1.224390	-0.775565	0.457664
C76	C	1.724390	-0.275565	0.957664
C77	C	1.206516	-0.791354	0.561031
C78	C	1.706516	-0.291354	1.061031
C79	C	1.266428	-0.486942	0.215123
C80	C	1.766428	0.013058	0.715123
C81	C	1.266468	-0.379737	0.215133
C82	C	1.766468	0.120263	0.715133
C83	C	1.308168	-0.701544	-0.026533
C84	C	1.808168	-0.201544	0.473467
C85	C	1.326222	-0.685511	-0.129931
C86	C	1.826222	-0.185511	0.370069
C87	C	1.394116	-0.625502	0.811210
C88	C	1.894116	-0.125502	1.311210
C89	C	1.410915	-0.610670	0.714091
C90	C	1.910915	-0.110670	1.214091
C91	C	1.359817	-0.655839	0.675821
C92	C	1.859817	-0.155839	1.175821
C93	C	1.291917	-0.715844	0.734681
C94	C	1.791917	-0.215844	1.234681
C95	C	1.275121	-0.730684	0.831809
C96	C	1.775121	-0.230684	1.331809
C97	C	1.240822	-0.761021	0.696419
C98	C	1.740822	-0.261021	1.196419
C99	C	1.172921	-0.821026	0.755279
C100	C	1.672921	-0.321026	1.255279
C101	C	1.156128	-0.835862	0.852397
C102	C	1.656128	-0.335862	1.352397
C103	C	1.207227	-0.790693	0.890667
C104	C	1.707227	-0.290693	1.390667
C105	C	1.257617	-0.746181	0.599291
C106	C	1.757617	-0.246181	1.099291
C107	C	1.138622	-0.851363	0.619890
C108	C	1.638622	-0.351363	1.119890
C109	C	1.121823	-0.866195	0.717009
C110	C	1.621823	-0.366195	1.217009
H111	H	0.816112	-0.914886	0.014944
H112	H	1.316112	-0.414886	0.514944
Cl113	Cl	1.064000	-0.809429	0.134570
Cl114	Cl	1.564000	-0.309429	0.634570
Cl115	Cl	1.458354	-0.568736	0.859324
Cl116	Cl	1.958354	-0.068736	1.359324
Cl117	Cl	1.496271	-0.535239	0.640103
Cl118	Cl	1.996271	-0.035239	1.140103
H119	H	0.717515	-0.562314	0.415112
H120	H	1.217515	-0.062314	0.915112
Cl121	Cl	1.342974	-0.670748	0.525309
Cl122	Cl	1.842974	-0.170748	1.025309
Cl123	Cl	1.380934	-0.637188	0.553726
Cl124	Cl	1.880934	-0.137188	1.053726
H125	H	0.639901	-0.887988	0.045514
H126	H	1.139901	-0.387988	0.545514
H127	H	1.193553	-0.802766	0.969749
H128	H	1.693553	-0.302766	1.469749
Cl129	Cl	1.070783	-0.911315	0.926388
Cl130	Cl	1.570783	-0.411315	1.426388
Cl131	Cl	0.910675	-0.569252	0.407179
Cl132	Cl	1.410675	-0.069252	0.907179
Cl133	Cl	1.036467	-0.941629	0.791014
Cl134	Cl	1.536467	-0.441629	1.291014
H135	H	0.602642	-0.697535	0.261673
H136	H	1.102642	-0.197535	0.761673
Cl137	Cl	0.605022	-0.637523	0.329789
Cl138	Cl	1.105022	-0.137523	0.829789
H139	H	1.097015	-0.888145	0.588731
H140	H	1.597015	-0.388145	1.088731
H141	H	0.951511	-0.884627	0.049224
H142	H	1.451511	-0.384627	0.549224
