data_functionalizedCrystal
_audit_creation_method	'MofGen! by Chris Wilmer'
_symmetry_space_group_name_H-M	'P1'
_symmetry_Int_Tables_number	1
_symmetry_cell_setting	triclinic
loop_
_symmetry_equiv_pos_as_xyz
  x,y,z
_cell_length_a	19.121112
_cell_length_b	19.120786
_cell_length_c	12.827885
_cell_angle_alpha	92.476068
_cell_angle_beta	92.459544
_cell_angle_gamma	89.915581
loop_
_atom_site_label
_atom_site_type_symbol
_atom_site_fract_x
_atom_site_fract_y
_atom_site_fract_z
Zn1	Zn	1.059876	-0.324883	0.637404
Zn2	Zn	1.559876	0.175117	1.137404
Zn3	Zn	1.054782	-0.442140	0.454878
Zn4	Zn	1.554782	0.057860	0.954878
Zn5	Zn	0.942634	-0.319908	0.455557
Zn6	Zn	1.442634	0.180092	0.955557
Zn7	Zn	0.937605	-0.437081	0.622467
Zn8	Zn	1.437605	0.062919	1.122467
O9	O	0.998724	-0.381003	0.542577
O10	O	1.498724	0.118997	1.042577
O11	O	1.157305	-0.344637	0.619158
O12	O	1.657305	0.155363	1.119158
O13	O	1.039878	-0.425961	0.308728
O14	O	1.539878	0.074039	0.808728
O15	O	0.962423	-0.222458	0.486214
O16	O	1.462423	0.277542	0.986214
O17	O	1.153563	-0.430785	0.485058
O18	O	1.653563	0.069215	0.985058
O19	O	1.048560	-0.226113	0.619816
O20	O	1.548560	0.273887	1.119816
O21	O	0.957483	-0.336157	0.309227
O22	O	1.457483	0.163843	0.809227
O23	O	0.843862	-0.331252	0.471731
O24	O	1.343862	0.168748	0.971731
O25	O	0.953851	-0.422163	0.770689
O26	O	1.453851	0.077837	1.270689
O27	O	0.840167	-0.417339	0.594359
O28	O	1.340167	0.082661	1.094359
O29	O	1.043684	-0.339731	0.781662
O30	O	1.543684	0.160269	1.281662
O31	O	1.035002	-0.539579	0.470574
O32	O	1.535002	-0.039579	0.970574
O33	O	0.948912	-0.535862	0.593701
O34	O	1.448912	-0.035862	1.093701
C35	C	0.816576	-0.373207	0.531499
C36	C	1.316576	0.126793	1.031499
C37	C	0.738652	-0.369889	0.526783
C38	C	1.238652	0.130111	1.026783
C39	C	0.298025	-0.348836	0.496918
C40	C	0.798025	0.151164	0.996918
C41	C	0.371243	-0.351958	0.501354
C42	C	0.871243	0.148042	1.001354
C43	C	0.405941	-0.398413	0.567305
C44	C	0.905941	0.101587	1.067305
C45	C	0.367418	-0.441745	0.628832
C46	C	0.867418	0.058255	1.128832
C47	C	0.294201	-0.438619	0.624400
C48	C	0.794201	0.061381	1.124400
C49	C	0.626912	-0.410094	0.583878
C50	C	1.126912	0.089906	1.083878
C51	C	0.700134	-0.413218	0.588302
C52	C	1.200134	0.086782	1.088302
C53	C	0.703954	-0.323430	0.460826
C54	C	1.203954	0.176570	0.960826
C55	C	0.630736	-0.320311	0.456396
C56	C	1.130736	0.179689	0.956396
C57	C	0.592219	-0.363640	0.517927
C58	C	1.092219	0.136360	1.017927
C59	C	0.480782	-0.401607	0.571839
C60	C	0.980782	0.098393	1.071839
C61	C	0.517380	-0.360442	0.513398
C62	C	1.017380	0.139558	1.013398
C63	C	0.990877	-0.563160	0.530467
C64	C	1.490877	-0.063160	1.030467
C65	C	0.987585	-0.641090	0.525326
C66	C	1.487585	-0.141090	1.025326
C67	C	1.030851	-0.679543	0.592522
C68	C	1.530851	-0.179543	1.092522
C69	C	1.027754	-0.752767	0.587692
C70	C	1.527754	-0.252767	1.087692
C71	C	0.981394	-0.787536	0.515661
C72	C	1.481394	-0.287536	1.015661
C73	C	0.938123	-0.749078	0.448462
C74	C	1.438123	-0.249078	0.948462
C75	C	0.941216	-0.675855	0.453297
C76	C	1.441216	-0.175855	0.953297
C77	C	0.969808	-1.008528	0.497584
C78	C	1.469808	-0.508528	0.997584
C79	C	0.966719	-1.081756	0.492752
C80	C	1.466719	-0.581756	0.992752
C81	C	1.056350	-1.085440	0.631984
C82	C	1.556350	-0.585440	1.131984
C83	C	1.059443	-1.012216	0.636809
C84	C	1.559443	-0.512216	1.136809
C85	C	1.016169	-0.973764	0.569613
C86	C	1.516169	-0.473764	1.069613
C87	C	0.978229	-0.862382	0.510721
C88	C	1.478229	-0.362382	1.010721
C89	C	1.019331	-0.898919	0.574559
C90	C	1.519331	-0.398919	1.074559
C91	C	1.181583	-0.388830	0.553698
C92	C	1.681583	0.111170	1.053698
C93	C	1.259507	-0.392166	0.558438
C94	C	1.759507	0.107834	1.058438
C95	C	0.998775	-0.380938	0.815154
C96	C	1.498775	0.119062	1.315154
C97	C	0.998796	-0.380910	0.931311
C98	C	1.498796	0.119090	1.431311
C99	C	1.006621	-0.198136	0.554757
C100	C	1.506621	0.301864	1.054757
C101	C	1.009986	-0.120209	0.559948
C102	C	1.509986	0.379791	1.059948
C103	C	0.998716	-0.381019	0.271065
C104	C	1.498716	0.118981	0.771065
C105	C	0.998839	-0.380855	0.154931
C106	C	1.498839	0.119145	0.654931
C107	C	1.043253	-0.340112	0.988526
C108	C	1.543253	0.159888	1.488526
C109	C	1.043276	-0.340083	1.108580
C110	C	1.543276	0.159917	1.608580
H111	H	0.489126	-0.322616	0.459706
H112	H	0.989126	0.177384	0.959706
H113	H	0.735323	-0.288154	0.410733
H114	H	1.235323	0.211846	0.910733
Cl115	Cl	0.879834	-0.792788	0.357917
Cl116	Cl	1.379834	-0.292788	0.857917
Cl117	Cl	0.886821	-0.627514	0.368819
Cl118	Cl	1.386821	-0.127514	0.868819
H119	H	1.081340	-0.305156	1.157763
H120	H	1.581340	0.194844	1.657763
H121	H	0.395675	-0.479567	0.682535
H122	H	0.895675	0.020433	1.182535
Cl123	Cl	0.245778	-0.493090	0.701747
Cl124	Cl	0.745778	0.006910	1.201747
H125	H	0.402601	-0.316678	0.451254
H126	H	0.902601	0.183322	0.951254
H127	H	1.081294	-0.305203	0.948632
H128	H	1.581294	0.194797	1.448632
Cl129	Cl	1.082140	-0.801104	0.672185
Cl130	Cl	1.582140	-0.301104	1.172185
H131	H	1.091581	-1.116755	0.686692
H132	H	1.591581	-0.616755	1.186692
H133	H	0.960778	-0.415788	1.105754
H134	H	1.460778	0.084212	1.605754
H135	H	0.728383	-0.451048	0.642013
H136	H	1.228383	0.048952	1.142013
H137	H	0.940484	-0.890700	0.452070
H138	H	1.440484	-0.390700	0.952070
H139	H	1.068606	-0.651239	0.651173
H140	H	1.568606	-0.151239	1.151173
Cl141	Cl	0.587121	-0.261903	0.373491
Cl142	Cl	1.087121	0.238097	0.873491
Cl143	Cl	0.524408	-0.460019	0.654726
Cl144	Cl	1.024408	0.039981	1.154726
Cl145	Cl	0.254412	-0.290436	0.413998
Cl146	Cl	0.754412	0.209564	0.913998
H147	H	0.595560	-0.445378	0.633977
H148	H	1.095560	0.054622	1.133977
H149	H	0.960748	-0.415812	0.971205
H150	H	1.460748	0.084188	1.471205
H151	H	1.097193	-0.983908	0.695462
H152	H	1.597193	-0.483908	1.195462
Cl153	Cl	0.908436	-1.125465	0.402187
Cl154	Cl	1.408436	-0.625465	0.902187
H155	H	0.934574	-0.977226	0.442869
H156	H	1.434574	-0.477226	0.942869
Cl157	Cl	1.077607	-0.855207	0.665115
Cl158	Cl	1.577607	-0.355207	1.165115
