data_functionalizedCrystal
_audit_creation_method	'MofGen! by Chris Wilmer'
_symmetry_space_group_name_H-M	'P1'
_symmetry_Int_Tables_number	1
_symmetry_cell_setting	triclinic
loop_
_symmetry_equiv_pos_as_xyz
  x,y,z
_cell_length_a	25.639242
_cell_length_b	25.639239
_cell_length_c	16.120256
_cell_angle_alpha	92.870449
_cell_angle_beta	92.869764
_cell_angle_gamma	90.034213
loop_
_atom_site_label
_atom_site_type_symbol
_atom_site_fract_x
_atom_site_fract_y
_atom_site_fract_z
Zn1	Zn	0.784258	-0.223230	-0.471562
Zn2	Zn	1.117591	0.110103	-0.138228
Zn3	Zn	1.450924	0.443437	0.195105
Zn4	Zn	0.788606	-0.306228	-0.332145
Zn5	Zn	1.121940	0.027106	0.001188
Zn6	Zn	1.455273	0.360439	0.334521
Zn7	Zn	0.701259	-0.218801	-0.332145
Zn8	Zn	1.034593	0.114532	0.001188
Zn9	Zn	1.367926	0.447865	0.334522
Zn10	Zn	0.696782	-0.310627	-0.471489
Zn11	Zn	1.030115	0.022706	-0.138156
Zn12	Zn	1.363448	0.356040	0.195178
O13	O	0.742726	-0.264722	-0.401835
O14	O	1.076060	0.068612	-0.068502
O15	O	1.409393	0.401945	0.264831
O16	O	0.857999	-0.234252	-0.453099
O17	O	1.191332	0.099081	-0.119765
O18	O	1.524666	0.432415	0.213568
O19	O	0.780713	-0.290936	-0.215483
O20	O	1.114047	0.042397	0.117850
O21	O	1.447380	0.375731	0.451183
O22	O	0.712323	-0.146225	-0.350669
O23	O	1.045657	0.187109	-0.017336
O24	O	1.378990	0.520442	0.315997
O25	O	0.861194	-0.295230	-0.350670
O26	O	1.194527	0.038103	-0.017337
O27	O	1.527860	0.371436	0.315997
O28	O	0.773302	-0.149478	-0.453098
O29	O	1.106635	0.183855	-0.119765
O30	O	1.439969	0.517188	0.213568
O31	O	0.716540	-0.226704	-0.215483
O32	O	1.049873	0.106629	0.117850
O33	O	1.383206	0.439962	0.451184
O34	O	0.627501	-0.230970	-0.350599
O35	O	0.960834	0.102363	-0.017265
O36	O	1.294168	0.435697	0.316068
O37	O	0.704692	-0.302728	-0.588161
O38	O	1.038025	0.030605	-0.254827
O39	O	1.371358	0.363939	0.078506
O40	O	0.624211	-0.298434	-0.452974
O41	O	0.957545	0.034899	-0.119641
O42	O	1.290878	0.368233	0.213693
O43	O	0.768960	-0.238518	-0.588214
O44	O	1.102293	0.094816	-0.254881
O45	O	1.435627	0.428149	0.078452
O46	O	0.776372	-0.379976	-0.350599
O47	O	1.109705	-0.046642	-0.017266
O48	O	1.443038	0.286691	0.316067
O49	O	0.708908	-0.383208	-0.452974
O50	O	1.042242	-0.049874	-0.119641
O51	O	1.375575	0.283459	0.213692
C52	C	0.606885	-0.264699	-0.401779
C53	C	0.940219	0.068634	-0.068445
C54	C	1.273552	0.401968	0.264888
C55	C	0.548772	-0.264703	-0.401774
C56	C	0.882105	0.068631	-0.068441
C57	C	1.215438	0.401964	0.264892
C58	C	0.186704	-0.299904	-0.455092
C59	C	0.520037	0.033429	-0.121758
C60	C	0.853371	0.366762	0.211575
C61	C	0.132099	-0.299908	-0.455105
C62	C	0.465433	0.033425	-0.121771
C63	C	0.798766	0.366759	0.211562
O64	O	0.102415	-0.329810	-0.500389
O65	O	0.435748	0.003523	-0.167056
O66	O	0.769082	0.336856	0.166278
N67	N	0.106485	-0.264738	-0.401890
N68	N	0.439819	0.068596	-0.068556
N69	N	0.773152	0.401929	0.264777
C70	C	0.135479	-0.229558	-0.348664
C71	C	0.468812	0.103775	-0.015331
C72	C	0.802146	0.437109	0.318003
O73	O	0.108678	-0.199643	-0.303402
O74	O	0.442012	0.133690	0.029931
O75	O	0.775345	0.467024	0.363265
C76	C	0.190083	-0.229552	-0.348656
C77	C	0.523416	0.103781	-0.015322
C78	C	0.856749	0.437114	0.318011
C79	C	0.215694	-0.264728	-0.401868
C80	C	0.549027	0.068605	-0.068535
C81	C	0.882360	0.401938	0.264798
C82	C	0.212315	-0.335077	-0.508300
C83	C	0.545649	-0.001744	-0.174967
C84	C	0.878982	0.331590	0.158366
C85	C	0.266916	-0.335074	-0.508286
C86	C	0.600250	-0.001741	-0.174953
C87	C	0.933583	0.331593	0.158381
C88	C	0.295906	-0.299898	-0.455063
C89	C	0.629239	0.033435	-0.121729
C90	C	0.962573	0.366769	0.211604
C91	C	0.270295	-0.264725	-0.401854
C92	C	0.603628	0.068608	-0.068520
C93	C	0.936961	0.401941	0.264813
C94	C	0.219075	-0.194371	-0.295435
C95	C	0.552408	0.138963	0.037899
C96	C	0.885742	0.472296	0.371232
C97	C	0.273682	-0.194368	-0.295431
C98	C	0.607015	0.138966	0.037902
C99	C	0.940349	0.472299	0.371235
C100	C	0.299293	-0.229544	-0.348644
C101	C	0.632627	0.103790	-0.015311
C102	C	0.965960	0.437123	0.318023
C103	C	0.353885	-0.229546	-0.348616
C104	C	0.687219	0.103787	-0.015283
C105	C	1.020552	0.437120	0.318051
N106	N	0.379499	-0.264716	-0.401831
N107	N	0.712833	0.068617	-0.068498
N108	N	1.046166	0.401950	0.264836
C109	C	0.350510	-0.299892	-0.455054
C110	C	0.683843	0.033441	-0.121721
C111	C	1.017176	0.366774	0.211612
C112	C	0.020808	-0.229572	-0.348687
C113	C	0.354141	0.103761	-0.015353
C114	C	0.687474	0.437095	0.317980
C115	C	-0.033795	-0.229580	-0.348690
C116	C	0.299538	0.103754	-0.015357
C117	C	0.632872	0.437087	0.317977
C118	C	-0.037171	-0.299929	-0.455132
C119	C	0.296163	0.033404	-0.121799
C120	C	0.629496	0.366737	0.211535
C121	C	0.017433	-0.299924	-0.455124
C122	C	0.350766	0.033410	-0.121790
C123	C	0.684100	0.366743	0.211543
C124	C	0.046422	-0.264742	-0.401902
C125	C	0.379755	0.068591	-0.068568
C126	C	0.713088	0.401924	0.264765
C127	C	0.465176	-0.299883	-0.455019
C128	C	0.798509	0.033450	-0.121686
C129	C	1.131843	0.366783	0.211647
C130	C	0.519782	-0.299879	-0.454998
C131	C	0.853115	0.033455	-0.121664
C132	C	1.186449	0.366788	0.211669
C133	C	0.523153	-0.229528	-0.348559
C134	C	0.856486	0.103806	-0.015226
C135	C	1.189820	0.437139	0.318108
C136	C	0.468552	-0.229534	-0.348577
C137	C	0.801885	0.103799	-0.015244
C138	C	1.135218	0.437133	0.318089
C139	C	0.439564	-0.264714	-0.401814
C140	C	0.772898	0.068619	-0.068481
C141	C	1.106231	0.401953	0.264853
O142	O	0.383604	-0.199658	-0.303357
O143	O	0.716937	0.133676	0.029976
O144	O	1.050270	0.467009	0.363310
O145	O	0.377317	-0.329798	-0.500316
O146	O	0.710650	0.003536	-0.166983
O147	O	1.043984	0.336869	0.166350
C148	C	0.742640	-0.400563	-0.401797
C149	C	1.075973	-0.067230	-0.068464
C150	C	1.409306	0.266104	0.264870
C151	C	0.742649	-0.458677	-0.401809
C152	C	1.075983	-0.125344	-0.068475
C153	C	1.409316	0.207989	0.264858
C154	C	0.777939	-0.817349	-0.348619
C155	C	1.111272	-0.484015	-0.015286
C156	C	1.444605	-0.150682	0.318047
C157	C	0.777959	-0.871953	-0.348631
C158	C	1.111292	-0.538620	-0.015297
C159	C	1.444625	-0.205287	0.318036
O160	O	0.807873	-0.898750	-0.303365
O161	O	1.141206	-0.565417	0.029968
O162	O	1.474540	-0.232084	0.363301
N163	N	0.742816	-0.900962	-0.401891
N164	N	1.076150	-0.567629	-0.068557
N165	N	1.409483	-0.234296	0.264776
C166	C	0.707655	-0.875364	-0.455149
C167	C	1.040989	-0.542031	-0.121815
C168	C	1.374322	-0.208698	0.211518
O169	O	0.677766	-0.905053	-0.500452
O170	O	1.011100	-0.571719	-0.167119
O171	O	1.344433	-0.238386	0.166215
C172	C	0.707638	-0.820761	-0.455141
C173	C	1.040972	-0.487427	-0.121808
C174	C	1.374305	-0.154094	0.211525
C175	C	0.742779	-0.791754	-0.401872
C176	C	1.076113	-0.458421	-0.068538
C177	C	1.409446	-0.125087	0.264795
C178	C	0.813077	-0.788342	-0.295355
C179	C	1.146411	-0.455009	0.037978
C180	C	1.479744	-0.121675	0.371312
C181	C	0.813057	-0.733741	-0.295343
C182	C	1.146390	-0.400408	0.037990
C183	C	1.479723	-0.067074	0.371324
C184	C	0.777897	-0.708147	-0.348595
C185	C	1.111231	-0.374813	-0.015262
C186	C	1.444564	-0.041480	0.318071
C187	C	0.742759	-0.737153	-0.401860
C188	C	1.076092	-0.403820	-0.068526
C189	C	1.409425	-0.070487	0.264807
C190	C	0.672480	-0.795164	-0.508403
C191	C	1.005814	-0.461830	-0.175070
C192	C	1.339147	-0.128497	0.158264
C193	C	0.672467	-0.740556	-0.508391
C194	C	1.005800	-0.407223	-0.175058
C195	C	1.339133	-0.073890	0.158275
C196	C	0.707608	-0.711550	-0.455122
C197	C	1.040941	-0.378216	-0.121789
C198	C	1.374274	-0.044883	0.211545
C199	C	0.707579	-0.656958	-0.455100
C200	C	1.040912	-0.323624	-0.121767
C201	C	1.374246	0.009709	0.211567
N202	N	0.742721	-0.627949	-0.401840
N203	N	1.076054	-0.294615	-0.068507
N204	N	1.409388	0.038718	0.264827
C205	C	0.777880	-0.653543	-0.348588
C206	C	1.111214	-0.320210	-0.015254
C207	C	1.444547	0.013124	0.318079
C208	C	0.707694	-0.990035	-0.455162
C209	C	1.041028	-0.656702	-0.121828
C210	C	1.374361	-0.323369	0.211505
C211	C	0.707709	-1.044638	-0.455166
C212	C	1.041042	-0.711304	-0.121832
C213	C	1.374375	-0.377971	0.211501
C214	C	0.778012	-1.041223	-0.348648
C215	C	1.111346	-0.707890	-0.015315
C216	C	1.444679	-0.374556	0.318018
C217	C	0.777995	-0.986619	-0.348641
C218	C	1.111329	-0.653286	-0.015307
C219	C	1.444662	-0.319953	0.318026
C220	C	0.742837	-0.961026	-0.401902
C221	C	1.076170	-0.627693	-0.068568
C222	C	1.409503	-0.294359	0.264765
C223	C	0.777834	-0.538877	-0.348566
C224	C	1.111167	-0.205544	-0.015233
C225	C	1.444501	0.127789	0.318101
C226	C	0.777809	-0.484272	-0.348556
C227	C	1.111142	-0.150938	-0.015223
C228	C	1.444475	0.182395	0.318110
C229	C	0.707507	-0.487691	-0.455076
C230	C	1.040840	-0.154358	-0.121743
C231	C	1.374173	0.178975	0.211590
C232	C	0.707530	-0.542292	-0.455083
C233	C	1.040863	-0.208959	-0.121750
C234	C	1.374197	0.124374	0.211583
C235	C	0.742698	-0.567884	-0.401825
C236	C	1.076031	-0.234550	-0.068492
C237	C	1.409364	0.098783	0.264841
O238	O	0.677681	-0.630125	-0.500345
O239	O	1.011014	-0.296792	-0.167011
O240	O	1.344348	0.036541	0.166322
O241	O	0.807769	-0.623848	-0.303300
O242	O	1.141102	-0.290515	0.030033
O243	O	1.474436	0.042818	0.363367
C244	C	0.879097	-0.264744	-0.401892
C245	C	1.212431	0.068589	-0.068559
C246	C	1.545764	0.401922	0.264774
C247	C	0.937211	-0.264754	-0.401917
C248	C	1.270544	0.068579	-0.068584
C249	C	1.603877	0.401913	0.264750
C250	C	0.735841	-0.271608	-0.619282
C251	C	1.069175	0.061726	-0.285949
C252	C	1.402508	0.395059	0.047384
C253	C	0.732907	-0.274542	-0.711946
C254	C	1.066241	0.058791	-0.378612
C255	C	1.399574	0.392125	-0.045279
C256	C	0.742827	-0.128350	-0.401892
C257	C	1.076160	0.204983	-0.068559
C258	C	1.409494	0.538316	0.264775
C259	C	0.742870	-0.070237	-0.401916
C260	C	1.076203	0.263096	-0.068583
C261	C	1.409537	0.596430	0.264751
C262	C	0.758025	-0.249405	-0.922915
C263	C	1.091359	0.083928	-0.589582
C264	C	1.424692	0.417261	-0.256248
C265	C	0.727533	-0.279878	-0.881597
C266	C	1.060867	0.053456	-0.548263
C267	C	1.394200	0.386789	-0.214930
C268	C	0.730524	-0.276908	-0.787194
C269	C	1.063858	0.056425	-0.453861
C270	C	1.397191	0.389759	-0.120527
C271	C	0.755035	-0.252375	-1.017326
C272	C	1.088368	0.080959	-0.683993
C273	C	1.421702	0.414292	-0.350660
C274	C	0.749614	-0.257825	-0.185234
C275	C	1.082948	0.075509	0.148099
C276	C	1.416281	0.408842	0.481433
C277	C	0.752650	-0.254743	-0.092572
C278	C	1.085983	0.078590	0.240762
C279	C	1.419316	0.411924	0.574095
H280	H	0.188718	-0.363722	-0.551646
H281	H	0.522051	-0.030388	-0.218313
H282	H	0.855384	0.302945	0.115021
Br283	Br	0.433793	-0.181805	-0.276344
Br284	Br	0.767126	0.151529	0.056990
Br285	Br	1.100460	0.484862	0.390323
H286	H	0.806472	-0.559708	-0.305200
H287	H	1.139805	-0.226374	0.028133
H288	H	1.473139	0.106959	0.361466
H289	H	0.679089	-1.068250	-0.498535
H290	H	1.012422	-0.734917	-0.165202
H291	H	1.345755	-0.401584	0.168132
H292	H	0.044407	-0.200923	-0.305341
H293	H	0.377741	0.132410	0.027993
H294	H	0.711074	0.465743	0.361326
Br295	Br	0.624791	-0.834516	-0.580711
Br296	Br	0.958125	-0.501183	-0.247378
Br297	Br	1.291458	-0.167850	0.085956
Br298	Br	0.659826	-0.581659	-0.527358
Br299	Br	0.993160	-0.248326	-0.194024
Br300	Br	1.326493	0.085008	0.139309
H301	H	0.198232	-0.165728	-0.252101
H302	H	0.531565	0.167606	0.081232
H303	H	0.864899	0.500939	0.414566
H304	H	-0.054642	-0.200941	-0.305351
H305	H	0.278691	0.132392	0.027983
H306	H	0.612024	0.465726	0.361316
Br307	Br	0.825727	-1.075969	-0.276373
Br308	Br	1.159060	-0.742635	0.056961
Br309	Br	1.492394	-0.409302	0.390294
Br310	Br	0.680279	-0.327078	-0.940802
Br311	Br	1.013612	0.006255	-0.607469
Br312	Br	1.346945	0.339589	-0.274136
Br313	Br	0.301666	-0.382813	-0.580511
Br314	Br	0.634999	-0.049480	-0.247177
Br315	Br	0.968333	0.283853	0.086156
H316	H	-0.060784	-0.328570	-0.498472
H317	H	0.272549	0.004764	-0.165139
H318	H	0.605883	0.338097	0.168194
H319	H	0.786375	-0.221090	-0.887393
H320	H	1.119708	0.112244	-0.554059
H321	H	1.453041	0.445577	-0.220726
H322	H	0.540632	-0.328525	-0.498330
H323	H	0.873965	0.004808	-0.164997
H324	H	1.207299	0.338141	0.168336
Br325	Br	0.562506	-0.181792	-0.276330
Br326	Br	0.895840	0.151542	0.057003
Br327	Br	1.229173	0.484875	0.390336
Br328	Br	0.425844	-0.347628	-0.527270
Br329	Br	0.759178	-0.014294	-0.193937
Br330	Br	1.092511	0.319039	0.139396
H331	H	0.038282	-0.328566	-0.498455
H332	H	0.371615	0.004767	-0.165122
H333	H	0.704948	0.338100	0.168211
H334	H	0.841711	-0.809175	-0.251990
H335	H	1.175044	-0.475842	0.081343
H336	H	1.508378	-0.142508	0.414676
Br337	Br	0.825688	-0.947259	-0.276344
Br338	Br	1.159021	-0.613926	0.056990
Br339	Br	1.492355	-0.280592	0.390323
Br340	Br	0.659971	-0.955307	-0.527446
Br341	Br	0.993304	-0.621974	-0.194113
Br342	Br	1.326638	-0.288640	0.139221
H343	H	0.678879	-0.466844	-0.498431
H344	H	1.012212	-0.133510	-0.165098
H345	H	1.345546	0.199823	0.168235
Br346	Br	0.313021	-0.146617	-0.223200
Br347	Br	0.646354	0.186716	0.110134
Br348	Br	0.979687	0.520049	0.443467
H349	H	0.806425	-0.460656	-0.305175
H350	H	1.139758	-0.127323	0.028158
H351	H	1.473091	0.206011	0.361492
H352	H	0.643837	-0.719721	-0.551765
H353	H	0.977170	-0.386388	-0.218432
H354	H	1.310503	-0.053055	0.114901
Br355	Br	0.860758	-0.694384	-0.223057
Br356	Br	1.194091	-0.361050	0.110276
Br357	Br	1.527424	-0.027717	0.443610
