data_functionalizedCrystal
_audit_creation_method	'MofGen! by Chris Wilmer'
_symmetry_space_group_name_H-M	'P1'
_symmetry_Int_Tables_number	1
_symmetry_cell_setting	triclinic
loop_
_symmetry_equiv_pos_as_xyz
  x,y,z
_cell_length_a	16.956984
_cell_length_b	16.992695
_cell_length_c	16.053802
_cell_angle_alpha	87.258926
_cell_angle_beta	87.610701
_cell_angle_gamma	96.639179
loop_
_atom_site_label
_atom_site_type_symbol
_atom_site_fract_x
_atom_site_fract_y
_atom_site_fract_z
O1	O	1.063242	-0.028849	-0.069433
O2	O	0.832831	-0.056264	-0.069434
O3	O	0.947113	0.071526	-0.069427
O4	O	0.948961	-0.156639	-0.069441
O5	O	0.940821	0.064519	0.069431
O6	O	0.826539	-0.063271	0.069424
O7	O	1.056950	-0.035855	0.069425
Zn8	Zn	0.940746	-0.050676	0.091471
Zn9	Zn	0.949036	-0.041444	-0.091481
O10	O	0.942669	-0.163646	0.069418
C11	C	0.800067	-0.061171	-0.000005
C12	C	0.711812	-0.065345	-0.000006
C13	C	0.675280	0.004440	0.000000
C14	C	0.592356	0.000514	-0.000006
C15	C	0.545964	-0.073198	-0.000012
C16	C	0.582501	-0.142989	-0.000020
C17	C	0.665424	-0.139062	-0.000020
C18	C	0.297430	-0.092637	-0.000019
C19	C	0.214501	-0.096559	-0.000017
C20	C	0.224362	0.046944	-0.000004
C21	C	0.307286	0.050864	0.000001
C22	C	0.343816	-0.018925	-0.000012
N23	N	0.461201	-0.077213	-0.000016
N24	N	0.428578	-0.014909	-0.000014
C25	C	0.941590	0.097081	0.000002
C26	C	0.934500	0.183666	0.000002
C27	C	1.089715	-0.030948	-0.000006
C28	C	1.177970	-0.026774	-0.000011
C29	C	0.948191	-0.189201	-0.000013
C30	C	0.955282	-0.275785	-0.000018
N31	N	0.935094	-0.056975	0.216331
C32	C	1.002914	0.238341	0.000003
C33	C	0.996248	0.319696	-0.000005
C34	C	0.921165	0.346374	-0.000008
C35	C	0.852745	0.291692	-0.000012
C36	C	0.859413	0.210339	-0.000010
C37	C	0.893530	0.588181	-0.000020
C38	C	0.886867	0.669540	-0.000019
C39	C	1.030371	0.697538	-0.000014
C40	C	1.037031	0.616182	-0.000007
C41	C	0.968612	0.561508	-0.000015
N42	N	0.914349	0.429531	-0.000014
N43	N	0.975429	0.478353	-0.000016
N44	N	0.954694	-0.035138	-0.216341
C45	C	0.983741	-0.002617	0.260028
C46	C	0.979795	-0.007031	0.347435
C47	C	0.927206	-0.065806	0.391143
C48	C	0.878553	-0.120167	0.347440
C49	C	0.882496	-0.115749	0.260035
C50	C	0.909984	-0.085081	0.652551
C51	C	0.906047	-0.089496	0.739962
C52	C	1.007288	0.023642	0.739952
C53	C	1.011229	0.028051	0.652545
C54	C	0.962573	-0.026307	0.608849
N55	N	0.923173	-0.070321	0.480486
N56	N	0.966603	-0.021788	0.519508
H57	H	0.345053	0.110889	0.000009
H58	H	0.194610	0.103764	-0.000004
H59	H	0.835730	-0.168021	0.383032
Cl60	Cl	0.156180	-0.189233	-0.000016
Cl61	Cl	0.343343	-0.180374	-0.000033
Cl62	Cl	0.773402	0.141604	-0.000015
H63	H	0.544722	-0.203006	-0.000030
H64	H	1.098172	0.594468	-0.000004
H65	H	1.019406	0.037232	0.383013
H66	H	0.695167	-0.195888	-0.000021
Cl67	Cl	1.097309	0.204812	0.000015
H68	H	1.051959	0.364210	-0.000002
Cl69	Cl	0.792470	0.703075	-0.000018
Cl70	Cl	0.807515	0.519458	-0.000032
H71	H	0.842881	-0.160012	0.224457
Cl72	Cl	0.839929	-0.163394	0.794904
H73	H	1.086074	0.742062	-0.000009
H74	H	0.791611	0.313420	-0.000020
H75	H	0.713047	0.064464	0.000008
Cl76	Cl	0.848822	-0.153418	0.597626
Cl77	Cl	1.049860	0.071273	0.205090
Cl78	Cl	1.077342	0.101941	0.597598
Cl79	Cl	1.068447	0.091976	0.794887
H80	H	0.562616	0.057340	-0.000002
