data_functionalizedCrystal
_audit_creation_method	'MofGen! by Chris Wilmer'
_symmetry_space_group_name_H-M	'P1'
_symmetry_Int_Tables_number	1
_symmetry_cell_setting	triclinic
loop_
_symmetry_equiv_pos_as_xyz
  x,y,z
_cell_length_a	19.121275
_cell_length_b	19.121063
_cell_length_c	14.908308
_cell_angle_alpha	84.445373
_cell_angle_beta	84.146927
_cell_angle_gamma	89.926756
loop_
_atom_site_label
_atom_site_type_symbol
_atom_site_fract_x
_atom_site_fract_y
_atom_site_fract_z
Zn1	Zn	1.037730	-0.345063	0.472057
Zn2	Zn	1.371063	-0.011730	0.805390
Zn3	Zn	1.704397	0.321603	1.138723
Zn4	Zn	1.039413	-0.456087	0.327181
Zn5	Zn	1.372746	-0.122754	0.660514
Zn6	Zn	1.706080	0.210580	0.993847
Zn7	Zn	0.927298	-0.333850	0.326658
Zn8	Zn	1.260631	-0.000516	0.659991
Zn9	Zn	1.593965	0.332817	0.993324
Zn10	Zn	0.914858	-0.457816	0.484913
Zn11	Zn	1.248191	-0.124482	0.818247
Zn12	Zn	1.581525	0.208851	1.151580
O13	O	0.979825	-0.398204	0.402702
O14	O	1.313158	-0.064871	0.736035
O15	O	1.646491	0.268463	1.069369
O16	O	1.136296	-0.363760	0.447677
O17	O	1.469630	-0.030427	0.781010
O18	O	1.802963	0.302906	1.114343
O19	O	1.030451	-0.434455	0.200250
O20	O	1.363785	-0.101122	0.533583
O21	O	1.697118	0.232211	0.866916
O22	O	0.946449	-0.236993	0.340346
O23	O	1.279782	0.096340	0.673679
O24	O	1.613115	0.429674	1.007013
O25	O	1.137533	-0.445329	0.341237
O26	O	1.470866	-0.111996	0.674570
O27	O	1.804199	0.221338	1.007904
O28	O	1.027583	-0.245232	0.447170
O29	O	1.360916	0.088101	0.780503
O30	O	1.694249	0.421435	1.113837
O31	O	0.948081	-0.344648	0.199865
O32	O	1.281414	-0.011315	0.533199
O33	O	1.614748	0.322019	0.866532
O34	O	0.827305	-0.346324	0.352812
O35	O	1.160638	-0.012991	0.686146
O36	O	1.493971	0.320342	1.019479
O37	O	0.925246	-0.448275	0.610070
O38	O	1.258580	-0.114942	0.943403
O39	O	1.591913	0.218391	1.276736
O40	O	0.818165	-0.437402	0.469082
O41	O	1.151498	-0.104069	0.802416
O42	O	1.484832	0.229265	1.135749
O43	O	1.015520	-0.365437	0.600624
O44	O	1.348853	-0.032103	0.933957
O45	O	1.682187	0.301230	1.267290
O46	O	1.018389	-0.554660	0.353703
O47	O	1.351722	-0.221327	0.687037
O48	O	1.685055	0.112006	1.020370
O49	O	0.926879	-0.555930	0.469589
O50	O	1.260212	-0.222597	0.802922
O51	O	1.593545	0.110736	1.136256
C52	C	0.797236	-0.390834	0.412286
C53	C	1.130569	-0.057501	0.745620
C54	C	1.463902	0.275832	1.078953
C55	C	0.719121	-0.387700	0.416409
C56	C	1.052455	-0.054366	0.749742
C57	C	1.385788	0.278967	1.083076
C58	C	0.971485	-0.580796	0.413117
C59	C	1.304818	-0.247463	0.746450
C60	C	1.638151	0.085870	1.079784
C61	C	0.967980	-0.658914	0.417599
C62	C	1.301313	-0.325581	0.750933
C63	C	1.634646	0.007752	1.084266
C64	C	0.683072	-0.428618	0.362838
C65	C	1.016405	-0.095285	0.696171
C66	C	1.349738	0.238048	1.029504
C67	C	0.609674	-0.425674	0.366723
C68	C	0.943008	-0.092340	0.700057
C69	C	1.276341	0.240993	1.033390
C70	C	0.572329	-0.381806	0.424176
C71	C	0.905662	-0.048472	0.757509
C72	C	1.238996	0.284861	1.090843
C73	C	0.608384	-0.340886	0.477753
C74	C	0.941717	-0.007552	0.811086
C75	C	1.275050	0.325781	1.144420
C76	C	0.681779	-0.343835	0.473872
C77	C	1.015113	-0.010501	0.807205
C78	C	1.348446	0.322832	1.140538
C79	C	0.350689	-0.370784	0.438677
C80	C	0.684023	-0.037451	0.772010
C81	C	1.017356	0.295882	1.105343
C82	C	0.277289	-0.367837	0.442552
C83	C	0.610622	-0.034503	0.775886
C84	C	0.943956	0.298830	1.109219
C85	C	0.278585	-0.452626	0.331523
C86	C	0.611918	-0.119293	0.664857
C87	C	0.945251	0.214040	0.998190
C88	C	0.351982	-0.455568	0.327643
C89	C	0.685315	-0.122235	0.660976
C90	C	1.018648	0.211098	0.994310
C91	C	0.388030	-0.414651	0.381224
C92	C	0.721363	-0.081317	0.714557
C93	C	1.054697	0.252016	1.047890
C94	C	0.497305	-0.378793	0.428147
C95	C	0.830639	-0.045460	0.761480
C96	C	1.163972	0.287874	1.094814
C97	C	0.463052	-0.417668	0.377257
C98	C	0.796385	-0.084334	0.710590
C99	C	1.129718	0.248999	1.043923
C100	C	1.014010	-0.694933	0.359416
C101	C	1.347343	-0.361600	0.692749
C102	C	1.680677	-0.028266	1.026083
C103	C	1.010717	-0.768333	0.363637
C104	C	1.344051	-0.435000	0.696970
C105	C	1.677384	-0.101667	1.030303
C106	C	0.961391	-0.805713	0.426037
C107	C	1.294724	-0.472380	0.759371
C108	C	1.628057	-0.139047	1.092704
C109	C	0.915358	-0.769690	0.484227
C110	C	1.248691	-0.436356	0.817560
C111	C	1.582025	-0.103023	1.150893
C112	C	0.918654	-0.696291	0.480010
C113	C	1.251988	-0.362958	0.813343
C114	C	1.585321	-0.029624	1.146676
C115	C	0.949055	-1.027364	0.441790
C116	C	1.282389	-0.694031	0.775124
C117	C	1.615722	-0.360698	1.108457
C118	C	0.945761	-1.100768	0.446001
C119	C	1.279094	-0.767435	0.779335
C120	C	1.612428	-0.434101	1.112668
C121	C	1.041122	-1.099407	0.325412
C122	C	1.374455	-0.766073	0.658745
C123	C	1.707788	-0.432740	0.992079
C124	C	1.044411	-1.026006	0.321197
C125	C	1.377744	-0.692673	0.654530
C126	C	1.711077	-0.359340	0.987863
C127	C	0.998381	-0.989989	0.379389
C128	C	1.331714	-0.656656	0.712723
C129	C	1.665047	-0.323323	1.046056
C130	C	0.958022	-0.880740	0.430351
C131	C	1.291356	-0.547407	0.763685
C132	C	1.624689	-0.214074	1.097018
C133	C	1.001753	-0.914964	0.375079
C134	C	1.335086	-0.581631	0.708413
C135	C	1.668420	-0.248298	1.041746
C136	C	1.163127	-0.405603	0.393081
C137	C	1.496460	-0.072269	0.726414
C138	C	1.829793	0.261064	1.059748
C139	C	1.241239	-0.408756	0.388981
C140	C	1.574572	-0.075422	0.722314
C141	C	1.907906	0.257911	1.055648
C142	C	0.968808	-0.408300	0.639160
C143	C	1.302141	-0.074967	0.972494
C144	C	1.635475	0.258367	1.305827
C145	C	0.964113	-0.412602	0.739925
C146	C	1.297446	-0.079269	1.073258
C147	C	1.630780	0.254065	1.406591
C148	C	0.988216	-0.214900	0.392265
C149	C	1.321549	0.118433	0.725599
C150	C	1.654882	0.451767	1.058932
C151	C	0.991791	-0.136787	0.387818
C152	C	1.325125	0.196547	0.721151
C153	C	1.658458	0.529880	1.054485
C154	C	0.990841	-0.388098	0.167159
C155	C	1.324175	-0.054765	0.500492
C156	C	1.657508	0.278568	0.833826
C157	C	0.995681	-0.383603	0.066377
C158	C	1.329015	-0.050270	0.399710
C159	C	1.662348	0.283063	0.733043
C160	C	1.049292	-0.334410	0.919437
C161	C	1.382625	-0.001077	1.252770
C162	C	1.715958	0.332256	1.586103
C163	C	1.044883	-0.338450	1.014113
C164	C	1.378216	-0.005117	1.347447
C165	C	1.711550	0.328216	1.680780
C166	C	0.950884	-0.424718	1.023957
C167	C	1.284217	-0.091385	1.357290
C168	C	1.617550	0.241949	1.690623
C169	C	0.955293	-0.420678	0.929280
C170	C	1.288626	-0.087345	1.262613
C171	C	1.621959	0.245989	1.595947
C172	C	1.004499	-0.375523	0.877023
C173	C	1.337832	-0.042190	1.210356
C174	C	1.671166	0.291143	1.543690
C175	C	1.008911	-0.371487	0.782344
C176	C	1.342244	-0.038154	1.115678
C177	C	1.675577	0.295179	1.449011
C178	C	0.914909	-0.457751	0.792189
C179	C	1.248242	-0.124418	1.125523
C180	C	1.581575	0.208915	1.458856
C181	C	0.910500	-0.461791	0.886866
C182	C	1.243833	-0.128458	1.220200
C183	C	1.577166	0.204875	1.553533
H184	H	0.713473	-0.464338	0.316050
H185	H	1.046807	-0.131004	0.649383
H186	H	1.380140	0.202329	0.982717
H187	H	1.048200	-0.797656	0.316257
H188	H	1.381533	-0.464323	0.649590
H189	H	1.714867	-0.130990	0.982924
C190	C	0.236210	-0.319580	0.505761
C191	C	0.569543	0.013753	0.839095
C192	C	0.902877	0.347087	1.172428
N193	N	0.205269	-0.283235	0.553368
N194	N	0.538603	0.050099	0.886702
N195	N	0.871936	0.383432	1.220035
H196	H	1.084577	-0.995573	0.270385
H197	H	1.417910	-0.662240	0.603719
H198	H	1.751243	-0.328906	0.937052
C199	C	0.504134	-0.465918	0.314057
C200	C	0.837468	-0.132585	0.647390
C201	C	1.170801	0.200749	0.980724
N202	N	0.535084	-0.502257	0.266450
N203	N	0.868418	-0.168924	0.599784
N204	N	1.201751	0.164410	0.933117
H205	H	0.577971	-0.305171	0.524537
H206	H	0.911304	0.028163	0.857870
H207	H	1.244638	0.361496	1.191203
H208	H	0.870436	-0.498553	0.929427
H209	H	1.203770	-0.165220	1.262760
H210	H	1.537103	0.168113	1.596093
H211	H	0.711130	-0.310513	0.517494
H212	H	1.044463	0.022820	0.850828
H213	H	1.377797	0.356153	1.184161
H214	H	0.580326	-0.458994	0.323100
H215	H	0.913659	-0.125661	0.656433
H216	H	1.246993	0.207673	0.989767
C217	C	0.896745	-0.474366	1.081455
C218	C	1.230078	-0.141033	1.414788
C219	C	1.563411	0.192301	1.748122
N220	N	0.855962	-0.511756	1.124764
N221	N	1.189295	-0.178423	1.458097
N222	N	1.522629	0.154910	1.791431
C223	C	0.390334	-0.325764	0.497606
C224	C	0.723667	0.007569	0.830939
C225	C	1.057000	0.340903	1.164272
N226	N	0.420197	-0.291849	0.541990
N227	N	0.753530	0.041484	0.875324
N228	N	1.086863	0.374817	1.208657
C229	C	0.393056	-0.503826	0.264440
C230	C	0.726390	-0.170493	0.597774
C231	C	1.059723	0.162841	0.931107
N232	N	0.423994	-0.540173	0.216833
N233	N	0.757327	-0.206839	0.550166
N234	N	1.090661	0.126494	0.883499
C235	C	0.238925	-0.497637	0.272595
C236	C	0.572259	-0.164304	0.605928
C237	C	0.905592	0.169029	0.939262
N238	N	0.209053	-0.531544	0.228211
N239	N	0.542387	-0.198211	0.561544
N240	N	0.875720	0.135122	0.894878
H241	H	0.466891	-0.343075	0.474924
H242	H	0.800224	-0.009741	0.808257
H243	H	1.133557	0.323592	1.141590
H244	H	1.054174	-0.664503	0.308599
H245	H	1.387508	-0.331169	0.641932
H246	H	1.720841	0.002164	0.975266
H247	H	1.081356	-0.304970	1.048642
H248	H	1.414690	0.028364	1.381976
H249	H	1.748023	0.361697	1.715309
H250	H	0.905601	-1.131202	0.496831
H251	H	1.238934	-0.797869	0.830164
H252	H	1.572267	-0.464535	1.163497
C253	C	1.091753	-1.139032	0.261407
C254	C	1.425087	-0.805698	0.594740
C255	C	1.758420	-0.472365	0.928074
N256	N	1.129892	-1.168877	0.213198
N257	N	1.463226	-0.835544	0.546531
N258	N	1.796559	-0.502211	0.879864
C259	C	0.898454	-0.987759	0.505849
C260	C	1.231787	-0.654425	0.839183
C261	C	1.565121	-0.321092	1.172516
N262	N	0.860351	-0.957926	0.554118
N263	N	1.193684	-0.624593	0.887451
N264	N	1.527018	-0.291260	1.220785
H265	H	0.875198	-0.800131	0.535038
H266	H	1.208531	-0.466797	0.868372
H267	H	1.541864	-0.133464	1.201705
C268	C	0.868017	-0.656671	0.544017
C269	C	1.201351	-0.323337	0.877350
C270	C	1.534684	0.009996	1.210683
N271	N	0.829878	-0.626830	0.592231
N272	N	1.163211	-0.293497	0.925565
N273	N	1.496544	0.039837	1.258898
H274	H	1.041917	-0.884528	0.324276
H275	H	1.375251	-0.551194	0.657609
H276	H	1.708584	-0.217861	0.990943
H277	H	0.917859	-0.911183	0.481156
H278	H	1.251192	-0.577850	0.814489
H279	H	1.584526	-0.244516	1.147823
H280	H	1.048978	-0.334721	0.739798
H281	H	1.382311	-0.001388	1.073131
H282	H	1.715645	0.331945	1.406465
C283	C	1.103421	-0.284744	0.861952
C284	C	1.436755	0.048590	1.195285
C285	C	1.770088	0.381923	1.528619
N286	N	1.144193	-0.247333	0.818656
N287	N	1.477526	0.086000	1.151989
N288	N	1.810859	0.419333	1.485322
C289	C	0.865633	-0.502979	0.745527
C290	C	1.198967	-0.169646	1.078861
C291	C	1.532300	0.163687	1.412194
N292	N	0.828522	-0.537045	0.710380
N293	N	1.161855	-0.203712	1.043714
N294	N	1.495189	0.129621	1.377047
