data_functionalizedCrystal
_audit_creation_method	'MofGen! by Chris Wilmer'
_symmetry_space_group_name_H-M	'P1'
_symmetry_Int_Tables_number	1
_symmetry_cell_setting	triclinic
loop_
_symmetry_equiv_pos_as_xyz
  x,y,z
_cell_length_a	13.635800
_cell_length_b	27.923496
_cell_length_c	11.102291
_cell_angle_alpha	84.490486
_cell_angle_beta	71.394248
_cell_angle_gamma	98.963946
loop_
_atom_site_label
_atom_site_type_symbol
_atom_site_fract_x
_atom_site_fract_y
_atom_site_fract_z
V1	V	-2.031716	-0.067132	0.397062
O2	O	-2.036439	0.003220	0.388677
O3	O	-1.996465	-0.133104	0.395142
O4	O	-2.020477	-0.066102	0.569872
O5	O	-2.012261	-0.064247	0.212737
V6	V	-2.273282	-0.058716	0.374919
O7	O	-2.162773	-0.085591	0.445636
O8	O	-2.367323	-0.040257	0.326346
O9	O	-2.196929	0.007257	0.376840
O10	O	-2.327257	-0.129068	0.383304
O11	O	-2.351434	-0.061601	0.559244
O12	O	-2.172917	-0.059746	0.202109
C13	C	-1.915858	-0.149187	0.389083
C14	C	-1.927767	-0.203121	0.388665
V15	V	-1.531716	-0.067132	0.397062
O16	O	-1.536439	0.003220	0.388677
O17	O	-1.496465	-0.133104	0.395142
O18	O	-1.520477	-0.066102	0.569872
O19	O	-1.512261	-0.064247	0.212737
V20	V	-1.773282	-0.058716	0.374919
O21	O	-1.662773	-0.085591	0.445636
O22	O	-1.867323	-0.040257	0.326346
O23	O	-1.696929	0.007257	0.376840
O24	O	-1.827257	-0.129068	0.383304
O25	O	-1.851434	-0.061601	0.559244
O26	O	-1.672917	-0.059746	0.202109
C27	C	-2.092875	-0.540049	0.392580
C28	C	-2.137701	-0.742758	0.391068
O29	O	-2.221003	-0.771074	0.396346
N30	N	-2.052182	-0.765633	0.384502
C31	C	-1.955451	-0.737827	0.378322
O32	O	-1.883744	-0.761936	0.372716
C33	C	-1.910629	-0.535120	0.379844
C34	C	-1.996152	-0.512247	0.386397
C35	C	-2.178390	-0.517176	0.399134
C36	C	-2.167182	-0.466501	0.399505
C37	C	-2.070459	-0.438700	0.393322
C38	C	-1.984943	-0.461572	0.386768
C39	C	-1.813903	-0.507316	0.373674
C40	C	-1.802705	-0.456636	0.374058
C41	C	-1.888228	-0.433764	0.380611
C42	C	-1.877012	-0.383096	0.380956
N43	N	-1.962531	-0.360221	0.387522
C44	C	-2.059254	-0.388023	0.393705
C45	C	-1.978989	-0.844252	0.377521
C46	C	-1.990194	-0.894928	0.377138
C47	C	-2.172443	-0.899855	0.389886
C48	C	-2.161235	-0.849177	0.390260
C49	C	-2.064508	-0.821377	0.384087
C50	C	-2.035709	-0.281602	0.394483
C51	C	-2.024490	-0.230923	0.394848
C52	C	-1.842244	-0.226000	0.382107
C53	C	-1.853459	-0.276675	0.381735
C54	C	-1.950201	-0.304475	0.387928
O55	O	-1.793746	-0.354751	0.375695
O56	O	-2.130955	-0.363907	0.399339
C57	C	-2.104083	-0.590724	0.392209
C58	C	-2.018568	-0.613596	0.385655
C59	C	-1.921845	-0.585795	0.379472
C60	C	-2.029773	-0.664273	0.385272
C61	C	-2.126496	-0.692075	0.391455
C62	C	-2.212015	-0.669200	0.398021
C63	C	-2.200807	-0.618525	0.398392
C64	C	-1.836326	-0.608669	0.372906
C65	C	-1.847541	-0.659344	0.372534
C66	C	-1.944265	-0.687146	0.378717
C67	C	-1.946487	-0.063718	0.611968
C68	C	-1.977867	-0.063312	0.753246
C69	C	-2.109206	0.023337	0.382895
C70	C	-2.086917	0.077270	0.383321
C71	C	-2.078578	-0.062132	0.160007
C72	C	-2.036817	-0.062535	0.018728
C73	C	-1.415858	-0.149187	0.389083
C74	C	-1.427767	-0.203121	0.388665
C75	C	-1.446487	-0.063718	0.611968
C76	C	-1.477867	-0.063312	0.753246
C77	C	-2.083745	-0.065541	0.826120
C78	C	-2.113221	-0.065151	0.958862
C79	C	-1.930929	-0.060304	0.945843
C80	C	-1.901454	-0.060691	0.813102
C81	C	-2.188991	-0.068342	0.833639
C82	C	-2.218466	-0.067951	0.966380
C83	C	-1.609206	0.023337	0.382895
C84	C	-1.586917	0.077270	0.383321
C85	C	-1.578578	-0.062132	0.160007
C86	C	-1.536817	-0.062535	0.018728
C87	C	-1.524490	-0.230923	0.394848
C88	C	-1.535698	-0.281601	0.394474
C89	C	-1.450179	-0.304475	0.387909
C90	C	-1.353449	-0.276670	0.381729
C91	C	-1.342244	-0.225994	0.382112
C92	C	-1.662688	0.105072	0.377142
C93	C	-1.641752	0.155749	0.377522
C94	C	-1.545048	0.178624	0.384090
C95	C	-1.469271	0.150819	0.390266
C96	C	-1.490205	0.100143	0.389877
C97	C	-1.583745	-0.065541	0.826120
C98	C	-1.613221	-0.065151	0.958862
C99	C	-1.430929	-0.060304	0.945843
C100	C	-1.401454	-0.060691	0.813102
C101	C	-1.688991	-0.068342	0.833639
C102	C	-1.718466	-0.067951	0.966380
H103	H	-2.094136	-0.212302	0.400180
Cl104	Cl	-1.834877	-0.057010	1.021101
H105	H	-1.390534	0.169451	0.395613
H106	H	-1.368721	-0.058169	0.994594
H107	H	-1.459317	-0.345740	0.387598
H108	H	-1.283824	-0.295303	0.376383
Cl109	Cl	-1.394937	0.065198	0.397652
H110	H	-1.315240	-0.058876	0.753772
H111	H	-1.723939	-0.434004	0.369038
Cl112	Cl	-1.220635	-0.191048	0.374325
H113	H	-2.257157	-0.539808	0.404174
H114	H	-2.210527	-0.035412	0.786149
Cl115	Cl	-2.309992	-0.122109	1.048629
Cl116	Cl	-1.784267	0.076326	0.368882
Cl117	Cl	-1.745944	-0.305430	0.373495
H118	H	-2.223725	-0.104523	0.809609
Cl119	Cl	-1.737029	0.190693	0.369761
H120	H	-1.763491	-0.203355	0.377067
Cl121	Cl	-2.265676	-0.014770	1.010688
H122	H	-1.900220	-0.821621	0.372492
Cl123	Cl	-1.518748	0.242332	0.384579
Cl124	Cl	-1.632019	-0.202178	0.403116
H125	H	-1.710527	-0.035412	0.786149
Cl126	Cl	-1.657307	-0.316545	0.402236
Cl127	Cl	-1.742617	-0.124201	0.796527
H128	H	-1.749040	-0.033504	0.995070
H129	H	-1.777745	-0.103032	1.019647
H130	H	-1.744256	-0.525929	0.368328
H131	H	-2.251198	-0.922500	0.394907
Cl132	Cl	-2.274701	-0.437754	0.407731
Cl133	Cl	-2.268756	-0.820429	0.398505
Cl134	Cl	-1.882667	-0.923674	0.368870
Cl135	Cl	-2.157326	-0.316543	0.402266
H136	H	-2.270449	-0.599907	0.403728
H137	H	-2.290770	-0.691844	0.403044
H138	H	-1.777889	-0.677962	0.367189
H139	H	-1.815240	-0.058876	0.753772
Cl140	Cl	-1.714719	-0.573726	0.365128
