data_functionalizedCrystal
_audit_creation_method	'MofGen! by Chris Wilmer'
_symmetry_space_group_name_H-M	'P1'
_symmetry_Int_Tables_number	1
_symmetry_cell_setting	triclinic
loop_
_symmetry_equiv_pos_as_xyz
  x,y,z
_cell_length_a	11.169417
_cell_length_b	25.639240
_cell_length_c	11.169417
_cell_angle_alpha	90.019573
_cell_angle_beta	90.003712
_cell_angle_gamma	90.033637
loop_
_atom_site_label
_atom_site_type_symbol
_atom_site_fract_x
_atom_site_fract_y
_atom_site_fract_z
Zn1	Zn	1.834584	-0.208235	0.678424
Zn2	Zn	1.834452	-0.295644	0.477692
Zn3	Zn	1.633927	-0.208226	0.477759
Zn4	Zn	1.633799	-0.295643	0.678336
O5	O	1.734191	-0.251937	0.578053
O6	O	2.002516	-0.219834	0.651805
O7	O	1.807849	-0.284045	0.309751
O8	O	1.660653	-0.135062	0.504442
O9	O	2.002419	-0.284054	0.504328
O10	O	1.808076	-0.135069	0.651870
O11	O	1.660525	-0.219819	0.309800
O12	O	1.465960	-0.219817	0.504357
O13	O	1.660436	-0.284051	0.846298
O14	O	1.465867	-0.284042	0.651721
O15	O	1.807952	-0.219833	0.846362
O16	O	1.807726	-0.368809	0.504243
O17	O	1.660307	-0.368808	0.651656
C18	C	1.422366	-0.251929	0.578037
C19	C	1.288966	-0.251938	0.578059
C20	C	1.734021	-0.387779	0.577959
C21	C	1.734058	-0.445893	0.577959
C22	C	1.810991	-0.806222	0.654957
C23	C	1.811027	-0.860826	0.654981
O24	O	1.876236	-0.889033	0.720352
N25	N	1.734357	-0.888176	0.578169
C26	C	1.657638	-0.860919	0.501335
O27	O	1.592427	-0.889196	0.436003
C28	C	1.657598	-0.806315	0.501318
C29	C	1.734281	-0.778968	0.578127
C30	C	1.887668	-0.778874	0.731761
C31	C	1.887634	-0.724274	0.731735
C32	C	1.810923	-0.697020	0.654905
C33	C	1.734247	-0.724368	0.578101
C34	C	1.580874	-0.779059	0.424491
C35	C	1.580839	-0.724452	0.424481
C36	C	1.657523	-0.697105	0.501290
C37	C	1.657503	-0.642514	0.501244
N38	N	1.734172	-0.615164	0.578057
C39	C	1.810883	-0.642417	0.654887
C40	C	1.657728	-0.975589	0.501379
C41	C	1.657774	-1.030192	0.501390
C42	C	1.811161	-1.030095	0.655038
C43	C	1.811120	-0.975492	0.655020
C44	C	1.734398	-0.948239	0.578192
C45	C	1.810806	-0.527752	0.654825
C46	C	1.810769	-0.473147	0.654789
C47	C	1.657377	-0.473248	0.501146
C48	C	1.657419	-0.527849	0.501177
C49	C	1.734137	-0.555099	0.578027
O50	O	1.592323	-0.614272	0.435911
O51	O	1.876072	-0.614133	0.720219
C52	C	2.047233	-0.251945	0.578069
C53	C	2.180633	-0.251949	0.578076
C54	C	1.734195	-0.251943	0.891095
C55	C	1.734196	-0.251945	1.024495
C56	C	1.734393	-0.115564	0.578173
C57	C	1.734480	-0.057450	0.578225
C58	C	1.734182	-0.251944	1.266228
C59	C	1.734192	-0.251947	1.132828
H60	H	1.873218	-0.450882	0.717336
C61	C	1.573326	-0.945617	0.416852
N62	N	1.509751	-0.923044	0.353188
C63	C	1.895208	-0.557720	0.739356
N64	N	1.958787	-0.580291	0.803017
H65	H	1.518430	-0.801316	0.361945
C66	C	1.972073	-0.808844	0.816278
N67	N	2.035662	-0.831414	0.879932
C68	C	1.895472	-0.945415	0.739520
N69	N	1.959008	-0.922764	0.803172
C70	C	1.971996	-0.694199	0.816227
N71	N	2.035544	-0.671550	0.879871
H72	H	1.518358	-0.702266	0.361920
C73	C	1.572995	-0.443259	0.416642
N74	N	1.509430	-0.420670	0.353000
H75	H	1.594986	-0.550116	0.438624
H76	H	1.873621	-1.052295	0.717599
C77	C	1.573425	-1.060268	0.416884
N78	N	1.509885	-1.082919	0.353237
