data_functionalizedCrystal
_audit_creation_method	'MofGen! by Chris Wilmer'
_symmetry_space_group_name_H-M	'P1'
_symmetry_Int_Tables_number	1
_symmetry_cell_setting	triclinic
loop_
_symmetry_equiv_pos_as_xyz
  x,y,z
_cell_length_a	6.394984
_cell_length_b	17.699083
_cell_length_c	16.176319
_cell_angle_alpha	90.001389
_cell_angle_beta	89.994826
_cell_angle_gamma	95.110816
loop_
_atom_site_label
_atom_site_type_symbol
_atom_site_fract_x
_atom_site_fract_y
_atom_site_fract_z
O1	O	0.264132	-1.006772	-0.068628
O2	O	0.298496	-0.786744	-0.068654
O3	O	-0.022767	-0.899884	-0.068638
O4	O	0.585395	-0.893633	-0.068644
O5	O	-0.022787	-0.899867	0.068855
O6	O	0.298476	-0.786728	0.068839
O7	O	0.264112	-1.006756	0.068865
Cu8	Cu	0.281292	-0.896741	0.081406
Cu9	Cu	0.281316	-0.896760	-0.081195
O10	O	0.585375	-0.893617	0.068849
C11	C	0.297255	-0.758527	0.000089
C12	C	0.293561	-0.674471	0.000078
C13	C	0.899411	-0.898632	0.000111
C14	C	0.663193	-0.894866	0.000109
C15	C	0.265353	-1.034974	0.000120
C16	C	0.269047	-1.119029	0.000125
N17	N	0.281274	-0.896733	0.195772
N18	N	0.281318	-0.896774	-0.195561
C19	C	0.482136	-0.627773	0.000077
C20	C	0.478652	-0.548794	0.000088
C21	C	0.286592	-0.516515	0.000094
C22	C	0.098003	-0.563219	0.000098
C23	C	0.101488	-0.642196	0.000093
C24	C	0.083942	-0.244712	0.000119
C25	C	0.080471	-0.165729	0.000121
C26	C	0.461106	-0.151310	0.000113
C27	C	0.464591	-0.230288	0.000108
C28	C	0.276003	-0.276985	0.000117
C29	C	0.279783	-0.362622	0.000107
C30	C	0.282810	-0.430879	0.000098
C31	C	0.139077	-0.946847	0.239043
C32	C	0.139074	-0.946851	0.325590
C33	C	0.281281	-0.896743	0.368864
C34	C	0.423485	-0.846624	0.325587
C35	C	0.423476	-0.846617	0.239041
C36	C	0.423524	-0.846650	0.674615
C37	C	0.423527	-0.846663	0.761167
C38	C	0.139123	-0.946884	0.761164
C39	C	0.139114	-0.946877	0.674618
C40	C	0.281309	-0.896755	0.631348
C41	C	0.281307	-0.896750	0.537504
C42	C	0.281295	-0.896751	0.462707
H43	H	0.632209	-0.510775	0.000086
H44	H	0.023333	-0.987694	0.796403
H45	H	0.539333	-0.805856	0.796399
C46	C	-0.110312	-0.528031	0.000064
C47	C	-0.073009	-0.448870	0.000044
C48	C	-0.264861	-0.416432	-0.000001
H49	H	-0.188106	-0.543852	0.047999
H50	H	-0.187953	-0.543894	-0.047901
H51	H	0.004600	-0.433013	0.048004
H52	H	0.004754	-0.433028	-0.047887
H53	H	-0.342502	-0.432296	-0.047967
H54	H	-0.342641	-0.432259	0.047934
H55	H	-0.239577	-0.362719	-0.000023
C56	C	0.578103	-0.792177	0.192207
C57	C	0.702685	-0.748311	0.248626
C58	C	0.845167	-0.698156	0.205514
H59	H	0.503315	-0.759887	0.158451
H60	H	0.665069	-0.820207	0.158454
H61	H	0.615731	-0.720283	0.282364
H62	H	0.777520	-0.780580	0.282383
H63	H	0.932132	-0.726186	0.171761
H64	H	0.770360	-0.665871	0.171760
H65	H	0.929725	-0.668392	0.243787
H66	H	0.539266	-0.805822	0.360826
H67	H	0.539308	-0.805841	0.639391
C68	C	-0.128004	-0.130640	-0.000037
C69	C	-0.141146	-0.085736	-0.070784
C70	C	-0.333160	-0.053408	-0.070964
H71	H	-0.137471	-0.100075	0.047854
H72	H	-0.239884	-0.169740	-0.000075
H73	H	-0.029297	-0.046641	-0.070738
H74	H	-0.131716	-0.116284	-0.118687
H75	H	-0.445040	-0.092509	-0.071003
H76	H	-0.342610	-0.022847	-0.023070
H77	H	-0.342110	-0.022943	-0.118969
C78	C	0.690452	-0.662960	0.000025
C79	C	0.653153	-0.742120	-0.000003
C80	C	0.845008	-0.774557	-0.000061
H81	H	0.768237	-0.647141	0.047958
H82	H	0.768101	-0.647093	-0.047942
H83	H	0.575537	-0.757981	0.047959
H84	H	0.575400	-0.757961	-0.047933
H85	H	0.922657	-0.758690	-0.048028
H86	H	0.922779	-0.758733	0.047872
H87	H	0.819727	-0.828270	-0.000088
C88	C	-0.015558	-1.001282	0.192213
C89	C	-0.140127	-1.045156	0.248637
C90	C	-0.282626	-1.095302	0.205530
H91	H	0.059217	-1.033569	0.158440
H92	H	-0.102531	-0.973246	0.158478
H93	H	-0.053165	-1.073190	0.282358
H94	H	-0.214948	-1.012890	0.282412
H95	H	-0.369599	-1.067266	0.171795
H96	H	-0.207834	-1.127583	0.171759
H97	H	-0.367175	-1.125071	0.243807
C98	C	-0.015216	-1.001179	0.372720
C99	C	0.015177	-0.990447	0.457775
C100	C	-0.126943	-1.040475	0.501215
H101	H	0.007163	-1.051934	0.358630
H102	H	-0.154633	-0.991629	0.358590
H103	H	0.154562	-1.000003	0.471899
H104	H	-0.007219	-0.939702	0.471889
H105	H	-0.266361	-1.030925	0.487085
H106	H	-0.104552	-1.091227	0.487119
H107	H	-0.106355	-1.033195	0.558929
C108	C	-0.015521	-1.001310	0.627785
C109	C	-0.140095	-1.045186	0.684205
C110	C	-0.282594	-1.095329	0.641095
H111	H	0.059255	-1.033595	0.594011
H112	H	-0.102490	-0.973272	0.594051
H113	H	-0.053138	-1.073222	0.717925
H114	H	-0.214917	-1.012921	0.717981
H115	H	-0.369563	-1.067291	0.607360
H116	H	-0.207801	-1.127609	0.607322
H117	H	-0.367147	-1.125100	0.679369
H118	H	0.620986	-0.256565	0.000099
H119	H	-0.052069	-0.680217	0.000094
H120	H	0.614663	-0.113280	0.000111
H121	H	-0.069619	-0.282724	0.000126
