data_functionalizedCrystal
_audit_creation_method	'MofGen! by Chris Wilmer'
_symmetry_space_group_name_H-M	'P1'
_symmetry_Int_Tables_number	1
_symmetry_cell_setting	triclinic
loop_
_symmetry_equiv_pos_as_xyz
  x,y,z
_cell_length_a	12.759394
_cell_length_b	12.759395
_cell_length_c	12.759387
_cell_angle_alpha	89.979491
_cell_angle_beta	89.968340
_cell_angle_gamma	90.016374
loop_
_atom_site_label
_atom_site_type_symbol
_atom_site_fract_x
_atom_site_fract_y
_atom_site_fract_z
Zn1	Zn	-0.418168	1.606268	-0.593999
Zn2	Zn	-0.593885	1.606158	-0.418317
Zn3	Zn	-0.418225	1.430566	-0.418336
Zn4	Zn	-0.593810	1.430558	-0.593956
O5	O	-0.506022	1.518387	-0.506152
O6	O	-0.441485	1.753274	-0.570704
O7	O	-0.570639	1.582823	-0.271298
O8	O	-0.271197	1.453922	-0.441664
O9	O	-0.570583	1.753194	-0.441631
O10	O	-0.271155	1.583010	-0.570723
O11	O	-0.441582	1.453816	-0.271312
O12	O	-0.441510	1.283544	-0.441622
O13	O	-0.570456	1.453909	-0.740983
O14	O	-0.570511	1.283538	-0.570649
O15	O	-0.441412	1.583002	-0.741014
O16	O	-0.740896	1.582815	-0.441590
O17	O	-0.740841	1.453802	-0.570631
C18	C	-0.506009	1.245420	-0.506134
C19	C	-0.506029	1.128643	-0.506151
C20	C	-0.778990	1.518324	-0.506126
C21	C	-0.895766	1.518393	-0.506151
C22	C	-0.640576	1.128676	-0.640290
C23	C	-0.707857	1.073831	-0.707362
C24	C	-0.707870	0.964109	-0.707375
C25	C	-0.640592	0.909230	-0.640310
C26	C	-0.573310	0.964074	-0.573238
C27	C	-0.573307	1.073799	-0.573230
C28	C	-0.438760	0.964042	-0.439106
C29	C	-0.438751	1.073764	-0.439086
C30	C	-0.371482	0.909162	-0.372042
C31	C	-0.304204	0.964007	-0.304962
C32	C	-0.304195	1.073735	-0.304951
C33	C	-0.371469	1.128608	-0.372014
C34	C	-0.895770	1.652835	-0.371881
C35	C	-0.950633	1.720083	-0.304758
C36	C	-1.060354	1.720145	-0.304786
C37	C	-1.115216	1.652953	-0.371947
C38	C	-1.060353	1.585705	-0.439070
C39	C	-0.950629	1.585648	-0.439032
C40	C	-1.060349	1.451270	-0.573343
C41	C	-0.950628	1.451202	-0.573311
C42	C	-1.115211	1.384079	-0.640504
C43	C	-1.060348	1.316823	-0.707623
C44	C	-0.950620	1.316764	-0.707591
C45	C	-0.895765	1.383954	-0.640434
C46	C	-0.231989	1.518479	-0.506200
C47	C	-0.115212	1.518518	-0.506221
C48	C	-0.505919	1.518467	-0.780185
C49	C	-0.505875	1.518500	-0.896962
C50	C	-0.506036	1.792421	-0.506170
C51	C	-0.506042	1.909197	-0.506178
C52	C	-0.371511	1.652934	-0.897015
C53	C	-0.304313	1.720166	-0.951902
C54	C	-0.304275	1.720192	-1.061624
C55	C	-0.371439	1.652976	-1.116461
C56	C	-0.438637	1.585744	-1.061574
C57	C	-0.438671	1.585728	-0.951849
C58	C	-0.572995	1.451307	-1.061521
C59	C	-0.573040	1.451285	-0.951799
C60	C	-0.640159	1.384091	-1.116358
C61	C	-0.707364	1.316863	-1.061471
C62	C	-0.707400	1.316841	-0.951742
C63	C	-0.640238	1.384053	-0.896912
C64	C	-0.506049	1.518369	-0.233184
C65	C	-0.505797	1.518538	-0.116408
H66	H	-0.640580	1.218017	-0.640278
F67	F	-0.778832	1.245331	-1.119837
F68	F	-0.232742	1.791733	-1.120040
F69	F	-1.231985	1.383798	-0.640185
H70	H	-0.762632	1.118526	-0.761966
H71	H	-0.249426	0.919315	-0.250369
F72	F	-0.778918	1.245277	-0.893335
H73	H	-1.204557	1.653018	-0.371973
H74	H	-0.249627	1.774890	-0.907242
F75	F	-0.232578	1.132097	-0.233567
F76	F	-0.778995	1.653006	-0.372075
H77	H	-0.762651	0.919455	-0.761996
H78	H	-0.905955	1.774792	-0.250078
H79	H	-0.371393	1.652994	-1.205802
H80	H	-0.640599	0.819889	-0.640336
H81	H	-1.105023	1.774909	-0.250135
F82	F	-0.371491	0.792387	-0.372063
F83	F	-1.118741	1.245328	-0.779098
F84	F	-0.371470	1.245384	-0.372003
H85	H	-0.905956	1.262006	-0.762254
F86	F	-0.778990	1.384135	-0.640633
F87	F	-0.371559	1.652926	-0.780239
H88	H	-0.640119	1.384113	-1.205699
H89	H	-0.640265	1.384046	-0.807571
