data_functionalizedCrystal
_audit_creation_method	'MofGen! by Chris Wilmer'
_symmetry_space_group_name_H-M	'P1'
_symmetry_Int_Tables_number	1
_symmetry_cell_setting	triclinic
loop_
_symmetry_equiv_pos_as_xyz
  x,y,z
_cell_length_a	11.169417
_cell_length_b	16.120444
_cell_length_c	11.169409
_cell_angle_alpha	87.138527
_cell_angle_beta	90.019824
_cell_angle_gamma	92.927304
loop_
_atom_site_label
_atom_site_type_symbol
_atom_site_fract_x
_atom_site_fract_y
_atom_site_fract_z
Zn1	Zn	1.810607	-0.331820	0.702711
Zn2	Zn	2.143940	0.001514	1.036045
Zn3	Zn	2.477274	0.334847	1.369378
Zn4	Zn	1.800261	-0.471263	0.512185
Zn5	Zn	2.133595	-0.137930	0.845518
Zn6	Zn	2.466928	0.195404	1.178852
Zn7	Zn	1.609889	-0.331870	0.502050
Zn8	Zn	1.943223	0.001463	0.835383
Zn9	Zn	2.276556	0.334796	1.168716
Zn10	Zn	1.599670	-0.471195	0.712825
Zn11	Zn	1.933004	-0.137862	1.046158
Zn12	Zn	2.266337	0.195471	1.379492
O13	O	1.705107	-0.401537	0.607443
O14	O	2.038440	-0.068204	0.940776
O15	O	2.371774	0.265130	1.274109
O16	O	1.977184	-0.350324	0.677447
O17	O	2.310517	-0.016991	1.010780
O18	O	2.643851	0.316342	1.344114
O19	O	1.774955	-0.452822	0.342894
O20	O	2.108288	-0.119489	0.676228
O21	O	2.441622	0.213845	1.009561
O22	O	1.645121	-0.215198	0.520194
O23	O	1.978455	0.118135	0.853527
O24	O	2.311788	0.451469	1.186860
O25	O	1.969583	-0.452773	0.537468
O26	O	2.302916	-0.119439	0.870801
O27	O	2.636250	0.213894	1.204135
O28	O	1.792588	-0.215161	0.667619
O29	O	2.125921	0.118173	1.000952
O30	O	2.459254	0.451506	1.334286
O31	O	1.635089	-0.350411	0.335448
O32	O	1.968423	-0.017078	0.668781
O33	O	2.301756	0.316256	1.002115
O34	O	1.440585	-0.350345	0.530000
O35	O	1.773918	-0.017012	0.863333
O36	O	2.107251	0.316322	1.196667
O37	O	1.627705	-0.452657	0.879430
O38	O	1.961038	-0.119324	1.212763
O39	O	2.294371	0.214010	1.546096
O40	O	1.433077	-0.452706	0.684856
O41	O	1.766410	-0.119373	1.018189
O42	O	2.099744	0.213960	1.351523
O43	O	1.782679	-0.350258	0.871999
O44	O	2.116012	-0.016925	1.205333
O45	O	2.449346	0.316408	1.538666
O46	O	1.765046	-0.587920	0.547275
O47	O	2.098380	-0.254586	0.880608
O48	O	2.431713	0.078747	1.213941
O49	O	1.617673	-0.587870	0.694684
O50	O	1.951006	-0.254536	1.028017
O51	O	2.284340	0.078797	1.361351
C52	C	1.393283	-0.401524	0.607426
C53	C	1.726617	-0.068191	0.940760
C54	C	2.059950	0.265142	1.274093
C55	C	1.259882	-0.401539	0.607449
C56	C	1.593216	-0.068206	0.940783
C57	C	1.926549	0.265128	1.274116
C58	C	1.689161	-0.618145	0.623203
C59	C	2.022494	-0.284811	0.956536
C60	C	2.355827	0.048522	1.289869
C61	C	1.682449	-0.710810	0.629985
C62	C	2.015782	-0.377477	0.963318
C63	C	2.349115	-0.044144	1.296652
C64	C	1.740220	-0.921757	0.572517
C65	C	2.073554	-0.588423	0.905851
C66	C	2.406887	-0.255090	1.239184
C67	C	1.670216	-0.880466	0.642380
C68	C	2.003550	-0.547133	0.975714
C69	C	2.336883	-0.213800	1.309047
C70	C	1.677024	-0.786061	0.635482
C71	C	2.010358	-0.452728	0.968815
C72	C	2.343691	-0.119394	1.302148
C73	C	1.733414	-1.016170	0.579415
C74	C	2.066747	-0.682837	0.912748
C75	C	2.400080	-0.349504	1.246081
C76	C	2.018148	-0.401550	0.607460
C77	C	2.351482	-0.068217	0.940793
C78	C	2.684815	0.265116	1.274127
C79	C	2.151548	-0.401556	0.607467
C80	C	2.484881	-0.068223	0.940801
C81	C	2.818215	0.265111	1.274134
C82	C	1.705206	-0.401445	0.920479
C83	C	2.038539	-0.068111	1.253812
C84	C	2.371873	0.265222	1.587145
C85	C	1.705248	-0.401405	1.053876
C86	C	2.038582	-0.068072	1.387209
C87	C	2.371915	0.265262	1.720543
C88	C	1.721148	-0.184084	0.591648
C89	C	2.054482	0.149250	0.924981
C90	C	2.387815	0.482583	1.258314
C91	C	1.727984	-0.091418	0.584917
C92	C	2.061318	0.241915	0.918250
C93	C	2.394651	0.575249	1.251583
C94	C	1.705082	-0.401569	0.295620
C95	C	2.038415	-0.068236	0.628954
C96	C	2.371749	0.265097	0.962287
C97	C	1.705290	-0.401374	0.162207
C98	C	2.038623	-0.068040	0.495540
C99	C	2.371956	0.265293	0.828873
H100	H	1.805261	-0.886210	0.507528
H101	H	2.138594	-0.552876	0.840861
H102	H	2.471927	-0.219543	1.174195
H103	H	1.605170	-0.916017	0.707373
H104	H	1.938504	-0.582684	1.040706
H105	H	2.271837	-0.249351	1.374040
