data_functionalizedCrystal
_audit_creation_method	'MofGen! by Chris Wilmer'
_symmetry_space_group_name_H-M	'P1'
_symmetry_Int_Tables_number	1
_symmetry_cell_setting	triclinic
loop_
_symmetry_equiv_pos_as_xyz
  x,y,z
_cell_length_a	23.196402
_cell_length_b	14.560438
_cell_length_c	23.196402
_cell_angle_alpha	60.000724
_cell_angle_beta	60.000268
_cell_angle_gamma	59.997877
loop_
_atom_site_label
_atom_site_type_symbol
_atom_site_fract_x
_atom_site_fract_y
_atom_site_fract_z
Zr1	Zr	0.555359	0.120519	0.555376
O2	O	0.583579	0.267161	0.463326
O3	O	0.463307	0.075571	0.583592
O4	O	0.463307	0.267175	0.583591
O5	O	0.678452	-0.075591	0.463331
O6	O	0.463305	0.267181	0.678461
O7	O	0.583580	0.075556	0.463327
O8	O	0.463306	-0.075564	0.678463
O9	O	0.678451	0.267154	0.463328
O10	O	0.524810	0.056398	0.666429
O11	O	0.595613	-0.056405	0.595632
O12	O	0.595612	0.169184	0.595630
O13	O	0.666415	0.056381	0.524832
Zr14	Zr	0.706666	-0.120535	0.706689
Zr15	Zr	0.555356	0.120527	0.706683
Zr16	Zr	0.706669	-0.120544	0.555382
Zr17	Zr	0.706668	0.120509	0.555380
Zr18	Zr	0.555357	-0.120525	0.706685
O19	O	0.798718	-0.075587	0.678473
O20	O	0.583575	0.267172	0.678464
O21	O	0.798722	-0.075599	0.463334
O22	O	0.678446	-0.267177	0.798739
O23	O	0.463303	0.075583	0.798731
O24	O	0.678450	-0.267189	0.583601
O25	O	0.583574	0.075575	0.798734
O26	O	0.798719	-0.267192	0.678474
O27	O	0.798721	-0.267197	0.583604
O28	O	0.678445	-0.075573	0.798738
O29	O	0.678448	0.267161	0.583597
O30	O	0.583577	-0.267177	0.678468
O31	O	0.583575	-0.267170	0.798737
O32	O	0.463304	-0.075558	0.798732
O33	O	0.798722	0.075541	0.463333
O34	O	0.798719	0.075548	0.583602
O35	O	0.666413	-0.169201	0.666435
O36	O	0.595610	-0.056397	0.737232
O37	O	0.666413	0.056389	0.666433
O38	O	0.737216	-0.056415	0.595636
C39	C	0.441748	0.000005	0.631027
C40	C	0.377514	0.000009	0.631025
C41	C	0.631014	-0.301528	0.631035
C42	C	0.631014	-0.403861	0.631036
C43	C	0.310382	0.058896	0.667976
C44	C	0.250027	0.058886	0.667983
C45	C	0.256807	0.000006	0.631025
C46	C	0.323951	-0.058893	0.594073
C47	C	0.384304	-0.058892	0.594073
C48	C	0.189505	0.008406	0.569121
C49	C	0.129151	0.008413	0.569119
C50	C	0.070660	-0.000005	0.631026
C51	C	0.072522	-0.008407	0.692935
C52	C	0.132875	-0.008405	0.692935
C53	C	0.191369	-0.000003	0.631022
C54	C	-0.061919	0.058874	0.667988
C55	C	-0.122273	0.058857	0.667996
C56	C	-0.048347	-0.058915	0.594080
C57	C	0.012006	-0.058906	0.594078
C58	C	0.005215	-0.000005	0.631030
C59	C	0.667968	-0.510815	0.667995
C60	C	0.667969	-0.606964	0.667991
C61	C	0.594056	-0.489190	0.594065
C62	C	0.594060	-0.393044	0.594066
C63	C	0.710639	-0.578812	0.710679
C64	C	0.710640	-0.674960	0.710674
C65	C	0.820277	-0.000021	0.631038
C66	C	0.884512	-0.000025	0.631039
C67	C	0.631016	-0.000019	0.441771
C68	C	0.631018	-0.000022	0.377537
C69	C	0.631012	0.301511	0.631030
C70	C	0.631011	0.403844	0.631029
C71	C	0.594055	-0.058884	0.384319
C72	C	0.594057	-0.058889	0.323964
C73	C	0.631012	-0.000010	0.256829
C74	C	0.667983	0.058855	0.250050
C75	C	0.667985	0.058849	0.310404
C76	C	0.625730	0.098622	0.132899
C77	C	0.625722	0.098631	0.072548
C78	C	0.631007	0.000008	0.070675
C79	C	0.636286	-0.098624	0.129168
C80	C	0.636288	-0.098630	0.189523
C81	C	0.631013	0.000003	0.191381
C82	C	0.594044	-0.058865	0.012016
C83	C	0.594051	-0.058873	-0.048341
C84	C	0.667973	0.058883	-0.122255
C85	C	0.667970	0.058880	-0.061898
C86	C	0.631002	0.000008	0.005235
C87	C	0.631009	0.000002	0.820294
C88	C	0.631008	0.000006	0.884527
C89	C	0.441747	0.301524	0.631025
C90	C	0.377512	0.403862	0.631022
C91	C	0.441745	0.000015	0.820289
C92	C	0.377509	0.000023	0.884521
C93	C	0.631010	-0.301517	0.820296
C94	C	0.631009	-0.403847	0.884531
C95	C	0.631015	0.301501	0.441769
C96	C	0.631016	0.403830	0.377534
C97	C	0.820281	-0.000032	0.441776
C98	C	0.884517	-0.000040	0.377544
C99	C	0.820278	-0.301541	0.631040
C100	C	0.884513	-0.403878	0.631042
C101	C	0.384305	0.510804	0.594065
C102	C	0.323955	0.606970	0.594065
C103	C	0.256814	0.596191	0.631020
C104	C	0.250022	0.489238	0.667982
C105	C	0.310371	0.393074	0.667985
C106	C	0.310380	0.058915	0.877726
C107	C	0.250017	0.058945	0.938073
C108	C	0.256786	0.000076	1.005214
C109	C	0.323922	-0.058818	1.012007
C110	C	0.384283	-0.058841	0.951661
C111	C	0.594050	-0.393019	0.951658
C112	C	0.594052	-0.489159	1.012018
C113	C	0.631009	-0.596126	1.005251
C114	C	0.667972	-0.606951	0.938116
C115	C	0.667974	-0.510812	0.877757
C116	C	0.667983	0.393003	0.310407
C117	C	0.668000	0.489143	0.250046
C118	C	0.631046	0.596109	0.256814
C119	C	0.594078	0.606935	0.323948
C120	C	0.594066	0.510795	0.384308
C121	C	0.951646	-0.058921	0.384339
C122	C	1.012008	-0.058925	0.323992
C123	C	1.005239	-0.000052	0.256851
C124	C	0.938103	0.058837	0.250058
C125	C	0.877742	0.058846	0.310404
C126	C	0.951643	-0.393064	0.594081
C127	C	1.012004	-0.489211	0.594069
C128	C	1.005234	-0.596172	0.631023
C129	C	0.938097	-0.606984	0.667986
C130	C	0.877737	-0.510838	0.667993
H131	H	0.304849	0.106853	0.698067
H132	H	0.823079	-0.519659	0.698096
F133	F	0.641904	-0.203592	0.127186
F134	F	0.455757	0.522300	0.554735
H135	H	0.207679	0.674503	0.631012
H136	H	0.195358	0.106840	0.698074
H137	H	0.682477	-0.570078	0.765318
F138	F	0.134858	-0.017351	0.758821
H139	H	0.767152	-0.578835	0.686943
H140	H	-0.067449	0.106831	0.698079
H141	H	0.631001	-0.674399	1.054405
F142	F	0.707328	0.121501	0.303184
H143	H	0.438940	-0.106804	0.957203
H144	H	0.563976	-0.305959	0.563961
F145	F	0.554716	-0.279187	0.958877
H146	H	0.563950	-0.480325	1.066677
H147	H	1.066667	-0.106884	0.329537
H148	H	0.563970	-0.480397	0.563965
H149	H	0.698062	-0.694056	0.932616
H150	H	1.054395	-0.000069	0.207719
H151	H	0.698064	0.106820	-0.067423
H152	H	0.765285	-0.725889	0.682520
H153	H	-0.176937	0.106805	0.698090
F154	F	0.331115	-0.121470	1.083469
F155	F	-0.041126	-0.121580	0.554746
F156	F	0.010273	-0.017361	0.758826
H157	H	0.563960	0.519625	0.438964
H158	H	0.932602	0.106769	0.195384
H159	H	0.621421	0.178944	0.024927
H160	H	0.304831	0.306001	0.698078
H161	H	0.823085	0.106792	0.304862
F162	F	0.178573	0.121627	0.930828
F163	F	0.679624	-0.743202	0.784535
H164	H	0.329499	0.694046	0.563964
H165	H	1.066664	-0.480386	0.563969
F166	F	0.554712	-0.121537	0.331179
H167	H	0.957169	-0.305979	0.563987
H168	H	0.621438	0.178934	0.134409
H169	H	0.563948	-0.106815	0.438978
F170	F	0.178559	0.477784	0.707305
F171	F	0.641910	-0.203600	0.251771
F172	F	0.707315	0.279170	0.303188
H173	H	1.054389	-0.674452	0.631011
H174	H	0.304855	0.106867	0.823062
H175	H	0.698069	-0.519643	0.823102
F176	F	0.554704	-0.121525	0.083466
H177	H	0.207631	0.000103	1.054346
F178	F	0.707345	0.477599	0.178604
H179	H	0.563954	-0.106813	-0.042813
F180	F	0.707308	0.121540	-0.193702
H181	H	0.631061	0.674383	0.207660
F182	F	0.930903	-0.720829	0.707314
H183	H	0.698072	0.106795	0.195384
F184	F	0.554750	0.720785	0.331140
H185	H	0.438968	-0.106844	0.563981
H186	H	0.066669	-0.106853	0.563985
F187	F	0.127173	0.017360	0.503230
H188	H	0.237123	0.015284	0.518702
F189	F	0.331167	-0.121566	0.554745
H190	H	0.957171	-0.106870	0.439003
