data_functionalizedCrystal
_audit_creation_method	'MofGen! by Chris Wilmer'
_symmetry_space_group_name_H-M	'P1'
_symmetry_Int_Tables_number	1
_symmetry_cell_setting	triclinic
loop_
_symmetry_equiv_pos_as_xyz
  x,y,z
_cell_length_a	27.732048
_cell_length_b	17.038272
_cell_length_c	16.098524
_cell_angle_alpha	87.129416
_cell_angle_beta	93.089673
_cell_angle_gamma	93.122894
loop_
_atom_site_label
_atom_site_type_symbol
_atom_site_fract_x
_atom_site_fract_y
_atom_site_fract_z
O1	O	0.106966	-1.039236	0.069169
O2	O	0.105301	-0.811626	0.069193
O3	O	0.036060	-0.932499	0.069164
O4	O	0.176207	-0.918362	0.069197
O5	O	0.031944	-0.926297	-0.069350
O6	O	0.101185	-0.805423	-0.069321
O7	O	0.102850	-1.033033	-0.069345
Zn8	Zn	0.101364	-0.918243	-0.091325
Zn9	Zn	0.106787	-0.926416	0.091173
O10	O	0.172091	-0.912160	-0.069316
C11	C	0.101728	-0.779414	-0.000061
C12	C	0.097208	-0.692674	-0.000053
C13	C	0.015981	-0.929101	-0.000095
C14	C	-0.037715	-0.928207	-0.000102
N15	N	0.097663	-0.912672	-0.215875
C16	C	-0.373519	-0.994012	-0.000066
C17	C	-0.575330	-0.990697	-0.000054
O18	O	-0.603832	-1.050870	-0.000024
N19	N	-0.597732	-0.919023	-0.000047
C20	C	-0.569678	-0.848174	-0.000038
O21	O	-0.593362	-0.787135	-0.000023
C22	C	-0.367868	-0.851490	-0.000044
C23	C	-0.345469	-0.923168	-0.000059
C24	C	-0.351120	-1.065684	-0.000080
C25	C	-0.300670	-1.066511	-0.000088
C26	C	-0.272620	-0.995667	-0.000081
C27	C	-0.295019	-0.923995	-0.000067
C28	C	-0.339814	-0.780642	-0.000029
C29	C	-0.289359	-0.781477	-0.000028
C30	C	-0.266960	-0.853155	-0.000043
C31	C	-0.216519	-0.853979	-0.000067
N32	N	-0.194117	-0.925653	-0.000074
C33	C	-0.222167	-0.996497	-0.000081
C34	C	-0.675631	-0.846438	-0.000036
C35	C	-0.726084	-0.845608	-0.000036
C36	C	-0.731732	-0.988132	-0.000051
C37	C	-0.681279	-0.988960	-0.000057
C38	C	-0.653229	-0.918111	-0.000043
C39	C	-0.116219	-0.998230	-0.000098
C40	C	-0.065765	-0.999051	-0.000109
C41	C	-0.060121	-0.856529	-0.000090
C42	C	-0.110571	-0.855706	-0.000083
C43	C	-0.138619	-0.926564	-0.000084
O44	O	-0.187987	-0.793838	-0.000088
O45	O	-0.198473	-1.057527	-0.000077
C46	C	-0.423969	-0.993184	-0.000059
C47	C	-0.446368	-0.921512	-0.000044
C48	C	-0.418318	-0.850668	-0.000037
C49	C	-0.496820	-0.920683	-0.000044
C50	C	-0.524871	-0.991527	-0.000051
C51	C	-0.502468	-1.063200	-0.000058
C52	C	-0.452019	-1.064028	-0.000065
C53	C	-0.440720	-0.778994	-0.000030
C54	C	-0.491169	-0.778172	-0.000024
C55	C	-0.519220	-0.849016	-0.000031
C56	C	0.192170	-0.915558	-0.000055
C57	C	0.245866	-0.916452	-0.000043
C58	C	0.106423	-1.065245	-0.000089
C59	C	0.110944	-1.151985	-0.000092
C60	C	0.138711	-0.642077	-0.000043
C61	C	0.134460	-0.560575	-0.000056
C62	C	0.088706	-0.529673	-0.000072
C63	C	0.047200	-0.580277	-0.000083
C64	C	0.051451	-0.661777	-0.000077
C65	C	0.073688	-0.284089	-0.000098
C66	C	0.069440	-0.202583	-0.000102
C67	C	0.156701	-0.182887	-0.000076
C68	C	0.160948	-0.264389	-0.000064
C69	C	0.119442	-0.314985	-0.000080
C70	C	0.084360	-0.446366	-0.000082
C71	C	0.123788	-0.398291	-0.000076
C72	C	0.127637	-0.957762	-0.259455
C73	C	0.125046	-0.953875	-0.346644
C74	C	0.092482	-0.904893	-0.390252
C75	C	0.062504	-0.859802	-0.346666
C76	C	0.065094	-0.863693	-0.259479
C77	C	0.083096	-0.890794	-0.653504
C78	C	0.080510	-0.886904	-0.740698
C79	C	0.143051	-0.980978	-0.740669
C80	C	0.145640	-0.984862	-0.653480
C81	C	0.115661	-0.939774	-0.609902
C82	C	0.089833	-0.900917	-0.479374
C83	C	0.118307	-0.943754	-0.520782
N84	N	0.110484	-0.931993	0.215723
H85	H	-0.047531	-1.057422	-0.000123
H86	H	-0.744317	-0.787240	-0.000038
H87	H	0.149453	-0.990593	-0.382123
H88	H	0.168256	-0.519381	-0.000048
H89	H	0.053993	-0.847013	-0.776201
H90	H	0.058685	-0.854080	-0.618033
H91	H	-0.663045	-1.047326	-0.000069
H92	H	-0.417886	-0.721303	-0.000023
H93	H	0.035988	-0.819924	-0.382179
H94	H	-0.266523	-0.723782	-0.000016
H95	H	-0.282437	-1.124879	-0.000097
H96	H	0.175968	-0.667230	-0.000030
H97	H	-0.525316	-1.120884	-0.000067
H98	H	-0.373953	-1.123377	-0.000083
H99	H	0.032180	-0.177426	-0.000114
H100	H	0.040686	-0.826976	-0.223997
H101	H	0.144819	-0.983638	-0.485272
H102	H	-0.754579	-1.045815	-0.000057
H103	H	0.063320	-0.861036	-0.514889
H104	H	-0.139050	-1.055929	-0.000095
H105	H	0.009946	-0.555110	-0.000108
H106	H	-0.652797	-0.788741	-0.000025
H107	H	0.198206	-0.289543	-0.000042
H108	H	-0.358042	-0.722274	-0.000011
H109	H	0.190493	-0.141682	-0.000064
H110	H	-0.128810	-0.797340	-0.000094
H111	H	-0.037273	-0.798849	-0.000087
H112	H	0.154157	-0.997643	-0.223955
H113	H	0.039891	-0.325275	-0.000111
H114	H	0.047106	-0.421195	-0.000118
H115	H	-0.433786	-1.122395	-0.000078
H116	H	-0.509402	-0.719799	-0.000019
H117	H	0.017654	-0.702973	-0.000084
H118	H	0.161040	-0.423455	-0.000068
H119	H	0.172155	-1.024750	-0.617980
H120	H	0.167458	-1.017687	-0.776160
