data_functionalizedCrystal
_audit_creation_method	'MofGen! by Chris Wilmer'
_symmetry_space_group_name_H-M	'P1'
_symmetry_Int_Tables_number	1
_symmetry_cell_setting	triclinic
loop_
_symmetry_equiv_pos_as_xyz
  x,y,z
_cell_length_a	17.077404
_cell_length_b	19.121449
_cell_length_c	17.077396
_cell_angle_alpha	92.468915
_cell_angle_beta	90.021444
_cell_angle_gamma	87.583306
loop_
_atom_site_label
_atom_site_type_symbol
_atom_site_fract_x
_atom_site_fract_y
_atom_site_fract_z
Zn1	Zn	1.213368	-0.279643	0.430556
Zn2	Zn	1.463368	-0.029643	0.680556
Zn3	Zn	1.713368	0.220357	0.930556
Zn4	Zn	1.963368	0.470357	1.180556
Zn5	Zn	1.218867	-0.397098	0.293692
Zn6	Zn	1.468867	-0.147098	0.543692
Zn7	Zn	1.718867	0.102902	0.793692
Zn8	Zn	1.968867	0.352902	1.043692
Zn9	Zn	1.082101	-0.279663	0.299298
Zn10	Zn	1.332101	-0.029663	0.549298
Zn11	Zn	1.582101	0.220337	0.799298
Zn12	Zn	1.832101	0.470337	1.049298
Zn13	Zn	1.087657	-0.397052	0.424913
Zn14	Zn	1.337657	-0.147052	0.674913
Zn15	Zn	1.587657	0.102948	0.924913
Zn16	Zn	1.837657	0.352948	1.174913
O17	O	1.150498	-0.338364	0.362115
O18	O	1.400498	-0.088364	0.612115
O19	O	1.650498	0.161636	0.862115
O20	O	1.900498	0.411636	1.112115
O21	O	1.323945	-0.295234	0.412415
O22	O	1.573945	-0.045234	0.662415
O23	O	1.823945	0.204766	0.912415
O24	O	2.073945	0.454766	1.162415
O25	O	1.200700	-0.381548	0.184587
O26	O	1.450700	-0.131548	0.434587
O27	O	1.700700	0.118452	0.684587
O28	O	1.950700	0.368452	0.934587
O29	O	1.094887	-0.181377	0.321417
O30	O	1.344887	0.068623	0.571417
O31	O	1.594887	0.318623	0.821417
O32	O	1.844887	0.568623	1.071417
O33	O	1.327985	-0.381528	0.311862
O34	O	1.577985	-0.131528	0.561862
O35	O	1.827985	0.118472	0.811862
O36	O	2.077985	0.368472	1.061862
O37	O	1.191328	-0.181362	0.417852
O38	O	1.441328	0.068638	0.667852
O39	O	1.691328	0.318638	0.917852
O40	O	1.941328	0.568638	1.167852
O41	O	1.100219	-0.295269	0.188706
O42	O	1.350219	-0.045269	0.438706
O43	O	1.600219	0.204731	0.688706
O44	O	1.850219	0.454731	0.938706
O45	O	0.972990	-0.295225	0.315946
O46	O	1.222990	-0.045225	0.565946
O47	O	1.472990	0.204775	0.815946
O48	O	1.722990	0.454775	1.065946
O49	O	1.104357	-0.381450	0.535510
O50	O	1.354357	-0.131450	0.785510
O51	O	1.604357	0.118550	1.035510
O52	O	1.854357	0.368550	1.285510
O53	O	0.977073	-0.381470	0.408235
O54	O	1.227073	-0.131470	0.658235
O55	O	1.477073	0.118530	0.908235
O56	O	1.727073	0.368530	1.158235
O57	O	1.196716	-0.295190	0.539655
O58	O	1.446716	-0.045190	0.789655
O59	O	1.696716	0.204810	1.039655
O60	O	1.946716	0.454810	1.289655
O61	O	1.206088	-0.495375	0.306391
O62	O	1.456088	-0.245375	0.556391
O63	O	1.706088	0.004625	0.806391
O64	O	1.956088	0.254625	1.056391
O65	O	1.109689	-0.495341	0.402798
O66	O	1.359689	-0.245341	0.652798
O67	O	1.609689	0.004659	0.902798
O68	O	1.859689	0.254659	1.152798
C69	C	0.946549	-0.338345	0.362087
C70	C	1.196549	-0.088345	0.612087
C71	C	1.446549	0.161655	0.862087
C72	C	1.696549	0.411655	1.112087
C73	C	0.859300	-0.338354	0.362093
C74	C	1.109300	-0.088354	0.612093
C75	C	1.359300	0.161646	0.862093
C76	C	1.609300	0.411646	1.112093
C77	C	0.481384	-0.293531	0.414577
C78	C	0.731384	-0.043531	0.664577
C79	C	0.981384	0.206469	0.914577
C80	C	1.231384	0.456469	1.164577
C81	C	0.563365	-0.293526	0.414568
C82	C	0.813365	-0.043526	0.664568
C83	C	1.063365	0.206474	0.914568
C84	C	1.313365	0.456474	1.164568
C85	C	0.606452	-0.338379	0.362134
C86	C	0.856452	-0.088379	0.612134
C87	C	1.106452	0.161621	0.862134
C88	C	1.356452	0.411621	1.112134
C89	C	0.567556	-0.383245	0.309709
C90	C	0.817556	-0.133245	0.559709
C91	C	1.067556	0.116755	0.809709
C92	C	1.317556	0.366755	1.059709
C93	C	0.485578	-0.383253	0.309722
C94	C	0.735578	-0.133253	0.559722
C95	C	0.985578	0.116747	0.809722
C96	C	1.235578	0.366747	1.059722
C97	C	0.738425	-0.383224	0.309685
C98	C	0.988425	-0.133224	0.559685
C99	C	1.238425	0.116776	0.809685
C100	C	1.488425	0.366776	1.059685
C101	C	0.820409	-0.383215	0.309671
C102	C	1.070409	-0.133215	0.559671
C103	C	1.320409	0.116785	0.809671
C104	C	1.570409	0.366785	1.059671
C105	C	0.816212	-0.293497	0.414531
C106	C	1.066212	-0.043497	0.664531
C107	C	1.316212	0.206503	0.914531
C108	C	1.566212	0.456503	1.164531
C109	C	0.734234	-0.293505	0.414544
C110	C	0.984234	-0.043505	0.664544
C111	C	1.234234	0.206495	0.914544
C112	C	1.484234	0.456495	1.164544
C113	C	0.695343	-0.338370	0.362119
C114	C	0.945343	-0.088370	0.612119
C115	C	1.195343	0.161630	0.862119
C116	C	1.445343	0.411630	1.112119
C117	C	1.159110	-0.520842	0.353391
C118	C	1.409110	-0.270842	0.603391
C119	C	1.659110	-0.020842	0.853391
C120	C	1.909110	0.229158	1.103391
C121	C	1.162866	-0.598907	0.349685
C122	C	1.412866	-0.348907	0.599685
C123	C	1.662866	-0.098907	0.849685
C124	C	1.912866	0.151093	1.099685
C125	C	1.114406	-0.635590	0.398097
C126	C	1.364406	-0.385590	0.648097
C127	C	1.614406	-0.135590	0.898097
C128	C	1.864406	0.114410	1.148097
C129	C	1.117939	-0.708940	0.394612
C130	C	1.367939	-0.458940	0.644612
C131	C	1.617939	-0.208940	0.894612
C132	C	1.867939	0.041060	1.144612
C133	C	1.169935	-0.745606	0.342718
C134	C	1.419935	-0.495606	0.592718
C135	C	1.669935	-0.245606	0.842718
C136	C	1.919935	0.004394	1.092718
C137	C	1.218397	-0.708918	0.294301
C138	C	1.468397	-0.458918	0.544301
C139	C	1.718397	-0.208918	0.794301
C140	C	1.968397	0.041082	1.044301
C141	C	1.214860	-0.635569	0.297783
C142	C	1.464860	-0.385569	0.547783
C143	C	1.714860	-0.135569	0.797783
C144	C	1.964860	0.114431	1.047783
C145	C	1.183124	-0.967072	0.329693
C146	C	1.433124	-0.717072	0.579693
C147	C	1.683124	-0.467072	0.829693
C148	C	1.933124	-0.217072	1.079693
C149	C	1.186659	-1.040426	0.326217
C150	C	1.436659	-0.790426	0.576217
C151	C	1.686659	-0.540426	0.826217
C152	C	1.936659	-0.290426	1.076217
C153	C	1.086199	-1.040443	0.426527
C154	C	1.336199	-0.790443	0.676527
C155	C	1.586199	-0.540443	0.926527
C156	C	1.836199	-0.290443	1.176527
C157	C	1.082670	-0.967093	0.430007
C158	C	1.332670	-0.717093	0.680007
C159	C	1.582670	-0.467093	0.930007
C160	C	1.832670	-0.217093	1.180007
C161	C	1.131129	-0.930411	0.381587
C162	C	1.381129	-0.680411	0.631587
C163	C	1.631129	-0.430411	0.881587
C164	C	1.881129	-0.180411	1.131587
C165	C	1.173549	-0.820582	0.339157
C166	C	1.423549	-0.570582	0.589157
C167	C	1.673549	-0.320582	0.839157
C168	C	1.923549	-0.070582	1.089157
C169	C	1.127511	-0.855437	0.385146
C170	C	1.377511	-0.605437	0.635146
C171	C	1.627511	-0.355437	0.885146
C172	C	1.877511	-0.105437	1.135146
C173	C	1.355243	-0.338384	0.362143
C174	C	1.605243	-0.088384	0.612143
C175	C	1.855243	0.161616	0.862143
C176	C	2.105243	0.411616	1.112143
C177	C	1.442494	-0.338392	0.362155
C178	C	1.692494	-0.088392	0.612155
C179	C	1.942494	0.161608	0.862155
C180	C	2.192494	0.411608	1.112155
C181	C	1.150543	-0.338312	0.566861
C182	C	1.400543	-0.088312	0.816861
C183	C	1.650543	0.161688	1.066861
C184	C	1.900543	0.411688	1.316861
C185	C	1.150562	-0.338290	0.654112
C186	C	1.400562	-0.088290	0.904112
C187	C	1.650562	0.161710	1.154112
C188	C	1.900562	0.411710	1.404112
C189	C	1.141874	-0.155174	0.370889
C190	C	1.391874	0.094826	0.620889
C191	C	1.641874	0.344826	0.870889
C192	C	1.891874	0.594826	1.120889
C193	C	1.138199	-0.077109	0.374629
C194	C	1.388199	0.172891	0.624629
C195	C	1.638199	0.422891	0.874629
C196	C	1.888199	0.672891	1.124629
C197	C	1.150496	-0.338365	0.158167
C198	C	1.400496	-0.088365	0.408167
C199	C	1.650496	0.161635	0.658167
C200	C	1.900496	0.411635	0.908167
C201	C	1.150620	-0.338189	0.070926
C202	C	1.400620	-0.088189	0.320926
C203	C	1.650620	0.161811	0.570926
C204	C	1.900620	0.411811	0.820926
C205	C	1.198655	-0.293371	0.697263
C206	C	1.448655	-0.043371	0.947263
C207	C	1.698655	0.206629	1.197263
C208	C	1.948655	0.456629	1.447263
C209	C	1.198664	-0.293347	0.779244
C210	C	1.448664	-0.043347	1.029244
C211	C	1.698664	0.206653	1.279244
C212	C	1.948664	0.456653	1.529244
C213	C	1.150583	-0.338248	0.818074
C214	C	1.400583	-0.088248	1.068074
C215	C	1.650583	0.161752	1.318074
C216	C	1.900583	0.411752	1.568074
C217	C	1.102484	-0.383169	0.774918
C218	C	1.352484	-0.133169	1.024918
C219	C	1.602484	0.116831	1.274918
C220	C	1.852484	0.366831	1.524918
C221	C	1.102472	-0.383188	0.692938
C222	C	1.352472	-0.133188	0.942938
C223	C	1.602472	0.116812	1.192938
C224	C	1.852472	0.366812	1.442938
C225	C	1.102514	-0.383127	0.945790
C226	C	1.352514	-0.133127	1.195790
C227	C	1.602514	0.116873	1.445790
C228	C	1.852514	0.366873	1.695790
C229	C	1.102527	-0.383109	1.027776
C230	C	1.352527	-0.133109	1.277776
C231	C	1.602527	0.116891	1.527776
C232	C	1.852527	0.366891	1.777776
C233	C	1.198705	-0.293286	1.032096
C234	C	1.448705	-0.043286	1.282096
C235	C	1.698705	0.206714	1.532096
C236	C	1.948705	0.456714	1.782096
C237	C	1.198693	-0.293305	0.950116
C238	C	1.448693	-0.043305	1.200116
C239	C	1.698693	0.206695	1.450116
C240	C	1.948693	0.456695	1.700116
C241	C	1.150596	-0.338228	0.906966
C242	C	1.400596	-0.088228	1.156966
C243	C	1.650596	0.161772	1.406966
C244	C	1.900596	0.411772	1.656966
H245	H	0.595026	-0.256998	0.457258
H246	H	0.845026	-0.006998	0.707258
H247	H	1.095026	0.243002	0.957258
H248	H	1.345026	0.493002	1.207258
H249	H	1.237850	-0.256747	0.918503
H250	H	1.487850	-0.006747	1.168503
H251	H	1.737850	0.243253	1.418503
H252	H	1.987850	0.493253	1.668503
H253	H	1.237828	-0.256771	0.814374
H254	H	1.487828	-0.006771	1.064374
H255	H	1.737828	0.243229	1.314374
H256	H	1.987828	0.493229	1.564374
F257	F	1.072172	-0.816413	0.440371
F258	F	1.322172	-0.566413	0.690371
F259	F	1.572172	-0.316413	0.940371
F260	F	1.822172	-0.066413	1.190371
H261	H	0.446308	-0.257002	0.457271
H262	H	0.696308	-0.007002	0.707271
H263	H	0.946308	0.242998	0.957271
H264	H	1.196308	0.492998	1.207271
H265	H	1.237867	-0.256707	1.067233
H266	H	1.487867	-0.006707	1.317233
H267	H	1.737867	0.243293	1.567233
H268	H	1.987867	0.493293	1.817233
H269	H	1.063373	-0.419669	1.059388
H270	H	1.313373	-0.169669	1.309388
H271	H	1.563373	0.080331	1.559388
H272	H	1.813373	0.330331	1.809388
H273	H	0.602645	-0.419768	0.267019
H274	H	0.852645	-0.169768	0.517019
H275	H	1.102645	0.080232	0.767019
H276	H	1.352645	0.330232	1.017019
H277	H	1.215885	-0.850443	0.296905
H278	H	1.465885	-0.600443	0.546905
H279	H	1.715885	-0.350443	0.796905
H280	H	1.965885	-0.100443	1.046905
F281	F	1.051321	-0.430937	0.899868
F282	F	1.301321	-0.180937	1.149868
F283	F	1.551321	0.069063	1.399868
F284	F	1.801321	0.319063	1.649868
F285	F	1.051309	-0.430953	0.816246
F286	F	1.301309	-0.180953	1.066246
F287	F	1.551309	0.069047	1.316246
F288	F	1.801309	0.319047	1.566246
H289	H	1.046746	-1.070317	0.465947
H290	H	1.296746	-0.820317	0.715947
H291	H	1.546746	-0.570317	0.965947
H292	H	1.796746	-0.320317	1.215947
F293	F	1.051283	-0.430996	0.647015
F294	F	1.301283	-0.180996	0.897015
F295	F	1.551283	0.069004	1.147015
F296	F	1.801283	0.319004	1.397015
H297	H	0.699153	-0.256978	0.457238
H298	H	0.949153	-0.006978	0.707238
H299	H	1.199153	0.243022	0.957238
H300	H	1.449153	0.493022	1.207238
H301	H	0.706763	-0.419761	0.266998
H302	H	0.956763	-0.169761	0.516998
H303	H	1.206763	0.080239	0.766998
H304	H	1.456763	0.330239	1.016998
H305	H	1.040331	-0.937241	0.472263
H306	H	1.290331	-0.687241	0.722263
H307	H	1.540331	-0.437241	0.972263
H308	H	1.790331	-0.187241	1.222263
F309	F	1.242003	-1.079447	0.270982
F310	F	1.492003	-0.829447	0.520982
F311	F	1.742003	-0.579447	0.770982
F312	F	1.992003	-0.329447	1.020982
F313	F	0.444188	-0.431005	0.253932
F314	F	0.694188	-0.181005	0.503932
F315	F	0.944188	0.068995	0.753932
F316	F	1.194188	0.318995	1.003932
H317	H	1.222582	-0.937211	0.290269
H318	H	1.472582	-0.687211	0.540269
H319	H	1.722582	-0.437211	0.790269
H320	H	1.972582	-0.187211	1.040269
H321	H	1.072069	-0.605741	0.440358
H322	H	1.322069	-0.355741	0.690358
H323	H	1.572069	-0.105741	0.940358
H324	H	1.822069	0.144259	1.190358
F325	F	0.866266	-0.430968	0.253881
F326	F	1.116266	-0.180968	0.503881
F327	F	1.366266	0.069032	0.753881
F328	F	1.616266	0.319032	1.003881
F329	F	0.857603	-0.245744	0.470324
F330	F	1.107603	0.004256	0.720324
F331	F	1.357603	0.254256	0.970324
F332	F	1.607603	0.504256	1.220324
F333	F	1.066368	-0.747978	0.446145
F334	F	1.316368	-0.497978	0.696145
F335	F	1.566368	-0.247978	0.946145
F336	F	1.816368	0.002022	1.196145
H337	H	1.260730	-0.738777	0.252045
H338	H	1.510730	-0.488777	0.502045
H339	H	1.760730	-0.238777	0.752045
H340	H	2.010730	0.011223	1.002045
H341	H	1.254320	-0.605702	0.258360
H342	H	1.504320	-0.355702	0.508360
H343	H	1.754320	-0.105702	0.758360
H344	H	2.004320	0.144298	1.008360
F345	F	1.249835	-0.245585	0.655944
F346	F	1.499835	0.004415	0.905944
F347	F	1.749835	0.254415	1.155944
F348	F	1.999835	0.504415	1.405944
