data_functionalizedCrystal
_audit_creation_method	'MofGen! by Chris Wilmer'
_symmetry_space_group_name_H-M	'P1'
_symmetry_Int_Tables_number	1
_symmetry_cell_setting	triclinic
loop_
_symmetry_equiv_pos_as_xyz
  x,y,z
_cell_length_a	14.044191
_cell_length_b	10.540510
_cell_length_c	12.503572
_cell_angle_alpha	86.439199
_cell_angle_beta	93.837835
_cell_angle_gamma	88.852544
loop_
_atom_site_label
_atom_site_type_symbol
_atom_site_fract_x
_atom_site_fract_y
_atom_site_fract_z
O1	O	1.265175	0.299581	0.089257
O2	O	1.765175	0.799581	0.589257
O3	O	0.989132	0.288519	0.089271
O4	O	1.489132	0.788519	0.589271
O5	O	1.133466	0.109979	0.089264
O6	O	1.633466	0.609979	0.589264
O7	O	1.120841	0.478120	0.089265
O8	O	1.620841	0.978120	0.589265
O9	O	1.122611	0.123431	-0.089378
O10	O	1.622611	0.623431	0.410622
O11	O	0.978277	0.301970	-0.089370
O12	O	1.478277	0.801970	0.410630
O13	O	1.254320	0.313032	-0.089384
O14	O	1.754320	0.813032	0.410616
Cu15	Cu	1.115308	0.308729	-0.105688
Cu16	Cu	1.615308	0.808729	0.394312
Cu17	Cu	1.128144	0.292821	0.105576
Cu18	Cu	1.628144	0.792821	0.605576
O19	O	1.109986	0.491572	-0.089376
O20	O	1.609986	0.991572	0.410624
C21	C	0.948358	0.290405	-0.000047
C22	C	1.448358	0.790405	0.499953
C23	C	0.843036	0.275972	-0.000042
C24	C	1.343036	0.775972	0.499958
C25	C	0.593257	0.351951	-0.000052
C26	C	1.093257	0.851951	0.499948
C27	C	0.650201	0.249605	-0.000051
C28	C	1.150201	0.749605	0.499949
C29	C	0.757504	0.264279	-0.000046
C30	C	1.257504	0.764279	0.499954
C31	C	0.485944	0.337279	-0.000057
C32	C	0.985944	0.837279	0.499943
C33	C	1.127098	0.069306	-0.000055
C34	C	1.627098	0.569306	0.499945
C35	C	1.124283	-0.071929	-0.000048
C36	C	1.624283	0.428071	0.499952
C37	C	1.224527	-0.279213	-0.000462
C38	C	1.724527	0.220787	0.499538
C39	C	1.227554	-0.132344	-0.000054
C40	C	1.727554	0.367656	0.499946
C41	C	1.077617	-0.129716	0.101965
C42	C	1.577617	0.370284	0.601965
C43	C	1.075351	-0.276712	0.102045
C44	C	1.575351	0.223288	0.602045
C45	C	1.060857	-0.261441	-0.101103
C46	C	1.560857	0.238559	0.398897
C47	C	1.065673	-0.114504	-0.102446
C48	C	1.565673	0.385496	0.397554
C49	C	1.295094	0.311145	-0.000063
C50	C	1.795094	0.811145	0.499937
C51	C	1.400417	0.325579	-0.000061
C52	C	1.900417	0.825579	0.499939
C53	C	1.116354	0.532245	-0.000055
C54	C	1.616354	1.032245	0.499945
C55	C	1.119169	0.673479	-0.000055
C56	C	1.619169	1.173479	0.499945
N57	N	1.106286	0.319918	-0.254280
N58	N	1.606286	0.819918	0.245720
C59	C	1.093014	0.336388	-0.473395
C60	C	1.593014	0.836388	0.026605
C61	C	1.150442	0.265157	-0.526725
C62	C	1.650442	0.765157	-0.026725
C63	C	1.143058	0.274321	-0.648648
C64	C	1.643058	0.774321	-0.148648
C65	C	1.100398	0.327226	-0.351461
C66	C	1.600398	0.827226	0.148539
N67	N	1.137174	0.281623	0.254168
N68	N	1.637174	0.781623	0.754168
H69	H	1.264474	-0.093311	-0.073180
H70	H	1.764474	0.406689	0.426820
H71	H	0.998391	-0.307867	0.106671
H72	H	1.498391	0.192133	0.606671
H73	H	0.618371	0.150958	0.000024
H74	H	1.118371	0.650958	0.500024
H75	H	1.205154	0.197293	-0.480815
H76	H	1.705154	0.697293	0.019185
H77	H	1.038307	0.404250	-0.519299
H78	H	1.538307	0.904250	-0.019299
H79	H	0.989904	-0.072598	-0.108602
H80	H	1.489904	0.427402	0.391398
H81	H	0.625090	0.450584	-0.000049
H82	H	1.125090	0.950584	0.499951
H83	H	1.260315	-0.311590	-0.073622
H84	H	1.760315	0.188410	0.426378
H85	H	1.268948	-0.324150	0.072279
H86	H	1.768948	0.175850	0.572279
H87	H	1.001822	-0.090301	0.105762
H88	H	1.501822	0.409699	0.605762
H89	H	1.273608	-0.105247	0.073195
H90	H	1.773608	0.394753	0.573195
H91	H	1.116112	-0.319016	0.178298
H92	H	1.616112	0.180984	0.678298
H93	H	0.983279	-0.291381	-0.101787
H94	H	1.483279	0.208619	0.398213
H95	H	1.118943	-0.100862	0.177880
H96	H	1.618943	0.399138	0.677880
H97	H	1.088976	-0.294482	-0.178429
H98	H	1.588976	0.205518	0.321571
H99	H	1.099554	-0.076319	-0.177915
H100	H	1.599554	0.423681	0.322085
