data_functionalizedCrystal
_audit_creation_method	'MofGen! by Chris Wilmer'
_symmetry_space_group_name_H-M	'P1'
_symmetry_Int_Tables_number	1
_symmetry_cell_setting	triclinic
loop_
_symmetry_equiv_pos_as_xyz
  x,y,z
_cell_length_a	23.532355
_cell_length_b	15.500228
_cell_length_c	17.019370
_cell_angle_alpha	91.039065
_cell_angle_beta	83.111524
_cell_angle_gamma	92.826992
loop_
_atom_site_label
_atom_site_type_symbol
_atom_site_fract_x
_atom_site_fract_y
_atom_site_fract_z
O1	O	-0.753209	0.064504	-0.098865
O2	O	-0.587424	0.063492	-0.112711
O3	O	-0.674628	0.072514	0.008645
O4	O	-0.666005	0.055482	-0.220220
O5	O	-0.679915	-0.070829	0.015987
O6	O	-0.592711	-0.079851	-0.105369
O7	O	-0.758495	-0.078839	-0.091522
Cu8	Cu	-0.676086	-0.092433	-0.097775
Cu9	Cu	-0.669834	0.077087	-0.106458
O10	O	-0.671291	-0.087860	-0.212878
C11	C	-0.568849	-0.008151	-0.108694
C12	C	-0.505623	-0.008067	-0.107654
C13	C	-0.229470	0.070400	-0.107105
C14	C	-0.288876	0.070329	-0.108090
O15	O	-0.317154	0.136744	-0.111976
N16	N	-0.321466	-0.007844	-0.104585
C17	C	-0.294649	-0.085951	-0.100087
O18	O	-0.327825	-0.152450	-0.097195
C19	C	-0.235245	-0.085879	-0.099096
C20	C	-0.202656	-0.007702	-0.102609
C21	C	-0.196882	0.148571	-0.110617
C22	C	-0.137480	0.148641	-0.109633
C23	C	-0.110666	0.070540	-0.105138
C24	C	-0.143255	-0.007632	-0.101626
C25	C	-0.208429	-0.163985	-0.094592
C26	C	-0.149021	-0.163907	-0.093601
C27	C	-0.116432	-0.085729	-0.097115
C28	C	-0.057039	-0.085663	-0.096147
N29	N	-0.024449	-0.007490	-0.099652
C30	C	-0.051262	0.070612	-0.104147
C31	C	-0.419402	-0.086096	-0.102166
C32	C	-0.478804	-0.086169	-0.103162
C33	C	-0.473027	0.070112	-0.111164
C34	C	-0.413623	0.070184	-0.110173
C35	C	-0.386811	-0.007923	-0.105671
C36	C	0.073486	0.070753	-0.102082
C37	C	0.132893	0.070816	-0.101101
C38	C	0.127110	-0.085464	-0.093096
C39	C	0.067708	-0.085528	-0.094081
C40	C	0.040898	-0.007412	-0.098571
O41	O	-0.028722	-0.152043	-0.092259
O42	O	-0.018081	0.137100	-0.107027
C43	C	-0.676840	0.003023	0.041590
C44	C	-0.675548	0.009520	0.128818
C45	C	0.222930	-0.007197	-0.095546
C46	C	0.159706	-0.007286	-0.096606
N47	N	-0.665436	0.196318	-0.112560
N48	N	-0.680487	-0.211664	-0.091667
C49	C	-0.702459	0.245410	-0.061235
C50	C	-0.699132	0.335640	-0.065848
C51	C	-0.658780	0.376776	-0.121782
C52	C	-0.621756	0.327677	-0.173112
C53	C	-0.625086	0.237449	-0.168503
C54	C	-0.646793	0.649009	-0.138387
C55	C	-0.643465	0.739244	-0.142992
C56	C	-0.720842	0.747200	-0.035728
C57	C	-0.724166	0.656970	-0.031120
C58	C	-0.687144	0.607879	-0.082453
C59	C	-0.655378	0.469006	-0.126497
C60	C	-0.690550	0.515651	-0.077741
C61	C	-0.669079	-0.018368	-0.245823
C62	C	-0.670371	-0.024859	-0.333052
C63	C	-0.677821	-0.065560	0.173807
C64	C	-0.676611	-0.059447	0.255767
C65	C	-0.673122	0.021746	0.292736
C66	C	-0.670851	0.096832	0.247741
C67	C	-0.672066	0.090718	0.165784
C68	C	-0.669314	0.044113	0.539996
C69	C	-0.668098	0.050221	0.621960
C70	C	-0.673859	-0.106059	0.629980
C71	C	-0.675070	-0.112165	0.548019
C72	C	-0.672801	-0.037079	0.503032
C73	C	-0.671883	0.027996	0.376512
C74	C	-0.674045	-0.043330	0.419259
H75	H	-0.387093	0.133843	-0.113034
H76	H	-0.669042	0.094104	0.406621
Cl77	Cl	-0.230579	0.246770	-0.116268
Cl78	Cl	0.160830	-0.183644	-0.087446
Cl79	Cl	-0.767499	0.808907	0.028637
Cl80	Cl	0.173858	0.169104	-0.105520
H81	H	-0.594939	0.197478	-0.210297
H82	H	-0.735315	0.211924	-0.015684
Cl83	Cl	-0.741278	0.463936	-0.007428
Cl84	Cl	-0.745675	0.397358	-0.001326
H85	H	0.051664	0.134362	-0.105740
Cl86	Cl	-0.666459	0.138507	0.483451
Cl87	Cl	-0.115319	-0.262104	-0.087937
Cl88	Cl	-0.519764	-0.184455	-0.098762
H89	H	-0.757024	0.623479	0.014426
H90	H	-0.610604	0.772732	-0.188543
H91	H	-0.494869	0.133706	-0.114824
H92	H	-0.665252	0.116341	0.652056
H93	H	-0.397575	-0.149704	-0.098510
H94	H	-0.616648	0.609046	-0.180183
H95	H	-0.675707	-0.167189	0.666617
H96	H	-0.622521	0.502506	-0.172039
H97	H	-0.678464	-0.120585	0.292394
H98	H	-0.234953	-0.227646	-0.091729
Cl99	Cl	-0.096521	0.246928	-0.114042
Cl100	Cl	-0.571030	0.379389	-0.243435
Cl101	Cl	-0.682204	-0.167637	0.127340
H102	H	0.041175	-0.149188	-0.091236
Cl103	Cl	-0.679440	-0.214241	0.501548
Cl104	Cl	-0.666473	0.198904	0.294218
Cl105	Cl	-0.669210	0.185109	0.109226
Cl106	Cl	-0.678432	-0.145398	0.372783
