data_functionalizedCrystal
_audit_creation_method	'MofGen! by Chris Wilmer'
_symmetry_space_group_name_H-M	'P1'
_symmetry_Int_Tables_number	1
_symmetry_cell_setting	triclinic
loop_
_symmetry_equiv_pos_as_xyz
  x,y,z
_cell_length_a	15.538191
_cell_length_b	14.519709
_cell_length_c	14.750779
_cell_angle_alpha	77.332886
_cell_angle_beta	97.572172
_cell_angle_gamma	65.476119
loop_
_atom_site_label
_atom_site_type_symbol
_atom_site_fract_x
_atom_site_fract_y
_atom_site_fract_z
O1	O	1.229003	-0.272518	-0.079831
O2	O	0.954923	-0.166092	-0.079833
O3	O	1.099232	-0.355991	-0.079824
O4	O	1.084694	-0.082619	-0.079841
O5	O	1.140026	-0.409668	0.079829
O6	O	0.995717	-0.219769	0.079820
O7	O	1.269797	-0.326196	0.079821
Zn8	Zn	1.139234	-0.281505	0.105169
Zn9	Zn	1.085486	-0.210782	-0.105181
O10	O	1.125488	-0.136297	0.079812
C11	C	0.940243	-0.181796	-0.000007
C12	C	0.835725	-0.148628	-0.000007
C13	C	0.547381	-0.478139	-0.000001
C14	C	0.449167	-0.446949	-0.000004
C15	C	0.427017	-0.271514	-0.000015
C16	C	0.525232	-0.302691	-0.000007
C17	C	0.585407	-0.406004	-0.000002
C18	C	0.563258	-0.230557	-0.000008
C19	C	0.661464	-0.261730	-0.000005
C20	C	0.721643	-0.365037	-0.000003
C21	C	0.683612	-0.437177	0.000001
C22	C	0.503080	-0.127242	-0.000020
C23	C	0.541106	-0.055108	-0.000021
C24	C	0.639315	-0.086282	-0.000012
C25	C	0.699494	-0.189590	-0.000009
C26	C	0.677346	-0.014142	-0.000015
C27	C	0.775551	-0.045315	-0.000013
C28	C	0.797700	-0.220763	-0.000006
C29	C	1.118952	-0.416961	0.000003
C30	C	1.116922	-0.518660	0.000004
C31	C	1.109444	-0.891034	-0.000021
C32	C	1.111521	-0.787427	-0.000014
C33	C	1.113183	-0.704851	-0.000008
C34	C	1.115260	-0.601236	-0.000003
C35	C	1.284476	-0.310491	-0.000007
C36	C	1.388993	-0.343656	-0.000013
C37	C	1.105768	-0.075325	-0.000017
C38	C	1.107796	0.026375	-0.000024
N39	N	1.175923	-0.329774	0.248727
N40	N	1.048805	-0.162523	-0.248739
C41	C	0.946338	-0.027755	0.600530
C42	C	0.972054	-0.061575	0.701031
C43	C	1.099866	-0.229693	0.701002
C44	C	1.074158	-0.195889	0.600499
C45	C	0.997394	-0.094918	0.550271
C46	C	1.125213	-0.263052	0.550240
C47	C	1.099510	-0.229248	0.449746
C48	C	1.022751	-0.128281	0.399511
C49	C	0.971690	-0.061114	0.449777
C50	C	1.201982	-0.364019	0.600470
C51	C	1.253037	-0.431183	0.550211
C52	C	1.227330	-0.397382	0.449715
C53	C	1.150571	-0.296415	0.399480
C54	C	1.278390	-0.464549	0.399449
C55	C	1.252687	-0.430745	0.298955
C56	C	1.124867	-0.262611	0.298986
H57	H	0.801605	-0.390412	-0.000014
C58	C	0.475764	0.057137	-0.000223
C59	C	0.471966	0.130097	-0.082372
C60	C	0.411775	0.233505	-0.082595
H61	H	0.501459	0.069500	0.055387
H62	H	0.411802	0.065432	-0.000278
H63	H	0.535915	0.121805	-0.082308
H64	H	0.446261	0.117767	-0.137996
H65	H	0.347813	0.241801	-0.082650
H66	H	0.437477	0.245858	-0.026981
H67	H	0.409183	0.283021	-0.138336
H68	H	0.846699	-0.304892	0.000004
C69	C	0.611999	0.098104	-0.000227
C70	C	0.608207	0.171056	-0.082379
C71	C	0.548010	0.274468	-0.082615
H72	H	0.637688	0.110477	0.055381
H73	H	0.548037	0.106399	-0.000286
H74	H	0.672156	0.162766	-0.082311
H75	H	0.582508	0.158719	-0.138000
H76	H	0.484048	0.282763	-0.082674
H77	H	0.573704	0.286830	-0.027003
H78	H	0.545421	0.323978	-0.138358
H79	H	1.001827	-0.100757	0.317682
H80	H	0.930472	-0.006872	0.741947
H81	H	0.806514	0.013421	-0.000004
C82	C	0.748785	-0.549378	-0.000042
C83	C	0.694463	-0.605879	-0.000062
C84	C	0.754463	-0.709230	-0.000117
H85	H	0.801800	-0.584036	0.055616
H86	H	0.773307	-0.546499	-0.055740
H87	H	0.669956	-0.608763	0.055631
H88	H	0.641451	-0.571254	-0.055715
H89	H	0.778985	-0.706351	-0.055816
H90	H	0.807475	-0.743877	0.055542
H91	H	0.717612	-0.747576	-0.000140
H92	H	0.596381	-0.562268	0.000009
H93	H	0.909175	0.021102	0.408880
H94	H	0.883822	0.054461	0.559633
C95	C	0.407777	-0.525161	-0.000196
C96	C	0.331073	-0.484784	-0.082346
C97	C	0.292928	-0.556806	-0.082565
H98	H	0.384071	-0.535414	0.055413
H99	H	0.457641	-0.591155	-0.000244
H100	H	0.281218	-0.418809	-0.082289
H101	H	0.354755	-0.474537	-0.137968
H102	H	0.342792	-0.622799	-0.082613
H103	H	0.269227	-0.567053	-0.026952
H104	H	0.240887	-0.529424	-0.138307
H105	H	1.062352	-0.180395	0.258089
H106	H	1.340899	-0.546756	0.440358
H107	H	1.162371	-0.311903	0.741909
H108	H	0.378009	-0.187395	-0.000023
H109	H	1.294263	-0.485437	0.258034
H110	H	0.423115	-0.101863	-0.000025
H111	H	1.222909	-0.391537	0.682299
H112	H	1.315542	-0.513393	0.591118
