data_functionalizedCrystal
_audit_creation_method	'MofGen! by Chris Wilmer'
_symmetry_space_group_name_H-M	'P1'
_symmetry_Int_Tables_number	1
_symmetry_cell_setting	triclinic
loop_
_symmetry_equiv_pos_as_xyz
  x,y,z
_cell_length_a	27.731993
_cell_length_b	27.732048
_cell_length_c	26.210047
_cell_angle_alpha	89.990787
_cell_angle_beta	89.994829
_cell_angle_gamma	82.631525
loop_
_atom_site_label
_atom_site_type_symbol
_atom_site_fract_x
_atom_site_fract_y
_atom_site_fract_z
O1	O	0.640953	0.057390	-0.042297
O2	O	0.974287	0.390723	0.291036
O3	O	1.307620	0.724057	0.624370
O4	O	0.500156	0.066163	-0.042329
O5	O	0.833489	0.399496	0.291004
O6	O	1.166823	0.732830	0.624338
O7	O	0.574927	-0.008621	-0.042302
O8	O	0.908261	0.324712	0.291031
O9	O	1.241594	0.658046	0.624364
O10	O	0.566182	0.132174	-0.042324
O11	O	0.899515	0.465507	0.291010
O12	O	1.232848	0.798841	0.624343
O13	O	0.574904	-0.008620	0.042556
O14	O	0.908237	0.324713	0.375889
O15	O	1.241570	0.658046	0.709222
O16	O	0.500132	0.066164	0.042529
O17	O	0.833465	0.399497	0.375862
O18	O	1.166799	0.732830	0.709196
O19	O	0.640929	0.057391	0.042561
O20	O	0.974263	0.390724	0.375894
O21	O	1.307596	0.724057	0.709228
Cu22	Cu	0.570529	0.061777	0.050293
Cu23	Cu	0.903862	0.395111	0.383626
Cu24	Cu	1.237195	0.728444	0.716960
Cu25	Cu	0.570557	0.061776	-0.050061
Cu26	Cu	0.903890	0.395110	0.283272
Cu27	Cu	1.237223	0.728443	0.616605
O28	O	0.566158	0.132175	0.042534
O29	O	0.899491	0.465508	0.375868
O30	O	1.232825	0.798841	0.709201
C31	C	0.482137	0.065983	0.000096
C32	C	0.815470	0.399317	0.333429
C33	C	1.148803	0.732650	0.666763
C34	C	0.428480	0.065441	0.000084
C35	C	0.761814	0.398774	0.333418
C36	C	1.095147	0.732108	0.666751
C37	C	0.045333	0.061510	-0.046147
C38	C	0.378666	0.394843	0.287187
C39	C	0.712000	0.728177	0.620520
C40	C	0.246991	0.063577	-0.046161
C41	C	0.580324	0.396910	0.287173
C42	C	0.913657	0.730244	0.620506
O43	O	0.273075	0.063825	-0.085501
O44	O	0.606408	0.397158	0.247833
O45	O	0.939741	0.730491	0.581166
N46	N	0.272198	0.063836	0.000094
N47	N	0.605531	0.397169	0.333428
N48	N	0.938864	0.730503	0.666761
C49	C	0.246988	0.063575	0.046356
C50	C	0.580321	0.396908	0.379690
C51	C	0.913655	0.730242	0.713023
O52	O	0.273056	0.063838	0.085699
O53	O	0.606390	0.397171	0.419032
O54	O	0.939723	0.730504	0.752365
C55	C	0.045332	0.061505	0.046370
C56	C	0.378665	0.394838	0.379703
C57	C	0.711999	0.728171	0.713037
C58	C	0.020127	0.061251	0.000112
C59	C	0.353460	0.394584	0.333445
C60	C	0.686793	0.727917	0.666778
C61	C	0.020128	0.061255	-0.092401
C62	C	0.353461	0.394589	0.240933
C63	C	0.686794	0.727922	0.574266
C64	C	-0.030284	0.060741	-0.092397
C65	C	0.303049	0.394075	0.240937
C66	C	0.636383	0.727408	0.574270
C67	C	-0.055490	0.060482	-0.046139
C68	C	0.277843	0.393815	0.287195
C69	C	0.611176	0.727149	0.620528
C70	C	-0.030285	0.060736	0.000116
C71	C	0.303048	0.394070	0.333449
C72	C	0.636382	0.727403	0.666782
C73	C	0.020124	0.061240	0.092631
C74	C	0.353457	0.394573	0.425965
C75	C	0.686790	0.727907	0.759298
C76	C	-0.030293	0.060721	0.092630
C77	C	0.303040	0.394055	0.425964
C78	C	0.636373	0.727388	0.759297
C79	C	-0.055499	0.060467	0.046372
C80	C	0.277835	0.393801	0.379706
C81	C	0.611168	0.727134	0.713039
C82	C	-0.105903	0.059963	0.046378
C83	C	0.227430	0.393296	0.379711
C84	C	0.560764	0.726630	0.713045
N85	N	-0.131110	0.059704	0.000123
N86	N	0.202223	0.393037	0.333456
N87	N	0.535556	0.726371	0.666790
C88	C	-0.105904	0.059963	-0.046135
C89	C	0.227429	0.393297	0.287198
C90	C	0.560763	0.726630	0.620531
C91	C	0.352860	0.064663	0.046346
C92	C	0.686194	0.397996	0.379679
C93	C	1.019527	0.731330	0.713012
C94	C	0.403274	0.065182	0.046343
C95	C	0.736607	0.398515	0.379676
C96	C	1.069941	0.731848	0.713009
C97	C	0.403273	0.065183	-0.046175
C98	C	0.736606	0.398516	0.287159
C99	C	1.069940	0.731849	0.620492
C100	C	0.352858	0.064668	-0.046171
C101	C	0.686191	0.398001	0.287163
C102	C	1.019525	0.731334	0.620496
C103	C	0.327653	0.064404	0.000091
C104	C	0.660986	0.397737	0.333424
C105	C	0.994320	0.731071	0.666757
C106	C	-0.211772	0.058884	-0.046123
C107	C	0.121561	0.392218	0.287210
C108	C	0.454894	0.725551	0.620543
C109	C	-0.262189	0.058372	-0.046115
C110	C	0.071145	0.391705	0.287218
C111	C	0.404478	0.725039	0.620551
C112	C	-0.262183	0.058369	0.046402
C113	C	0.071150	0.391702	0.379735
C114	C	0.404484	0.725035	0.713068
C115	C	-0.211771	0.058883	0.046394
C116	C	0.121562	0.392216	0.379727
C117	C	0.454895	0.725550	0.713060
C118	C	-0.186567	0.059139	0.000127
C119	C	0.146766	0.392473	0.333461
C120	C	0.480100	0.725806	0.666794
O121	O	-0.132018	0.059710	0.085698
O122	O	0.201316	0.393043	0.419031
O123	O	0.534649	0.726376	0.752364
O124	O	-0.131979	0.059690	-0.085472
O125	O	0.201354	0.393023	0.247862
O126	O	0.534687	0.726356	0.581195
C127	C	0.095745	0.062024	-0.046151
C128	C	0.429078	0.395357	0.287183
C129	C	0.762411	0.728691	0.620516
C130	C	0.120950	0.062279	0.000104
C131	C	0.454283	0.395612	0.333437
C132	C	0.787617	0.728945	0.666770
C133	C	0.095744	0.062019	0.046362
C134	C	0.429077	0.395353	0.379695
C135	C	0.762410	0.728686	0.713029
C136	C	0.171364	0.062797	0.000101
C137	C	0.504697	0.396131	0.333434
C138	C	0.838030	0.729464	0.666767
C139	C	0.196570	0.063057	-0.046158
C140	C	0.529903	0.396390	0.287176
C141	C	0.863237	0.729723	0.620509
C142	C	0.171363	0.062798	-0.092413
C143	C	0.504696	0.396131	0.240920
C144	C	0.838030	0.729464	0.574254
C145	C	0.120951	0.062284	-0.092409
C146	C	0.454285	0.395617	0.240925
C147	C	0.787618	0.728950	0.574258
C148	C	0.120951	0.062278	0.092617
C149	C	0.454284	0.395612	0.425950
C150	C	0.787618	0.728945	0.759284
C151	C	0.171363	0.062793	0.092609
C152	C	0.504696	0.396126	0.425943
C153	C	0.838029	0.729459	0.759276
C154	C	0.196569	0.063052	0.046351
C155	C	0.529902	0.396386	0.379684
C156	C	0.863236	0.729719	0.713018
C157	C	0.574732	-0.026628	0.000128
C158	C	0.908065	0.306706	0.333461
C159	C	1.241399	0.640039	0.666795
C160	C	0.574179	-0.080282	0.000132
C161	C	0.907512	0.253051	0.333465
C162	C	1.240846	0.586384	0.666799
C163	C	0.614884	-0.419105	0.000115
C164	C	0.948217	-0.085772	0.333448
C165	C	1.281551	0.247561	0.666782
C166	C	0.612833	-0.620765	0.000108
C167	C	0.946166	-0.287431	0.333441
C168	C	1.279500	0.045902	0.666774
O169	O	0.650055	-0.652028	0.000094
O170	O	0.983388	-0.318694	0.333427
O171	O	1.316721	0.014639	0.666760
N172	N	0.568497	-0.639880	0.000098
N173	N	0.901830	-0.306546	0.333431
N174	N	1.235163	0.026787	0.666765
C175	C	0.524670	-0.608576	0.000087
C176	C	0.858003	-0.275243	0.333420
C177	C	1.191336	0.058090	0.666754
O178	O	0.486912	-0.629462	0.000073
O179	O	0.820245	-0.296129	0.333407
O180	O	1.153579	0.037204	0.666740
C181	C	0.526721	-0.406918	0.000091
C182	C	0.860055	-0.073585	0.333424
C183	C	1.193388	0.259748	0.666757
C184	C	0.571061	-0.387806	0.000106
C185	C	0.904394	-0.054473	0.333439
C186	C	1.237727	0.278860	0.666772
C187	C	0.659220	-0.399993	0.000129
C188	C	0.992553	-0.066660	0.333463
C189	C	1.325886	0.266674	0.666796
C190	C	0.659732	-0.349581	0.000134
C191	C	0.993065	-0.016248	0.333467
C192	C	1.326399	0.317086	0.666801
C193	C	0.615909	-0.318282	0.000124
C194	C	0.949242	0.015052	0.333458
C195	C	1.282575	0.348385	0.666791
C196	C	0.571573	-0.337394	0.000110
C197	C	0.904906	-0.004061	0.333444
C198	C	1.238240	0.329272	0.666777
C199	C	0.482895	-0.375616	0.000076
C200	C	0.816228	-0.042283	0.333409
C201	C	1.149562	0.291051	0.666743
C202	C	0.483412	-0.325199	0.000076
C203	C	0.816745	0.008135	0.333409
C204	C	1.150079	0.341468	0.666742
C205	C	0.527751	-0.306087	0.000091
C206	C	0.861085	0.027247	0.333424
C207	C	1.194418	0.360580	0.666757
C208	C	0.528262	-0.255683	0.000105
C209	C	0.861595	0.077650	0.333439
C210	C	1.194928	0.410983	0.666772
N211	N	0.572598	-0.236568	0.000115
N212	N	0.905932	0.096765	0.333448
N213	N	1.239265	0.430098	0.666782
C214	C	0.616422	-0.267867	0.000124
C215	C	0.949755	0.065466	0.333458
C216	C	1.283088	0.398799	0.666791
C217	C	0.523596	-0.714450	0.000086
C218	C	0.856929	-0.381117	0.333419
C219	C	1.190262	-0.047784	0.666753
C220	C	0.523083	-0.764865	0.000086
C221	C	0.856416	-0.431531	0.333419
C222	C	1.189749	-0.098198	0.666752
C223	C	0.611246	-0.777049	0.000105
C224	C	0.944579	-0.443716	0.333439
C225	C	1.277913	-0.110383	0.666772
C226	C	0.611759	-0.726634	0.000109
C227	C	0.945092	-0.393301	0.333442
C228	C	1.278425	-0.059967	0.666776
C229	C	0.567932	-0.695335	0.000095
C230	C	0.901266	-0.362002	0.333429
C231	C	1.234599	-0.028669	0.666762
C232	C	0.617494	-0.161998	0.000135
C233	C	0.950827	0.171335	0.333468
C234	C	1.284161	0.504668	0.666801
C235	C	0.618002	-0.111582	0.000142
C236	C	0.951336	0.221752	0.333475
C237	C	1.284669	0.555085	0.666808
C238	C	0.529839	-0.099401	0.000119
C239	C	0.863173	0.233932	0.333453
C240	C	1.196506	0.567265	0.666786
C241	C	0.529331	-0.149814	0.000115
C242	C	0.862664	0.183520	0.333448
C243	C	1.195997	0.516853	0.666782
C244	C	0.573162	-0.181112	0.000121
C245	C	0.906495	0.152222	0.333454
C246	C	1.239829	0.485555	0.666788
O247	O	0.491060	-0.224392	0.000114
O248	O	0.824393	0.108941	0.333447
O249	O	1.157727	0.442275	0.666780
O250	O	0.654174	-0.246972	0.000127
O251	O	0.987507	0.086361	0.333460
O252	O	1.320841	0.419694	0.666793
C253	C	0.614372	-0.469517	0.000110
C254	C	0.947705	-0.136184	0.333444
C255	C	1.281038	0.197149	0.666777
C256	C	0.570036	-0.488630	0.000096
C257	C	0.903369	-0.155297	0.333430
C258	C	1.236703	0.178037	0.666763
C259	C	0.526213	-0.457331	0.000087
C260	C	0.859546	-0.123997	0.333420
C261	C	1.192879	0.209336	0.666753
C262	C	0.569523	-0.539044	0.000096
C263	C	0.902856	-0.205711	0.333429
C264	C	1.236190	0.127622	0.666763
C265	C	0.613346	-0.570343	0.000106
C266	C	0.946680	-0.237010	0.333439
C267	C	1.280013	0.096323	0.666772
C268	C	0.657683	-0.551228	0.000115
C269	C	0.991016	-0.217895	0.333449
C270	C	1.324349	0.115438	0.666782
C271	C	0.658195	-0.500817	0.000120
C272	C	0.991528	-0.167483	0.333453
C273	C	1.324862	0.165850	0.666787
C274	C	0.481876	-0.476446	0.000077
C275	C	0.815210	-0.143112	0.333410
C276	C	1.148543	0.190221	0.666744
C277	C	0.481368	-0.526858	0.000073
C278	C	0.814701	-0.193525	0.333406
C279	C	1.148034	0.139809	0.666740
C280	C	0.525191	-0.558157	0.000083
C281	C	0.858524	-0.224824	0.333416
C282	C	1.191858	0.108509	0.666749
C283	C	0.658949	0.057570	0.000135
C284	C	0.992282	0.390904	0.333468
C285	C	1.325615	0.724237	0.666801
C286	C	0.712605	0.058113	0.000143
C287	C	1.045938	0.391446	0.333476
C288	C	1.379272	0.724779	0.666810
C289	C	0.566353	0.150181	0.000103
C290	C	0.899687	0.483515	0.333436
C291	C	1.233020	0.816848	0.666769
C292	C	0.566906	0.203836	0.000095
C293	C	0.900239	0.537169	0.333429
C294	C	1.233573	0.870503	0.666762
N295	N	0.570512	0.061777	0.120877
N296	N	0.903846	0.395111	0.454210
N297	N	1.237179	0.728444	0.787544
C298	C	0.599646	0.090885	0.473394
C299	C	0.932980	0.424219	0.806727
C300	C	1.266313	0.757552	1.140060
C301	C	0.599660	0.090887	0.687052
C302	C	0.932993	0.424220	1.020385
C303	C	1.266326	0.757553	1.353719
O304	O	0.624421	0.115628	0.714676
O305	O	0.957754	0.448961	1.048009
O306	O	1.291088	0.782295	1.381343
N307	N	0.570564	0.061777	0.713771
N308	N	0.903897	0.395111	1.047104
N309	N	1.237231	0.728444	1.380438
C310	C	0.541465	0.032663	0.687072
C311	C	0.874799	0.365996	1.020405
C312	C	1.208132	0.699330	1.353739
O313	O	0.516722	0.007900	0.714701
O314	O	0.850055	0.341233	1.048034
O315	O	1.183388	0.674567	1.381367
C316	C	0.541455	0.032660	0.473414
C317	C	0.874788	0.365993	0.806748
C318	C	1.208122	0.699326	1.140081
C319	C	0.570549	0.061775	0.446698
C320	C	0.903882	0.395108	0.780032
C321	C	1.237216	0.728441	1.113365
C322	C	0.628738	0.119998	0.446677
C323	C	0.962072	0.453331	0.780011
C324	C	1.295405	0.786664	1.113344
C325	C	0.628733	0.119999	0.393266
C326	C	0.962066	0.453332	0.726599
C327	C	1.295400	0.786666	1.059933
C328	C	0.599635	0.090888	0.366571
C329	C	0.932969	0.424222	0.699904
C330	C	1.266302	0.757555	1.033237
C331	C	0.570543	0.061776	0.393287
C332	C	0.903877	0.395109	0.726620
C333	C	1.237210	0.728443	1.059953
C334	C	0.512359	0.003543	0.446716
C335	C	0.845693	0.336877	0.780050
C336	C	1.179026	0.670210	1.113383
C337	C	0.512360	0.003544	0.393298
C338	C	0.845694	0.336877	0.726632
C339	C	1.179027	0.670211	1.059965
C340	C	0.541454	0.032659	0.366582
C341	C	0.874788	0.365992	0.699916
C342	C	1.208121	0.699326	1.033249
C343	C	0.541440	0.032667	0.313180
C344	C	0.874774	0.366000	0.646513
C345	C	1.208107	0.699333	0.979847
N346	N	0.570536	0.061776	0.286461
N347	N	0.903869	0.395109	0.619794
N348	N	1.237203	0.728443	0.953128
C349	C	0.599634	0.090887	0.313156
C350	C	0.932967	0.424220	0.646490
C351	C	1.266300	0.757554	0.979823
C352	C	0.541472	0.032668	0.799245
C353	C	0.874805	0.366001	1.132579
C354	C	1.208139	0.699334	1.465912
C355	C	0.541474	0.032669	0.852659
C356	C	0.874807	0.366002	1.185993
C357	C	1.208140	0.699336	1.519326
C358	C	0.599669	0.090892	0.852636
C359	C	0.933002	0.424225	1.185969
C360	C	1.266336	0.757559	1.519303
C361	C	0.599664	0.090893	0.799221
C362	C	0.932997	0.424226	1.132554
C363	C	1.266331	0.757560	1.465887
C364	C	0.570568	0.061777	0.772526
C365	C	0.903901	0.395110	1.105860
C366	C	1.237234	0.728444	1.439193
C367	C	0.599619	0.090888	0.200989
C368	C	0.932953	0.424221	0.534322
C369	C	1.266286	0.757555	0.867655
C370	C	0.599610	0.090888	0.147572
C371	C	0.932943	0.424222	0.480906
C372	C	1.266276	0.757555	0.814239
C373	C	0.541417	0.032664	0.147601
C374	C	0.874750	0.365997	0.480934
C375	C	1.208083	0.699330	0.814267
C376	C	0.541424	0.032665	0.201012
C377	C	0.874758	0.365998	0.534345
C378	C	1.208091	0.699332	0.867679
C379	C	0.570529	0.061778	0.227705
C380	C	0.903863	0.395112	0.561038
C381	C	1.237196	0.728445	0.894371
O382	O	0.516696	0.007934	0.285523
O383	O	0.850029	0.341268	0.618856
O384	O	1.183363	0.674601	0.952190
O385	O	0.624382	0.115638	0.285519
O386	O	0.957715	0.448971	0.618852
O387	O	1.291048	0.782305	0.952185
C388	C	0.599652	0.090884	0.526805
C389	C	0.932985	0.424217	0.860138
C390	C	1.266319	0.757551	1.193472
C391	C	0.570560	0.061772	0.553521
C392	C	0.903893	0.395105	0.886854
C393	C	1.237227	0.728438	1.220188
C394	C	0.541463	0.032661	0.526826
C395	C	0.874796	0.365994	0.860159
C396	C	1.208129	0.699328	1.193492
C397	C	0.570562	0.061773	0.606935
C398	C	0.903895	0.395107	0.940269
C399	C	1.237229	0.728440	1.273602
C400	C	0.599659	0.090884	0.633631
C401	C	0.932993	0.424217	0.966964
C402	C	1.266326	0.757551	1.300297
C403	C	0.628755	0.119993	0.606912
C404	C	0.962088	0.453327	0.940245
C405	C	1.295422	0.786660	1.273578
C406	C	0.628750	0.119995	0.553500
C407	C	0.962083	0.453328	0.886834
C408	C	1.295416	0.786662	1.220167
C409	C	0.512367	0.003552	0.553545
C410	C	0.845700	0.336885	0.886878
C411	C	1.179034	0.670218	1.220211
C412	C	0.512374	0.003553	0.606956
C413	C	0.845708	0.336886	0.940290
C414	C	1.179041	0.670220	1.273623
C415	C	0.541472	0.032664	0.633651
C416	C	0.874805	0.365997	0.966985
C417	C	1.208139	0.699330	1.300318
N418	N	0.570571	0.061780	0.879355
N419	N	0.903905	0.395113	1.212688
N420	N	1.237238	0.728447	1.546021
H421	H	0.100433	0.062077	-0.130077
H422	H	0.433767	0.395410	0.203256
H423	H	0.767100	0.728743	0.536590
Br424	Br	0.717157	-0.593716	0.000132
Br425	Br	1.050490	-0.260383	0.333465
Br426	Br	1.383823	0.072951	0.666799
H427	H	0.191894	0.063012	-0.130078
H428	H	0.525228	0.396345	0.203255
H429	H	0.858561	0.729678	0.536589
H430	H	0.423804	0.065395	-0.083840
H431	H	0.757138	0.398729	0.249493
H432	H	1.090471	0.732062	0.582827
Br433	Br	0.422395	-0.433975	0.000062
Br434	Br	0.755729	-0.100642	0.333395
Br435	Br	1.089062	0.232691	0.666728
H436	H	0.623355	0.114601	0.777472
H437	H	0.956688	0.447935	1.110805
H438	H	1.290021	0.781268	1.444139
Br439	Br	0.668210	0.159524	0.357017
Br440	Br	1.001543	0.492857	0.690350
Br441	Br	1.334877	0.826191	1.023683
H442	H	0.647864	-0.711077	0.000121
H443	H	0.981197	-0.377744	0.333454
H444	H	1.314530	-0.044410	0.666787
H445	H	0.652436	0.143703	0.468407
H446	H	0.985769	0.477037	0.801740
H447	H	1.319102	0.810370	1.135074
H448	H	0.623359	0.114597	0.874380
H449	H	0.956693	0.447931	1.207714
H450	H	1.290026	0.781264	1.541047
H451	H	0.040646	0.061465	-0.130072
H452	H	0.373979	0.394798	0.203261
H453	H	0.707312	0.728132	0.536595
Br454	Br	0.318660	0.064312	0.109136
Br455	Br	0.651993	0.397645	0.442469
Br456	Br	0.985327	0.730979	0.775802
H457	H	0.446789	-0.391168	0.000061
H458	H	0.780123	-0.057834	0.333394
H459	H	1.113456	0.275499	0.666728
H460	H	0.652441	0.143703	0.531753
H461	H	0.985774	0.477037	0.865086
H462	H	1.319107	0.810370	1.198419
H463	H	0.332339	0.064461	-0.083838
H464	H	0.665672	0.397794	0.249495
H465	H	0.999006	0.731127	0.582828
H466	H	0.423791	0.065396	0.084011
H467	H	0.757124	0.398730	0.417344
H468	H	1.090457	0.732063	0.750677
H469	H	0.517727	0.008963	0.222765
H470	H	0.851061	0.342297	0.556099
H471	H	1.184394	0.675630	0.889432
H472	H	0.517725	0.008964	0.125856
H473	H	0.851058	0.342297	0.459189
H474	H	1.184392	0.675630	0.792522
H475	H	0.652445	0.143699	0.628656
H476	H	0.985778	0.477032	0.961990
H477	H	1.319112	0.810366	1.295323
Br478	Br	0.719910	-0.323652	0.000140
Br479	Br	1.053243	0.009682	0.333473
Br480	Br	1.386577	0.343015	0.666806
Br481	Br	0.054318	0.061586	0.155414
Br482	Br	0.387651	0.394919	0.488748
Br483	Br	0.720985	0.728253	0.822081
H484	H	0.486977	-0.780421	0.000083
H485	H	0.820311	-0.447088	0.333416
H486	H	1.153644	-0.113754	0.666749
Br487	Br	0.678181	-0.085647	0.000162
Br488	Br	1.011515	0.247686	0.333495
Br489	Br	1.344848	0.581019	0.666829
Br490	Br	0.205563	0.063142	0.155394
Br491	Br	0.538896	0.396476	0.488728
Br492	Br	0.872230	0.729809	0.822061
H493	H	-0.191249	0.059100	0.084061
H494	H	0.142084	0.392433	0.417394
H495	H	0.475417	0.725766	0.750727
Br496	Br	0.501970	-0.006841	0.763025
Br497	Br	0.835303	0.326492	1.096358
Br498	Br	1.168637	0.659826	1.429692
Br499	Br	-0.064496	0.060359	0.155418
Br500	Br	0.268837	0.393692	0.488751
Br501	Br	0.602170	0.727025	0.822084
H502	H	-0.282715	0.058159	0.084064
H503	H	0.050618	0.391493	0.417397
H504	H	0.383951	0.724826	0.750731
H505	H	0.100433	0.062064	0.130287
H506	H	0.433767	0.395398	0.463620
H507	H	0.767100	0.728731	0.796954
H508	H	0.517777	0.008967	0.874407
H509	H	0.851110	0.342300	1.207741
H510	H	1.184443	0.675633	1.541074
Br511	Br	0.639092	0.130409	0.111318
Br512	Br	0.972425	0.463742	0.444651
Br513	Br	1.305759	0.797076	0.777985
Br514	Br	-0.177574	0.059232	-0.108914
Br515	Br	0.155759	0.392565	0.224419
Br516	Br	0.489093	0.725898	0.557753
Br517	Br	0.676980	-0.204466	0.000142
Br518	Br	1.010313	0.128867	0.333476
Br519	Br	1.343647	0.462200	0.666809
Br520	Br	0.472882	-0.035960	0.643207
Br521	Br	0.806215	0.297373	0.976540
Br522	Br	1.139549	0.630706	1.309874
H523	H	0.447722	-0.299717	0.000064
H524	H	0.781056	0.033616	0.333397
H525	H	1.114389	0.366950	0.666731
H526	H	0.493226	-0.165375	0.000117
H527	H	0.826559	0.167958	0.333451
H528	H	1.159893	0.501291	0.666784
H529	H	0.694908	-0.425472	0.000135
H530	H	1.028241	-0.092139	0.333468
H531	H	1.361575	0.241194	0.666802
H532	H	-0.050801	0.060532	-0.130065
H533	H	0.282532	0.393866	0.203268
H534	H	0.615865	0.727199	0.536602
Br535	Br	0.464111	-0.671980	0.000066
Br536	Br	0.797444	-0.338646	0.333400
Br537	Br	1.130777	-0.005313	0.666733
Br538	Br	0.670720	-0.819536	0.000117
Br539	Br	1.004054	-0.486203	0.333450
Br540	Br	1.337387	-0.152870	0.666784
Br541	Br	0.470368	-0.056915	0.000106
Br542	Br	0.803701	0.276419	0.333440
Br543	Br	1.137034	0.609752	0.666773
Br544	Br	0.718373	-0.474887	0.000137
Br545	Br	1.051706	-0.141554	0.333470
Br546	Br	1.385040	0.191780	0.666803
H547	H	0.445259	-0.542414	0.000065
H548	H	0.778592	-0.209080	0.333399
H549	H	1.111925	0.124253	0.666732
H550	H	0.623320	0.114595	0.222715
H551	H	0.956653	0.447928	0.556049
H552	H	1.289987	0.781261	0.889382
H553	H	0.488669	-0.020166	0.468459
H554	H	0.822002	0.313167	0.801793
H555	H	1.155335	0.646501	1.135126
H556	H	0.488666	-0.020167	0.371567
H557	H	0.822000	0.313167	0.704900
H558	H	1.155333	0.646500	1.038233
H559	H	0.488673	-0.020155	0.531815
H560	H	0.822006	0.313178	0.865148
H561	H	1.155339	0.646511	1.198481
H562	H	-0.282709	0.058167	-0.083786
H563	H	0.050625	0.391500	0.249548
H564	H	0.383958	0.724833	0.582881
