data_functionalizedCrystal
_audit_creation_method	'MofGen! by Chris Wilmer'
_symmetry_space_group_name_H-M	'P1'
_symmetry_Int_Tables_number	1
_symmetry_cell_setting	triclinic
loop_
_symmetry_equiv_pos_as_xyz
  x,y,z
_cell_length_a	14.908571
_cell_length_b	12.594516
_cell_length_c	14.908308
_cell_angle_alpha	93.271498
_cell_angle_beta	90.175053
_cell_angle_gamma	86.712497
loop_
_atom_site_label
_atom_site_type_symbol
_atom_site_fract_x
_atom_site_fract_y
_atom_site_fract_z
Zn1	Zn	1.345329	-0.555460	-0.587618
Zn2	Zn	1.353920	-0.723816	-0.437269
Zn3	Zn	1.203643	-0.535016	-0.428614
Zn4	Zn	1.194948	-0.722551	-0.578920
O5	O	1.274460	-0.634211	-0.508105
O6	O	1.472295	-0.586878	-0.574935
O7	O	1.341220	-0.690745	-0.310295
O8	O	1.222482	-0.388787	-0.449724
O9	O	1.478607	-0.710568	-0.464475
O10	O	1.326578	-0.403807	-0.566543
O11	O	1.230812	-0.552034	-0.303937
O12	O	1.076663	-0.550808	-0.441291
O13	O	1.207662	-0.708413	-0.705899
O14	O	1.070275	-0.688589	-0.551720
O15	O	1.318147	-0.585652	-0.712289
O16	O	1.332788	-0.872590	-0.456041
O17	O	1.215992	-0.871661	-0.560112
C18	C	1.040844	-0.617344	-0.494623
C19	C	0.940900	-0.610155	-0.488877
C20	C	0.746501	-0.740319	-0.592914
C21	C	0.652595	-0.733568	-0.587518
C22	C	0.659180	-0.589898	-0.472693
C23	C	0.753086	-0.596649	-0.478089
C24	C	0.796743	-0.671863	-0.538201
C25	C	0.890651	-0.678619	-0.543592
C26	C	0.897235	-0.534943	-0.428772
C27	C	0.803329	-0.528192	-0.423376
C28	C	1.274402	-0.910747	-0.508093
C29	C	1.274457	-1.029058	-0.508123
C30	C	1.210928	-1.097842	-0.564684
C31	C	1.193759	-1.161862	-0.481377
C32	C	1.291708	-1.175844	-0.591449
C33	C	1.257247	-1.091515	-0.424769
C34	C	1.355231	-1.105496	-0.534899
C35	C	1.338096	-1.169483	-0.451537
C36	C	1.508989	-0.651145	-0.521641
C37	C	1.608931	-0.658361	-0.527409
C38	C	1.260976	-0.649172	-0.742631
C39	C	1.255230	-0.655547	-0.842572
C40	C	1.274542	-0.356598	-0.508138
C41	C	1.274577	-0.238296	-0.508153
C42	C	1.359477	-0.539672	-1.037028
C43	C	1.354081	-0.545658	-1.130932
C44	C	1.239037	-0.673502	-1.124285
C45	C	1.244433	-0.667515	-1.030381
C46	C	1.304656	-0.600599	-0.986756
C47	C	1.310057	-0.594618	-0.892851
C48	C	1.195009	-0.722455	-0.886206
C49	C	1.189612	-0.728442	-0.980110
C50	C	1.287944	-0.619235	-0.274494
C51	C	1.293864	-0.612572	-0.174564
H52	H	0.767770	-0.466952	-0.374438
H53	H	0.926195	-0.739864	-0.592536
H54	H	1.306251	-1.212658	-0.661905
O55	O	0.603926	-0.800178	-0.640703
C56	C	0.662599	-0.867987	-0.694931
H57	H	0.731646	-0.874072	-0.661942
H58	H	0.634915	-0.950518	-0.702854
H59	H	0.668679	-0.834204	-0.763846
O60	O	1.402237	-1.206952	-0.394489
C61	C	1.402067	-1.318959	-0.395658
H62	H	1.371421	-1.350463	-0.461369
H63	H	1.473965	-1.353859	-0.389790
H64	H	1.360679	-1.343127	-0.336762
H65	H	0.938152	-0.479203	-0.384219
O66	O	1.417998	-0.474589	-0.994786
C67	C	1.465250	-0.422121	-1.059295
H68	H	1.424577	-0.420041	-1.124110
H69	H	1.476428	-0.337226	-1.032723
H70	H	1.532954	-0.466667	-1.073217
O71	O	1.239951	-1.047808	-0.340638
C72	C	1.306662	-1.085174	-0.281070
H73	H	1.370081	-1.112372	-0.320468
H74	H	1.322480	-1.018348	-0.229651
H75	H	1.281370	-1.155014	-0.244921
O76	O	1.436598	-1.075694	-0.562088
C77	C	1.454470	-1.118841	-0.649991
H78	H	1.388505	-1.136660	-0.685055
H79	H	1.490891	-1.059126	-0.689120
H80	H	1.498463	-1.195624	-0.646881
O81	O	1.407204	-0.486354	-1.179797
C82	C	1.352906	-0.417399	-1.231184
H83	H	1.283715	-0.403916	-1.198802
H84	H	1.385384	-0.337901	-1.234130
H85	H	1.345714	-0.454619	-1.302172
H86	H	1.359094	-0.540133	-0.857333
H87	H	1.157117	-1.066391	-0.612437
O88	O	0.788961	-0.813490	-0.651173
C89	C	0.846227	-0.882755	-0.603005
H90	H	0.821981	-0.882644	-0.530551
H91	H	0.845431	-0.966871	-0.635469
H92	H	0.917574	-0.854761	-0.604044
O93	O	1.180605	-0.738462	-1.166814
C94	C	1.187575	-0.730643	-1.260474
H95	H	1.256244	-0.701626	-1.277305
H96	H	1.179385	-0.812192	-1.295816
H97	H	1.132734	-0.671793	-1.284036
H98	H	1.125505	-1.186887	-0.458752
O99	O	1.131242	-0.793566	-1.022540
C100	C	1.179296	-0.869445	-1.079824
H101	H	1.251739	-0.879321	-1.055611
H102	H	1.146697	-0.949079	-1.079009
H103	H	1.178310	-0.841293	-1.151172
O104	O	1.141838	-0.781802	-0.837420
C105	C	1.160123	-0.890761	-0.861511
H106	H	1.230472	-0.902966	-0.891464
H107	H	1.155907	-0.938853	-0.799307
H108	H	1.108778	-0.918573	-0.913239
O109	O	0.616621	-0.516897	-0.414358
C110	C	0.522962	-0.525583	-0.421368
H111	H	0.508446	-0.608741	-0.449928
H112	H	0.491104	-0.511321	-0.351992
H113	H	0.493602	-0.463712	-0.467852
