data_functionalizedCrystal
_audit_creation_method	'MofGen! by Chris Wilmer'
_symmetry_space_group_name_H-M	'P1'
_symmetry_Int_Tables_number	1
_symmetry_cell_setting	triclinic
loop_
_symmetry_equiv_pos_as_xyz
  x,y,z
_cell_length_a	11.169417
_cell_length_b	19.805405
_cell_length_c	19.805399
_cell_angle_alpha	90.029301
_cell_angle_beta	90.015281
_cell_angle_gamma	90.027289
loop_
_atom_site_label
_atom_site_type_symbol
_atom_site_fract_x
_atom_site_fract_y
_atom_site_fract_z
Zn1	Zn	1.834774	-0.269463	0.382634
Zn2	Zn	2.334774	0.230537	0.882634
Zn3	Zn	1.834623	-0.382651	0.269442
Zn4	Zn	2.334623	0.117349	0.769442
Zn5	Zn	1.634076	-0.269483	0.269467
Zn6	Zn	2.134076	0.230517	0.769467
Zn7	Zn	1.634012	-0.382617	0.382598
Zn8	Zn	2.134012	0.117383	0.882598
O9	O	1.734371	-0.326054	0.326035
O10	O	2.234371	0.173946	0.826035
O11	O	2.002704	-0.284484	0.367624
O12	O	2.502704	0.215516	0.867624
O13	O	1.807984	-0.367662	0.174729
O14	O	2.307984	0.132338	0.674729
O15	O	1.660790	-0.174764	0.284505
O16	O	2.160790	0.325236	0.784505
O17	O	2.002593	-0.367643	0.284462
O18	O	2.502593	0.132357	0.784462
O19	O	1.808242	-0.174749	0.367648
O20	O	2.308242	0.325251	0.867648
O21	O	1.660643	-0.284518	0.174747
O22	O	2.160643	0.215482	0.674747
O23	O	1.466118	-0.284485	0.284469
O24	O	1.966118	0.215515	0.784469
O25	O	1.660679	-0.367584	0.477319
O26	O	2.160679	0.132416	0.977319
O27	O	1.466070	-0.367604	0.367586
O28	O	1.966070	0.132396	0.867586
O29	O	1.808179	-0.284450	0.477346
O30	O	2.308179	0.215550	0.977346
O31	O	1.807922	-0.477363	0.284427
O32	O	2.307922	0.022637	0.784427
O33	O	1.660533	-0.477338	0.367562
O34	O	2.160533	0.022662	0.867562
C35	C	1.422547	-0.326043	0.326027
C36	C	1.922547	0.173957	0.826027
C37	C	1.289147	-0.326055	0.326039
C38	C	1.789147	0.173945	0.826039
C39	C	1.734236	-0.501910	0.326003
C40	C	2.234236	-0.001910	0.826003
C41	C	1.734288	-0.577142	0.326011
C42	C	2.234288	-0.077142	0.826011
C43	C	1.811108	-0.612477	0.282768
C44	C	2.311108	-0.112477	0.782768
C45	C	1.811159	-0.683165	0.282783
C46	C	2.311159	-0.183165	0.782783
C47	C	1.734383	-0.718517	0.326038
C48	C	2.234383	-0.218517	0.826038
C49	C	1.657560	-0.683178	0.369286
C50	C	2.157560	-0.183178	0.869286
C51	C	1.657516	-0.612490	0.369274
C52	C	2.157516	-0.112490	0.869274
C53	C	1.657737	-0.968251	0.369336
C54	C	2.157737	-0.468251	0.869336
C55	C	1.657785	-1.038943	0.369343
C56	C	2.157785	-0.538943	0.869343
C57	C	1.811380	-1.038925	0.282845
C58	C	2.311380	-0.538925	0.782845
C59	C	1.811336	-0.968238	0.282833
C60	C	2.311336	-0.468238	0.782833
C61	C	1.734518	-0.932905	0.326083
C62	C	2.234518	-0.432905	0.826083
C63	C	1.734465	-0.856256	0.326067
C64	C	2.234465	-0.356256	0.826067
C65	C	1.734429	-0.795164	0.326051
C66	C	2.234429	-0.295164	0.826051
C67	C	2.047414	-0.326065	0.326044
C68	C	2.547414	0.173935	0.826044
C69	C	2.180814	-0.326069	0.326048
C70	C	2.680814	0.173931	0.826048
C71	C	1.734439	-0.326011	0.502578
C72	C	2.234439	0.173989	1.002578
C73	C	1.734467	-0.325993	0.577810
C74	C	2.234467	0.174007	1.077810
C75	C	1.734540	-0.149511	0.326083
C76	C	2.234540	0.350489	0.826083
C77	C	1.734611	-0.074279	0.326103
C78	C	2.234611	0.425721	0.826103
C79	C	1.734373	-0.326047	0.150179
C80	C	2.234373	0.173953	0.650179
C81	C	1.734577	-0.325875	0.074948
C82	C	2.234577	0.174125	0.574948
C83	C	1.811272	-0.282703	0.613169
C84	C	2.311272	0.217297	1.113169
C85	C	1.811285	-0.282683	0.683858
C86	C	2.311285	0.217317	1.183858
C87	C	1.734497	-0.325958	0.719186
C88	C	2.234497	0.174042	1.219186
C89	C	1.657684	-0.369249	0.683822
C90	C	2.157684	0.130751	1.183822
C91	C	1.657666	-0.369265	0.613134
C92	C	2.157666	0.130735	1.113134
C93	C	1.657752	-0.369186	0.968895
C94	C	2.157752	0.130814	1.468895
C95	C	1.657778	-0.369169	1.039587
C96	C	2.157778	0.130831	1.539587
C97	C	1.811370	-0.282605	1.039618
C98	C	2.311370	0.217395	1.539618
C99	C	1.811352	-0.282620	0.968931
C100	C	2.311352	0.217380	1.468931
C101	C	1.734535	-0.325909	0.933573
C102	C	2.234535	0.174091	1.433573
C103	C	1.734521	-0.325929	0.856925
C104	C	2.234521	0.174071	1.356925
C105	C	1.734516	-0.325942	0.795833
C106	C	2.234516	0.174058	1.295833
H107	H	1.873623	-0.583697	0.247542
H108	H	2.373623	-0.083697	0.747542
H109	H	1.595243	-0.404409	1.068349
H110	H	2.095243	0.095591	1.568349
C111	C	1.895784	-0.929355	0.235244
C112	C	2.395784	-0.429355	0.735244
N113	N	1.959393	-0.900068	0.199398
N114	N	2.459393	-0.400068	0.699398
H115	H	1.873805	-0.247466	0.584410
H116	H	2.373805	0.252534	1.084410
C117	C	1.573009	-0.573623	0.416845
C118	C	2.073009	-0.073623	0.916845
N119	N	1.509359	-0.544348	0.452678
N120	N	2.009359	-0.044348	0.952678
H121	H	1.595220	-0.404445	0.940115
H122	H	2.095220	0.095555	1.440115
C123	C	1.895889	-1.077799	0.235272
C124	C	2.395889	-0.577799	0.735272
N125	N	1.959536	-1.107077	0.199440
N126	N	2.459536	-0.607077	0.699440
C127	C	1.895660	-0.722030	0.235208
C128	C	2.395660	-0.222030	0.735208
N129	N	1.959307	-0.751303	0.199372
N130	N	2.459307	-0.251303	0.699372
C131	C	1.573327	-1.077829	0.416933
C132	C	2.073327	-0.577829	0.916933
N133	N	1.509718	-1.107118	0.452776
N134	N	2.009718	-0.607118	0.952776
H135	H	1.595112	-0.404510	0.584346
H136	H	2.095112	0.095490	1.084346
H137	H	1.595158	-0.404482	0.712591
H138	H	2.095158	0.095518	1.212591
H139	H	1.873830	-0.247434	0.712644
H140	H	2.373830	0.252566	1.212644
H141	H	1.595187	-0.939488	0.404550
H142	H	2.095187	-0.439488	0.904550
C143	C	1.895819	-0.235013	0.930074
C144	C	2.395819	0.264987	1.430074
N145	N	1.959436	-0.199150	0.900808
N146	N	2.459436	0.300850	1.400808
C147	C	1.895856	-0.234977	1.078518
C148	C	2.395856	0.265023	1.578518
N149	N	1.959489	-0.199104	1.107817
N150	N	2.459489	0.300896	1.607817
H151	H	1.595053	-0.711967	0.404508
H152	H	2.095053	-0.211967	0.904508
