data_functionalizedCrystal
_audit_creation_method	'MofGen! by Chris Wilmer'
_symmetry_space_group_name_H-M	'P1'
_symmetry_Int_Tables_number	1
_symmetry_cell_setting	triclinic
loop_
_symmetry_equiv_pos_as_xyz
  x,y,z
_cell_length_a	17.077404
_cell_length_b	11.169416
_cell_length_c	17.077396
_cell_angle_alpha	89.977334
_cell_angle_beta	89.980499
_cell_angle_gamma	90.010565
loop_
_atom_site_label
_atom_site_type_symbol
_atom_site_fract_x
_atom_site_fract_y
_atom_site_fract_z
Zn1	Zn	1.200123	-0.477800	-0.443874
Zn2	Zn	1.700123	0.022200	0.056126
Zn3	Zn	1.200059	-0.678512	-0.312622
Zn4	Zn	1.700059	-0.178512	0.187378
Zn5	Zn	1.068855	-0.477842	-0.312622
Zn6	Zn	1.568855	0.022158	0.187378
Zn7	Zn	1.068852	-0.678440	-0.443845
Zn8	Zn	1.568852	-0.178440	0.056155
O9	O	1.134472	-0.578149	-0.378241
O10	O	1.634472	-0.078149	0.121759
O11	O	1.309961	-0.504437	-0.426475
O12	O	1.809961	-0.004437	0.073525
O13	O	1.182629	-0.651940	-0.202775
O14	O	1.682629	-0.151940	0.297225
O15	O	1.086296	-0.309887	-0.330046
O16	O	1.586296	0.190113	0.169954
O17	O	1.309914	-0.651899	-0.330045
O18	O	1.809914	-0.151899	0.169955
O19	O	1.182738	-0.309856	-0.426476
O20	O	1.682738	0.190144	0.073524
O21	O	1.086234	-0.504509	-0.202775
O22	O	1.586234	-0.004509	0.297225
O23	O	0.959008	-0.504440	-0.330017
O24	O	1.459008	-0.004440	0.169983
O25	O	1.086291	-0.651778	-0.553696
O26	O	1.586291	-0.151778	-0.053696
O27	O	0.959005	-0.651818	-0.426426
O28	O	1.459005	-0.151818	0.073574
O29	O	1.182735	-0.504368	-0.553718
O30	O	1.682735	-0.004368	-0.053718
O31	O	1.182626	-0.846452	-0.330016
O32	O	1.682626	-0.346452	0.169984
O33	O	1.086228	-0.846400	-0.426426
O34	O	1.586228	-0.346400	0.073574
C35	C	0.930524	-0.578127	-0.378219
C36	C	1.430524	-0.078127	0.121781
C37	C	0.843274	-0.578146	-0.378229
C38	C	1.343274	-0.078146	0.121771
C39	C	0.802304	-0.655002	-0.428348
C40	C	1.302304	-0.155002	0.071652
C41	C	0.720323	-0.655005	-0.428361
C42	C	1.220323	-0.155005	0.071639
C43	C	0.679315	-0.578157	-0.378249
C44	C	1.179315	-0.078157	0.121751
C45	C	0.720292	-0.501292	-0.328127
C46	C	1.220292	-0.001292	0.171873
C47	C	0.802271	-0.501285	-0.328119
C48	C	1.302271	-0.001285	0.171881
C49	C	0.549422	-0.501316	-0.328146
C50	C	1.049422	-0.001316	0.171854
C51	C	0.467437	-0.501325	-0.328153
C52	C	0.967437	-0.001325	0.171847
C53	C	0.467474	-0.655036	-0.428388
C54	C	0.967474	-0.155036	0.071612
C55	C	0.549453	-0.655029	-0.428380
C56	C	1.049453	-0.155029	0.071620
C57	C	0.590424	-0.578165	-0.378257
C58	C	1.090424	-0.078165	0.121743
C59	C	1.134441	-0.889973	-0.378235
C60	C	1.634441	-0.389973	0.121765
C61	C	1.134500	-1.023373	-0.378259
C62	C	1.634500	-0.523373	0.121741
C63	C	1.339216	-0.578171	-0.378263
C64	C	1.839216	-0.078171	0.121737
C65	C	1.426466	-0.578181	-0.378273
C66	C	1.926466	-0.078181	0.121727
C67	C	1.134520	-0.578060	-0.582985
C68	C	1.634520	-0.078060	-0.082985
C69	C	1.134540	-0.578022	-0.670235
C70	C	1.634540	-0.078022	-0.170235
C71	C	1.134525	-0.265106	-0.378264
C72	C	1.634525	0.234894	0.121736
C73	C	1.134547	-0.131706	-0.378274
C74	C	1.634547	0.368294	0.121726
C75	C	1.184760	-0.501260	-0.711238
C76	C	1.684760	-0.001260	-0.211238
C77	C	1.184770	-0.501220	-0.793218
C78	C	1.684770	-0.001220	-0.293218
C79	C	1.134562	-0.577949	-0.834195
C80	C	1.634562	-0.077949	-0.334195
C81	C	1.084336	-0.654715	-0.793186
C82	C	1.584336	-0.154715	-0.293186
C83	C	1.084323	-0.654748	-0.711207
C84	C	1.584323	-0.154748	-0.211207
C85	C	1.084368	-0.654643	-0.964057
C86	C	1.584368	-0.154643	-0.464057
C87	C	1.084381	-0.654612	-1.046041
C88	C	1.584381	-0.154612	-0.546041
C89	C	1.184814	-0.501115	-1.046067
C90	C	1.684814	-0.001115	-0.546067
C91	C	1.184801	-0.501148	-0.964088
C92	C	1.684801	-0.001148	-0.464088
C93	C	1.134576	-0.577916	-0.923086
C94	C	1.634576	-0.077916	-0.423086
C95	C	1.134470	-0.578150	-0.174293
C96	C	1.634470	-0.078150	0.325707
C97	C	1.134602	-0.577850	-0.087044
C98	C	1.634602	-0.077850	0.412956
H99	H	0.434112	-0.717618	-0.469202
H100	H	0.934112	-0.217618	0.030798
H101	H	1.225666	-0.438715	-0.826599
H102	H	1.725666	0.061285	-0.326599
H103	H	1.043457	-0.717137	-0.930675
H104	H	1.543457	-0.217137	-0.430675
H105	H	1.225708	-0.438605	-1.079456
H106	H	1.725708	0.061395	-0.579456
H107	H	0.686896	-0.438716	-0.287329
H108	H	1.186896	0.061284	0.212671
H109	H	0.835687	-0.717585	-0.469153
H110	H	1.335687	-0.217585	0.030847
H111	H	0.686968	-0.717590	-0.469173
H112	H	1.186968	-0.217590	0.030827
H113	H	1.043496	-0.717090	-1.079402
H114	H	1.543496	-0.217090	-0.579402
H115	H	0.434050	-0.438734	-0.287357
H116	H	0.934050	0.061266	0.212643
H117	H	1.225648	-0.438781	-0.677881
H118	H	1.725648	0.061219	-0.177881
Br119	Br	0.605025	-0.396998	-0.260123
Br120	Br	1.105025	0.103002	0.239877
Br121	Br	1.016191	-0.758843	-0.848796
Br122	Br	1.516191	-0.258843	-0.348796
H123	H	0.582840	-0.717612	-0.469181
H124	H	1.082840	-0.217612	0.030819
Br125	Br	1.252948	-0.397024	-0.908477
Br126	Br	1.752948	0.102976	-0.408477
Br127	Br	1.016159	-0.758923	-0.655560
Br128	Br	1.516159	-0.258923	-0.155560
H129	H	0.835628	-0.438694	-0.287311
H130	H	1.335628	0.061306	0.212689
