data_functionalizedCrystal
_audit_creation_method	'MofGen! by Chris Wilmer'
_symmetry_space_group_name_H-M	'P1'
_symmetry_Int_Tables_number	1
_symmetry_cell_setting	triclinic
loop_
_symmetry_equiv_pos_as_xyz
  x,y,z
_cell_length_a	18.215407
_cell_length_b	19.805405
_cell_length_c	18.215399
_cell_angle_alpha	89.972077
_cell_angle_beta	89.982632
_cell_angle_gamma	90.024169
loop_
_atom_site_label
_atom_site_type_symbol
_atom_site_fract_x
_atom_site_fract_y
_atom_site_fract_z
Zn1	Zn	1.125063	-0.269516	-0.416068
Zn2	Zn	1.375063	-0.019516	-0.166068
Zn3	Zn	1.625063	0.230484	0.083932
Zn4	Zn	1.875063	0.480484	0.333932
Zn5	Zn	1.124967	-0.382707	-0.293001
Zn6	Zn	1.374967	-0.132707	-0.043001
Zn7	Zn	1.624967	0.117293	0.206999
Zn8	Zn	1.874967	0.367293	0.456999
Zn9	Zn	1.001995	-0.269533	-0.293020
Zn10	Zn	1.251995	-0.019533	-0.043020
Zn11	Zn	1.501995	0.230467	0.206980
Zn12	Zn	1.751995	0.480467	0.456980
Zn13	Zn	1.001957	-0.382664	-0.416032
Zn14	Zn	1.251957	-0.132664	-0.166032
Zn15	Zn	1.501957	0.117336	0.083968
Zn16	Zn	1.751957	0.367336	0.333968
O17	O	1.063495	-0.326105	-0.354530
O18	O	1.313495	-0.076105	-0.104530
O19	O	1.563495	0.173895	0.145470
O20	O	1.813495	0.423895	0.395470
O21	O	1.228034	-0.284543	-0.399750
O22	O	1.478034	-0.034543	-0.149750
O23	O	1.728034	0.215457	0.100250
O24	O	1.978034	0.465457	0.350250
O25	O	1.108630	-0.367719	-0.190020
O26	O	1.358630	-0.117719	0.059980
O27	O	1.608630	0.132281	0.309980
O28	O	1.858630	0.382281	0.559980
O29	O	1.018376	-0.174814	-0.309366
O30	O	1.268376	0.075186	-0.059366
O31	O	1.518376	0.325186	0.190634
O32	O	1.768376	0.575186	0.440634
O33	O	1.227964	-0.367704	-0.309334
O34	O	1.477964	-0.117704	-0.059334
O35	O	1.727964	0.132296	0.190666
O36	O	1.977964	0.382296	0.440666
O37	O	1.108793	-0.174802	-0.399768
O38	O	1.358793	0.075198	-0.149768
O39	O	1.608793	0.325198	0.100232
O40	O	1.858793	0.575198	0.350232
O41	O	1.018283	-0.284570	-0.190033
O42	O	1.268283	-0.034570	0.059967
O43	O	1.518283	0.215430	0.309967
O44	O	1.768283	0.465430	0.559967
O45	O	0.899006	-0.284528	-0.309331
O46	O	1.149006	-0.034528	-0.059331
O47	O	1.399006	0.215472	0.190669
O48	O	1.649006	0.465472	0.440669
O49	O	1.018311	-0.367629	-0.519021
O50	O	1.268311	-0.117629	-0.269021
O51	O	1.518311	0.132371	-0.019021
O52	O	1.768311	0.382371	0.230979
O53	O	0.898978	-0.367645	-0.399707
O54	O	1.148978	-0.117645	-0.149707
O55	O	1.398978	0.132355	0.100293
O56	O	1.648978	0.382355	0.350293
O57	O	1.108756	-0.284501	-0.519047
O58	O	1.358756	-0.034501	-0.269047
O59	O	1.608756	0.215499	-0.019047
O60	O	1.858756	0.465499	0.230953
O61	O	1.108593	-0.477418	-0.309299
O62	O	1.358593	-0.227418	-0.059299
O63	O	1.608593	0.022582	0.190701
O64	O	1.858593	0.272582	0.440701
O65	O	1.018219	-0.477386	-0.399688
O66	O	1.268219	-0.227386	-0.149688
O67	O	1.518219	0.022614	0.100312
O68	O	1.768219	0.272614	0.350312
C69	C	0.872289	-0.326084	-0.354517
C70	C	1.122289	-0.076084	-0.104517
C71	C	1.372289	0.173916	0.145483
C72	C	1.622289	0.423916	0.395483
C73	C	0.790490	-0.326092	-0.354529
C74	C	1.040490	-0.076092	-0.104529
C75	C	1.290490	0.173908	0.145471
C76	C	1.540490	0.423908	0.395471
C77	C	1.063412	-0.501961	-0.354504
C78	C	1.313412	-0.251961	-0.104504
C79	C	1.563412	-0.001961	0.145496
C80	C	1.813412	0.248039	0.395496
C81	C	1.063443	-0.577193	-0.354517
C82	C	1.313443	-0.327193	-0.104517
C83	C	1.563443	-0.077193	0.145483
C84	C	1.813443	0.172807	0.395483
C85	C	0.602332	-0.282879	-0.401683
C86	C	0.852332	-0.032879	-0.151683
C87	C	1.102332	0.217121	0.098317
C88	C	1.352332	0.467121	0.348317
C89	C	0.525473	-0.282885	-0.401686
C90	C	0.775473	-0.032885	-0.151686
C91	C	1.025473	0.217115	0.098314
C92	C	1.275473	0.467115	0.348314
C93	C	0.525411	-0.369350	-0.307390
C94	C	0.775411	-0.119350	-0.057390
C95	C	1.025411	0.130650	0.192610
C96	C	1.275411	0.380650	0.442610
C97	C	0.602268	-0.369340	-0.307384
C98	C	0.852268	-0.119340	-0.057384
C99	C	1.102268	0.130660	0.192616
C100	C	1.352268	0.380660	0.442616
C101	C	0.640727	-0.326106	-0.354535
C102	C	0.890727	-0.076106	-0.104535
C103	C	1.140727	0.173894	0.145465
C104	C	1.390727	0.423894	0.395465
C105	C	0.487011	-0.326121	-0.354543
C106	C	0.737011	-0.076121	-0.104543
C107	C	0.987011	0.173879	0.145457
C108	C	1.237011	0.423879	0.395457
C109	C	0.403677	-0.326128	-0.354546
C110	C	0.653677	-0.076128	-0.104546
C111	C	0.903677	0.173872	0.145454
C112	C	1.153677	0.423872	0.395454
C113	C	0.724066	-0.326098	-0.354532
C114	C	0.974066	-0.076098	-0.104532
C115	C	1.224066	0.173902	0.145468
C116	C	1.474066	0.423902	0.395468
C117	C	1.110495	-0.612473	-0.401626
C118	C	1.360495	-0.362473	-0.151626
C119	C	1.610495	-0.112473	0.098374
C120	C	1.860495	0.137527	0.348374
C121	C	1.110522	-0.683161	-0.401640
C122	C	1.360522	-0.433161	-0.151640
C123	C	1.610522	-0.183161	0.098360
C124	C	1.860522	0.066839	0.348360
C125	C	1.063499	-0.718569	-0.354540
C126	C	1.313499	-0.468569	-0.104540
C127	C	1.563499	-0.218569	0.145460
C128	C	1.813499	0.031431	0.395460
C129	C	1.016442	-0.683284	-0.307428
C130	C	1.266442	-0.433284	-0.057428
C131	C	1.516442	-0.183284	0.192572
C132	C	1.766442	0.066716	0.442572
C133	C	1.016412	-0.612597	-0.307419
C134	C	1.266412	-0.362597	-0.057419
C135	C	1.516412	-0.112597	0.192581
C136	C	1.766412	0.137403	0.442581
C137	C	1.016560	-0.968357	-0.307466
C138	C	1.266560	-0.718357	-0.057466
C139	C	1.516560	-0.468357	0.192534
C140	C	1.766560	-0.218357	0.442534
C141	C	1.016595	-1.039049	-0.307478
C142	C	1.266595	-0.789049	-0.057478
C143	C	1.516595	-0.539049	0.192522
C144	C	1.766595	-0.289049	0.442522
C145	C	1.110670	-1.038921	-0.401687
C146	C	1.360670	-0.788921	-0.151687
C147	C	1.610670	-0.538921	0.098313
C148	C	1.860670	-0.288921	0.348313
C149	C	1.110640	-0.968234	-0.401678
C150	C	1.360640	-0.718234	-0.151678
C151	C	1.610640	-0.468234	0.098322
C152	C	1.860640	-0.218234	0.348322
C153	C	1.063580	-0.932956	-0.354569
C154	C	1.313580	-0.682956	-0.104569
C155	C	1.563580	-0.432956	0.145431
C156	C	1.813580	-0.182956	0.395431
C157	C	1.063551	-0.856307	-0.354556
C158	C	1.313551	-0.606307	-0.104556
C159	C	1.563551	-0.356307	0.145444
C160	C	1.813551	-0.106307	0.395444
C161	C	1.063532	-0.795216	-0.354549
C162	C	1.313532	-0.545216	-0.104549
C163	C	1.563532	-0.295216	0.145451
C164	C	1.813532	-0.045216	0.395451
C165	C	1.255448	-0.326126	-0.354544
C166	C	1.505448	-0.076126	-0.104544
C167	C	1.755448	0.173874	0.145456
C168	C	2.005448	0.423874	0.395456
C169	C	1.337247	-0.326135	-0.354549
C170	C	1.587247	-0.076135	-0.104549
C171	C	1.837247	0.173865	0.145451
C172	C	2.087247	0.423865	0.395451
C173	C	1.063540	-0.326058	-0.546483
C174	C	1.313540	-0.076058	-0.296483
C175	C	1.563540	0.173942	-0.046483
C176	C	1.813540	0.423942	0.203517
C177	C	1.063559	-0.326038	-0.628282
C178	C	1.313559	-0.076038	-0.378282
C179	C	1.563559	0.173962	-0.128282
C180	C	1.813559	0.423962	0.121718
C181	C	1.063600	-0.149562	-0.354573
C182	C	1.313600	0.100438	-0.104573
C183	C	1.563600	0.350438	0.145427
C184	C	1.813600	0.600438	0.395427
C185	C	1.063644	-0.074330	-0.354591
C186	C	1.313644	0.175670	-0.104591
C187	C	1.563644	0.425670	0.145409
C188	C	1.813644	0.675670	0.395409
C189	C	1.110671	-0.282713	-0.816491
C190	C	1.360671	-0.032713	-0.566491
C191	C	1.610671	0.217287	-0.316491
C192	C	1.860671	0.467287	-0.066491
C193	C	1.110680	-0.282693	-0.893350
C194	C	1.360680	-0.032693	-0.643350
C195	C	1.610680	0.217307	-0.393350
C196	C	1.860680	0.467307	-0.143350
C197	C	1.016500	-0.369259	-0.893311
C198	C	1.266500	-0.119259	-0.643311
C199	C	1.516500	0.130741	-0.393311
C200	C	1.766500	0.380741	-0.143311
C201	C	1.016488	-0.369275	-0.816454
C202	C	1.266488	-0.119275	-0.566454
C203	C	1.516488	0.130725	-0.316454
C204	C	1.766488	0.380725	-0.066454
C205	C	1.063578	-0.326003	-0.778046
C206	C	1.313578	-0.076003	-0.528046
C207	C	1.563578	0.173997	-0.278046
C208	C	1.813578	0.423997	-0.028046
C209	C	1.063598	-0.325967	-0.931762
C210	C	1.313598	-0.075967	-0.681762
C211	C	1.563598	0.174033	-0.431762
C212	C	1.813598	0.424033	-0.181762
C213	C	1.063607	-0.325946	-1.015096
C214	C	1.313607	-0.075946	-0.765096
C215	C	1.563607	0.174054	-0.515096
C216	C	1.813607	0.424054	-0.265096
C217	C	1.063568	-0.326023	-0.694707
C218	C	1.313568	-0.076023	-0.444707
C219	C	1.563568	0.173977	-0.194707
C220	C	1.813568	0.423977	0.055293
C221	C	1.063493	-0.326103	-0.163324
C222	C	1.313493	-0.076103	0.086676
C223	C	1.563493	0.173897	0.336676
C224	C	1.813493	0.423897	0.586676
C225	C	1.063617	-0.325932	-0.081525
C226	C	1.313617	-0.075932	0.168475
C227	C	1.563617	0.174068	0.418475
C228	C	1.813617	0.424068	0.668475
H229	H	0.633642	-0.247672	-0.440074
H230	H	0.883642	0.002328	-0.190074
H231	H	1.133642	0.252328	0.059926
H232	H	1.383642	0.502328	0.309926
H233	H	1.148986	-1.067654	-0.440047
H234	H	1.398986	-0.817654	-0.190047
H235	H	1.648986	-0.567654	0.059953
H236	H	1.898986	-0.317654	0.309953
Br237	Br	0.473368	-0.224214	-0.465673
Br238	Br	0.723368	0.025786	-0.215673
Br239	Br	0.973368	0.275786	0.034327
Br240	Br	1.223368	0.525786	0.284327
Br241	Br	1.174577	-0.223985	-0.764368
Br242	Br	1.424577	0.026015	-0.514368
Br243	Br	1.674577	0.276015	-0.264368
Br244	Br	1.924577	0.526015	-0.014368
H245	H	1.148790	-0.583649	-0.439977
H246	H	1.398790	-0.333649	-0.189977
H247	H	1.648790	-0.083649	0.060023
H248	H	1.898790	0.166351	0.310023
Br249	Br	1.174369	-0.731038	-0.465590
Br250	Br	1.424369	-0.481038	-0.215590
Br251	Br	1.674369	-0.231038	0.034410
Br252	Br	1.924369	0.018962	0.284410
H253	H	0.978096	-0.583873	-0.269059
H254	H	1.228096	-0.333873	-0.019059
H255	H	1.478096	-0.083873	0.230941
H256	H	1.728096	0.166127	0.480941
Br257	Br	1.174462	-0.920185	-0.465597
Br258	Br	1.424462	-0.670185	-0.215597
Br259	Br	1.674462	-0.420185	0.034403
Br260	Br	1.924462	-0.170185	0.284403
Br261	Br	1.174601	-0.223944	-0.945523
Br262	Br	1.424601	0.026056	-0.695523
Br263	Br	1.674601	0.276056	-0.445523
Br264	Br	1.924601	0.526056	-0.195523
Br265	Br	0.952564	-0.428024	-0.764273
Br266	Br	1.202564	-0.178024	-0.514273
Br267	Br	1.452564	0.071976	-0.264273
Br268	Br	1.702564	0.321976	-0.014273
H269	H	0.978162	-0.404492	-0.924592
H270	H	1.228162	-0.154492	-0.674592
H271	H	1.478162	0.095508	-0.424592
H272	H	1.728162	0.345508	-0.174592
H273	H	0.978300	-1.067876	-0.269122
H274	H	1.228300	-0.817876	-0.019122
H275	H	1.478300	-0.567876	0.230878
H276	H	1.728300	-0.317876	0.480878
H277	H	0.978244	-0.939639	-0.269107
H278	H	1.228244	-0.689639	-0.019107
H279	H	1.478244	-0.439639	0.230893
H280	H	1.728244	-0.189639	0.480893
Br281	Br	0.654381	-0.428000	-0.243382
Br282	Br	0.904381	-0.178000	0.006618
Br283	Br	1.154381	0.072000	0.256618
Br284	Br	1.404381	0.322000	0.506618
Br285	Br	0.473213	-0.428024	-0.243404
Br286	Br	0.723213	-0.178024	0.006596
Br287	Br	0.973213	0.071976	0.256596
Br288	Br	1.223213	0.321976	0.506596
H289	H	0.978152	-0.712118	-0.269082
H290	H	1.228152	-0.462118	-0.019082
H291	H	1.478152	-0.212118	0.230918
H292	H	1.728152	0.037882	0.480918
