data_functionalizedCrystal
_audit_creation_method	'MofGen! by Chris Wilmer'
_symmetry_space_group_name_H-M	'P1'
_symmetry_Int_Tables_number	1
_symmetry_cell_setting	triclinic
loop_
_symmetry_equiv_pos_as_xyz
  x,y,z
_cell_length_a	14.586319
_cell_length_b	19.288864
_cell_length_c	19.288857
_cell_angle_alpha	96.865323
_cell_angle_beta	90.005938
_cell_angle_gamma	89.982652
loop_
_atom_site_label
_atom_site_type_symbol
_atom_site_fract_x
_atom_site_fract_y
_atom_site_fract_z
O1	O	0.076539	-0.921345	0.086647
O2	O	0.576539	-0.421345	0.586647
O3	O	0.076477	-0.719084	0.098336
O4	O	0.576477	-0.219084	0.598336
O5	O	0.076498	-0.826062	-0.008639
O6	O	0.576498	-0.326062	0.491361
O7	O	0.076517	-0.814367	0.193622
O8	O	0.576517	-0.314367	0.693622
O9	O	-0.075982	-0.826054	-0.008641
O10	O	0.424018	-0.326054	0.491359
O11	O	-0.076004	-0.719077	0.098334
O12	O	0.423996	-0.219077	0.598334
O13	O	-0.075942	-0.921338	0.086646
O14	O	0.424058	-0.421338	0.586646
Cu15	Cu	-0.089896	-0.820206	0.092490
Cu16	Cu	0.410104	-0.320206	0.592490
Cu17	Cu	0.090430	-0.820215	0.092492
Cu18	Cu	0.590430	-0.320215	0.592492
O19	O	-0.075964	-0.814360	0.193621
O20	O	0.424036	-0.314360	0.693621
C21	C	0.000228	-0.693204	0.097959
C22	C	0.500228	-0.193204	0.597959
C23	C	0.000204	-0.616100	0.096830
C24	C	0.500204	-0.116100	0.596830
C25	C	0.000257	-0.825683	-0.034516
C26	C	0.500257	-0.325683	0.465484
C27	C	0.000254	-0.824556	-0.111620
C28	C	0.500254	-0.324556	0.388380
N29	N	-0.216728	-0.820205	0.092488
N30	N	0.283272	-0.320205	0.592488
C31	C	-0.451724	-0.867591	0.045135
C32	C	0.048276	-0.367591	0.545135
C33	C	-0.547706	-0.867593	0.045134
C34	C	-0.047706	-0.367593	0.545134
C35	C	-0.547735	-0.772831	0.139843
C36	C	-0.047735	-0.272831	0.639843
C37	C	-0.451755	-0.772827	0.139841
C38	C	0.048245	-0.272827	0.639841
C39	C	-0.403752	-0.820210	0.092488
C40	C	0.096248	-0.320210	0.592488
C41	C	-0.595713	-0.820217	0.092488
C42	C	-0.095713	-0.320217	0.592488
C43	C	-0.699780	-0.820219	0.092487
C44	C	-0.199780	-0.320219	0.592487
C45	C	-0.299679	-0.820208	0.092488
C46	C	0.200321	-0.320208	0.592488
N47	N	0.217262	-0.820222	0.092488
N48	N	0.717262	-0.320222	0.592488
C49	C	0.000308	-0.947218	0.087022
C50	C	0.500308	-0.447218	0.587022
C51	C	0.000338	-1.024321	0.088151
C52	C	0.500338	-0.524321	0.588151
C53	C	0.000224	-0.571402	0.159598
C54	C	0.500224	-0.071402	0.659598
C55	C	0.000234	-0.498955	0.158537
C56	C	0.500234	0.001045	0.658537
C57	C	0.000242	-0.471209	0.094705
C58	C	0.500242	0.028791	0.594705
C59	C	0.000217	-0.515917	0.031929
C60	C	0.500217	-0.015917	0.531929
C61	C	0.000198	-0.588363	0.032991
C62	C	0.500198	-0.088363	0.532991
C63	C	0.053689	-0.362951	0.044526
C64	C	0.553689	0.137049	0.544526
C65	C	0.053714	-0.290507	0.043466
C66	C	0.553714	0.209493	0.543466
C67	C	0.000298	-0.247764	0.091425
C68	C	0.500298	0.252236	0.591425
C69	C	-0.053132	-0.277473	0.140456
C70	C	0.446868	0.222527	0.640456
C71	C	-0.053151	-0.349918	0.141519
C72	C	0.446849	0.150082	0.641519
C73	C	0.000263	-0.392656	0.093546
C74	C	0.500263	0.107344	0.593546
C75	C	0.000327	-0.124510	0.153048
C76	C	0.500327	0.375490	0.653048
C77	C	0.000332	-0.052062	0.151984
C78	C	0.500332	0.447938	0.651984
C79	C	0.000324	-0.069026	0.025374
C80	C	0.500324	0.430974	0.525374
C81	C	0.000310	-0.141472	0.026439
C82	C	0.500310	0.358528	0.526439
C83	C	0.000316	-0.169210	0.090278
C84	C	0.500316	0.330790	0.590278
C85	C	0.083371	-0.824034	-0.147830
C86	C	0.583371	-0.324034	0.352170
C87	C	0.083378	-0.822965	-0.220276
C88	C	0.583378	-0.322965	0.279724
C89	C	0.000262	-0.822432	-0.256511
C90	C	0.500262	-0.322432	0.243489
C91	C	-0.082866	-0.822950	-0.220292
C92	C	0.417134	-0.322950	0.279708
C93	C	-0.082870	-0.824012	-0.147847
C94	C	0.417130	-0.324012	0.352153
C95	C	-0.063397	-0.861431	-0.376744
C96	C	0.436603	-0.361431	0.123256
C97	C	-0.063390	-0.860373	-0.449188
C98	C	0.436610	-0.360373	0.050812
C99	C	0.000272	-0.819155	-0.479957
C100	C	0.500272	-0.319155	0.020043
C101	C	0.063941	-0.779002	-0.438274
C102	C	0.563941	-0.279002	0.061726
C103	C	0.063936	-0.780064	-0.365828
C104	C	0.563936	-0.280064	0.134172
C105	C	0.000257	-0.821281	-0.335066
C106	C	0.500257	-0.321281	0.164934
C107	C	0.083402	-0.817473	-0.594721
C108	C	0.583402	-0.317473	-0.094721
C109	C	0.083405	-0.816400	-0.667168
C110	C	0.583405	-0.316400	-0.167168
C111	C	-0.082841	-0.816392	-0.667184
C112	C	0.417159	-0.316392	-0.167184
C113	C	-0.082842	-0.817458	-0.594738
C114	C	0.417158	-0.317458	-0.094738
C115	C	0.000282	-0.818002	-0.558511
C116	C	0.500282	-0.318002	-0.058511
C117	C	0.000279	-0.814739	0.219498
C118	C	0.500279	-0.314739	0.719498
C119	C	0.000288	-0.815866	0.296602
C120	C	0.500288	-0.315866	0.796602
H121	H	-0.412643	-0.906172	0.006577
H122	H	0.087357	-0.406172	0.506577
Br123	Br	0.000256	-0.438282	0.243729
Br124	Br	0.500256	0.061718	0.743729
H125	H	-0.150556	-0.824434	-0.118365
H126	H	0.349444	-0.324434	0.381635
Br127	Br	-0.386642	-0.708515	0.204104
Br128	Br	0.113358	-0.208515	0.704104
Br129	Br	0.000231	-0.609043	0.246236
Br130	Br	0.500231	-0.109043	0.746236
H131	H	0.151086	-0.817912	-0.565223
H132	H	0.651086	-0.317912	-0.065223
Br133	Br	0.196188	-0.822254	-0.269429
Br134	Br	0.696188	-0.322254	0.230571
Br135	Br	0.000219	-0.478265	-0.054702
Br136	Br	0.500219	0.021735	0.445298
Br137	Br	0.196217	-0.815684	-0.716311
Br138	Br	0.696217	-0.315684	-0.216311
Br139	Br	0.150337	-0.725573	-0.309259
Br140	Br	0.650337	-0.225573	0.190741
Br141	Br	0.000351	0.008602	0.237178
Br142	Br	0.500351	0.508602	0.737178
H143	H	0.000319	-0.147095	0.205029
H144	H	0.500319	0.352905	0.705029
H145	H	-0.096659	-0.374104	0.181439
H146	H	0.403341	0.125896	0.681439
H147	H	-0.096630	-0.242672	0.179509
H148	H	0.403370	0.257328	0.679509
H149	H	-0.586762	-0.906173	0.006574
H150	H	-0.086762	-0.406173	0.506574
Br151	Br	-0.612884	-0.708529	0.204107
Br152	Br	-0.112884	-0.208529	0.704107
H153	H	0.000387	-0.046436	-0.026600
H154	H	0.500387	0.453564	0.473400
Br155	Br	0.000285	-0.202138	-0.058751
Br156	Br	0.500285	0.297862	0.441249
H157	H	0.097224	-0.266324	0.003546
H158	H	0.597224	0.233676	0.503546
H159	H	0.097193	-0.397748	0.005471
H160	H	0.597193	0.102252	0.505471
H161	H	-0.150539	-0.822515	-0.249800
H162	H	0.349461	-0.322515	0.250200
H163	H	0.000182	-0.624757	-0.018124
H164	H	0.500182	-0.124757	0.481876
Br165	Br	0.196182	-0.824769	-0.098668
Br166	Br	0.696182	-0.324769	0.401332
H167	H	0.115780	-0.745438	-0.463324
H168	H	0.615780	-0.245438	0.036676
Br169	Br	-0.195644	-0.815662	-0.716351
Br170	Br	0.304356	-0.315662	-0.216351
Br171	Br	-0.195651	-0.818163	-0.545592
Br172	Br	0.304349	-0.318163	-0.045592
Br173	Br	-0.149790	-0.914870	-0.505752
Br174	Br	0.350210	-0.414870	-0.005752
H175	H	-0.115245	-0.894995	-0.351698
H176	H	0.384755	-0.394995	0.148302
