data_functionalizedCrystal
_audit_creation_method	'MofGen! by Chris Wilmer'
_symmetry_space_group_name_H-M	'P1'
_symmetry_Int_Tables_number	1
_symmetry_cell_setting	triclinic
loop_
_symmetry_equiv_pos_as_xyz
  x,y,z
_cell_length_a	16.109301
_cell_length_b	17.038272
_cell_length_c	14.586319
_cell_angle_alpha	89.995924
_cell_angle_beta	89.999213
_cell_angle_gamma	87.286518
loop_
_atom_site_label
_atom_site_type_symbol
_atom_site_fract_x
_atom_site_fract_y
_atom_site_fract_z
O1	O	1.110268	0.100495	-0.076183
O2	O	1.610268	0.600495	0.423817
O3	O	0.869094	0.113001	-0.076198
O4	O	1.369094	0.613001	0.423802
O5	O	0.988248	-0.007067	-0.076183
O6	O	1.488248	0.492933	0.423817
O7	O	0.991114	0.220564	-0.076198
O8	O	1.491114	0.720564	0.423802
O9	O	0.988239	-0.007069	0.076298
O10	O	1.488239	0.492931	0.576298
O11	O	0.869085	0.113000	0.076283
O12	O	1.369085	0.613000	0.576283
O13	O	1.110259	0.100493	0.076298
O14	O	1.610259	0.600493	0.576298
Cu15	Cu	0.989671	0.106746	0.090213
Cu16	Cu	1.489671	0.606746	0.590213
Cu17	Cu	0.989682	0.106748	-0.090113
Cu18	Cu	1.489682	0.606748	0.409887
O19	O	0.991105	0.220562	0.076283
O20	O	1.491105	0.720562	0.576283
C21	C	0.838079	0.112494	0.000041
C22	C	1.338079	0.612494	0.500041
C23	C	0.745676	0.110975	0.000035
C24	C	1.245676	0.610975	0.500035
C25	C	0.528212	0.178690	0.000042
C26	C	1.028212	0.678690	0.500042
C27	C	0.441390	0.177257	0.000048
C28	C	0.941390	0.677257	0.500048
C29	C	0.451147	0.034799	0.000053
C30	C	0.951147	0.534799	0.500053
C31	C	0.537968	0.036233	0.000054
C32	C	1.037968	0.536233	0.500054
C33	C	0.576498	0.108181	0.000043
C34	C	1.076498	0.608181	0.500043
C35	C	0.402855	0.105314	0.000049
C36	C	0.902855	0.605314	0.500049
C37	C	0.308719	0.103759	0.000055
C38	C	0.808719	0.603759	0.500055
C39	C	0.670640	0.109736	0.000039
C40	C	1.170640	0.609736	0.500039
C41	C	0.985636	-0.036196	0.000057
C42	C	1.485636	0.463804	0.500057
C43	C	0.977857	-0.122989	0.000056
C44	C	1.477857	0.377011	0.500056
C45	C	1.049277	-0.173104	0.000062
C46	C	1.549277	0.326896	0.500062
C47	C	1.041963	-0.254654	0.000052
C48	C	1.541963	0.245346	0.500052
C49	C	0.963228	-0.286089	0.000044
C50	C	1.463228	0.213911	0.500044
C51	C	0.891802	-0.235967	0.000036
C52	C	1.391802	0.264033	0.500036
C53	C	0.899116	-0.154418	0.000039
C54	C	1.399116	0.345582	0.500039
C55	C	0.937385	-0.531846	0.000030
C56	C	1.437385	-0.031846	0.500030
C57	C	0.930076	-0.613402	0.000031
C58	C	1.430076	-0.113402	0.500031
C59	C	1.080238	-0.632083	0.000045
C60	C	1.580238	-0.132083	0.500045
C61	C	1.087546	-0.550532	0.000053
C62	C	1.587546	-0.050532	0.500053
C63	C	1.016120	-0.500418	0.000040
C64	C	1.516120	-0.000418	0.500040
C65	C	0.955749	-0.369446	0.000038
C66	C	1.455749	0.130554	0.500038
C67	C	1.023599	-0.417062	0.000040
C68	C	1.523599	0.082938	0.500040
C69	C	1.141274	0.101001	0.000057
C70	C	1.641274	0.601001	0.500057
C71	C	1.233677	0.102519	0.000057
C72	C	1.733677	0.602519	0.500057
C73	C	0.993717	0.249691	0.000041
C74	C	1.493717	0.749691	0.500041
C75	C	1.001496	0.336484	0.000036
C76	C	1.501496	0.836484	0.500036
N77	N	0.989670	0.106744	0.217045
N78	N	1.489670	0.606744	0.717045
N79	N	0.989689	0.106744	-0.216945
N80	N	1.489689	0.606744	0.283055
C81	C	1.042451	0.053596	0.452058
C82	C	1.542451	0.553596	0.952058
C83	C	1.042453	0.053594	0.548039
C84	C	1.542453	0.553594	1.048039
C85	C	0.936902	0.159895	0.548036
C86	C	1.436902	0.659895	1.048036
C87	C	0.936896	0.159893	0.452056
C88	C	1.436896	0.659893	0.952056
C89	C	0.989675	0.106744	0.404070
C90	C	1.489675	0.606744	0.904070
C91	C	0.989684	0.106744	0.596030
C92	C	1.489684	0.606744	1.096030
C93	C	0.989686	0.106743	0.700098
C94	C	1.489686	0.606743	1.200098
C95	C	0.989672	0.106744	0.299996
C96	C	1.489672	0.606744	0.799996
H97	H	0.419765	-0.023778	0.000067
H98	H	0.919765	0.476222	0.500067
H99	H	0.559580	0.237274	0.000040
H100	H	1.059580	0.737274	0.500040
C101	C	0.844640	-0.647642	-0.000125
C102	C	1.344640	-0.147642	0.499875
C103	C	0.836078	-0.693930	-0.078559
C104	C	1.336078	-0.193930	0.421441
C105	C	0.757396	-0.725496	-0.078725
C106	C	1.257396	-0.225496	0.421275
H107	H	0.803067	-0.606201	-0.000181
H108	H	1.303067	-0.106201	0.499819
H109	H	0.838653	-0.679112	0.053022
H110	H	1.338653	-0.179112	0.553022
H111	H	0.842057	-0.662462	-0.131693
H112	H	1.342057	-0.162462	0.368307
H113	H	0.877632	-0.735384	-0.078520
H114	H	1.377632	-0.235384	0.421480
H115	H	0.751409	-0.756966	-0.025578
H116	H	1.251409	-0.256966	0.474422
H117	H	0.715831	-0.684050	-0.078778
H118	H	1.215831	-0.184050	0.421222
H119	H	0.751580	-0.756912	-0.131937
H120	H	1.251580	-0.256912	0.368063
H121	H	1.100122	-0.295455	0.000059
H122	H	1.600122	0.204545	0.500059
C123	C	1.173008	-0.516357	0.000244
C124	C	1.673008	-0.016357	0.500244
C125	C	1.181593	-0.470107	0.078705
C126	C	1.681593	0.029893	0.578705
C127	C	1.260313	-0.438619	0.078920
C128	C	1.760313	0.061381	0.578920
H129	H	1.179068	-0.484874	-0.052866
H130	H	1.679068	0.015126	0.447134
H131	H	1.214528	-0.557859	0.000293
H132	H	1.714528	-0.057859	0.500293
H133	H	1.140086	-0.428610	0.078646
H134	H	1.640086	0.071390	0.578646
H135	H	1.175550	-0.501572	0.131827
H136	H	1.675550	-0.001572	0.631827
H137	H	1.301832	-0.480121	0.078970
H138	H	1.801832	0.019879	0.578970
H139	H	1.266366	-0.407140	0.025807
H140	H	1.766366	0.092860	0.525807
H141	H	1.266151	-0.407240	0.132159
H142	H	1.766151	0.092760	0.632159
C143	C	1.099672	-0.004062	0.399791
C144	C	1.599672	0.495938	0.899791
C145	C	1.088371	0.007305	0.305464
C146	C	1.588371	0.507305	0.805464
C147	C	1.141057	-0.045808	0.257291
C148	C	1.641057	0.454192	0.757291
H149	H	1.086964	-0.056263	0.415443
H150	H	1.586964	0.443737	0.915443
H151	H	1.155792	0.004410	0.415438
H152	H	1.655792	0.504410	0.915438
H153	H	1.032264	-0.001173	0.289824
H154	H	1.532264	0.498827	0.789824
H155	H	1.101085	0.059495	0.289786
H156	H	1.601085	0.559495	0.789786
H157	H	1.197177	-0.037335	0.272938
H158	H	1.697177	0.462665	0.772938
H159	H	1.128345	-0.098005	0.272950
H160	H	1.628345	0.401995	0.772950
H161	H	1.133402	-0.038097	0.193286
H162	H	1.633402	0.461903	0.693286
C163	C	0.821643	-0.099913	0.000178
C164	C	1.321643	0.400087	0.500178
C165	C	0.821457	-0.052539	0.078612
C166	C	1.321457	0.447461	0.578612
C167	C	0.750105	-0.002314	0.078760
C168	C	1.250105	0.497686	0.578760
H169	H	0.773641	-0.130214	0.000221
H170	H	1.273641	0.369786	0.500221
H171	H	0.821377	-0.067664	-0.052969
H172	H	1.321377	0.432336	0.447031
H173	H	0.821715	-0.084784	0.131746
H174	H	1.321715	0.415216	0.631746
H175	H	0.869443	-0.022221	0.078586
H176	H	1.369443	0.477779	0.578586
H177	H	0.749840	0.029935	0.025613
H178	H	1.249840	0.529935	0.525613
H179	H	0.702109	-0.032621	0.078801
H180	H	1.202109	0.467379	0.578801
H181	H	0.749974	0.029841	0.131972
H182	H	1.249974	0.529841	0.631972
H183	H	1.085426	0.010315	0.587108
H184	H	1.585426	0.510315	1.087108
C185	C	1.157753	-0.686531	-0.000141
C186	C	1.657753	-0.186531	0.499859
C187	C	1.157955	-0.733873	-0.078603
C188	C	1.657955	-0.233873	0.421397
C189	C	1.229357	-0.784032	-0.078815
C190	C	1.729357	-0.284032	0.421185
H191	H	1.158095	-0.718811	0.052969
H192	H	1.658095	-0.218811	0.552969
H193	H	1.205714	-0.656158	-0.000187
H194	H	1.705714	-0.156158	0.499813
H195	H	1.110007	-0.764243	-0.078548
H196	H	1.610007	-0.264243	0.421452
H197	H	1.157625	-0.701614	-0.131725
H198	H	1.657625	-0.201614	0.368275
H199	H	1.277318	-0.753659	-0.078862
H200	H	1.777318	-0.253659	0.421138
H201	H	1.229693	-0.816307	-0.025703
H202	H	1.729693	-0.316307	0.474297
H203	H	1.229508	-0.816154	-0.132055
H204	H	1.729508	-0.316154	0.367945
C205	C	0.879699	0.217568	0.600303
C206	C	1.379699	0.717568	1.100303
C207	C	0.891016	0.206212	0.694630
C208	C	1.391016	0.706212	1.194630
C209	C	0.838344	0.259336	0.742805
C210	C	1.338344	0.759336	1.242805
H211	H	0.823578	0.209116	0.584693
H212	H	1.323578	0.709116	1.084693
H213	H	0.892427	0.269767	0.584617
H214	H	1.392427	0.769767	1.084617
H215	H	0.878282	0.154026	0.710310
H216	H	1.378282	0.654026	1.210310
H217	H	0.947127	0.214671	0.710268
H218	H	1.447127	0.714671	1.210268
H219	H	0.851072	0.311535	0.727118
H220	H	1.351072	0.811535	1.227118
H221	H	0.782226	0.250879	0.727187
H222	H	1.282226	0.750879	1.227187
H223	H	0.846021	0.251643	0.806810
H224	H	1.346021	0.751643	1.306810
H225	H	0.577284	-0.021187	0.000057
H226	H	1.077284	0.478813	0.500057
H227	H	0.893916	0.203173	0.412982
H228	H	1.393916	0.703173	0.912982
C229	C	0.806242	-0.269941	-0.000022
C230	C	1.306242	0.230059	0.499978
C231	C	0.745260	-0.208595	-0.000053
C232	C	1.245260	0.291405	0.499947
C233	C	0.666431	-0.239860	-0.000118
C234	C	1.166431	0.260140	0.499882
H235	H	0.800142	-0.301357	0.053135
H236	H	1.300142	0.198643	0.553135
H237	H	0.800229	-0.301339	-0.053218
H238	H	1.300229	0.198661	0.446782
H239	H	0.751269	-0.177211	0.053138
H240	H	1.251269	0.322789	0.553138
H241	H	0.751332	-0.177174	-0.053207
H242	H	1.251332	0.322826	0.446793
H243	H	0.660419	-0.271257	-0.053314
H244	H	1.160419	0.228743	0.446686
H245	H	0.660341	-0.271275	0.053040
H246	H	1.160341	0.228725	0.553040
H247	H	0.625046	-0.198242	-0.000148
H248	H	1.125046	0.301758	0.499852
C249	C	1.109029	-0.382828	-0.000094
C250	C	1.609029	0.117172	0.499906
C251	C	1.117611	-0.336534	-0.078528
C252	C	1.617611	0.163466	0.421472
C253	C	1.196293	-0.304969	-0.078673
C254	C	1.696293	0.195031	0.421327
H255	H	1.150601	-0.424270	-0.000135
H256	H	1.650601	0.075730	0.499865
H257	H	1.115002	-0.351362	0.053053
H258	H	1.615002	0.148638	0.553053
H259	H	1.111646	-0.367999	-0.131662
H260	H	1.611646	0.132001	0.368338
H261	H	1.076058	-0.295080	-0.078504
H262	H	1.576058	0.204920	0.421496
H263	H	1.202266	-0.273503	-0.025526
H264	H	1.702266	0.226497	0.474474
H265	H	1.237858	-0.346416	-0.078712
H266	H	1.737858	0.153584	0.421288
H267	H	1.202123	-0.273550	-0.131885
H268	H	1.702123	0.226450	0.368115
C269	C	0.870319	-0.403687	-0.000104
C270	C	1.370319	0.096313	0.499896
C271	C	0.861749	-0.449968	-0.078543
C272	C	1.361749	0.050032	0.421457
C273	C	0.783068	-0.481535	-0.078701
C274	C	1.283068	0.018465	0.421299
H275	H	0.828746	-0.362246	-0.000149
H276	H	1.328746	0.137754	0.499851
H277	H	0.864339	-0.435162	0.053040
H278	H	1.364339	0.064838	0.553040
H279	H	0.867721	-0.418495	-0.131673
H280	H	1.367721	0.081505	0.368327
H281	H	0.903303	-0.491421	-0.078514
H282	H	1.403303	0.008579	0.421486
H283	H	0.777088	-0.513010	-0.025556
H284	H	1.277088	-0.013010	0.474444
H285	H	0.741502	-0.440090	-0.078743
H286	H	1.241502	0.059910	0.421257
H287	H	0.777246	-0.512946	-0.131915
H288	H	1.277246	-0.012946	0.368085
C289	C	1.134785	-0.139023	-0.000122
C290	C	1.634785	0.360977	0.499878
C291	C	1.178295	-0.164474	-0.078581
C292	C	1.678295	0.335526	0.421419
C293	C	1.257064	-0.133089	-0.078792
C294	C	1.757064	0.366911	0.421208
H295	H	1.164537	-0.156209	0.052989
H296	H	1.664537	0.343791	0.552989
H297	H	1.128950	-0.083274	-0.000170
H298	H	1.628950	0.416726	0.499830
H299	H	1.184134	-0.220211	-0.078525
H300	H	1.684134	0.279789	0.421475
H301	H	1.148569	-0.147289	-0.131705
H302	H	1.648569	0.352711	0.368295
H303	H	1.251229	-0.077340	-0.078840
H304	H	1.751229	0.422660	0.421160
H305	H	1.286808	-0.150277	-0.025678
H306	H	1.786808	0.349723	0.474322
H307	H	1.286593	-0.150347	-0.132030
H308	H	1.786593	0.349653	0.367970
H309	H	0.402079	0.234672	0.000048
H310	H	0.902079	0.734672	0.500048
H311	H	0.879224	-0.491053	0.000020
H312	H	1.379224	0.008947	0.500020
