data_functionalizedCrystal
_audit_creation_method	'MofGen! by Chris Wilmer'
_symmetry_space_group_name_H-M	'P1'
_symmetry_Int_Tables_number	1
_symmetry_cell_setting	triclinic
loop_
_symmetry_equiv_pos_as_xyz
  x,y,z
_cell_length_a	10.540539
_cell_length_b	10.540539
_cell_length_c	9.616153
_cell_angle_alpha	89.999906
_cell_angle_beta	89.995174
_cell_angle_gamma	84.525492
loop_
_atom_site_label
_atom_site_type_symbol
_atom_site_fract_x
_atom_site_fract_y
_atom_site_fract_z
O1	O	1.685892	0.178895	-0.115573
O2	O	1.316479	0.195751	-0.115589
O3	O	1.509614	0.002617	-0.115579
O4	O	1.492758	0.372030	-0.115583
O5	O	1.509587	0.002621	0.115712
O6	O	1.316452	0.195755	0.115702
O7	O	1.685865	0.178899	0.115718
Zn8	Zn	1.501155	0.187328	0.152433
Zn9	Zn	1.501190	0.187323	-0.152304
O10	O	1.492731	0.372034	0.115708
C11	C	1.269163	0.194489	0.000054
C12	C	1.128215	0.190707	0.000048
C13	C	0.944788	0.045790	0.000589
C14	C	1.091406	0.049624	0.000054
C15	C	1.066557	0.258600	-0.132027
C16	C	0.920013	0.253785	-0.132123
C17	C	0.919494	0.256660	0.130899
C18	C	1.066476	0.257959	0.132630
C19	C	1.508336	-0.044684	0.000064
C20	C	1.504554	-0.185632	0.000056
C21	C	1.359637	-0.369059	-0.000469
C22	C	1.363471	-0.222441	0.000052
C23	C	1.572435	-0.247288	0.132138
C24	C	1.567620	-0.393832	0.132249
C25	C	1.570519	-0.394355	-0.130772
C26	C	1.571819	-0.247373	-0.132518
C27	C	1.733182	0.180161	0.000072
C28	C	1.874130	0.183943	0.000069
C29	C	1.494008	0.419335	0.000062
C30	C	1.497790	0.560283	0.000060
N31	N	1.501140	0.187331	0.360407
N32	N	1.501215	0.187310	-0.360278
C33	C	1.397510	0.290298	0.580772
C34	C	1.397739	0.290684	0.419604
C35	C	1.633864	0.217464	0.418862
C36	C	1.633299	0.218193	0.580080
C37	C	1.473368	0.053892	0.580319
C38	C	1.470321	0.054757	0.419092
H39	H	1.109157	0.211434	-0.230318
H40	H	1.304122	-0.399265	0.093714
N41	N	1.506137	-0.193138	-0.261956
H42	H	1.549824	-0.233202	-0.346879
H43	H	1.413983	-0.212002	-0.260995
H44	H	1.674680	-0.223152	-0.140490
N45	N	1.510063	-0.436151	-0.263384
H46	H	1.434909	-0.484924	-0.239989
H47	H	1.480196	-0.358720	-0.320700
N48	N	1.098555	0.394212	0.143194
H49	H	1.017381	0.453445	0.142026
H50	H	1.145999	0.405999	0.232806
N51	N	0.856496	0.388192	-0.140075
H52	H	0.802191	0.397988	-0.226643
H53	H	0.801083	0.406281	-0.055346
H54	H	1.672423	-0.441581	-0.131656
N55	N	1.096175	0.395836	-0.138564
H56	H	1.149975	0.415364	-0.055775
H57	H	1.144296	0.410336	-0.227090
N58	N	1.421108	0.421887	0.368484
H59	H	1.431346	0.479685	0.450679
H60	H	1.501177	0.416108	0.310219
H61	H	1.525259	-0.204686	0.230425
H62	H	0.914592	-0.009712	-0.093600
H63	H	1.415178	0.388722	0.621270
H64	H	1.712918	0.144501	0.380514
N65	N	1.347852	0.015918	0.634212
H66	H	1.362838	-0.066665	0.687608
H67	H	1.307831	0.084898	0.697636
H68	H	0.916192	-0.009944	0.095307
N69	N	1.702018	-0.457366	0.140230
H70	H	1.711780	-0.511665	0.226809
H71	H	1.720118	-0.512789	0.055514
N72	N	1.292719	-0.165997	-0.125358
H73	H	1.258753	-0.236356	-0.181477
H74	H	1.219465	-0.103963	-0.093706
H75	H	1.299122	0.272553	0.380085
H76	H	1.309662	-0.180683	0.094886
H77	H	1.133162	-0.004177	-0.094786
H78	H	1.540848	-0.025564	0.378801
N79	N	0.882647	0.187312	-0.262889
H80	H	0.961338	0.161406	-0.319928
H81	H	0.839562	0.109014	-0.237171
N82	N	1.120709	0.192263	0.262061
H83	H	1.080646	0.235940	0.346988
H84	H	1.101843	0.100109	0.261097
N85	N	1.501141	-0.431197	0.263022
H86	H	1.475231	-0.352505	0.320053
H87	H	1.422845	-0.474284	0.237314
H88	H	1.548980	-0.022762	0.618439
N89	N	0.856945	0.391643	0.132108
H90	H	0.881151	0.437160	0.045009
H91	H	0.761334	0.390208	0.135781
H92	H	1.657654	0.315531	0.617668
H93	H	0.887936	0.211004	0.231010
N94	N	1.285814	-0.406941	-0.125926
H95	H	1.341202	-0.470277	-0.183639
H96	H	1.207411	-0.446973	-0.094295
H97	H	1.712941	0.146204	0.619073
N98	N	1.147851	-0.021128	0.125464
H99	H	1.077492	-0.055096	0.181592
H100	H	1.209888	-0.094382	0.093817
N101	N	1.666858	0.344937	0.365366
H102	H	1.596029	0.383341	0.303280
H103	H	1.677788	0.403779	0.446480
H104	H	1.372683	0.031917	0.380887
H105	H	1.676042	-0.224933	0.137054
H106	H	1.298585	0.272445	0.619578
