data_functionalizedCrystal
_audit_creation_method	'MofGen! by Chris Wilmer'
_symmetry_space_group_name_H-M	'P1'
_symmetry_Int_Tables_number	1
_symmetry_cell_setting	triclinic
loop_
_symmetry_equiv_pos_as_xyz
  x,y,z
_cell_length_a	17.640112
_cell_length_b	19.805405
_cell_length_c	19.805399
_cell_angle_alpha	89.969291
_cell_angle_beta	101.179593
_cell_angle_gamma	101.251918
loop_
_atom_site_label
_atom_site_type_symbol
_atom_site_fract_x
_atom_site_fract_y
_atom_site_fract_z
Zn1	Zn	1.208314	-0.060065	-0.173858
Zn2	Zn	1.541648	0.273269	0.159476
Zn3	Zn	1.874981	0.606602	0.492809
Zn4	Zn	1.208221	-0.173272	-0.060682
Zn5	Zn	1.541554	0.160061	0.272651
Zn6	Zn	1.874888	0.493395	0.605985
Zn7	Zn	1.076146	-0.082991	-0.083527
Zn8	Zn	1.409479	0.250342	0.249806
Zn9	Zn	1.742812	0.583675	0.583139
Zn10	Zn	1.076097	-0.196131	-0.196666
Zn11	Zn	1.409430	0.137203	0.136667
Zn12	Zn	1.742764	0.470536	0.470001
O13	O	1.142194	-0.128115	-0.128683
O14	O	1.475528	0.205219	0.204650
O15	O	1.808861	0.538552	0.537983
O16	O	1.318909	-0.055920	-0.139738
O17	O	1.652243	0.277413	0.193595
O18	O	1.985576	0.610746	0.526928
O19	O	1.190682	-0.161324	0.031001
O20	O	1.524016	0.172009	0.364334
O21	O	1.857349	0.505342	0.697668
O22	O	1.093738	0.014777	-0.095525
O23	O	1.427071	0.348110	0.237808
O24	O	1.760404	0.681444	0.571142
O25	O	1.318841	-0.139093	-0.056589
O26	O	1.652174	0.194240	0.276744
O27	O	1.985507	0.527573	0.610078
O28	O	1.190841	0.031621	-0.161890
O29	O	1.524175	0.364954	0.171443
O30	O	1.857508	0.698288	0.504776
O31	O	1.093647	-0.094996	0.014217
O32	O	1.426981	0.238338	0.347550
O33	O	1.760314	0.571671	0.680883
O34	O	0.965532	-0.117161	-0.117641
O35	O	1.298865	0.216172	0.215692
O36	O	1.632199	0.549506	0.549025
O37	O	1.093654	-0.178053	-0.288354
O38	O	1.426988	0.155280	0.044979
O39	O	1.760321	0.488614	0.378313
O40	O	0.965496	-0.200284	-0.200764
O41	O	1.298829	0.133049	0.132569
O42	O	1.632163	0.466383	0.465902
O43	O	1.190794	-0.078086	-0.271597
O44	O	1.524127	0.255248	0.061737
O45	O	1.857461	0.588581	0.395070
O46	O	1.190635	-0.271031	-0.078705
O47	O	1.523968	0.062302	0.254628
O48	O	1.857302	0.395636	0.587961
O49	O	1.093564	-0.287825	-0.178612
O50	O	1.426897	0.045508	0.154721
O51	O	1.760231	0.378841	0.488054
C52	C	1.142106	-0.303986	-0.128666
C53	C	1.475439	0.029347	0.204667
C54	C	1.808772	0.362681	0.538001
C55	C	1.142140	-0.379212	-0.128669
C56	C	1.475473	-0.045879	0.204665
C57	C	1.808806	0.287455	0.537998
C58	C	0.936835	-0.163691	-0.164157
C59	C	1.270168	0.169642	0.169176
C60	C	1.603501	0.502975	0.502509
C61	C	0.848981	-0.178927	-0.179349
C62	C	1.182314	0.154406	0.153984
C63	C	1.515648	0.487739	0.487317
C64	C	1.192734	-0.405781	-0.076684
C65	C	1.526067	-0.072447	0.256649
C66	C	1.859400	0.260886	0.589983
C67	C	1.192767	-0.476463	-0.076693
C68	C	1.526101	-0.143130	0.256640
C69	C	1.859434	0.190204	0.589974
C70	C	1.142202	-0.520577	-0.128685
C71	C	1.475536	-0.187244	0.204649
C72	C	1.808869	0.146090	0.537982
C73	C	1.091606	-0.494004	-0.180675
C74	C	1.424940	-0.160671	0.152659
C75	C	1.758273	0.172663	0.485992
C76	C	1.091577	-0.423322	-0.180668
C77	C	1.424911	-0.089988	0.152666
C78	C	1.758244	0.243345	0.485999
C79	C	1.091723	-0.779057	-0.180705
C80	C	1.425056	-0.445724	0.152629
C81	C	1.758389	-0.112390	0.485962
C82	C	1.091754	-0.849744	-0.180706
C83	C	1.425087	-0.516410	0.152627
C84	C	1.758421	-0.183077	0.485960
C85	C	1.192913	-0.832198	-0.076730
C86	C	1.526246	-0.498865	0.256603
C87	C	1.859580	-0.165532	0.589937
C88	C	1.192884	-0.761516	-0.076723
C89	C	1.526217	-0.428183	0.256610
C90	C	1.859551	-0.094850	0.589944
C91	C	1.142291	-0.734949	-0.128715
C92	C	1.475624	-0.401615	0.204619
C93	C	1.808958	-0.068282	0.537952
C94	C	1.142256	-0.658306	-0.128705
C95	C	1.475590	-0.324973	0.204629
C96	C	1.808923	0.008360	0.537962
C97	C	1.142233	-0.597219	-0.128692
C98	C	1.475566	-0.263885	0.204641
C99	C	1.808899	0.069448	0.537974
C100	C	0.560025	-0.012356	-0.013277
C101	C	0.893358	0.320978	0.320056
C102	C	1.226691	0.654311	0.653390
C103	C	0.477473	-0.026686	-0.027561
C104	C	0.810806	0.306647	0.305772
C105	C	1.144139	0.639981	0.639105
C106	C	0.477490	-0.113361	-0.113968
C107	C	0.810823	0.219972	0.219366
C108	C	1.144156	0.553305	0.552699
C109	C	0.560043	-0.099036	-0.099693
C110	C	0.893377	0.234297	0.233640
C111	C	1.226710	0.567631	0.566974
C112	C	0.601304	-0.048533	-0.049346
C113	C	0.934638	0.284800	0.283987
C114	C	1.267971	0.618134	0.617320
C115	C	0.601323	-0.135213	-0.135762
C116	C	0.934656	0.198120	0.197571
C117	C	1.267990	0.531454	0.530904
C118	C	0.683869	-0.120891	-0.121486
C119	C	1.017203	0.212442	0.211847
C120	C	1.350536	0.545776	0.545181
C121	C	0.725136	-0.070392	-0.071140
C122	C	1.058470	0.262941	0.262193
C123	C	1.391803	0.596275	0.595526
C124	C	0.683851	-0.034211	-0.035070
C125	C	1.017184	0.299122	0.298263
C126	C	1.350517	0.632456	0.631597
C127	C	0.560060	-0.185719	-0.186105
C128	C	0.893394	0.147614	0.147228
C129	C	1.226727	0.480947	0.480561
C130	C	0.601340	-0.221896	-0.222175
C131	C	0.934673	0.111437	0.111159
C132	C	1.268007	0.444770	0.444492
C133	C	0.683888	-0.207571	-0.207902
C134	C	1.017221	0.125762	0.125431
C135	C	1.350555	0.459095	0.458765
C136	C	0.725155	-0.157072	-0.157556
C137	C	1.058488	0.176261	0.175777
C138	C	1.391822	0.509595	0.509110
C139	C	0.725173	-0.243752	-0.243972
C140	C	1.058507	0.089581	0.089361
C141	C	1.391840	0.422914	0.422694
C142	C	0.807720	-0.229430	-0.229696
C143	C	1.141053	0.103903	0.103637
C144	C	1.474387	0.437236	0.436971
C145	C	0.807701	-0.142750	-0.143280
C146	C	1.141035	0.190583	0.190053
C147	C	1.474368	0.523917	0.523387
C148	C	1.348356	-0.092400	-0.093071
C149	C	1.681689	0.240934	0.240262
C150	C	2.015023	0.574267	0.573596
C151	C	1.436210	-0.077180	-0.077895
C152	C	1.769543	0.256153	0.255438
C153	C	2.102877	0.589487	0.588771
C154	C	1.142229	-0.128062	-0.305220
C155	C	1.475562	0.205272	0.028113
C156	C	1.808896	0.538605	0.361447
C157	C	1.142244	-0.128039	-0.380450
C158	C	1.475577	0.205294	-0.047116
C159	C	1.808911	0.538628	0.286217
C160	C	1.142305	0.048447	-0.128712
C161	C	1.475639	0.381781	0.204622
C162	C	1.808972	0.715114	0.537955
C163	C	1.142353	0.123688	-0.128724
C164	C	1.475686	0.457021	0.204609
C165	C	1.809019	0.790354	0.537943
C166	C	1.091732	-0.093495	-0.424530
C167	C	1.425065	0.239838	-0.091197
C168	C	1.758399	0.573172	0.242136
C169	C	1.091743	-0.093480	-0.495217
C170	C	1.425076	0.239853	-0.161883
C171	C	1.758410	0.573187	0.171450
C172	C	1.142270	-0.128005	-0.521821
C173	C	1.475604	0.205328	-0.188487
C174	C	1.808937	0.538661	0.144846
C175	C	1.192784	-0.162554	-0.477735
C176	C	1.526118	0.170780	-0.144401
C177	C	1.859451	0.504113	0.188932
C178	C	1.192769	-0.162572	-0.407050
C179	C	1.526102	0.170761	-0.073717
C180	C	1.859435	0.504094	0.259617
C181	C	1.192847	-0.162479	-0.762797
C182	C	1.526180	0.170854	-0.429464
C183	C	1.859514	0.504187	-0.096131
C184	C	1.192860	-0.162456	-0.833487
C185	C	1.526194	0.170877	-0.500154
C186	C	1.859527	0.504210	-0.166820
C187	C	1.091821	-0.093387	-0.850964
C188	C	1.425154	0.239946	-0.517631
C189	C	1.758488	0.573280	-0.184297
C190	C	1.091806	-0.093406	-0.780279
C191	C	1.425139	0.239927	-0.446946
C192	C	1.758472	0.573261	-0.113613
C193	C	1.142316	-0.127957	-0.736200
C194	C	1.475650	0.205376	-0.402867
C195	C	1.808983	0.538710	-0.069533
C196	C	1.142303	-0.127974	-0.659554
C197	C	1.475636	0.205359	-0.326221
C198	C	1.808970	0.538693	0.007113
C199	C	1.142288	-0.127985	-0.598465
C200	C	1.475622	0.205349	-0.265131
C201	C	1.808955	0.538682	0.068202
C202	C	1.142205	-0.128111	0.047175
C203	C	1.475539	0.205223	0.380508
C204	C	1.808872	0.538556	0.713841
C205	C	1.142344	-0.127916	0.122430
C206	C	1.475677	0.205417	0.455763
C207	C	1.809010	0.538751	0.789097
H208	H	1.233906	-0.369867	-0.034344
H209	H	1.567239	-0.036534	0.298989
H210	H	1.900573	0.296799	0.632323
Cl211	Cl	1.028183	-0.905201	-0.246074
Cl212	Cl	1.361517	-0.571867	0.087260
Cl213	Cl	1.694850	-0.238534	0.420593
Cl214	Cl	0.549462	-0.285391	-0.285457
Cl215	Cl	0.882795	0.047942	0.047876
Cl216	Cl	1.216128	0.381275	0.381210
H217	H	0.492846	-0.197378	-0.197727
H218	H	0.826179	0.135955	0.135606
H219	H	1.159512	0.469288	0.468940
H220	H	1.050439	-0.529926	-0.223010
H221	H	1.383772	-0.196593	0.110324
H222	H	1.717105	0.136740	0.443657
Cl223	Cl	1.028203	-0.050089	-0.550636
Cl224	Cl	1.361536	0.283244	-0.217303
Cl225	Cl	1.694869	0.616578	0.116030
Cl226	Cl	0.425611	-0.176856	-0.177250
Cl227	Cl	0.758944	0.156477	0.156083
Cl228	Cl	1.092278	0.489810	0.489417
H229	H	1.050664	-0.065289	-0.758622
H230	H	1.383997	0.268044	-0.425289
H231	H	1.717331	0.601378	-0.091956
H232	H	1.050380	-0.401691	-0.222999
H233	H	1.383713	-0.068358	0.110334
H234	H	1.717046	0.264976	0.443667
Cl235	Cl	1.028318	-0.049954	-0.906383
Cl236	Cl	1.361651	0.283380	-0.573050
Cl237	Cl	1.694984	0.616713	-0.239716
Cl238	Cl	1.256384	-0.205864	-0.866931
Cl239	Cl	1.589717	0.127469	-0.533597
Cl240	Cl	1.923050	0.460802	-0.200264
H241	H	0.691566	-0.284876	-0.284959
H242	H	1.024900	0.048457	0.048374
H243	H	1.358233	0.381790	0.381707
Cl244	Cl	1.256454	-0.706062	-0.011360
Cl245	Cl	1.589787	-0.372729	0.321974
Cl246	Cl	1.923121	-0.039396	0.655307
H247	H	0.841331	-0.258889	-0.259068
H248	H	1.174664	0.074445	0.074265
H249	H	1.507997	0.407778	0.407599
Cl250	Cl	1.256377	-0.509860	-0.011339
Cl251	Cl	1.589710	-0.176526	0.321994
Cl252	Cl	1.923043	0.156807	0.655327
Cl253	Cl	1.256352	-0.205909	-0.707391
Cl254	Cl	1.589686	0.127424	-0.374058
Cl255	Cl	1.923019	0.460758	-0.040725
Cl256	Cl	1.028212	-0.050085	-0.391092
Cl257	Cl	1.361545	0.283248	-0.057759
Cl258	Cl	1.694879	0.616581	0.275574
Cl259	Cl	0.735728	0.029284	0.028220
Cl260	Cl	1.069061	0.362617	0.361553
Cl261	Cl	1.402395	0.695951	0.694886
Cl262	Cl	0.859579	-0.079255	-0.079990
Cl263	Cl	1.192912	0.254078	0.253343
Cl264	Cl	1.526245	0.587412	0.586676
H265	H	1.050527	-0.757432	-0.223037
H266	H	1.383860	-0.424099	0.110297
H267	H	1.717194	-0.090765	0.443630
Cl268	Cl	1.256521	-0.865601	-0.011371
Cl269	Cl	1.589854	-0.532267	0.321962
Cl270	Cl	1.923188	-0.198934	0.655296
H271	H	1.233920	-0.190669	-0.499402
H272	H	1.567254	0.142664	-0.166068
H273	H	1.900587	0.475998	0.167265
H274	H	1.233907	-0.190696	-0.371159
H275	H	1.567240	0.142638	-0.037825
H276	H	1.900573	0.475971	0.295508
H277	H	0.792351	-0.058733	-0.059516
H278	H	1.125684	0.274600	0.273817
H279	H	1.459018	0.607933	0.607151
H280	H	0.593622	0.028779	0.027710
H281	H	0.926955	0.362112	0.361044
H282	H	1.260288	0.695445	0.694377
H283	H	0.443866	0.002782	0.001810
H284	H	0.777199	0.336116	0.335143
H285	H	1.110532	0.669449	0.668476
