data_functionalizedCrystal
_audit_creation_method	'MofGen! by Chris Wilmer'
_symmetry_space_group_name_H-M	'P1'
_symmetry_Int_Tables_number	1
_symmetry_cell_setting	triclinic
loop_
_symmetry_equiv_pos_as_xyz
  x,y,z
_cell_length_a	15.944551
_cell_length_b	15.944545
_cell_length_c	15.021413
_cell_angle_alpha	90.002227
_cell_angle_beta	89.996338
_cell_angle_gamma	96.502545
loop_
_atom_site_label
_atom_site_type_symbol
_atom_site_fract_x
_atom_site_fract_y
_atom_site_fract_z
O1	O	-0.108312	1.114528	0.073965
O2	O	0.391688	1.614528	0.573965
O3	O	-0.121673	0.869977	0.073978
O4	O	0.378327	1.369977	0.573978
O5	O	0.007283	0.998930	0.073976
O6	O	0.507283	1.498930	0.573976
O7	O	-0.237267	0.985574	0.073966
O8	O	0.262733	1.485574	0.573966
O9	O	0.007296	0.998919	-0.074088
O10	O	0.507296	1.498919	0.425912
O11	O	-0.121660	0.869966	-0.074086
O12	O	0.378340	1.369966	0.425914
O13	O	-0.108298	1.114516	-0.074100
O14	O	0.391702	1.614516	0.425900
Zn15	Zn	-0.114977	0.992239	-0.097601
Zn16	Zn	0.385023	1.492239	0.402399
Zn17	Zn	-0.114995	0.992254	0.097480
Zn18	Zn	0.385005	1.492254	0.597480
O19	O	-0.237254	0.985563	-0.074098
O20	O	0.262746	1.485563	0.425902
C21	C	-0.121113	0.838677	-0.000052
C22	C	0.378887	1.338677	0.499948
C23	C	-0.119453	0.745431	-0.000047
C24	C	0.380547	1.245431	0.499953
C25	C	-0.034559	0.474798	-0.000053
C26	C	0.465441	0.974798	0.499947
C27	C	-0.075481	0.525374	-0.073060
C28	C	0.424519	1.025374	0.426940
C29	C	-0.113532	0.409787	-0.000062
C30	C	0.386468	0.909787	0.499938
C31	C	-0.075516	0.525366	0.072920
C32	C	0.424484	1.025366	0.572920
C33	C	-0.116437	0.574701	-0.000053
C34	C	0.383563	1.074701	0.499947
C35	C	-0.154433	0.459135	-0.073129
C36	C	0.345567	0.959135	0.426871
C37	C	-0.154456	0.459123	0.072916
C38	C	0.345544	0.959123	0.572916
C39	C	-0.195436	0.509667	-0.000109
C40	C	0.304564	1.009667	0.499891
C41	C	-0.111856	0.314785	-0.000068
C42	C	0.388144	0.814785	0.499932
C43	C	-0.118119	0.669700	-0.000054
C44	C	0.381881	1.169700	0.499946
C45	C	-0.268555	0.986123	-0.000067
C46	C	0.231445	1.486123	0.499933
C47	C	-0.361801	0.987785	-0.000071
C48	C	0.138199	1.487785	0.499929
C49	C	-0.576656	1.071690	-0.000062
C50	C	-0.076656	1.571690	0.499938
C51	C	-0.637666	1.032722	-0.073064
C52	C	-0.137666	1.532722	0.426936
C53	C	-0.532527	0.990793	-0.000063
C54	C	-0.032527	1.490793	0.499937
C55	C	-0.637665	1.032714	0.072916
C56	C	-0.137665	1.532714	0.572916
C57	C	-0.697439	0.993703	-0.000052
C58	C	-0.197439	1.493703	0.499948
C59	C	-0.592309	0.951802	-0.073125
C60	C	-0.092309	1.451802	0.426875
C61	C	-0.592301	0.951806	0.072920
C62	C	-0.092301	1.451806	0.572920
C63	C	-0.653294	0.912779	-0.000100
C64	C	-0.153294	1.412779	0.499900
C65	C	-0.437524	0.989118	-0.000070
C66	C	0.062476	1.489118	0.499930
C67	C	-0.792440	0.995372	-0.000051
C68	C	-0.292440	1.495372	0.499949
C69	C	0.038583	0.998370	-0.000053
C70	C	0.538583	1.498370	0.499947
C71	C	0.131829	0.996708	-0.000043
C72	C	0.631829	1.496708	0.499957
C73	C	-0.108859	1.145816	-0.000067
C74	C	0.391141	1.645816	0.499933
C75	C	-0.110519	1.239062	-0.000067
C76	C	0.389481	1.739062	0.499933
N77	N	-0.114965	0.992235	-0.230739
N78	N	0.385035	1.492235	0.269261
C79	C	-0.054862	1.051417	-0.529731
C80	C	0.445138	1.551417	-0.029731
C81	C	-0.130532	1.068404	-0.470368
C82	C	0.369468	1.568404	0.029632
C83	C	-0.114990	0.992255	-0.587776
C84	C	0.385010	1.492255	-0.087776
C85	C	-0.039310	0.975298	-0.470397
C86	C	0.460690	1.475298	0.029603
C87	C	-0.114973	0.992248	-0.412352
C88	C	0.385027	1.492248	0.087648
C89	C	-0.190698	1.009280	-0.529720
C90	C	0.309302	1.509280	-0.029720
C91	C	-0.099426	0.916141	-0.529753
C92	C	0.400574	1.416141	-0.029753
C93	C	-0.175151	0.933096	-0.470417
C94	C	0.324849	1.433096	0.029583
C95	C	-0.114998	0.992262	-0.688833
C96	C	0.385002	1.492262	-0.188833
C97	C	-0.114974	0.992240	-0.311297
C98	C	0.385026	1.492240	0.188703
N99	N	-0.115000	0.992265	0.230617
N100	N	0.385000	1.492265	0.730617
H101	H	-0.042124	0.554301	-0.134779
H102	H	0.457876	1.054301	0.365221
H103	H	-0.254708	1.023689	-0.555669
H104	H	0.245292	1.523689	-0.055669
F105	F	-0.031913	0.563171	0.153589
F106	F	0.468087	1.063171	0.653589
H107	H	0.033453	0.459145	-0.000121
H108	H	0.533453	0.959145	0.499879
H109	H	-0.543348	1.138839	-0.000137
H110	H	-0.043348	1.638839	0.499863
F111	F	-0.198019	0.421292	0.153590
F112	F	0.301981	0.921292	0.653590
H113	H	-0.686454	0.845571	-0.000137
H114	H	-0.186454	1.345571	0.499863
H115	H	-0.226048	0.883059	-0.444538
H116	H	0.273952	1.383059	0.055462
H117	H	-0.657767	1.066933	-0.134786
H118	H	-0.157767	1.566933	0.365214
F119	F	-0.663932	1.077462	0.153580
F120	F	-0.163932	1.577462	0.653580
H121	H	-0.187755	0.430321	-0.134917
H122	H	0.312245	0.930321	0.365083
F123	F	-0.565997	0.907126	0.153598
F124	F	-0.065997	1.407126	0.653598
H125	H	-0.004077	1.101484	-0.555773
H126	H	0.495923	1.601484	-0.055773
F127	F	-0.566176	0.907110	-0.153884
F128	F	-0.066176	1.407110	0.346116
F129	F	-0.147727	1.152529	-0.436254
F130	F	0.352273	1.652529	0.063746
F131	F	-0.082190	0.832037	-0.563875
F132	F	0.417810	1.332037	-0.063875
H133	H	0.024685	0.960958	-0.444337
H134	H	0.524685	1.460958	0.055663
F135	F	-0.284402	0.529915	-0.000163
F136	F	0.215598	1.029915	0.499837
