data_functionalizedCrystal
_audit_creation_method	'MofGen! by Chris Wilmer'
_symmetry_space_group_name_H-M	'P1'
_symmetry_Int_Tables_number	1
_symmetry_cell_setting	triclinic
loop_
_symmetry_equiv_pos_as_xyz
  x,y,z
_cell_length_a	6.817900
_cell_length_b	11.102294
_cell_length_c	16.256277
_cell_angle_alpha	93.849979
_cell_angle_beta	103.500353
_cell_angle_gamma	108.605785
loop_
_atom_site_label
_atom_site_type_symbol
_atom_site_fract_x
_atom_site_fract_y
_atom_site_fract_z
V1	V	-4.053068	-0.176866	-0.263873
O2	O	-4.013214	0.007442	-0.258851
O3	O	-4.030245	-0.349679	-0.262067
O4	O	-4.004352	-0.174609	-0.378957
O5	O	-4.039286	-0.168840	-0.141151
V6	V	-4.533423	-0.154766	-0.249194
O7	O	-4.321276	-0.225344	-0.296071
O8	O	-4.715412	-0.106287	-0.216996
O9	O	-4.333039	0.018047	-0.251000
O10	O	-4.690674	-0.339074	-0.254216
O11	O	-4.664602	-0.162792	-0.371916
O12	O	-4.358933	-0.157023	-0.134110
C13	C	-3.881478	-0.391793	-0.257904
C14	C	-3.944102	-0.533072	-0.257195
C15	C	-4.215432	-0.738694	-0.260429
C16	C	-4.156600	-0.605945	-0.261086
C17	C	-3.790422	-0.592954	-0.252638
C18	C	-3.849252	-0.725699	-0.251975
C19	C	-3.848447	-0.168472	-0.407008
C20	C	-3.890069	-0.167770	-0.501090
C21	C	-4.181740	-0.172674	-0.732911
C22	C	-4.059033	-0.063603	-0.776002
C23	C	-3.966170	-0.166449	-0.673337
C24	C	-4.162981	-0.274193	-0.797875
C25	C	-4.039697	-0.165179	-0.839720
C26	C	-3.842872	-0.057300	-0.715179
C27	C	-3.946891	-0.267986	-0.737058
C28	C	-3.824021	-0.158884	-0.780117
C29	C	-3.923818	-0.167180	-0.577487
C30	C	-4.082029	-0.164439	-0.935565
C31	C	-4.145149	0.060154	-0.255161
C32	C	-4.061764	0.201433	-0.255875
C33	C	-4.178179	-0.163164	-0.106055
C34	C	-4.115795	-0.163859	-0.011972
H35	H	-3.617394	-0.533609	-0.249465
C36	C	-3.882427	-0.384738	-0.713530
H37	H	-3.996004	-0.461718	-0.742145
H38	H	-3.756540	-0.380649	-0.730512
H39	H	-3.855019	-0.383895	-0.653412
C40	C	-4.346351	-0.398006	-0.846355
H41	H	-4.294500	-0.444190	-0.882366
H42	H	-4.397356	-0.449908	-0.806413
H43	H	-4.460325	-0.376292	-0.880209
C44	C	-4.325640	-0.540091	-0.266099
H45	H	-4.460627	-0.602505	-0.268333
H46	H	-4.282806	-0.476778	-0.216952
H47	H	-4.337806	-0.500378	-0.316121
C48	C	-3.680210	-0.791565	-0.246969
H49	H	-3.545228	-0.729161	-0.244753
H50	H	-3.668044	-0.831280	-0.196953
H51	H	-3.723067	-0.854879	-0.296123
C52	C	-4.385345	-0.180393	-0.704687
H53	H	-4.429911	-0.256287	-0.679986
H54	H	-4.355050	-0.107281	-0.663660
H55	H	-4.496702	-0.182396	-0.753015
C56	C	-4.123591	0.053136	-0.799507
H57	H	-4.251008	0.048142	-0.783476
H58	H	-4.011169	0.130084	-0.770064
H59	H	-4.148473	0.053182	-0.859490
H60	H	-3.707207	0.034447	-0.679389
H61	H	-3.673019	-0.153014	-0.800831
H62	H	-4.388469	-0.798019	-0.263603
