data_functionalizedCrystal
_audit_creation_method	'MofGen! by Chris Wilmer'
_symmetry_space_group_name_H-M	'P1'
_symmetry_Int_Tables_number	1
_symmetry_cell_setting	triclinic
loop_
_symmetry_equiv_pos_as_xyz
  x,y,z
_cell_length_a	10.540510
_cell_length_b	10.540539
_cell_length_c	9.016244
_cell_angle_alpha	89.999933
_cell_angle_beta	89.992396
_cell_angle_gamma	84.519401
loop_
_atom_site_label
_atom_site_type_symbol
_atom_site_fract_x
_atom_site_fract_y
_atom_site_fract_z
O1	O	1.685915	0.178715	-0.123342
O2	O	1.316497	0.195611	-0.123342
O3	O	1.509634	0.002455	-0.123340
O4	O	1.492778	0.371870	-0.123344
O5	O	1.509606	0.002460	0.123341
O6	O	1.316469	0.195615	0.123339
O7	O	1.685887	0.178719	0.123339
Cu8	Cu	1.501175	0.187168	0.145863
Cu9	Cu	1.501209	0.187162	-0.145866
O10	O	1.492750	0.371875	0.123337
C11	C	1.269179	0.194354	-0.000002
C12	C	1.128229	0.190587	-0.000002
C13	C	0.910774	0.324771	-0.000570
C14	C	1.057370	0.328789	-0.000005
C15	C	1.083453	0.119843	0.140862
C16	C	0.936692	0.116804	0.140971
C17	C	0.936919	0.113921	-0.139551
C18	C	1.083260	0.120476	-0.141404
C19	C	1.508356	-0.044845	-0.000003
C20	C	1.504574	-0.185793	-0.000011
C21	C	1.359655	-0.369204	-0.000564
C22	C	1.363489	-0.222587	-0.000009
C23	C	1.572454	-0.247455	0.140856
C24	C	1.567639	-0.393999	0.140975
C25	C	1.570541	-0.394523	-0.139547
C26	C	1.571841	-0.247541	-0.141410
C27	C	1.733204	0.179976	-0.000005
C28	C	1.874154	0.183743	-0.000014
C29	C	1.494028	0.419175	-0.000004
C30	C	1.497810	0.560123	-0.000006
N31	N	1.501161	0.187170	0.351049
N32	N	1.501233	0.187150	-0.351052
C33	C	1.397528	0.290149	0.586080
C34	C	1.397757	0.290535	0.414189
C35	C	1.633885	0.217290	0.413387
C36	C	1.633320	0.218019	0.585332
C37	C	1.473387	0.053735	0.585594
C38	C	1.470341	0.054600	0.413639
H39	H	1.111890	0.171949	-0.245614
C40	C	1.149536	-0.015841	-0.152887
N41	N	1.199451	-0.118523	-0.161522
H42	H	0.914765	0.010159	-0.140503
C43	C	1.284368	-0.407849	-0.137025
N44	N	1.227659	-0.436969	-0.239808
C45	C	0.879612	0.172942	-0.283795
N46	N	0.836451	0.217413	-0.392433
C47	C	1.708207	-0.458345	-0.140834
N48	N	1.811892	-0.506424	-0.141794
H49	H	1.548999	-0.022928	0.626247
H50	H	1.378648	0.025066	0.629041
C51	C	1.740691	0.118712	0.358126
N52	N	1.821136	0.044462	0.316501
C53	C	1.264522	0.266077	0.357251
N54	N	1.164162	0.247664	0.314372
C55	C	1.284667	-0.409962	0.135173
N56	N	1.228195	-0.440651	0.237423
H57	H	1.676063	-0.225112	0.146094
H58	H	1.085762	0.384473	0.101140
C59	C	0.851991	0.397094	0.135135
N60	N	0.807715	0.451564	0.237351
C61	C	0.882339	0.182147	0.283207
N62	N	0.841406	0.231374	0.390337
H63	H	1.309678	-0.180823	0.101138
H64	H	1.415195	0.388571	0.629272
H65	H	1.674703	-0.223331	-0.149916
C66	C	1.338430	0.023759	0.358610
N67	N	1.239072	0.000534	0.317155
H68	H	1.130843	0.018102	0.146102
C69	C	1.263882	0.266070	0.642035
N70	N	1.163219	0.247937	0.684200
H71	H	1.540869	-0.025728	0.370664
H72	H	1.114296	0.168977	0.245692
C73	C	1.667516	0.347308	0.355210
N74	N	1.692837	0.445245	0.311400
C75	C	1.499819	-0.432087	0.283222
N76	N	1.448731	-0.460768	0.390364
H77	H	1.310076	-0.179979	-0.100988
H78	H	1.669105	-0.441979	0.147366
H79	H	1.657674	0.315354	0.625420
C80	C	1.097042	0.403491	-0.136474
N81	N	1.126919	0.459737	-0.239285
C82	C	0.905622	-0.022837	0.149624
N83	N	0.882225	-0.128012	0.156150
H84	H	1.415657	0.389517	0.373042
H85	H	1.525277	-0.204849	0.245685
C86	C	1.504807	-0.192265	-0.282198
N87	N	1.454304	-0.150635	-0.388237
C88	C	1.508865	-0.437139	-0.283787
N89	N	1.462397	-0.469235	-0.392421
C90	C	1.740813	0.120643	0.641513
N91	N	1.821791	0.047316	0.683823
H92	H	0.868832	0.378611	-0.101592
