data_functionalizedCrystal
_audit_creation_method	'MofGen! by Chris Wilmer'
_symmetry_space_group_name_H-M	'P1'
_symmetry_Int_Tables_number	1
_symmetry_cell_setting	triclinic
loop_
_symmetry_equiv_pos_as_xyz
  x,y,z
_cell_length_a	19.288864
_cell_length_b	12.996460
_cell_length_c	19.288865
_cell_angle_alpha	90.005525
_cell_angle_beta	83.136245
_cell_angle_gamma	90.020041
loop_
_atom_site_label
_atom_site_type_symbol
_atom_site_fract_x
_atom_site_fract_y
_atom_site_fract_z
O1	O	0.921351	0.085909	0.086643
O2	O	1.171351	0.335909	0.336643
O3	O	1.421351	0.585909	0.586643
O4	O	1.671351	0.835909	0.836643
O5	O	0.719090	0.085840	0.098332
O6	O	0.969090	0.335840	0.348332
O7	O	1.219090	0.585840	0.598332
O8	O	1.469090	0.835840	0.848332
O9	O	0.826065	0.085856	-0.008643
O10	O	1.076065	0.335856	0.241357
O11	O	1.326065	0.585856	0.491357
O12	O	1.576065	0.835856	0.741357
O13	O	0.814376	0.085893	0.193618
O14	O	1.064376	0.335893	0.443618
O15	O	1.314376	0.585893	0.693618
O16	O	1.564376	0.835893	0.943618
O17	O	0.826051	-0.085278	-0.008637
O18	O	1.076051	0.164722	0.241363
O19	O	1.326051	0.414722	0.491363
O20	O	1.576051	0.664722	0.741363
O21	O	0.719076	-0.085294	0.098338
O22	O	0.969076	0.164706	0.348338
O23	O	1.219076	0.414706	0.598338
O24	O	1.469076	0.664706	0.848338
O25	O	0.921337	-0.085225	0.086649
O26	O	1.171337	0.164775	0.336649
O27	O	1.421337	0.414775	0.586649
O28	O	1.671337	0.664775	0.836649
Cu29	Cu	0.820205	-0.100886	0.092494
Cu30	Cu	1.070205	0.149114	0.342494
Cu31	Cu	1.320205	0.399114	0.592494
Cu32	Cu	1.570205	0.649114	0.842494
Cu33	Cu	0.820222	0.101500	0.092487
Cu34	Cu	1.070222	0.351500	0.342487
Cu35	Cu	1.320222	0.601500	0.592487
Cu36	Cu	1.570222	0.851500	0.842487
O37	O	0.814362	-0.085241	0.193624
O38	O	1.064362	0.164759	0.443624
O39	O	1.314362	0.414759	0.693624
O40	O	1.564362	0.664759	0.943624
C41	C	0.693207	0.000264	0.097959
C42	C	0.943207	0.250264	0.347959
C43	C	1.193207	0.500264	0.597959
C44	C	1.443207	0.750264	0.847959
C45	C	0.616103	0.000237	0.096830
C46	C	0.866103	0.250237	0.346830
C47	C	1.116103	0.500237	0.596830
C48	C	1.366103	0.750237	0.846830
N49	N	0.820199	-0.243233	0.092499
N50	N	1.070199	0.006767	0.342499
N51	N	1.320199	0.256767	0.592499
N52	N	1.570199	0.506767	0.842499
C53	C	0.571407	0.000264	0.159598
C54	C	0.821407	0.250264	0.409598
C55	C	1.071407	0.500264	0.659598
C56	C	1.321407	0.750264	0.909598
C57	C	0.498960	0.000275	0.158537
C58	C	0.748960	0.250275	0.408537
C59	C	0.998960	0.500275	0.658537
C60	C	1.248960	0.750275	0.908537
C61	C	0.471212	0.000280	0.094705
C62	C	0.721212	0.250280	0.344705
C63	C	0.971212	0.500280	0.594705
C64	C	1.221212	0.750280	0.844705
C65	C	0.515918	0.000246	0.031929
C66	C	0.765918	0.250246	0.281929
C67	C	1.015918	0.500246	0.531929
C68	C	1.265918	0.750246	0.781929
C69	C	0.588364	0.000225	0.032991
C70	C	0.838364	0.250225	0.282991
C71	C	1.088364	0.500225	0.532991
C72	C	1.338364	0.750225	0.782991
C73	C	0.362955	0.060261	0.044523
C74	C	0.612955	0.310261	0.294523
C75	C	0.862955	0.560261	0.544523
C76	C	1.112955	0.810261	0.794523
C77	C	0.290510	0.060289	0.043464
C78	C	0.540510	0.310289	0.293464
C79	C	0.790510	0.560289	0.543464
C80	C	1.040510	0.810289	0.793464
C81	C	0.247767	0.000341	0.091425
C82	C	0.497767	0.250341	0.341425
C83	C	0.747767	0.500341	0.591425
C84	C	0.997767	0.750341	0.841425
C85	C	0.277474	-0.059621	0.140458
C86	C	0.527474	0.190379	0.390458
C87	C	0.777474	0.440379	0.640458
C88	C	1.027474	0.690379	0.890458
C89	C	0.349920	-0.059642	0.141521
C90	C	0.599920	0.190358	0.391521
C91	C	0.849920	0.440358	0.641521
C92	C	1.099920	0.690358	0.891521
C93	C	0.392658	0.000302	0.093546
C94	C	0.642658	0.250302	0.343546
C95	C	0.892658	0.500302	0.593546
C96	C	1.142658	0.750302	0.843546
C97	C	0.124514	0.000380	0.153047
C98	C	0.374514	0.250380	0.403047
C99	C	0.624514	0.500380	0.653047
C100	C	0.874514	0.750380	0.903047
C101	C	0.052066	0.000384	0.151984
C102	C	0.302066	0.250384	0.401984
C103	C	0.552066	0.500384	0.651984
C104	C	0.802066	0.750384	0.901984
C105	C	0.069026	0.000366	0.025374
C106	C	0.319026	0.250366	0.275374
C107	C	0.569026	0.500366	0.525374
C108	C	0.819026	0.750366	0.775374
C109	C	0.141473	0.000350	0.026439
C110	C	0.391473	0.250350	0.276439
C111	C	0.641473	0.500350	0.526439
C112	C	0.891473	0.750350	0.776439
C113	C	0.169212	0.000362	0.090278
C114	C	0.419212	0.250362	0.340278
C115	C	0.669212	0.500362	0.590278
C116	C	0.919212	0.750362	0.840278
C117	C	0.820202	-0.336339	0.092501
C118	C	1.070202	-0.086339	0.342501
C119	C	1.320202	0.163661	0.592501
C120	C	1.570202	0.413661	0.842501
C121	C	0.820208	-0.453144	0.092496
C122	C	1.070208	-0.203144	0.342496
C123	C	1.320208	0.046856	0.592496
C124	C	1.570208	0.296856	0.842496
C125	C	0.820217	-0.546242	0.092488
C126	C	1.070217	-0.296242	0.342488
C127	C	1.320217	-0.046242	0.592488
C128	C	1.570217	0.203758	0.842488
C129	C	0.820225	-0.663055	0.092484
C130	C	1.070225	-0.413055	0.342484
C131	C	1.320225	-0.163055	0.592484
C132	C	1.570225	0.086945	0.842484
C133	C	0.947220	0.000353	0.087022
C134	C	1.197220	0.250353	0.337022
C135	C	1.447220	0.500353	0.587022
C136	C	1.697220	0.750353	0.837022
C137	C	1.024324	0.000387	0.088151
C138	C	1.274324	0.250387	0.338151
C139	C	1.524324	0.500387	0.588151
C140	C	1.774324	0.750387	0.838151
C141	C	0.825682	0.000286	-0.034516
C142	C	1.075682	0.250286	0.215484
C143	C	1.325682	0.500286	0.465484
C144	C	1.575682	0.750286	0.715484
C145	C	0.824553	0.000276	-0.111620
C146	C	1.074553	0.250276	0.138380
C147	C	1.324553	0.500276	0.388380
C148	C	1.574553	0.750276	0.638380
N149	N	0.820233	0.243847	0.092476
N150	N	1.070233	0.493847	0.342476
N151	N	1.320233	0.743847	0.592476
N152	N	1.570233	0.993847	0.842476
C153	C	0.887321	0.000293	-0.156316
C154	C	1.137321	0.250293	0.093684
C155	C	1.387321	0.500293	0.343684
C156	C	1.637321	0.750293	0.593684
C157	C	0.886260	0.000308	-0.228763
C158	C	1.136260	0.250308	0.021237
C159	C	1.386260	0.500308	0.271237
C160	C	1.636260	0.750308	0.521237
C161	C	0.822428	0.000287	-0.256511
C162	C	1.072428	0.250287	-0.006511
C163	C	1.322428	0.500287	0.243489
C164	C	1.572428	0.750287	0.493489
C165	C	0.759652	0.000277	-0.211805
C166	C	1.009652	0.250277	0.038195
C167	C	1.259652	0.500277	0.288195
C168	C	1.509652	0.750277	0.538195
C169	C	0.760714	0.000271	-0.139359
C170	C	1.010714	0.250271	0.110641
C171	C	1.260714	0.500271	0.360641
C172	C	1.510714	0.750271	0.610641
C173	C	0.772243	-0.059674	-0.364796
C174	C	1.022243	0.190326	-0.114796
C175	C	1.272243	0.440326	0.135204
C176	C	1.522243	0.690326	0.385204
C177	C	0.771184	-0.059675	-0.437241
C178	C	1.021184	0.190325	-0.187241
C179	C	1.271184	0.440325	0.062759
C180	C	1.521184	0.690325	0.312759
C181	C	0.819148	0.000309	-0.479956
C182	C	1.069148	0.250309	-0.229956
C183	C	1.319148	0.500309	0.020044
C184	C	1.569148	0.750309	0.270044
C185	C	0.868184	0.060281	-0.450221
C186	C	1.118184	0.310281	-0.200221
C187	C	1.368184	0.560281	0.049779
C188	C	1.618184	0.810281	0.299779
C189	C	0.869247	0.060275	-0.377775
C190	C	1.119247	0.310275	-0.127775
C191	C	1.369247	0.560275	0.122225
C192	C	1.619247	0.810275	0.372225
C193	C	0.821269	0.000294	-0.335065
C194	C	1.071269	0.250294	-0.085065
C195	C	1.321269	0.500294	0.164935
C196	C	1.571269	0.750294	0.414935
C197	C	0.880770	0.000344	-0.603209
C198	C	1.130770	0.250344	-0.353209
C199	C	1.380770	0.500344	-0.103209
C200	C	1.630770	0.750344	0.146791
C201	C	0.879707	0.000367	-0.675657
C202	C	1.129707	0.250367	-0.425657
C203	C	1.379707	0.500367	-0.175657
C204	C	1.629707	0.750367	0.074343
C205	C	0.753097	0.000325	-0.658697
C206	C	1.003097	0.250325	-0.408697
C207	C	1.253097	0.500325	-0.158697
C208	C	1.503097	0.750325	0.091303
C209	C	0.754162	0.000313	-0.586250
C210	C	1.004162	0.250313	-0.336250
C211	C	1.254162	0.500313	-0.086250
C212	C	1.504162	0.750313	0.163750
C213	C	0.818001	0.000318	-0.558511
C214	C	1.068001	0.250318	-0.308511
C215	C	1.318001	0.500318	-0.058511
C216	C	1.568001	0.750318	0.191489
C217	C	0.814745	0.000331	0.219497
C218	C	1.064745	0.250331	0.469497
C219	C	1.314745	0.500331	0.719497
C220	C	1.564745	0.750331	0.969497
C221	C	0.815874	0.000347	0.296601
C222	C	1.065874	0.250347	0.546601
C223	C	1.315874	0.500347	0.796601
C224	C	1.565874	0.750347	1.046601
H225	H	0.593987	0.000276	0.211580
H226	H	0.843987	0.250276	0.461580
H227	H	1.093987	0.500276	0.711580
H228	H	1.343987	0.750276	0.961580
H229	H	0.939303	0.000300	-0.133736
H230	H	1.189303	0.250300	0.116264
H231	H	1.439303	0.500300	0.366264
H232	H	1.689303	0.750300	0.616264
H233	H	0.177866	0.000334	-0.024674
H234	H	0.427866	0.250334	0.225326
H235	H	0.677866	0.500334	0.475326
H236	H	0.927866	0.750334	0.725326
H237	H	0.909172	0.109108	-0.353567
H238	H	1.159172	0.359108	-0.103567
H239	H	1.409172	0.609108	0.146433
H240	H	1.659172	0.859108	0.396433
H241	H	0.015674	0.000401	0.203099
H242	H	0.265674	0.250401	0.453099
H243	H	0.515674	0.500401	0.703099
H244	H	0.765674	0.750401	0.953099
H245	H	0.930822	0.000386	-0.712049
H246	H	1.180822	0.250386	-0.462049
H247	H	1.430822	0.500386	-0.212049
H248	H	1.680822	0.750386	0.037951
H249	H	0.242673	-0.108436	0.179513
H250	H	0.492673	0.141564	0.429513
H251	H	0.742673	0.391564	0.679513
H252	H	0.992673	0.641564	0.929513
H253	H	0.046435	0.000433	-0.026600
H254	H	0.296435	0.250433	0.223400
H255	H	0.546435	0.500433	0.473400
H256	H	0.796435	0.750433	0.723400
H257	H	0.731252	-0.108501	-0.461445
H258	H	0.981252	0.141499	-0.211445
H259	H	1.231252	0.391499	0.038555
H260	H	1.481252	0.641499	0.288555
H261	H	0.709599	0.000258	-0.102967
H262	H	0.959599	0.250258	0.147033
H263	H	1.209599	0.500258	0.397033
H264	H	1.459599	0.750258	0.647033
H265	H	0.266328	0.109117	0.003541
H266	H	0.516328	0.359117	0.253541
H267	H	0.766328	0.609117	0.503541
H268	H	1.016328	0.859117	0.753541
H269	H	0.932751	0.000353	-0.580622
H270	H	1.182751	0.250353	-0.330622
H271	H	1.432751	0.500353	-0.080622
H272	H	1.682751	0.750353	0.169378
H273	H	0.374105	-0.108469	0.181443
H274	H	0.624105	0.141531	0.431443
H275	H	0.874105	0.391531	0.681443
H276	H	1.124105	0.641531	0.931443
H277	H	0.397752	0.109083	0.005466
H278	H	0.647752	0.359083	0.255466
H279	H	0.897752	0.609083	0.505466
H280	H	1.147752	0.859083	0.755466
H281	H	0.462561	0.000295	0.209652
H282	H	0.712561	0.250295	0.459652
H283	H	0.962561	0.500295	0.709652
H284	H	1.212561	0.750295	0.959652
H285	H	0.907241	0.109126	-0.484999
H286	H	1.157241	0.359126	-0.234999
H287	H	1.407241	0.609126	0.015001
H288	H	1.657241	0.859126	0.265001
H289	H	0.147101	0.000374	0.205028
H290	H	0.397101	0.250374	0.455028
H291	H	0.647101	0.500374	0.705028
H292	H	0.897101	0.750374	0.955028
H293	H	0.493322	0.000264	-0.020044
H294	H	0.743322	0.250264	0.229956
H295	H	0.993322	0.500264	0.479956
H296	H	1.243322	0.750264	0.729956
H297	H	0.703049	0.000294	-0.549857
H298	H	0.953049	0.250294	-0.299857
H299	H	1.203049	0.500294	-0.049857
H300	H	1.453049	0.750294	0.200143
H301	H	0.624756	0.000203	-0.018124
H302	H	0.874756	0.250203	0.231876
H303	H	1.124756	0.500203	0.481876
H304	H	1.374756	0.750203	0.731876
H305	H	0.937375	0.000326	-0.265162
H306	H	1.187375	0.250326	-0.015162
H307	H	1.437375	0.500326	0.234838
H308	H	1.687375	0.750326	0.484838
H309	H	0.733183	-0.108526	-0.330022
H310	H	0.983183	0.141474	-0.080022
H311	H	1.233183	0.391474	0.169978
H312	H	1.483183	0.641474	0.419978
H313	H	0.701123	0.000313	-0.681288
H314	H	0.951123	0.250313	-0.431288
H315	H	1.201123	0.500313	-0.181288
H316	H	1.451123	0.750313	0.068712
H317	H	0.707679	0.000262	-0.234401
H318	H	0.957679	0.250262	0.015599
H319	H	1.207679	0.500262	0.265599
H320	H	1.457679	0.750262	0.515599
