data_functionalizedCrystal
_audit_creation_method	'MofGen! by Chris Wilmer'
_symmetry_space_group_name_H-M	'P1'
_symmetry_Int_Tables_number	1
_symmetry_cell_setting	triclinic
loop_
_symmetry_equiv_pos_as_xyz
  x,y,z
_cell_length_a	10.967926
_cell_length_b	11.026607
_cell_length_c	10.065907
_cell_angle_alpha	100.715461
_cell_angle_beta	93.099207
_cell_angle_gamma	96.380754
loop_
_atom_site_label
_atom_site_type_symbol
_atom_site_fract_x
_atom_site_fract_y
_atom_site_fract_z
O1	O	1.659038	0.213623	0.276707
O2	O	2.159038	0.713623	0.776707
O3	O	1.309783	0.217148	0.194562
O4	O	1.809783	0.717148	0.694562
O5	O	1.455464	0.037425	0.228831
O6	O	1.955464	0.537425	0.728831
O7	O	1.513357	0.393347	0.242438
O8	O	2.013357	0.893347	0.742438
O9	O	1.427629	0.071769	0.449272
O10	O	1.927629	0.571769	0.949272
O11	O	1.281948	0.251492	0.415003
O12	O	1.781948	0.751492	0.915003
O13	O	1.631204	0.247967	0.497148
O14	O	2.131204	0.747967	0.997148
Zn15	Zn	1.452157	0.255183	0.491075
Zn16	Zn	1.952157	0.755183	0.991075
Zn17	Zn	1.488830	0.209933	0.200635
Zn18	Zn	1.988830	0.709933	0.700635
O19	O	1.485523	0.427691	0.462879
O20	O	1.985523	0.927691	0.962879
C21	C	1.250458	0.231469	0.294103
C22	C	1.750458	0.731469	0.794103
C23	C	1.115156	0.222957	0.262279
C24	C	1.615156	0.722957	0.762279
C25	C	1.040414	0.236954	0.362286
C26	C	1.540414	0.736954	0.862286
C27	C	0.900572	0.228157	0.329398
C28	C	1.400572	0.728157	0.829398
C29	C	1.430867	0.008903	0.336538
C30	C	1.930867	0.508903	0.836538
C31	C	1.399030	-0.127251	0.329045
C32	C	1.899030	0.372749	0.829045
C33	C	1.486939	-0.197083	0.349720
C34	C	1.986939	0.302917	0.849720
C35	C	1.454036	-0.337806	0.341976
C36	C	1.954036	0.162194	0.841976
C37	C	1.690529	0.233646	0.397605
C38	C	2.190529	0.733646	0.897605
C39	C	1.825832	0.242156	0.429419
C40	C	2.325832	0.742156	0.929419
N41	N	1.427137	0.286064	0.689295
N42	N	1.927137	0.786064	1.189295
C43	C	1.510120	0.456212	0.355169
C44	C	2.010120	0.956212	0.855169
C45	C	1.541958	0.592365	0.362653
C46	C	2.041958	1.092365	0.862653
C47	C	1.460875	0.244441	0.922174
C48	C	1.960875	0.744441	1.422174
C49	C	1.480119	0.220664	0.769534
C50	C	1.980119	0.720664	1.269534
N51	N	1.513849	0.179051	1.002415
N52	N	2.013849	0.679051	1.502415
H53	H	1.586559	-0.152686	0.373159
H54	H	2.086559	0.347314	0.873159
O55	O	1.335234	-0.390942	0.314089
O56	O	1.835234	0.109058	0.814089
C57	C	1.328832	-0.519620	0.312540
C58	C	1.828832	-0.019620	0.812540
H59	H	1.411864	-0.538728	0.375043
H60	H	1.911864	-0.038728	0.875043
H61	H	1.240802	-0.552237	0.357731
H62	H	1.740802	-0.052237	0.857731
H63	H	1.328651	-0.571947	0.203597
H64	H	1.828651	-0.071947	0.703597
H65	H	1.641599	-0.363262	0.385986
H66	H	2.141599	0.136738	0.885986
O67	O	1.087705	0.258851	0.493424
O68	O	1.587705	0.758851	0.993424
C69	C	1.151121	0.159118	0.515654
C70	C	1.651121	0.659118	1.015654
H71	H	1.180147	0.108891	0.415023
H72	H	1.680147	0.608891	0.915023
H73	H	1.236246	0.196363	0.587910
H74	H	1.736246	0.696363	1.087910
H75	H	1.088254	0.091453	0.562006
H76	H	1.588254	0.591453	1.062006
H77	H	1.075615	0.204459	0.152311
H78	H	1.575615	0.704459	0.652311
H79	H	1.299410	-0.171648	0.305605
H80	H	1.799410	0.328352	0.805605
O81	O	1.389664	0.332082	0.975148
O82	O	1.889664	0.832082	1.475148
C83	C	1.290438	0.275498	1.034456
C84	C	1.790438	0.775498	1.534456
H85	H	1.315401	0.184985	1.061578
H86	H	1.815401	0.684985	1.561578
H87	H	1.270086	0.340903	1.130215
H88	H	1.770086	0.840903	1.630215
H89	H	1.205594	0.254850	0.959536
H90	H	1.705594	0.754850	1.459536
H91	H	1.539718	0.147069	0.725233
H92	H	2.039718	0.647069	1.225233
O93	O	1.355921	0.373711	0.742255
O94	O	1.855921	0.873711	1.242255
C95	C	1.256691	0.317133	0.801562
C96	C	1.756691	0.817133	1.301562
H97	H	1.281651	0.226623	0.828694
H98	H	1.781651	0.726623	1.328694
H99	H	1.236334	0.382545	0.897314
H100	H	1.736334	0.882545	1.397314
H101	H	1.171850	0.296481	0.726637
H102	H	1.671850	0.796481	1.226637
O103	O	0.853378	0.206311	0.198222
O104	O	1.353378	0.706311	0.698222
C105	C	0.789906	0.306013	0.176011
C106	C	1.289906	0.806013	0.676011
H107	H	0.826130	0.392745	0.254690
H108	H	1.326130	0.892745	0.754690
H109	H	0.804845	0.324754	0.070090
H110	H	1.304845	0.824754	0.570090
H111	H	0.687422	0.281163	0.185292
H112	H	1.187422	0.781163	0.685292
O113	O	0.873111	0.264052	0.560567
O114	O	1.373111	0.764052	1.060567
C115	C	0.936523	0.164318	0.582800
C116	C	1.436523	0.664318	1.082800
H117	H	0.965557	0.114095	0.482172
H118	H	1.465557	0.614095	0.982172
H119	H	1.021643	0.201561	0.655064
H120	H	1.521643	0.701561	1.155064
H121	H	0.873651	0.096651	0.629143
H122	H	1.373651	0.596651	1.129143
H123	H	1.573445	0.105461	0.958107
H124	H	2.073445	0.605461	1.458107
