data_functionalizedCrystal
_audit_creation_method	'MofGen! by Chris Wilmer'
_symmetry_space_group_name_H-M	'P1'
_symmetry_Int_Tables_number	1
_symmetry_cell_setting	triclinic
loop_
_symmetry_equiv_pos_as_xyz
  x,y,z
_cell_length_a	16.120530
_cell_length_b	16.625546
_cell_length_c	16.625539
_cell_angle_alpha	90.030397
_cell_angle_beta	87.082392
_cell_angle_gamma	92.882099
loop_
_atom_site_label
_atom_site_type_symbol
_atom_site_fract_x
_atom_site_fract_y
_atom_site_fract_z
Zn1	Zn	1.274562	0.383590	-0.518326
Zn2	Zn	1.607895	0.716923	-0.184993
Zn3	Zn	1.941228	1.050257	0.148340
Zn4	Zn	1.274462	0.518428	-0.383484
Zn5	Zn	1.607795	0.851761	-0.050150
Zn6	Zn	1.941128	1.185095	0.283183
Zn7	Zn	1.135142	0.376772	-0.376678
Zn8	Zn	1.468476	0.710105	-0.043345
Zn9	Zn	1.801809	1.043438	0.289989
Zn10	Zn	1.135112	0.511536	-0.511448
Zn11	Zn	1.468445	0.844870	-0.178115
Zn12	Zn	1.801778	1.178203	0.155219
O13	O	1.204819	0.447581	-0.447484
O14	O	1.538153	0.780915	-0.114151
O15	O	1.871486	1.114248	0.219183
O16	O	1.391215	0.407214	-0.506166
O17	O	1.724548	0.740548	-0.172833
O18	O	2.057881	1.073881	0.160501
O19	O	1.255952	0.499668	-0.269747
O20	O	1.589285	0.833001	0.063586
O21	O	1.922618	1.166335	0.396920
O22	O	1.153691	0.264846	-0.395498
O23	O	1.487025	0.598180	-0.062165
O24	O	1.820358	0.931513	0.271168
O25	O	1.391141	0.506279	-0.407098
O26	O	1.724474	0.839613	-0.073764
O27	O	2.057808	1.172946	0.259569
O28	O	1.256122	0.269856	-0.499567
O29	O	1.589456	0.603189	-0.166233
O30	O	1.922789	0.936522	0.167100
O31	O	1.153594	0.395593	-0.264747
O32	O	1.486928	0.728927	0.068586
O33	O	1.820261	1.062260	0.401920
O34	O	1.018472	0.388911	-0.388829
O35	O	1.351806	0.722244	-0.055495
O36	O	1.685139	1.055577	0.277838
O37	O	1.153639	0.494533	-0.625194
O38	O	1.486973	0.827866	-0.291861
O39	O	1.820306	1.161200	0.041472
O40	O	1.018450	0.487922	-0.487844
O41	O	1.351783	0.821255	-0.154511
O42	O	1.685117	1.154588	0.178823
O43	O	1.256093	0.400531	-0.630248
O44	O	1.589426	0.733865	-0.296914
O45	O	1.922759	1.067198	0.036419
O46	O	1.255922	0.630344	-0.400428
O47	O	1.589255	0.963677	-0.067095
O48	O	1.922589	1.297010	0.266239
O49	O	1.153542	0.625280	-0.494443
O50	O	1.486876	0.958614	-0.161110
O51	O	1.820209	1.291947	0.172224
C52	C	1.204741	0.657068	-0.447446
C53	C	1.538074	0.990402	-0.114113
C54	C	1.871407	1.323735	0.219220
C55	C	1.204783	0.746692	-0.447461
C56	C	1.538116	1.080025	-0.114128
C57	C	1.871450	1.413358	0.219206
C58	C	0.988211	0.436929	-0.436852
C59	C	1.321544	0.770262	-0.103519
C60	C	1.654878	1.103596	0.229815
C61	C	0.895545	0.432391	-0.432323
C62	C	1.228878	0.765725	-0.098989
C63	C	1.562212	1.099058	0.234344
C64	C	1.204874	0.447524	-0.657796
C65	C	1.538207	0.780857	-0.324462
C66	C	1.871540	1.114191	0.008871
C67	C	1.204897	0.447500	-0.747418
C68	C	1.538230	0.780833	-0.414085
C69	C	1.871563	1.114166	-0.080751
C70	C	0.725883	0.424088	-0.424060
C71	C	1.059216	0.757421	-0.090727
C72	C	1.392550	1.090755	0.242607
C73	C	0.684596	0.471135	-0.470967
C74	C	1.017930	0.804468	-0.137633
C75	C	1.351263	1.137801	0.195700
C76	C	0.590191	0.466514	-0.466370
C77	C	0.923524	0.799848	-0.133036
C78	C	1.256857	1.133181	0.200297
C79	C	0.820297	0.428707	-0.428656
C80	C	1.153631	0.762040	-0.095323
C81	C	1.486964	1.095374	0.238010
C82	C	1.422274	0.458276	-0.458158
C83	C	1.755607	0.791609	-0.124825
C84	C	2.088940	1.124943	0.208509
C85	C	1.514940	0.462833	-0.462707
C86	C	1.848273	0.796167	-0.129373
C87	C	2.181606	1.129500	0.203960
C88	C	1.204921	0.237278	-0.447541
C89	C	1.538255	0.570611	-0.114207
C90	C	1.871588	0.903944	0.219126
C91	C	1.204965	0.147659	-0.447565
C92	C	1.538298	0.480992	-0.114231
C93	C	1.871631	0.814325	0.219102
C94	C	1.204929	1.074874	-0.447552
C95	C	1.538262	1.408208	-0.114219
C96	C	1.871595	1.741541	0.219115
C97	C	1.204885	0.983564	-0.447529
C98	C	1.538219	1.316897	-0.114196
C99	C	1.871552	1.650230	0.219138
C100	C	1.204855	0.910786	-0.447506
C101	C	1.538188	1.244119	-0.114173
C102	C	1.871522	1.577453	0.219161
C103	C	1.204813	0.819470	-0.447484
C104	C	1.538147	1.152803	-0.114150
C105	C	1.871480	1.486136	0.219183
C106	C	1.204935	0.447411	-1.075596
C107	C	1.538269	0.780745	-0.742262
C108	C	1.871602	1.114078	-0.408929
C109	C	1.204922	0.447438	-0.984287
C110	C	1.538256	0.780772	-0.650953
C111	C	1.871589	1.114105	-0.317620
C112	C	1.204916	0.447456	-0.911510
C113	C	1.538250	0.780789	-0.578176
C114	C	1.871583	1.114123	-0.244843
C115	C	1.204903	0.447482	-0.820195
C116	C	1.538236	0.780815	-0.486861
C117	C	1.871569	1.114148	-0.153528
C118	C	1.204813	0.447583	-0.237993
C119	C	1.538147	0.780916	0.095340
C120	C	1.871480	1.114250	0.428674
C121	C	1.204952	0.447388	-0.148379
C122	C	1.538285	0.780721	0.184954
C123	C	1.871619	1.114055	0.518288
H124	H	0.720151	0.514881	-0.514579
H125	H	1.053484	0.848215	-0.181245
H126	H	1.386818	1.181548	0.152088
H127	H	0.690331	0.380344	-0.380452
H128	H	1.023664	0.713678	-0.047119
H129	H	1.356997	1.047011	0.286214
