data_functionalizedCrystal
_audit_creation_method	'MofGen! by Chris Wilmer'
_symmetry_space_group_name_H-M	'P1'
_symmetry_Int_Tables_number	1
_symmetry_cell_setting	triclinic
loop_
_symmetry_equiv_pos_as_xyz
  x,y,z
_cell_length_a	31.640172
_cell_length_b	31.640171
_cell_length_c	31.640172
_cell_angle_alpha	119.999819
_cell_angle_beta	90.008445
_cell_angle_gamma	120.021931
loop_
_atom_site_label
_atom_site_type_symbol
_atom_site_fract_x
_atom_site_fract_y
_atom_site_fract_z
Zr1	Zr	0.406948	-0.462749	-0.055545
O2	O	0.339412	-0.550957	-0.123062
O3	O	0.427682	-0.374540	-0.034830
O4	O	0.427636	-0.462737	-0.123024
O5	O	0.339459	-0.462768	0.034680
O6	O	0.497193	-0.462729	-0.123015
O7	O	0.339458	-0.462760	-0.034868
O8	O	0.497275	-0.304959	0.034749
O9	O	0.339377	-0.620538	-0.123083
O10	O	0.488397	-0.410815	-0.026010
O11	O	0.436488	-0.410828	0.025886
O12	O	0.436434	-0.514669	-0.077951
O13	O	0.384525	-0.514682	-0.026055
Zr14	Zr	0.517885	-0.462749	0.055391
Zr15	Zr	0.517883	-0.462735	-0.055531
Zr16	Zr	0.406949	-0.462763	0.055376
Zr17	Zr	0.406891	-0.573722	-0.055579
Zr18	Zr	0.517941	-0.351775	0.055424
O19	O	0.497151	-0.550957	0.034675
O20	O	0.497148	-0.550938	-0.123041
O21	O	0.339415	-0.550977	0.034654
O22	O	0.585420	-0.374540	0.122907
O23	O	0.585417	-0.374520	-0.034809
O24	O	0.427684	-0.374560	0.122886
O25	O	0.585373	-0.462729	-0.034835
O26	O	0.497196	-0.462760	0.122869
O27	O	0.427639	-0.462768	0.122860
O28	O	0.585374	-0.462737	0.034713
O29	O	0.427556	-0.620527	-0.123071
O30	O	0.497276	-0.304970	0.122917
O31	O	0.585455	-0.304959	0.122928
O32	O	0.585454	-0.304948	0.034761
O33	O	0.339378	-0.620549	-0.034915
O34	O	0.427557	-0.620538	-0.034903
O35	O	0.488398	-0.410828	0.077796
O36	O	0.540307	-0.410815	0.025900
O37	O	0.488344	-0.514669	-0.026041
O38	O	0.436435	-0.514682	0.025855
C39	C	0.462486	-0.323938	-0.000036
C40	C	0.462510	-0.276827	-0.000021
C41	C	0.500777	0.097750	0.038263
C42	C	0.500817	-0.079208	0.038288
O43	O	0.533440	-0.069475	0.070878
N44	N	0.462482	-0.139685	-0.000042
C45	C	0.424135	-0.155923	-0.038382
O46	O	0.391533	-0.211422	-0.070985
C47	C	0.424098	0.021035	-0.038408
C48	C	0.462433	0.081512	-0.000073
C49	C	0.539109	0.158224	0.076595
C50	C	0.539097	0.202460	0.076590
C51	C	0.500753	0.186223	0.038254
C52	C	0.462421	0.125749	-0.000078
C53	C	0.385754	0.004797	-0.076749
C54	C	0.385749	0.049043	-0.076753
C55	C	0.424084	0.109520	-0.038418
C56	C	0.424065	0.153748	-0.038419
N57	N	0.462400	0.214225	-0.000089
C58	C	0.500745	0.230462	0.038247
C59	C	0.424157	-0.248825	-0.038365
C60	C	0.424166	-0.293065	-0.038358
C61	C	0.500848	-0.216347	0.038311
C62	C	0.500837	-0.172107	0.038306
C63	C	0.462493	-0.188348	-0.000035
C64	C	0.500716	0.323359	0.038234
C65	C	0.500700	0.367596	0.038227
C66	C	0.424019	0.290875	-0.038443
C67	C	0.424034	0.246642	-0.038435
C68	C	0.462387	0.262888	-0.000094
O69	O	0.391462	0.144059	-0.070995
O70	O	0.533349	0.285965	0.070839
C71	C	0.500789	0.053513	0.038268
C72	C	0.462457	-0.006961	-0.000063
C73	C	0.424113	-0.023198	-0.038399
C74	C	0.462466	-0.051200	-0.000056
C75	C	0.500810	-0.034963	0.038280
C76	C	0.539145	0.025514	0.076609
C77	C	0.539133	0.069751	0.076604
C78	C	0.385777	-0.083675	-0.076729
C79	C	0.385792	-0.127909	-0.076720
C80	C	0.424136	-0.111671	-0.038384
C81	C	0.323653	-0.462766	-0.000096
C82	C	0.276558	-0.462772	-0.000102
C83	C	0.011676	-0.408532	0.027046
C84	C	-0.165309	-0.408522	0.027056
O85	O	-0.165127	-0.362417	0.050133
N86	N	-0.214563	-0.462732	-0.000057
C87	C	-0.219570	-0.516949	-0.027172
O88	O	-0.265524	-0.563058	-0.050230
C89	C	-0.042585	-0.516959	-0.027179
C90	C	0.006668	-0.462745	-0.000068
C91	C	0.060927	-0.354322	0.054155
C92	C	0.105170	-0.354325	0.054150
C93	C	0.100162	-0.408538	0.027036
C94	C	0.050911	-0.462748	-0.000074
C95	C	-0.047592	-0.571175	-0.054291
C96	C	-0.003341	-0.571173	-0.054289
C97	C	0.045912	-0.516959	-0.027178
C98	C	0.090147	-0.516964	-0.027193
N99	N	0.139401	-0.462753	-0.000080
C100	C	0.144408	-0.408540	0.027035
C101	C	-0.312487	-0.516940	-0.027168
C102	C	-0.356733	-0.516938	-0.027167
C103	C	-0.302470	-0.408510	0.027063
C104	C	-0.258223	-0.408513	0.027058
C105	C	-0.263234	-0.462730	-0.000054
C106	C	0.237321	-0.408551	0.027022
C107	C	0.281565	-0.408559	0.027012
C108	C	0.227298	-0.516987	-0.027215
C109	C	0.183057	-0.516979	-0.027208
C110	C	0.188072	-0.462756	-0.000086
O111	O	0.090004	-0.563045	-0.050253
O112	O	0.190367	-0.362438	0.050098
C113	C	-0.032568	-0.408529	0.027051
C114	C	-0.081819	-0.462739	-0.000058
C115	C	-0.086826	-0.516951	-0.027172
C116	C	-0.126065	-0.462736	-0.000057
C117	C	-0.121057	-0.408523	0.027057
C118	C	-0.071803	-0.354313	0.054171
C119	C	-0.027560	-0.354316	0.054165
C120	C	-0.136080	-0.571162	-0.054286
C121	C	-0.180321	-0.571154	-0.054279
C122	C	-0.175314	-0.516942	-0.027165
C123	C	0.601179	-0.462731	-0.000059
C124	C	0.648274	-0.462725	-0.000053
C125	C	0.462354	0.398448	-0.000113
C126	C	0.462355	0.351358	-0.000109
C127	C	0.462414	-0.462731	-0.138823
C128	C	0.462413	-0.462725	-0.185912
C129	C	0.435297	-0.516965	-0.505060
C130	C	0.435297	-0.516976	-0.682055
O131	O	0.412248	-0.563080	-0.728000
N132	N	0.462420	-0.462765	-0.677073
C133	C	0.489548	-0.408548	-0.627837
O134	O	0.512622	-0.362439	-0.627660
C135	C	0.489550	-0.408538	-0.450842
C136	C	0.462421	-0.462752	-0.455829
C137	C	0.408170	-0.571175	-0.510044
C138	C	0.408168	-0.571172	-0.465798
C139	C	0.435292	-0.516959	-0.416567
C140	C	0.462419	-0.462749	-0.411583
C141	C	0.516680	-0.354322	-0.401607
C142	C	0.516680	-0.354324	-0.357358
C143	C	0.489550	-0.408538	-0.362345
C144	C	0.489541	-0.408533	-0.318105
N145	N	0.462418	-0.462744	-0.323088
C146	C	0.435294	-0.516957	-0.372319
C147	C	0.489544	-0.408557	-0.720763
C148	C	0.489543	-0.408559	-0.765011
C149	C	0.435293	-0.516987	-0.819227
C150	C	0.435291	-0.516984	-0.774978
C151	C	0.462421	-0.462767	-0.725746
C152	C	0.435291	-0.516946	-0.279396
C153	C	0.435289	-0.516938	-0.235143
C154	C	0.489541	-0.408511	-0.180931
C155	C	0.489541	-0.408518	-0.225180
C156	C	0.462414	-0.462741	-0.274414
O157	O	0.512583	-0.362453	-0.272145
O158	O	0.412232	-0.563059	-0.372484
C159	C	0.435299	-0.516968	-0.549307
C160	C	0.462425	-0.462759	-0.544322
C161	C	0.489550	-0.408546	-0.495091
C162	C	0.462424	-0.462761	-0.588570
C163	C	0.435300	-0.516974	-0.637801
C164	C	0.408177	-0.571184	-0.642784
C165	C	0.408175	-0.571181	-0.598537
C166	C	0.516673	-0.354335	-0.490108
C167	C	0.516672	-0.354343	-0.534357
C168	C	0.489548	-0.408556	-0.583588
C169	C	0.462418	-0.462766	0.138669
C170	C	0.462419	-0.462772	0.185758
C171	C	0.601249	-0.323921	-0.000017
C172	C	0.648368	-0.276804	0.000003
C173	C	0.462488	-0.323956	0.138710
C174	C	0.462513	-0.276851	0.185813
C175	C	0.601251	-0.323938	0.138729
C176	C	0.648371	-0.276827	0.185838
C177	C	0.323581	-0.601559	-0.138883
C178	C	0.276461	-0.648670	-0.185993
C179	C	0.323583	-0.601577	-0.000137
C180	C	0.276464	-0.648693	-0.000158
C181	C	0.462344	-0.601542	-0.138865
C182	C	0.462320	-0.648647	-0.185968
C183	C	0.643399	-0.254677	-0.027088
C184	C	0.687668	-0.210412	-0.027079
C185	C	0.736905	-0.188271	0.000024
C186	C	0.741874	-0.210402	0.027117
C187	C	0.697605	-0.254669	0.027104
C188	C	0.489621	-0.254730	0.235035
C189	C	0.489642	-0.210476	0.279297
C190	C	0.462557	-0.188340	0.274338
C191	C	0.435446	-0.210466	0.225111
C192	C	0.435422	-0.254722	0.180850
C193	C	0.697599	-0.254696	0.180872
C194	C	0.741877	-0.210437	0.225132
C195	C	0.736926	-0.188306	0.274358
C196	C	0.687692	-0.210441	0.279323
C197	C	0.643415	-0.254702	0.235063
C198	C	0.227233	-0.670806	-0.181027
C199	C	0.182955	-0.715079	-0.225287
C200	C	0.187906	-0.737213	-0.274513
C201	C	0.237140	-0.715075	-0.279478
C202	C	0.281417	-0.670806	-0.235218
C203	C	0.281433	-0.670825	0.026929
C204	C	0.237164	-0.715102	0.026908
C205	C	0.187927	-0.737245	-0.000197
C206	C	0.182958	-0.715112	-0.027288
C207	C	0.227227	-0.670838	-0.027269
C208	C	0.489409	-0.670768	-0.180992
C209	C	0.489396	-0.715022	-0.225246
C210	C	0.462290	-0.737157	-0.274476
C211	C	0.435200	-0.715032	-0.279451
C212	C	0.435216	-0.670775	-0.235198
H213	H	0.570315	0.251701	0.107805
H214	H	0.241219	-0.733115	0.048970
H215	H	0.683668	-0.192415	0.319409
H216	H	0.392944	-0.342305	-0.069568
F217	F	0.591001	-0.278234	-0.055939
F218	F	-0.141419	-0.628866	-0.083146
F219	F	0.462588	-0.141238	0.321450
F220	F	0.579953	0.042788	0.117411
H221	H	0.413394	-0.192437	0.221081
F222	F	0.024856	-0.296613	0.083021
F223	F	0.333831	-0.647269	0.055779
F224	F	0.518452	-0.278278	0.240325
H225	H	0.531947	0.336596	0.069455
F226	F	0.541639	-0.107745	0.079106
H227	H	-0.218122	-0.364367	0.049139
H228	H	0.354552	-0.096906	-0.107948
H229	H	0.772947	-0.152225	0.000030
H230	H	-0.067733	-0.310171	0.076245
F231	F	0.541658	-0.199073	0.079111
F232	F	0.462277	-0.784261	-0.321571
H233	H	0.145271	-0.310179	0.076224
F234	F	0.242402	-0.738636	-0.331872
H235	H	0.603333	-0.272716	0.239114
F236	F	0.333808	-0.647248	-0.240511
H237	H	0.386079	-0.615319	-0.469865
H238	H	0.701641	-0.272709	0.140794
H239	H	0.772983	-0.152265	0.310393
H240	H	0.781969	-0.192368	0.049183
H241	H	0.413154	-0.652769	-0.239257
H242	H	0.511482	-0.652752	-0.140910
H243	H	0.392930	-0.262059	-0.069588
F244	F	0.406571	-0.278257	0.128466
F245	F	0.130562	-0.738631	-0.219992
F246	F	0.344951	-0.059561	-0.117551
F247	F	-0.317829	-0.574649	-0.056028
H248	H	0.151885	-0.773295	-0.000208
F249	F	0.333985	-0.350855	0.055868
F250	F	-0.100004	-0.628879	-0.083143
F251	F	0.140778	-0.784329	-0.321614
F252	F	0.066267	-0.296616	0.083018
F253	F	0.518228	-0.738564	-0.219940
H254	H	0.511721	-0.192466	0.319375
F255	F	0.794270	-0.186885	0.219837
H256	H	-0.007427	-0.615324	-0.076362
F257	F	0.518413	-0.350848	-0.668368
F258	F	0.221951	-0.647257	-0.128641
H259	H	0.142863	-0.733147	-0.049356
H260	H	0.241411	-0.364398	0.049107
H261	H	0.223174	-0.652820	-0.049325
H262	H	0.413131	-0.733061	-0.319540
H263	H	0.701659	-0.272679	0.049169
H264	H	0.570337	0.171455	0.107813
F265	F	0.541502	0.431962	0.079031
H266	H	0.354525	0.035812	-0.107977
H267	H	0.223229	-0.561125	-0.049292
F268	F	0.383211	0.273604	-0.079240
F269	F	0.383230	0.182275	-0.079231
F270	F	0.579935	0.134112	0.117406
H271	H	0.354570	-0.177152	-0.107937
H272	H	-0.298399	-0.364368	0.049137
H273	H	-0.396834	-0.561085	-0.049250
F274	F	0.130636	-0.574679	-0.056072
H275	H	0.683613	-0.192398	-0.049141
H276	H	-0.220425	-0.615305	-0.076361
H277	H	0.413195	-0.561088	-0.239209
H278	H	0.386083	-0.615324	-0.550128
F279	F	0.406419	-0.574686	-0.780290
F280	F	0.406420	-0.574656	-0.331789
F281	F	0.518409	-0.350857	-0.759698
F282	F	0.545555	-0.296619	-0.396288
F283	F	0.406426	-0.574685	-0.871630
H284	H	0.511624	-0.364373	-0.221119
F285	F	0.545560	-0.296618	-0.304962
H286	H	0.511623	-0.364372	-0.140840
H287	H	0.386083	-0.615328	-0.602604
H288	H	0.386088	-0.615326	-0.682877
F289	F	0.545537	-0.296631	-0.437716
F290	F	0.545545	-0.296636	-0.529041
