data_functionalizedCrystal
_audit_creation_method	'MofGen! by Chris Wilmer'
_symmetry_space_group_name_H-M	'P1'
_symmetry_Int_Tables_number	1
_symmetry_cell_setting	triclinic
loop_
_symmetry_equiv_pos_as_xyz
  x,y,z
_cell_length_a	12.759401
_cell_length_b	12.759400
_cell_length_c	12.759393
_cell_angle_alpha	89.969510
_cell_angle_beta	89.979062
_cell_angle_gamma	90.016209
loop_
_atom_site_label
_atom_site_type_symbol
_atom_site_fract_x
_atom_site_fract_y
_atom_site_fract_z
Zn1	Zn	1.606266	-0.418173	-0.594020
Zn2	Zn	1.606158	-0.593888	-0.418340
Zn3	Zn	1.430565	-0.418229	-0.418355
Zn4	Zn	1.430557	-0.593815	-0.593978
O5	O	1.518387	-0.506026	-0.506173
O6	O	1.753273	-0.441489	-0.570727
O7	O	1.582823	-0.570641	-0.271321
O8	O	1.453921	-0.271200	-0.441682
O9	O	1.753193	-0.570587	-0.441656
O10	O	1.583008	-0.271159	-0.570742
O11	O	1.453816	-0.441584	-0.271332
O12	O	1.283543	-0.441513	-0.441640
O13	O	1.453908	-0.570461	-0.741004
O14	O	1.283537	-0.570516	-0.570669
O15	O	1.583000	-0.441418	-0.741036
O16	O	1.582815	-0.740900	-0.441615
O17	O	1.453802	-0.740846	-0.570655
C18	C	1.245419	-0.506013	-0.506152
C19	C	1.128643	-0.506033	-0.506168
C20	C	1.518324	-0.778994	-0.506151
C21	C	1.518394	-0.895770	-0.506177
C22	C	1.073805	-0.573307	-0.573248
C23	C	0.964081	-0.573311	-0.573269
C24	C	0.964042	-0.438764	-0.439122
C25	C	1.073764	-0.438756	-0.439107
C26	C	1.585645	-0.950625	-0.439060
C27	C	1.585710	-1.060349	-0.439093
C28	C	1.451262	-1.060353	-0.573362
C29	C	1.451204	-0.950631	-0.573334
C30	C	1.652835	-0.895764	-0.371904
C31	C	1.720091	-0.950619	-0.304781
C32	C	1.720156	-1.060343	-0.304813
C33	C	1.652964	-1.115212	-0.371969
C34	C	1.792420	-0.506040	-0.506195
C35	C	1.909197	-0.506046	-0.506204
C36	C	1.518465	-0.505925	-0.780207
C37	C	1.518499	-0.505882	-0.896984
C38	C	1.518478	-0.231993	-0.506218
C39	C	1.518517	-0.115216	-0.506238
C40	C	1.585722	-0.438679	-0.951864
C41	C	1.585740	-0.438633	-1.061588
C42	C	1.451308	-0.573004	-1.061542
C43	C	1.451285	-0.573044	-0.951820
C44	C	1.518369	-0.506051	-0.233206
C45	C	1.518539	-0.505798	-0.116430
H46	H	1.118484	-0.628086	-0.627857
O47	O	0.910843	-0.373473	-0.373831
C48	C	0.877138	-0.322305	-0.195209
C49	C	0.937468	-0.396294	-0.269036
H50	H	0.898626	-0.340743	-0.110466
H51	H	0.898755	-0.237591	-0.213716
H52	H	0.789303	-0.333852	-0.206796
H53	H	1.025317	-0.384839	-0.257490
H54	H	0.915764	-0.480980	-0.250510
O55	O	1.785209	-0.897278	-0.239440
C56	C	1.799342	-0.773455	-0.097611
C57	C	1.725475	-0.833815	-0.171528
H58	H	1.751078	-0.722115	-0.042700
H59	H	1.847405	-0.831464	-0.049571
H60	H	1.854244	-0.722045	-0.145901
H61	H	1.670510	-0.885227	-0.123319
H62	H	1.677486	-0.775749	-0.219571
O63	O	1.785521	-1.113469	-0.239519
C64	C	1.918909	-1.101878	-0.106380
C65	C	1.844921	-1.041587	-0.180262
H66	H	1.966969	-1.043788	-0.058468
H67	H	1.870779	-1.153304	-0.051348
H68	H	1.973807	-1.153190	-0.154692
H69	H	1.790008	-0.990218	-0.132035
H70	H	1.893116	-0.990227	-0.235297
H71	H	1.640479	-0.383908	-1.106266
O72	O	1.385845	-1.113534	-0.638535
C73	C	1.207122	-1.147262	-0.689343
C74	C	1.281092	-1.086955	-0.615487
H75	H	1.122412	-1.125812	-0.670720
H76	H	1.225430	-1.125589	-0.774087
H77	H	1.218769	-1.235101	-0.677850
H78	H	1.269486	-0.999102	-0.626886
H79	H	1.262766	-1.108715	-0.530769
H80	H	1.640449	-0.383989	-0.907219
H81	H	1.396587	-0.627687	-1.106203
O82	O	1.127155	-0.373549	-0.373888
C83	C	1.250926	-0.359240	-0.232014
C84	C	1.190544	-0.433202	-0.305815
H85	H	1.302174	-0.407441	-0.176944
H86	H	1.302400	-0.304378	-0.280283
H87	H	1.192838	-0.311140	-0.184128
H88	H	1.248557	-0.481371	-0.353717
H89	H	1.139054	-0.487996	-0.257486
H90	H	1.396442	-0.905968	-0.627988
O91	O	1.385949	-0.638431	-0.898665
C92	C	1.252569	-0.771662	-0.910189
C93	C	1.326524	-0.697691	-0.970518
H94	H	1.204489	-0.819577	-0.968256
H95	H	1.300725	-0.826687	-0.858846
H96	H	1.197688	-0.723420	-0.858792
H97	H	1.381420	-0.745847	-1.021972
H98	H	1.278302	-0.642662	-1.021795
O99	O	0.910697	-0.638715	-0.638282
C100	C	0.786842	-0.780629	-0.652184
C101	C	0.847215	-0.706607	-0.578435
H102	H	0.735520	-0.835553	-0.603827
H103	H	0.735444	-0.732522	-0.707199
H104	H	0.844937	-0.828659	-0.700133
H105	H	0.789196	-0.658561	-0.530418
H106	H	0.898630	-0.754774	-0.523490
O107	O	1.653131	-1.221799	-0.371841
C108	C	1.727045	-1.379253	-0.298269
C109	C	1.726948	-1.258549	-0.298293
H110	H	1.786736	-1.409002	-0.238828
H111	H	1.645745	-1.409190	-0.276344
H112	H	1.748775	-1.408926	-0.379685
H113	H	1.705263	-1.228786	-0.216902
H114	H	1.808257	-1.228682	-0.320277
H115	H	1.652787	-0.806421	-0.371867
