data_functionalizedCrystal
_audit_creation_method	'MofGen! by Chris Wilmer'
_symmetry_space_group_name_H-M	'P1'
_symmetry_Int_Tables_number	1
_symmetry_cell_setting	triclinic
loop_
_symmetry_equiv_pos_as_xyz
  x,y,z
_cell_length_a	19.288864
_cell_length_b	10.654550
_cell_length_c	18.366186
_cell_angle_alpha	89.994973
_cell_angle_beta	89.977106
_cell_angle_gamma	83.810575
loop_
_atom_site_label
_atom_site_type_symbol
_atom_site_fract_x
_atom_site_fract_y
_atom_site_fract_z
O1	O	0.922379	0.156657	-0.060782
O2	O	0.720256	0.177789	-0.060732
O3	O	0.825965	-0.015616	-0.060755
O4	O	0.816670	0.350062	-0.060758
O5	O	0.825946	-0.015625	0.060344
O6	O	0.720238	0.177780	0.060368
O7	O	0.922360	0.156647	0.060318
Zn8	Zn	0.821296	0.167212	0.079570
Zn9	Zn	0.821320	0.167224	-0.079984
O10	O	0.816652	0.350052	0.060341
C11	C	0.694366	0.177105	-0.000176
C12	C	0.617249	0.175063	-0.000156
C13	C	0.573296	0.288545	-0.000169
C14	C	0.500836	0.286627	-0.000177
C15	C	0.472333	0.171222	-0.000187
C16	C	0.516296	0.057725	-0.000171
C17	C	0.588754	0.059646	-0.000155
C18	C	0.363484	0.080503	-0.042637
C19	C	0.291027	0.078587	-0.042657
C20	C	0.248849	0.165292	-0.000231
C21	C	0.279136	0.253935	0.042205
C22	C	0.351594	0.255855	0.042221
C23	C	0.393766	0.169126	-0.000203
C24	C	0.126326	0.276702	-0.000251
C25	C	0.053865	0.274779	-0.000255
C26	C	0.069327	0.045875	-0.000256
C27	C	0.141786	0.047800	-0.000245
C28	C	0.170281	0.163217	-0.000246
C29	C	0.825273	-0.062404	-0.000206
C30	C	0.823231	-0.201803	-0.000208
C31	C	0.885471	-0.282621	-0.000221
C32	C	0.883548	-0.413601	-0.000226
C33	C	0.757141	-0.382932	-0.000201
C34	C	0.759065	-0.251955	-0.000202
C35	C	0.958451	-0.300329	-0.000232
C36	C	0.956528	-0.431309	-0.000237
C37	C	0.948250	0.157332	-0.000240
C38	C	1.025367	0.159373	-0.000264
C39	C	0.817344	0.396840	-0.000209
C40	C	0.819385	0.536240	-0.000212
N41	N	0.821285	0.167203	0.188461
N42	N	0.821337	0.167224	-0.188875
C43	C	0.868108	0.081605	0.226551
C44	C	0.868113	0.081599	0.302779
C45	C	0.821300	0.167213	0.340914
C46	C	0.774468	0.252817	0.302815
C47	C	0.774461	0.252812	0.226588
C48	C	0.812752	0.281634	0.461675
C49	C	0.812764	0.281641	0.537899
C50	C	0.821320	0.167229	0.576021
C51	C	0.829879	0.052804	0.537909
C52	C	0.829871	0.052799	0.461682
C53	C	0.821303	0.167228	0.423569
C54	C	0.868151	0.081618	0.696766
C55	C	0.868151	0.081610	0.772995
C56	C	0.774509	0.252840	0.773030
C57	C	0.774507	0.252836	0.696802
C58	C	0.821331	0.167226	0.658675
H59	H	0.376250	0.328027	0.076776
C60	C	0.803612	0.405832	0.579317
C61	C	0.862243	0.415547	0.623034
C62	C	0.853837	0.529942	0.661191
H63	H	0.763224	0.408667	0.609134
H64	H	0.798539	0.474014	0.545724
H65	H	0.867308	0.347384	0.656624
H66	H	0.902639	0.412735	0.593236
H67	H	0.848765	0.598125	0.627598
H68	H	0.813447	0.532766	0.691003
H69	H	0.893619	0.536554	0.690852
H70	H	0.708383	-0.186156	-0.000201
H71	H	0.704899	-0.423782	-0.000196
H72	H	0.266373	0.006414	-0.077214
C73	C	0.636364	-0.063704	-0.000185
C74	C	0.595898	-0.165187	-0.000211
C75	C	0.639732	-0.278837	-0.000250
H76	H	0.664945	-0.067895	0.042037
H77	H	0.664961	-0.067776	-0.042428
H78	H	0.567312	-0.161118	0.042028
H79	H	0.567318	-0.161038	-0.042430
H80	H	0.668330	-0.282909	-0.042493
H81	H	0.668311	-0.283015	0.041973
H82	H	0.612283	-0.347706	-0.000274
H83	H	0.978591	-0.477420	-0.052530
C84	C	0.453220	0.409977	-0.000235
C85	C	0.493684	0.511463	-0.000251
C86	C	0.449847	0.625110	-0.000317
H87	H	0.424590	0.414171	0.041975
H88	H	0.424672	0.414041	-0.042491
H89	H	0.522221	0.507401	0.042001
H90	H	0.522313	0.507310	-0.042458
H91	H	0.421298	0.629174	-0.042573
H92	H	0.421219	0.629291	0.041893
H93	H	0.477295	0.693982	-0.000335
C94	C	0.723564	0.345825	0.344083
C95	C	0.682542	0.420769	0.294406
C96	C	0.635630	0.506447	0.332394
H97	H	0.748718	0.398113	0.373804
H98	H	0.694403	0.300812	0.373823
H99	H	0.711699	0.465779	0.264678
H100	H	0.657373	0.368516	0.264683
H101	H	0.606470	0.461433	0.362134
H102	H	0.660790	0.558725	0.362113
H103	H	0.607787	0.557298	0.298694
H104	H	0.596492	0.382526	-0.000171
C105	C	0.996507	-0.262222	-0.067875
C106	C	1.017863	-0.369856	-0.109251
C107	C	1.052912	-0.334799	-0.171571
H108	H	1.036175	-0.222329	-0.053902
H109	H	0.966118	-0.205333	-0.096065
H110	H	1.048251	-0.426724	-0.081067
H111	H	0.978209	-0.409763	-0.123244
H112	H	1.022523	-0.277910	-0.199761
H113	H	1.092577	-0.294905	-0.157591
H114	H	1.067401	-0.407820	-0.199656
C115	C	0.989283	-0.253687	0.069607
C116	C	1.007783	-0.356307	0.115859
C117	C	1.036105	-0.313368	0.180240
H118	H	0.955726	-0.195480	0.093054
H119	H	1.029515	-0.213171	0.058456
H120	H	0.967556	-0.396804	0.127011
H121	H	1.041346	-0.414524	0.092435
H122	H	1.076337	-0.272852	0.169089
H123	H	1.002544	-0.255161	0.203680
H124	H	1.048666	-0.382990	0.211627
H125	H	0.984018	-0.473662	0.050435
C126	C	0.723755	0.345989	0.655483
C127	C	0.735626	0.469341	0.673997
C128	C	0.688890	0.555189	0.635942
H129	H	0.677308	0.332738	0.667969
H130	H	0.730457	0.333814	0.604616
H131	H	0.728918	0.481511	0.724852
H132	H	0.782064	0.482633	0.661509
H133	H	0.695592	0.543014	0.585076
H134	H	0.642446	0.541926	0.648432
H135	H	0.696942	0.638892	0.648494
H136	H	0.906234	0.011894	0.195510
C137	C	0.919026	-0.011403	0.344014
C138	C	0.960038	-0.086362	0.294308
C139	C	1.006951	-0.172041	0.332265
H140	H	0.893873	-0.063680	0.373769
H141	H	0.948194	0.033609	0.373717
H142	H	0.930875	-0.131371	0.264618
H143	H	0.985207	-0.034120	0.264552
H144	H	1.036118	-0.127028	0.361968
H145	H	0.981791	-0.224309	0.362018
H146	H	1.034787	-0.222903	0.298546
C147	C	0.189477	-0.075452	-0.000391
C148	C	0.176561	-0.144944	-0.062708
C149	C	0.220486	-0.258489	-0.062870
H150	H	0.180794	-0.122947	0.041786
H151	H	0.236722	-0.057835	-0.000421
H152	H	0.129326	-0.162564	-0.062672
H153	H	0.185248	-0.097488	-0.104896
H154	H	0.267732	-0.240872	-0.062899
H155	H	0.211800	-0.305972	-0.020690
H156	H	0.211734	-0.305648	-0.105154
C157	C	0.803609	0.405906	0.420323
C158	C	0.857586	0.477901	0.438817
C159	C	0.849195	0.592372	0.400731
H160	H	0.760059	0.451057	0.432799
H161	H	0.804864	0.389565	0.369462
H162	H	0.856324	0.494246	0.489668
H163	H	0.901143	0.432789	0.426340
H164	H	0.850451	0.576031	0.349870
H165	H	0.805644	0.637512	0.413209
H166	H	0.885820	0.641230	0.413269
H167	H	0.736331	0.322517	0.195575
C168	C	0.919025	-0.011130	0.814448
C169	C	0.961846	0.055580	0.858200
C170	C	1.008714	-0.029810	0.896405
H171	H	0.946977	-0.062149	0.780906
H172	H	0.893813	-0.063278	0.844242
H173	H	0.987056	0.107706	0.828409
H174	H	0.933913	0.106594	0.891755
H175	H	0.983502	-0.081958	0.926198
H176	H	1.036661	-0.080824	0.862857
H177	H	1.037769	0.015440	0.926100
C178	C	0.409151	-0.013695	-0.088787
C179	C	0.367120	-0.091698	-0.125976
C180	C	0.409162	-0.178470	-0.168503
H181	H	0.440839	-0.063784	-0.058276
H182	H	0.434488	0.030451	-0.122932
H183	H	0.341795	-0.135841	-0.091835
H184	H	0.335433	-0.041644	-0.156499
H185	H	0.434498	-0.134324	-0.202647
H186	H	0.440848	-0.228550	-0.137987
H187	H	0.380649	-0.231397	-0.193745
H188	H	0.493084	-0.036239	-0.000189
H189	H	0.244796	0.324537	0.076753
C190	C	0.839025	-0.071402	0.579320
C191	C	0.780399	-0.081108	0.623096
C192	C	0.788799	-0.195514	0.661247
H193	H	0.879419	-0.074257	0.609096
H194	H	0.844086	-0.139576	0.545723
H195	H	0.775346	-0.012953	0.656688
H196	H	0.739998	-0.078276	0.593338
H197	H	0.793860	-0.263688	0.627650
H198	H	0.829195	-0.198359	0.691019
H199	H	0.749021	-0.202120	0.690948
C200	C	0.157136	0.402134	-0.000207
C201	C	0.103130	0.501110	-0.000193
C202	C	0.131483	0.616676	-0.000142
H203	H	0.185092	0.407827	-0.042421
H204	H	0.185039	0.407703	0.042045
H205	H	0.075238	0.495544	-0.042440
H206	H	0.075169	0.495459	0.042018
H207	H	0.159386	0.622245	0.042110
H208	H	0.159439	0.622356	-0.042356
H209	H	0.094844	0.683844	-0.000125
C210	C	0.918900	-0.011494	0.655375
C211	C	0.907059	-0.134874	0.673880
C212	C	0.953789	-0.220663	0.635747
H213	H	0.965349	0.001771	0.667803
H214	H	0.912171	0.000728	0.604520
H215	H	0.913794	-0.147092	0.724724
H216	H	0.860619	-0.148180	0.661450
H217	H	0.947060	-0.208440	0.584892
H218	H	1.000236	-0.207386	0.648178
H219	H	0.945757	-0.304385	0.648293
C220	C	0.723646	0.345592	0.814516
C221	C	0.680826	0.278892	0.858317
C222	C	0.633965	0.364292	0.896555
H223	H	0.695693	0.396611	0.780993
H224	H	0.748864	0.397739	0.844278
H225	H	0.655611	0.226768	0.828558
H226	H	0.708760	0.227878	0.891854
H227	H	0.659182	0.416438	0.926317
H228	H	0.606016	0.415306	0.863027
H229	H	0.604910	0.319049	0.926284
H230	H	0.018079	0.367194	-0.000261
H231	H	0.046120	-0.048091	-0.000309
H232	H	0.836838	-0.040369	0.430654
