data_functionalizedCrystal
_audit_creation_method	'MofGen! by Chris Wilmer'
_symmetry_space_group_name_H-M	'P1'
_symmetry_Int_Tables_number	1
_symmetry_cell_setting	triclinic
loop_
_symmetry_equiv_pos_as_xyz
  x,y,z
_cell_length_a	9.016244
_cell_length_b	11.026607
_cell_length_c	10.967829
_cell_angle_alpha	83.619437
_cell_angle_beta	102.130085
_cell_angle_gamma	89.992855
loop_
_atom_site_label
_atom_site_type_symbol
_atom_site_fract_x
_atom_site_fract_y
_atom_site_fract_z
O1	O	0.257143	-1.614540	0.523507
O2	O	0.241909	-1.260736	0.463895
O3	O	0.203560	-1.445795	0.313885
O4	O	0.295491	-1.429482	0.673517
O5	O	-0.043121	-1.445768	0.313883
O6	O	-0.004773	-1.260709	0.463893
O7	O	0.010462	-1.614513	0.523505
Cu8	Cu	-0.019679	-1.437609	0.493699
Cu9	Cu	0.272050	-1.437641	0.493701
O10	O	0.048810	-1.429455	0.673516
C11	C	0.115758	-1.215420	0.452897
C12	C	0.107379	-1.080432	0.420113
N13	N	-0.224866	-1.437595	0.493699
C14	C	0.068271	-1.444592	0.267127
C15	C	0.032666	-1.441035	0.127805
C16	C	-0.439488	-1.338297	0.573539
C17	C	-0.267488	-1.338517	0.573965
C18	C	-0.272638	-1.564693	0.550688
C19	C	-0.444429	-1.564151	0.551289
C20	C	-0.494401	-1.411056	0.356810
C21	C	-0.322390	-1.408140	0.357032
N22	N	0.477234	-1.437664	0.493694
C23	C	0.136616	-1.659829	0.534504
C24	C	0.145004	-1.794817	0.567287
C25	C	0.130519	-1.007383	0.510634
C26	C	0.121861	-0.867865	0.476753
C27	C	0.144582	-1.439463	0.065697
C28	C	0.107785	-1.435786	-0.078300
C29	C	0.184103	-1.430657	0.720273
C30	C	0.219717	-1.434215	0.859596
H31	H	-0.235097	-1.244078	0.535807
O32	O	-0.461288	-1.591881	0.671496
C33	C	-0.336608	-1.642653	0.888181
C34	C	-0.317309	-1.611239	0.752105
H35	H	-0.220221	-1.658338	0.953388
H36	H	-0.398591	-1.563967	0.916964
H37	H	-0.405323	-1.729004	0.894913
H38	H	-0.248561	-1.524922	0.745270
H39	H	-0.255390	-1.689995	0.723381
H40	H	-0.457020	-1.355172	0.673926
H41	H	0.156733	-1.048131	0.613216
O42	O	0.176567	-0.843458	0.689661
C43	C	0.346034	-0.971173	0.852687
C44	C	0.310475	-0.916152	0.714083
H45	H	0.454281	-1.029978	0.872469
H46	H	0.362228	-0.894512	0.915621
H47	H	0.247838	-1.029832	0.872559
H48	H	0.408623	-0.857505	0.694091
H49	H	0.294222	-0.992871	0.651222
H50	H	0.095674	-0.827123	0.374165
H51	H	-0.200527	-1.355614	0.674951
O52	O	0.366491	-1.435608	-0.076609
C53	C	0.557718	-1.334010	0.061653
C54	C	0.391446	-1.332356	-0.010472
H55	H	0.577955	-1.250527	0.115121
H56	H	0.582170	-1.420417	0.130730
H57	H	0.636159	-1.332275	-0.007582
H58	H	0.312896	-1.334046	0.058668
H59	H	0.367119	-1.245956	-0.079567
H60	H	-0.490581	-1.243562	0.535590
H61	H	-0.015280	-1.434402	-0.131729
H62	H	0.081195	-1.039684	0.317532
H63	H	0.267638	-1.440834	0.119130
H64	H	-0.090391	-1.439651	0.074371
H65	H	-0.245900	-1.640440	0.495273
O66	O	-0.291050	-1.488781	0.280103
C67	C	-0.388316	-1.641685	0.145319
C68	C	-0.424020	-1.550376	0.232382
H69	H	-0.495791	-1.691527	0.106733
H70	H	-0.344690	-1.590507	0.064229
H71	H	-0.297988	-1.710681	0.200620
H72	H	-0.514377	-1.481357	0.177189
H73	H	-0.467560	-1.601636	0.313474
O74	O	-0.510411	-1.655150	0.486307
C75	C	-0.474604	-1.820295	0.367956
C76	C	-0.399688	-1.717311	0.441544
H77	H	-0.385125	-1.870565	0.331722
H78	H	-0.528124	-1.886974	0.432322
H79	H	-0.566063	-1.779524	0.285264
H80	H	-0.308168	-1.757975	0.524237
H81	H	-0.346270	-1.650648	0.377093
H82	H	-0.292533	-1.314639	0.314446
H83	H	-0.550048	-1.320337	0.309084
O84	O	-0.190697	-1.593245	0.669594
C85	C	-0.014757	-1.735179	0.811413
C86	C	-0.107442	-1.702985	0.676696
H87	H	0.052554	-1.823918	0.817205
H88	H	0.066732	-1.658632	0.837522
H89	H	-0.095039	-1.746856	0.879275
H90	H	-0.027275	-1.691327	0.608744
H91	H	-0.188948	-1.779546	0.650692
H92	H	-0.550328	-1.483507	0.297056
