data_functionalizedCrystal
_audit_creation_method	'MofGen! by Chris Wilmer'
_symmetry_space_group_name_H-M	'P1'
_symmetry_Int_Tables_number	1
_symmetry_cell_setting	triclinic
loop_
_symmetry_equiv_pos_as_xyz
  x,y,z
_cell_length_a	17.077404
_cell_length_b	25.639240
_cell_length_c	17.077396
_cell_angle_alpha	89.961743
_cell_angle_beta	89.981638
_cell_angle_gamma	90.030728
loop_
_atom_site_label
_atom_site_type_symbol
_atom_site_fract_x
_atom_site_fract_y
_atom_site_fract_z
Zn1	Zn	1.200001	-0.208179	-0.443765
Zn2	Zn	1.700001	0.291821	0.056235
Zn3	Zn	1.199885	-0.295617	-0.312477
Zn4	Zn	1.699885	0.204383	0.187523
Zn5	Zn	1.068733	-0.208194	-0.312516
Zn6	Zn	1.568733	0.291806	0.187484
Zn7	Zn	1.068678	-0.295582	-0.443703
Zn8	Zn	1.568678	0.204418	0.056297
O9	O	1.134324	-0.251893	-0.378115
O10	O	1.634324	0.248107	0.121885
O11	O	1.309832	-0.219786	-0.426360
O12	O	1.809832	0.280214	0.073640
O13	O	1.182462	-0.284041	-0.202635
O14	O	1.682462	0.215959	0.297365
O15	O	1.086217	-0.135027	-0.329969
O16	O	1.586217	0.364973	0.170031
O17	O	1.309747	-0.284026	-0.329902
O18	O	1.809747	0.215974	0.170098
O19	O	1.182659	-0.135016	-0.426397
O20	O	1.682659	0.364984	0.073603
O21	O	1.086105	-0.219811	-0.202664
O22	O	1.586105	0.280189	0.297336
O23	O	0.958878	-0.219778	-0.329909
O24	O	1.458878	0.280222	0.170091
O25	O	1.086124	-0.283967	-0.553559
O26	O	1.586124	0.216033	-0.053559
O27	O	0.958838	-0.283982	-0.426291
O28	O	1.458838	0.216018	0.073709
O29	O	1.182606	-0.219753	-0.553604
O30	O	1.682606	0.280247	-0.053604
O31	O	1.182409	-0.368777	-0.329842
O32	O	1.682409	0.131223	0.170158
O33	O	1.086012	-0.368752	-0.426254
O34	O	1.586012	0.131248	0.073746
C35	C	0.930376	-0.251878	-0.378098
C36	C	1.430376	0.248122	0.121902
C37	C	0.843126	-0.251884	-0.378109
C38	C	1.343126	0.248116	0.121891
C39	C	1.134213	-0.387736	-0.378054
C40	C	1.634213	0.112264	0.121946
C41	C	1.134238	-0.445850	-0.378054
C42	C	1.634238	0.054150	0.121946
C43	C	0.802181	-0.218494	-0.428411
C44	C	1.302181	0.281506	0.071589
C45	C	0.720201	-0.218498	-0.428414
C46	C	1.220201	0.281502	0.071586
C47	C	0.679167	-0.251894	-0.378120
C48	C	1.179167	0.248106	0.121880
C49	C	0.720118	-0.285286	-0.327812
C50	C	1.220118	0.214714	0.172188
C51	C	0.802097	-0.285280	-0.327805
C52	C	1.302097	0.214720	0.172195
C53	C	0.549248	-0.285298	-0.327832
C54	C	1.049248	0.214702	0.172168
C55	C	0.467263	-0.285305	-0.327840
C56	C	0.967263	0.214695	0.172160
C57	C	0.467352	-0.218516	-0.428441
C58	C	0.967352	0.281484	0.071559
C59	C	0.549331	-0.218509	-0.428434
C60	C	1.049331	0.281491	0.071566
C61	C	0.590276	-0.251902	-0.378127
C62	C	1.090276	0.248098	0.121873
C63	C	1.184566	-0.806168	-0.428416
C64	C	1.684566	-0.306168	0.071584
C65	C	1.184590	-0.860773	-0.428432
C66	C	1.684590	-0.360773	0.071568
O67	O	1.227249	-0.888972	-0.471189
O68	O	1.727249	-0.388972	0.028811
N69	N	1.134433	-0.888132	-0.378191
N70	N	1.634433	-0.388132	0.121809
C71	C	1.084244	-0.860884	-0.327937
C72	C	1.584244	-0.360884	0.172063
O73	O	1.041584	-0.889169	-0.285205
O74	O	1.541584	-0.389169	0.214795
C75	C	1.084218	-0.806281	-0.327925
C76	C	1.584218	-0.306281	0.172075
C77	C	1.134383	-0.778924	-0.378164
C78	C	1.634383	-0.278924	0.121836
C79	C	1.234727	-0.778812	-0.478651
C80	C	1.734727	-0.278812	0.021349
C81	C	1.234705	-0.724211	-0.478634
C82	C	1.734705	-0.224211	0.021366
C83	C	1.184522	-0.696967	-0.428382
C84	C	1.684522	-0.196967	0.071618
C85	C	1.134361	-0.724324	-0.378147
C86	C	1.634361	-0.224324	0.121853
C87	C	1.034026	-0.779034	-0.277675
C88	C	1.534026	-0.279034	0.222325
C89	C	1.034003	-0.724427	-0.277669
C90	C	1.534003	-0.224427	0.222331
C91	C	1.084169	-0.697071	-0.327907
C92	C	1.584169	-0.197071	0.172093
C93	C	1.084156	-0.642479	-0.327877
C94	C	1.584156	-0.142479	0.172123
N95	N	1.134312	-0.615120	-0.378118
N96	N	1.634312	-0.115120	0.121882
C97	C	1.184495	-0.642364	-0.428371
C98	C	1.684495	-0.142364	0.071629
C99	C	1.084303	-0.975555	-0.327966
C100	C	1.584303	-0.475555	0.172034
C101	C	1.084333	-1.030157	-0.327972
C102	C	1.584333	-0.530157	0.172028
C103	C	1.184677	-1.030042	-0.428469
C104	C	1.684677	-0.530042	0.071531
C105	C	1.184651	-0.975439	-0.428458
C106	C	1.684651	-0.475439	0.071542
C107	C	1.134460	-0.948196	-0.378206
C108	C	1.634460	-0.448196	0.121794
C109	C	1.184445	-0.527699	-0.428330
C110	C	1.684445	-0.027699	0.071670
C111	C	1.184421	-0.473094	-0.428306
C112	C	1.684421	0.026906	0.071694
C113	C	1.084074	-0.473214	-0.327813
C114	C	1.584074	0.026786	0.172187
C115	C	1.084101	-0.527814	-0.327833
C116	C	1.584101	-0.027814	0.172167
C117	C	1.134289	-0.555056	-0.378099
C118	C	1.634289	-0.055056	0.121901
O119	O	1.041516	-0.614245	-0.285145
O120	O	1.541516	-0.114245	0.214855
O121	O	1.227141	-0.614072	-0.471102
O122	O	1.727141	-0.114072	0.028898
C123	C	1.339068	-0.251908	-0.378134
C124	C	1.839068	0.248092	0.121866
C125	C	1.426318	-0.251915	-0.378141
C126	C	1.926318	0.248085	0.121859
C127	C	1.134372	-0.251855	-0.582860
C128	C	1.634372	0.248145	-0.082860
C129	C	1.134392	-0.251838	-0.670110
C130	C	1.634392	0.248162	-0.170110
C131	C	1.134457	-0.115520	-0.378194
C132	C	1.634457	0.384480	0.121806
C133	C	1.134513	-0.057406	-0.378228
C134	C	1.634513	0.442594	0.121772
C135	C	1.184632	-0.218399	-0.711125
C136	C	1.684632	0.281601	-0.211125
C137	C	1.184641	-0.218381	-0.793105
C138	C	1.684641	0.281619	-0.293105
C139	C	1.134414	-0.251806	-0.834069
C140	C	1.634414	0.248194	-0.334069
C141	C	1.084168	-0.285247	-0.793048
C142	C	1.584168	0.214753	-0.293048
C143	C	1.084156	-0.285262	-0.711069
C144	C	1.584156	0.214738	-0.211069
C145	C	1.084200	-0.285216	-0.963918
C146	C	1.584200	0.214784	-0.463918
C147	C	1.084214	-0.285202	-1.045903
C148	C	1.584214	0.214798	-0.545903
C149	C	1.184686	-0.218335	-1.045955
C150	C	1.684686	0.281665	-0.545955
C151	C	1.184673	-0.218350	-0.963976
C152	C	1.684673	0.281650	-0.463976
C153	C	1.134428	-0.251792	-0.922960
C154	C	1.634428	0.248208	-0.422960
C155	C	1.134322	-0.251894	-0.174168
C156	C	1.634322	0.248106	0.325832
C157	C	1.134454	-0.251763	-0.086918
C158	C	1.634454	0.248237	0.413082
H159	H	0.835585	-0.191300	-0.469369
H160	H	1.335585	0.308700	0.030631
O161	O	0.423000	-0.321317	-0.273585
O162	O	0.923000	0.178683	0.226415
H163	H	0.438713	-0.362365	-0.286909
H164	H	0.938713	0.137635	0.213091
H165	H	0.582583	-0.312488	-0.286865
H166	H	1.082583	0.187512	0.213135
H167	H	1.225577	-0.191135	-0.930625
H168	H	1.725577	0.308865	-0.430625
H169	H	1.043491	-1.052426	-0.287055
H170	H	1.543491	-0.552426	0.212945
H171	H	1.275552	-0.701941	-0.519545
H172	H	1.775552	-0.201941	-0.019545
H173	H	0.686702	-0.312476	-0.286858
H174	H	1.186702	0.187524	0.213142
H175	H	1.043434	-0.953376	-0.287038
H176	H	1.543434	-0.453376	0.212962
O177	O	0.676035	-0.182484	-0.482667
O178	O	1.176035	0.317516	0.017333
H179	H	0.718341	-0.159264	-0.517645
H180	H	1.218341	0.340736	-0.017645
H181	H	0.993176	-0.801298	-0.236765
H182	H	1.493176	-0.301298	0.263235
O183	O	0.593594	-0.182486	-0.482672
O184	O	1.093594	0.317514	0.017328
H185	H	0.551351	-0.159262	-0.517647
H186	H	1.051351	0.340738	-0.017647
H187	H	1.225308	-0.549873	-0.469266
H188	H	1.725308	-0.049873	0.030734
H189	H	1.043237	-0.312486	-0.677676
H190	H	1.543237	0.187514	-0.177676
O191	O	1.238801	-1.059433	-0.482676
O192	O	1.738801	-0.559433	0.017324
H193	H	1.225298	-1.048923	-0.544268
H194	H	1.725298	-0.548923	-0.044268
H195	H	1.275592	-0.800988	-0.519578
H196	H	1.775592	-0.300988	-0.019578
O197	O	0.423197	-0.182494	-0.482697
O198	O	0.923197	0.317506	0.017303
H199	H	0.359298	-0.188102	-0.474246
H200	H	0.859298	0.311898	0.025754
O201	O	0.979870	-0.695047	-0.223459
O202	O	1.479870	-0.195047	0.276541
H203	H	0.939895	-0.670174	-0.258546
H204	H	1.439895	-0.170174	0.241454
O205	O	0.846266	-0.321294	-0.273553
O206	O	1.346266	0.178706	0.226447
H207	H	0.803961	-0.344521	-0.238585
H208	H	1.303961	0.155479	0.261415
H209	H	1.043258	-0.550089	-0.286919
H210	H	1.543258	-0.050089	0.213081
O211	O	1.030025	-0.321244	-1.090084
O212	O	1.530025	0.178756	-0.590084
H213	H	1.038480	-0.315616	-1.153979
H214	H	1.538480	0.184384	-0.653979
O215	O	1.238538	-0.443586	-0.482485
O216	O	1.738538	0.056414	0.017515
H217	H	1.273434	-0.471708	-0.517432
H218	H	1.773434	0.028292	-0.017432
H219	H	1.225535	-0.191182	-0.677778
H220	H	1.725535	0.308818	-0.177778
H221	H	1.043270	-0.312460	-0.826407
H222	H	1.543270	0.187540	-0.326407
O223	O	1.029946	-0.443825	-0.273615
O224	O	1.529946	0.056175	0.226385
H225	H	1.038357	-0.401261	-0.282055
H226	H	1.538357	0.098739	0.217945
H227	H	1.225554	-0.191153	-0.826496
H228	H	1.725554	0.308847	-0.326496
H229	H	1.225499	-0.953168	-0.469367
H230	H	1.725499	-0.453168	0.030633
H231	H	1.225596	-0.191105	-1.079353
H232	H	1.725596	0.308895	-0.579353
O233	O	1.030004	-0.321280	-0.919676
O234	O	1.530004	0.178720	-0.419676
H235	H	0.995083	-0.344524	-0.961931
H236	H	1.495083	0.155476	-0.461931
