data_functionalizedCrystal
_audit_creation_method	'MofGen! by Chris Wilmer'
_symmetry_space_group_name_H-M	'P1'
_symmetry_Int_Tables_number	1
_symmetry_cell_setting	triclinic
loop_
_symmetry_equiv_pos_as_xyz
  x,y,z
_cell_length_a	18.215407
_cell_length_b	19.077114
_cell_length_c	18.215399
_cell_angle_alpha	92.270210
_cell_angle_beta	90.019833
_cell_angle_gamma	87.671157
loop_
_atom_site_label
_atom_site_type_symbol
_atom_site_fract_x
_atom_site_fract_y
_atom_site_fract_z
Zn1	Zn	1.113281	0.280200	0.427879
Zn2	Zn	1.446614	0.613534	0.761212
Zn3	Zn	1.779948	0.946867	1.094546
Zn4	Zn	1.108237	0.397902	0.309754
Zn5	Zn	1.441570	0.731235	0.643088
Zn6	Zn	1.774903	1.064569	0.976421
Zn7	Zn	0.990213	0.280223	0.304827
Zn8	Zn	1.323546	0.613557	0.638161
Zn9	Zn	1.656879	0.946890	0.971494
Zn10	Zn	0.985228	0.397863	0.432777
Zn11	Zn	1.318562	0.731196	0.766111
Zn12	Zn	1.651895	1.064530	1.099444
O13	O	1.049240	0.339047	0.368810
O14	O	1.382573	0.672381	0.702143
O15	O	1.715906	1.005714	1.035476
O16	O	1.215596	0.295821	0.412222
O17	O	1.548929	0.629154	0.745555
O18	O	1.882263	0.962487	1.078888
O19	O	1.092555	0.382318	0.206117
O20	O	1.425889	0.715651	0.539451
O21	O	1.759222	1.048984	0.872784
O22	O	1.010735	0.181729	0.317039
O23	O	1.344068	0.515063	0.650372
O24	O	1.677402	0.848396	0.983705
O25	O	1.211890	0.382295	0.325436
O26	O	1.545223	0.715629	0.658769
O27	O	1.878556	1.048962	0.992102
O28	O	1.101153	0.181712	0.407444
O29	O	1.434486	0.515046	0.740778
O30	O	1.767820	0.848379	1.074111
O31	O	1.005844	0.295860	0.202498
O32	O	1.339177	0.629193	0.535831
O33	O	1.672510	0.962526	0.869164
O34	O	0.886567	0.295822	0.321788
O35	O	1.219901	0.629155	0.655122
O36	O	1.553234	0.962488	0.988455
O37	O	1.002240	0.382229	0.535111
O38	O	1.335573	0.715562	0.868444
O39	O	1.668907	1.048895	1.201778
O40	O	0.882905	0.382251	0.415793
O41	O	1.216239	0.715584	0.749126
O42	O	1.549572	1.048918	1.082459
O43	O	1.096320	0.295783	0.531512
O44	O	1.429653	0.629116	0.864845
O45	O	1.762986	0.962449	1.198179
O46	O	1.087722	0.496388	0.330185
O47	O	1.421055	0.829721	0.663519
O48	O	1.754389	1.163055	0.996852
O49	O	0.997348	0.496359	0.420570
O50	O	1.330682	0.829693	0.753903
O51	O	1.664015	1.163026	1.087237
C52	C	0.858034	0.339035	0.368788
C53	C	1.191367	0.672368	0.702121
C54	C	1.524701	1.005702	1.035455
C55	C	0.776234	0.339047	0.368797
C56	C	1.109568	0.672380	0.702130
C57	C	1.442901	1.005714	1.035464
C58	C	0.586150	0.384121	0.417689
C59	C	0.919483	0.717455	0.751022
C60	C	1.252817	1.050788	1.084355
C61	C	0.509291	0.384124	0.417698
C62	C	0.842625	0.717457	0.751031
C63	C	1.175958	1.050790	1.084365
C64	C	0.513081	0.293986	0.319947
C65	C	0.846414	0.627319	0.653280
C66	C	1.179747	0.960652	0.986614
C67	C	0.589938	0.293980	0.319942
C68	C	0.923272	0.627314	0.653275
C69	C	1.256605	0.960647	0.986608
C70	C	0.626471	0.339052	0.368812
C71	C	0.959804	0.672386	0.702145
C72	C	1.293137	1.005719	1.035478
C73	C	0.472754	0.339060	0.368826
C74	C	0.806088	0.672393	0.702160
C75	C	1.139421	1.005726	1.035493
C76	C	0.389421	0.339062	0.368836
C77	C	0.722754	0.672395	0.702169
C78	C	1.056087	1.005728	1.035503
C79	C	0.709810	0.339050	0.368803
C80	C	1.043143	0.672383	0.702137
C81	C	1.376477	1.005716	1.035470
C82	C	1.041467	0.521911	0.376460
C83	C	1.374800	0.855245	0.709793
C84	C	1.708134	1.188578	1.043126
C85	C	1.038209	0.600141	0.379757
C86	C	1.371542	0.933475	0.713091
C87	C	1.704876	1.266808	1.046424
C88	C	1.083768	0.636886	0.334287
C89	C	1.417101	0.970219	0.667620
C90	C	1.750434	1.303552	1.000954
C91	C	1.080708	0.710391	0.337393
C92	C	1.414041	1.043724	0.670726
C93	C	1.747375	1.377058	1.004059
C94	C	1.032085	0.747151	0.385965
C95	C	1.365419	1.080484	0.719299
C96	C	1.698752	1.413818	1.052632
C97	C	0.986525	0.710401	0.431441
C98	C	1.319858	1.043735	0.764774
C99	C	1.653191	1.377068	1.098107
C100	C	0.989589	0.636897	0.428338
C101	C	1.322922	0.970231	0.761672
C102	C	1.656255	1.303564	1.095005
C103	C	1.017875	0.966985	0.400290
C104	C	1.351209	1.300319	0.733623
C105	C	1.684542	1.633652	1.066957
C106	C	1.014813	1.040495	0.403387
C107	C	1.348146	1.373828	0.736721
C108	C	1.681480	1.707161	1.070054
C109	C	1.108998	1.040479	0.309340
C110	C	1.442331	1.373813	0.642673
C111	C	1.775665	1.707146	0.976007
C112	C	1.112054	0.966974	0.306239
C113	C	1.445388	1.300307	0.639572
C114	C	1.778721	1.633640	0.972905
C115	C	1.066497	0.930231	0.351717
C116	C	1.399830	1.263564	0.685050
C117	C	1.733163	1.596897	1.018383
N118	N	1.028955	0.822285	0.389139
N119	N	1.362288	1.155619	0.722473
N120	N	1.695621	1.488952	1.055806
N121	N	1.069631	0.855098	0.348546
N122	N	1.402965	1.188431	0.681879
N123	N	1.736298	1.521764	1.015212
C124	C	1.241192	0.339060	0.368832
C125	C	1.574525	0.672393	0.702165
C126	C	1.907859	1.005726	1.035498
C127	C	1.322991	0.339065	0.368841
C128	C	1.656324	0.672398	0.702175
C129	C	1.989657	1.005732	1.035508
C130	C	1.049287	0.338999	0.560761
C131	C	1.382620	0.672332	0.894094
C132	C	1.715953	1.005665	1.227427
C133	C	1.049306	0.338978	0.642559
C134	C	1.382640	0.672311	0.975892
C135	C	1.715973	1.005645	1.309225
C136	C	1.057057	1.155469	0.361155
C137	C	1.390390	1.488802	0.694488
C138	C	1.723723	1.822136	1.027822
C139	C	1.060372	1.077239	0.357917
C140	C	1.393705	1.410572	0.691250
C141	C	1.727039	1.743906	1.024584
C142	C	1.049237	0.339045	0.177603
C143	C	1.382571	0.672378	0.510937
C144	C	1.715904	1.005711	0.844270
C145	C	1.049368	0.338867	0.095797
C146	C	1.382702	0.672200	0.429131
C147	C	1.716035	1.005534	0.762464
C148	C	1.098313	0.293923	0.828878
C149	C	1.431646	0.627257	1.162212
C150	C	1.764979	0.960590	1.495545
C151	C	1.098322	0.293903	0.905736
C152	C	1.431656	0.627236	1.239069
C153	C	1.764989	0.960570	1.572403
C154	C	1.000357	0.383924	0.909472
C155	C	1.333690	0.717257	1.242806
C156	C	1.667024	1.050590	1.576139
C157	C	1.000344	0.383940	0.832616
C158	C	1.333678	0.717274	1.165949
C159	C	1.667011	1.050607	1.499282
C160	C	1.049326	0.338941	0.792321
C161	C	1.382660	0.672274	1.125654
C162	C	1.715993	1.005608	1.458987
C163	C	1.049349	0.338904	0.946035
C164	C	1.382682	0.672237	1.279369
C165	C	1.716015	1.005571	1.612702
C166	C	1.049359	0.338882	1.029368
C167	C	1.382692	0.672216	1.362701
C168	C	1.716025	1.005549	1.696035
C169	C	1.049315	0.338962	0.708982
C170	C	1.382649	0.672295	1.042316
C171	C	1.715982	1.005628	1.375649
H172	H	0.615892	0.420820	0.457484
H173	H	0.949226	0.754153	0.790817
H174	H	1.282559	1.087487	1.124150
C175	C	1.130822	0.750806	0.287367
C176	C	1.464155	1.084140	0.620700
C177	C	1.797489	1.417473	0.954033
N178	N	1.168569	0.781247	0.249684
N179	N	1.501902	1.114580	0.583017
N180	N	1.835236	1.447913	0.916350
C181	C	0.961327	1.080929	0.456828
C182	C	1.294660	1.414262	0.790162
C183	C	1.627993	1.747596	1.123495
N184	N	0.921043	1.111384	0.497079
N185	N	1.254377	1.444718	0.830412
N186	N	1.587710	1.778051	1.163745
C187	C	0.946451	0.433464	0.792400
C188	C	1.279784	0.766797	1.125733
C189	C	1.613117	1.100130	1.459067
N190	N	0.905858	0.470761	0.762109
N191	N	1.239191	0.804094	1.095443
N192	N	1.572524	1.137428	1.428776
H193	H	0.483326	0.257291	0.280158
H194	H	0.816660	0.590624	0.613491
H195	H	1.149993	0.923958	0.946824
C196	C	1.152188	0.244417	0.784556
C197	C	1.485521	0.577750	1.117889
C198	C	1.818854	0.911084	1.451223
N199	N	1.192766	0.207125	0.751174
N200	N	1.526099	0.540458	1.084508
N201	N	1.859432	0.873791	1.417841
H202	H	0.960479	0.420562	0.942290
H203	H	1.293813	0.753895	1.275623
H204	H	1.627146	1.087229	1.608957
C205	C	0.967797	0.926578	0.450355
C206	C	1.301131	1.259911	0.783688
C207	C	1.634464	1.593244	1.117022
N208	N	0.930090	0.896140	0.488080
N209	N	1.263424	1.229473	0.821414
N210	N	1.596757	1.562807	1.154747
C211	C	0.464941	0.433710	0.471460
C212	C	0.798275	0.767043	0.804794
C213	C	1.131608	1.100376	1.138127
N214	N	0.431537	0.471062	0.511954
N215	N	0.764871	0.804396	0.845288
N216	N	1.098204	1.137729	1.178621
C217	C	0.634294	0.244399	0.266170
C218	C	0.967627	0.577732	0.599504
C219	C	1.300960	0.911065	0.932837
N220	N	0.667702	0.207054	0.225672
N221	N	1.001036	0.540387	0.559006
N222	N	1.334369	0.873721	0.892339
H223	H	1.123358	0.606961	0.294731
H224	H	1.456692	0.940294	0.628064
H225	H	1.790025	1.273627	0.961397
H226	H	1.151647	0.937045	0.266687
H227	H	1.484980	1.270379	0.600020
H228	H	1.818314	1.603712	0.933353
C229	C	0.939471	0.596479	0.478360
C230	C	1.272804	0.929812	0.811693
C231	C	1.606137	1.263146	1.145026
N232	N	0.901722	0.566037	0.516039
N233	N	1.235056	0.899370	0.849373
N234	N	1.568389	1.232704	1.182706
C235	C	1.159110	1.080902	0.259320
C236	C	1.492444	1.414236	0.592653
C237	C	1.825777	1.747569	0.925987
N238	N	1.196859	1.111349	0.221644
N239	N	1.530192	1.444683	0.554978
N240	N	1.863525	1.778016	0.888311
C241	C	0.933036	0.750840	0.484869
C242	C	1.266370	1.084173	0.818202
C243	C	1.599703	1.417507	1.151536
N244	N	0.892745	0.781297	0.525109
N245	N	1.226078	1.114631	0.858442
N246	N	1.559412	1.447964	1.191776
H247	H	1.138211	0.257244	0.935498
H248	H	1.471544	0.590577	1.268831
H249	H	1.804877	0.923910	1.602164
