data_functionalizedCrystal
_audit_creation_method	'MofGen! by Chris Wilmer'
_symmetry_space_group_name_H-M	'P1'
_symmetry_Int_Tables_number	1
_symmetry_cell_setting	triclinic
loop_
_symmetry_equiv_pos_as_xyz
  x,y,z
_cell_length_a	21.295419
_cell_length_b	25.639240
_cell_length_c	25.639234
_cell_angle_alpha	90.032088
_cell_angle_beta	90.020581
_cell_angle_gamma	90.047559
loop_
_atom_site_label
_atom_site_type_symbol
_atom_site_fract_x
_atom_site_fract_y
_atom_site_fract_z
Zn1	Zn	0.962321	-0.207976	0.295594
Zn2	Zn	1.212321	0.042024	0.545594
Zn3	Zn	1.462321	0.292024	0.795594
Zn4	Zn	1.712321	0.542024	1.045594
Zn5	Zn	0.962227	-0.295404	0.208147
Zn6	Zn	1.212227	-0.045404	0.458147
Zn7	Zn	1.462227	0.204596	0.708147
Zn8	Zn	1.712227	0.454596	0.958147
Zn9	Zn	0.857052	-0.208007	0.208171
Zn10	Zn	1.107052	0.041993	0.458171
Zn11	Zn	1.357052	0.291993	0.708171
Zn12	Zn	1.607052	0.541993	0.958171
Zn13	Zn	0.857010	-0.295405	0.295551
Zn14	Zn	1.107010	-0.045405	0.545551
Zn15	Zn	1.357010	0.204595	0.795551
Zn16	Zn	1.607010	0.454595	1.045551
O17	O	0.909652	-0.251698	0.251866
O18	O	1.159652	-0.001698	0.501866
O19	O	1.409652	0.248302	0.751866
O20	O	1.659652	0.498302	1.001866
O21	O	1.050398	-0.219560	0.284002
O22	O	1.300398	0.030440	0.534002
O23	O	1.550398	0.280440	0.784002
O24	O	1.800398	0.530440	1.034002
O25	O	0.948253	-0.283824	0.134985
O26	O	1.198253	-0.033824	0.384985
O27	O	1.448253	0.216176	0.634985
O28	O	1.698253	0.466176	0.884985
O29	O	0.871073	-0.134838	0.219796
O30	O	1.121073	0.115162	0.469796
O31	O	1.371073	0.365162	0.719796
O32	O	1.621073	0.615162	0.969796
O33	O	1.050329	-0.283794	0.219755
O34	O	1.300329	-0.033794	0.469755
O35	O	1.550329	0.216206	0.719755
O36	O	1.800329	0.466206	0.969755
O37	O	0.948414	-0.134815	0.284025
O38	O	1.198414	0.115185	0.534025
O39	O	1.448414	0.365185	0.784025
O40	O	1.698414	0.615185	1.034025
O41	O	0.870981	-0.219614	0.135003
O42	O	1.120981	0.030386	0.385003
O43	O	1.370981	0.280386	0.635003
O44	O	1.620981	0.530386	0.885003
O45	O	0.768957	-0.219614	0.219754
O46	O	1.018957	0.030386	0.469754
O47	O	1.268957	0.280386	0.719754
O48	O	1.518957	0.530386	0.969754
O49	O	0.871001	-0.283795	0.368722
O50	O	1.121001	-0.033795	0.618722
O51	O	1.371001	0.216205	0.868722
O52	O	1.621001	0.466205	1.118722
O53	O	0.768926	-0.283825	0.283952
O54	O	1.018926	-0.033825	0.533952
O55	O	1.268926	0.216175	0.783952
O56	O	1.518926	0.466175	1.033952
O57	O	0.948373	-0.219561	0.368753
O58	O	1.198373	0.030439	0.618753
O59	O	1.448373	0.280439	0.868753
O60	O	1.698373	0.530439	1.118753
O61	O	0.948212	-0.368570	0.219713
O62	O	1.198212	-0.118570	0.469713
O63	O	1.448212	0.131430	0.719713
O64	O	1.698212	0.381430	0.969713
O65	O	0.870910	-0.368570	0.283928
O66	O	1.120910	-0.118570	0.533928
O67	O	1.370910	0.131430	0.783928
O68	O	1.620910	0.381430	1.033928
C69	C	0.746101	-0.251723	0.251851
C70	C	0.996101	-0.001723	0.501851
C71	C	1.246101	0.248277	0.751851
C72	C	1.496101	0.498277	1.001851
C73	C	0.676132	-0.251747	0.251857
C74	C	0.926132	-0.001747	0.501857
C75	C	1.176132	0.248253	0.751857
C76	C	1.426132	0.498253	1.001857
C77	C	0.643324	-0.218355	0.285362
C78	C	0.893324	0.031645	0.535362
C79	C	1.143324	0.281645	0.785362
C80	C	1.393324	0.531645	1.035362
C81	C	0.577582	-0.218341	0.285364
C82	C	0.827582	0.031659	0.535364
C83	C	1.077582	0.281659	0.785364
C84	C	1.327582	0.531659	1.035364
C85	C	0.544650	-0.251728	0.251867
C86	C	0.794650	-0.001728	0.501867
C87	C	1.044650	0.248272	0.751867
C88	C	1.294650	0.498272	1.001867
C89	C	0.577466	-0.285122	0.218355
C90	C	0.827466	-0.035122	0.468355
C91	C	1.077466	0.214878	0.718355
C92	C	1.327466	0.464878	0.968355
C93	C	0.643207	-0.285131	0.218351
C94	C	0.893207	-0.035131	0.468351
C95	C	1.143207	0.214869	0.718351
C96	C	1.393207	0.464869	0.968351
N97	N	0.441373	-0.297474	0.247777
N98	N	0.691373	-0.047474	0.497777
N99	N	0.941373	0.202526	0.747777
N100	N	1.191373	0.452526	0.997777
N101	N	0.378921	-0.297464	0.247784
N102	N	0.628921	-0.047464	0.497784
N103	N	0.878921	0.202536	0.747784
N104	N	1.128921	0.452536	0.997784
C105	C	0.346575	-0.251701	0.251878
C106	C	0.596575	-0.001701	0.501878
C107	C	0.846575	0.248299	0.751878
C108	C	1.096575	0.498299	1.001878
N109	N	0.379040	-0.205948	0.255975
N110	N	0.629040	0.044052	0.505975
N111	N	0.879040	0.294052	0.755975
N112	N	1.129040	0.544052	1.005975
N113	N	0.441497	-0.205958	0.255970
N114	N	0.691497	0.044042	0.505970
N115	N	0.941497	0.294042	0.755970
N116	N	1.191497	0.544042	1.005970
C117	C	0.473365	-0.251721	0.251868
C118	C	0.723365	-0.001721	0.501868
C119	C	0.973365	0.248279	0.751868
C120	C	1.223365	0.498279	1.001868
C121	C	0.242482	-0.218291	0.285387
C122	C	0.492482	0.031709	0.535387
C123	C	0.742482	0.281709	0.785387
C124	C	0.992482	0.531709	1.035387
C125	C	0.176738	-0.218276	0.285386
C126	C	0.426738	0.031724	0.535386
C127	C	0.676738	0.281724	0.785386
C128	C	0.926738	0.531724	1.035386
C129	C	0.176623	-0.285062	0.218380
C130	C	0.426623	-0.035062	0.468380
C131	C	0.676623	0.214938	0.718380
C132	C	0.926623	0.464938	0.968380
C133	C	0.242366	-0.285072	0.218378
C134	C	0.492366	-0.035072	0.468378
C135	C	0.742366	0.214928	0.718378
C136	C	0.992366	0.464928	0.968378
C137	C	0.275291	-0.251687	0.251885
C138	C	0.525291	-0.001687	0.501885
C139	C	0.775291	0.248313	0.751885
C140	C	1.025291	0.498313	1.001885
C141	C	0.909563	-0.387541	0.251825
C142	C	1.159563	-0.137541	0.501825
C143	C	1.409563	0.112459	0.751825
C144	C	1.659563	0.362459	1.001825
C145	C	0.909583	-0.445655	0.251825
C146	C	1.159583	-0.195655	0.501825
C147	C	1.409583	0.054345	0.751825
C148	C	1.659583	0.304345	1.001825
C149	C	0.949944	-0.805967	0.285370
C150	C	1.199944	-0.555967	0.535370
C151	C	1.449944	-0.305967	0.785370
C152	C	1.699944	-0.055967	1.035370
C153	C	0.949962	-0.860572	0.285381
C154	C	1.199962	-0.610572	0.535381
C155	C	1.449962	-0.360572	0.785381
C156	C	1.699962	-0.110572	1.035381
O157	O	0.984173	-0.888766	0.313860
O158	O	1.234173	-0.638766	0.563860
O159	O	1.484173	-0.388766	0.813860
O160	O	1.734173	-0.138766	1.063860
N161	N	0.909740	-0.887937	0.251916
N162	N	1.159740	-0.637937	0.501916
N163	N	1.409740	-0.387937	0.751916
N164	N	1.659740	-0.137937	1.001916
C165	C	0.869491	-0.860696	0.218443
C166	C	1.119491	-0.610696	0.468443
C167	C	1.369491	-0.360696	0.718443
C168	C	1.619491	-0.110696	0.968443
O169	O	0.835280	-0.888986	0.189980
O170	O	1.085280	-0.638986	0.439980
O171	O	1.335280	-0.388986	0.689980
O172	O	1.585280	-0.138986	0.939980
C173	C	0.869470	-0.806092	0.218435
C174	C	1.119470	-0.556092	0.468435
C175	C	1.369470	-0.306092	0.718435
C176	C	1.619470	-0.056092	0.968435
C177	C	0.909700	-0.778730	0.251898
C178	C	1.159700	-0.528730	0.501898
C179	C	1.409700	-0.278730	0.751898
C180	C	1.659700	-0.028730	1.001898
C181	C	0.990170	-0.778605	0.318831
C182	C	1.240170	-0.528605	0.568831
C183	C	1.490170	-0.278605	0.818831
C184	C	1.740170	-0.028605	1.068831
C185	C	0.990152	-0.724004	0.318819
C186	C	1.240152	-0.474004	0.568819
C187	C	1.490152	-0.224004	0.818819
C188	C	1.740152	0.025996	1.068819
C189	C	0.949908	-0.696766	0.285347
C190	C	1.199908	-0.446766	0.535347
C191	C	1.449908	-0.196766	0.785347
C192	C	1.699908	0.053234	1.035347
C193	C	0.909682	-0.724129	0.251887
C194	C	1.159682	-0.474129	0.501887
C195	C	1.409682	-0.224129	0.751887
C196	C	1.659682	0.025871	1.001887
C197	C	0.829219	-0.778852	0.184965
C198	C	1.079219	-0.528852	0.434965
C199	C	1.329219	-0.278852	0.684965
C200	C	1.579219	-0.028852	0.934965
C201	C	0.829201	-0.724245	0.184960
C202	C	1.079201	-0.474245	0.434960
C203	C	1.329201	-0.224245	0.684960
C204	C	1.579201	0.025755	0.934960
C205	C	0.869430	-0.696882	0.218423
C206	C	1.119430	-0.446882	0.468423
C207	C	1.369430	-0.196882	0.718423
C208	C	1.619430	0.053118	0.968423
C209	C	0.869420	-0.642291	0.218403
C210	C	1.119420	-0.392291	0.468403
C211	C	1.369420	-0.142291	0.718403
C212	C	1.619420	0.107709	0.968403
N213	N	0.909643	-0.614925	0.251868
N214	N	1.159643	-0.364925	0.501868
N215	N	1.409643	-0.114925	0.751868
N216	N	1.659643	0.135075	1.001868
C217	C	0.949887	-0.642163	0.285340
C218	C	1.199887	-0.392163	0.535340
C219	C	1.449887	-0.142163	0.785340
C220	C	1.699887	0.107837	1.035340
C221	C	0.869538	-0.975366	0.218462
C222	C	1.119538	-0.725366	0.468462
C223	C	1.369538	-0.475366	0.718462
C224	C	1.619538	-0.225366	0.968462
C225	C	0.869562	-1.029968	0.218467
C226	C	1.119562	-0.779968	0.468467
C227	C	1.369562	-0.529968	0.718467
C228	C	1.619562	-0.279968	0.968467
C229	C	0.950033	-1.029841	0.285405
C230	C	1.200033	-0.779841	0.535405
C231	C	1.450033	-0.529841	0.785405
C232	C	1.700033	-0.279841	1.035405
C233	C	0.950011	-0.975238	0.285398
C234	C	1.200011	-0.725238	0.535398
C235	C	1.450011	-0.475238	0.785398
C236	C	1.700011	-0.225238	1.035398
C237	C	0.909761	-0.948001	0.251926
C238	C	1.159761	-0.698001	0.501926
C239	C	1.409761	-0.448001	0.751926
C240	C	1.659761	-0.198001	1.001926
C241	C	0.949846	-0.527498	0.285313
C242	C	1.199846	-0.277498	0.535313
C243	C	1.449846	-0.027498	0.785313
C244	C	1.699846	0.222502	1.035313
C245	C	0.949827	-0.472893	0.285297
C246	C	1.199827	-0.222893	0.535297
C247	C	1.449827	0.027107	0.785297
C248	C	1.699827	0.277107	1.035297
C249	C	0.869354	-0.473025	0.218360
C250	C	1.119354	-0.223025	0.468360
C251	C	1.369354	0.026975	0.718360
C252	C	1.619354	0.276975	0.968360
C253	C	0.869376	-0.527626	0.218374
C254	C	1.119376	-0.277626	0.468374
C255	C	1.369376	-0.027626	0.718374
C256	C	1.619376	0.222374	0.968374
C257	C	0.909624	-0.554861	0.251855
C258	C	1.159624	-0.304861	0.501855
C259	C	1.409624	-0.054861	0.751855
C260	C	1.659624	0.195139	1.001855
O261	O	0.835225	-0.614062	0.189940
O262	O	1.085225	-0.364062	0.439940
O263	O	1.335225	-0.114062	0.689940
O264	O	1.585225	0.135938	0.939940
O265	O	0.984086	-0.613866	0.313803
O266	O	1.234086	-0.363866	0.563803
O267	O	1.484086	-0.113866	0.813803
O268	O	1.734086	0.136134	1.063803
C269	C	1.073842	-0.251673	0.251881
C270	C	1.323842	-0.001673	0.501881
C271	C	1.573842	0.248327	0.751881
C272	C	1.823842	0.498327	1.001881
C273	C	1.143811	-0.251663	0.251887
C274	C	1.393811	-0.001663	0.501887
C275	C	1.643811	0.248337	0.751887
C276	C	1.893811	0.498337	1.001887
C277	C	0.909693	-0.251674	0.388239
C278	C	1.159693	-0.001674	0.638239
C279	C	1.409693	0.248326	0.888239
C280	C	1.659693	0.498326	1.138239
C281	C	0.909711	-0.251664	0.446353
C282	C	1.159711	-0.001664	0.696353
C283	C	1.409711	0.248336	0.946353
C284	C	1.659711	0.498336	1.196353
C285	C	0.909759	-0.115325	0.251918
C286	C	1.159759	0.134675	0.501918
C287	C	1.409759	0.384675	0.751918
C288	C	1.659759	0.634675	1.001918
C289	C	0.909804	-0.057211	0.251941
C290	C	1.159804	0.192789	0.501941
C291	C	1.409804	0.442789	0.751941
C292	C	1.659804	0.692789	1.001941
C293	C	0.909648	-0.251684	0.116023
C294	C	1.159648	-0.001684	0.366023
C295	C	1.409648	0.248316	0.616023
C296	C	1.659648	0.498316	0.866023
C297	C	0.909752	-0.251547	0.057910
C298	C	1.159752	-0.001547	0.307910
C299	C	1.409752	0.248453	0.557910
C300	C	1.659752	0.498453	0.807910
C301	C	0.869493	-0.218168	0.806731
C302	C	1.119493	0.031832	1.056731
C303	C	1.369493	0.281832	1.306731
C304	C	1.619493	0.531832	1.556731
C305	C	0.869496	-0.218158	0.861335
C306	C	1.119496	0.031842	1.111335
C307	C	1.369496	0.281842	1.361335
C308	C	1.619496	0.531842	1.611335
O309	O	0.835270	-0.189736	0.889584
O310	O	1.085270	0.060264	1.139584
O311	O	1.335270	0.310264	1.389584
O312	O	1.585270	0.560264	1.639584
N313	N	0.909732	-0.251582	0.888636
N314	N	1.159732	-0.001582	1.138636
N315	N	1.409732	0.248418	1.388636
N316	N	1.659732	0.498418	1.638636
C317	C	0.949961	-0.285022	0.861329
C318	C	1.199961	-0.035022	1.111329
C319	C	1.449961	0.214978	1.361329
C320	C	1.699961	0.464978	1.611329
O321	O	0.984184	-0.313451	0.889564
O322	O	1.234184	-0.063451	1.139564
O323	O	1.484184	0.186549	1.389564
O324	O	1.734184	0.436549	1.639564
C325	C	0.949954	-0.285033	0.806726
C326	C	1.199954	-0.035033	1.056726
C327	C	1.449954	0.214967	1.306726
C328	C	1.699954	0.464967	1.556726
C329	C	0.909721	-0.251603	0.779428
C330	C	1.159721	-0.001603	1.029428
C331	C	1.409721	0.248397	1.279428
C332	C	1.659721	0.498397	1.529428
C333	C	0.829262	-0.184741	0.779433
C334	C	1.079262	0.065259	1.029433
C335	C	1.329262	0.315259	1.279433
C336	C	1.579262	0.565259	1.529433
C337	C	0.829260	-0.184750	0.724833
C338	C	1.079260	0.065250	0.974833
C339	C	1.329260	0.315250	1.224833
C340	C	1.579260	0.565250	1.474833
C341	C	0.869488	-0.218185	0.697530
C342	C	1.119488	0.031815	0.947530
C343	C	1.369488	0.281815	1.197530
C344	C	1.619488	0.531815	1.447530
C345	C	0.909719	-0.251612	0.724827
C346	C	1.159719	-0.001612	0.974827
C347	C	1.409719	0.248388	1.224827
C348	C	1.659719	0.498388	1.474827
C349	C	0.990181	-0.318475	0.779420
C350	C	1.240181	-0.068475	1.029420
C351	C	1.490181	0.181525	1.279420
C352	C	1.740181	0.431525	1.529420
C353	C	0.990170	-0.318484	0.724813
C354	C	1.240170	-0.068484	0.974813
C355	C	1.490170	0.181516	1.224813
C356	C	1.740170	0.431516	1.474813
C357	C	0.949936	-0.285054	0.697515
C358	C	1.199936	-0.035054	0.947515
C359	C	1.449936	0.214946	1.197515
C360	C	1.699936	0.464946	1.447515
C361	C	0.949944	-0.285057	0.642924
C362	C	1.199944	-0.035057	0.892924
C363	C	1.449944	0.214943	1.142924
C364	C	1.699944	0.464943	1.392924
N365	N	0.909709	-0.251633	0.615623
N366	N	1.159709	-0.001633	0.865623
N367	N	1.409709	0.248367	1.115623
N368	N	1.659709	0.498367	1.365623
C369	C	0.869481	-0.218197	0.642926
C370	C	1.119481	0.031803	0.892926
C371	C	1.369481	0.281803	1.142926
C372	C	1.619481	0.531803	1.392926
C373	C	0.949972	-0.284995	0.976000
C374	C	1.199972	-0.034995	1.226000
C375	C	1.449972	0.215005	1.476000
C376	C	1.699972	0.465005	1.726000
C377	C	0.949983	-0.284981	1.030602
C378	C	1.199983	-0.034981	1.280602
C379	C	1.449983	0.215019	1.530602
C380	C	1.699983	0.465019	1.780602
C381	C	0.869517	-0.218118	1.030604
C382	C	1.119517	0.031882	1.280604
C383	C	1.369517	0.281882	1.530604
C384	C	1.619517	0.531882	1.780604
C385	C	0.869510	-0.218130	0.976001
C386	C	1.119510	0.031870	1.226001
C387	C	1.369510	0.281870	1.476001
C388	C	1.619510	0.531870	1.726001
C389	C	0.909737	-0.251571	0.948699
C390	C	1.159737	-0.001571	1.198699
C391	C	1.409737	0.248429	1.448699
C392	C	1.659737	0.498429	1.698699
C393	C	0.869479	-0.218218	0.528261
C394	C	1.119479	0.031782	0.778261
C395	C	1.369479	0.281782	1.028261
C396	C	1.619479	0.531782	1.278261
C397	C	0.869482	-0.218228	0.473656
C398	C	1.119482	0.031772	0.723656
C399	C	1.369482	0.281772	0.973656
C400	C	1.619482	0.531772	1.223656
C401	C	0.949946	-0.285093	0.473658
C402	C	1.199946	-0.035093	0.723658
C403	C	1.449946	0.214907	0.973658
C404	C	1.699946	0.464907	1.223658
C405	C	0.949946	-0.285081	0.528259
C406	C	1.199946	-0.035081	0.778259
C407	C	1.449946	0.214919	1.028259
C408	C	1.699946	0.464919	1.278259
C409	C	0.909707	-0.251642	0.555559
C410	C	1.159707	-0.001642	0.805559
C411	C	1.409707	0.248358	1.055559
C412	C	1.659707	0.498358	1.305559
O413	O	0.984151	-0.313466	0.614640
O414	O	1.234151	-0.063466	0.864640
O415	O	1.484151	0.186534	1.114640
O416	O	1.734151	0.436534	1.364640
O417	O	0.835258	-0.189778	0.614685
O418	O	1.085258	0.060222	0.864685
O419	O	1.335258	0.310222	1.114685
O420	O	1.585258	0.560222	1.364685
H421	H	0.269291	-0.191104	0.312667
H422	H	0.519291	0.058896	0.562667
H423	H	0.769291	0.308896	0.812667
H424	H	1.019291	0.558896	1.062667
H425	H	1.022941	-0.800776	0.346091
H426	H	1.272941	-0.550776	0.596091
H427	H	1.522941	-0.300776	0.846091
H428	H	1.772941	-0.050776	1.096091
H429	H	0.150027	-0.191082	0.312669
H430	H	0.400027	0.058918	0.562669
H431	H	0.650027	0.308918	0.812669
H432	H	0.900027	0.558918	1.062669
O433	O	0.993403	-0.945725	0.321487
O434	O	1.243403	-0.695725	0.571487
O435	O	1.493403	-0.445725	0.821487
O436	O	1.743403	-0.195725	1.071487
H437	H	1.021389	-0.973845	0.344761
H438	H	1.271389	-0.723845	0.594761
H439	H	1.521389	-0.473845	0.844761
H440	H	1.771389	-0.223845	1.094761
O441	O	0.993345	-0.321132	0.557705
O442	O	1.243345	-0.071132	0.807705
O443	O	1.493345	0.178868	1.057705
O444	O	1.743345	0.428868	1.307705
H445	H	0.965149	-0.347732	0.582564
H446	H	1.215149	-0.097732	0.832564
H447	H	1.465149	0.152268	1.082564
H448	H	1.715149	0.402268	1.332564
H449	H	0.669919	-0.312323	0.191066
H450	H	0.919919	-0.062323	0.441066
H451	H	1.169919	0.187677	0.691066
H452	H	1.419919	0.437677	0.941066
H453	H	0.982589	-0.450616	0.312546
H454	H	1.232589	-0.200616	0.562546
H455	H	1.482589	0.049384	0.812546
H456	H	1.732589	0.299384	1.062546
H457	H	0.550864	-0.191147	0.312647
H458	H	0.800864	0.058853	0.562647
H459	H	1.050864	0.308853	0.812647
H460	H	1.300864	0.558853	1.062647
O461	O	0.277754	-0.321090	0.182241
O462	O	0.527754	-0.071090	0.432241
O463	O	0.777754	0.178910	0.682241
O464	O	1.027754	0.428910	0.932241
H465	H	0.307691	-0.347725	0.205586
H466	H	0.557691	-0.097725	0.455586
H467	H	0.807691	0.152275	0.705586
H468	H	1.057691	0.402275	0.955586
H469	H	1.022942	-0.345698	0.801636
H470	H	1.272942	-0.095698	1.051636
H471	H	1.522942	0.154302	1.301636
H472	H	1.772942	0.404302	1.551636
H473	H	0.982752	-0.312197	1.052823
H474	H	1.232752	-0.062197	1.302823
H475	H	1.482752	0.187803	1.552823
H476	H	1.732752	0.437803	1.802823
O477	O	0.141115	-0.321074	0.182248
O478	O	0.391115	-0.071074	0.432248
O479	O	0.641115	0.178926	0.682248
O480	O	0.891115	0.428926	0.932248
H481	H	0.089888	-0.315460	0.187882
H482	H	0.339888	-0.065460	0.437882
H483	H	0.589888	0.184540	0.687882
H484	H	0.839888	0.434540	0.937882
O485	O	0.826090	-0.182166	0.444214
O486	O	1.076090	0.067834	0.694214
O487	O	1.326090	0.317834	0.944214
O488	O	1.576090	0.567834	1.194214
H489	H	0.776677	-0.191139	0.454674
H490	H	1.026677	0.058861	0.704674
H491	H	1.276677	0.308861	0.954674
H492	H	1.526677	0.558861	1.204674
O493	O	0.541952	-0.321133	0.182225
O494	O	0.791952	-0.071133	0.432225
O495	O	1.041952	0.178867	0.682225
O496	O	1.291952	0.428867	0.932225
H497	H	0.490726	-0.315521	0.187860
H498	H	0.740726	-0.065521	0.437860
H499	H	0.990726	0.184479	0.687860
H500	H	1.240726	0.434479	0.937860
O501	O	0.993377	-0.321054	0.946553
O502	O	1.243377	-0.071054	1.196553
O503	O	1.493377	0.178946	1.446553
O504	O	1.743377	0.428946	1.696553
H505	H	1.021359	-0.344286	0.974714
H506	H	1.271359	-0.094286	1.224714
H507	H	1.521359	0.155714	1.474714
H508	H	1.771359	0.405714	1.724714
O509	O	1.033552	-0.694494	0.354904
O510	O	1.283552	-0.444494	0.604904
O511	O	1.533552	-0.194494	0.854904
O512	O	1.783552	0.055506	1.104904
H513	H	1.061536	-0.722615	0.378177
H514	H	1.311536	-0.472615	0.628177
H515	H	1.561536	-0.222615	0.878177
H516	H	1.811536	0.027385	1.128177
H517	H	0.836623	-0.549905	0.191122
H518	H	1.086623	-0.299905	0.441122
H519	H	1.336623	-0.049905	0.691122
H520	H	1.586623	0.200095	0.941122
O521	O	0.785824	-0.808352	0.148872
O522	O	1.035824	-0.558352	0.398872
O523	O	1.285824	-0.308352	0.648872
O524	O	1.535824	-0.058352	0.898872
H525	H	0.792593	-0.850900	0.154492
H526	H	1.042593	-0.600900	0.404492
H527	H	1.292593	-0.350900	0.654492
H528	H	1.542593	-0.100900	0.904492
O529	O	0.825952	-0.443638	0.182260
O530	O	1.075952	-0.193638	0.432260
O531	O	1.325952	0.056362	0.682260
O532	O	1.575952	0.306362	0.932260
H533	H	0.797983	-0.471836	0.158988
H534	H	1.047983	-0.221836	0.408988
H535	H	1.297983	0.028164	0.658988
H536	H	1.547983	0.278164	0.908988
H537	H	0.982616	-0.549666	0.312579
H538	H	1.232616	-0.299666	0.562579
H539	H	1.482616	-0.049666	0.812579
H540	H	1.732616	0.200334	1.062579
O541	O	0.993434	-1.059223	0.321516
O542	O	1.243434	-0.809223	0.571516
O543	O	1.493434	-0.559223	0.821516
O544	O	1.743434	-0.309223	1.071516
H545	H	0.986680	-1.101788	0.315902
H546	H	1.236680	-0.851788	0.565902
H547	H	1.486680	-0.601788	0.815902
H548	H	1.736680	-0.351788	1.065902
H549	H	0.836761	-0.190893	1.052844
H550	H	1.086761	0.059107	1.302844
H551	H	1.336761	0.309107	1.552844
H552	H	1.586761	0.559107	1.802844
O553	O	0.785787	-0.694868	0.148857
O554	O	1.035787	-0.444868	0.398857
O555	O	1.285787	-0.194868	0.648857
O556	O	1.535787	0.055132	0.898857
H557	H	0.813970	-0.669982	0.122274
H558	H	1.063970	-0.419982	0.372274
H559	H	1.313970	-0.169982	0.622274
H560	H	1.563970	0.080018	0.872274
O561	O	0.826176	-1.059480	0.182372
O562	O	1.076176	-0.809480	0.432372
O563	O	1.326176	-0.559480	0.682372
O564	O	1.576176	-0.309480	0.932372
H565	H	0.798188	-1.031360	0.159099
H566	H	1.048188	-0.781360	0.409099
H567	H	1.298188	-0.531360	0.659099
H568	H	1.548188	-0.281360	0.909099
O569	O	0.785862	-0.148691	0.695399
O570	O	1.035862	0.101309	0.945399
O571	O	1.285862	0.351309	1.195399
O572	O	1.535862	0.601309	1.445399
H573	H	0.753812	-0.172096	0.670503
H574	H	1.003812	0.077904	0.920503
H575	H	1.253812	0.327904	1.170503
H576	H	1.503812	0.577904	1.420503
H577	H	0.836763	-0.953193	0.191201
H578	H	1.086763	-0.703193	0.441201
H579	H	1.336763	-0.453193	0.691201
H580	H	1.586763	-0.203193	0.941201
O581	O	0.826087	-0.182148	0.557703
O582	O	1.076087	0.067852	0.807703
O583	O	1.326087	0.317852	1.057703
O584	O	1.576087	0.567852	1.307703
H585	H	0.798120	-0.158905	0.529541
H586	H	1.048120	0.091095	0.779541
H587	H	1.298120	0.341095	1.029541
H588	H	1.548120	0.591095	1.279541
H589	H	0.796501	-0.157513	0.801657
H590	H	1.046501	0.092487	1.051657
H591	H	1.296501	0.342487	1.301657
H592	H	1.546501	0.592487	1.551657
O593	O	1.033565	-0.354548	0.695364
O594	O	1.283565	-0.104548	0.945364
O595	O	1.533565	0.145452	1.195364
O596	O	1.783565	0.395452	1.445364
H597	H	1.061545	-0.377785	0.723523
H598	H	1.311545	-0.127785	0.973523
H599	H	1.561545	0.122215	1.223523
H600	H	1.811545	0.372215	1.473523
H601	H	0.836749	-0.190908	0.953779
H602	H	1.086749	0.059092	1.203779
H603	H	1.336749	0.309092	1.453779
H604	H	1.586749	0.559092	1.703779
O605	O	0.993335	-0.321155	0.444206
O606	O	1.243335	-0.071155	0.694206
O607	O	1.493335	0.178845	0.944206
O608	O	1.743335	0.428845	1.194206
H609	H	0.965132	-0.347764	0.419316
H610	H	1.215132	-0.097764	0.669316
H611	H	1.465132	0.152236	0.919316
H612	H	1.715132	0.402236	1.169316
O613	O	0.678838	-0.182340	0.321490
O614	O	0.928838	0.067660	0.571490
O615	O	1.178838	0.317660	0.821490
O616	O	1.428838	0.567660	1.071490
H617	H	0.644975	-0.159113	0.344784
H618	H	0.894975	0.090887	0.594784
H619	H	1.144975	0.340887	0.844784
H620	H	1.394975	0.590887	1.094784
