data_functionalizedCrystal
_audit_creation_method	'MofGen! by Chris Wilmer'
_symmetry_space_group_name_H-M	'P1'
_symmetry_Int_Tables_number	1
_symmetry_cell_setting	triclinic
loop_
_symmetry_equiv_pos_as_xyz
  x,y,z
_cell_length_a	26.455835
_cell_length_b	26.455273
_cell_length_c	26.451828
_cell_angle_alpha	60.005170
_cell_angle_beta	60.010757
_cell_angle_gamma	59.993435
loop_
_atom_site_label
_atom_site_type_symbol
_atom_site_fract_x
_atom_site_fract_y
_atom_site_fract_z
O1	O	0.069940	-0.738516	0.617604
O2	O	0.026299	-0.574986	0.497618
O3	O	0.129847	-0.678463	0.497546
O4	O	-0.033607	-0.635040	0.617676
O5	O	0.164197	-0.644116	0.531822
O6	O	0.060649	-0.540639	0.531894
O7	O	0.104290	-0.704170	0.651880
Cu8	Cu	0.085606	-0.619268	0.595016
Cu9	Cu	0.044984	-0.659887	0.554481
O10	O	0.000742	-0.600693	0.651952
N11	N	0.114179	-0.590703	0.623530
N12	N	0.016416	-0.688458	0.525968
C13	C	0.157553	-0.547535	0.933368
C14	C	0.424104	-0.547506	0.666656
C15	C	0.157413	-0.547503	0.666729
C16	C	0.157397	-0.280846	0.666749
C17	C	0.200330	-0.409550	0.709625
C18	C	0.200339	-0.504608	0.709615
C19	C	0.224118	-0.480848	0.733375
C20	C	0.327800	-0.462984	0.678792
C21	C	0.392611	-0.484588	0.657175
C22	C	0.392630	-0.589450	0.697162
C23	C	0.327821	-0.567844	0.718781
C24	C	0.215955	-0.377135	0.645910
C25	C	0.194327	-0.312320	0.624323
C26	C	0.141457	-0.312339	0.730169
C27	C	0.163084	-0.377154	0.751756
C28	C	0.136618	-0.488954	0.725292
C29	C	0.115007	-0.510553	0.703686
C30	C	0.220833	-0.563461	0.650740
C31	C	0.242447	-0.541861	0.672339
C32	C	0.136680	-0.488971	0.837094
C33	C	0.115112	-0.510589	0.901907
C34	C	0.220969	-0.563508	0.901868
C35	C	0.242535	-0.541892	0.837053
C36	C	0.200389	-0.504622	0.804668
C37	C	0.295409	-0.504610	0.709593
C38	C	0.132990	-0.570876	1.004655
C39	C	0.495389	-0.570440	0.642547
C40	C	0.132802	-0.570856	0.643399
C41	C	0.133212	-0.209553	0.643833
C42	C	-0.097217	-0.706972	0.506986
C43	C	-0.002040	-0.707108	0.412067
C44	C	-0.002230	-0.802124	0.507163
C45	C	-0.002214	-0.707101	0.507221
C46	C	-0.025925	-0.730827	0.483360
N47	N	0.553723	-0.590712	0.623415
O48	O	0.751638	-0.596429	0.475603
O49	O	0.751819	-0.716773	0.638980
O50	O	0.751753	-0.716500	0.535361
O51	O	0.751705	-0.596703	0.579222
O52	O	0.648791	-0.682239	0.569747
O53	O	0.648858	-0.682512	0.673366
O54	O	0.648676	-0.562169	0.509989
Cu55	Cu	0.639366	-0.619212	0.594817
Cu56	Cu	0.761130	-0.659729	0.554152
O57	O	0.648743	-0.562442	0.613609
N58	N	0.846773	-0.688230	0.525548
N59	N	0.114157	-0.151217	0.623565
O60	O	-0.033591	0.046803	0.617717
O61	O	0.129795	0.046806	0.497390
O62	O	0.026157	0.046789	0.497680
O63	O	0.070046	0.046819	0.617427
O64	O	0.060509	-0.056181	0.532004
O65	O	0.164146	-0.056164	0.531714
O66	O	0.000760	-0.056167	0.652041
Cu67	Cu	0.085590	-0.065568	0.595012
Cu68	Cu	0.044965	0.056206	0.554419
O69	O	0.104397	-0.056151	0.651751
N70	N	0.016390	0.141855	0.525867
N71	N	0.114410	-0.590756	1.062992
O72	O	0.108565	-0.738494	1.260998
O73	O	-0.011747	-0.575059	1.261012
O74	O	-0.011470	-0.678679	1.260970
O75	O	0.108287	-0.634874	1.261040
O76	O	0.022849	-0.644347	1.158004
O77	O	0.022572	-0.540726	1.158046
O78	O	0.142884	-0.704162	1.158033
Cu79	Cu	0.085861	-0.619309	1.148638
Cu80	Cu	0.045275	-0.659911	1.270406
O81	O	0.142606	-0.600541	1.158074
N82	N	0.016726	-0.688471	1.356052
C83	C	0.039385	-0.537207	0.498225
C84	C	0.167616	-0.665350	0.498136
C85	C	0.091204	-0.741950	0.651272
C86	C	-0.037027	-0.613806	0.651361
C87	C	0.700360	-0.716215	0.676756
C88	C	0.700279	-0.715877	0.548436
C89	C	0.700133	-0.562725	0.472214
C90	C	0.700218	-0.563065	0.600533
C91	C	0.167511	-0.004552	0.497940
C92	C	0.039211	-0.004699	0.498341
C93	C	-0.036999	-0.004682	0.651449
C94	C	0.091344	-0.004663	0.651090
C95	C	-0.011156	-0.537302	1.209530
C96	C	-0.010806	-0.665617	1.209458
C97	C	0.142293	-0.741918	1.209514
C98	C	0.141950	-0.613596	1.209563
H99	H	0.102355	-0.458618	0.810728
H100	H	0.100739	-0.004653	0.688708
O101	O	0.699955	-0.517591	0.416288
C102	C	0.646527	-0.414331	0.361064
C103	C	0.646644	-0.465398	0.424437
H104	H	0.603436	-0.372116	0.367632
H105	H	0.646477	-0.432226	0.329827
H106	H	0.689613	-0.400830	0.338816
H107	H	0.603566	-0.478920	0.446738
H108	H	0.646727	-0.447474	0.455630
H109	H	0.030065	-0.490230	0.460543
H110	H	-0.048928	-0.490363	1.209534
O111	O	-0.055729	-0.676779	1.209490
C112	C	-0.158836	-0.682499	1.262704
C113	C	-0.108009	-0.669856	1.262751
H114	H	-0.201122	-0.676893	1.305754
H115	H	-0.140725	-0.731699	1.262718
H116	H	-0.172303	-0.648218	1.219574
H117	H	-0.094520	-0.704097	1.305873
H118	H	-0.126149	-0.620639	1.262705
O119	O	0.223350	-0.004246	0.452701
C120	C	0.286576	-0.003736	0.348157
C121	C	0.223314	-0.004088	0.399336
H122	H	0.286563	-0.003595	0.304995
H123	H	0.324579	-0.046743	0.364953
H124	H	0.295409	0.039441	0.336622
H125	H	0.214422	-0.047236	0.410895
H126	H	0.185346	0.038948	0.382514
O127	O	0.102310	-0.798036	0.696175
C128	C	0.129487	-0.908189	0.725854
C129	C	0.116912	-0.844709	0.674954
H130	H	0.141309	-0.945942	0.708710
H131	H	0.086521	-0.908438	0.769063
H132	H	0.169989	-0.917182	0.737456
H133	H	0.076431	-0.835675	0.663298
H134	H	0.159910	-0.844491	0.631777
O135	O	0.186914	-0.602466	1.209496
C136	C	0.289985	-0.596649	1.156152
C137	C	0.239123	-0.609284	1.156159
H138	H	0.332204	-0.602144	1.113027
H139	H	0.303573	-0.630940	1.199214
H140	H	0.271810	-0.547460	1.156192
H141	H	0.257255	-0.658456	1.156097
H142	H	0.225542	-0.574954	1.113100
H143	H	0.063121	-0.497793	0.716436
O144	O	0.700188	-0.760720	0.537250
C145	C	0.646863	-0.790279	0.509983
C146	C	0.646882	-0.739448	0.522649
H147	H	0.603777	-0.773095	0.498163
H148	H	0.646877	-0.833535	0.552910
H149	H	0.689954	-0.801826	0.469452
H150	H	0.603799	-0.727848	0.563159
H151	H	0.646901	-0.696224	0.479690
H152	H	0.180068	-0.788855	1.209502
H153	H	0.700208	-0.525435	0.609919
H154	H	0.063231	-0.497836	0.928300
O155	O	0.028117	-0.004795	0.453434
C156	C	0.057871	-0.058184	0.385939
C157	C	0.070505	-0.058142	0.436784
H158	H	0.092125	-0.101316	0.372471
H159	H	0.063429	-0.015125	0.343647
H160	H	0.008668	-0.058160	0.404090
H161	H	0.119705	-0.058188	0.418691
H162	H	0.064905	-0.101197	0.479067
H163	H	0.255124	-0.593799	0.620395
H164	H	-0.083922	-0.004684	0.689225
H165	H	0.294416	-0.554643	0.810656
O166	O	0.261994	-0.599716	0.933226
C167	C	0.369268	-0.649875	0.926338
C168	C	0.322873	-0.608876	0.890748
H169	H	0.418499	-0.657283	0.892010
H170	H	0.361874	-0.696527	0.956661
H171	H	0.361774	-0.626128	0.956700
H172	H	0.330339	-0.632568	0.860353
H173	H	0.330279	-0.562226	0.860464
H174	H	0.102328	-0.458621	0.755642
H175	H	0.294333	-0.554601	0.659567
H176	H	0.214562	-0.674609	0.460411
H177	H	0.419022	-0.640939	0.704632
O178	O	0.296450	-0.608363	0.748664
C179	C	0.303313	-0.714657	0.786072
C180	C	0.338916	-0.668836	0.752207
H181	H	0.337631	-0.763561	0.788959
H182	H	0.272968	-0.701691	0.759583
H183	H	0.272974	-0.712643	0.834791
H184	H	0.369289	-0.670827	0.703488
H185	H	0.369222	-0.681818	0.778744
H186	H	0.418982	-0.450689	0.632093
O187	O	-0.093058	-0.602656	0.696310
C188	C	-0.195018	-0.529305	0.724912
C189	C	-0.131588	-0.541845	0.673957
H190	H	-0.226192	-0.480144	0.706854
H191	H	-0.188572	-0.534845	0.767134
H192	H	-0.217264	-0.563665	0.738459
H193	H	-0.109308	-0.507496	0.660357
H194	H	-0.138074	-0.536326	0.631768
H195	H	0.246280	-0.403511	0.611604
O196	O	0.296385	-0.401535	0.669760
C197	C	0.276488	-0.298475	0.595633
C198	C	0.312117	-0.368048	0.605775
H199	H	0.289184	-0.271382	0.543903
H200	H	0.289257	-0.282343	0.619088
H201	H	0.224605	-0.290200	0.616405
H202	H	0.364008	-0.376375	0.585002
H203	H	0.299296	-0.384145	0.582333
O204	O	0.209475	-0.280896	0.562413
C205	C	0.204450	-0.261013	0.465356
C206	C	0.187269	-0.296650	0.535456
H207	H	0.186493	-0.273728	0.443543
H208	H	0.256925	-0.273763	0.443456
H209	H	0.182614	-0.209127	0.457180
H210	H	0.209063	-0.348544	0.543688
H211	H	0.134789	-0.283849	0.557321
O212	O	0.105266	-0.280961	0.771176
C213	C	0.055156	-0.287817	0.878439
C214	C	0.096135	-0.323427	0.832067
H215	H	0.047772	-0.322135	0.927680
H216	H	0.008496	-0.257494	0.871041
H217	H	0.078901	-0.257451	0.870921
H218	H	0.072445	-0.353826	0.839557
H219	H	0.142793	-0.353710	0.839477
H220	H	0.700405	-0.753994	0.723681
H221	H	0.150353	-0.403547	0.803641
