data_functionalizedCrystal
_audit_creation_method	'MofGen! by Chris Wilmer'
_symmetry_space_group_name_H-M	'P1'
_symmetry_Int_Tables_number	1
_symmetry_cell_setting	triclinic
loop_
_symmetry_equiv_pos_as_xyz
  x,y,z
_cell_length_a	17.077404
_cell_length_b	19.121063
_cell_length_c	17.077396
_cell_angle_alpha	92.408800
_cell_angle_beta	89.980499
_cell_angle_gamma	92.469213
loop_
_atom_site_label
_atom_site_type_symbol
_atom_site_fract_x
_atom_site_fract_y
_atom_site_fract_z
Zn1	Zn	1.186697	-0.279610	-0.457152
Zn2	Zn	1.180993	-0.397067	-0.331476
Zn3	Zn	1.055428	-0.279634	-0.325901
Zn4	Zn	1.049788	-0.397025	-0.462698
O5	O	1.118227	-0.338334	-0.394307
O6	O	1.295787	-0.295198	-0.440493
O7	O	1.164310	-0.381517	-0.220891
O8	O	1.077589	-0.181347	-0.338657
O9	O	1.291597	-0.381493	-0.348160
O10	O	1.174032	-0.181328	-0.435086
O11	O	1.072058	-0.295240	-0.216795
O12	O	0.944833	-0.295199	-0.344035
O13	O	1.067976	-0.381422	-0.571808
O14	O	0.940690	-0.381446	-0.444539
O15	O	1.168563	-0.295157	-0.567733
O16	O	1.158841	-0.495346	-0.353538
O17	O	1.062445	-0.495315	-0.449946
C18	C	0.914279	-0.338321	-0.394284
C19	C	0.827029	-0.338333	-0.394294
C20	C	1.109434	-0.520815	-0.402966
C21	C	1.105744	-0.598881	-0.406696
C22	C	0.783899	-0.383309	-0.446550
C23	C	0.701918	-0.383311	-0.446562
C24	C	0.663069	-0.338339	-0.394315
C25	C	0.706206	-0.293358	-0.342057
C26	C	0.788185	-0.293353	-0.342049
C27	C	0.535335	-0.293371	-0.342077
C28	C	0.453350	-0.293377	-0.342084
C29	C	0.449068	-0.383329	-0.446590
C30	C	0.531047	-0.383324	-0.446582
C31	C	0.574178	-0.338344	-0.394323
C32	C	1.154237	-0.635549	-0.358296
C33	C	1.150772	-0.708900	-0.361809
C34	C	1.098808	-0.745582	-0.413719
C35	C	1.050312	-0.708908	-0.462125
C36	C	1.053782	-0.635558	-0.458615
C37	C	1.085821	-0.967052	-0.426830
C38	C	1.082353	-1.040407	-0.430334
C39	C	1.182814	-1.040393	-0.330019
C40	C	1.186276	-0.967042	-0.326511
C41	C	1.137783	-0.930375	-0.374919
C42	C	1.095262	-0.820559	-0.417310
C43	C	1.141333	-0.855399	-0.371332
C44	C	1.322970	-0.338347	-0.394329
C45	C	1.410220	-0.338353	-0.394339
C46	C	1.118277	-0.338282	-0.599049
C47	C	1.118298	-0.338260	-0.686297
C48	C	1.127075	-0.155141	-0.385631
C49	C	1.130846	-0.077075	-0.381934
C50	C	1.170675	-0.293338	-0.725167
C51	C	1.170686	-0.293315	-0.807146
C52	C	1.118322	-0.338217	-0.850255
C53	C	1.065939	-0.383141	-0.811380
C54	C	1.065925	-0.383160	-0.729402
C55	C	1.065973	-0.383099	-0.982248
C56	C	1.065987	-0.383081	-1.064232
C57	C	1.170733	-0.293254	-1.059992
C58	C	1.170720	-0.293273	-0.978014
C59	C	1.118337	-0.338198	-0.939145
C60	C	1.118224	-0.338335	-0.190359
C61	C	1.118365	-0.338159	-0.103101
H62	H	0.666805	-0.419935	-0.489113
N63	N	1.232359	-1.077846	-0.280587
N64	N	1.305179	-1.069596	-0.285466
H65	H	1.340175	-1.096046	-0.250554
H66	H	1.040047	-1.070271	-0.472619
H67	H	0.562675	-0.419948	-0.489122
N68	N	0.832242	-0.247421	-0.288658
N69	N	0.876777	-0.272071	-0.239755
H70	H	0.907891	-0.239629	-0.202047
N71	N	1.036283	-0.929614	-0.476281
N72	N	0.989890	-0.962377	-0.522623
H73	H	0.954900	-0.935935	-0.557550
H74	H	1.008005	-0.738781	-0.504395
H75	H	0.413947	-0.419952	-0.489143
N76	N	1.200303	-0.746371	-0.312381
N77	N	1.248373	-0.787246	-0.342005
H78	H	1.283356	-0.813713	-0.307097
H79	H	1.023306	-0.419670	-0.950603
H80	H	0.674569	-0.256738	-0.299520
H81	H	1.228589	-0.937177	-0.284241
N82	N	0.413676	-0.247425	-0.288724
N83	N	0.425950	-0.182622	-0.290987
H84	H	0.397929	-0.150167	-0.253302
N85	N	1.207316	-0.598093	-0.305259
N86	N	1.250609	-0.630845	-0.262049
H87	H	1.288099	-0.604395	-0.224591
N88	N	0.579382	-0.247413	-0.288700
N89	N	0.544688	-0.207260	-0.242056
H90	H	0.575796	-0.174803	-0.204358
N91	N	1.012491	-0.428941	-1.108262
N92	N	1.037928	-0.473700	-1.156132
H93	H	1.000140	-0.506090	-1.187224
N94	N	1.224153	-0.247460	-0.681136
N95	N	1.198685	-0.202712	-0.633271
H96	H	1.236453	-0.170306	-0.602175
N97	N	1.004247	-0.598111	-0.508065
N98	N	0.957855	-0.630869	-0.554412
H99	H	0.922871	-0.604423	-0.589342
N100	N	1.194398	-0.817934	-0.318295
N101	N	1.188834	-0.826172	-0.246252
H102	H	1.226308	-0.799706	-0.208790
N103	N	1.042179	-0.858043	-0.470318
N104	N	0.990245	-0.899032	-0.444606
H105	H	0.952756	-0.925509	-0.482044
H106	H	1.213339	-0.256737	-0.838790
H107	H	0.815523	-0.419933	-0.489093
N108	N	1.012438	-0.428991	-0.855418
N109	N	0.963626	-0.404254	-0.899983
H110	H	0.925840	-0.436635	-0.931087
N111	N	1.224220	-0.247410	-0.933991
N112	N	1.270986	-0.207304	-0.968702
H113	H	1.308772	-0.174912	-0.937611
N114	N	1.224238	-0.247369	-1.099704
N115	N	1.224243	-0.247354	-1.172898
H116	H	1.262031	-0.214952	-1.200949
H117	H	1.023267	-0.419733	-0.697755
