data_functionalizedCrystal
_audit_creation_method	'MofGen! by Chris Wilmer'
_symmetry_space_group_name_H-M	'P1'
_symmetry_Int_Tables_number	1
_symmetry_cell_setting	triclinic
loop_
_symmetry_equiv_pos_as_xyz
  x,y,z
_cell_length_a	16.992694
_cell_length_b	9.565339
_cell_length_c	16.974813
_cell_angle_alpha	93.654329
_cell_angle_beta	87.024634
_cell_angle_gamma	89.998174
loop_
_atom_site_label
_atom_site_type_symbol
_atom_site_fract_x
_atom_site_fract_y
_atom_site_fract_z
O1	O	1.040210	0.135048	0.167643
O2	O	1.540210	0.635048	0.667643
O3	O	0.811927	0.134881	0.165803
O4	O	1.311927	0.634881	0.665803
O5	O	0.932433	0.121980	0.052022
O6	O	1.432433	0.621980	0.552022
O7	O	0.919705	0.147950	0.281424
O8	O	1.419705	0.647950	0.781424
O9	O	0.932423	-0.110539	0.052029
O10	O	1.432423	0.389461	0.552029
O11	O	0.811917	-0.097638	0.165810
O12	O	1.311917	0.402362	0.665810
O13	O	1.040201	-0.097471	0.167650
O14	O	1.540201	0.402529	0.667650
Zn15	Zn	0.926058	-0.134472	0.166731
Zn16	Zn	1.426058	0.365528	0.666731
Zn17	Zn	0.926070	0.171882	0.166722
Zn18	Zn	1.426070	0.671882	0.666722
O19	O	0.919695	-0.084570	0.281431
O20	O	1.419695	0.415430	0.781431
C21	C	0.782712	0.018359	0.163441
C22	C	1.282712	0.518359	0.663441
C23	C	0.695676	0.017576	0.156381
C24	C	1.195676	0.517576	0.656381
N25	N	0.926055	-0.343551	0.166737
N26	N	1.426055	0.156449	0.666737
C27	C	0.645362	0.025286	0.224497
C28	C	1.145362	0.525286	0.724497
C29	C	0.563582	0.024515	0.217859
C30	C	1.063582	0.524515	0.717859
C31	C	0.532118	0.016045	0.143105
C32	C	1.032118	0.516045	0.643105
C33	C	0.582439	0.008330	0.074984
C34	C	1.082439	0.508330	0.574984
C35	C	0.664216	0.009091	0.081623
C36	C	1.164216	0.509091	0.581623
C37	C	0.288550	0.012892	0.115590
C38	C	0.788550	0.512892	0.615590
C39	C	0.206766	0.012136	0.108957
C40	C	0.706766	0.512136	0.608957
C41	C	0.187915	0.028319	0.251832
C42	C	0.687915	0.528319	0.751832
C43	C	0.269696	0.029088	0.258464
C44	C	0.769696	0.529088	0.758464
C45	C	0.320009	0.021366	0.190343
C46	C	0.820009	0.521366	0.690343
N47	N	0.448527	0.015261	0.136318
N48	N	0.948527	0.515261	0.636318
N49	N	0.403599	0.022139	0.197131
N50	N	0.903599	0.522139	0.697131
C51	C	0.870308	-0.428790	0.219338
C52	C	1.370308	0.071210	0.719338
C53	C	0.941142	-0.519738	0.239156
C54	C	1.441142	-0.019738	0.739156
C55	C	0.855252	-0.530157	0.146927
C56	C	1.355252	-0.030157	0.646927
C57	C	0.996924	-0.432443	0.186594
C58	C	1.496924	0.067557	0.686594
C59	C	0.910987	-0.442857	0.094330
C60	C	1.410987	0.057143	0.594330
C61	C	0.981872	-0.533767	0.114122
C62	C	1.481872	-0.033767	0.614122
C63	C	1.069416	0.019054	0.170012
C64	C	1.569416	0.519054	0.670012
C65	C	1.156452	0.019846	0.177072
C66	C	1.656452	0.519846	0.677072
C67	C	0.931944	0.002385	0.022537
C68	C	1.431944	0.502385	0.522537
C69	C	0.930491	-0.007552	-0.065331
C70	C	1.430491	0.492448	0.434669
N71	N	0.926079	0.380960	0.166710
N72	N	1.426079	0.880960	0.666710
C73	C	0.929816	0.114525	-0.106611
C74	C	1.429816	0.614525	0.393389
C75	C	0.928447	0.105184	-0.189172
C76	C	1.428447	0.605184	0.310828
C77	C	0.927758	-0.026236	-0.230452
C78	C	1.427758	0.473764	0.269548
C79	C	0.928431	-0.148322	-0.189167
C80	C	1.428431	0.351678	0.310833
C81	C	0.929795	-0.138979	-0.106607
C82	C	1.429795	0.361021	0.393393
C83	C	0.923673	-0.067769	-0.477370
C84	C	1.423673	0.432231	0.022630
C85	C	0.922312	-0.077103	-0.559936
C86	C	1.422312	0.422897	-0.059936
C87	C	0.922326	0.176404	-0.559936
C88	C	1.422326	0.676404	-0.059936
C89	C	0.923694	0.185735	-0.477374
C90	C	1.423694	0.685735	0.022626
C91	C	0.924363	0.063649	-0.436096
C92	C	1.424363	0.563649	0.063904
N93	N	0.926361	-0.035787	-0.314843
N94	N	1.426361	0.464213	0.185157
N95	N	0.925755	0.073202	-0.351706
N96	N	1.425755	0.573202	0.148294
C97	C	0.920184	0.035028	0.310916
C98	C	1.420184	0.535028	0.810916
C99	C	0.921636	0.044974	0.398784
C100	C	1.421636	0.544974	0.898784
H101	H	0.522619	0.030795	0.273326
H102	H	1.022619	0.530795	0.773326
C103	C	0.679965	0.034605	0.306727
C104	C	1.179965	0.534605	0.806727
H105	H	0.638284	0.039073	0.346342
H106	H	1.138284	0.539073	0.846342
H107	H	0.711471	0.116322	0.312285
H108	H	1.211471	0.616322	0.812285
H109	H	0.711477	-0.045858	0.312288
H110	H	1.211477	0.454142	0.812288
C111	C	0.547830	-0.000985	-0.007243
C112	C	1.047830	0.499015	0.492757
H113	H	0.491920	-0.000319	-0.001443
H114	H	0.991920	0.499681	0.498557
H115	H	0.565108	-0.085267	-0.035506
H116	H	1.065108	0.414733	0.464494
H117	H	0.565104	0.076912	-0.035507
H118	H	1.065104	0.576912	0.464493
C119	C	0.927707	0.239464	-0.234581
C120	C	1.427707	0.739464	0.265419
H121	H	0.926787	0.215083	-0.289662
H122	H	1.426787	0.715083	0.210338
H123	H	0.973634	0.292707	-0.224194
H124	H	1.473634	0.792707	0.275806
H125	H	0.882230	0.293441	-0.217907
H126	H	1.382230	0.793441	0.282093
H127	H	0.146942	0.034603	0.307291
H128	H	0.646942	0.534603	0.807291
H129	H	0.295307	0.036002	0.319336
H130	H	0.795307	0.536002	0.819336
C131	C	0.719562	0.000624	0.006696
C132	C	1.219562	0.500624	0.506696
H133	H	0.689112	-0.004515	-0.038776
H134	H	1.189112	0.495485	0.461224
H135	H	0.751862	-0.080498	0.006317
H136	H	1.251862	0.419502	0.506317
H137	H	0.751848	0.081682	0.006316
H138	H	1.251848	0.581682	0.506316
H139	H	0.329506	0.006603	0.060121
H140	H	0.829506	0.506603	0.560121
C141	C	0.924442	0.330297	-0.431971
C142	C	1.424442	0.830297	0.068029
H143	H	0.923836	0.401666	-0.468381
H144	H	1.423836	0.901666	0.031619
H145	H	0.970671	0.338853	-0.402903
H146	H	1.470671	0.838853	0.097097
H147	H	0.879267	0.339565	-0.396626
H148	H	1.379267	0.839565	0.103374
C149	C	0.172157	0.002815	0.026724
C150	C	0.672157	0.502815	0.526724
H151	H	0.213834	-0.001686	-0.012896
H152	H	0.713834	0.498314	0.487104
H153	H	0.140646	0.083270	0.021161
H154	H	0.640646	0.583270	0.521161
H155	H	0.140649	-0.078909	0.021173
H156	H	0.640649	0.421091	0.521173
C157	C	0.924422	-0.202058	-0.431974
C158	C	1.424422	0.297942	0.068026
H159	H	0.923828	-0.281661	-0.468387
H160	H	1.423828	0.218339	0.031613
H161	H	0.879257	-0.203334	-0.396625
H162	H	1.379257	0.296666	0.103375
H163	H	0.970661	-0.204042	-0.402912
H164	H	1.470661	0.295958	0.097088
C165	C	0.806685	-0.366757	0.279487
C166	C	1.306685	0.133243	0.779487
H167	H	0.817533	-0.392876	0.330901
H168	H	1.317533	0.107124	0.830901
H169	H	0.756479	-0.401577	0.265931
H170	H	1.256479	0.098423	0.765931
H171	H	0.806807	-0.267532	0.278748
H172	H	1.306807	0.232468	0.778748
C173	C	0.930537	-0.273259	-0.061195
C174	C	1.430537	0.226741	0.438805
H175	H	0.931440	-0.248874	-0.006113
H176	H	1.431440	0.251126	0.493887
H177	H	0.976009	-0.327241	-0.077863
H178	H	1.476009	0.172759	0.422137
H179	H	0.884605	-0.326497	-0.071585
H180	H	1.384605	0.173503	0.428415
C181	C	0.958377	-0.565745	0.321855
C182	C	1.458377	-0.065745	0.821855
H183	H	0.918712	-0.529668	0.359179
H184	H	1.418712	-0.029668	0.859179
H185	H	1.008300	-0.530828	0.336286
H186	H	1.508300	-0.030828	0.836286
H187	H	0.958732	-0.665135	0.321124
H188	H	1.458732	-0.165135	0.821124
H189	H	0.930381	0.221541	-0.073007
H190	H	1.430381	0.721541	0.426993
C191	C	1.077842	-0.374796	0.209320
C192	C	1.577842	0.125204	0.709320
H193	H	1.077330	-0.275491	0.209220
H194	H	1.577330	0.224509	0.709220
H195	H	1.117468	-0.411606	0.172185
H196	H	1.617468	0.088394	0.672185
H197	H	1.088638	-0.401706	0.260591
H198	H	1.588638	0.098294	0.760591
C199	C	0.774354	-0.588039	0.124299
C200	C	1.274354	-0.088039	0.624299
H201	H	0.780638	-0.647959	0.077561
H202	H	1.280638	-0.147959	0.577561
H203	H	0.740344	-0.512509	0.115315
H204	H	1.240344	-0.012509	0.615315
H205	H	0.752177	-0.639382	0.166065
H206	H	1.252177	-0.139382	0.666065
H207	H	1.029077	-0.579410	0.069628
H208	H	1.529077	-0.079410	0.569628
H209	H	0.898204	-0.408783	0.033127
H210	H	1.398204	0.091217	0.533127
H211	H	0.921780	0.275799	-0.593554
H212	H	1.421780	0.775799	-0.093554
C213	C	0.921545	-0.221670	-0.605342
C214	C	1.421545	0.278330	-0.105342
H215	H	0.922130	-0.293043	-0.568934
H216	H	1.422130	0.206957	-0.068934
H217	H	0.966711	-0.230956	-0.640690
H218	H	1.466711	0.269044	-0.140690
H219	H	0.875308	-0.230202	-0.634407
H220	H	1.375308	0.269798	-0.134407
C221	C	0.927676	-0.292880	-0.234573
C222	C	1.427676	0.207120	0.265427
H223	H	0.926776	-0.280963	-0.289655
H224	H	1.426776	0.219037	0.210345
H225	H	0.882200	-0.343070	-0.217903
H226	H	1.382200	0.156930	0.282097
H227	H	0.973603	-0.343786	-0.224180
H228	H	1.473603	0.156214	0.275820
