data_functionalizedCrystal
_audit_creation_method	'MofGen! by Chris Wilmer'
_symmetry_space_group_name_H-M	'P1'
_symmetry_Int_Tables_number	1
_symmetry_cell_setting	triclinic
loop_
_symmetry_equiv_pos_as_xyz
  x,y,z
_cell_length_a	19.188940
_cell_length_b	19.188905
_cell_length_c	17.666332
_cell_angle_alpha	90.006311
_cell_angle_beta	90.008179
_cell_angle_gamma	83.141635
loop_
_atom_site_label
_atom_site_type_symbol
_atom_site_fract_x
_atom_site_fract_y
_atom_site_fract_z
O1	O	0.087088	0.926153	0.063074
O2	O	0.587088	1.426153	0.563074
O3	O	0.098840	0.722840	0.063048
O4	O	0.598840	1.222840	0.563048
O5	O	-0.008692	0.830360	0.063056
O6	O	0.491308	1.330360	0.563056
O7	O	0.194620	0.818633	0.063066
O8	O	0.694620	1.318633	0.563066
O9	O	-0.008702	0.830363	-0.062841
O10	O	0.491298	1.330363	0.437159
O11	O	0.098829	0.722842	-0.062849
O12	O	0.598829	1.222842	0.437151
O13	O	0.087077	0.926156	-0.062823
O14	O	0.587077	1.426156	0.437177
Cu15	Cu	0.092952	0.824499	-0.074331
Cu16	Cu	0.592952	1.324499	0.425669
Cu17	Cu	0.092965	0.824496	0.074556
Cu18	Cu	0.592965	1.324496	0.574556
O19	O	0.194609	0.818635	-0.062831
O20	O	0.694609	1.318635	0.437169
C21	C	0.098457	0.696830	0.000096
C22	C	0.598457	1.196830	0.500096
C23	C	0.097323	0.619324	0.000086
C24	C	0.597323	1.119324	0.500086
C25	C	0.096785	0.582931	0.068715
C26	C	0.596785	1.082931	0.568715
C27	C	0.095712	0.510107	0.068724
C28	C	0.595712	1.010107	0.568724
C29	C	0.095163	0.473681	0.000101
C30	C	0.595163	0.973681	0.500101
C31	C	0.095706	0.510083	-0.068536
C32	C	0.595706	1.010083	0.431464
C33	C	0.096786	0.582904	-0.068544
C34	C	0.596786	1.082904	0.431456
N35	N	0.053731	0.364661	-0.050970
N36	N	0.553731	0.864661	0.449030
N37	N	0.052703	0.295484	-0.050959
N38	N	0.552703	0.795484	0.449041
C39	C	0.091911	0.254275	0.000119
C40	C	0.591911	0.754275	0.500119
N41	N	0.132176	0.284857	0.051196
N42	N	0.632176	0.784857	0.551196
N43	N	0.133200	0.354041	0.051187
N44	N	0.633200	0.854041	0.551187
C45	C	0.093993	0.394719	0.000101
C46	C	0.593993	0.894719	0.500101
C47	C	0.090210	0.138918	0.068762
C48	C	0.590210	0.638918	0.568762
C49	C	0.089141	0.066092	0.068769
C50	C	0.589141	0.566092	0.568769
C51	C	0.089128	0.066070	-0.068493
C52	C	0.589128	0.566070	0.431507
C53	C	0.090204	0.138893	-0.068498
C54	C	0.590204	0.638893	0.431502
C55	C	0.090741	0.175313	0.000132
C56	C	0.590741	0.675313	0.500132
C57	C	-0.034708	0.829980	0.000108
C58	C	0.465292	1.329980	0.500108
C59	C	-0.112212	0.828837	0.000108
C60	C	0.387788	1.328837	0.500108
C61	C	-0.665476	0.820704	-0.068502
C62	C	-0.165476	1.320704	0.431498
C63	C	-0.592652	0.821770	-0.068506
C64	C	-0.092652	1.321770	0.431494
C65	C	-0.556227	0.822306	0.000120
C66	C	-0.056227	1.322306	0.500120
C67	C	-0.592629	0.821756	0.068754
C68	C	-0.092629	1.321756	0.568754
C69	C	-0.665451	0.820683	0.068757
C70	C	-0.165451	1.320683	0.568757
N71	N	-0.447202	0.863721	0.051204
N72	N	0.052798	1.363721	0.551204
N73	N	-0.378024	0.864743	0.051198
N74	N	0.121976	1.364743	0.551198
C75	C	-0.336818	0.825539	0.000118
C76	C	0.163182	1.325539	0.500118
N77	N	-0.367403	0.785285	-0.050967
N78	N	0.132597	1.285285	0.449033
N79	N	-0.436588	0.784266	-0.050963
N80	N	0.063412	1.284266	0.449037
C81	C	-0.477263	0.823470	0.000125
C82	C	0.022737	1.323470	0.500125
C83	C	-0.221459	0.827240	-0.068517
C84	C	0.278541	1.327240	0.431483
C85	C	-0.148633	0.828303	-0.068518
C86	C	0.351367	1.328303	0.431482
C87	C	-0.148612	0.828296	0.068744
C88	C	0.351388	1.328296	0.568744
C89	C	-0.221436	0.827226	0.068743
C90	C	0.278564	1.327226	0.568743
C91	C	-0.257856	0.826702	0.000110
C92	C	0.242144	1.326702	0.500110
C93	C	0.220625	0.819015	0.000119
C94	C	0.720625	1.319015	0.500119
C95	C	0.298129	0.820158	0.000124
C96	C	0.798129	1.320158	0.500124
N97	N	0.092943	0.824506	-0.179051
N98	N	0.592943	1.324506	0.320949
C99	C	0.087460	0.952166	0.000130
C100	C	0.587460	1.452166	0.500130
C101	C	0.088594	1.029671	0.000145
C102	C	0.588594	1.529671	0.500145
N103	N	0.092969	0.824495	0.179276
N104	N	0.592969	1.324495	0.679276
C105	C	0.045446	0.872189	0.218889
C106	C	0.545446	1.372189	0.718889
C107	C	0.045445	0.872196	0.298137
C108	C	0.545445	1.372196	0.798137
C109	C	0.092960	0.824495	0.337768
C110	C	0.592960	1.324495	0.837768
C111	C	0.140491	0.776797	0.298145
C112	C	0.640491	1.276797	0.798145
C113	C	0.140496	0.776797	0.218899
C114	C	0.640496	1.276797	0.718899
N115	N	0.101892	0.762688	0.462186
N116	N	0.601892	1.262688	0.962186
N117	N	0.101883	0.762690	0.537466
N118	N	0.601883	1.262690	1.037466
C119	C	0.092950	0.824494	0.576532
C120	C	0.592950	1.324494	1.076532
N121	N	0.084012	0.886297	0.537473
N122	N	0.584012	1.386297	1.037473
N123	N	0.084017	0.886294	0.462186
N124	N	0.584017	1.386294	0.962186
C125	C	0.092960	0.824490	0.423697
C126	C	0.592960	1.324490	0.923697
C127	C	0.045423	0.872199	0.702074
C128	C	0.545423	1.372199	1.202074
C129	C	0.045427	0.872206	0.781323
C130	C	0.545427	1.372206	1.281323
C131	C	0.140470	0.776801	0.781330
C132	C	0.640470	1.276801	1.281330
C133	C	0.140469	0.776800	0.702083
C134	C	0.640469	1.276800	1.202083
C135	C	0.092943	0.824499	0.662460
C136	C	0.592943	1.324499	1.162460
H137	H	0.095261	0.480420	-0.124409
H138	H	0.595261	0.980420	0.375591
H139	H	0.088686	0.036412	-0.124367
H140	H	0.588686	0.536412	0.375633
C141	C	0.097367	0.622940	-0.144038
C142	C	0.597367	1.122940	0.355962
H143	H	0.096882	0.590819	-0.184908
H144	H	0.596882	1.090819	0.315092
H145	H	0.138491	0.645898	-0.146896
H146	H	0.638491	1.145898	0.353104
H147	H	0.057073	0.656797	-0.146890
H148	H	0.557073	1.156797	0.353110
H149	H	0.090654	0.168571	0.124645
H150	H	0.590654	0.668571	0.624645
C151	C	0.088545	0.026060	0.144264
C152	C	0.588545	0.526060	0.644264
H153	H	0.089012	0.058184	0.185133
H154	H	0.589012	0.558184	0.685133
H155	H	0.128829	-0.007802	0.147130
H156	H	0.628829	0.492198	0.647130
H157	H	0.047412	0.003109	0.147110
H158	H	0.547412	0.503109	0.647110
H159	H	0.179195	0.737957	0.186645
H160	H	0.679195	1.237957	0.686645
C161	C	-0.108554	0.828888	0.144231
C162	C	0.391446	1.328888	0.644231
H163	H	-0.059971	0.829611	0.134402
H164	H	0.440029	1.329611	0.634402
H165	H	-0.115032	0.788007	0.172427
H166	H	0.384968	1.288007	0.672427
H167	H	-0.125937	0.869425	0.172431
H168	H	0.374063	1.369425	0.672431
C169	C	0.095126	0.470066	0.144218
C170	C	0.595126	0.970066	0.644218
H171	H	0.095600	0.502186	0.185089
H172	H	0.595600	1.002186	0.685089
H173	H	0.135412	0.436205	0.147072
H174	H	0.635412	0.936205	0.647072
H175	H	0.053994	0.447113	0.147071
H176	H	0.553994	0.947113	0.647071
C177	C	-0.006849	0.924667	0.658486
C178	C	0.493151	1.424667	1.158486
H179	H	-0.035146	0.953081	0.693431
H180	H	0.464854	1.453081	1.193431
H181	H	-0.035902	0.899701	0.627565
H182	H	0.464098	1.399701	1.127565
H183	H	0.018258	0.953601	0.627579
H184	H	0.518258	1.453601	1.127579
C185	C	-0.006851	0.924673	0.824898
C186	C	0.493149	1.424673	1.324898
H187	H	-0.035158	0.953073	0.789947
H188	H	0.464842	1.453073	1.289947
H189	H	0.018246	0.953609	0.855821
H190	H	0.518246	1.453609	1.355821
H191	H	-0.035905	0.899700	0.855803
H192	H	0.464095	1.399700	1.355803
C193	C	0.192757	0.724327	0.341732
C194	C	0.692757	1.224327	0.841732
H195	H	0.221066	0.695924	0.306787
H196	H	0.721066	1.195924	0.806787
H197	H	0.167655	0.695394	0.372637
H198	H	0.667655	1.195394	0.872637
H199	H	0.221811	0.749298	0.372655
H200	H	0.721811	1.249298	0.872655
H201	H	-0.695125	0.820276	-0.124388
H202	H	-0.195125	1.320276	0.375612
H203	H	0.090638	0.168525	-0.124382
H204	H	0.590638	0.668525	0.375618
C205	C	-0.552610	0.822375	-0.143997
C206	C	-0.052610	1.322375	0.356003
H207	H	-0.584731	0.821912	-0.184870
H208	H	-0.084731	1.321912	0.315130
H209	H	-0.518749	0.782089	-0.146861
H210	H	-0.018749	1.282089	0.353139
H211	H	-0.529658	0.863507	-0.146835
H212	H	-0.029658	1.363507	0.353165
C213	C	-0.552565	0.822349	0.144240
C214	C	-0.052565	1.322349	0.644240
H215	H	-0.503983	0.823075	0.134411
H216	H	-0.003983	1.323075	0.634411
H217	H	-0.559041	0.781466	0.172434
H218	H	-0.059041	1.281466	0.672434
H219	H	-0.569950	0.862884	0.172443
H220	H	-0.069950	1.362884	0.672443
H221	H	0.179160	0.737966	0.813598
H222	H	0.679160	1.237966	1.313598
C223	C	0.192740	0.724331	0.658506
C224	C	0.692740	1.224331	1.158506
H225	H	0.221035	0.695919	0.693457
H226	H	0.721035	1.195919	1.193457
H227	H	0.221795	0.749296	0.627601
H228	H	0.721795	1.249296	1.127601
H229	H	0.167635	0.695396	0.627584
H230	H	0.667635	1.195396	1.127584
H231	H	-0.695083	0.820238	0.124642
H232	H	-0.195083	1.320238	0.624642
H233	H	-0.251112	0.826808	-0.124402
H234	H	0.248888	1.326808	0.375598
C235	C	-0.261476	0.826635	0.144230
C236	C	0.238524	1.326635	0.644230
H237	H	-0.310062	0.825914	0.134403
H238	H	0.189938	1.325914	0.634403
H239	H	-0.254989	0.867515	0.172436
H240	H	0.245011	1.367515	0.672436
H241	H	-0.244085	0.786098	0.172420
H242	H	0.255915	1.286098	0.672420
H243	H	-0.119001	0.828745	-0.124404
H244	H	0.380999	1.328745	0.375596
C245	C	-0.006826	0.924657	0.175304
C246	C	0.493174	1.424657	0.675304
H247	H	-0.000023	0.917824	0.122433
H248	H	0.499977	1.417824	0.622433
H249	H	0.000722	0.971205	0.188300
H250	H	0.500722	1.471205	0.688300
H251	H	-0.053432	0.917299	0.188281
H252	H	0.446568	1.417299	0.688281
C253	C	0.097392	0.622990	0.144202
C254	C	0.597392	1.122990	0.644202
H255	H	0.098110	0.671574	0.134371
H256	H	0.598110	1.171574	0.634371
H257	H	0.137924	0.605601	0.172399
H258	H	0.637924	1.105601	0.672399
H259	H	0.056507	0.616520	0.172403
H260	H	0.556507	1.116520	0.672403
C261	C	-0.006836	0.924657	0.341720
C262	C	0.493164	1.424657	0.841720
H263	H	-0.035143	0.953061	0.306772
H264	H	0.464857	1.453061	0.806772
H265	H	0.018259	0.953591	0.372647
H266	H	0.518259	1.453591	0.872647
H267	H	-0.035890	0.899680	0.372621
H268	H	0.464110	1.399680	0.872621
