data_functionalizedCrystal
_audit_creation_method	'MofGen! by Chris Wilmer'
_symmetry_space_group_name_H-M	'P1'
_symmetry_Int_Tables_number	1
_symmetry_cell_setting	triclinic
loop_
_symmetry_equiv_pos_as_xyz
  x,y,z
_cell_length_a	19.077105
_cell_length_b	29.839131
_cell_length_c	19.076929
_cell_angle_alpha	92.257200
_cell_angle_beta	90.078300
_cell_angle_gamma	87.731134
loop_
_atom_site_label
_atom_site_type_symbol
_atom_site_fract_x
_atom_site_fract_y
_atom_site_fract_z
Zn1	Zn	1.058192	-0.217322	-0.440347
Zn2	Zn	1.308192	0.032678	-0.190347
Zn3	Zn	1.558192	0.282678	0.059653
Zn4	Zn	1.808192	0.532678	0.309653
Zn5	Zn	1.062816	-0.289559	-0.322817
Zn6	Zn	1.312816	-0.039559	-0.072817
Zn7	Zn	1.562816	0.210441	0.177183
Zn8	Zn	1.812816	0.460441	0.427183
Zn9	Zn	0.945416	-0.211308	-0.318143
Zn10	Zn	1.195416	0.038692	-0.068143
Zn11	Zn	1.445416	0.288692	0.181857
Zn12	Zn	1.695416	0.538692	0.431857
Zn13	Zn	0.940634	-0.289284	-0.435570
Zn14	Zn	1.190634	-0.039284	-0.185570
Zn15	Zn	1.440634	0.210716	0.064430
Zn16	Zn	1.690634	0.460716	0.314430
O17	O	1.001765	-0.251868	-0.379219
O18	O	1.251765	-0.001868	-0.129219
O19	O	1.501765	0.248132	0.120781
O20	O	1.751765	0.498132	0.370781
O21	O	1.157137	-0.229536	-0.428712
O22	O	1.407137	0.020464	-0.178712
O23	O	1.657137	0.270464	0.071288
O24	O	1.907137	0.520464	0.321288
O25	O	1.051180	-0.276777	-0.223867
O26	O	1.301180	-0.026777	0.026133
O27	O	1.551180	0.223223	0.276133
O28	O	1.801180	0.473223	0.526133
O29	O	0.960443	-0.149242	-0.334396
O30	O	1.210443	0.100758	-0.084396
O31	O	1.460443	0.350758	0.165604
O32	O	1.710443	0.600758	0.415604
O33	O	1.160534	-0.282608	-0.342364
O34	O	1.410534	-0.032608	-0.092364
O35	O	1.660534	0.217392	0.157636
O36	O	1.910534	0.467392	0.407636
O37	O	1.043299	-0.153660	-0.424179
O38	O	1.293299	0.096340	-0.174179
O39	O	1.543299	0.346340	0.075821
O40	O	1.793299	0.596340	0.325821
O41	O	0.964927	-0.219286	-0.220433
O42	O	1.214927	0.030714	0.029567
O43	O	1.464927	0.280714	0.279567
O44	O	1.714927	0.530714	0.529567
O45	O	0.846451	-0.219020	-0.329764
O46	O	1.096451	0.030980	-0.079764
O47	O	1.346451	0.280980	0.170236
O48	O	1.596451	0.530980	0.420236
O49	O	0.952291	-0.282140	-0.534534
O50	O	1.202291	-0.032140	-0.284534
O51	O	1.452291	0.217860	-0.034534
O52	O	1.702291	0.467860	0.215466
O53	O	0.842937	-0.276308	-0.416037
O54	O	1.092937	-0.026308	-0.166037
O55	O	1.342937	0.223692	0.083963
O56	O	1.592937	0.473692	0.333963
O57	O	1.038661	-0.229270	-0.538044
O58	O	1.288661	0.020730	-0.288044
O59	O	1.538661	0.270730	-0.038044
O60	O	1.788661	0.520730	0.211956
O61	O	1.046542	-0.352387	-0.337731
O62	O	1.296542	-0.102387	-0.087731
O63	O	1.546542	0.147613	0.162269
O64	O	1.796542	0.397613	0.412269
O65	O	0.956775	-0.352185	-0.420570
O66	O	1.206775	-0.102185	-0.170570
O67	O	1.456775	0.147815	0.079430
O68	O	1.706775	0.397815	0.329430
C69	C	0.819198	-0.246982	-0.371875
C70	C	1.069198	0.003018	-0.121875
C71	C	1.319198	0.253018	0.128125
C72	C	1.569198	0.503018	0.378125
C73	C	0.741095	-0.244903	-0.368750
C74	C	0.991095	0.005097	-0.118750
C75	C	1.241095	0.255097	0.131250
C76	C	1.491095	0.505097	0.381250
C77	C	1.001660	-0.368587	-0.379156
C78	C	1.251660	-0.118587	-0.129156
C79	C	1.501660	0.131413	0.120844
C80	C	1.751660	0.381413	0.370844
C81	C	1.001678	-0.418521	-0.379155
C82	C	1.251678	-0.168521	-0.129155
C83	C	1.501678	0.081479	0.120845
C84	C	1.751678	0.331479	0.370845
C85	C	0.702593	-0.273795	-0.412129
C86	C	0.952593	-0.023795	-0.162129
C87	C	1.202593	0.226205	0.087871
C88	C	1.452593	0.476205	0.337871
C89	C	0.629207	-0.271836	-0.409196
C90	C	0.879207	-0.021836	-0.159196
C91	C	1.129207	0.228164	0.090804
C92	C	1.379207	0.478164	0.340804
C93	C	0.594323	-0.240986	-0.362880
C94	C	0.844323	0.009014	-0.112880
C95	C	1.094323	0.259014	0.137120
C96	C	1.344323	0.509014	0.387120
C97	C	0.632829	-0.212091	-0.319499
C98	C	0.882829	0.037909	-0.069499
C99	C	1.132829	0.287909	0.180501
C100	C	1.382829	0.537909	0.430501
C101	C	0.706215	-0.214049	-0.322436
C102	C	0.956215	0.035951	-0.072436
C103	C	1.206215	0.285951	0.177564
C104	C	1.456215	0.535951	0.427564
C105	C	0.375039	-0.231927	-0.349291
C106	C	0.625039	0.018073	-0.099291
C107	C	0.875039	0.268073	0.150709
C108	C	1.125039	0.518073	0.400709
C109	C	0.301648	-0.229972	-0.346355
C110	C	0.551648	0.020028	-0.096355
C111	C	0.801648	0.270028	0.153645
C112	C	1.051648	0.520028	0.403645
C113	C	0.298030	-0.289716	-0.436053
C114	C	0.548030	-0.039716	-0.186053
C115	C	0.798030	0.210284	0.063947
C116	C	1.048030	0.460284	0.313947
C117	C	0.371417	-0.291673	-0.438983
C118	C	0.621417	-0.041673	-0.188983
C119	C	0.871417	0.208327	0.061017
C120	C	1.121417	0.458327	0.311017
C121	C	0.409917	-0.262776	-0.395605
C122	C	0.659917	-0.012776	-0.145605
C123	C	0.909917	0.237224	0.104395
C124	C	1.159917	0.487224	0.354395
N125	N	0.519310	-0.238984	-0.359880
N126	N	0.769310	0.011016	-0.109880
N127	N	1.019310	0.261016	0.140120
N128	N	1.269310	0.511016	0.390120
N129	N	0.484929	-0.264777	-0.398610
N130	N	0.734929	-0.014777	-0.148610
N131	N	0.984929	0.235223	0.101390
N132	N	1.234929	0.485223	0.351390
C133	C	1.044895	-0.730436	-0.426033
C134	C	1.294895	-0.480436	-0.176033
C135	C	1.544895	-0.230436	0.073967
C136	C	1.794895	0.019564	0.323967
C137	C	1.044970	-0.918112	-0.426078
C138	C	1.294970	-0.668112	-0.176078
C139	C	1.544970	-0.418112	0.073922
C140	C	1.794970	-0.168112	0.323922
O141	O	1.081611	-0.944304	-0.465888
O142	O	1.331611	-0.694304	-0.215888
O143	O	1.581611	-0.444304	0.034112
O144	O	1.831611	-0.194304	0.284112
N145	N	1.001881	-0.939315	-0.379302
N146	N	1.251881	-0.689315	-0.129302
N147	N	1.501881	-0.439315	0.120698
N148	N	1.751881	-0.189315	0.370698
C149	C	0.958767	-0.913597	-0.332514
C150	C	1.208767	-0.663597	-0.082514
C151	C	1.458767	-0.413597	0.167486
C152	C	1.708767	-0.163597	0.417486
O153	O	0.922113	-0.935938	-0.292734
O154	O	1.172113	-0.685938	-0.042734
O155	O	1.422113	-0.435938	0.207266
O156	O	1.672113	-0.185938	0.457266
C157	C	0.958689	-0.725922	-0.332473
C158	C	1.208689	-0.475922	-0.082473
C159	C	1.458689	-0.225922	0.167527
C160	C	1.708689	0.024078	0.417527
C161	C	1.001786	-0.704721	-0.379247
C162	C	1.251786	-0.454721	-0.129247
C163	C	1.501786	-0.204721	0.120753
C164	C	1.751786	0.045279	0.370753
C165	C	1.087988	-0.709235	-0.472804
C166	C	1.337988	-0.459235	-0.222804
C167	C	1.587988	-0.209235	0.027196
C168	C	1.837988	0.040765	0.277196
C169	C	1.087972	-0.662318	-0.472790
C170	C	1.337972	-0.412318	-0.222790
C171	C	1.587972	-0.162318	0.027210
C172	C	1.837972	0.087682	0.277210
C173	C	1.044863	-0.636603	-0.426004
C174	C	1.294863	-0.386603	-0.176004
C175	C	1.544863	-0.136603	0.073996
C176	C	1.794863	0.113397	0.323996
C177	C	1.001770	-0.657804	-0.379233
C178	C	1.251770	-0.407804	-0.129233
C179	C	1.501770	-0.157804	0.120767
C180	C	1.751770	0.092196	0.370767
C181	C	0.915572	-0.700204	-0.285689
C182	C	1.165572	-0.450204	-0.035689
C183	C	1.415572	-0.200204	0.214311
C184	C	1.665572	0.049796	0.464311
C185	C	0.915555	-0.653282	-0.285684
C186	C	1.165555	-0.403282	-0.035684
C187	C	1.415555	-0.153282	0.214316
C188	C	1.665555	0.096718	0.464316
C189	C	0.958652	-0.632081	-0.332459
C190	C	1.208652	-0.382081	-0.082459
C191	C	1.458652	-0.132081	0.167541
C192	C	1.708652	0.117919	0.417541
C193	C	0.958644	-0.585173	-0.332433
C194	C	1.208644	-0.335173	-0.082433
C195	C	1.458644	-0.085173	0.167567
C196	C	1.708644	0.164827	0.417567
N197	N	1.001733	-0.563970	-0.379209
N198	N	1.251733	-0.313970	-0.129209
N199	N	1.501733	-0.063970	0.120791
N200	N	1.751733	0.186030	0.370791
C201	C	1.044843	-0.589685	-0.425995
C202	C	1.294843	-0.339685	-0.175995
C203	C	1.544843	-0.089685	0.074005
C204	C	1.794843	0.160315	0.324005
C205	C	0.958812	-1.012129	-0.332538
C206	C	1.208812	-0.762129	-0.082538
C207	C	1.458812	-0.512129	0.167462
C208	C	1.708812	-0.262129	0.417462
C209	C	0.958832	-1.059048	-0.332548
C210	C	1.208832	-0.809048	-0.082548
C211	C	1.458832	-0.559048	0.167452
C212	C	1.708832	-0.309048	0.417452
C213	C	1.045034	-1.063560	-0.426113
C214	C	1.295034	-0.813560	-0.176113
C215	C	1.545034	-0.563560	0.073887
C216	C	1.795034	-0.313560	0.323887
C217	C	1.045017	-1.016640	-0.426099
C218	C	1.295017	-0.766640	-0.176099
C219	C	1.545017	-0.516640	0.073901
C220	C	1.795017	-0.266640	0.323901
C221	C	1.001901	-0.990926	-0.379315
C222	C	1.251901	-0.740926	-0.129315
C223	C	1.501901	-0.490926	0.120685
C224	C	1.751901	-0.240926	0.370685
C225	C	1.044806	-0.491157	-0.425961
C226	C	1.294806	-0.241157	-0.175961
C227	C	1.544806	0.008843	0.074039
C228	C	1.794806	0.258843	0.324039
C229	C	1.044788	-0.444236	-0.425940
C230	C	1.294788	-0.194236	-0.175940
C231	C	1.544788	0.055764	0.074060
C232	C	1.794788	0.305764	0.324060
C233	C	0.958583	-0.439729	-0.332378
C234	C	1.208583	-0.189729	-0.082378
C235	C	1.458583	0.060271	0.167622
C236	C	1.708583	0.310271	0.417622
C237	C	0.958603	-0.486645	-0.332396
C238	C	1.208603	-0.236645	-0.082396
C239	C	1.458603	0.013355	0.167604
C240	C	1.708603	0.263355	0.417604
C241	C	1.001717	-0.512358	-0.379193
C242	C	1.251717	-0.262358	-0.129193
C243	C	1.501717	-0.012358	0.120807
C244	C	1.751717	0.237642	0.370807
O245	O	0.922016	-0.558953	-0.292650
O246	O	1.172016	-0.308953	-0.042650
O247	O	1.422016	-0.058953	0.207350
O248	O	1.672016	0.191047	0.457350
O249	O	1.081479	-0.567335	-0.465780
O250	O	1.331479	-0.317335	-0.215780
O251	O	1.581479	-0.067335	0.034220
O252	O	1.831479	0.182665	0.284220
C253	C	1.044912	-0.777352	-0.426047
C254	C	1.294912	-0.527352	-0.176047
C255	C	1.544912	-0.277352	0.073953
C256	C	1.794912	-0.027352	0.323953
C257	C	1.001819	-0.798553	-0.379276
C258	C	1.251819	-0.548553	-0.129276
C259	C	1.501819	-0.298553	0.120724
C260	C	1.751819	-0.048553	0.370724
C261	C	0.958709	-0.772838	-0.332491
C262	C	1.208709	-0.522838	-0.082491
C263	C	1.458709	-0.272838	0.167509
C264	C	1.708709	-0.022838	0.417509
C265	C	1.001839	-0.845472	-0.379286
C266	C	1.251839	-0.595472	-0.129286
C267	C	1.501839	-0.345472	0.120714
C268	C	1.751839	-0.095472	0.370714
C269	C	1.044948	-0.871187	-0.426071
C270	C	1.294948	-0.621187	-0.176071
C271	C	1.544948	-0.371187	0.073929
C272	C	1.794948	-0.121187	0.323929
C273	C	1.088037	-0.849983	-0.472847
C274	C	1.338037	-0.599983	-0.222847
C275	C	1.588037	-0.349983	0.027153
C276	C	1.838037	-0.099983	0.277153
C277	C	1.088021	-0.803067	-0.472833
C278	C	1.338021	-0.553067	-0.222833
C279	C	1.588021	-0.303067	0.027167
C280	C	1.838021	-0.053067	0.277167
C281	C	0.915620	-0.794042	-0.285714
C282	C	1.165620	-0.544042	-0.035714
C283	C	1.415620	-0.294042	0.214286
C284	C	1.665620	-0.044042	0.464286
C285	C	0.915641	-0.840958	-0.285732
C286	C	1.165641	-0.590958	-0.035732
C287	C	1.415641	-0.340958	0.214268
C288	C	1.665641	-0.090958	0.464268
C289	C	0.958750	-0.866673	-0.332518
C290	C	1.208750	-0.616673	-0.082518
C291	C	1.458750	-0.366673	0.167482
C292	C	1.708750	-0.116673	0.417482
C293	C	1.185044	-0.256774	-0.386592
C294	C	1.435044	-0.006774	-0.136592
C295	C	1.685044	0.243226	0.113408
C296	C	1.935044	0.493226	0.363408
C297	C	1.263147	-0.258864	-0.389734
C298	C	1.513147	-0.008864	-0.139734
C299	C	1.763147	0.241136	0.110266
C300	C	2.013147	0.491136	0.360266
C301	C	0.994427	-0.256345	-0.562498
C302	C	1.244427	-0.006345	-0.312498
C303	C	1.494427	0.243655	-0.062498
C304	C	1.744427	0.493655	0.187502
C305	C	0.991300	-0.258253	-0.640600
C306	C	1.241300	-0.008253	-0.390600
C307	C	1.491300	0.241747	-0.140600
C308	C	1.741300	0.491747	0.109400
C309	C	1.001888	-0.134695	-0.379299
C310	C	1.251888	0.115305	-0.129299
C311	C	1.501888	0.365305	0.120701
C312	C	1.751888	0.615305	0.370701
C313	C	1.001941	-0.084763	-0.379333
C314	C	1.251941	0.165237	-0.129333
C315	C	1.501941	0.415237	0.120667
C316	C	1.751941	0.665237	0.370667
C317	C	0.968878	-0.271973	-1.080037
C318	C	1.218878	-0.021973	-0.830037
C319	C	1.468878	0.228027	-0.580037
C320	C	1.718878	0.478027	-0.330037
C321	C	0.971813	-0.270173	-1.006652
C322	C	1.221813	-0.020173	-0.756652
C323	C	1.471813	0.229827	-0.506652
C324	C	1.721813	0.479827	-0.256652
C325	C	1.018252	-0.241750	-0.971790
C326	C	1.268252	0.008250	-0.721790
C327	C	1.518252	0.258250	-0.471790
C328	C	1.768252	0.508250	-0.221790
C329	C	1.061754	-0.215121	-1.010317
C330	C	1.311754	0.034879	-0.760317
C331	C	1.561754	0.284879	-0.510317
C332	C	1.811754	0.534879	-0.260317
C333	C	1.058814	-0.216918	-1.083701
C334	C	1.308814	0.033082	-0.833701
C335	C	1.558814	0.283082	-0.583701
C336	C	1.808814	0.533082	-0.333701
C337	C	1.031862	-0.233421	-0.752511
C338	C	1.281862	0.016579	-0.502511
C339	C	1.531862	0.266579	-0.252511
C340	C	1.781862	0.516579	-0.002511
C341	C	1.034800	-0.231627	-0.679122
C342	C	1.284800	0.018373	-0.429122
C343	C	1.534800	0.268373	-0.179122
C344	C	1.784800	0.518373	0.070878
C345	C	0.944858	-0.286679	-0.675461
C346	C	1.194858	-0.036679	-0.425461
C347	C	1.444858	0.213321	-0.175461
C348	C	1.694858	0.463321	0.074539
C349	C	0.941925	-0.288476	-0.748847
C350	C	1.191925	-0.038476	-0.498847
C351	C	1.441925	0.211524	-0.248847
C352	C	1.691925	0.461524	0.001153
C353	C	0.985424	-0.261845	-0.787368
C354	C	1.235424	-0.011845	-0.537368
C355	C	1.485424	0.238155	-0.287368
C356	C	1.735424	0.488155	-0.037368
N357	N	1.021255	-0.239911	-0.896778
N358	N	1.271255	0.010089	-0.646778
N359	N	1.521255	0.260089	-0.396778
N360	N	1.771255	0.510089	-0.146778
N361	N	0.982417	-0.263682	-0.862378
N362	N	1.232417	-0.013682	-0.612378
N363	N	1.482417	0.236318	-0.362378
N364	N	1.732417	0.486318	-0.112378
C365	C	1.009114	-0.247377	-0.196656
C366	C	1.259114	0.002623	0.053344
C367	C	1.509114	0.252623	0.303344
C368	C	1.759114	0.502623	0.553344
C369	C	1.012377	-0.245346	-0.118559
C370	C	1.262377	0.004654	0.131441
C371	C	1.512377	0.254654	0.381441
C372	C	1.762377	0.504654	0.631441
H373	H	0.597862	-0.295363	-0.444519
H374	H	0.847862	-0.045363	-0.194519
H375	H	1.097862	0.204637	0.055481
H376	H	1.347862	0.454637	0.305481
N377	N	0.871502	-0.627023	-0.237892
N378	N	1.121502	-0.377023	0.012108
N379	N	1.371502	-0.127023	0.262108
N380	N	1.621502	0.122977	0.512108
N381	N	0.833028	-0.645962	-0.196139
N382	N	1.083028	-0.395962	0.053861
N383	N	1.333028	-0.145962	0.303861
N384	N	1.583028	0.104038	0.553861
H385	H	0.801916	-0.627418	-0.162385
H386	H	1.051916	-0.377418	0.087615
H387	H	1.301916	-0.127418	0.337615
H388	H	1.551916	0.122582	0.587615
H389	H	1.072616	-0.208478	-0.650740
H390	H	1.322616	0.041522	-0.400740
H391	H	1.572616	0.291522	-0.150740
H392	H	1.822616	0.541522	0.099260
N393	N	0.914617	-0.508312	-0.284594
N394	N	1.164617	-0.258312	-0.034594
N395	N	1.414617	-0.008312	0.215406
N396	N	1.664617	0.241688	0.465406
N397	N	0.921949	-0.501639	-0.219950
N398	N	1.171949	-0.251639	0.030050
N399	N	1.421949	-0.001639	0.280050
N400	N	1.671949	0.248361	0.530050
H401	H	0.890888	-0.516941	-0.186188
H402	H	1.140888	-0.266941	0.063812
H403	H	1.390888	-0.016941	0.313812
H404	H	1.640888	0.233059	0.563812
N405	N	0.914562	-0.413450	-0.284587
N406	N	1.164562	-0.163450	-0.034587
N407	N	1.414562	0.086550	0.215413
N408	N	1.664562	0.336550	0.465413
N409	N	0.914560	-0.371559	-0.284586
N410	N	1.164560	-0.121559	-0.034586
N411	N	1.414560	0.128441	0.215414
N412	N	1.664560	0.378441	0.465414
H413	H	0.883469	-0.352998	-0.250835
H414	H	1.133469	-0.102998	-0.000835
H415	H	1.383469	0.147002	0.249165
H416	H	1.633469	0.397002	0.499165
H417	H	1.123093	-0.730167	-0.510907
H418	H	1.373093	-0.480167	-0.260907
H419	H	1.623093	-0.230167	-0.010907
H420	H	1.873093	0.019833	0.239093
H421	H	0.931064	-0.295120	-1.108416
H422	H	1.181064	-0.045120	-0.858416
H423	H	1.431064	0.204880	-0.608416
H424	H	1.681064	0.454880	-0.358416
N425	N	1.103239	-0.189721	-1.123065
N426	N	1.353239	0.060279	-0.873065
N427	N	1.603239	0.310279	-0.623065
N428	N	1.853239	0.560279	-0.373065
N429	N	1.076903	-0.161436	-1.163043
N430	N	1.326903	0.088564	-0.913043
N431	N	1.576903	0.338564	-0.663043
N432	N	1.826903	0.588564	-0.413043
H433	H	1.108277	-0.142226	-1.190845
H434	H	1.358277	0.107774	-0.940845
H435	H	1.608277	0.357774	-0.690845
H436	H	1.858277	0.607774	-0.440845
H437	H	1.123063	-0.645060	-0.510879
H438	H	1.373063	-0.395060	-0.260879
H439	H	1.623063	-0.145060	-0.010879
H440	H	1.873063	0.104940	0.239121
H441	H	0.399815	-0.316795	-0.476697
H442	H	0.649815	-0.066795	-0.226697
H443	H	0.899815	0.183205	0.023303
H444	H	1.149815	0.433205	0.273303
N445	N	0.871545	-0.721849	-0.237908
N446	N	1.121545	-0.471849	0.012092
N447	N	1.371545	-0.221849	0.262092
N448	N	1.621545	0.028151	0.512092
N449	N	0.878835	-0.715167	-0.173260
N450	N	1.128835	-0.465167	0.076740
N451	N	1.378835	-0.215167	0.326740
N452	N	1.628835	0.034833	0.576740
H453	H	0.847735	-0.730452	-0.139514
H454	H	1.097735	-0.480452	0.110486
H455	H	1.347735	-0.230452	0.360486
H456	H	1.597735	0.019548	0.610486
N457	N	0.597210	-0.180579	-0.272180
N458	N	0.847210	0.069421	-0.022180
N459	N	1.097210	0.319421	0.227820
N460	N	1.347210	0.569421	0.477820
N461	N	0.631598	-0.154785	-0.233452
N462	N	0.881598	0.095215	0.016548
N463	N	1.131598	0.345215	0.266548
N464	N	1.381598	0.595215	0.516548
H465	H	0.606444	-0.132529	-0.200030
H466	H	0.856444	0.117471	0.049970
H467	H	1.106444	0.367471	0.299970
H468	H	1.356444	0.617471	0.549970
H469	H	0.406377	-0.208400	-0.313964
H470	H	0.656377	0.041600	-0.063964
H471	H	0.906377	0.291600	0.186036
H472	H	1.156377	0.541600	0.436036
H473	H	0.737562	-0.190520	-0.287116
H474	H	0.987562	0.059480	-0.037116
H475	H	1.237562	0.309480	0.212884
H476	H	1.487562	0.559480	0.462884
H477	H	0.904110	-0.311622	-0.777226
H478	H	1.154110	-0.061622	-0.527226
H479	H	1.404110	0.188378	-0.277226
H480	H	1.654110	0.438378	-0.027226
N481	N	0.738234	-0.305308	-0.459431
N482	N	0.988234	-0.055308	-0.209431
N483	N	1.238234	0.194692	0.040569
N484	N	1.488234	0.444692	0.290569
N485	N	0.780147	-0.334396	-0.436257
N486	N	1.030147	-0.084396	-0.186257
N487	N	1.280147	0.165604	0.063743
N488	N	1.530147	0.415604	0.313743
H489	H	0.805318	-0.356653	-0.469666
H490	H	1.055318	-0.106653	-0.219666
H491	H	1.305318	0.143347	0.030334
H492	H	1.555318	0.393347	0.280334
N493	N	0.258693	-0.319229	-0.480354
N494	N	0.508693	-0.069229	-0.230354
N495	N	0.758693	0.180771	0.019646
N496	N	1.008693	0.430771	0.269646
N497	N	0.193171	-0.317479	-0.477728
N498	N	0.443171	-0.067479	-0.227728
N499	N	0.693171	0.182521	0.022272
N500	N	0.943171	0.432521	0.272272
H501	H	0.165388	-0.338323	-0.509018
H502	H	0.415388	-0.088323	-0.259018
H503	H	0.665388	0.161677	-0.009018
H504	H	0.915388	0.411677	0.240982
H505	H	0.936398	-0.291861	-0.975290
H506	H	1.186398	-0.041861	-0.725290
H507	H	1.436398	0.208139	-0.475290
H508	H	1.686398	0.458139	-0.225290
H509	H	1.079885	-0.426976	-0.464030
H510	H	1.329885	-0.176976	-0.214030
H511	H	1.579885	0.073024	0.035970
H512	H	1.829885	0.323024	0.285970
H513	H	1.079908	-0.512087	-0.464072
H514	H	1.329908	-0.262087	-0.214072
H515	H	1.579908	-0.012087	0.035928
H516	H	1.829908	0.237913	0.285928
H517	H	0.273248	-0.204846	-0.308643
H518	H	0.523248	0.045154	-0.058643
H519	H	0.773248	0.295154	0.191357
H520	H	1.023248	0.545154	0.441357
H521	H	1.080110	-0.999381	-0.464188
H522	H	1.330110	-0.749381	-0.214188
H523	H	1.580110	-0.499381	0.035812
H524	H	1.830110	-0.249381	0.285812
N525	N	1.089056	-1.089832	-0.473916
N526	N	1.339056	-0.839832	-0.223916
N527	N	1.589056	-0.589832	0.026084
N528	N	1.839056	-0.339832	0.276084
N529	N	1.081733	-1.086034	-0.538560
N530	N	1.331733	-0.836034	-0.288560
N531	N	1.581733	-0.586034	-0.038560
N532	N	1.831733	-0.336034	0.211440
H533	H	1.112817	-1.104592	-0.572323
H534	H	1.362817	-0.854592	-0.322323
H535	H	1.612817	-0.604592	-0.072323
H536	H	1.862817	-0.354592	0.177677
H537	H	0.923746	-1.076305	-0.294452
H538	H	1.173746	-0.826305	-0.044452
H539	H	1.423746	-0.576305	0.205548
H540	H	1.673746	-0.326305	0.455548
N541	N	0.900422	-0.313883	-0.636124
N542	N	1.150422	-0.063883	-0.386124
N543	N	1.400422	0.186117	-0.136124
N544	N	1.650422	0.436117	0.113876
N545	N	0.904704	-0.355661	-0.644476
N546	N	1.154704	-0.105661	-0.394476
N547	N	1.404704	0.144339	-0.144476
N548	N	1.654704	0.394339	0.105524
H549	H	0.873317	-0.374875	-0.616696
H550	H	1.123317	-0.124875	-0.366696
H551	H	1.373317	0.125125	-0.116696
H552	H	1.623317	0.375125	0.133304
H553	H	0.923700	-0.991195	-0.294439
H554	H	1.173700	-0.741195	-0.044439
H555	H	1.423700	-0.491195	0.205561
H556	H	1.673700	-0.241195	0.455561
N557	N	1.132050	-0.781422	-0.520615
N558	N	1.382050	-0.531422	-0.270615
N559	N	1.632050	-0.281422	-0.020615
N560	N	1.882050	-0.031422	0.229385
N561	N	1.170535	-0.804395	-0.562380
N562	N	1.420535	-0.554395	-0.312380
N563	N	1.670535	-0.304395	-0.062380
N564	N	1.920535	-0.054395	0.187620
H565	H	1.201633	-0.789111	-0.596130
H566	H	1.451633	-0.539111	-0.346130
H567	H	1.701633	-0.289111	-0.096130
H568	H	1.951633	-0.039111	0.153870
N569	N	1.132074	-0.876262	-0.520629
N570	N	1.382074	-0.626262	-0.270629
N571	N	1.632074	-0.376262	-0.020629
N572	N	1.882074	-0.126262	0.229371
N573	N	1.132077	-0.918153	-0.520625
N574	N	1.382077	-0.668153	-0.270625
N575	N	1.632077	-0.418153	-0.020625
N576	N	1.882077	-0.168153	0.229375
H577	H	1.163175	-0.936715	-0.554370
H578	H	1.413175	-0.686715	-0.304370
H579	H	1.663175	-0.436715	-0.054370
H580	H	1.913175	-0.186715	0.195630
N581	N	0.871616	-0.862604	-0.237939
N582	N	1.121616	-0.612604	0.012061
N583	N	1.371616	-0.362604	0.262061
N584	N	1.621616	-0.112604	0.512061
N585	N	0.833131	-0.839633	-0.196173
N586	N	1.083131	-0.589633	0.053827
N587	N	1.333131	-0.339633	0.303827
N588	N	1.583131	-0.089633	0.553827
H589	H	0.802035	-0.854918	-0.162423
H590	H	1.052035	-0.604918	0.087577
H591	H	1.302035	-0.354918	0.337577
H592	H	1.552035	-0.104918	0.587577
H593	H	0.880514	-0.773108	-0.247617
H594	H	1.130514	-0.523108	0.002383
H595	H	1.380514	-0.273108	0.252383
H596	H	1.630514	-0.023108	0.502383
N597	N	1.076301	-0.206218	-0.791843
N598	N	1.326301	0.043782	-0.541843
N599	N	1.576301	0.293782	-0.291843
N600	N	1.826301	0.543782	-0.041843
N601	N	1.117764	-0.180845	-0.760705
N602	N	1.367764	0.069155	-0.510705
N603	N	1.617764	0.319155	-0.260705
N604	N	1.867764	0.569155	-0.010705
H605	H	1.149153	-0.161632	-0.788484
H606	H	1.399153	0.088368	-0.538484
H607	H	1.649153	0.338368	-0.288484
H608	H	1.899153	0.588368	-0.038484
N609	N	1.109181	-0.186085	-0.974698
N610	N	1.359181	0.063915	-0.724698
N611	N	1.609181	0.313915	-0.474698
N612	N	1.859181	0.563915	-0.224698
N613	N	1.111801	-0.184484	-0.909177
N614	N	1.361801	0.065516	-0.659177
N615	N	1.611801	0.315516	-0.409177
N616	N	1.861801	0.565516	-0.159177
H617	H	1.145299	-0.163978	-0.884021
H618	H	1.395299	0.086022	-0.634021
H619	H	1.645299	0.336022	-0.384021
H620	H	1.895299	0.586022	-0.134021
