data_functionalizedCrystal
_audit_creation_method	'MofGen! by Chris Wilmer'
_symmetry_space_group_name_H-M	'P1'
_symmetry_Int_Tables_number	1
_symmetry_cell_setting	triclinic
loop_
_symmetry_equiv_pos_as_xyz
  x,y,z
_cell_length_a	8.497374
_cell_length_b	19.805407
_cell_length_c	19.805405
_cell_angle_alpha	89.976273
_cell_angle_beta	89.985911
_cell_angle_gamma	90.002733
loop_
_atom_site_label
_atom_site_type_symbol
_atom_site_fract_x
_atom_site_fract_y
_atom_site_fract_z
Zn1	Zn	0.891937	1.034635	0.269629
Zn2	Zn	0.628113	1.034580	0.382787
Zn3	Zn	0.628159	0.921479	0.269612
Zn4	Zn	0.891840	0.921413	0.382776
O5	O	0.760012	0.978027	0.326201
O6	O	0.856961	1.129344	0.284651
O7	O	0.407357	1.019581	0.367772
O8	O	0.663210	0.936541	0.174898
O9	O	0.663131	1.129303	0.367788
O10	O	0.857006	1.019676	0.174910
O11	O	0.407391	0.936487	0.284623
O12	O	0.663116	0.826754	0.284612
O13	O	1.112615	0.936428	0.367769
O14	O	0.856841	0.826705	0.367753
O15	O	1.112686	1.019611	0.284640
O16	O	0.663038	1.019517	0.477502
O17	O	0.856797	0.936374	0.477494
C18	C	0.759974	0.802171	0.326180
C19	C	0.759995	0.726939	0.326187
C20	C	0.861076	0.691616	0.282974
C21	C	0.861082	0.620928	0.282978
C22	C	0.760014	0.585563	0.326198
C23	C	0.658922	0.620890	0.369413
C24	C	0.658910	0.691578	0.369405
C25	C	0.658971	0.335817	0.369443
C26	C	0.658995	0.265125	0.369449
C27	C	0.861143	0.265168	0.283016
C28	C	0.861130	0.335855	0.283008
C29	C	0.760033	0.371176	0.326220
C30	C	0.760026	0.447824	0.326215
C31	C	0.760028	0.508916	0.326207
C32	C	0.759936	0.977951	0.502057
C33	C	0.759956	0.977980	0.577289
C34	C	1.171493	0.978022	0.326202
C35	C	1.350137	0.978023	0.326209
C36	C	0.760052	1.154569	0.326223
C37	C	0.760069	1.229801	0.326232
C38	C	0.760124	0.978122	0.149658
C39	C	0.760171	0.978162	0.074426
C40	C	0.659172	1.021314	0.612615
C41	C	0.659206	1.021343	0.683304
C42	C	0.760019	0.978034	0.718665
C43	C	0.860815	0.934697	0.683334
C44	C	0.860787	0.934672	0.612647
C45	C	0.860932	0.934797	0.968407
C46	C	0.860949	0.934824	1.039099
C47	C	0.659351	1.021468	1.039064
C48	C	0.659323	1.021443	0.968377
C49	C	0.760124	0.978109	0.933052
C50	C	0.760087	0.978080	0.856404
C51	C	0.760049	0.978059	0.795312
H52	H	0.576624	0.592091	0.404600
H53	H	0.943381	0.720405	0.247781
O54	O	0.959422	0.586721	0.240980
C55	C	1.048601	0.633092	0.202822
H56	H	1.053938	0.683471	0.230547
H57	H	1.172930	0.612676	0.195688
H58	H	0.991051	0.640627	0.151377
H59	H	0.943055	0.899556	1.067888
H60	H	0.943004	0.899512	0.939651
H61	H	0.942905	0.899436	0.712130
O62	O	0.958744	0.892515	0.578433
C63	C	1.047762	0.854307	0.624800
H64	H	0.983155	0.851998	0.675200
H65	H	1.064488	0.800967	0.604411
H66	H	1.167624	0.879058	0.632282
O67	O	0.560894	0.725863	0.411482
C68	C	0.595062	0.708559	0.478966
H69	H	0.721079	0.689133	0.482471
H70	H	0.581323	0.755036	0.512390
H71	H	0.510413	0.667519	0.496606
H72	H	0.943456	0.236401	0.247828
O73	O	0.959357	0.370103	0.240960
C74	C	1.048604	0.323767	0.202830
H75	H	0.984010	0.273375	0.200448
H76	H	1.065649	0.344209	0.149511
H77	H	1.168316	0.316250	0.227696
O78	O	0.560655	0.230875	0.411454
C79	C	0.471446	0.277207	0.449604
H80	H	0.466087	0.327604	0.421873
H81	H	0.347126	0.256769	0.456737
H82	H	0.528984	0.284713	0.501050
H83	H	0.576653	0.364567	0.404630
O84	O	0.561186	1.063448	0.578373
C85	C	0.472212	1.101690	0.624714
H86	H	0.536858	1.104028	0.675088
H87	H	0.455483	1.155018	0.604253
H88	H	0.352350	1.076950	0.632274
H89	H	0.577136	1.056630	0.712063
H90	H	0.577280	1.056755	1.067834
O91	O	0.561345	1.063578	0.934132
C92	C	0.472368	1.101823	0.980471
H93	H	0.537006	1.104160	1.030847
H94	H	0.455650	1.155150	0.960009
H95	H	0.352502	1.077085	0.988027
