data_functionalizedCrystal
_audit_creation_method	'MofGen! by Chris Wilmer'
_symmetry_space_group_name_H-M	'P1'
_symmetry_Int_Tables_number	1
_symmetry_cell_setting	triclinic
loop_
_symmetry_equiv_pos_as_xyz
  x,y,z
_cell_length_a	23.532361
_cell_length_b	23.532407
_cell_length_c	9.730217
_cell_angle_alpha	89.988287
_cell_angle_beta	90.002878
_cell_angle_gamma	82.839208
loop_
_atom_site_label
_atom_site_type_symbol
_atom_site_fract_x
_atom_site_fract_y
_atom_site_fract_z
O1	O	0.755274	0.069008	-0.114177
O2	O	0.589407	0.079039	-0.114214
O3	O	0.677342	-0.008909	-0.114156
O4	O	0.667339	0.156956	-0.114235
O5	O	0.677340	-0.008910	0.114424
O6	O	0.589405	0.079038	0.114366
O7	O	0.755272	0.069007	0.114403
Zn8	Zn	0.672338	0.074022	0.150677
Zn9	Zn	0.672341	0.074023	-0.150487
O10	O	0.667336	0.156955	0.114345
C11	C	0.568189	0.078787	0.000072
C12	C	0.504971	0.078032	0.000060
C13	C	0.231729	0.074729	-0.124529
C14	C	0.291128	0.075444	-0.124533
O15	O	0.321855	0.075794	-0.230497
N16	N	0.320833	0.075804	0.000067
C17	C	0.291135	0.075444	0.124678
O18	O	0.321855	0.075816	0.230659
C19	C	0.231737	0.074725	0.124680
C20	C	0.202035	0.074370	0.000073
C21	C	0.202027	0.074373	-0.249126
C22	C	0.142631	0.073659	-0.249122
C23	C	0.112937	0.073301	-0.124521
C24	C	0.142639	0.073657	0.000077
C25	C	0.202040	0.074361	0.249290
C26	C	0.142638	0.073642	0.249281
C27	C	0.112936	0.073287	0.124674
C28	C	0.053549	0.072584	0.124683
N29	N	0.023845	0.072224	0.000083
C30	C	0.053539	0.072582	-0.124518
C31	C	0.415875	0.076953	0.124664
C32	C	0.475271	0.077676	0.124663
C33	C	0.475261	0.077675	-0.124548
C34	C	0.415863	0.076956	-0.124546
C35	C	0.386171	0.076592	0.000064
C36	C	-0.071197	0.071083	-0.124500
C37	C	-0.130598	0.070372	-0.124485
C38	C	-0.130582	0.070371	0.124726
C39	C	-0.071186	0.071085	0.124711
C40	C	-0.041495	0.071440	0.000087
O41	O	0.022785	0.072231	0.230593
O42	O	0.022813	0.072202	-0.230482
C43	C	0.677086	-0.030126	0.000141
C44	C	0.676320	-0.093343	0.000162
C45	C	0.621124	-0.359501	0.000064
C46	C	0.621835	-0.300101	0.000075
O47	O	0.578048	-0.263349	0.000022
N48	N	0.674113	-0.277483	0.000102
C49	C	0.725682	-0.314270	0.000105
O50	O	0.770214	-0.289577	0.000128
C51	C	0.724970	-0.373669	0.000084
C52	C	0.672689	-0.396282	0.000071
C53	C	0.568847	-0.382116	0.000049
C54	C	0.568136	-0.441512	0.000041
C55	C	0.619701	-0.478293	0.000048
C56	C	0.671978	-0.455678	0.000063
C57	C	0.776539	-0.410454	0.000077
C58	C	0.775822	-0.469856	0.000055
C59	C	0.723541	-0.492470	0.000042
C60	C	0.722832	-0.551856	0.000061
N61	N	0.670555	-0.574473	0.000034
C62	C	0.618989	-0.537692	0.000027
C63	C	0.727174	-0.189527	0.000145
C64	C	0.727886	-0.130129	0.000176
C65	C	0.624039	-0.115965	0.000143
C66	C	0.623327	-0.175364	0.000123
C67	C	0.674896	-0.212145	0.000118
C68	C	0.617500	-0.662429	0.000011
C69	C	0.616793	-0.721830	0.000009
C70	C	0.720640	-0.735990	0.000034
C71	C	0.721347	-0.676593	0.000044
C72	C	0.669772	-0.639813	0.000028
O73	O	0.766596	-0.588643	0.000109
O74	O	0.574465	-0.562393	-0.000014
C75	C	0.776490	0.069258	0.000114
C76	C	0.839708	0.070014	0.000117
C77	C	0.667592	0.178171	0.000045
C78	C	0.668358	0.241388	0.000015
N79	N	0.672339	0.074021	0.356213
N80	N	0.672344	0.074020	-0.356024
C81	C	0.750237	-0.003835	0.356255
C82	C	0.789190	-0.042761	0.428216
C83	C	0.789196	-0.042762	0.572096
C84	C	0.750244	-0.003833	0.644018
C85	C	0.711291	0.035094	0.572057
C86	C	0.711290	0.035091	0.428174
C87	C	0.633391	0.112946	0.572015
C88	C	0.633387	0.112950	0.428135
C89	C	0.594439	0.151875	0.643937
C90	C	0.555488	0.190805	0.571977
C91	C	0.555484	0.190804	0.428088
C92	C	0.594434	0.151876	0.356175
H93	H	0.391702	0.076665	0.226142
H94	H	0.750241	-0.003834	0.239101
O95	O	0.572578	-0.197396	-0.000086
C96	C	0.569051	-0.231300	-0.118504
H97	H	0.614025	-0.246347	-0.157962
H98	H	0.546570	-0.270072	-0.091905
H99	H	0.543707	-0.204896	-0.201398
H100	H	0.523773	0.222496	0.630545
H101	H	0.763918	-0.658180	0.000074
H102	H	0.594443	0.151871	0.761092
H103	H	0.594437	0.151874	0.239020
H104	H	0.817817	-0.499801	0.000044
O105	O	0.517723	0.228642	0.358039
C106	C	0.548013	0.263634	0.274824
H107	H	0.592708	0.240724	0.253275
H108	H	0.524187	0.272769	0.173645
H109	H	0.551639	0.305706	0.330260
H110	H	0.574218	-0.740239	0.000004
O111	O	0.386962	0.076530	-0.245502
C112	C	0.359354	0.026775	-0.252960
H113	H	0.352698	0.010220	-0.144770
H114	H	0.316071	0.037363	-0.305714
H115	H	0.386965	-0.007490	-0.314427
H116	H	0.499449	0.077966	-0.226006
H117	H	0.575502	-0.632489	-0.000002
O118	O	-0.159360	0.069945	0.245844
C119	C	-0.138123	0.020779	0.321648
H120	H	-0.092749	0.004856	0.286237
H121	H	-0.137609	0.031892	0.435636
H122	H	-0.166836	-0.014168	0.304370
O123	O	0.827030	-0.080495	0.358137
C124	C	0.818680	-0.072146	0.215714
H125	H	0.797096	-0.026768	0.196059
H126	H	0.861852	-0.078658	0.161068
H127	H	0.790341	-0.104260	0.174846
H128	H	0.525564	-0.459918	0.000018
H129	H	0.226214	0.074648	0.350759
H130	H	-0.154779	0.070085	-0.225959
O131	O	0.113881	0.073316	0.370455
C132	C	0.152841	0.073768	0.480422
H133	H	0.192719	0.092312	0.443877
H134	H	0.131910	0.101213	0.567563
H135	H	0.165397	0.028147	0.518750
H136	H	0.820913	-0.074461	0.630686
O137	O	-0.042257	0.071360	0.245662
C138	C	-0.001179	0.022432	0.253155
H139	H	0.009959	0.006092	0.144978
H140	H	0.039080	0.034025	0.305882
H141	H	-0.019358	-0.012385	0.314665
H142	H	0.526854	-0.352173	0.000039
H143	H	0.118453	0.073368	-0.350590
H144	H	0.770458	-0.111723	0.000208
O145	O	0.504108	0.077925	0.245743
C146	C	0.496311	0.028427	0.321582
H147	H	0.484690	-0.006249	0.248688
H148	H	0.537632	0.012338	0.378121
H149	H	0.460309	0.039166	0.399260
O150	O	-0.042452	0.071457	-0.245680
C151	C	-0.081413	0.070978	-0.355638
H152	H	-0.126212	0.088497	-0.319092
H153	H	-0.068036	0.098844	-0.442798
H154	H	-0.081495	0.025207	-0.393938
H155	H	0.226197	0.074663	-0.350598
O156	O	0.573999	-0.080148	0.000061
C157	C	0.585844	-0.022874	0.000109
H158	H	0.630568	-0.020851	-0.043142
H159	H	0.552961	0.004236	-0.066269
H160	H	0.583581	-0.005693	0.109771
O161	O	0.750250	-0.003941	0.783782
C162	C	0.738974	-0.057940	0.831871
H163	H	0.750838	-0.091554	0.748969
H164	H	0.765460	-0.069737	0.928135
H165	H	0.691506	-0.056194	0.857395
O166	O	0.777309	-0.225197	-0.000022
C167	C	0.809067	-0.214981	-0.118405
H168	H	0.794814	-0.169836	-0.157869
H169	H	0.856590	-0.219425	-0.091760
H170	H	0.801477	-0.247422	-0.201314
O171	O	0.827375	-0.388591	0.000024
C172	C	0.872728	-0.433803	0.000052
H173	H	0.856988	-0.474058	-0.043231
H174	H	0.909250	-0.421595	-0.066306
H175	H	0.888619	-0.442315	0.109713
H176	H	0.762623	-0.765948	0.000046
