data_functionalizedCrystal
_audit_creation_method	'MofGen! by Chris Wilmer'
_symmetry_space_group_name_H-M	'P1'
_symmetry_Int_Tables_number	1
_symmetry_cell_setting	triclinic
loop_
_symmetry_equiv_pos_as_xyz
  x,y,z
_cell_length_a	10.654550
_cell_length_b	19.288864
_cell_length_c	18.366186
_cell_angle_alpha	89.971967
_cell_angle_beta	89.987444
_cell_angle_gamma	83.810574
loop_
_atom_site_label
_atom_site_type_symbol
_atom_site_fract_x
_atom_site_fract_y
_atom_site_fract_z
O1	O	1.665761	0.097556	-0.060648
O2	O	1.300084	0.106850	-0.060640
O3	O	1.493489	0.001142	-0.060600
O4	O	1.472356	0.203264	-0.060689
O5	O	1.493456	0.001136	0.060500
O6	O	1.300051	0.106845	0.060459
O7	O	1.665728	0.097550	0.060451
Zn8	Zn	1.482884	0.102197	0.079682
Zn9	Zn	1.482928	0.102204	-0.079872
O10	O	1.472323	0.203259	0.060410
C11	C	1.253284	0.106165	-0.000089
C12	C	1.113884	0.104123	-0.000084
C13	C	1.492792	-0.024742	-0.000040
C14	C	1.490751	-0.101859	-0.000010
N15	N	1.482864	0.102191	0.188573
C16	C	1.033066	0.166362	-0.000122
C17	C	0.902087	0.164440	-0.000134
C18	C	0.932756	0.038033	-0.000072
C19	C	1.063733	0.039956	-0.000055
C20	C	1.083218	0.230529	-0.000150
C21	C	1.002398	0.292774	-0.000189
C22	C	0.871419	0.290851	-0.000201
C23	C	0.821258	0.226684	-0.000174
C24	C	1.712528	0.098235	-0.000102
C25	C	1.851928	0.100277	-0.000112
C26	C	1.473020	0.229142	-0.000151
C27	C	1.475061	0.306259	-0.000186
C28	C	1.361580	0.350212	-0.000169
C29	C	1.363497	0.422672	-0.000152
C30	C	1.478903	0.451175	-0.000138
C31	C	1.592399	0.407212	-0.000160
C32	C	1.590478	0.334754	-0.000183
C33	C	1.569612	0.560017	0.042325
C34	C	1.571528	0.632474	0.042353
C35	C	1.484832	0.674660	-0.000069
C36	C	1.396198	0.644380	-0.042509
C37	C	1.394277	0.571922	-0.042532
C38	C	1.480998	0.529743	-0.000113
C39	C	1.373422	0.797182	-0.000035
C40	C	1.375345	0.869643	-0.000023
C41	C	1.604250	0.854182	-0.000023
C42	C	1.602324	0.781723	-0.000042
C43	C	1.486907	0.753227	-0.000044
N44	N	1.482958	0.102203	-0.188763
C45	C	1.568532	0.055407	0.226692
C46	C	1.568540	0.055404	0.302919
C47	C	1.482892	0.102197	0.341026
C48	C	1.397208	0.148985	0.302898
C49	C	1.397194	0.148982	0.226672
C50	C	1.466081	0.165375	0.461759
C51	C	1.466104	0.165379	0.537984
C52	C	1.482928	0.102206	0.576133
C53	C	1.499755	0.039027	0.538049
C54	C	1.499741	0.039024	0.461823
C55	C	1.482897	0.102205	0.423681
C56	C	1.568609	0.055415	0.696907
C57	C	1.568608	0.055411	0.773136
C58	C	1.397282	0.148998	0.773113
C59	C	1.397277	0.148996	0.696886
C60	C	1.482947	0.102205	0.658787
H61	H	1.189866	0.232102	-0.000144
H62	H	1.327523	0.187095	0.665848
H63	H	0.891904	-0.014209	-0.000062
Br64	Br	0.643498	0.224076	-0.000176
H65	H	0.805618	0.341534	-0.000226
Br66	Br	1.173423	-0.044513	0.000001
H67	H	1.043248	0.345016	-0.000205
Br68	Br	1.204943	0.311543	-0.000178
Br69	Br	1.209476	0.482335	-0.000128
H70	H	1.686363	0.430424	-0.000162
H71	H	1.325595	0.678727	-0.077048
Br72	Br	1.760875	0.892856	-0.000015
Br73	Br	1.274000	0.530830	-0.100130
H74	H	1.279443	0.773981	-0.000032
H75	H	1.327542	0.187095	0.804139
Br76	Br	1.756343	0.722067	-0.000060
H77	H	1.638286	0.017306	0.195674
H78	H	1.327470	0.187084	0.333928
Br79	Br	1.684811	-0.008095	0.354661
Br80	Br	1.522566	-0.046715	0.410138
Br81	Br	1.687294	0.502772	0.099894
H82	H	1.327432	0.187080	0.195635
Br83	Br	1.522604	-0.046714	0.589814
H84	H	1.643695	0.657122	0.076913
H85	H	1.682891	0.298967	-0.000198
Br86	Br	1.684869	-0.008089	0.645199
H87	H	1.282931	0.905430	-0.000014
H88	H	1.638365	0.017309	0.804173
Br89	Br	1.443281	0.251121	0.589662
Br90	Br	1.443374	0.251120	0.409991
