data_functionalizedCrystal
_audit_creation_method	'MofGen! by Chris Wilmer'
_symmetry_space_group_name_H-M	'P1'
_symmetry_Int_Tables_number	1
_symmetry_cell_setting	triclinic
loop_
_symmetry_equiv_pos_as_xyz
  x,y,z
_cell_length_a	25.639242
_cell_length_b	25.639239
_cell_length_c	18.215399
_cell_angle_alpha	90.030589
_cell_angle_beta	90.028456
_cell_angle_gamma	90.034811
loop_
_atom_site_label
_atom_site_type_symbol
_atom_site_fract_x
_atom_site_fract_y
_atom_site_fract_z
Zn1	Zn	0.799255	-0.208218	0.416272
Zn2	Zn	0.799168	-0.295655	0.293200
Zn3	Zn	0.711822	-0.208228	0.293200
Zn4	Zn	0.711776	-0.295618	0.416206
O5	O	0.755505	-0.251930	0.354719
O6	O	0.872409	-0.219828	0.399973
O7	O	0.787565	-0.284077	0.190215
O8	O	0.723476	-0.135062	0.309554
O9	O	0.872345	-0.284067	0.309552
O10	O	0.787713	-0.135055	0.399974
O11	O	0.723392	-0.219845	0.190216
O12	O	0.638651	-0.219809	0.309490
O13	O	0.723397	-0.284005	0.519199
O14	O	0.638617	-0.284014	0.399862
O15	O	0.787668	-0.219793	0.519247
O16	O	0.787520	-0.368815	0.309489
O17	O	0.723313	-0.368788	0.399861
C18	C	0.619663	-0.251909	0.354670
C19	C	0.561549	-0.251913	0.354666
C20	C	0.201177	-0.285417	0.401731
C21	C	0.146573	-0.285420	0.401743
O22	O	0.118328	-0.313881	0.441718
N23	N	0.119266	-0.251944	0.354767
C24	C	0.146567	-0.218459	0.307783
O25	O	0.118327	-0.189985	0.267828
C26	C	0.201170	-0.218453	0.307775
C27	C	0.228474	-0.251936	0.354748
C28	C	0.228480	-0.318896	0.448701
C29	C	0.283081	-0.318893	0.448689
C30	C	0.310378	-0.285412	0.401706
C31	C	0.283075	-0.251933	0.354736
C32	C	0.228470	-0.184966	0.260795
C33	C	0.283077	-0.184963	0.260792
C34	C	0.310381	-0.218445	0.307765
C35	C	0.364972	-0.218449	0.307740
N36	N	0.392278	-0.251925	0.354716
C37	C	0.364981	-0.285406	0.401698
C38	C	0.031897	-0.218472	0.307802
C39	C	-0.022706	-0.218480	0.307806
C40	C	-0.022697	-0.285441	0.401767
C41	C	0.031907	-0.285435	0.401760
C42	C	0.059203	-0.251948	0.354778
C43	C	0.479646	-0.285399	0.401668
C44	C	0.534252	-0.285395	0.401649
C45	C	0.534238	-0.218432	0.307690
C46	C	0.479637	-0.218438	0.307706
C47	C	0.452343	-0.251923	0.354701
O48	O	0.393251	-0.190001	0.267788
O49	O	0.393228	-0.313871	0.441653
C50	C	0.755416	-0.387772	0.354684
C51	C	0.755426	-0.445886	0.354693
C52	C	0.722067	-0.697078	0.401761
C53	C	0.722047	-0.642474	0.401753
O54	O	0.693598	-0.614236	0.441747
N55	N	0.755491	-0.615160	0.354732
C56	C	0.788961	-0.642454	0.307722
O57	O	0.817407	-0.614207	0.267726
C58	C	0.788983	-0.697057	0.307734
C59	C	0.755532	-0.724368	0.354753
C60	C	0.688620	-0.724389	0.448777
C61	C	0.688638	-0.778990	0.448784
C62	C	0.722104	-0.806279	0.401776
C63	C	0.755551	-0.778968	0.354761
C64	C	0.822454	-0.724349	0.260728
C65	C	0.822473	-0.778956	0.260746
C66	C	0.789023	-0.806267	0.307764
C67	C	0.789036	-0.860859	0.307760
N68	N	0.755592	-0.888172	0.354781
C69	C	0.722126	-0.860883	0.401789
C70	C	0.788914	-0.527783	0.307699
C71	C	0.788890	-0.473181	0.307682
C72	C	0.721977	-0.473205	0.401714
C73	C	0.721998	-0.527808	0.401727
C74	C	0.755469	-0.555097	0.354720
C75	C	0.722168	-0.975548	0.401800
C76	C	0.722188	-1.030153	0.401801
C77	C	0.789103	-1.030124	0.307772
C78	C	0.789081	-0.975524	0.307768
C79	C	0.755611	-0.948237	0.354788
O80	O	0.817472	-0.889131	0.267788
O81	O	0.693690	-0.889136	0.441784
C82	C	0.891878	-0.251951	0.354770
C83	C	0.949992	-0.251960	0.354791
C84	C	0.755537	-0.251894	0.546672
C85	C	0.755551	-0.251878	0.628471
C86	C	0.755609	-0.115557	0.354771
C87	C	0.755654	-0.057443	0.354793
C88	C	0.755504	-0.251928	0.163513
C89	C	0.755592	-0.251796	0.081715
C90	C	0.789029	-0.218412	0.816692
C91	C	0.789035	-0.218397	0.893550
C92	C	0.722110	-0.285264	0.893489
C93	C	0.722102	-0.285276	0.816632
C94	C	0.755564	-0.251851	0.778235
C95	C	0.755579	-0.251823	0.931951
C96	C	0.755585	-0.251807	1.015285
C97	C	0.755557	-0.251866	0.694896
H98	H	0.054118	-0.191203	0.269539
H99	H	0.816348	-1.052353	0.269497
Br100	Br	0.676677	-0.330656	0.764435
H101	H	0.054134	-0.312699	0.440011
H102	H	-0.044932	-0.312702	0.440026
H103	H	0.457430	-0.312664	0.439937
Br104	Br	0.834440	-0.173048	0.764584
Br105	Br	0.676556	-0.436158	0.465509
Br106	Br	0.571303	-0.330840	0.465399
Br107	Br	0.834457	-0.173017	0.945739
H108	H	0.661399	-0.801221	0.487071
Br109	Br	0.320127	-0.364334	0.512445
H110	H	0.694867	-0.312479	0.924761
H111	H	0.206261	-0.346161	0.486964
Br112	Br	0.191430	-0.139520	0.197045
Br113	Br	-0.059754	-0.173046	0.244042
H114	H	0.457406	-0.191175	0.269455
Br115	Br	0.320119	-0.139512	0.197029
Br116	Br	0.571294	-0.172995	0.243930
H117	H	0.694948	-1.052387	0.440092
H118	H	0.694914	-0.953337	0.440089
Br119	Br	0.834340	-0.564812	0.243893
Br120	Br	0.643196	-0.687364	0.512584
H121	H	0.816122	-0.450948	0.269387
Br122	Br	0.676600	-0.564867	0.465540
H123	H	0.849693	-0.702120	0.222442
H124	H	0.816314	-0.953287	0.269474
Br125	Br	0.867903	-0.815988	0.196949
