data_functionalizedCrystal
_audit_creation_method	'MofGen! by Chris Wilmer'
_symmetry_space_group_name_H-M	'P1'
_symmetry_Int_Tables_number	1
_symmetry_cell_setting	triclinic
loop_
_symmetry_equiv_pos_as_xyz
  x,y,z
_cell_length_a	23.096457
_cell_length_b	23.096457
_cell_length_c	23.096457
_cell_angle_alpha	60.008701
_cell_angle_beta	90.011518
_cell_angle_gamma	60.000185
loop_
_atom_site_label
_atom_site_type_symbol
_atom_site_fract_x
_atom_site_fract_y
_atom_site_fract_z
Zr1	Zr	0.557763	0.633740	-0.075976
O2	O	0.465295	0.754526	-0.168417
O3	O	0.586107	0.512954	-0.047641
O4	O	0.586081	0.633742	-0.168427
O5	O	0.465344	0.633736	0.047651
O6	O	0.681361	0.633743	-0.168430
O7	O	0.465321	0.633738	-0.047631
O8	O	0.681407	0.417676	0.047634
O9	O	0.465298	0.849804	-0.168413
O10	O	0.669304	0.562636	-0.035555
O11	O	0.598215	0.562634	0.035556
O12	O	0.598184	0.704846	-0.106654
O13	O	0.527095	0.704844	-0.035543
Zr14	Zr	0.709760	0.633740	0.075983
Zr15	Zr	0.709724	0.633742	-0.075981
Zr16	Zr	0.557799	0.633737	0.075988
Zr17	Zr	0.557767	0.785697	-0.075969
Zr18	Zr	0.709756	0.481782	0.075976
O19	O	0.681416	0.754526	0.047648
O20	O	0.681365	0.754529	-0.168425
O21	O	0.465347	0.754522	0.047656
O22	O	0.802227	0.512954	0.168424
O23	O	0.802176	0.512958	-0.047649
O24	O	0.586158	0.512950	0.168432
O25	O	0.802179	0.633743	-0.047644
O26	O	0.681442	0.633738	0.168434
O27	O	0.586161	0.633736	0.168437
O28	O	0.802202	0.633742	0.047638
O29	O	0.586087	0.849806	-0.168418
O30	O	0.681436	0.417674	0.168425
O31	O	0.802225	0.417676	0.168420
O32	O	0.802196	0.417678	0.047629
O33	O	0.465326	0.849802	-0.047622
O34	O	0.586115	0.849804	-0.047627
O35	O	0.669338	0.562634	0.106661
O36	O	0.740428	0.562636	0.035551
O37	O	0.669308	0.704846	-0.035549
O38	O	0.598218	0.704844	0.035562
C39	C	0.633757	0.443664	-0.000004
C40	C	0.633755	0.379154	-0.000007
C41	C	0.670858	0.348855	-0.037129
C42	C	0.670865	0.288232	-0.037123
C43	C	0.633755	0.257924	-0.000005
C44	C	0.596650	0.288228	0.037124
C45	C	0.596650	0.348843	0.037123
N46	N	0.573349	0.195527	-0.005150
N47	N	0.573351	0.137946	-0.005153
C48	C	0.633754	0.075292	0.000001
N49	N	0.694155	0.072401	0.005145
N50	N	0.694152	0.129989	0.005144
C51	C	0.633751	0.192196	0.000000
C52	C	0.670868	-0.020742	-0.037116
C53	C	0.670877	-0.081369	-0.037105
C54	C	0.596655	-0.081367	0.037138
C55	C	0.596653	-0.020747	0.037132
C56	C	0.633758	0.009564	0.000001
C57	C	0.443681	0.633737	0.000011
C58	C	0.379170	0.633736	0.000013
C59	C	0.385988	0.559506	0.037119
C60	C	0.325372	0.559505	0.037122
C61	C	0.257939	0.633737	0.000005
C62	C	0.251123	0.707977	-0.037103
C63	C	0.311739	0.707976	-0.037099
N64	N	0.135130	0.688994	-0.060404
N65	N	0.077551	0.688989	-0.060406
C66	C	0.075306	0.633745	-0.000007
N67	N	0.132823	0.578492	0.060393
N68	N	0.190408	0.578494	0.060394
C69	C	0.192208	0.633747	-0.000003
C70	C	0.016401	0.559509	0.037106
C71	C	-0.044217	0.559511	0.037111
C72	C	-0.118466	0.707985	-0.037121
C73	C	-0.057848	0.707981	-0.037119
C74	C	0.009583	0.633741	-0.000008
C75	C	0.823842	0.633743	-0.000003
C76	C	0.888353	0.633744	-0.000006
C77	C	0.633716	0.633743	-0.190080
C78	C	0.633701	0.633744	-0.254593
C79	C	0.633766	0.823815	0.000012
C80	C	0.633768	0.888325	0.000014
C81	C	0.596581	0.707974	-0.322009
C82	C	0.596599	0.707975	-0.382626
C83	C	0.633727	0.633742	-0.375821
C84	C	0.670856	0.559503	-0.308392
C85	C	0.670843	0.559504	-0.247778
N86	N	0.628604	0.578486	-0.443379
N87	N	0.628613	0.578490	-0.500963
C88	C	0.633771	0.633735	-0.558447
N89	N	0.638907	0.688988	-0.556178
N90	N	0.638894	0.688986	-0.498590
C91	C	0.633746	0.633733	-0.441543
C92	C	0.596668	0.707971	-0.691593
C93	C	0.596692	0.707969	-0.752209
C94	C	0.670944	0.559495	-0.677974
C95	C	0.670926	0.559499	-0.617360
C96	C	0.633784	0.633739	-0.624174
C97	C	0.633806	0.633737	0.190087
C98	C	0.633822	0.633736	0.254600
C99	C	0.823837	0.443668	-0.000011
C100	C	0.888347	0.379159	-0.000017
C101	C	0.633802	0.443661	0.190079
C102	C	0.633815	0.379150	0.254589
C103	C	0.823882	0.443664	0.190072
C104	C	0.888407	0.379154	0.254580
C105	C	0.443641	0.823815	-0.190065
C106	C	0.379115	0.888325	-0.254573
C107	C	0.443686	0.823812	0.000019
C108	C	0.379176	0.888321	0.000024
C109	C	0.633721	0.823819	-0.190072
C110	C	0.633707	0.888329	-0.254582
C111	C	0.881515	0.348865	-0.037141
C112	C	0.942124	0.288260	-0.037160
C113	C	1.009562	0.257947	-0.000050
C114	C	1.016392	0.288247	0.037076
C115	C	0.955785	0.348854	0.037091
C116	C	0.670948	0.348855	0.322006
C117	C	0.670958	0.288249	0.382626
C118	C	0.633839	0.257934	0.375827
C119	C	0.596703	0.288235	0.308403
C120	C	0.596689	0.348845	0.247784
C121	C	0.955823	0.348861	0.247754
C122	C	1.016458	0.288256	0.308360
C123	C	1.009674	0.257941	0.375791
C124	C	0.942250	0.288240	0.382615
C125	C	0.881618	0.348848	0.322010
C126	C	0.311699	0.918626	-0.247747
C127	C	0.251065	0.979250	-0.308353
C128	C	0.257849	1.009568	-0.375784
C129	C	0.325272	0.979265	-0.382608
C130	C	0.385905	0.918646	-0.322003
C131	C	0.386007	0.918621	0.037142
C132	C	0.325399	0.979242	0.037145
C133	C	0.257960	1.009558	0.000032
C134	C	0.251131	0.979255	-0.037091
C135	C	0.311738	0.918639	-0.037097
C136	C	0.670833	0.918625	-0.247760
C137	C	0.670834	0.979232	-0.308368
C138	C	0.633705	1.009546	-0.375797
C139	C	0.596578	0.979245	-0.382618
C140	C	0.596582	0.918635	-0.322010
H141	H	0.701096	-0.106043	-0.067331
C142	C	-0.036719	0.477856	0.077934
H143	H	-0.082477	0.488487	0.072626
H144	H	-0.011540	0.447353	0.059603
H145	H	-0.011524	0.447355	0.126769
H146	H	0.633707	1.058899	-0.425142
C147	C	0.191297	1.076231	0.000045
H148	H	0.150151	1.089954	-0.027377
H149	H	0.191312	1.056359	0.047337
H150	H	0.191297	1.123522	-0.019829
C151	C	0.555857	0.789626	-0.826370
H152	H	0.533731	0.833838	-0.821743
H153	H	0.587896	0.792719	-0.851548
H154	H	0.520737	0.792705	-0.851569
H155	H	0.936738	0.263548	0.437525
C156	C	0.807341	0.382203	-0.077971
H157	H	0.811963	0.355481	-0.100087
H158	H	0.782155	0.372267	-0.045937
H159	H	0.782149	0.439432	-0.113093
H160	H	0.961357	0.373512	0.067326
C161	C	-0.192635	0.789640	-0.077947
H162	H	-0.227760	0.779011	-0.072638
H163	H	-0.197947	0.820140	-0.059614
H164	H	-0.197961	0.820142	-0.126781
H165	H	0.566435	0.263546	0.067347
H166	H	1.058907	0.208596	-0.000067
H167	H	0.306166	0.893970	-0.067322
C168	C	0.191149	1.076237	-0.442443
H169	H	0.150029	1.089928	-0.428714
H170	H	0.191127	1.123537	-0.469872
H171	H	0.191135	1.056361	-0.469860
C172	C	0.555835	-0.114700	0.077967
H173	H	0.561145	-0.155137	0.072649
H174	H	0.574174	-0.138342	0.126797
H175	H	0.506996	-0.071183	0.059634
C176	C	0.460060	0.885290	-0.329516
H177	H	0.495205	0.844841	-0.283768
H178	H	0.465338	0.861657	-0.354708
H179	H	0.465390	0.928794	-0.354701
H180	H	0.196172	1.003913	-0.302783
C181	C	0.332725	1.012614	-0.456783
H182	H	0.286956	1.053048	-0.491894
H183	H	0.357910	1.036264	-0.462114
H184	H	0.357898	0.969100	-0.462107
H185	H	1.059051	0.208589	0.425134
H186	H	0.566340	0.768426	-0.327564
C187	C	1.090576	0.254890	0.077901
H188	H	1.125688	0.214449	0.072578
H189	H	1.095905	0.298392	0.059584
H190	H	1.095907	0.231229	0.126738
H191	H	0.961360	0.373535	0.192854
C192	C	0.332921	1.012567	0.077980
H193	H	0.287170	1.053019	0.072664
H194	H	0.358115	0.969052	0.126810
H195	H	0.358111	1.036206	0.059646
C196	C	0.934598	0.254933	-0.077992
H197	H	0.885753	0.281659	-0.100078
H198	H	0.956681	0.264871	-0.113127
H199	H	0.956708	0.197703	-0.045953
H200	H	0.440914	0.893943	0.067369
H201	H	0.196214	1.003948	-0.067308
H202	H	0.701068	0.893952	-0.192861
C203	C	0.555830	0.012594	0.077956
H204	H	0.533723	-0.014133	0.100059
H205	H	0.587872	0.002664	0.113078
H206	H	0.520695	0.069822	0.045913
C207	C	0.555733	1.012604	-0.456791
H208	H	0.561045	1.053046	-0.491904
H209	H	0.574049	0.969102	-0.462126
H210	H	0.506895	1.036263	-0.462108
H211	H	0.701066	1.003896	-0.302801
H212	H	0.701073	0.373531	-0.067361
C213	C	0.711676	0.254900	-0.077963
H214	H	0.733770	0.281638	-0.100080
H215	H	0.746807	0.197675	-0.045932
H216	H	0.679619	0.264842	-0.113085
C217	C	0.555731	0.885326	-0.329523
H218	H	0.533614	0.912072	-0.378363
H219	H	0.587760	0.828101	-0.307427
H220	H	0.520604	0.895276	-0.307426
H221	H	0.566434	0.373513	0.067352
H222	H	0.701084	0.003936	-0.067347
H223	H	0.826727	0.373505	0.327577
H224	H	0.440889	0.499053	0.067334
C225	C	0.332867	0.477849	0.077937
H226	H	0.381707	0.433635	0.100036
H227	H	0.310769	0.474758	0.113060
H228	H	0.310756	0.474773	0.045886
C229	C	0.555885	0.254875	0.300933
H230	H	0.561224	0.214432	0.346694
H231	H	0.507045	0.298375	0.275752
H232	H	0.574221	0.231216	0.275755
H233	H	0.701176	0.499053	-0.672432
C234	C	0.304223	0.885295	-0.173581
H235	H	0.255385	0.912039	-0.178206
H236	H	0.326324	0.828071	-0.148389
H237	H	0.326336	0.895236	-0.148398
H238	H	0.306181	0.768425	-0.067314
C239	C	0.176950	0.789631	-0.077932
H240	H	0.141826	0.779001	-0.072626
H241	H	0.171634	0.820133	-0.059600
H242	H	0.171628	0.820131	-0.126766
H243	H	0.701174	0.373530	0.327556
C244	C	0.555846	0.382158	0.173629
H245	H	0.533750	0.355414	0.178269
H246	H	0.520715	0.439383	0.148433
H247	H	0.587883	0.372210	0.148442
C248	C	0.090575	0.477849	0.077939
H249	H	0.085952	0.433639	0.100050
H250	H	0.115763	0.474756	0.045907
H251	H	0.115764	0.474770	0.113066
H252	H	1.071351	0.263592	0.302791
H253	H	-0.063403	0.768427	-0.067340
H254	H	0.566369	0.768424	-0.437527
C255	C	0.711694	0.477849	-0.300906
H256	H	0.706379	0.488479	-0.346661
H257	H	0.760527	0.447346	-0.275710
H258	H	0.693359	0.447349	-0.275735
H259	H	0.701071	0.499055	-0.192882
H260	H	0.566426	0.768422	-0.697143
C261	C	0.711817	0.254921	0.456783
H262	H	0.733930	0.281649	0.452145
H263	H	0.679793	0.264859	0.481980
H264	H	0.746949	0.197692	0.481969
H265	H	0.701150	0.499053	-0.562465
C266	C	0.633865	0.191260	0.442511
H267	H	0.661303	0.177558	0.483634
H268	H	0.586579	0.211118	0.442526
H269	H	0.653745	0.143960	0.442518
