data_functionalizedCrystal
_audit_creation_method	'MofGen! by Chris Wilmer'
_symmetry_space_group_name_H-M	'P1'
_symmetry_Int_Tables_number	1
_symmetry_cell_setting	triclinic
loop_
_symmetry_equiv_pos_as_xyz
  x,y,z
_cell_length_a	6.394989
_cell_length_b	10.723024
_cell_length_c	9.798715
_cell_angle_alpha	90.003391
_cell_angle_beta	90.000171
_cell_angle_gamma	85.482790
loop_
_atom_site_label
_atom_site_type_symbol
_atom_site_fract_x
_atom_site_fract_y
_atom_site_fract_z
O1	O	-0.293022	-1.660297	-0.113473
O2	O	-0.321070	-1.297442	-0.113476
O3	O	-0.003055	-1.484020	-0.113475
O4	O	-0.611036	-1.473719	-0.113474
O5	O	-0.003054	-1.484006	0.113507
O6	O	-0.321069	-1.297428	0.113506
O7	O	-0.293021	-1.660283	0.113510
Zn8	Zn	-0.307045	-1.478853	0.149546
Zn9	Zn	-0.307046	-1.478872	-0.149513
O10	O	-0.611035	-1.473705	0.113509
C11	C	-0.319028	-1.250914	0.000014
C12	C	-0.312921	-1.112295	0.000012
C13	C	-0.295062	-1.706811	0.000016
C14	C	-0.301169	-1.845430	0.000009
N15	N	-0.307043	-1.478850	0.353646
C16	C	0.074796	-1.481977	0.000011
C17	C	0.311120	-1.475752	0.000009
N18	N	-0.307031	-1.478885	-0.353612
C19	C	-0.490865	-1.039201	0.000012
C20	C	-0.484558	-0.895931	0.000010
C21	C	-0.172929	-1.557182	0.421423
C22	C	-0.172922	-1.557202	0.578586
H23	H	-0.647879	-1.082689	0.000020
C24	C	-0.698363	-0.735534	-0.116675
C25	C	-0.690216	-0.811139	0.000008
H26	H	-0.825327	-0.683182	-0.116669
H27	H	-0.692818	-0.786845	-0.195811
H28	H	-0.582480	-0.685286	-0.116662
H29	H	-0.806091	-0.861395	-0.000009
H30	H	-0.695781	-0.759823	0.079165
C31	C	0.187784	-1.624194	0.377059
C32	C	-0.017970	-1.647700	0.342663
H33	H	0.283434	-1.680075	0.328420
H34	H	0.208159	-1.636110	0.472329
H35	H	0.211304	-1.540458	0.353733
H36	H	-0.041495	-1.731434	0.365999
H37	H	-0.038354	-1.635795	0.247372
C38	C	-0.586059	-1.315937	0.660479
C39	C	-0.462057	-1.388345	0.567725
H40	H	-0.681772	-1.260048	0.611905
H41	H	-0.498720	-1.269482	0.716214
H42	H	-0.661811	-1.369178	0.716207
H43	H	-0.386293	-1.335104	0.512003
H44	H	-0.549408	-1.434803	0.511966
C45	C	-0.087358	-1.005835	-0.116673
C46	C	-0.095503	-0.930215	0.000008
H47	H	0.039606	-1.058188	-0.116666
H48	H	-0.092902	-0.954535	-0.195811
H49	H	-0.203241	-1.056083	-0.116658
H50	H	0.020372	-0.879960	-0.000011
H51	H	-0.089939	-0.981520	0.079167
C52	C	-0.052618	-1.771148	0.622797
C53	C	-0.017905	-1.647740	0.657258
H54	H	0.043082	-1.827041	0.671375
H55	H	-0.032280	-1.783003	0.527514
H56	H	-0.192194	-1.787098	0.646154
H57	H	0.121668	-1.631787	0.633892
H58	H	-0.038225	-1.635880	0.752562
H59	H	-0.155907	-1.068806	-0.000023
H60	H	-0.421850	-1.411796	0.411970
