data_functionalizedCrystal
_audit_creation_method	'MofGen! by Chris Wilmer'
_symmetry_space_group_name_H-M	'P1'
_symmetry_Int_Tables_number	1
_symmetry_cell_setting	triclinic
loop_
_symmetry_equiv_pos_as_xyz
  x,y,z
_cell_length_a	10.540539
_cell_length_b	12.837943
_cell_length_c	11.295657
_cell_angle_alpha	94.161228
_cell_angle_beta	85.443049
_cell_angle_gamma	90.322784
loop_
_atom_site_label
_atom_site_type_symbol
_atom_site_fract_x
_atom_site_fract_y
_atom_site_fract_z
O1	O	0.321895	-1.371613	0.098990
O2	O	0.305578	-1.069686	0.098998
O3	O	0.129787	-1.227538	0.098992
O4	O	0.497686	-1.213761	0.098996
O5	O	0.146564	-1.240101	-0.099053
O6	O	0.322356	-1.082249	-0.099047
O7	O	0.338672	-1.384176	-0.099055
Cu8	Cu	0.332046	-1.234359	-0.117134
Cu9	Cu	0.312205	-1.219502	0.117077
O10	O	0.514464	-1.226324	-0.099049
C11	C	0.090759	-1.232786	-0.000028
C12	C	-0.050529	-1.229694	-0.000022
C13	C	0.308455	-1.037306	-0.000024
C14	C	0.292017	-0.922107	-0.000021
C15	C	0.335795	-1.416555	-0.000031
C16	C	0.352233	-1.531754	-0.000026
C17	C	-0.247007	-1.111223	0.000426
C18	C	-0.100007	-1.114385	-0.000020
C19	C	-0.096509	-1.292361	-0.113116
C20	C	-0.243478	-1.288431	-0.113212
C21	C	-0.262818	-1.276490	0.112003
C22	C	-0.115846	-1.277457	0.113498
C23	C	0.553491	-1.221075	-0.000026
C24	C	0.694779	-1.224166	-0.000025
N25	N	0.346001	-1.244817	-0.281866
C26	C	0.489637	-0.682612	-0.000036
C27	C	0.474197	-0.574372	-0.000034
C28	C	0.245700	-0.597385	-0.000023
C29	C	0.261140	-0.705625	-0.000025
C30	C	0.383112	-0.748234	-0.000030
C31	C	0.398549	-0.856476	-0.000023
C32	C	0.170054	-0.879487	-0.000021
C33	C	0.154615	-0.771247	-0.000019
C34	C	0.197698	-1.133668	-0.531206
C35	C	0.208255	-1.141594	-0.655866
C36	C	0.377677	-1.268588	-0.655848
C37	C	0.367120	-1.260662	-0.531188
C38	C	0.277127	-1.193201	-0.468871
C39	C	0.266565	-1.185281	-0.344209
C40	C	0.435992	-1.312269	-0.344193
C41	C	0.446549	-1.320195	-0.468853
N42	N	0.298240	-1.209053	0.281809
H43	H	-0.069068	-1.065578	0.081051
C44	C	0.120876	-1.076104	-0.724430
N45	N	0.055058	-1.026773	-0.776072
C46	C	0.476668	-1.342784	-0.724418
N47	N	0.551229	-1.398670	-0.776066
H48	H	-0.275366	-1.070974	-0.080220
C49	C	0.111542	-0.550495	-0.000031
N50	N	0.010493	-0.515176	-0.000038
H51	H	0.055309	-0.736540	-0.000029
H52	H	-0.287482	-1.060529	0.081528
C53	C	-0.040823	-1.061946	-0.109726
N54	N	0.003753	-1.022448	-0.192363
C55	C	0.545534	-1.394402	-0.537416
N56	N	0.620087	-1.450299	-0.589056
C57	C	0.523374	-1.377756	-0.275615
N58	N	0.589188	-1.427079	-0.223961
H59	H	0.588951	-0.717305	-0.000038
H60	H	-0.086536	-1.231547	0.197162
C61	C	0.052869	-0.951681	-0.000011
N62	N	-0.035393	-1.006057	-0.000000
H63	H	0.124416	-1.078744	-0.480467
C64	C	-0.314351	-1.388939	0.113033
N65	N	-0.353174	-1.473632	0.113802
C66	C	0.167574	-1.111070	-0.275662
N67	N	0.093016	-1.055169	-0.224037
C68	C	-0.277989	-1.240259	-0.227412
N69	N	-0.303977	-1.203971	-0.313428
C70	C	-0.295387	-1.400903	-0.120164
N71	N	-0.334479	-1.485615	-0.125409
H72	H	-0.064495	-1.377307	-0.117323
H73	H	0.560942	-0.520946	-0.000042
H74	H	-0.051015	-1.259151	-0.197276
H75	H	-0.305733	-1.233733	0.197721
H76	H	-0.082967	-1.361093	0.120325
H77	H	0.497865	-0.891167	-0.000029
