data_functionalizedCrystal
_audit_creation_method	'MofGen! by Chris Wilmer'
_symmetry_space_group_name_H-M	'P1'
_symmetry_Int_Tables_number	1
_symmetry_cell_setting	triclinic
loop_
_symmetry_equiv_pos_as_xyz
  x,y,z
_cell_length_a	23.532355
_cell_length_b	18.366186
_cell_length_c	19.288865
_cell_angle_alpha	89.993214
_cell_angle_beta	97.018127
_cell_angle_gamma	90.000539
loop_
_atom_site_label
_atom_site_type_symbol
_atom_site_fract_x
_atom_site_fract_y
_atom_site_fract_z
O1	O	0.755455	0.060459	-0.084143
O2	O	1.255455	0.560459	0.415857
O3	O	0.589613	0.060483	-0.096381
O4	O	1.089613	0.560483	0.403619
O5	O	0.677326	0.060456	0.010884
O6	O	1.177326	0.560456	0.510884
O7	O	0.667742	0.060486	-0.191408
O8	O	1.167742	0.560486	0.308592
O9	O	0.677315	-0.060644	0.010881
O10	O	1.177315	0.439356	0.510881
O11	O	0.589601	-0.060616	-0.096385
O12	O	1.089601	0.439384	0.403615
O13	O	0.755444	-0.060641	-0.084147
O14	O	1.255444	0.439359	0.415853
Zn15	Zn	0.672521	-0.079856	-0.090266
Zn16	Zn	1.172521	0.420144	0.409734
Zn17	Zn	0.672536	0.079698	-0.090261
Zn18	Zn	1.172536	0.579698	0.409739
O19	O	0.667731	-0.060613	-0.191412
O20	O	1.167731	0.439387	0.308588
C21	C	0.568390	-0.000064	-0.096077
C22	C	1.068390	0.499936	0.403923
C23	C	0.505169	-0.000055	-0.095157
C24	C	1.005169	0.499945	0.404843
N25	N	0.672515	-0.188747	-0.090269
N26	N	1.172515	0.311253	0.409731
C27	C	0.706978	-0.773295	-0.132153
C28	C	1.206978	-0.273295	0.367847
C29	C	0.706972	-0.697067	-0.132160
C30	C	1.206972	-0.197067	0.367840
C31	C	0.672541	-0.658958	-0.090254
C32	C	1.172541	-0.158958	0.409746
C33	C	0.638103	-0.697083	-0.048351
C34	C	1.138103	-0.197083	0.451649
C35	C	0.638105	-0.773309	-0.048351
C36	C	1.138105	-0.273309	0.451649
C37	C	0.671125	-0.538201	-0.027634
C38	C	1.171125	-0.038201	0.472366
C39	C	0.671127	-0.461976	-0.027633
C40	C	1.171127	0.038024	0.472367
C41	C	0.672530	-0.423850	-0.090255
C42	C	1.172530	0.076150	0.409745
C43	C	0.673943	-0.461960	-0.152880
C44	C	1.173943	0.038040	0.347120
C45	C	0.673946	-0.538186	-0.152880
C46	C	1.173946	-0.038186	0.347120
C47	C	0.672534	-0.576303	-0.090250
C48	C	1.172534	-0.076303	0.409750
C49	C	0.706957	-0.303080	-0.132166
C50	C	1.206957	0.196920	0.367834
C51	C	0.706947	-0.226851	-0.132175
C52	C	1.206947	0.273149	0.367825
C53	C	0.638081	-0.226868	-0.048360
C54	C	1.138081	0.273132	0.451640
C55	C	0.638087	-0.303096	-0.048358
C56	C	1.138087	0.196904	0.451642
C57	C	0.672528	-0.341197	-0.090260
C58	C	1.172528	0.158803	0.409740
C59	C	0.113137	-0.066098	-0.089380
C60	C	0.613137	0.433902	0.410620
C61	C	0.053736	-0.066101	-0.088505
C62	C	0.553736	0.433899	0.411495
O63	O	0.023011	-0.122240	-0.088031
O64	O	0.523011	0.377760	0.411969
N65	N	0.024033	-0.000090	-0.088070
N66	N	0.524033	0.499910	0.411930
C67	C	0.053735	0.065929	-0.088502
C68	C	0.553735	0.565929	0.411498
O69	O	0.023016	0.122076	-0.088050
O70	O	0.523016	0.622076	0.411950
C71	C	0.113136	0.065931	-0.089372
C72	C	0.613136	0.565931	0.410628
C73	C	0.142835	-0.000084	-0.089815
C74	C	0.642835	0.499916	0.410185
C75	C	0.142837	-0.132108	-0.089823
C76	C	0.642837	0.367892	0.410177
C77	C	0.202234	-0.132104	-0.090699
C78	C	0.702234	0.367896	0.409301
C79	C	0.231931	-0.066091	-0.091133
C80	C	0.731931	0.433909	0.408867
C81	C	0.202232	-0.000081	-0.090691
C82	C	0.702232	0.499919	0.409309
C83	C	0.142837	0.131948	-0.089799
C84	C	0.642837	0.631948	0.410201
C85	C	0.202242	0.131945	-0.090668
C86	C	0.702242	0.631945	0.409332
C87	C	0.231941	0.065930	-0.091111
C88	C	0.731941	0.565930	0.408889
C89	C	0.291326	0.065935	-0.092001
C90	C	0.791326	0.565935	0.407999
N91	N	0.321030	-0.000076	-0.092437
N92	N	0.821030	0.499924	0.407563
C93	C	0.291332	-0.066089	-0.092003
C94	C	0.791332	0.433911	0.407997
C95	C	-0.071010	0.065919	-0.086673
C96	C	0.428990	0.565919	0.413327
C97	C	-0.130411	0.065918	-0.085808
C98	C	0.369589	0.565918	0.414192
C99	C	-0.130405	-0.066112	-0.085811
C100	C	0.369595	0.433888	0.414189
C101	C	-0.071004	-0.066110	-0.086681
C102	C	0.428996	0.433890	0.413319
C103	C	-0.041307	-0.000092	-0.087109
C104	C	0.458693	0.499908	0.412891
C105	C	0.416070	-0.066077	-0.093844
C106	C	0.916070	0.433923	0.406156
C107	C	0.475472	-0.066068	-0.094723
C108	C	0.975472	0.433932	0.405277
C109	C	0.475462	0.065961	-0.094717
C110	C	0.975462	0.565961	0.405283
C111	C	0.416064	0.065952	-0.093841
C112	C	0.916064	0.565952	0.406159
C113	C	0.386370	-0.000073	-0.093402
C114	C	0.886370	0.499927	0.406598
O115	O	0.322089	0.122046	-0.092473
O116	O	0.822089	0.622046	0.407527
O117	O	0.322060	-0.122227	-0.092446
O118	O	0.822060	0.377773	0.407554
C119	C	0.776667	-0.000092	-0.084451
C120	C	1.276667	0.499908	0.415549
C121	C	0.839887	-0.000096	-0.085370
C122	C	1.339887	0.499904	0.414630
C123	C	0.677012	-0.000096	0.036758
C124	C	1.177012	0.499904	0.536758
C125	C	0.676086	-0.000102	0.113858
C126	C	1.176086	0.499898	0.613858
N127	N	0.672546	0.188589	-0.090253
N128	N	1.172546	0.688589	0.409747
C129	C	0.668045	-0.000060	-0.217285
C130	C	1.168045	0.499940	0.282715
C131	C	0.668970	-0.000049	-0.294386
C132	C	1.168970	0.499951	0.205614
C133	C	0.727552	-0.000113	0.158725
C134	C	1.227552	0.499887	0.658725
C135	C	0.726683	-0.000102	0.231169
C136	C	1.226683	0.499898	0.731169
C137	C	0.674344	-0.000094	0.258743
C138	C	1.174344	0.499906	0.758743
C139	C	0.622871	-0.000078	0.213867
C140	C	1.122871	0.499922	0.713867
C141	C	0.623742	-0.000083	0.141424
C142	C	1.123742	0.499917	0.641424
C143	C	0.633196	-0.042506	0.366893
C144	C	1.133196	0.457494	0.866893
C145	C	0.632327	-0.042506	0.439335
C146	C	1.132327	0.457494	0.939335
C147	C	0.671655	-0.000077	0.482180
C148	C	1.171655	0.499923	0.982180
C149	C	0.711862	0.042343	0.452576
C150	C	1.211862	0.542343	0.952576
C151	C	0.712733	0.042339	0.380134
C152	C	1.212733	0.542339	0.880134
C153	C	0.673393	-0.000088	0.337294
C154	C	1.173393	0.499912	0.837294
C155	C	0.722181	-0.000074	0.605600
C156	C	1.222181	0.499926	1.105600
C157	C	0.721310	-0.000058	0.678045
C158	C	1.221310	0.499942	1.178045
C159	C	0.617496	-0.000042	0.660741
C160	C	1.117496	0.499958	1.160741
C161	C	0.618370	-0.000051	0.588297
C162	C	1.118370	0.499949	1.088297
C163	C	0.670714	-0.000070	0.560731
C164	C	1.170714	0.499930	1.060731
H165	H	0.735021	-0.804312	-0.166274
H166	H	1.235021	-0.304312	0.333726
H167	H	0.734998	-0.334104	-0.166289
H168	H	1.234998	0.165896	0.333711
F169	F	0.743627	-0.656493	-0.176749
F170	F	1.243627	-0.156493	0.323251
F171	F	0.233844	0.202212	-0.091122
F172	F	0.733844	0.702212	0.408878
F173	F	0.589537	-0.087656	0.470835
F174	F	1.089537	0.412344	0.970835
H175	H	0.601168	-0.077061	0.332014
H176	H	1.101168	0.422939	0.832014
H177	H	0.610066	-0.804343	-0.014230
H178	H	1.110066	-0.304343	0.485770
F179	F	0.669632	-0.578769	0.039022
F180	F	1.169632	-0.078769	0.539022
H181	H	0.743886	0.076894	0.487460
H182	H	1.243886	0.576894	0.987460
F183	F	-0.039410	0.136189	-0.087136
F184	F	0.460590	0.636189	0.412864
H185	H	0.675095	-0.569211	-0.203871
H186	H	1.175095	-0.069211	0.296129
F187	F	0.601433	-0.186314	-0.003764
F188	F	1.101433	0.313686	0.496236
F189	F	0.675439	-0.421391	-0.219533
F190	F	1.175439	0.078609	0.280467
F191	F	0.601457	-0.656524	-0.003754
F192	F	1.101457	-0.156524	0.496246
F193	F	0.384476	-0.136348	-0.093376
F194	F	0.884476	0.363652	0.406624
H195	H	0.768594	-0.000108	0.267707
H196	H	1.268594	0.499892	0.767707
F197	F	0.755520	0.087487	0.348629
F198	F	1.255520	0.587487	0.848629
F199	F	0.601442	-0.343663	-0.003759
F200	F	1.101442	0.156337	0.496241
H201	H	0.763221	-0.000063	0.714575
H202	H	1.263221	0.499937	1.214575
H203	H	0.764803	-0.000087	0.583154
H204	H	1.264803	0.499913	1.083154
F205	F	-0.162021	-0.136370	-0.085347
F206	F	0.337979	0.363630	0.414653
F207	F	0.233835	-0.202367	-0.091167
F208	F	0.733835	0.297633	0.408833
H209	H	0.734984	-0.195818	-0.166299
H210	H	1.234984	0.304182	0.333701
H211	H	0.574881	-0.000032	0.683191
H212	H	1.074881	0.499968	1.183191
H213	H	0.669980	-0.430953	0.023361
H214	H	1.169980	0.069047	0.523361
F215	F	0.783262	-0.000118	0.129392
F216	F	1.283262	0.499882	0.629392
F217	F	0.507077	-0.136334	-0.095197
F218	F	1.007077	0.363666	0.404803
F219	F	-0.162014	0.136180	-0.085350
F220	F	0.337986	0.636180	0.414650
H221	H	0.118664	-0.185866	-0.089468
H222	H	0.618664	0.314134	0.410532
F223	F	-0.039401	-0.136371	-0.087151
F224	F	0.460599	0.363629	0.412849
F225	F	0.111242	0.202212	-0.089326
F226	F	0.611242	0.702212	0.410674
H227	H	0.580256	-0.000070	0.236322
H228	H	1.080256	0.499930	0.736322
H229	H	0.391881	0.119707	-0.093492
H230	H	0.891881	0.619707	0.406508
F231	F	0.507078	0.136213	-0.095177
F232	F	1.007078	0.636213	0.404823
F233	F	0.568962	-0.000070	0.093672
F234	F	1.068962	0.499930	0.593672
F235	F	0.563592	-0.000042	0.540545
F236	F	1.063592	0.499958	1.040545
