data_functionalizedCrystal
_audit_creation_method	'MofGen! by Chris Wilmer'
_symmetry_space_group_name_H-M	'P1'
_symmetry_Int_Tables_number	1
_symmetry_cell_setting	triclinic
loop_
_symmetry_equiv_pos_as_xyz
  x,y,z
_cell_length_a	14.044220
_cell_length_b	16.974800
_cell_length_c	16.053802
_cell_angle_alpha	91.074188
_cell_angle_beta	87.198230
_cell_angle_gamma	91.720658
loop_
_atom_site_label
_atom_site_type_symbol
_atom_site_fract_x
_atom_site_fract_y
_atom_site_fract_z
O1	O	-0.120850	1.057573	0.002057
O2	O	-0.135363	0.829132	-0.013385
O3	O	0.009887	0.939924	-0.005892
O4	O	-0.266099	0.946782	-0.005436
O5	O	0.001925	0.933823	0.132554
O6	O	-0.143325	0.823032	0.125061
O7	O	-0.128812	1.051473	0.140504
Zn8	Zn	-0.137332	0.936284	0.154764
Zn9	Zn	-0.126842	0.944321	-0.027645
O10	O	-0.274061	0.940681	0.133010
C11	C	-0.138646	0.796670	0.053850
C12	C	-0.136555	0.709030	0.047925
C13	C	-0.139911	0.664536	0.120611
C14	C	-0.137932	0.582190	0.115047
C15	C	-0.132604	0.544339	0.036796
C16	C	-0.129245	0.588839	-0.035895
C17	C	-0.131217	0.671184	-0.030330
C18	C	-0.126233	0.298420	0.012060
C19	C	-0.124263	0.216069	0.006500
C20	C	-0.132948	0.209426	0.157443
C21	C	-0.134926	0.291772	0.163001
C22	C	-0.131562	0.336265	0.090310
N23	N	-0.130583	0.460168	0.031106
N24	N	-0.133576	0.420435	0.096000
C25	C	-0.305402	0.946733	0.063989
C26	C	-0.410650	0.955688	0.064591
C27	C	-0.603353	0.972058	0.065702
C28	C	-0.660827	0.908551	0.061409
C29	C	-0.768053	0.917660	0.062027
C30	C	-0.496117	0.962950	0.065084
C31	C	0.041228	0.933872	0.063127
C32	C	0.146476	0.924918	0.062519
C33	C	-0.125529	1.083935	0.073267
C34	C	-0.127619	1.171575	0.079186
N35	N	-0.144491	0.930804	0.279253
N36	N	-0.119676	0.949807	-0.152135
C37	C	-0.082709	0.977966	0.326137
C38	C	-0.087726	0.974141	0.413285
C39	C	-0.154530	0.923157	0.453548
C40	C	-0.216314	0.875989	0.406658
C41	C	-0.211292	0.879811	0.319511
C42	C	-0.176439	0.906461	0.713828
C43	C	-0.181458	0.902645	0.800982
C44	C	-0.052868	1.000796	0.807603
C45	C	-0.047856	1.004616	0.720454
C46	C	-0.109637	0.957446	0.673571
N47	N	-0.159661	0.919247	0.542627
N48	N	-0.104500	0.961352	0.584493
H49	H	-0.119927	0.185254	-0.057224
F50	F	0.023243	1.058879	0.677605
F51	F	-0.127642	0.718538	-0.107693
F52	F	-0.644295	1.052059	0.071113
F53	F	-0.277047	0.829611	0.269615
F54	F	-0.122653	0.345763	-0.065306
F55	F	-0.123545	0.548554	-0.119176
H56	H	-0.235861	0.861125	0.833759
H57	H	-0.629502	0.847341	0.057272
H58	H	-0.028315	1.019486	0.293361
F59	F	-0.021970	1.024335	0.463182
F60	F	0.012882	1.050993	0.857503
F61	F	-0.287408	0.821723	0.449509
H62	H	-0.140649	0.545966	0.174235
F63	F	-0.145588	0.704812	0.203897
F64	F	-0.140602	0.332050	0.246286
F65	F	-0.242193	0.856261	0.663939
H66	H	-0.135685	0.173191	0.216623
