data_functionalizedCrystal
_audit_creation_method	'MofGen! by Chris Wilmer'
_symmetry_space_group_name_H-M	'P1'
_symmetry_Int_Tables_number	1
_symmetry_cell_setting	triclinic
loop_
_symmetry_equiv_pos_as_xyz
  x,y,z
_cell_length_a	12.827893
_cell_length_b	13.032721
_cell_length_c	12.827885
_cell_angle_alpha	97.148846
_cell_angle_beta	89.980728
_cell_angle_gamma	97.204267
loop_
_atom_site_label
_atom_site_type_symbol
_atom_site_fract_x
_atom_site_fract_y
_atom_site_fract_z
Zn1	Zn	1.544798	-0.415985	-0.643643
Zn2	Zn	2.044798	0.084015	-0.143643
Zn3	Zn	1.522478	-0.590764	-0.491086
Zn4	Zn	2.022478	-0.090764	0.008914
Zn5	Zn	1.370033	-0.416036	-0.468924
Zn6	Zn	1.870033	0.083964	0.031076
Zn7	Zn	1.347821	-0.590686	-0.665776
Zn8	Zn	1.847821	-0.090686	-0.165776
O9	O	1.446283	-0.503368	-0.567357
O10	O	1.946283	-0.003368	-0.067357
O11	O	1.688072	-0.439181	-0.623419
O12	O	2.188072	0.060819	-0.123419
O13	O	1.502211	-0.567641	-0.341917
O14	O	2.002211	-0.067641	0.158083
O15	O	1.411853	-0.269792	-0.473563
O16	O	1.911853	0.230208	0.026437
O17	O	1.671674	-0.567591	-0.511335
O18	O	2.171674	-0.067591	-0.011335
O19	O	1.540253	-0.269754	-0.601929
O20	O	2.040253	0.230246	-0.101929
O21	O	1.390210	-0.439269	-0.325634
O22	O	1.890210	0.060731	0.174366
O23	O	1.220852	-0.439193	-0.495024
O24	O	1.720852	0.060807	0.004976
O25	O	1.373995	-0.567457	-0.809069
O26	O	1.873995	-0.067457	-0.309069
O27	O	1.204533	-0.567507	-0.639651
O28	O	1.704533	-0.067507	-0.139651
O29	O	1.518714	-0.439105	-0.792809
O30	O	2.018714	0.060895	-0.292809
O31	O	1.480673	-0.736991	-0.532796
O32	O	1.980673	-0.236991	-0.032796
O33	O	1.352352	-0.736934	-0.661140
O34	O	1.852352	-0.236934	-0.161140
C35	C	1.174775	-0.503348	-0.567335
C36	C	1.674775	-0.003348	-0.067335
C37	C	1.058620	-0.503364	-0.567353
C38	C	1.558620	-0.003364	-0.067353
C39	C	0.998775	-0.566958	-0.638834
C40	C	1.498775	-0.066958	-0.138834
C41	C	0.878722	-0.566976	-0.638854
C42	C	1.378722	-0.066976	-0.138854
C43	C	1.411708	-0.774880	-0.601798
C44	C	1.911708	-0.274880	-0.101798
C45	C	1.397013	-0.891034	-0.616566
C46	C	1.897013	-0.391034	-0.116566
C47	C	1.454008	-0.942814	-0.559696
C48	C	1.954008	-0.442814	-0.059696
C49	C	1.438821	-1.062865	-0.574959
C50	C	1.938821	-0.562865	-0.074959
C51	C	1.718850	-0.503389	-0.567380
C52	C	2.218850	-0.003389	-0.067380
C53	C	1.835002	-0.503398	-0.567390
C54	C	2.335002	-0.003398	-0.067390
C55	C	1.446367	-0.503267	-0.839915
C56	C	1.946367	-0.003267	-0.339915
C57	C	1.446402	-0.503224	-0.956062
C58	C	1.946402	-0.003224	-0.456062
C59	C	1.481020	-0.230795	-0.532805
C60	C	1.981020	0.269205	-0.032805
C61	C	1.495824	-0.114641	-0.518081
C62	C	1.995824	0.385359	-0.018081
C63	C	1.501834	-0.566720	-1.015901
C64	C	2.001834	-0.066720	-0.515901
C65	C	1.501872	-0.566677	-1.135946
C66	C	2.001872	-0.066677	-0.635946
C67	C	1.446269	-0.503393	-0.295850
C68	C	1.946269	-0.003393	0.204150
C69	C	1.446473	-0.503142	-0.179666
C70	C	1.946473	-0.003142	0.320334
H71	H	1.020978	-0.448930	-0.506175
H72	H	1.520978	0.051070	-0.006175
O73	O	1.525491	-0.889630	-0.488011
O74	O	2.025491	-0.389630	0.011989
C75	C	1.473951	-0.826574	-0.412524
C76	C	1.973951	-0.326574	0.087476
H77	H	1.387501	-0.859609	-0.410166
H78	H	1.887501	-0.359609	0.089834
H79	H	1.511956	-0.825252	-0.331968
H80	H	2.011956	-0.325252	0.168032
H81	H	1.480720	-0.743874	-0.434396
H82	H	1.980720	-0.243874	0.065604
H83	H	1.555871	-1.070099	-0.458092
H84	H	2.055871	-0.570099	0.041908
O85	O	1.367203	-1.116157	-0.646455
O86	O	1.867203	-0.616157	-0.146455
C87	C	1.367996	-1.224158	-0.645792
C88	C	1.867996	-0.724158	-0.145792
H89	H	1.400403	-1.238991	-0.567048
H90	H	1.900403	-0.738991	-0.067048
H91	H	1.284490	-1.265777	-0.658066
H92	H	1.784490	-0.765777	-0.158066
H93	H	1.419735	-1.255037	-0.711725
H94	H	1.919735	-0.755037	-0.211725
H95	H	1.336979	-0.935582	-0.676559
H96	H	1.836979	-0.435582	-0.176559
O97	O	1.558326	-0.631581	-0.970838
O98	O	2.058326	-0.131581	-0.470838
C99	C	1.545726	-0.617171	-0.861009
C100	C	2.045726	-0.117171	-0.361009
H101	H	1.469426	-0.582931	-0.841862
H102	H	1.969426	-0.082931	-0.341862
H103	H	1.542793	-0.695425	-0.829372
H104	H	2.042793	-0.195425	-0.329372
H105	H	1.614770	-0.561508	-0.822984
H106	H	2.114770	-0.061508	-0.322984
H107	H	1.399010	-0.448781	-1.128244
H108	H	1.899010	0.051219	-0.628244
O109	O	1.558626	-0.631382	-1.197317
O110	O	2.058626	-0.131382	-0.697317
C111	C	1.633655	-0.571809	-1.252925
C112	C	2.133655	-0.071809	-0.752925
H113	H	1.650608	-0.489545	-1.209541
H114	H	2.150608	0.010455	-0.709541
H115	H	1.709262	-0.609605	-1.259062
H116	H	2.209262	-0.109605	-0.759062
H117	H	1.601766	-0.568106	-1.335134
H118	H	2.101766	-0.068106	-0.835134
H119	H	1.398979	-0.448826	-0.993705
H120	H	1.898979	0.051174	-0.493705
O121	O	0.817341	-0.631781	-0.711959
O122	O	1.317341	-0.131781	-0.211959
C123	C	0.761782	-0.572315	-0.771940
C124	C	1.261782	-0.072315	-0.271940
H125	H	0.805210	-0.490042	-0.768117
H126	H	1.305210	0.009958	-0.268117
H127	H	0.755653	-0.610203	-0.857106
H128	H	1.255653	-0.110203	-0.357106
H129	H	0.679558	-0.568615	-0.739101
H130	H	1.179558	-0.068615	-0.239101
O131	O	1.043641	-0.631784	-0.711963
O132	O	1.543641	-0.131784	-0.211963
C133	C	1.019961	-0.609114	-0.813304
C134	C	1.519961	-0.109114	-0.313304
H135	H	1.000503	-0.525669	-0.808164
H136	H	1.500503	-0.025669	-0.308164
H137	H	1.090670	-0.618097	-0.865982
H138	H	1.590670	-0.118097	-0.365982
H139	H	0.949562	-0.665243	-0.847716
H140	H	1.449562	-0.165243	-0.347716
O141	O	0.896445	-0.438586	-0.494342
O142	O	1.396445	0.061414	0.005658
C143	C	0.951961	-0.498053	-0.434322
C144	C	1.451961	0.001947	0.065678
H145	H	0.958140	-0.577305	-0.481114
H146	H	1.458140	-0.077305	0.018886
H147	H	1.034161	-0.455531	-0.415051
H148	H	1.534161	0.044469	0.084949
H149	H	0.908477	-0.509411	-0.358271
H150	H	1.408477	-0.009411	0.141729
