data_functionalizedCrystal
_audit_creation_method	'MofGen! by Chris Wilmer'
_symmetry_space_group_name_H-M	'P1'
_symmetry_Int_Tables_number	1
_symmetry_cell_setting	triclinic
loop_
_symmetry_equiv_pos_as_xyz
  x,y,z
_cell_length_a	20.919309
_cell_length_b	20.919309
_cell_length_c	20.919320
_cell_angle_alpha	60.099535
_cell_angle_beta	90.171584
_cell_angle_gamma	60.099716
loop_
_atom_site_label
_atom_site_type_symbol
_atom_site_fract_x
_atom_site_fract_y
_atom_site_fract_z
Zr1	Zr	0.671050	0.642241	-0.079791
O2	O	0.574404	0.774998	-0.186786
O3	O	0.696810	0.509485	-0.043684
O4	O	0.707160	0.631894	-0.176441
O5	O	0.560290	0.660750	0.046929
O6	O	0.816280	0.623732	-0.172044
O7	O	0.564054	0.652589	-0.054029
O8	O	0.797765	0.404764	0.065434
O9	O	0.578804	0.879718	-0.190548
O10	O	0.793904	0.557997	-0.029000
O11	O	0.709660	0.570180	0.043063
O12	O	0.721846	0.714301	-0.113241
O13	O	0.637601	0.726484	-0.041179
Zr14	Zr	0.839081	0.642239	0.088239
Zr15	Zr	0.845085	0.629223	-0.072778
Zr16	Zr	0.665047	0.655258	0.081225
Zr17	Zr	0.678068	0.809258	-0.085792
Zr18	Zr	0.832063	0.475223	0.094239
O19	O	0.813322	0.774996	0.052132
O20	O	0.821858	0.756488	-0.176813
O21	O	0.565868	0.793506	0.042160
O22	O	0.935727	0.509482	0.195233
O23	O	0.944264	0.490974	-0.033712
O24	O	0.688273	0.527993	0.185261
O25	O	0.949842	0.623730	-0.038482
O26	O	0.802972	0.652586	0.184888
O27	O	0.693851	0.660749	0.180491
O28	O	0.946078	0.631892	0.062476
O29	O	0.717138	0.869370	-0.184973
O30	O	0.792993	0.415110	0.193421
O31	O	0.931327	0.404762	0.198995
O32	O	0.936099	0.394416	0.071008
O33	O	0.574032	0.890065	-0.062561
O34	O	0.712366	0.879717	-0.056986
O35	O	0.788286	0.570179	0.121688
O36	O	0.872530	0.557997	0.049626
O37	O	0.800472	0.714300	-0.034615
O38	O	0.716227	0.726483	0.037447
C39	C	0.746288	0.433328	0.011730
C40	C	0.743308	0.362425	0.014277
C41	C	0.537376	0.658524	-0.004549
C42	C	0.463494	0.664051	-0.007527
C43	C	0.785881	0.322756	-0.022142
C44	C	0.783084	0.256131	-0.019741
C45	C	0.737709	0.229181	0.019075
C46	C	0.695134	0.268853	0.055499
C47	C	0.697937	0.335472	0.053102
C48	C	0.727051	0.028347	0.028197
C49	C	0.724250	-0.038275	0.030589
C50	C	0.812201	-0.050994	-0.044649
C51	C	0.814996	0.015631	-0.047047
C52	C	0.772425	0.055294	-0.010619
C53	C	0.734846	0.161081	0.021528
C54	C	0.775292	0.123388	-0.013068
C55	C	0.466395	0.585060	0.035044
C56	C	0.396973	0.590259	0.032244
C57	C	0.324649	0.674448	-0.013130
C58	C	0.321749	0.753445	-0.055702
C59	C	0.391171	0.748246	-0.052898
C60	C	0.113159	0.694227	-0.023794
C61	C	0.043736	0.699420	-0.026597
C62	C	0.118964	0.536233	0.061352
C63	C	0.188384	0.531042	0.064148
C64	C	0.185478	0.610039	0.021580
C65	C	0.253688	0.679763	-0.015995
C66	C	0.256439	0.604723	0.024449
C67	C	0.972756	0.625956	0.012996
C68	C	1.046638	0.620429	0.015974
C69	C	0.762575	0.625958	-0.197184
C70	C	0.765124	0.620432	-0.265540
C71	C	0.763844	0.851153	-0.003282
C72	C	0.766823	0.922055	-0.005830
C73	C	0.781426	0.585058	-0.649926
C74	C	0.779034	0.590257	-0.585701
C75	C	0.740218	0.674447	-0.597567
C76	C	0.703799	0.753442	-0.673662
C77	C	0.706196	0.748243	-0.737884
C78	C	0.731102	0.694228	-0.405857
C79	C	0.728706	0.699423	-0.341627
C80	C	0.803942	0.536236	-0.253671
C81	C	0.806331	0.531044	-0.317898
C82	C	0.769916	0.610039	-0.393988
C83	C	0.737770	0.679763	-0.531921
C84	C	0.772369	0.604722	-0.459632
C85	C	0.747556	0.658522	0.205631
C86	C	0.745008	0.664048	0.273987
C87	C	0.963978	0.417044	0.020502
C88	C	1.034881	0.340614	0.026027
C89	C	0.738778	0.449610	0.213137
C90	C	0.733250	0.384233	0.284040
C91	C	0.956468	0.433326	0.221910
C92	C	1.024823	0.362422	0.295791
C93	C	0.553663	0.851155	-0.213463
C94	C	0.485309	0.922058	-0.287343
C95	C	0.546154	0.867437	-0.012055
C96	C	0.475251	0.943866	-0.017580
C97	C	0.771353	0.834871	-0.204690
C98	C	0.776881	0.900248	-0.275593
C99	C	1.027136	0.304722	-0.012427
C100	C	1.093751	0.232917	-0.007251
C101	C	1.168110	0.197001	0.036383
C102	C	1.175853	0.232900	0.074838
C103	C	1.109239	0.304708	0.069658
C104	C	0.771696	0.353531	0.358386
C105	C	0.766499	0.292113	0.425013
C106	C	0.722861	0.261392	0.417293
C107	C	0.684410	0.292100	0.342939
C108	C	0.689603	0.353522	0.276314
C109	C	1.100904	0.322765	0.292870
C110	C	1.165138	0.256152	0.362283
C111	C	1.153287	0.229192	0.434615
C112	C	1.077198	0.268856	0.437533
C113	C	1.012966	0.335473	0.368121
C114	C	0.409227	0.961723	-0.284423
C115	C	0.344995	1.028357	-0.353837
C116	C	0.356845	1.055321	-0.426169
C117	C	0.432935	1.015652	-0.429087
C118	C	0.497166	0.949024	-0.359675
C119	C	0.482996	0.979765	0.020867
C120	C	0.416383	1.051587	0.015673
C121	C	0.342024	1.087505	-0.027964
C122	C	0.334280	1.051603	-0.066415
C123	C	0.400893	0.979786	-0.061226
C124	C	0.820526	0.930949	-0.267848
C125	C	0.825735	0.992368	-0.334462
C126	C	0.787294	1.023090	-0.408821
C127	C	0.743648	0.992382	-0.416564
C128	C	0.738444	0.930959	-0.349951
H129	H	0.822827	0.344697	-0.053754
H130	H	0.287789	1.145983	-0.032183
C131	C	0.392359	0.940296	-0.103514
N132	N	0.385925	0.910554	-0.135367
C133	C	0.873746	1.026139	-0.325927
N134	N	0.909907	1.051575	-0.319496
C135	C	0.580855	0.905389	-0.362899
N136	N	0.643888	0.872523	-0.365334
H137	H	0.851830	0.905945	-0.207307
C138	C	0.793026	1.090659	-0.482091
N139	N	0.797343	1.141553	-0.537275
H140	H	0.807231	0.378537	0.364687
C141	C	0.647316	0.387277	0.194536
N142	N	0.615464	0.412696	0.132941
C143	C	0.564785	0.940273	0.068869
N144	N	0.626388	0.910535	0.105022
H145	H	0.399563	0.939775	-0.225533
C146	C	0.286180	1.128608	-0.502518
N147	N	0.232952	1.183805	-0.560021
C148	C	0.691003	0.781130	-0.489550
N149	N	0.660784	0.846589	-0.552593
C150	C	0.252477	1.091112	-0.114401
N151	N	0.190860	1.120866	-0.150537
H152	H	0.817751	0.223831	-0.049396
C153	C	0.717165	0.193816	0.490592
N154	N	0.712881	0.142913	0.545804
H155	H	0.525281	0.516504	0.071996
C156	C	0.824126	0.492441	-0.636863
N157	N	0.856291	0.422679	-0.627022
H158	H	1.236405	0.203647	0.110365
H159	H	1.110568	0.344705	0.233980
C160	C	0.267938	0.438427	0.114064
N161	N	0.327859	0.368667	0.151660
C162	C	0.701399	1.026151	-0.498364
N163	N	0.669586	1.051578	-0.559977
H164	H	1.067560	0.246895	0.496435
H165	H	0.803976	0.536175	-0.449974
C166	C	0.122153	0.449343	0.108180
N167	N	0.124555	0.383894	0.143456
H168	H	0.702900	0.905970	-0.356268
H169	H	0.846861	-0.083295	-0.074306
C170	C	0.864915	0.045267	-0.089744
N171	N	0.902514	0.067590	-0.121905
H172	H	0.692390	0.060630	0.057862
C173	C	0.645221	0.239206	0.098196
N174	N	0.607622	0.216879	0.130354
C175	C	0.825194	0.153045	-0.055775
N176	N	0.862773	0.175396	-0.087950
H177	H	1.227088	0.223863	0.359893
H178	H	0.283045	1.060645	-0.351445
H179	H	0.687296	-0.060213	0.062197
C180	C	0.945347	0.344220	-0.060435
N181	N	0.883746	0.373971	-0.096602
C182	C	0.684928	0.131436	0.064218
N183	N	0.647330	0.109104	0.096371
H184	H	-0.015154	0.767981	-0.063550
C185	C	0.636414	0.258293	0.334461
N186	N	0.600268	0.232822	0.328077
C187	C	0.109953	0.781126	-0.070634
N188	N	0.107539	0.846582	-0.105921
H189	H	0.697092	0.767984	-0.351297
C190	C	0.445957	1.045314	-0.508660
N191	N	0.455763	1.067651	-0.568597
C192	C	0.424918	1.091059	0.057983
N193	N	0.431349	1.120786	0.089853
C194	C	0.400172	0.503361	0.079062
N195	N	0.402584	0.437905	0.114323
C196	C	1.223952	0.155904	0.510964
N197	N	1.277180	0.100699	0.568468
H198	H	0.194794	0.748311	-0.052939
C199	C	0.819093	0.503361	-0.502005
N200	N	0.849267	0.437907	-0.438963
C201	C	0.242191	0.846054	-0.105618
N202	N	0.182267	0.915809	-0.143219
C203	C	0.849025	0.438428	-0.304838
N204	N	0.881179	0.368670	-0.295001
H205	H	0.663267	0.367773	0.082756
H206	H	0.388803	0.812569	-0.087554
H207	H	0.315327	0.536176	0.061396
H208	H	0.833590	0.471922	-0.191714
H209	H	1.115556	0.333923	0.100977
C210	C	0.661109	0.846052	-0.686712
N211	N	0.628954	0.915808	-0.696543
H212	H	0.951019	0.367753	0.370510
H213	H	0.676541	0.812565	-0.799838
C214	C	1.085215	0.193434	-0.049550
N215	N	1.078783	0.163695	-0.081407
H216	H	0.797814	0.267117	0.485548
H217	H	0.706165	0.748310	-0.541574
H218	H	1.222345	0.138529	0.040596
