data_functionalizedCrystal
_audit_creation_method	'MofGen! by Chris Wilmer'
_symmetry_space_group_name_H-M	'P1'
_symmetry_Int_Tables_number	1
_symmetry_cell_setting	triclinic
loop_
_symmetry_equiv_pos_as_xyz
  x,y,z
_cell_length_a	11.026607
_cell_length_b	14.044220
_cell_length_c	10.065875
_cell_angle_alpha	99.592716
_cell_angle_beta	79.302338
_cell_angle_gamma	100.887447
loop_
_atom_site_label
_atom_site_type_symbol
_atom_site_fract_x
_atom_site_fract_y
_atom_site_fract_z
O1	O	1.670494	0.393284	-0.113515
O2	O	1.312203	0.347236	-0.113514
O3	O	1.485969	0.231359	-0.113501
O4	O	1.496729	0.509161	-0.113528
O5	O	1.452846	0.253569	0.113485
O6	O	1.279081	0.369446	0.113472
O7	O	1.637372	0.415494	0.113471
Zn8	Zn	1.452967	0.395996	0.149510
Zn9	Zn	1.496608	0.366734	-0.149554
O10	O	1.463606	0.531371	0.113458
C11	C	1.249512	0.349846	-0.000021
C12	C	1.112056	0.324521	-0.000020
C13	C	1.045821	0.394445	-0.000028
C14	C	0.903753	0.368273	-0.000027
C15	C	1.464699	0.206346	-0.000008
C16	C	1.450655	0.098724	-0.000006
C17	C	1.424983	-0.098320	-0.000025
C18	C	1.524588	-0.138958	-0.000030
C19	C	1.510304	-0.248600	-0.000041
C20	C	1.439265	0.011332	-0.000015
C21	C	1.700064	0.412884	-0.000025
C22	C	1.837520	0.438207	-0.000035
C23	C	1.484876	0.556383	-0.000039
C24	C	1.498921	0.664004	-0.000049
N25	N	1.423193	0.415967	0.353614
N26	N	1.526391	0.346756	-0.353657
C27	C	1.486240	0.373675	0.421397
C28	C	1.463335	0.389055	0.578563
H29	H	0.885983	0.517454	-0.000034
C30	C	1.233946	0.424162	0.514520
C31	C	1.327432	0.480219	0.432336
H32	H	1.174831	0.463832	0.563122
H33	H	1.193059	0.371026	0.458786
H34	H	1.270548	0.399625	0.577404
H35	H	1.290830	0.504751	0.369445
H36	H	1.368322	0.533373	0.488074
C37	C	1.643442	0.022996	0.000008
C38	C	1.654189	-0.074769	-0.000009
H39	H	1.723448	0.062625	0.000033
H40	H	1.611366	0.028603	-0.079146
H41	H	1.588235	0.044067	0.079165
H42	H	1.709389	-0.095842	-0.079172
H43	H	1.686282	-0.080381	0.079153
C44	C	1.306143	-0.260266	-0.000014
C45	C	1.295386	-0.162505	-0.000013
H46	H	1.226133	-0.299896	0.000007
H47	H	1.361321	-0.281346	-0.079172
H48	H	1.338251	-0.265858	0.079139
H49	H	1.263286	-0.156912	-0.079172
H50	H	1.240187	-0.141419	0.079153
H51	H	1.094290	0.473686	-0.000028
C52	C	1.625889	0.279328	0.427175
C53	C	1.621863	0.282244	0.567633
H54	H	1.684746	0.239429	0.378586
H55	H	1.545474	0.252840	0.404021
H56	H	1.650197	0.343739	0.403660
H57	H	1.597545	0.217833	0.591150
H58	H	1.702295	0.308728	0.590797
H59	H	1.557169	0.326076	0.363079
H60	H	1.392391	0.436648	0.636878
H61	H	0.855293	0.289025	-0.000054
C62	C	0.918563	0.212325	-0.000022
C63	C	1.046637	0.217546	-0.000017
H64	H	0.878183	0.146279	-0.000030
H65	H	0.883771	0.251308	0.079127
H66	H	0.906878	0.235833	-0.079183
H67	H	1.058323	0.194045	0.079150
H68	H	1.081440	0.178548	-0.079175
