data_functionalizedCrystal
_audit_creation_method	'MofGen! by Chris Wilmer'
_symmetry_space_group_name_H-M	'P1'
_symmetry_Int_Tables_number	1
_symmetry_cell_setting	triclinic
loop_
_symmetry_equiv_pos_as_xyz
  x,y,z
_cell_length_a	12.759401
_cell_length_b	16.959453
_cell_length_c	12.759393
_cell_angle_alpha	90.035042
_cell_angle_beta	90.018496
_cell_angle_gamma	90.020149
loop_
_atom_site_label
_atom_site_type_symbol
_atom_site_fract_x
_atom_site_fract_y
_atom_site_fract_z
Zn1	Zn	1.606217	-0.314632	0.593956
Zn2	Zn	1.606095	-0.446833	0.418265
Zn3	Zn	1.430519	-0.314673	0.418295
Zn4	Zn	1.430491	-0.446772	0.593907
O5	O	1.518330	-0.380727	0.506106
O6	O	1.753222	-0.332177	0.570658
O7	O	1.582765	-0.429345	0.271248
O8	O	1.453888	-0.204057	0.441630
O9	O	1.753132	-0.429304	0.441579
O10	O	1.582973	-0.204026	0.570687
O11	O	1.453770	-0.332247	0.271270
O12	O	1.283494	-0.332188	0.441583
O13	O	1.453841	-0.429201	0.740935
O14	O	1.283474	-0.429241	0.570604
O15	O	1.582946	-0.332118	0.740971
O16	O	1.582738	-0.557436	0.441532
O17	O	1.453723	-0.557391	0.570575
C18	C	1.245363	-0.380713	0.506092
C19	C	1.128586	-0.380726	0.506110
C20	C	1.073741	-0.431342	0.573181
C21	C	0.964017	-0.431352	0.573192
C22	C	0.963993	-0.330127	0.439054
C23	C	1.073715	-0.330114	0.439049
C24	C	1.128613	-0.481954	0.640242
C25	C	1.073767	-0.532575	0.707317
C26	C	0.964043	-0.532585	0.707328
C27	C	0.909165	-0.481974	0.640265
C28	C	1.518243	-0.586094	0.506067
C29	C	1.518301	-0.673950	0.506086
C30	C	1.585631	-1.045352	0.573433
C31	C	1.451323	-1.045500	0.438935
C32	C	1.451284	-0.962954	0.438911
C33	C	1.518419	-0.921603	0.506150
C34	C	1.585592	-0.962798	0.573413
C35	C	1.384105	-0.921753	0.371657
C36	C	1.384063	-0.839202	0.371631
C37	C	1.451203	-0.797850	0.438865
C38	C	1.518379	-0.839050	0.506130
C39	C	1.585514	-0.797699	0.573369
C40	C	1.652696	-0.838897	0.640629
C41	C	1.652732	-0.921445	0.640647
C42	C	1.451167	-0.715301	0.438847
C43	C	1.585475	-0.715145	0.573349
C44	C	1.792364	-0.380743	0.506121
C45	C	1.909140	-0.380749	0.506127
C46	C	1.518404	-0.380648	0.780139
C47	C	1.518435	-0.380614	0.896916
C48	C	1.518447	-0.174559	0.506168
C49	C	1.518497	-0.086703	0.506194
C50	C	1.518318	-0.380750	0.233139
C51	C	1.518490	-0.380561	0.116362
C52	C	1.585669	-0.330058	0.951799
C53	C	1.585694	-0.330029	1.061523
C54	C	1.451248	-0.431120	1.061472
C55	C	1.451219	-0.431144	0.951750
C56	C	1.652886	-0.279528	0.896965
C57	C	1.720127	-0.228968	0.951847
C58	C	1.720152	-0.228940	1.061571
C59	C	1.652936	-0.279471	1.116413
H60	H	1.217955	-0.481953	0.640239
H61	H	1.118457	-0.573776	0.761924
C62	C	0.903622	-0.274464	0.365284
N63	N	0.858150	-0.232539	0.309715
C64	C	1.310387	-0.967244	0.297575
N65	N	1.254908	-1.001512	0.241727
H66	H	1.396524	-0.472259	1.106133
H67	H	1.652876	-0.279547	0.807622
C68	C	1.377263	-0.486762	0.891376
N69	N	1.321557	-0.528655	0.845902
C70	C	1.794054	-0.173384	0.891520
N71	N	1.849738	-0.131516	0.846082
H72	H	1.118371	-0.288892	0.384442
H73	H	1.652950	-0.279434	1.205758
C74	C	1.659333	-0.669666	0.647315
N75	N	1.714964	-0.635411	0.703026
H76	H	1.707353	-0.805219	0.695381
C77	C	0.903717	-0.588271	0.781107
N78	N	0.858281	-0.630221	0.836673
H79	H	0.819820	-0.481980	0.640289
C80	C	1.794112	-0.173321	1.121939
N81	N	1.849827	-0.131430	1.167406
H82	H	1.329360	-0.805664	0.316863
C83	C	1.659528	-1.090670	0.647416
N84	N	1.715187	-1.124804	0.703142
C85	C	1.377562	-1.090989	0.364895
N86	N	1.322034	-1.125255	0.309093
C87	C	1.726620	-0.966770	0.714633
N88	N	1.782269	-1.000911	0.770362
H89	H	1.396463	-0.681762	0.384090
