data_functionalizedCrystal
_audit_creation_method	'MofGen! by Chris Wilmer'
_symmetry_space_group_name_H-M	'P1'
_symmetry_Int_Tables_number	1
_symmetry_cell_setting	triclinic
loop_
_symmetry_equiv_pos_as_xyz
  x,y,z
_cell_length_a	10.540514
_cell_length_b	10.540539
_cell_length_c	9.130313
_cell_angle_alpha	90.000859
_cell_angle_beta	89.999226
_cell_angle_gamma	84.520326
loop_
_atom_site_label
_atom_site_type_symbol
_atom_site_fract_x
_atom_site_fract_y
_atom_site_fract_z
O1	O	1.685899	0.178742	-0.121810
O2	O	1.316482	0.195631	-0.121808
O3	O	1.509618	0.002479	-0.121808
O4	O	1.492762	0.371894	-0.121811
O5	O	1.509616	0.002485	0.121791
O6	O	1.316479	0.195637	0.121790
O7	O	1.685896	0.178747	0.121789
Cu8	Cu	1.501187	0.187192	0.144032
Cu9	Cu	1.501190	0.187186	-0.144052
O10	O	1.492760	0.371899	0.121788
C11	C	1.269177	0.194374	-0.000009
C12	C	1.128227	0.190605	-0.000008
C13	C	1.057522	0.328745	-0.000013
C14	C	0.910908	0.324871	-0.000573
C15	C	0.935891	0.115475	-0.138852
C16	C	1.082430	0.120329	-0.138961
C17	C	1.082830	0.118290	0.138066
C18	C	0.935851	0.116958	0.139883
C19	C	1.508353	-0.044821	-0.000011
C20	C	1.504571	-0.185769	-0.000019
C21	C	1.359652	-0.369182	-0.000565
C22	C	1.363486	-0.222564	-0.000016
C23	C	1.572466	-0.247429	0.139088
C24	C	1.567651	-0.393973	0.139205
C25	C	1.570523	-0.394498	-0.137812
C26	C	1.571822	-0.247516	-0.139651
C27	C	1.733201	0.180004	-0.000014
C28	C	1.874151	0.183774	-0.000024
C29	C	1.494025	0.419199	-0.000012
C30	C	1.497807	0.560147	-0.000014
N31	N	1.501195	0.187196	0.346655
N32	N	1.501193	0.187173	-0.346674
C33	C	1.586738	0.101698	0.423307
C34	C	1.586734	0.101682	0.576644
C35	C	1.415641	0.272675	0.576662
C36	C	1.415639	0.272683	0.423328
C37	C	1.685521	0.002980	0.423298
C38	C	1.685518	0.002965	0.576634
H39	H	1.110656	0.170208	-0.243135
H40	H	1.522144	-0.206655	-0.242559
O41	O	0.906333	-0.021797	-0.145196
H42	H	0.847178	-0.042846	-0.049241
H43	H	1.130086	0.016397	0.139407
O44	O	1.644668	-0.119206	0.639607
H45	H	1.546624	-0.132259	0.602001
H46	H	1.663812	-0.094599	0.381678
H47	H	1.777700	0.033923	0.375738
O48	O	1.501171	-0.431333	0.276931
H49	H	1.472751	-0.344768	0.342820
O50	O	1.323370	0.364891	0.340646
H51	H	1.263890	0.424339	0.419726
O52	O	0.879523	0.177522	-0.276242
H53	H	0.807553	0.256990	-0.245999
O54	O	1.814736	0.031818	0.631782
H55	H	1.877997	0.045969	0.537176
O56	O	1.708081	-0.215460	-0.150779
H57	H	1.721028	-0.163362	-0.254538
H58	H	1.669117	-0.441951	0.145515
H59	H	1.676075	-0.225085	0.144260
O60	O	0.854376	0.396032	0.131209
H61	H	0.931751	0.433533	0.195912
O62	O	1.095328	0.403000	0.131823
H63	H	1.164923	0.342250	0.198760
O64	O	1.705505	-0.457069	-0.139076
H65	H	1.720791	-0.520172	-0.042095
H66	H	1.525300	-0.204823	0.242607
H67	H	1.087750	0.383961	-0.099422
O68	O	1.510043	-0.436273	-0.277481
H69	H	1.427471	-0.489835	-0.250235
O70	O	1.323375	0.364888	0.659358
H71	H	1.337751	0.350525	0.778859
H72	H	1.130436	0.018855	-0.144888
O73	O	0.855598	0.395831	-0.133085
H74	H	0.933590	0.433025	-0.197035
H75	H	1.114323	0.164276	0.243326
H76	H	1.309686	-0.180801	0.099867
O77	O	0.881564	0.183085	0.275932
H78	H	0.776885	0.178098	0.278858
O79	O	0.903767	-0.019260	0.151523
H80	H	0.993047	-0.084262	0.150425
O81	O	1.292698	-0.166108	-0.132079
H82	H	1.255408	-0.243524	-0.196911
H83	H	1.303921	-0.397779	-0.100320
H84	H	1.304146	-0.399383	0.098633
