data_functionalizedCrystal
_audit_creation_method	'MofGen! by Chris Wilmer'
_symmetry_space_group_name_H-M	'P1'
_symmetry_Int_Tables_number	1
_symmetry_cell_setting	triclinic
loop_
_symmetry_equiv_pos_as_xyz
  x,y,z
_cell_length_a	10.686220
_cell_length_b	25.639239
_cell_length_c	10.685880
_cell_angle_alpha	94.335559
_cell_angle_beta	89.641569
_cell_angle_gamma	94.420676
loop_
_atom_site_label
_atom_site_type_symbol
_atom_site_fract_x
_atom_site_fract_y
_atom_site_fract_z
Zn1	Zn	1.972091	-0.163214	-0.562345
Zn2	Zn	1.955791	-0.244518	-0.352579
Zn3	Zn	1.746219	-0.164279	-0.368668
Zn4	Zn	1.762195	-0.257808	-0.578349
O5	O	1.859074	-0.207455	-0.465485
O6	O	2.145477	-0.167991	-0.521089
O7	O	1.914483	-0.228759	-0.179173
O8	O	1.776317	-0.090970	-0.394395
O9	O	2.133502	-0.227725	-0.366975
O10	O	1.942264	-0.090187	-0.536689
O11	O	1.760512	-0.169807	-0.190993
O12	O	1.572789	-0.182694	-0.409913
O13	O	1.803545	-0.250376	-0.751766
O14	O	1.584527	-0.251409	-0.563965
O15	O	1.957755	-0.180878	-0.740009
O16	O	1.929975	-0.319450	-0.382493
O17	O	1.787740	-0.329214	-0.548365
C18	C	1.533140	-0.218610	-0.490422
C19	C	1.393707	-0.223395	-0.501120
C20	C	1.858858	-0.343303	-0.465444
C21	C	1.858884	-0.401417	-0.465460
C22	C	1.933355	-0.756675	-0.379237
C23	C	1.933405	-0.811278	-0.379250
O24	O	1.996499	-0.835180	-0.305893
N25	N	1.859301	-0.843689	-0.465552
C26	C	1.785151	-0.821494	-0.551855
O27	O	1.722125	-0.854076	-0.625263
C28	C	1.785109	-0.766892	-0.551846
C29	C	1.859209	-0.734484	-0.465530
C30	C	2.007449	-0.724267	-0.292928
C31	C	2.007397	-0.669667	-0.292914
C32	C	1.933251	-0.647476	-0.379208
C33	C	1.859157	-0.679884	-0.465516
C34	C	1.710968	-0.744698	-0.638154
C35	C	1.710932	-0.690092	-0.638139
C36	C	1.785032	-0.657683	-0.551823
C37	C	1.784958	-0.603094	-0.551796
N38	N	1.859062	-0.570683	-0.465494
C39	C	1.933209	-0.592874	-0.379200
C40	C	1.785247	-0.936162	-0.551867
C41	C	1.785282	-0.990763	-0.551870
C42	C	1.933538	-0.980543	-0.379266
C43	C	1.933495	-0.925941	-0.379258
C44	C	1.859352	-0.903751	-0.465565
C45	C	1.933093	-0.478212	-0.379176
C46	C	1.933031	-0.423608	-0.379166
C47	C	1.784781	-0.433833	-0.551773
C48	C	1.784838	-0.488432	-0.551780
C49	C	1.859004	-0.510619	-0.465476
O50	O	1.721900	-0.579155	-0.625118
O51	O	1.996237	-0.560286	-0.305814
C52	C	2.186280	-0.196257	-0.440452
C53	C	2.325716	-0.191485	-0.429784
C54	C	1.884250	-0.216991	-0.792676
C55	C	1.894979	-0.221054	-0.932105
C56	C	1.859326	-0.071076	-0.465552
C57	C	1.859434	-0.012959	-0.465580
C58	C	1.834067	-0.197916	-0.139562
C59	C	1.823582	-0.193697	-0.000116
H60	H	1.374176	-0.160505	-0.360525
O61	O	1.740680	-0.162110	-0.942407
C62	C	1.618063	-0.178727	-0.983927
H63	H	1.614400	-0.221754	-1.020493
H64	H	1.591105	-0.154004	-1.062409
C65	C	1.529984	-0.119309	-0.828958
C66	C	1.525483	-0.172156	-0.873860
H67	H	1.472874	-0.115254	-0.761066
H68	H	1.612593	-0.108111	-0.800987
H69	H	1.507522	-0.098712	-0.894371
H70	H	1.547960	-0.192751	-0.808452
H71	H	1.442875	-0.183357	-0.901817
O72	O	1.977876	-0.252672	-0.989735
C73	C	2.100498	-0.236036	-0.948261
H74	H	2.095887	-0.213104	-0.852909
H75	H	2.148411	-0.209832	-1.018758
C76	C	2.181609	-0.312403	-1.053643
C77	C	2.175947	-0.284241	-0.936525
H78	H	2.228154	-0.342137	-1.046409
H79	H	2.098998	-0.323610	-1.081590
H80	H	2.221534	-0.290561	-1.112379
H81	H	2.136009	-0.306081	-0.877797
H82	H	2.258554	-0.273039	-0.908569
O83	O	1.336095	-0.260403	-0.583778
C84	C	1.427306	-0.289099	-0.647981
H85	H	1.516776	-0.286210	-0.589509
H86	H	1.448577	-0.272317	-0.742274
C87	C	1.267460	-0.350567	-0.741539
C88	C	1.377345	-0.347022	-0.669718
H89	H	1.236641	-0.386296	-0.754954
H90	H	1.206009	-0.331233	-0.698289
H91	H	1.285201	-0.336579	-0.820109
H92	H	1.359600	-0.361004	-0.591144
H93	H	1.438793	-0.366360	-0.712955
O94	O	2.005163	-0.499674	-0.295216
C95	C	2.070563	-0.459353	-0.219065
H96	H	2.018802	-0.422089	-0.218619
H97	H	2.169338	-0.451574	-0.257786
C98	C	2.142069	-0.521922	-0.084724
C99	C	2.078489	-0.476155	-0.084168
H100	H	2.146964	-0.532287	-0.001515
H101	H	2.098012	-0.549088	-0.136031
H102	H	2.224376	-0.515434	-0.116998
H103	H	1.996180	-0.482646	-0.051910
H104	H	2.122533	-0.448991	-0.032853
H105	H	2.067739	-0.643283	-0.222632
O106	O	2.079509	-0.745732	-0.208971
C107	C	2.144912	-0.705409	-0.132826
H108	H	2.093155	-0.668144	-0.132391
H109	H	2.243689	-0.697633	-0.171547
C110	C	2.216408	-0.767975	0.001531
C111	C	2.152833	-0.722206	0.002075
H112	H	2.221300	-0.778336	0.084744
H113	H	2.172349	-0.795141	-0.049771
H114	H	2.298715	-0.761489	-0.030742
H115	H	2.070523	-0.728695	0.034333
H116	H	2.196878	-0.695041	0.053386
O117	O	1.712955	-0.412243	-0.635718
C118	C	1.790544	-0.380524	-0.711288
H119	H	1.889950	-0.393786	-0.711552
H120	H	1.791888	-0.337868	-0.672151
C121	C	1.617109	-0.369292	-0.846023
C122	C	1.739199	-0.385584	-0.846356
H123	H	1.585435	-0.372411	-0.929338
H124	H	1.564833	-0.390660	-0.795108
H125	H	1.618245	-0.333747	-0.813403
H126	H	1.738058	-0.421131	-0.878961
H127	H	1.791473	-0.364222	-0.897280
O128	O	1.639175	-0.776223	-0.722062
C129	C	1.716807	-0.807669	-0.797712
H130	H	1.808507	-0.811280	-0.746259
H131	H	1.737675	-0.788835	-0.889614
C132	C	1.536917	-0.858147	-0.888903
C133	C	1.649542	-0.862586	-0.825703
H134	H	1.495425	-0.892022	-0.906175
H135	H	1.484614	-0.836961	-0.837940
H136	H	1.554323	-0.842450	-0.965481
H137	H	1.632133	-0.878276	-0.749120
H138	H	1.701840	-0.883777	-0.876654
H139	H	1.993371	-0.397222	-0.308873
H140	H	1.993834	-0.899557	-0.308973
H141	H	1.993916	-0.998621	-0.309005
O142	O	1.638984	-0.668597	-0.722150
C143	C	1.675966	-0.684607	-0.845105
H144	H	1.724428	-0.722655	-0.844055
H145	H	1.743658	-0.652866	-0.882465
C146	C	1.499936	-0.646844	-0.931652
C147	C	1.559448	-0.693578	-0.930365
H148	H	1.428065	-0.652376	-0.984248
H149	H	1.475023	-0.636056	-0.848816
H150	H	1.556360	-0.620398	-0.962783
H151	H	1.503031	-0.720021	-0.899221
H152	H	1.584350	-0.704371	-1.013198
O153	O	1.712824	-0.519841	-0.635742
C154	C	1.647342	-0.488542	-0.711879
H155	H	1.699016	-0.447963	-0.712309
H156	H	1.548554	-0.484711	-0.673155
C157	C	1.575991	-0.564186	-0.846247
C158	C	1.639464	-0.514347	-0.846784
H159	H	1.571125	-0.580104	-0.929461
H160	H	1.620103	-0.585273	-0.794950
H161	H	1.493674	-0.560987	-0.813971
H162	H	1.721783	-0.517548	-0.879044
H163	H	1.595365	-0.493261	-0.898089
H164	H	1.724930	-1.017146	-0.622146
H165	H	1.724860	-0.918099	-0.622145
