data_functionalizedCrystal
_audit_creation_method	'MofGen! by Chris Wilmer'
_symmetry_space_group_name_H-M	'P1'
_symmetry_Int_Tables_number	1
_symmetry_cell_setting	triclinic
loop_
_symmetry_equiv_pos_as_xyz
  x,y,z
_cell_length_a	19.288865
_cell_length_b	19.288864
_cell_length_c	18.366186
_cell_angle_alpha	90.022894
_cell_angle_beta	90.011479
_cell_angle_gamma	83.136245
loop_
_atom_site_label
_atom_site_type_symbol
_atom_site_fract_x
_atom_site_fract_y
_atom_site_fract_z
O1	O	-0.086649	-0.921353	-0.060791
O2	O	0.246685	-0.588019	0.272542
O3	O	0.580018	-0.254686	0.605875
O4	O	-0.098337	-0.719092	-0.060743
O5	O	0.234996	-0.385759	0.272591
O6	O	0.568329	-0.052425	0.605924
O7	O	0.008637	-0.826067	-0.060754
O8	O	0.341971	-0.492733	0.272579
O9	O	0.675304	-0.159400	0.605913
O10	O	-0.193623	-0.814378	-0.060780
O11	O	0.139710	-0.481045	0.272553
O12	O	0.473043	-0.147711	0.605887
O13	O	0.008643	-0.826049	0.060345
O14	O	0.341976	-0.492715	0.393679
O15	O	0.675309	-0.159382	0.727012
O16	O	-0.098332	-0.719074	0.060357
O17	O	0.235001	-0.385741	0.393690
O18	O	0.568335	-0.052407	0.727023
O19	O	-0.086643	-0.921335	0.060308
O20	O	0.246690	-0.588001	0.393641
O21	O	0.580023	-0.254668	0.726975
Zn22	Zn	-0.092487	-0.820201	0.079559
Zn23	Zn	0.240846	-0.486868	0.412893
Zn24	Zn	0.574180	-0.153535	0.746226
Zn25	Zn	-0.092494	-0.820225	-0.079994
Zn26	Zn	0.240839	-0.486892	0.253339
Zn27	Zn	0.574173	-0.153559	0.586672
O28	O	-0.193618	-0.814360	0.060319
O29	O	0.139715	-0.481027	0.393653
O30	O	0.473049	-0.147693	0.726986
C31	C	-0.097959	-0.693207	-0.000187
C32	C	0.235375	-0.359873	0.333147
C33	C	0.568708	-0.026540	0.666480
C34	C	-0.096830	-0.616103	-0.000167
C35	C	0.236504	-0.282770	0.333166
C36	C	0.569837	0.050564	0.666499
C37	C	0.034516	-0.825682	-0.000202
C38	C	0.367850	-0.492348	0.333131
C39	C	0.701183	-0.159015	0.666465
C40	C	0.111620	-0.824553	-0.000195
C41	C	0.444953	-0.491219	0.333138
C42	C	0.778287	-0.157886	0.666471
C43	C	-0.087022	-0.947220	-0.000250
C44	C	0.246311	-0.613887	0.333084
C45	C	0.579645	-0.280553	0.666417
C46	C	-0.088151	-1.024324	-0.000274
C47	C	0.245182	-0.690990	0.333060
C48	C	0.578516	-0.357657	0.666393
C49	C	-0.219497	-0.814745	-0.000234
C50	C	0.113836	-0.481412	0.333099
C51	C	0.447169	-0.148078	0.666432
C52	C	-0.296601	-0.815874	-0.000246
C53	C	0.036733	-0.482541	0.333088
C54	C	0.370066	-0.149207	0.666421
C55	C	0.156316	-0.887321	-0.000207
C56	C	0.489650	-0.553987	0.333126
C57	C	0.822983	-0.220654	0.666460
C58	C	0.228763	-0.886260	-0.000218
C59	C	0.562097	-0.552927	0.333115
C60	C	0.895430	-0.219593	0.666448
C61	C	0.256511	-0.822428	-0.000203
C62	C	0.589844	-0.489094	0.333130
C63	C	0.923178	-0.155761	0.666463
C64	C	0.211805	-0.759652	-0.000196
C65	C	0.545138	-0.426318	0.333137
C66	C	0.878471	-0.092985	0.666471
C67	C	0.139359	-0.760714	-0.000192
C68	C	0.472693	-0.427381	0.333141
C69	C	0.806026	-0.094047	0.666475
C70	C	0.364800	-0.772242	0.042227
C71	C	0.698133	-0.438908	0.375561
C72	C	1.031467	-0.105575	0.708894
C73	C	0.437245	-0.771182	0.042228
C74	C	0.770578	-0.437849	0.375561
C75	C	1.103911	-0.104515	0.708894
C76	C	0.479956	-0.819148	-0.000219
C77	C	0.813290	-0.485815	0.333114
C78	C	1.146623	-0.152481	0.666448
C79	C	0.450216	-0.868186	-0.042657
C80	C	0.783550	-0.534852	0.290677
C81	C	1.116883	-0.201519	0.624010
C82	C	0.377771	-0.869248	-0.042653
C83	C	0.711104	-0.535915	0.290681
C84	C	1.044438	-0.202582	0.624014
C85	C	0.335065	-0.821269	-0.000208
C86	C	0.668398	-0.487935	0.333125
C87	C	1.001732	-0.154602	0.666459
C88	C	0.603209	-0.880770	-0.000244
C89	C	0.936542	-0.547437	0.333090
C90	C	1.269875	-0.214104	0.666423
C91	C	0.675657	-0.879707	-0.000259
C92	C	1.008990	-0.546374	0.333074
C93	C	1.342323	-0.213040	0.666407
C94	C	0.658697	-0.753097	-0.000230
C95	C	0.992030	-0.419763	0.333104
C96	C	1.325363	-0.086430	0.666437
C97	C	0.586250	-0.754162	-0.000221
C98	C	0.919583	-0.420829	0.333112
C99	C	1.252917	-0.087495	0.666445
C100	C	0.558511	-0.818001	-0.000225
C101	C	0.891844	-0.484667	0.333109
C102	C	1.225177	-0.151334	0.666442
N103	N	-0.092482	-0.820190	0.188451
N104	N	0.240852	-0.486857	0.521784
N105	N	0.574185	-0.153524	0.855117
C106	C	-0.159598	-0.571407	-0.000187
C107	C	0.173736	-0.238073	0.333146
C108	C	0.507069	0.095260	0.666480
C109	C	-0.158537	-0.498960	-0.000195
C110	C	0.174796	-0.165626	0.333138
C111	C	0.508130	0.167707	0.666472
C112	C	-0.094705	-0.471212	-0.000198
C113	C	0.238629	-0.137879	0.333135
C114	C	0.571962	0.195455	0.666469
C115	C	-0.031929	-0.515918	-0.000174
C116	C	0.301405	-0.182585	0.333159
C117	C	0.634738	0.150748	0.666492
C118	C	-0.032991	-0.588364	-0.000159
C119	C	0.300342	-0.255030	0.333174
C120	C	0.633676	0.078303	0.666508
C121	C	-0.044527	-0.362956	-0.042642
C122	C	0.288806	-0.029623	0.290691
C123	C	0.622139	0.303710	0.624024
C124	C	-0.043468	-0.290512	-0.042662
C125	C	0.289866	0.042821	0.290671
C126	C	0.623199	0.376155	0.624005
C127	C	-0.091425	-0.247767	-0.000241
C128	C	0.241908	0.085567	0.333092
C129	C	0.575242	0.418900	0.666425
C130	C	-0.140454	-0.277473	0.042189
C131	C	0.192879	0.055860	0.375523
C132	C	0.526212	0.389194	0.708856
C133	C	-0.141517	-0.349918	0.042205
C134	C	0.191817	-0.016585	0.375538
C135	C	0.525150	0.316748	0.708871
C136	C	-0.093546	-0.392658	-0.000214
C137	C	0.239788	-0.059325	0.333119
C138	C	0.573121	0.274009	0.666453
C139	C	-0.153047	-0.124514	-0.000269
C140	C	0.180286	0.208819	0.333065
C141	C	0.513619	0.542152	0.666398
C142	C	-0.151984	-0.052066	-0.000272
C143	C	0.181349	0.281267	0.333061
C144	C	0.514683	0.614600	0.666395
C145	C	-0.025374	-0.069026	-0.000259
C146	C	0.307960	0.264307	0.333075
C147	C	0.641293	0.597640	0.666408
C148	C	-0.026439	-0.141473	-0.000248
C149	C	0.306894	0.191860	0.333085
C150	C	0.640228	0.525194	0.666419
C151	C	-0.090278	-0.169212	-0.000256
C152	C	0.243056	0.164121	0.333077
C153	C	0.576389	0.497454	0.666410
N154	N	-0.092493	-0.820242	-0.188885
N155	N	0.240840	-0.486909	0.144448
N156	N	0.574173	-0.153575	0.477781
C157	C	-0.045137	-0.867574	0.226546
C158	C	0.288197	-0.534241	0.559879
C159	C	0.621530	-0.200907	0.893213
C160	C	-0.045134	-0.867578	0.302774
C161	C	0.288200	-0.534245	0.636107
C162	C	0.621533	-0.200912	0.969440
C163	C	-0.092488	-0.820206	0.340903
C164	C	0.240846	-0.486872	0.674237
C165	C	0.574179	-0.153539	1.007570
C166	C	-0.139836	-0.772813	0.302799
C167	C	0.193497	-0.439480	0.636132
C168	C	0.526830	-0.106146	0.969465
C169	C	-0.139834	-0.772805	0.226572
C170	C	0.193500	-0.439472	0.559906
C171	C	0.526833	-0.106139	0.893239
C172	C	-0.155775	-0.810907	0.461657
C173	C	0.177558	-0.477574	0.794990
C174	C	0.510891	-0.144241	1.128324
C175	C	-0.155779	-0.810920	0.537882
C176	C	0.177554	-0.477587	0.871215
C177	C	0.510888	-0.144253	1.204548
C178	C	-0.092496	-0.820225	0.576011
C179	C	0.240837	-0.486892	0.909344
C180	C	0.574170	-0.153559	1.242677
C181	C	-0.029207	-0.829533	0.537905
C182	C	0.304127	-0.496200	0.871239
C183	C	0.637460	-0.162866	1.204572
C184	C	-0.029204	-0.829525	0.461679
C185	C	0.304129	-0.496192	0.795012
C186	C	0.637463	-0.162859	1.128346
C187	C	-0.092496	-0.820208	0.423558
C188	C	0.240838	-0.486875	0.756891
C189	C	0.574171	-0.153542	1.090225
C190	C	-0.045144	-0.867617	0.696761
C191	C	0.288190	-0.534283	1.030094
C192	C	0.621523	-0.200950	1.363428
C193	C	-0.045140	-0.867616	0.772990
C194	C	0.288194	-0.534283	1.106324
C195	C	0.621527	-0.200949	1.439657
C196	C	-0.139849	-0.772854	0.773014
C197	C	0.193485	-0.439521	1.106347
C198	C	0.526818	-0.106187	1.439681
C199	C	-0.139847	-0.772851	0.696786
C200	C	0.193487	-0.439518	1.030119
C201	C	0.526820	-0.106184	1.363453
C202	C	-0.092495	-0.820236	0.658664
C203	C	0.240838	-0.486903	0.991998
C204	C	0.574172	-0.153569	1.325331
H205	H	0.265162	-0.937375	-0.000231
H206	H	0.598495	-0.604041	0.333103
H207	H	0.931829	-0.270708	0.666436
N208	N	-0.224038	-0.800876	0.578976
N209	N	0.109295	-0.467543	0.912309
N210	N	0.442629	-0.134210	1.245642
H211	H	-0.214439	-0.802297	0.633050
H212	H	0.118894	-0.468964	0.966383
H213	H	0.452228	-0.135630	1.299716
H214	H	-0.252872	-0.839393	0.565622
H215	H	0.080461	-0.506060	0.898955
H216	H	0.413795	-0.172727	1.232288
N217	N	0.091142	-0.693014	-0.000165
N218	N	0.424475	-0.359681	0.333168
N219	N	0.757808	-0.026348	0.666501
H220	H	0.060691	-0.690640	-0.045052
H221	H	0.394025	-0.357306	0.288282
H222	H	0.727358	-0.023973	0.621615
H223	H	0.119755	-0.652451	-0.000130
H224	H	0.453088	-0.319117	0.333203
H225	H	0.786421	0.014216	0.666536
H226	H	0.353560	-0.909175	-0.077208
H227	H	0.686893	-0.575842	0.256125
H228	H	1.020226	-0.242508	0.589458
H229	H	0.020044	-0.493322	-0.000187
H230	H	0.353377	-0.159988	0.333147
H231	H	0.686711	0.173345	0.666480
N232	N	0.039053	-0.839562	0.420581
N233	N	0.372386	-0.506229	0.753914
N234	N	0.705720	-0.172895	1.087248
H235	H	0.029449	-0.838148	0.366508
H236	H	0.362782	-0.504814	0.699841
H237	H	0.696115	-0.171481	1.033174
H238	H	0.065490	-0.886215	0.433888
H239	H	0.398824	-0.552882	0.767222
H240	H	0.732157	-0.219548	1.100555
H241	H	0.484991	-0.907244	-0.077221
H242	H	0.818325	-0.573911	0.256112
H243	H	1.151658	-0.240578	0.589446
H244	H	-0.209652	-0.462561	-0.000209
H245	H	0.123682	-0.129228	0.333125
H246	H	0.457015	0.204106	0.666458
N247	N	0.005951	-0.918698	0.655640
N248	N	0.339284	-0.585364	0.988973
N249	N	0.672617	-0.252031	1.322307
H250	H	-0.001229	-0.911501	0.601569
H251	H	0.332104	-0.578168	0.934903
H252	H	0.665437	-0.244835	1.268236
H253	H	-0.001929	-0.967953	0.668928
H254	H	0.331404	-0.634619	1.002262
H255	H	0.664738	-0.301286	1.335595
H256	H	-0.207311	-0.803318	0.430619
H257	H	0.126022	-0.469984	0.763952
H258	H	0.459355	-0.136651	1.097285
H259	H	0.580622	-0.932751	-0.000250
H260	H	0.913956	-0.599418	0.333083
H261	H	1.247289	-0.266085	0.666417
H262	H	-0.003548	-0.266331	-0.077215
H263	H	0.329785	0.067003	0.256119
H264	H	0.663119	0.400336	0.589452
N265	N	0.688623	-0.684252	-0.000208
N266	N	1.021956	-0.350919	0.333125
N267	N	1.355290	-0.017586	0.666458
H268	H	0.672320	-0.656757	0.044692
H269	H	1.005653	-0.323424	0.378025
H270	H	1.338986	0.009909	0.711358
H271	H	0.672293	-0.656821	-0.045121
H272	H	1.005627	-0.323487	0.288212
H273	H	1.338960	0.009846	0.621546
N274	N	-0.194386	-0.381965	0.087970
N275	N	0.138947	-0.048632	0.421303
N276	N	0.472281	0.284701	0.754637
H277	H	-0.243075	-0.362825	0.072128
H278	H	0.090258	-0.029492	0.405461
H279	H	0.423591	0.303842	0.738795
H280	H	-0.187665	-0.370189	0.140894
H281	H	0.145668	-0.036856	0.474227
H282	H	0.479002	0.296477	0.807561
N283	N	0.039057	-0.839587	0.579014
N284	N	0.372390	-0.506254	0.912347
N285	N	0.705724	-0.172920	1.245680
H286	H	0.067929	-0.801078	0.565774
H287	H	0.401262	-0.467745	0.899107
H288	H	0.734596	-0.134411	1.232441
H289	H	0.065458	-0.886264	0.565703
H290	H	0.398792	-0.552931	0.899036
H291	H	0.732125	-0.219598	1.232370
N292	N	-0.228449	-0.601326	-0.000201
N293	N	0.104885	-0.267993	0.333132
N294	N	0.438218	0.065341	0.666465
H295	H	-0.268051	-0.562013	-0.000217
H296	H	0.065282	-0.228680	0.333117
H297	H	0.398615	0.104653	0.666450
H298	H	-0.231653	-0.630990	0.044696
H299	H	0.101681	-0.297657	0.378029
H300	H	0.435014	0.035676	0.711362
N301	N	-0.192189	-0.231380	0.087943
N302	N	0.141145	0.101953	0.421277
N303	N	0.474478	0.435287	0.754610
H304	H	-0.184077	-0.180979	0.081500
H305	H	0.149257	0.152355	0.414833
H306	H	0.482590	0.485688	0.748166
H307	H	-0.185880	-0.244886	0.140866
H308	H	0.147453	0.088448	0.474199
H309	H	0.480787	0.421781	0.807533
H310	H	-0.006582	-0.906200	0.804008
H311	H	0.326751	-0.572866	1.137342
H312	H	0.660085	-0.239533	1.470675
N313	N	-0.190902	-0.721693	0.185485
N314	N	0.142431	-0.388360	0.518818
N315	N	0.475764	-0.055026	0.852151
H316	H	-0.240181	-0.729534	0.198734
H317	H	0.093152	-0.396200	0.532068
H318	H	0.426485	-0.062867	0.865401
H319	H	-0.183657	-0.728901	0.131423
H320	H	0.149676	-0.395568	0.464757
H321	H	0.483009	-0.062235	0.798090
N322	N	-0.190920	-0.721752	0.814128
N323	N	0.142414	-0.388419	1.147461
N324	N	0.475747	-0.055086	1.480795
H325	H	-0.183737	-0.728945	0.868198
H326	H	0.149597	-0.395611	1.201532
H327	H	0.482930	-0.062278	1.534865
H328	H	-0.240175	-0.729616	0.800789
H329	H	0.093158	-0.396282	1.134122
H330	H	0.426491	-0.062949	1.467455
H331	H	-0.005473	-0.397755	-0.077191
H332	H	0.327860	-0.064421	0.256143
H333	H	0.661194	0.268912	0.589476
N334	N	0.043473	-0.039105	-0.000255
N335	N	0.376806	0.294229	0.333078
N336	N	0.710140	0.627562	0.666412
H337	H	0.046736	-0.009449	-0.045151
H338	H	0.380069	0.323884	0.288182
H339	H	0.713403	0.657218	0.621516
H340	H	0.083037	-0.078454	-0.000215
H341	H	0.416370	0.254880	0.333119
H342	H	0.749704	0.588213	0.666452
N343	N	-0.190910	-0.721720	0.343925
N344	N	0.142424	-0.388387	0.677258
N345	N	0.475757	-0.055053	1.010591
H346	H	-0.240188	-0.729557	0.330640
H347	H	0.093145	-0.396223	0.663974
H348	H	0.426479	-0.062890	0.997307
H349	H	-0.182971	-0.672472	0.330673
H350	H	0.150362	-0.339139	0.664007
H351	H	0.483696	-0.005806	0.997340
H352	H	-0.006579	-0.906156	0.195509
H353	H	0.326755	-0.572823	0.528843
H354	H	0.660088	-0.239489	0.862176
N355	N	0.034715	-0.636572	-0.000137
N356	N	0.368048	-0.303239	0.333197
N357	N	0.701381	0.030095	0.666530
H358	H	0.062574	-0.627695	-0.045026
H359	H	0.395908	-0.294362	0.288307
H360	H	0.729241	0.038971	0.621640
H361	H	0.024300	-0.686656	-0.000101
H362	H	0.357634	-0.353323	0.333232
H363	H	0.690967	-0.019989	0.666566
H364	H	0.133736	-0.939303	-0.000212
H365	H	0.467069	-0.605970	0.333121
H366	H	0.800403	-0.272636	0.666454
H367	H	0.712049	-0.930822	-0.000273
H368	H	1.045382	-0.597489	0.333060
H369	H	1.378715	-0.264156	0.666394
N370	N	0.538036	-0.686462	-0.000205
N371	N	0.871370	-0.353129	0.333129
N372	N	1.204703	-0.019795	0.666462
H373	H	0.566605	-0.645862	-0.000196
H374	H	0.899938	-0.312529	0.333137
H375	H	1.233272	0.020805	0.666470
H376	H	0.507619	-0.684139	0.044691
H377	H	0.840953	-0.350805	0.378024
H378	H	1.174286	-0.017472	0.711358
N379	N	-0.219687	-0.003854	-0.000235
N380	N	0.113647	0.329480	0.333098
N381	N	0.446980	0.662813	0.666432
H382	H	-0.260286	-0.032423	-0.000222
H383	H	0.073047	0.300911	0.333111
H384	H	0.406380	0.634244	0.666445
H385	H	-0.222037	0.026576	-0.045116
H386	H	0.111297	0.359909	0.288218
H387	H	0.444630	0.693242	0.621551
H388	H	0.461452	-0.731250	0.076779
H389	H	0.794786	-0.397916	0.410112
H390	H	1.128119	-0.064583	0.743446
H391	H	-0.205028	-0.147101	-0.000265
H392	H	0.128305	0.186233	0.333069
H393	H	0.461638	0.519566	0.666402
N394	N	0.041261	-0.189687	-0.000227
N395	N	0.374594	0.143647	0.333107
N396	N	0.707928	0.476980	0.666440
H397	H	0.081861	-0.161118	-0.000229
H398	H	0.415194	0.172215	0.333105
H399	H	0.748528	0.505549	0.666438
H400	H	0.043578	-0.220141	-0.045112
H401	H	0.376912	0.113192	0.288221
H402	H	0.710245	0.446525	0.621555
H403	H	0.330029	-0.733180	0.076796
H404	H	0.663362	-0.399847	0.410130
H405	H	0.996696	-0.066514	0.743463
N406	N	-0.190912	-0.721743	0.655692
N407	N	0.142422	-0.388410	0.989025
N408	N	0.475755	-0.055077	1.322358
H409	H	-0.220910	-0.691732	0.691411
H410	H	0.112423	-0.358398	1.024744
H411	H	0.445757	-0.025065	1.358078
H412	H	-0.221552	-0.748230	0.624041
H413	H	0.111782	-0.414896	0.957374
H414	H	0.445115	-0.081563	1.290707
H415	H	0.234401	-0.707679	-0.000185
H416	H	0.567735	-0.374346	0.333148
H417	H	0.901068	-0.041012	0.666481
H418	H	-0.006578	-0.906165	0.333797
H419	H	0.326755	-0.572832	0.667130
H420	H	0.660089	-0.239499	1.000463
