data_functionalizedCrystal
_audit_creation_method	'MofGen! by Chris Wilmer'
_symmetry_space_group_name_H-M	'P1'
_symmetry_Int_Tables_number	1
_symmetry_cell_setting	triclinic
loop_
_symmetry_equiv_pos_as_xyz
  x,y,z
_cell_length_a	14.971486
_cell_length_b	10.654545
_cell_length_c	13.448316
_cell_angle_alpha	89.995767
_cell_angle_beta	89.998199
_cell_angle_gamma	84.049778
loop_
_atom_site_label
_atom_site_type_symbol
_atom_site_fract_x
_atom_site_fract_y
_atom_site_fract_z
O1	O	1.187838	0.163659	-0.082572
O2	O	0.927545	0.183258	-0.082599
O3	O	1.063676	-0.009345	-0.082584
O4	O	1.051708	0.356262	-0.082587
O5	O	1.063658	-0.009357	0.082800
O6	O	0.927528	0.183246	0.082785
O7	O	1.187821	0.163647	0.082812
Cu8	Cu	1.057673	0.173445	0.097899
Cu9	Cu	1.057693	0.173460	-0.097686
O10	O	1.051690	0.356250	0.082797
C11	C	0.894207	0.182375	0.000090
C12	C	0.794896	0.179749	0.000080
C13	C	1.062788	-0.056139	0.000106
C14	C	1.060158	-0.195555	0.000100
C15	C	0.738286	0.292898	0.000080
C16	C	0.644973	0.290422	0.000095
C17	C	0.608271	0.174797	0.000102
C18	C	0.664888	0.061639	0.000105
C19	C	0.758199	0.064116	0.000097
C20	C	0.470397	0.056485	0.000118
C21	C	0.377080	0.054007	0.000124
C22	C	0.357172	0.282791	0.000116
C23	C	0.450483	0.285268	0.000109
C24	C	0.507093	0.172110	0.000109
C25	C	1.060188	-0.195550	-0.180207
C26	C	1.058971	-0.261045	-0.270360
C27	C	1.056500	-0.392037	-0.270361
C28	C	1.055244	-0.457537	-0.180200
C29	C	1.056461	-0.392043	-0.090047
C30	C	1.058935	-0.261048	-0.090055
C31	C	1.056425	-0.392046	0.090257
C32	C	1.058902	-0.261055	0.090261
C33	C	1.055169	-0.457546	0.180419
C34	C	1.056393	-0.392053	0.270574
C35	C	1.058865	-0.261053	0.270571
C36	C	1.060120	-0.195560	0.180414
C37	C	1.221159	0.164530	0.000121
C38	C	1.320471	0.167156	0.000125
C39	C	1.052578	0.403044	0.000105
C40	C	1.055208	0.542460	0.000105
N41	N	1.057665	0.173435	0.235464
N42	N	1.057708	0.173460	-0.235251
C43	C	1.117963	0.088185	0.287510
C44	C	1.117968	0.088184	0.391614
C45	C	1.057680	0.173440	0.443668
C46	C	0.997376	0.258693	0.391614
C47	C	0.997366	0.258687	0.287513
C48	C	0.997400	0.258702	0.608594
C49	C	0.997410	0.258710	0.712703
C50	C	1.118002	0.088199	0.712695
C51	C	1.117993	0.088193	0.608594
C52	C	1.057690	0.173448	0.556547
H53	H	0.768161	0.387053	0.000074
O54	O	0.525261	-0.053553	0.000069
C55	C	0.472861	-0.156139	0.000096
H56	H	0.403423	-0.124365	-0.031204
H57	H	0.506781	-0.235418	-0.047928
H58	H	0.466007	-0.191590	0.079438
H59	H	0.480362	0.379420	0.000093
O60	O	0.302314	0.392832	0.000080
C61	C	0.354717	0.495416	0.000091
H62	H	0.424148	0.463645	-0.031228
H63	H	0.320789	0.574706	-0.047923
H64	H	0.361587	0.530849	0.079431
H65	H	0.948316	0.328132	0.755080
H66	H	1.167067	0.018767	0.433990
O67	O	0.341379	-0.058275	-0.000034
C68	C	0.287978	-0.066541	-0.085670
H69	H	0.310454	-0.000897	-0.145549
H70	H	0.295714	-0.167745	-0.114405
H71	H	0.214587	-0.037667	-0.066303
H72	H	1.055364	-0.445392	0.343976
O73	O	0.813321	-0.045681	0.000136
C74	C	0.903549	-0.018703	0.000105
H75	H	0.907736	0.079943	0.031412
H76	H	0.945373	-0.090818	0.048120
H77	H	0.930499	-0.023418	-0.079239
O78	O	1.055275	-0.455851	-0.357844
C79	C	1.052850	-0.585517	-0.338504
H80	H	1.024230	-0.598246	-0.261029
H81	H	1.008574	-0.627400	-0.396085
H82	H	1.123782	-0.635754	-0.342758
H83	H	1.167089	0.018778	0.566211
O84	O	0.590112	0.400452	0.000050
C85	C	0.642515	0.503035	0.000061
H86	H	0.711946	0.471264	-0.031258
H87	H	0.608587	0.582325	-0.047953
H88	H	0.649385	0.538469	0.079401
O89	O	1.052956	-0.584803	-0.180072
C90	C	1.129461	-0.642684	-0.130628
H91	H	1.156663	-0.571904	-0.077985
H92	H	1.110404	-0.727145	-0.086308
H93	H	1.183179	-0.675809	-0.187609
O94	O	0.938791	0.341642	0.558188
C95	C	0.885568	0.416876	0.626453
H96	H	0.922252	0.418380	0.700656
H97	H	0.872543	0.517137	0.596368
H98	H	0.818872	0.375950	0.637536
H99	H	0.634998	-0.032505	0.000125
O100	O	1.062555	-0.068299	-0.180384
C101	C	1.063429	-0.024536	-0.279289
H102	H	1.033746	-0.094864	-0.330348
H103	H	1.021739	0.071010	-0.284779
H104	H	1.135506	-0.014366	-0.302717
O105	O	1.060039	-0.197435	-0.357959
C106	C	0.982131	-0.215346	-0.412845
H107	H	0.927385	-0.241502	-0.360116
H108	H	0.957816	-0.124456	-0.453739
H109	H	0.998193	-0.294561	-0.469060
H110	H	1.053152	-0.564206	0.180411
H111	H	1.059842	-0.207732	0.343985
H112	H	0.948283	0.328106	0.434003
O113	O	0.938762	0.341623	0.237105
C114	C	0.885537	0.416854	0.305370
H115	H	0.922223	0.418366	0.379571
H116	H	0.872506	0.517114	0.275282
H117	H	0.818844	0.375920	0.316457
H118	H	1.167060	0.018766	0.245134
O119	O	1.062399	-0.068293	0.180537
C120	C	0.985871	-0.010424	0.229944
H121	H	0.958656	-0.081210	0.282584
H122	H	1.004902	0.074043	0.274264
H123	H	0.932173	0.022688	0.172939
O124	O	1.176545	0.005206	0.763135
C125	C	1.161232	-0.119152	0.737726
H126	H	1.126747	-0.119081	0.662148
H127	H	1.228086	-0.180831	0.734154
H128	H	1.116483	-0.158102	0.796327
