data_functionalizedCrystal
_audit_creation_method	'MofGen! by Chris Wilmer'
_symmetry_space_group_name_H-M	'P1'
_symmetry_Int_Tables_number	1
_symmetry_cell_setting	triclinic
loop_
_symmetry_equiv_pos_as_xyz
  x,y,z
_cell_length_a	19.288864
_cell_length_b	12.837942
_cell_length_c	11.892113
_cell_angle_alpha	93.960375
_cell_angle_beta	94.393524
_cell_angle_gamma	88.982593
loop_
_atom_site_label
_atom_site_type_symbol
_atom_site_fract_x
_atom_site_fract_y
_atom_site_fract_z
O1	O	0.934544	0.135189	0.094371
O2	O	0.733471	0.152624	0.094294
O3	O	0.829549	-0.006976	0.094324
O4	O	0.838467	0.294789	0.094341
O5	O	0.820836	-0.018765	-0.093687
O6	O	0.724758	0.140835	-0.093717
O7	O	0.925831	0.123401	-0.093640
Zn8	Zn	0.823911	0.130246	-0.123530
Zn9	Zn	0.835391	0.145778	0.124183
O10	O	0.829754	0.283000	-0.093670
C11	C	0.703199	0.146167	0.000279
C12	C	0.625979	0.144481	0.000249
C13	C	0.587679	0.238130	0.000272
C14	C	0.515124	0.236548	0.000284
C15	C	0.480874	0.141314	0.000296
C16	C	0.519183	0.047653	0.000267
C17	C	0.591736	0.049236	0.000243
C18	C	0.370554	0.070581	0.066199
C19	C	0.298003	0.069002	0.066229
C20	C	0.257098	0.136425	0.000364
C21	C	0.288752	0.205446	-0.065517
C22	C	0.361305	0.207030	-0.065540
C23	C	0.402203	0.139586	0.000321
C24	C	0.140125	0.228365	0.000399
C25	C	0.067569	0.226779	0.000405
C26	C	0.071630	0.037882	0.000399
C27	C	0.144184	0.039470	0.000382
C28	C	0.178427	0.134714	0.000388
C29	C	0.822180	-0.051477	0.000318
C30	C	0.813196	-0.166512	0.000316
C31	C	0.921204	-0.407971	0.000381
C32	C	0.912766	-0.516057	0.000380
C33	C	0.787882	-0.490773	0.000320
C34	C	0.796320	-0.382687	0.000322
C35	C	0.862983	-0.341290	0.000350
C36	C	0.871421	-0.233202	0.000344
C37	C	0.746538	-0.207919	0.000292
C38	C	0.738100	-0.316006	0.000291
C39	C	0.956103	0.129857	0.000378
C40	C	1.033324	0.131544	0.000415
C41	C	0.837123	0.327501	0.000339
C42	C	0.846107	0.442537	0.000348
N43	N	0.816082	0.119645	-0.292587
C44	C	0.897704	0.230190	-0.529199
C45	C	0.892236	0.222771	-0.647544
C46	C	0.799681	0.097383	-0.647622
C47	C	0.805149	0.104802	-0.529278
C48	C	0.854162	0.171209	-0.470071
C49	C	0.859626	0.178633	-0.351724
C50	C	0.767075	0.053240	-0.351805
C51	C	0.761607	0.045821	-0.470149
N52	N	0.843226	0.156371	0.293241
H53	H	0.615555	0.315685	0.000279
F54	F	0.394991	0.280482	-0.135657
F55	F	0.747525	0.026712	-0.710653
H56	H	0.255448	0.260348	-0.119151
H57	H	0.733609	-0.524497	0.000309
F58	F	0.176571	0.329730	0.000397
F59	F	0.632500	-0.050442	0.000218
F60	F	0.667156	-0.360075	0.000269
H61	H	0.975483	-0.374266	0.000393
H62	H	0.483934	0.312810	0.000300
H63	H	0.899532	0.232709	-0.303519
F64	F	0.026806	0.326457	0.000424
H65	H	0.699130	-0.153616	0.000258
F66	F	0.974733	-0.587021	0.000416
H67	H	0.491293	-0.029887	0.000292
H68	H	0.721704	-0.008248	-0.518372
F69	F	0.949865	0.300864	-0.466184
F70	F	0.938582	0.285545	-0.710469
H71	H	0.043748	-0.039655	0.000478
F72	F	0.184948	-0.060205	0.000363
H73	H	0.272236	0.012805	0.119878
F74	F	0.414082	-0.001186	0.136305
F75	F	0.720727	-0.009531	-0.288867
F76	F	0.942368	-0.189146	0.000367
