data_functionalizedCrystal
_audit_creation_method	'MofGen! by Chris Wilmer'
_symmetry_space_group_name_H-M	'P1'
_symmetry_Int_Tables_number	1
_symmetry_cell_setting	triclinic
loop_
_symmetry_equiv_pos_as_xyz
  x,y,z
_cell_length_a	18.215407
_cell_length_b	18.215405
_cell_length_c	18.215399
_cell_angle_alpha	89.970580
_cell_angle_beta	90.020595
_cell_angle_gamma	89.976259
loop_
_atom_site_label
_atom_site_type_symbol
_atom_site_fract_x
_atom_site_fract_y
_atom_site_fract_z
Zn1	Zn	-1.125077	-0.292993	-0.416123
Zn2	Zn	-0.875077	-0.042993	-0.166123
Zn3	Zn	-0.625077	0.207007	0.083877
Zn4	Zn	-0.375077	0.457007	0.333877
Zn5	Zn	-1.124988	-0.416065	-0.293054
Zn6	Zn	-0.874988	-0.166065	-0.043054
Zn7	Zn	-0.624988	0.083935	0.206946
Zn8	Zn	-0.374988	0.333935	0.456946
Zn9	Zn	-1.002010	-0.293016	-0.293069
Zn10	Zn	-0.752010	-0.043016	-0.043069
Zn11	Zn	-0.502010	0.206984	0.206931
Zn12	Zn	-0.252010	0.456984	0.456931
Zn13	Zn	-1.001978	-0.416023	-0.416077
Zn14	Zn	-0.751978	-0.166023	-0.166077
Zn15	Zn	-0.501978	0.083977	0.083923
Zn16	Zn	-0.251978	0.333977	0.333923
O17	O	-1.063513	-0.354524	-0.354581
O18	O	-0.813513	-0.104524	-0.104581
O19	O	-0.563513	0.145476	0.145419
O20	O	-0.313513	0.395476	0.395419
O21	O	-1.228050	-0.309327	-0.399811
O22	O	-0.978050	-0.059327	-0.149811
O23	O	-0.728050	0.190673	0.100189
O24	O	-0.478050	0.440673	0.350189
O25	O	-1.108651	-0.399769	-0.190072
O26	O	-0.858651	-0.149769	0.059928
O27	O	-0.608651	0.100231	0.309928
O28	O	-0.358651	0.350231	0.559928
O29	O	-1.018386	-0.190029	-0.309418
O30	O	-0.768386	0.059971	-0.059418
O31	O	-0.518386	0.309971	0.190582
O32	O	-0.268386	0.559971	0.440582
O33	O	-1.227984	-0.399747	-0.309392
O34	O	-0.977984	-0.149747	-0.059392
O35	O	-0.727984	0.100253	0.190608
O36	O	-0.477984	0.350253	0.440608
O37	O	-1.108803	-0.190012	-0.399826
O38	O	-0.858803	0.059988	-0.149826
O39	O	-0.608803	0.309988	0.100174
O40	O	-0.358803	0.559988	0.350174
O41	O	-1.018299	-0.309366	-0.190083
O42	O	-0.768299	-0.059366	0.059917
O43	O	-0.518299	0.190634	0.309917
O44	O	-0.268299	0.440634	0.559917
O45	O	-0.899021	-0.309325	-0.309373
O46	O	-0.649021	-0.059325	-0.059373
O47	O	-0.399021	0.190675	0.190627
O48	O	-0.149021	0.440675	0.440627
O49	O	-1.018332	-0.399675	-0.519068
O50	O	-0.768332	-0.149675	-0.269068
O51	O	-0.518332	0.100325	-0.019068
O52	O	-0.268332	0.350325	0.230932
O53	O	-0.898998	-0.399697	-0.399747
O54	O	-0.648998	-0.149697	-0.149747
O55	O	-0.398998	0.100303	0.100253
O56	O	-0.148998	0.350303	0.350253
O57	O	-1.108772	-0.309286	-0.519102
O58	O	-0.858772	-0.059286	-0.269102
O59	O	-0.608772	0.190714	-0.019102
O60	O	-0.358772	0.440714	0.230898
O61	O	-1.108620	-0.519043	-0.309347
O62	O	-0.858620	-0.269043	-0.059347
O63	O	-0.608620	-0.019043	0.190653
O64	O	-0.358620	0.230957	0.440653
O65	O	-1.018245	-0.519012	-0.399732
O66	O	-0.768245	-0.269012	-0.149732
O67	O	-0.518245	-0.019012	0.100268
O68	O	-0.268245	0.230988	0.350268
C69	C	-0.872307	-0.354510	-0.354557
C70	C	-0.622307	-0.104510	-0.104557
C71	C	-0.372307	0.145490	0.145443
C72	C	-0.122307	0.395490	0.395443
C73	C	-0.790508	-0.354521	-0.354565
C74	C	-0.540508	-0.104521	-0.104565
C75	C	-0.290508	0.145479	0.145435
C76	C	-0.040508	0.395479	0.395435
C77	C	-1.063439	-0.545731	-0.354549
C78	C	-0.813439	-0.295731	-0.104549
C79	C	-0.563439	-0.045731	0.145451
C80	C	-0.313439	0.204269	0.395451
C81	C	-1.063475	-0.627529	-0.354560
C82	C	-0.813475	-0.377529	-0.104560
C83	C	-0.563475	-0.127529	0.145440
C84	C	-0.313475	0.122471	0.395440
C85	C	-0.602321	-0.401650	-0.401560
C86	C	-0.352321	-0.151650	-0.151560
C87	C	-0.102321	0.098350	0.098440
C88	C	0.147679	0.348350	0.348440
C89	C	-0.525463	-0.401652	-0.401569
C90	C	-0.275463	-0.151652	-0.151569
C91	C	-0.025463	0.098348	0.098431
C92	C	0.224537	0.348348	0.348431
C93	C	-0.525457	-0.307402	-0.307604
C94	C	-0.275457	-0.057402	-0.057604
C95	C	-0.025457	0.192598	0.192396
C96	C	0.224543	0.442598	0.442396
C97	C	-0.602315	-0.307397	-0.307600
C98	C	-0.352315	-0.057397	-0.057600
C99	C	-0.102315	0.192603	0.192400
C100	C	0.147685	0.442603	0.442400
C101	C	-0.640745	-0.354526	-0.354577
C102	C	-0.390745	-0.104526	-0.104577
C103	C	-0.140745	0.145474	0.145423
C104	C	0.109255	0.395474	0.395423
C105	C	-0.487029	-0.354532	-0.354589
C106	C	-0.237029	-0.104532	-0.104589
C107	C	0.012971	0.145468	0.145411
C108	C	0.262971	0.395468	0.395411
C109	C	-0.403695	-0.354533	-0.354598
C110	C	-0.153695	-0.104533	-0.104598
C111	C	0.096305	0.145467	0.145402
C112	C	0.346305	0.395467	0.395402
C113	C	-0.724084	-0.354524	-0.354570
C114	C	-0.474084	-0.104524	-0.104570
C115	C	-0.224084	0.145476	0.145430
C116	C	0.025916	0.395476	0.395430
C117	C	-0.255466	-0.354537	-0.354602
C118	C	-0.005466	-0.104537	-0.104602
C119	C	0.244534	0.145463	0.145398
C120	C	0.494534	0.395463	0.395398
C121	C	-0.337265	-0.354536	-0.354602
C122	C	-0.087265	-0.104536	-0.104602
C123	C	0.162735	0.145464	0.145398
C124	C	0.412735	0.395464	0.395398
C125	C	-1.110671	-0.892579	-0.307596
C126	C	-0.860671	-0.642579	-0.057596
C127	C	-0.610671	-0.392579	0.192404
C128	C	-0.360671	-0.142579	0.442404
C129	C	-1.110641	-0.815720	-0.307580
C130	C	-0.860641	-0.565720	-0.057580
C131	C	-0.610641	-0.315720	0.192420
C132	C	-0.360641	-0.065720	0.442420
C133	C	-1.016447	-0.815729	-0.401615
C134	C	-0.766447	-0.565729	-0.151615
C135	C	-0.516447	-0.315729	0.098385
C136	C	-0.266447	-0.065729	0.348385
C137	C	-1.016474	-0.892586	-0.401628
C138	C	-0.766474	-0.642586	-0.151628
C139	C	-0.516474	-0.392586	0.098372
C140	C	-0.266474	-0.142586	0.348372
C141	C	-1.063590	-0.931009	-0.354619
C142	C	-0.813590	-0.681009	-0.104619
C143	C	-0.563590	-0.431009	0.145381
C144	C	-0.313590	-0.181009	0.395381
C145	C	-1.063533	-0.777293	-0.354590
C146	C	-0.813533	-0.527293	-0.104590
C147	C	-0.563533	-0.277293	0.145410
C148	C	-0.313533	-0.027293	0.395410
C149	C	-1.063500	-0.693959	-0.354572
C150	C	-0.813500	-0.443959	-0.104572
C151	C	-0.563500	-0.193959	0.145428
C152	C	-0.313500	0.056041	0.395428
C153	C	-1.063623	-1.014348	-0.354636
C154	C	-0.813623	-0.764348	-0.104636
C155	C	-0.563623	-0.514348	0.145364
C156	C	-0.313623	-0.264348	0.395364
C157	C	-1.063558	-0.354473	-0.546534
C158	C	-0.813558	-0.104473	-0.296534
C159	C	-0.563558	0.145527	-0.046534
C160	C	-0.313558	0.395527	0.203466
C161	C	-1.063577	-0.354452	-0.628333
C162	C	-0.813577	-0.104452	-0.378333
C163	C	-0.563577	0.145548	-0.128333
C164	C	-0.313577	0.395548	0.121667
C165	C	-1.063608	-0.162571	-0.354629
C166	C	-0.813608	0.087429	-0.104629
C167	C	-0.563608	0.337429	0.145371
C168	C	-0.313608	0.587429	0.395371
C169	C	-1.063648	-0.080772	-0.354649
C170	C	-0.813648	0.169228	-0.104649
C171	C	-0.563648	0.419228	0.145351
C172	C	-0.313648	0.669228	0.395351
C173	C	-1.110687	-0.307342	-0.816546
C174	C	-0.860687	-0.057342	-0.566546
C175	C	-0.610687	0.192658	-0.316546
C176	C	-0.360687	0.442658	-0.066546
C177	C	-1.110695	-0.307321	-0.893404
C178	C	-0.860695	-0.057321	-0.643404
C179	C	-0.610695	0.192679	-0.393404
C180	C	-0.360695	0.442679	-0.143404
C181	C	-1.016520	-0.401448	-0.893358
C182	C	-0.766520	-0.151448	-0.643358
C183	C	-0.516520	0.098552	-0.393358
C184	C	-0.266520	0.348552	-0.143358
C185	C	-1.016508	-0.401465	-0.816500
C186	C	-0.766508	-0.151465	-0.566500
C187	C	-0.516508	0.098535	-0.316500
C188	C	-0.266508	0.348535	-0.066500
C189	C	-1.063596	-0.354413	-0.778096
C190	C	-0.813596	-0.104413	-0.528096
C191	C	-0.563596	0.145587	-0.278096
C192	C	-0.313596	0.395587	-0.028096
C193	C	-1.063616	-0.354375	-0.931813
C194	C	-0.813616	-0.104375	-0.681813
C195	C	-0.563616	0.145625	-0.431813
C196	C	-0.313616	0.395625	-0.181813
C197	C	-1.063625	-0.354352	-1.015146
C198	C	-0.813625	-0.104352	-0.765146
C199	C	-0.563625	0.145648	-0.515146
C200	C	-0.313625	0.395648	-0.265146
C201	C	-1.063586	-0.354435	-0.694757
C202	C	-0.813586	-0.104435	-0.444757
C203	C	-0.563586	0.145565	-0.194757
C204	C	-0.313586	0.395565	0.055243
C205	C	-1.063511	-0.354522	-0.163375
C206	C	-0.813511	-0.104522	0.086625
C207	C	-0.563511	0.145478	0.336625
C208	C	-0.313511	0.395478	0.586625
C209	C	-1.063635	-0.354336	-0.081576
C210	C	-0.813635	-0.104336	0.168424
C211	C	-0.563635	0.145664	0.418424
C212	C	-0.313635	0.395664	0.668424
H213	H	-0.633609	-0.440024	-0.439814
H214	H	-0.383609	-0.190024	-0.189814
H215	H	-0.133609	0.059976	0.060186
H216	H	0.116391	0.309976	0.310186
H217	H	-0.633600	-0.269018	-0.269341
H218	H	-0.383600	-0.019018	-0.019341
H219	H	-0.133600	0.230982	0.230659
H220	H	0.116400	0.480982	0.480659
H221	H	-0.494158	-0.269033	-0.269356
H222	H	-0.244158	-0.019033	-0.019356
H223	H	0.005842	0.230967	0.230644
H224	H	0.255842	0.480967	0.480644
H225	H	-1.149026	-0.269028	-0.785279
H226	H	-0.899026	-0.019028	-0.535279
H227	H	-0.649026	0.230972	-0.285279
H228	H	-0.399026	0.480972	-0.035279
H229	H	-1.149035	-0.923860	-0.269319
H230	H	-0.899035	-0.673860	-0.019319
H231	H	-0.649035	-0.423860	0.230681
H232	H	-0.399035	-0.173860	0.480681
H233	H	-1.148977	-0.784432	-0.269288
H234	H	-0.898977	-0.534432	-0.019288
H235	H	-0.648977	-0.284432	0.230712
H236	H	-0.398977	-0.034432	0.480712
H237	H	-0.494182	-0.440025	-0.439828
H238	H	-0.244182	-0.190025	-0.189828
H239	H	0.005818	0.059975	0.060172
H240	H	0.255818	0.309975	0.310172
H241	H	-0.978132	-0.923877	-0.439921
H242	H	-0.728132	-0.673877	-0.189921
H243	H	-0.478132	-0.423877	0.060079
H244	H	-0.228132	-0.173877	0.310079
H245	H	-0.978087	-0.784437	-0.439889
H246	H	-0.728087	-0.534437	-0.189889
H247	H	-0.478087	-0.284437	0.060111
H248	H	-0.228087	-0.034437	0.310111
H249	H	-1.149040	-0.268990	-0.924706
H250	H	-0.899040	-0.018990	-0.674706
H251	H	-0.649040	0.231010	-0.424706
H252	H	-0.399040	0.481010	-0.174706
H253	H	-0.978185	-0.439757	-0.924636
H254	H	-0.728185	-0.189757	-0.674636
H255	H	-0.478185	0.060243	-0.424636
H256	H	-0.228185	0.310243	-0.174636
H257	H	-0.978156	-0.439795	-0.785194
H258	H	-0.728156	-0.189795	-0.535194
H259	H	-0.478156	0.060205	-0.285194
H260	H	-0.228156	0.310205	-0.035194
