data_functionalizedCrystal
_audit_creation_method	'MofGen! by Chris Wilmer'
_symmetry_space_group_name_H-M	'P1'
_symmetry_Int_Tables_number	1
_symmetry_cell_setting	triclinic
loop_
_symmetry_equiv_pos_as_xyz
  x,y,z
_cell_length_a	16.109301
_cell_length_b	15.995350
_cell_length_c	15.186229
_cell_angle_alpha	89.998487
_cell_angle_beta	89.999362
_cell_angle_gamma	83.476928
loop_
_atom_site_label
_atom_site_type_symbol
_atom_site_fract_x
_atom_site_fract_y
_atom_site_fract_z
O1	O	1.103160	0.107624	-0.073168
O2	O	1.603160	0.607624	0.426832
O3	O	0.861101	0.121018	-0.073182
O4	O	1.361101	0.621018	0.426818
O5	O	0.988747	-0.007569	-0.073174
O6	O	1.488747	0.492431	0.426826
O7	O	0.975514	0.236210	-0.073176
O8	O	1.475514	0.736210	0.426824
O9	O	0.988739	-0.007570	0.073283
O10	O	1.488739	0.492430	0.573283
O11	O	0.861093	0.121016	0.073275
O12	O	1.361093	0.621016	0.573275
O13	O	1.103151	0.107622	0.073289
O14	O	1.603151	0.607622	0.573289
Zn15	Zn	0.982121	0.114319	0.096535
Zn16	Zn	1.482121	0.614319	0.596535
Zn17	Zn	0.982132	0.114321	-0.096428
Zn18	Zn	1.482132	0.614321	0.403572
O19	O	0.975505	0.236208	0.073281
O20	O	1.475505	0.736208	0.573281
C21	C	0.830122	0.120474	0.000045
C22	C	1.330122	0.620474	0.500045
C23	C	0.737826	0.118848	0.000040
C24	C	1.237826	0.618848	0.500040
C25	C	0.988196	-0.038764	0.000053
C26	C	1.488196	0.461236	0.500053
C27	C	0.986556	-0.131714	0.000048
C28	C	1.486556	0.368286	0.500048
C29	C	0.515573	0.191366	0.000049
C30	C	1.015573	0.691366	0.500049
C31	C	0.428853	0.189831	0.000055
C32	C	0.928853	0.689831	0.500055
C33	C	0.448686	0.037268	0.000053
C34	C	0.948686	0.537268	0.500053
C35	C	0.535405	0.038804	0.000053
C36	C	1.035405	0.538804	0.500053
C37	C	0.568846	0.115855	0.000047
C38	C	1.068846	0.615855	0.500047
C39	C	0.395406	0.112785	0.000052
C40	C	0.895406	0.612785	0.500052
C41	C	0.301380	0.111120	0.000058
C42	C	0.801380	0.611120	0.500058
C43	C	0.662879	0.117520	0.000043
C44	C	1.162879	0.617520	0.500043
C45	C	0.980665	-0.469460	0.000050
C46	C	1.480665	0.030540	0.500050
C47	C	0.889758	-0.422001	-0.000283
C48	C	1.389758	0.077999	0.499717
C49	C	0.891399	-0.325311	0.000047
C50	C	1.391399	0.174689	0.500047
C51	C	0.983587	-0.301900	0.000049
C52	C	1.483587	0.198100	0.500049
C53	C	1.028421	-0.342991	0.083684
C54	C	1.528421	0.157009	0.583684
C55	C	1.026137	-0.439626	0.083754
C56	C	1.526137	0.060374	0.583754
C57	C	1.028025	-0.439983	-0.082795
C58	C	1.528025	0.060017	0.417205
C59	C	1.028003	-0.343037	-0.083901
C60	C	1.528003	0.156963	0.416099
C61	C	0.985243	-0.207203	0.000051
C62	C	1.485243	0.292797	0.500051
C63	C	0.979012	-0.564157	0.000054
C64	C	1.479012	-0.064157	0.500054
C65	C	1.134130	0.108166	0.000060
C66	C	1.634130	0.608166	0.500060
C67	C	1.226426	0.109792	0.000059
C68	C	1.726426	0.609792	0.500059
C69	C	0.976056	0.267404	0.000052
C70	C	1.476056	0.767404	0.500052
C71	C	0.977697	0.360354	0.000051
C72	C	1.477697	0.860354	0.500051
N73	N	0.982119	0.114317	0.228228
N74	N	1.482119	0.614317	0.728228
N75	N	0.982140	0.114317	-0.228121
N76	N	1.482140	0.614317	0.271879
C77	C	1.038660	0.057398	0.453954
C78	C	1.538660	0.557398	0.953954
C79	C	1.038662	0.057396	0.546144
C80	C	1.538662	0.557396	1.046144
C81	C	0.925593	0.171238	0.546146
C82	C	1.425593	0.671238	1.046146
C83	C	0.925587	0.171236	0.453958
C84	C	1.425587	0.671236	0.953958
C85	C	0.982125	0.114316	0.407865
C86	C	1.482125	0.614316	0.907865
C87	C	0.982134	0.114317	0.592242
C88	C	1.482134	0.614317	1.092242
C89	C	0.982136	0.114315	0.692198
C90	C	1.482136	0.614315	1.192198
C91	C	0.982122	0.114317	0.307902
C92	C	1.482122	0.614317	0.807902
H93	H	0.542798	0.254106	0.000051
H94	H	1.042798	0.754106	0.500051
C95	C	0.287114	0.255221	0.000058
C96	C	0.787114	0.755221	0.500058
C97	C	0.370294	0.272835	0.000053
C98	C	0.870294	0.772835	0.500053
H99	H	0.250964	0.306467	0.000062
H100	H	0.750964	0.806467	0.500062
H101	H	0.276980	0.223632	-0.051010
H102	H	0.776980	0.723632	0.448990
H103	H	0.276985	0.223627	0.051137
H104	H	0.776985	0.723627	0.551137
H105	H	0.380424	0.304423	-0.051029
H106	H	0.880424	0.804423	0.448971
H107	H	0.380432	0.304436	0.051126
H108	H	0.880432	0.804436	0.551126
C109	C	0.438896	-0.093236	-0.075240
C110	C	0.938896	0.406764	0.424760
C111	C	0.411925	-0.047425	0.000048
C112	C	0.911925	0.452575	0.500048
H113	H	0.416206	-0.145525	-0.075241
H114	H	0.916206	0.354475	0.424759
H115	H	0.420608	-0.062142	-0.126302
H116	H	0.920608	0.437858	0.373698
H117	H	0.498168	-0.103122	-0.075228
H118	H	0.998168	0.396878	0.424772
H119	H	0.352653	-0.037533	0.000032
H120	H	0.852653	0.462467	0.500032
H121	H	0.430209	-0.078526	0.051123
H122	H	0.930209	0.421474	0.551123
C123	C	0.776771	-0.229572	-0.053143
C124	C	1.276771	0.270428	0.446857
C125	C	0.843833	-0.286910	-0.080886
C126	C	1.343833	0.213090	0.419114
H127	H	0.747410	-0.205862	-0.103111
H128	H	1.247410	0.294138	0.396889
H129	H	0.740123	-0.257849	-0.017780
H130	H	1.240123	0.242151	0.482220
H131	H	0.797302	-0.186109	-0.019733
H132	H	1.297302	0.313891	0.480267
H133	H	0.823301	-0.330377	-0.114291
H134	H	1.323301	0.169623	0.385709
H135	H	0.880486	-0.258632	-0.116263
H136	H	1.380486	0.241368	0.383737
H137	H	0.853581	-0.441586	0.059355
H138	H	1.353581	0.058414	0.559355
C139	C	1.151768	0.039199	0.350226
C140	C	1.651768	0.539199	0.850226
C141	C	1.100761	-0.005193	0.403265
C142	C	1.600761	0.494807	0.903265
H143	H	1.190097	0.000548	0.318932
H144	H	1.690097	0.500548	0.818932
H145	H	1.118097	0.073110	0.309602
H146	H	1.618097	0.573110	0.809602
H147	H	1.181714	0.074036	0.386178
H148	H	1.681714	0.574036	0.886178
H149	H	1.070810	-0.040025	0.367312
H150	H	1.570810	0.459975	0.867312
H151	H	1.134436	-0.039118	0.443893
H152	H	1.634436	0.460882	0.943893
H153	H	0.855912	-0.297438	0.060099
H154	H	1.355912	0.202562	0.560099
H155	H	0.879546	0.217586	0.416429
H156	H	1.379546	0.717586	0.916429
H157	H	1.095050	-0.471762	-0.083356
H158	H	1.595050	0.028238	0.416644
H159	H	0.998306	-0.460513	-0.146186
H160	H	1.498306	0.039487	0.353814
C161	C	0.644443	-0.047971	-0.075236
C162	C	1.144443	0.452029	0.424764
C163	C	0.593972	-0.044203	0.000049
C164	C	1.093972	0.455797	0.500049
H165	H	0.680602	-0.099211	-0.075232
H166	H	1.180602	0.400789	0.424768
H167	H	0.610202	-0.045403	-0.126300
H168	H	1.110202	0.454597	0.373700
H169	H	0.676764	-0.001858	-0.075225
H170	H	1.176764	0.498142	0.424775
H171	H	0.561646	-0.090313	0.000034
H172	H	1.061646	0.409687	0.500034
H173	H	0.628217	-0.046779	0.051126
H174	H	1.128217	0.453221	0.551126
H175	H	0.995224	-0.315779	-0.145772
H176	H	1.495224	0.184221	0.354228
C177	C	1.119351	-0.234970	-0.095860
C178	C	1.619351	0.265030	0.404140
C179	C	1.118754	-0.322303	-0.090702
C180	C	1.618754	0.177697	0.409298
H181	H	1.175378	-0.222164	-0.100043
H182	H	1.675378	0.277836	0.399957
H183	H	1.089045	-0.214164	-0.146438
H184	H	1.589045	0.285836	0.353562
H185	H	1.094047	-0.209355	-0.044586
H186	H	1.594047	0.290645	0.455414
H187	H	1.144052	-0.347917	-0.141979
H188	H	1.644052	0.152083	0.358021
H189	H	1.149072	-0.343118	-0.040118
H190	H	1.649072	0.156882	0.459882
C191	C	0.891559	-0.505399	-0.131863
C192	C	1.391559	-0.005399	0.368137
C193	C	0.840701	-0.447009	-0.081241
C194	C	1.340701	0.052991	0.418759
H195	H	0.861268	-0.520846	-0.181840
H196	H	1.361268	-0.020846	0.318160
H197	H	0.939617	-0.480980	-0.150667
H198	H	1.439617	0.019020	0.349333
H199	H	0.908270	-0.553978	-0.097413
H200	H	1.408270	-0.053978	0.402587
H201	H	0.823994	-0.398428	-0.115689
H202	H	1.323994	0.101572	0.384311
H203	H	0.792628	-0.471427	-0.062437
H204	H	1.292628	0.028573	0.437563
C205	C	1.056716	-0.056556	0.649812
C206	C	1.556716	0.443444	1.149812
C207	C	1.100809	-0.005171	0.596805
C208	C	1.600809	0.494829	1.096805
H209	H	1.095086	-0.095187	0.681082
H210	H	1.595086	0.404813	1.181082
H211	H	1.023058	-0.022659	0.690456
H212	H	1.523058	0.477341	1.190456
H213	H	1.022113	-0.086682	0.613841
H214	H	1.522113	0.413318	1.113841
H215	H	1.135408	0.024960	0.632776
H216	H	1.635408	0.524960	1.132776
H217	H	1.134481	-0.039072	0.556156
H218	H	1.634481	0.460928	1.056156
C219	C	1.158062	-0.361432	0.163153
C220	C	1.658062	0.138568	0.663153
C221	C	1.119852	-0.323950	0.087894
C222	C	1.619852	0.176050	0.587894
H223	H	1.214509	-0.349679	0.165746
H224	H	1.714509	0.150321	0.665746
H225	H	1.129132	-0.339470	0.214106
H226	H	1.629132	0.160530	0.714106
H227	H	1.156469	-0.420569	0.160637
H228	H	1.656469	0.079431	0.660637
H229	H	1.121439	-0.264812	0.090413
H230	H	1.621439	0.235188	0.590413
H231	H	1.148790	-0.345908	0.036927
H232	H	1.648790	0.154092	0.536927
C233	C	0.957834	-0.392109	0.218162
C234	C	1.457834	0.107891	0.718162
C235	C	0.981983	-0.464327	0.168142
C236	C	1.481983	0.035673	0.668142
H237	H	0.930569	-0.407356	0.270256
H238	H	1.430569	0.092644	0.770256
H239	H	1.005850	-0.365865	0.233440
H240	H	1.505850	0.134135	0.733440
H241	H	0.920691	-0.354134	0.184713
H242	H	1.420691	0.145866	0.684713
H243	H	1.019131	-0.502299	0.201588
H244	H	1.519131	-0.002299	0.701588
H245	H	0.933960	-0.490584	0.152865
H246	H	1.433960	0.009416	0.652865
C247	C	1.125491	-0.532917	0.164918
C248	C	1.625491	-0.032917	0.664918
C249	C	1.116233	-0.483190	0.088899
C250	C	1.616233	0.016810	0.588899
H251	H	1.181110	-0.559811	0.168095
H252	H	1.681110	-0.059811	0.668095
H253	H	1.114020	-0.498395	0.215337
H254	H	1.614020	0.001605	0.715337
H255	H	1.087630	-0.574280	0.162869
H256	H	1.587630	-0.074280	0.662869
H257	H	1.154090	-0.441823	0.090951
H258	H	1.654090	0.058177	0.590951
H259	H	1.127713	-0.517715	0.038467
H260	H	1.627713	-0.017715	0.538467
H261	H	0.997275	-0.314602	0.145921
H262	H	1.497275	0.185398	0.645921
H263	H	0.879562	0.217582	0.583685
H264	H	1.379562	0.717582	1.083685
