data_functionalizedCrystal
_audit_creation_method	'MofGen! by Chris Wilmer'
_symmetry_space_group_name_H-M	'P1'
_symmetry_Int_Tables_number	1
_symmetry_cell_setting	triclinic
loop_
_symmetry_equiv_pos_as_xyz
  x,y,z
_cell_length_a	19.288859
_cell_length_b	14.971486
_cell_length_c	13.448316
_cell_angle_alpha	90.002827
_cell_angle_beta	89.994225
_cell_angle_gamma	83.373927
loop_
_atom_site_label
_atom_site_type_symbol
_atom_site_fract_x
_atom_site_fract_y
_atom_site_fract_z
O1	O	0.921715	0.111550	-0.082699
O2	O	0.719503	0.126608	-0.082696
O3	O	0.826029	-0.011150	-0.082705
O4	O	0.815189	0.249309	-0.082690
O5	O	0.826019	-0.011149	0.082679
O6	O	0.719493	0.126610	0.082688
O7	O	0.921705	0.111552	0.082684
Cu8	Cu	0.820598	0.119081	0.097787
Cu9	Cu	0.820610	0.119079	-0.097798
O10	O	0.815179	0.249310	0.082694
C11	C	0.693620	0.126125	-0.000003
C12	C	0.616511	0.124674	-0.000003
C13	C	0.052702	0.195684	0.000000
C14	C	0.125153	0.197056	-0.000005
C15	C	0.169596	0.116225	-0.000008
C16	C	0.141583	0.034017	-0.000031
C17	C	0.069133	0.032647	-0.000036
C18	C	0.290666	0.055943	0.057934
C19	C	0.363114	0.057316	0.057945
C20	C	0.393056	0.120446	0.000003
C21	C	0.350539	0.182218	-0.057938
C22	C	0.278089	0.180849	-0.057942
C23	C	0.248157	0.117701	-0.000003
C24	C	0.499620	0.204136	0.000013
C25	C	0.572073	0.205505	0.000002
C26	C	0.588502	0.042464	-0.000014
C27	C	0.516051	0.041098	-0.000013
C28	C	0.471614	0.121937	0.000006
C29	C	0.825539	-0.044472	-0.000017
C30	C	0.824086	-0.143761	-0.000029
C31	C	0.947588	0.112035	-0.000010
C32	C	1.024697	0.113486	-0.000017
C33	C	0.815669	0.282632	0.000004
C34	C	0.817122	0.381921	0.000009
N35	N	0.820594	0.119081	0.235351
C36	C	0.754541	0.439486	0.000009
C37	C	0.755910	0.532778	-0.000004
C38	C	0.819861	0.568503	-0.000011
C39	C	0.882446	0.510930	-0.000014
C40	C	0.881077	0.417640	-0.000008
C41	C	0.885297	0.705377	-0.000025
C42	C	0.886667	0.798674	-0.000029
C43	C	0.760130	0.820515	-0.000021
C44	C	0.758760	0.727225	-0.000015
C45	C	0.821347	0.669659	-0.000016
N46	N	0.820619	0.119072	-0.235363
C47	C	0.778451	0.064960	0.712597
C48	C	0.778449	0.064958	0.608493
C49	C	0.820611	0.119072	0.556433
C50	C	0.862784	0.173185	0.608481
C51	C	0.862790	0.173182	0.712582
C52	C	0.862768	0.173188	0.391501
C53	C	0.862762	0.173193	0.287392
C54	C	0.778428	0.064964	0.287412
C55	C	0.778433	0.064961	0.391513
C56	C	0.820605	0.119076	0.443554
H57	H	0.624687	-0.023350	-0.000024
O58	O	0.952801	0.643288	-0.000013
H59	H	0.955217	0.600255	-0.067419
H60	H	0.594872	0.272443	0.000008
H61	H	0.897117	0.217241	0.566085
O62	O	0.485837	-0.047558	-0.000008
H63	H	0.528911	-0.103536	0.000001
H64	H	0.744114	0.020899	0.754977
O65	O	0.955644	0.837204	-0.000050
H66	H	0.946079	0.911746	-0.000044
O67	O	0.732940	0.006594	0.231291
H68	H	0.747994	-0.064946	0.251276
O69	O	0.908243	0.231556	0.231248
H70	H	0.874980	0.279749	0.183842
H71	H	0.744097	0.020901	0.433898
O72	O	0.692623	0.882597	-0.000013
H73	H	0.662018	0.869915	-0.067408
H74	H	0.706686	0.698142	-0.000005
O75	O	0.382827	0.250310	-0.120439
H76	H	0.361962	0.319169	-0.096574
O77	O	0.908267	0.231548	0.768720
H78	H	0.937580	0.269185	0.715032
O79	O	0.688408	0.594862	0.000014
H80	H	0.657802	0.582180	-0.067380
H81	H	0.932037	0.370770	-0.000012
O82	O	0.258374	-0.012140	0.120448
H83	H	0.229619	-0.054936	0.071588
H84	H	0.397726	0.007021	0.105128
H85	H	0.177774	-0.031796	-0.000036
H86	H	0.934517	0.540025	-0.000017
O87	O	0.732963	0.006602	0.552360
H88	H	0.703638	-0.031017	0.606050
H89	H	0.016526	0.261509	0.000010
O90	O	0.155373	0.285714	0.000028
H91	H	0.112301	0.341695	0.000049
O92	O	0.232232	0.247472	-0.120427
H93	H	0.247068	0.238505	-0.199856
O94	O	0.908253	0.231550	0.447642
H95	H	0.893188	0.303093	0.427682
O96	O	0.451684	0.291320	0.000016
H97	H	0.483333	0.348710	0.000010
H98	H	0.046333	-0.034290	-0.000050
H99	H	0.702464	0.410407	0.000026
