data_functionalizedCrystal
_audit_creation_method	'MofGen! by Chris Wilmer'
_symmetry_space_group_name_H-M	'P1'
_symmetry_Int_Tables_number	1
_symmetry_cell_setting	triclinic
loop_
_symmetry_equiv_pos_as_xyz
  x,y,z
_cell_length_a	12.759401
_cell_length_b	18.101395
_cell_length_c	12.759393
_cell_angle_alpha	89.967630
_cell_angle_beta	89.979062
_cell_angle_gamma	90.032629
loop_
_atom_site_label
_atom_site_type_symbol
_atom_site_fract_x
_atom_site_fract_y
_atom_site_fract_z
Zn1	Zn	1.606147	-0.294764	-0.594006
Zn2	Zn	1.605987	-0.418623	-0.418321
Zn3	Zn	1.430445	-0.294803	-0.418342
Zn4	Zn	1.430387	-0.418571	-0.593958
O5	O	1.518242	-0.356690	-0.506157
O6	O	1.753147	-0.311199	-0.570713
O7	O	1.582659	-0.402236	-0.271302
O8	O	1.453844	-0.191165	-0.441673
O9	O	1.753030	-0.402198	-0.441637
O10	O	1.582931	-0.191136	-0.570733
O11	O	1.453689	-0.311266	-0.271318
O12	O	1.283417	-0.311216	-0.441626
O13	O	1.453744	-0.402110	-0.740986
O14	O	1.283374	-0.402148	-0.570651
O15	O	1.582874	-0.311149	-0.741021
O16	O	1.582603	-0.522249	-0.441590
O17	O	1.453590	-0.522211	-0.570630
C18	C	1.245274	-0.356681	-0.506136
C19	C	1.128498	-0.356695	-0.506152
C20	C	1.073641	-0.404115	-0.573229
C21	C	0.963917	-0.404118	-0.573250
C22	C	0.963916	-0.309278	-0.439107
C23	C	1.073638	-0.309272	-0.439092
C24	C	0.814010	-0.430691	-0.697109
C25	C	0.759149	-0.478123	-0.764177
C26	C	0.794718	-0.550396	-0.780122
C27	C	0.885145	-0.575251	-0.728983
C28	C	0.940000	-0.527823	-0.661907
C29	C	0.904433	-0.455540	-0.645982
C30	C	1.223547	-0.282707	-0.315232
C31	C	1.278404	-0.235282	-0.248150
C32	C	1.242837	-0.163008	-0.232194
C33	C	1.152407	-0.138156	-0.283315
C34	C	1.097550	-0.185581	-0.350397
C35	C	1.133124	-0.257854	-0.366354
C36	C	1.518101	-0.549101	-0.506126
C37	C	1.518137	-0.631415	-0.506148
C38	C	1.518368	-0.930506	-0.506204
C39	C	1.437384	-0.899187	-0.587594
C40	C	1.436999	-0.813570	-0.587340
C41	C	1.518253	-0.782123	-0.506177
C42	C	1.488271	-0.813282	-0.395451
C43	C	1.487748	-0.898927	-0.395938
C44	C	1.629511	-0.898846	-0.534565
C45	C	1.628857	-0.813194	-0.536994
C46	C	1.518190	-0.698264	-0.506155
C47	C	1.518428	-1.014365	-0.506219
C48	C	1.792275	-0.356700	-0.506178
C49	C	1.909051	-0.356704	-0.506187
C50	C	1.518320	-0.356619	-0.780190
C51	C	1.518354	-0.356589	-0.896967
C52	C	1.518411	-0.163528	-0.506211
C53	C	1.518484	-0.081214	-0.506234
C54	C	1.585597	-0.309218	-0.951849
C55	C	1.585614	-0.309186	-1.061573
C56	C	1.451143	-0.403902	-1.061523
C57	C	1.451121	-0.403930	-0.951801
C58	C	1.623262	-0.221811	-1.211555
C59	C	1.690521	-0.174447	-1.266441
C60	C	1.793039	-0.163090	-1.230850
C61	C	1.828318	-0.199110	-1.140375
C62	C	1.761064	-0.246479	-1.085495
C63	C	1.658532	-0.257821	-1.121084
C64	C	1.413484	-0.491306	-0.801817
C65	C	1.346235	-0.538680	-0.746935
C66	C	1.243716	-0.550044	-0.782523
C67	C	1.208441	-0.514038	-0.873002
C68	C	1.275690	-0.466664	-0.927884
C69	C	1.378208	-0.455299	-0.892288
C70	C	1.518224	-0.356708	-0.233189
C71	C	1.518394	-0.356529	-0.116413
H72	H	0.685524	-0.457879	-0.805816
O73	O	1.381790	-0.784964	-0.363055
H74	H	1.361464	-0.807373	-0.284644
O75	O	1.327877	-0.786516	-0.562453
H76	H	1.327218	-0.725200	-0.562194
O77	O	1.375945	-0.262083	-0.193012
H78	H	1.356048	-0.310181	-0.142798
H79	H	0.750043	-0.589015	-0.834732
H80	H	0.914091	-0.634106	-0.741962
O81	O	0.904757	-0.258134	-0.366767
H82	H	0.925788	-0.270767	-0.284282
H83	H	1.847802	-0.124525	-1.275546
H84	H	1.023921	-0.165337	-0.392029
H85	H	1.692386	-0.791784	-0.482034
H86	H	1.252520	-0.341556	-0.328226
O87	O	0.775628	-0.352745	-0.679882
H88	H	0.703518	-0.343442	-0.726684
O89	O	1.461671	-0.926384	-0.696779
H90	H	1.393707	-0.958086	-0.727208
H91	H	1.355504	-0.920777	-0.569045
O92	O	1.652472	-0.135586	-1.364011
H93	H	1.569874	-0.151424	-1.379528
H94	H	1.911802	-0.189865	-1.111410
H95	H	1.118304	-0.442728	-0.627836
O96	O	1.563938	-0.786302	-0.312930
H97	H	1.602929	-0.834375	-0.275587
O98	O	1.524071	-0.479057	-0.763442
H99	H	1.535702	-0.419568	-0.745876
H100	H	1.013623	-0.548060	-0.620270
O101	O	1.658104	-0.258158	-0.892700
H102	H	1.640135	-0.200029	-0.913764
O103	O	1.114037	-0.060201	-0.266119
H104	H	1.167381	-0.031397	-0.210895
O105	O	1.709540	-0.925665	-0.456150
H106	H	1.771056	-0.957759	-0.497460
O107	O	1.301585	-0.112027	-0.159260
H108	H	1.261500	-0.057657	-0.156545
O109	O	1.461766	-0.785651	-0.696108
H110	H	1.474131	-0.833322	-0.749363
H111	H	1.406503	-0.918973	-0.371913
O112	O	1.384264	-0.577482	-0.649311
H113	H	1.320275	-0.612325	-0.617122
H114	H	1.544174	-0.919647	-0.333229
O115	O	1.799093	-0.285323	-0.987911
H116	H	1.881682	-0.269468	-0.972377
H117	H	1.656845	-0.920388	-0.613930
H118	H	1.651467	-0.792826	-0.618482
O119	O	1.512679	-0.234052	-1.249932
H120	H	1.499458	-0.201056	-1.322069
O121	O	1.378631	-0.454963	-1.120664
H122	H	1.389948	-0.446991	-1.206182
H123	H	1.246960	-0.437346	-1.001557
O124	O	1.097863	-0.526284	-0.911394
H125	H	1.057023	-0.565267	-0.858025
O126	O	1.171176	-0.601140	-0.723331
H127	H	1.212923	-0.624271	-0.654435
