data_functionalizedCrystal
_audit_creation_method	'MofGen! by Chris Wilmer'
_symmetry_space_group_name_H-M	'P1'
_symmetry_Int_Tables_number	1
_symmetry_cell_setting	triclinic
loop_
_symmetry_equiv_pos_as_xyz
  x,y,z
_cell_length_a	29.839134
_cell_length_b	21.295417
_cell_length_c	21.295411
_cell_angle_alpha	90.020597
_cell_angle_beta	90.036602
_cell_angle_gamma	90.022447
loop_
_atom_site_label
_atom_site_type_symbol
_atom_site_fract_x
_atom_site_fract_y
_atom_site_fract_z
Zn1	Zn	0.686811	-0.250803	0.356118
Zn2	Zn	0.686742	-0.356055	0.250845
Zn3	Zn	0.611677	-0.250790	0.250841
Zn4	Zn	0.611657	-0.356025	0.356055
O5	O	0.649222	-0.303418	0.303465
O6	O	0.749669	-0.264782	0.342182
O7	O	0.676765	-0.342098	0.162755
O8	O	0.621681	-0.162702	0.264831
O9	O	0.749618	-0.342111	0.264838
O10	O	0.676882	-0.162712	0.342178
O11	O	0.621615	-0.264761	0.162752
O12	O	0.548808	-0.264732	0.264770
O13	O	0.621646	-0.342060	0.444153
O14	O	0.548792	-0.342047	0.342070
O15	O	0.676861	-0.264754	0.444199
O16	O	0.676744	-0.444140	0.264777
O17	O	0.621579	-0.444118	0.342074
C18	C	0.532499	-0.303385	0.303413
C19	C	0.482565	-0.303386	0.303406
C20	C	0.649164	-0.466970	0.303433
C21	C	0.649181	-0.536938	0.303441
C22	C	0.125973	-0.263100	0.263297
C23	C	0.313646	-0.263082	0.263259
O24	O	0.337907	-0.228776	0.229098
N25	N	0.337120	-0.303397	0.303437
C26	C	0.313672	-0.343715	0.343631
O27	O	0.337944	-0.378000	0.377809
C28	C	0.126000	-0.343729	0.343672
C29	C	0.102529	-0.303417	0.303486
C30	C	0.102502	-0.222791	0.223115
C31	C	0.055586	-0.222798	0.223123
C32	C	0.032142	-0.263115	0.263312
C33	C	0.055613	-0.303424	0.303494
C34	C	0.102553	-0.384044	0.383869
C35	C	0.055632	-0.384043	0.383876
C36	C	0.032161	-0.343731	0.343691
C37	C	-0.014747	-0.343748	0.343691
N38	N	-0.038220	-0.303434	0.303512
C39	C	-0.014776	-0.263117	0.263323
C40	C	0.412203	-0.343706	0.343606
C41	C	0.459120	-0.343703	0.343595
C42	C	0.459091	-0.263069	0.263223
C43	C	0.412173	-0.263076	0.263231
C44	C	0.388729	-0.303392	0.303427
C45	C	-0.113302	-0.263136	0.263341
C46	C	-0.160221	-0.263149	0.263351
C47	C	-0.160188	-0.343780	0.343724
C48	C	-0.113272	-0.343770	0.343713
C49	C	-0.089830	-0.303443	0.303519
O50	O	-0.039036	-0.378031	0.377838
O51	O	-0.039056	-0.228828	0.229160
C52	C	0.172888	-0.263093	0.263289
C53	C	0.196360	-0.303402	0.303471
C54	C	0.172915	-0.343719	0.343661
C55	C	0.243277	-0.303400	0.303460
C56	C	0.266722	-0.263083	0.263271
C57	C	0.243248	-0.222769	0.223092
C58	C	0.196333	-0.222776	0.223100
C59	C	0.196389	-0.384033	0.383839
C60	C	0.243304	-0.384023	0.383828
C61	C	0.266749	-0.343706	0.343638
C62	C	0.766400	-0.303451	0.303518
C63	C	0.816334	-0.303465	0.303540
C64	C	0.677907	-0.569752	0.343744
C65	C	0.677923	-0.635495	0.343759
C66	C	0.649217	-0.668420	0.303460
C67	C	0.620486	-0.635598	0.263154
C68	C	0.620467	-0.569857	0.263144
N69	N	0.645821	-0.771672	0.248368
N70	N	0.645841	-0.834123	0.248380
C71	C	0.649270	-0.866495	0.303489
N72	N	0.652687	-0.834056	0.358588
N73	N	0.652670	-0.771599	0.358576
C74	C	0.649234	-0.739706	0.303467
C75	C	0.678015	-0.970595	0.343812
C76	C	0.678028	-1.036338	0.343829
C77	C	0.620592	-1.036441	0.263218
C78	C	0.620577	-0.970698	0.263207
C79	C	0.649291	-0.937779	0.303503
C80	C	0.649259	-0.303405	0.467655
C81	C	0.649275	-0.303399	0.537623
C82	C	0.649291	-0.139228	0.303511
C83	C	0.649321	-0.069260	0.303530
C84	C	0.649210	-0.303386	0.139913
C85	C	0.649282	-0.303214	0.069946
C86	C	0.678024	-0.263144	0.570515
C87	C	0.678024	-0.263117	0.636258
C88	C	0.649278	-0.303356	0.669106
C89	C	0.620523	-0.343614	0.636206
C90	C	0.620522	-0.343635	0.570465
N91	N	0.645813	-0.358423	0.772321
N92	N	0.645817	-0.358400	0.834773
C93	C	0.649281	-0.303292	0.867181
N94	N	0.652750	-0.248205	0.834778
N95	N	0.652748	-0.248228	0.772321
C96	C	0.649277	-0.303336	0.740391
C97	C	0.678031	-0.263004	0.971358
C98	C	0.678028	-0.262975	1.037102
C99	C	0.620530	-0.343478	1.037049
C100	C	0.620531	-0.343501	0.971307
C101	C	0.649284	-0.303264	0.938465
H102	H	-0.094221	-0.230295	0.230615
H103	H	0.121585	-0.189957	0.190388
H104	H	0.597120	-0.376235	1.063794
C105	C	0.030099	-0.427749	0.427494
C106	C	-0.016014	-0.419120	0.418916
C107	C	-0.039548	-0.459366	0.459090
H108	H	0.037721	-0.470056	0.418246
H109	H	0.037788	-0.418587	0.469817
H110	H	-0.023701	-0.428287	0.376603
H111	H	-0.023650	-0.376822	0.428169
H112	H	-0.031859	-0.450204	0.501413
H113	H	-0.031922	-0.501670	0.449839
H114	H	-0.070838	-0.453513	0.453280
H115	H	0.262410	-0.416856	0.416551
H116	H	0.597123	-0.376285	0.944526
C117	C	0.709188	-0.219212	0.935727
C118	C	0.699424	-0.156919	0.951694
C119	C	0.728111	-0.116561	0.918878
H120	H	0.739386	-0.228344	0.946500
H121	H	0.705067	-0.224952	0.891857
H122	H	0.703549	-0.151181	0.995554
H123	H	0.669231	-0.147767	0.940919
H124	H	0.723990	-0.122301	0.875008
H125	H	0.758307	-0.125699	0.929654
H126	H	0.721488	-0.074291	0.929703
C127	C	0.170791	-0.178982	0.179567
C128	C	0.143870	-0.138694	0.215273
C129	C	0.120332	-0.098351	0.175186
H130	H	0.191423	-0.154912	0.155613
H131	H	0.152445	-0.203017	0.152113
H132	H	0.162214	-0.114661	0.242715
H133	H	0.123230	-0.162747	0.239225
H134	H	0.101986	-0.122386	0.147732
H135	H	0.140966	-0.074285	0.151234
H136	H	0.102060	-0.071015	0.199406
C137	C	0.709067	-0.671245	0.387492
C138	C	0.702929	-0.735864	0.378884
C139	C	0.731607	-0.768815	0.419164
H140	H	0.739270	-0.660519	0.378361
H141	H	0.702474	-0.660497	0.429791
H142	H	0.709526	-0.746609	0.336594
H143	H	0.672733	-0.746610	0.388019
H144	H	0.725014	-0.758067	0.461463
H145	H	0.761808	-0.758084	0.410029
H146	H	0.727444	-0.812663	0.413333
H147	H	0.393066	-0.230248	0.230511
H148	H	0.393119	-0.376538	0.376339
C149	C	0.589352	-0.534145	0.219345
C150	C	0.614793	-0.496386	0.179042
C151	C	0.586145	-0.463473	0.138690
H152	H	0.572246	-0.563095	0.195287
H153	H	0.569770	-0.508470	0.243373
H154	H	0.634367	-0.522059	0.155016
H155	H	0.631898	-0.467425	0.203083
H156	H	0.566564	-0.437798	0.162718
H157	H	0.569041	-0.492427	0.114636
H158	H	0.603403	-0.437845	0.111344
C159	C	0.709198	-0.934963	0.387639
C160	C	0.734346	-0.977775	0.422958
C161	C	0.763071	-0.944976	0.463346
H162	H	0.728816	-0.909305	0.363661
H163	H	0.692002	-0.909336	0.415066
H164	H	0.751541	-1.003391	0.395535
H165	H	0.714740	-1.003434	0.446949
H166	H	0.745875	-0.919349	0.490773
H167	H	0.782686	-0.919319	0.439363
H168	H	0.780134	-0.974019	0.487319
H169	H	0.036480	-0.189972	0.190399
C170	C	-0.185728	-0.387480	0.387335
C171	C	-0.231840	-0.378839	0.378750
C172	C	-0.255383	-0.419075	0.418923
H173	H	-0.178111	-0.429789	0.378092
H174	H	-0.178041	-0.378317	0.429659
H175	H	-0.239524	-0.388007	0.336436
H176	H	-0.239470	-0.336538	0.387998
H177	H	-0.247695	-0.409912	0.461246
H178	H	-0.247762	-0.461382	0.409676
H179	H	-0.286671	-0.413214	0.413107
C180	C	0.589376	-0.935180	0.219373
C181	C	0.564248	-0.978083	0.184071
C182	C	0.535503	-0.945388	0.143677
H183	H	0.569746	-0.909540	0.243346
H184	H	0.606556	-0.909545	0.191935
H185	H	0.547069	-1.003708	0.211505
H186	H	0.583866	-1.003725	0.160085
H187	H	0.552682	-0.919752	0.116240
H188	H	0.515875	-0.919749	0.167655
H189	H	0.518453	-0.974492	0.119716
H190	H	0.701434	-0.230333	0.663044
C191	C	0.484631	-0.219317	0.219659
C192	C	0.530743	-0.227937	0.228268
C193	C	0.554286	-0.187637	0.188160
H194	H	0.476974	-0.228422	0.177321
H195	H	0.476986	-0.177023	0.228961
H196	H	0.538385	-0.270222	0.218962
H197	H	0.538414	-0.218828	0.270598
H198	H	0.546640	-0.145342	0.197461
H199	H	0.546625	-0.196745	0.145824
H200	H	0.585575	-0.193476	0.193999
C201	C	0.589364	-0.387281	0.671980
C202	C	0.595528	-0.378660	0.736595
C203	C	0.566835	-0.418880	0.769568
H204	H	0.559164	-0.378103	0.661260
H205	H	0.595926	-0.429594	0.661245
H206	H	0.588964	-0.336356	0.747326
H207	H	0.625723	-0.387842	0.747334
H208	H	0.573396	-0.461194	0.758833
H209	H	0.536636	-0.409700	0.758842
H210	H	0.571016	-0.413041	0.813412
H211	H	-0.179329	-0.230321	0.230625
H212	H	0.478227	-0.376536	0.376311
C213	C	0.171020	-0.427882	0.427496
C214	C	0.201624	-0.463194	0.462664
C215	C	0.178274	-0.503606	0.502880
H216	H	0.152734	-0.403923	0.455030
H217	H	0.152711	-0.455313	0.403381
H218	H	0.219926	-0.435766	0.486777
H219	H	0.219912	-0.487166	0.435146
H220	H	0.159964	-0.531037	0.478765
H221	H	0.159988	-0.479642	0.530410
H222	H	0.199035	-0.527574	0.526742
C223	C	0.268789	-0.179019	0.179527
C224	C	0.314900	-0.187637	0.188138
C225	C	0.338444	-0.147339	0.148028
H226	H	0.261132	-0.188128	0.137189
H227	H	0.261142	-0.136724	0.188824
H228	H	0.322544	-0.229922	0.178837
H229	H	0.322570	-0.178523	0.230468
H230	H	0.330797	-0.105044	0.157326
H231	H	0.330784	-0.156452	0.105693
H232	H	0.369733	-0.153177	0.153870
H233	H	0.121655	-0.416871	0.416592
C234	C	0.709166	-0.219183	1.072846
C235	C	0.683746	-0.178800	1.110549
C236	C	0.712414	-0.138442	1.143477
H237	H	0.728740	-0.243183	1.098563
H238	H	0.726280	-0.195189	1.043886
H239	H	0.666640	-0.202791	1.139505
H240	H	0.664174	-0.154786	1.084847
H241	H	0.729528	-0.114448	1.114517
H242	H	0.731986	-0.162447	1.169191
H243	H	0.695171	-0.111033	1.169058
C244	C	0.709181	-0.219341	0.534903
C245	C	0.699412	-0.157055	0.550891
C246	C	0.728099	-0.116681	0.518094
H247	H	0.739379	-0.228473	0.545677
H248	H	0.705064	-0.225065	0.491030
H249	H	0.703533	-0.151333	0.594754
H250	H	0.669219	-0.147903	0.540115
H251	H	0.723982	-0.122406	0.474221
H252	H	0.758295	-0.125818	0.528871
H253	H	0.721471	-0.074415	0.528933
C254	C	0.709096	-0.534126	0.387564
C255	C	0.734250	-0.576940	0.422875
C256	C	0.762981	-0.544143	0.463254
H257	H	0.728711	-0.508468	0.363581
H258	H	0.691906	-0.508499	0.414997
H259	H	0.751439	-0.602556	0.395445
H260	H	0.714646	-0.602599	0.446871
H261	H	0.745790	-0.518516	0.490687
H262	H	0.782593	-0.518487	0.439266
H263	H	0.780048	-0.573187	0.487221
H264	H	0.597112	-0.662410	0.230344
C265	C	0.709244	-1.072051	0.387487
C266	C	0.738049	-1.109795	0.351893
C267	C	0.766808	-1.142709	0.392089
H268	H	0.726385	-1.043101	0.411497
H269	H	0.692069	-1.097735	0.414884
H270	H	0.755223	-1.084112	0.324506
H271	H	0.720921	-1.138756	0.327884
H272	H	0.749633	-1.168394	0.419486
H273	H	0.783946	-1.113755	0.416097
H274	H	0.786353	-1.168326	0.367944
H275	H	0.597217	-1.063248	0.230410
H276	H	0.597108	-0.376415	0.543685
H277	H	-0.094161	-0.376600	0.376431
