data_functionalizedCrystal
_audit_creation_method	'MofGen! by Chris Wilmer'
_symmetry_space_group_name_H-M	'P1'
_symmetry_Int_Tables_number	1
_symmetry_cell_setting	triclinic
loop_
_symmetry_equiv_pos_as_xyz
  x,y,z
_cell_length_a	10.654558
_cell_length_b	10.654550
_cell_length_c	16.053789
_cell_angle_alpha	92.864522
_cell_angle_beta	92.865162
_cell_angle_gamma	84.486610
loop_
_atom_site_label
_atom_site_type_symbol
_atom_site_fract_x
_atom_site_fract_y
_atom_site_fract_z
O1	O	1.672599	0.181211	0.069416
O2	O	1.307122	0.198007	0.069420
O3	O	1.498263	0.006870	0.069415
O4	O	1.481457	0.372348	0.069421
O5	O	1.488717	-0.002664	-0.069445
O6	O	1.297576	0.188473	-0.069440
O7	O	1.663053	0.171678	-0.069444
Zn8	Zn	1.478799	0.178562	-0.091489
Zn9	Zn	1.491376	0.191123	0.091465
O10	O	1.471912	0.362815	-0.069439
C11	C	1.255551	0.192005	-0.000009
C12	C	1.116109	0.188309	-0.000008
C13	C	0.924773	0.188310	0.075684
C14	C	1.055796	0.191772	0.075685
C15	C	1.045393	0.181371	-0.075707
C16	C	0.914374	0.177900	-0.075707
C17	C	0.864466	0.191786	0.151383
C18	C	0.935173	0.198721	0.227082
C19	C	1.066196	0.202183	0.227083
C20	C	1.126512	0.198710	0.151384
C21	C	1.492256	-0.044695	-0.000014
C22	C	1.488565	-0.184138	-0.000011
C23	C	1.601105	-0.263621	-0.000015
C24	C	1.597629	-0.394641	-0.000009
C25	C	1.369061	-0.366684	0.000001
C26	C	1.372539	-0.235665	0.000001
C27	C	1.717131	-0.212093	-0.000027
C28	C	1.829681	-0.291577	-0.000032
C29	C	1.826205	-0.422598	-0.000026
C30	C	1.710179	-0.474134	-0.000015
C31	C	1.714624	0.177680	-0.000013
C32	C	1.854067	0.181376	-0.000009
C33	C	1.477919	0.414380	-0.000008
C34	C	1.481611	0.553823	-0.000005
N35	N	1.470225	0.169989	-0.216349
C36	C	1.544056	0.243875	-0.260039
C37	C	1.538075	0.237870	-0.347446
C38	C	1.458256	0.157984	-0.391162
C39	C	1.384422	0.084090	-0.347466
C40	C	1.390410	0.090089	-0.260060
C41	C	1.432114	0.131791	-0.652573
C42	C	1.426128	0.125800	-0.739985
C43	C	1.579785	0.279579	-0.739959
C44	C	1.585760	0.285577	-0.652552
C45	C	1.511931	0.211677	-0.608864
N46	N	1.452137	0.151847	-0.480506
N47	N	1.518057	0.217809	-0.519521
N48	N	1.499960	0.199686	0.216325
H49	H	0.856800	0.172278	-0.137343
C50	C	1.631865	0.331744	-0.211960
H51	H	1.674989	0.374876	-0.250502
H52	H	1.583247	0.391408	-0.177863
H53	H	1.691557	0.283142	-0.177863
H54	H	0.886057	0.201541	0.288713
C55	C	1.619285	0.319150	-0.395502
H56	H	1.667668	0.367597	-0.356948
H57	H	1.674307	0.265887	-0.429594
H58	H	1.565975	0.374132	-0.429601
H59	H	1.123764	0.207818	0.288721
C60	C	1.949998	-0.510031	-0.000021
H61	H	1.931315	-0.595441	-0.000009
H62	H	1.994198	-0.497634	-0.048445
H63	H	2.000850	-0.490967	0.048408
H64	H	1.650761	0.350624	-0.616965
C65	C	1.706357	-0.618254	-0.000004
H66	H	1.790000	-0.658213	-0.000010
H67	H	1.666691	-0.639401	0.048420
H68	H	1.660036	-0.646061	-0.048433
H69	H	1.274598	-0.408656	0.000008
C70	C	1.270636	0.202504	0.151386
H71	H	1.304111	0.207132	0.207309
H72	H	1.307284	0.128259	0.123428
H73	H	1.289423	0.274486	0.123434
C74	C	1.661000	0.360849	-0.788018
H75	H	1.646013	0.345830	-0.846334
H76	H	1.639397	0.447548	-0.773692
H77	H	1.747711	0.339285	-0.773684
C78	C	1.338294	0.037951	-0.788071
H79	H	1.295179	-0.005201	-0.749534
H80	H	1.278614	0.086568	-0.822158
H81	H	1.386904	-0.021718	-0.822177
H82	H	1.719974	-0.105411	-0.000034
H83	H	1.280898	-0.170948	0.000003
H84	H	1.094512	0.178545	-0.137337
H85	H	1.924147	-0.249606	-0.000019
C86	C	1.350893	0.050517	-0.604527
H87	H	1.302488	0.002095	-0.643083
H88	H	1.404185	-0.004469	-0.570426
H89	H	1.295871	0.103794	-0.570435
H90	H	0.757781	0.188972	0.151390
H91	H	1.319437	0.019039	-0.383066
H92	H	1.330288	0.029923	-0.224489
