data_functionalizedCrystal
_audit_creation_method	'MofGen! by Chris Wilmer'
_symmetry_space_group_name_H-M	'P1'
_symmetry_Int_Tables_number	1
_symmetry_cell_setting	triclinic
loop_
_symmetry_equiv_pos_as_xyz
  x,y,z
_cell_length_a	21.883469
_cell_length_b	21.882911
_cell_length_c	21.879399
_cell_angle_alpha	60.006540
_cell_angle_beta	60.013207
_cell_angle_gamma	59.992231
loop_
_atom_site_label
_atom_site_type_symbol
_atom_site_fract_x
_atom_site_fract_y
_atom_site_fract_z
O1	O	0.084645	-0.892842	0.746620
O2	O	0.031867	-0.695139	0.601571
O3	O	0.157054	-0.820237	0.601476
O4	O	-0.040542	-0.767744	0.746716
O5	O	0.198586	-0.778715	0.642912
O6	O	0.073399	-0.653617	0.643007
O7	O	0.126177	-0.851320	0.788056
Cu8	Cu	0.103580	-0.748677	0.719315
Cu9	Cu	0.054464	-0.797782	0.670313
O10	O	0.000990	-0.726222	0.788151
N11	N	0.138128	-0.714145	0.753785
N12	N	0.019923	-0.832320	0.635843
C13	C	0.190018	-0.547369	0.805644
C14	C	0.190029	-0.662289	0.805630
C15	C	0.218780	-0.633565	0.834353
C16	C	0.344122	-0.611968	0.768360
C17	C	0.422474	-0.638085	0.742222
C18	C	0.422504	-0.764859	0.790561
C19	C	0.344154	-0.738739	0.816702
C20	C	0.208899	-0.508180	0.728617
C21	C	0.182748	-0.429822	0.702522
C22	C	0.118843	-0.429847	0.830485
C23	C	0.144993	-0.508205	0.856580
C24	C	0.112994	-0.643364	0.824587
C25	C	0.086865	-0.669476	0.798467
C26	C	0.214799	-0.733437	0.734451
C27	C	0.240932	-0.707325	0.760562
C28	C	0.113084	-0.643389	0.959747
C29	C	0.087018	-0.669524	1.038102
C30	C	0.214996	-0.733501	1.038048
C31	C	0.241061	-0.707367	0.959690
C32	C	0.190103	-0.662308	0.920542
C33	C	0.304966	-0.662293	0.805598
C34	C	-0.117460	-0.854702	0.612901
C35	C	-0.002405	-0.854864	0.498145
C36	C	-0.002621	-0.969735	0.613108
C37	C	-0.002603	-0.854858	0.613180
C38	C	-0.031272	-0.883541	0.584334
N39	N	0.460550	-0.714150	0.753681
O40	O	0.699805	-0.721060	0.574973
O41	O	0.700047	-0.866553	0.772482
O42	O	0.699952	-0.866219	0.647213
O43	O	0.699900	-0.721394	0.700242
O44	O	0.575478	-0.824800	0.688791
O45	O	0.575573	-0.825134	0.814060
O46	O	0.575331	-0.679641	0.616551
Cu47	Cu	0.564087	-0.748606	0.719102
Cu48	Cu	0.711292	-0.797588	0.669931
O49	O	0.575426	-0.679975	0.741820
N50	N	0.814828	-0.832044	0.635345
N51	N	0.138106	-0.391772	0.753815
O52	O	-0.040520	-0.152377	0.746758
O53	O	0.156993	-0.152371	0.601281
O54	O	0.031698	-0.152390	0.601639
O55	O	0.084775	-0.152358	0.746401
O56	O	0.073234	-0.276876	0.643130
O57	O	0.198529	-0.276856	0.642772
O58	O	0.001015	-0.276863	0.788249
Cu59	Cu	0.103564	-0.288226	0.719299
Cu60	Cu	0.054444	-0.141007	0.670231
O61	O	0.126310	-0.276844	0.787892
N62	N	0.019892	-0.037461	0.635717
N63	N	0.138332	-0.714192	1.076133
O64	O	0.131293	-0.892804	1.315506
O65	O	-0.014162	-0.695219	1.315533
O66	O	-0.013826	-0.820490	1.315480
O67	O	0.130957	-0.767533	1.315559
O68	O	0.027651	-0.778981	1.191001
O69	O	0.027314	-0.653710	1.191054
O70	O	0.172770	-0.851295	1.191026
Cu71	Cu	0.103829	-0.748713	1.179674
Cu72	Cu	0.054778	-0.797802	1.326885
O73	O	0.172434	-0.726024	1.191079
N74	N	0.020275	-0.832331	1.430426
C75	C	0.047687	-0.649466	0.602306
C76	C	0.202716	-0.804385	0.602188
C77	C	0.110357	-0.896993	0.787321
C78	C	-0.044672	-0.742074	0.787439
C79	C	0.637839	-0.865879	0.818154
C80	C	0.637724	-0.865466	0.663023
C81	C	0.637536	-0.680313	0.570880
C82	C	0.637655	-0.680728	0.726010
C83	C	0.202592	-0.214459	0.601942
C84	C	0.047481	-0.214636	0.602435
C85	C	-0.044635	-0.214620	0.787537
C86	C	0.110528	-0.214598	0.787096
C87	C	-0.013455	-0.649572	1.253296
C88	C	-0.013030	-0.804697	1.253206
C89	C	0.172063	-0.896942	1.253263
C90	C	0.171648	-0.741808	1.253325
H91	H	0.024299	-0.654107	1.070013
H92	H	0.121632	-0.953785	0.832877
O93	O	0.034162	-0.581750	0.547933
C94	C	-0.026449	-0.568381	0.530717
H95	H	-0.032400	-0.623975	0.547226
H96	H	-0.015858	-0.538024	0.468076
H97	H	-0.080101	-0.532333	0.562925
O98	O	-0.112407	-0.728596	0.841783
C99	C	-0.158923	-0.655055	0.814718
H100	H	-0.122882	-0.619515	0.766651
H101	H	-0.194776	-0.629991	0.861687
H102	H	-0.196724	-0.656189	0.793931
H103	H	0.256252	-0.770113	0.697763
H104	H	0.217133	-0.730478	1.253340
H105	H	-0.058496	-0.816008	1.253133
H106	H	0.303660	-0.722726	0.745118
H107	H	-0.101359	-0.214623	0.833209
H108	H	0.217732	-0.953686	1.253245
H109	H	0.121892	-0.214588	0.832572
H110	H	0.071582	-0.606692	0.927876
O111	O	0.201053	-0.391830	0.627676
C112	C	0.174217	-0.410952	0.595146
H113	H	0.166567	-0.467850	0.632289
H114	H	0.216180	-0.413617	0.537502
H115	H	0.118206	-0.366854	0.589343
H116	H	0.256495	-0.770176	1.069914
O117	O	-0.067867	-0.581845	1.253337
C118	C	-0.040921	-0.535270	1.253347
H119	H	0.007126	-0.571270	1.276922
H120	H	-0.087956	-0.499408	1.289493
H121	H	-0.020146	-0.497471	1.193635
H122	H	0.637900	-0.911553	0.874882
O123	O	0.315906	-0.725793	0.921724
C124	C	0.355289	-0.771177	0.973083
H125	H	0.317947	-0.761185	1.028946
H126	H	0.407572	-0.756493	0.950429
H127	H	0.372193	-0.832552	0.981403
O128	O	0.637712	-0.919653	0.649378
C129	C	0.637659	-0.892391	0.575809
H130	H	0.614040	-0.828636	0.556140
H131	H	0.601531	-0.915203	0.574744
H132	H	0.697361	-0.911289	0.537055
H133	H	0.071542	-0.606694	0.861281
H134	H	0.259199	-0.214112	0.556156
O135	O	0.012008	-0.651059	0.816980
C136	C	-0.027318	-0.605700	0.862348
H137	H	0.010078	-0.615701	0.890814
H138	H	-0.079580	-0.620402	0.906695
H139	H	-0.044255	-0.544319	0.826223
H140	H	0.637457	-0.634634	0.514159
H141	H	0.454413	-0.827107	0.799589
O142	O	0.306232	-0.787724	0.852829
C143	C	0.357625	-0.860800	0.857033
H144	H	0.413458	-0.857818	0.810744
H145	H	0.334978	-0.892956	0.849944
H146	H	0.365996	-0.890715	0.913809
H147	H	0.454353	-0.597104	0.711898
H148	H	0.637644	-0.635235	0.737357
O149	O	0.306174	-0.537689	0.757541
C150	C	0.357542	-0.498872	0.719049
H151	H	0.413409	-0.539091	0.728073
H152	H	0.334914	-0.451618	0.741238
H153	H	0.365839	-0.474518	0.656712
H154	H	0.082193	-0.397958	0.871963
O155	O	0.252556	-0.546310	0.679216
C156	C	0.216938	-0.591624	0.690493
H157	H	0.175565	-0.603372	0.749960
H158	H	0.260688	-0.646720	0.681762
H159	H	0.185761	-0.561422	0.648875
O160	O	0.126612	-0.546163	0.931434
C161	C	0.081246	-0.494793	0.970795
H162	H	0.091218	-0.438931	0.933432
H163	H	0.095964	-0.517443	1.023076
H164	H	0.019875	-0.486465	0.987704
O165	O	0.270472	-0.817842	0.547865
C166	C	0.316974	-0.891397	0.574917
H167	H	0.296662	-0.911216	0.638670
H168	H	0.376948	-0.892352	0.552003
H169	H	0.314916	-0.930101	0.555953
H170	H	0.036114	-0.214639	0.556956
