data_functionalizedCrystal
_audit_creation_method	'MofGen! by Chris Wilmer'
_symmetry_space_group_name_H-M	'P1'
_symmetry_Int_Tables_number	1
_symmetry_cell_setting	triclinic
loop_
_symmetry_equiv_pos_as_xyz
  x,y,z
_cell_length_a	21.395362
_cell_length_b	12.827892
_cell_length_c	21.395355
_cell_angle_alpha	90.013138
_cell_angle_beta	90.043940
_cell_angle_gamma	90.031272
loop_
_atom_site_label
_atom_site_type_symbol
_atom_site_fract_x
_atom_site_fract_y
_atom_site_fract_z
Zn1	Zn	0.957926	-0.415711	0.354609
Zn2	Zn	1.457926	0.084289	0.854609
Zn3	Zn	0.957857	-0.590438	0.249841
Zn4	Zn	1.457857	-0.090438	0.749841
Zn5	Zn	0.853141	-0.415760	0.249810
Zn6	Zn	1.353141	0.084240	0.749810
Zn7	Zn	0.853138	-0.590459	0.354546
Zn8	Zn	1.353138	-0.090459	0.854546
O9	O	0.905516	-0.503092	0.302202
O10	O	1.405516	-0.003092	0.802202
O11	O	1.045595	-0.438860	0.340751
O12	O	1.545595	0.061140	0.840751
O13	O	0.943938	-0.567278	0.162159
O14	O	1.443938	-0.067278	0.662159
O15	O	0.867071	-0.269517	0.263725
O16	O	1.367071	0.230483	0.763725
O17	O	1.045544	-0.567231	0.263778
O18	O	1.545544	-0.067231	0.763778
O19	O	0.944056	-0.269482	0.340721
O20	O	1.444056	0.230518	0.840721
O21	O	0.867004	-0.438943	0.162137
O22	O	1.367004	0.061057	0.662137
O23	O	0.765463	-0.438963	0.263664
O24	O	1.265463	0.061037	0.763664
O25	O	0.867067	-0.567267	0.442232
O26	O	1.367067	-0.067267	0.942232
O27	O	0.765461	-0.567314	0.340613
O28	O	1.265461	-0.067314	0.840613
O29	O	0.944054	-0.438881	0.442279
O30	O	1.444054	0.061119	0.942279
O31	O	0.943935	-0.736677	0.263717
O32	O	1.443935	-0.236677	0.763717
O33	O	0.866999	-0.736692	0.340643
O34	O	1.366999	-0.236692	0.840643
C35	C	0.742728	-0.503147	0.302129
C36	C	1.242728	-0.003147	0.802129
C37	C	0.673087	-0.503196	0.302113
C38	C	1.173087	-0.003196	0.802113
C39	C	0.905476	-0.774602	0.302191
C40	C	1.405476	-0.274602	0.802191
C41	C	0.905517	-0.890755	0.302207
C42	C	1.405517	-0.390755	0.802207
C43	C	0.640389	-0.570117	0.342120
C44	C	1.140389	-0.070117	0.842120
C45	C	0.574953	-0.570091	0.342148
C46	C	1.074953	-0.070091	0.842148
C47	C	0.542218	-0.503156	0.302157
C48	C	1.042218	-0.003156	0.802157
C49	C	0.574924	-0.436222	0.262147
C50	C	1.074924	0.063778	0.762147
C51	C	0.640358	-0.436242	0.262125
C52	C	1.140358	0.063758	0.762125
C53	C	0.438492	-0.494737	0.245752
C54	C	0.938492	0.005263	0.745752
C55	C	0.373059	-0.494724	0.245773
C56	C	0.873059	0.005276	0.745773
C57	C	0.340398	-0.503088	0.302227
C58	C	0.840398	-0.003088	0.802227
C59	C	0.373177	-0.511486	0.358661
C60	C	0.873177	-0.011486	0.858661
C61	C	0.438611	-0.511506	0.358638
C62	C	0.938611	-0.011506	0.858638
C63	C	0.471266	-0.503126	0.302177
C64	C	0.971266	-0.003126	0.802177
C65	C	0.236747	-0.569984	0.342268
C66	C	0.736747	-0.069984	0.842268
C67	C	0.171311	-0.569951	0.342297
C68	C	0.671311	-0.069951	0.842297
C69	C	0.171283	-0.436087	0.262290
C70	C	0.671283	0.063913	0.762290
C71	C	0.236718	-0.436115	0.262267
C72	C	0.736718	0.063885	0.762267
C73	C	0.269446	-0.503069	0.302255
C74	C	0.769446	-0.003069	0.802255
C75	C	0.943633	-0.942497	0.264184
C76	C	1.443633	-0.442497	0.764184
C77	C	0.943675	-1.062548	0.264200
C78	C	1.443675	-0.562548	0.764200
C79	C	1.068939	-0.503037	0.302275
C80	C	1.568939	-0.003037	0.802275
C81	C	1.138580	-0.503014	0.302306
C82	C	1.638580	-0.003014	0.802306
C83	C	0.905568	-0.503071	0.465625
C84	C	1.405568	-0.003071	0.965625
C85	C	0.905590	-0.503062	0.535266
C86	C	1.405590	-0.003062	1.035266
C87	C	0.905572	-0.230522	0.302227
C88	C	1.405572	0.269478	0.802227
C89	C	0.905596	-0.114369	0.302237
C90	C	1.405596	0.385631	0.802237
C91	C	0.905500	-0.503038	0.139414
C92	C	1.405500	-0.003038	0.639414
C93	C	0.905599	-0.502752	0.069773
C94	C	1.405599	-0.002752	0.569773
C95	C	0.945675	-0.436208	0.568005
C96	C	1.445675	0.063792	1.068005
C97	C	0.945674	-0.436163	0.633440
C98	C	1.445674	0.063837	1.133440
C99	C	0.905595	-0.502991	0.666135
C100	C	1.405595	-0.002991	1.166135
C101	C	0.865501	-0.569849	0.633389
C102	C	1.365501	-0.069849	1.133389
C103	C	0.865499	-0.569885	0.567954
C104	C	1.365499	-0.069885	1.067954
C105	C	0.900634	-0.597087	0.769804
C106	C	1.400634	-0.097087	1.269804
C107	C	0.900641	-0.597053	0.835237
C108	C	1.400641	-0.097053	1.335237
C109	C	0.905598	-0.502880	0.867956
C110	C	1.405598	-0.002880	1.367956
C111	C	0.910563	-0.408738	0.835233
C112	C	1.410563	0.091262	1.335233
C113	C	0.910560	-0.408774	0.769799
C114	C	1.410560	0.091226	1.269799
C115	C	0.905592	-0.502959	0.737087
C116	C	1.405592	-0.002959	1.237087
C117	C	0.945685	-0.435972	0.971646
C118	C	1.445685	0.064028	1.471646
C119	C	0.945680	-0.435925	1.037083
C120	C	1.445680	0.064075	1.537083
C121	C	0.865510	-0.569621	1.037030
C122	C	1.365510	-0.069621	1.537030
C123	C	0.865512	-0.569658	0.971595
C124	C	1.365512	-0.069658	1.471595
C125	C	0.905603	-0.502835	0.938907
C126	C	1.405603	-0.002835	1.438907
H127	H	0.667032	-0.624635	0.374682
H128	H	1.167032	-0.124635	0.874682
C129	C	0.987760	-1.122658	0.220219
C130	C	1.487760	-0.622658	0.720219
N131	N	1.020967	-1.167937	0.187091
N132	N	1.520967	-0.667937	0.687091
C133	C	0.538914	-0.362593	0.218158
C134	C	1.038914	0.137407	0.718158
N135	N	0.511791	-0.307130	0.185024
N136	N	1.011791	0.192870	0.685024
C137	C	0.989768	-0.362687	0.532051
C138	C	1.489768	0.137313	1.032051
N139	N	1.022977	-0.307305	0.504971
N140	N	1.522977	0.192695	1.004971
H141	H	0.144630	-0.381582	0.229732
H142	H	0.644630	0.118418	0.729732
H143	H	0.548326	-0.624586	0.374729
H144	H	1.048326	-0.124586	0.874729
C145	C	0.989778	-0.362375	1.073095
C146	C	1.489778	0.137625	1.573095
N147	N	1.022995	-0.306976	1.100220
N148	N	1.522995	0.193024	1.600220
H149	H	0.914601	-0.332121	0.743159
H150	H	1.414601	0.167879	1.243159
H151	H	0.976236	-0.897922	0.231621
H152	H	1.476236	-0.397922	0.731621
C153	C	0.474413	-0.485541	0.183644
C154	C	0.974413	0.014459	0.683644
N155	N	0.501468	-0.478616	0.136866
N156	N	1.001468	0.021384	0.636866
C157	C	0.989777	-0.362622	0.669459
C158	C	1.489777	0.137378	1.169459
N159	N	1.022997	-0.307234	0.696587
N160	N	1.522997	0.192766	1.196587
C161	C	0.916015	-0.305139	0.871219
C162	C	1.416015	0.194861	1.371219
N163	N	0.920123	-0.227112	0.898326
N164	N	1.420123	0.272888	1.398326
C165	C	0.989780	-0.362457	0.935687
C166	C	1.489780	0.137543	1.435687
N167	N	1.022991	-0.307083	0.908605
N168	N	1.522991	0.192917	1.408605
C169	C	0.676327	-0.362626	0.218109
C170	C	1.176327	0.137374	0.718109
N171	N	0.703419	-0.307180	0.184953
N172	N	1.203419	0.192820	0.684953
C173	C	0.821422	-0.643133	1.072991
C174	C	1.321422	-0.143133	1.572991
N175	N	0.788213	-0.698504	1.100079
N176	N	1.288213	-0.198504	1.600079
C177	C	0.474666	-0.520742	0.420714
C178	C	0.974666	-0.020742	0.920714
N179	N	0.501822	-0.527698	0.467471
N180	N	1.001822	-0.027698	0.967471
H181	H	0.872959	-1.069879	0.334790
H182	H	1.372959	-0.569879	0.834790
H183	H	0.346585	-0.518294	0.404631
H184	H	0.846585	-0.018294	0.904631
C185	C	0.861472	-0.950973	0.346201
C186	C	1.361472	-0.450973	0.846201
N187	N	0.828296	-0.996328	0.379338
N188	N	1.328296	-0.496328	0.879338
H189	H	0.832874	-0.624104	0.944939
H190	H	1.332874	-0.124104	1.444939
H191	H	0.896602	-0.673709	0.861874
H192	H	1.396602	-0.173709	1.361874
C193	C	0.821401	-0.643435	0.531941
C194	C	1.321401	-0.143435	1.031941
N195	N	0.788187	-0.698835	0.504815
N196	N	1.288187	-0.198835	1.004815
H197	H	0.896429	-0.673754	0.743170
H198	H	1.396429	-0.173754	1.243170
H199	H	0.832866	-0.624257	0.660013
H200	H	1.332866	-0.124257	1.160013
C201	C	0.272751	-0.643622	0.386262
C202	C	0.772751	-0.143622	0.886262
N203	N	0.299867	-0.699085	0.419400
N204	N	0.799867	-0.199085	0.919400
C205	C	0.272687	-0.362505	0.218249
C206	C	0.772687	0.137495	0.718249
N207	N	0.299778	-0.307058	0.185094
N208	N	0.799778	0.192942	0.685094
C209	C	0.135343	-0.643583	0.386305
C210	C	0.635343	-0.143583	0.886305
N211	N	0.108252	-0.699048	0.419450
N212	N	0.608252	-0.199048	0.919450
H213	H	0.346375	-0.487893	0.199821
H214	H	0.846375	0.012107	0.699821
