data_functionalizedCrystal
_audit_creation_method	'MofGen! by Chris Wilmer'
_symmetry_space_group_name_H-M	'P1'
_symmetry_Int_Tables_number	1
_symmetry_cell_setting	triclinic
loop_
_symmetry_equiv_pos_as_xyz
  x,y,z
_cell_length_a	21.295411
_cell_length_b	11.169417
_cell_length_c	11.169416
_cell_angle_alpha	89.988781
_cell_angle_beta	89.981809
_cell_angle_gamma	90.013079
loop_
_atom_site_label
_atom_site_type_symbol
_atom_site_fract_x
_atom_site_fract_y
_atom_site_fract_z
Zn1	Zn	-0.355901	-1.834882	-0.477832
Zn2	Zn	0.144099	-1.334882	0.022168
Zn3	Zn	-0.250646	-1.834795	-0.678528
Zn4	Zn	0.249354	-1.334795	-0.178528
Zn5	Zn	-0.250652	-1.634192	-0.477861
Zn6	Zn	0.249348	-1.134192	0.022139
Zn7	Zn	-0.355884	-1.634176	-0.678475
Zn8	Zn	0.144116	-1.134176	-0.178475
O9	O	-0.303271	-1.734511	-0.578174
O10	O	0.196729	-1.234511	-0.078174
O11	O	-0.341943	-2.002821	-0.504465
O12	O	0.158057	-1.502821	-0.004465
O13	O	-0.162557	-1.808155	-0.651943
O14	O	0.337443	-1.308155	-0.151943
O15	O	-0.264624	-1.660857	-0.309907
O16	O	0.235376	-1.160857	0.190093
O17	O	-0.264613	-2.002757	-0.651916
O18	O	0.235387	-1.502757	-0.151916
O19	O	-0.341949	-1.808304	-0.309886
O20	O	0.158051	-1.308304	0.190114
O21	O	-0.162562	-1.660773	-0.504514
O22	O	0.337438	-1.160773	-0.004514
O23	O	-0.264607	-1.466240	-0.504462
O24	O	0.235393	-0.966240	-0.004462
O25	O	-0.443975	-1.660830	-0.651825
O26	O	0.056025	-1.160830	-0.151825
O27	O	-0.341920	-1.466228	-0.651853
O28	O	0.158080	-0.966228	-0.151853
O29	O	-0.443988	-1.808288	-0.504413
O30	O	0.056012	-1.308288	-0.004413
O31	O	-0.264596	-1.808140	-0.846471
O32	O	0.235404	-1.308140	-0.346471
O33	O	-0.341914	-1.660745	-0.846432
O34	O	0.158086	-1.160745	-0.346432
C35	C	-0.303266	-1.734464	-0.889999
C36	C	0.196734	-1.234464	-0.389999
C37	C	-0.303285	-1.734553	-1.023399
C38	C	0.196715	-1.234553	-0.523399
C39	C	-0.303262	-1.422687	-0.578156
C40	C	0.196738	-0.922687	-0.078156
C41	C	-0.303274	-1.289287	-0.578177
C42	C	0.196726	-0.789287	-0.078177
C43	C	-0.467461	-1.734567	-0.578110
C44	C	0.032539	-1.234567	-0.078110
C45	C	-0.537429	-1.734590	-0.578083
C46	C	-0.037429	-1.234590	-0.078083
C47	C	-1.036885	-1.811466	-0.654600
C48	C	-0.536885	-1.311466	-0.154600
C49	C	-0.971143	-1.811444	-0.654639
C50	C	-0.471143	-1.311444	-0.154639
C51	C	-0.938269	-1.734704	-0.577896
C52	C	-0.438269	-1.234704	-0.077896
C53	C	-0.971143	-1.657957	-0.501130
C54	C	-0.471143	-1.157957	-0.001130
C55	C	-1.036884	-1.657972	-0.501102
C56	C	-0.536884	-1.157972	-0.001102
N57	N	-0.835054	-1.725499	-0.472882
N58	N	-0.335054	-1.225499	0.027118
N59	N	-0.772602	-1.725492	-0.472912
N60	N	-0.272602	-1.225492	0.027088
C61	C	-0.740194	-1.734651	-0.577976
C62	C	-0.240194	-1.234651	-0.077976
N63	N	-0.772596	-1.743841	-0.683012
N64	N	-0.272596	-1.243841	-0.183012
N65	N	-0.835054	-1.743855	-0.682981
N66	N	-0.335054	-1.243855	-0.182981
C67	C	-0.866983	-1.734678	-0.577918
C68	C	-0.366983	-1.234678	-0.077918
C69	C	-0.636042	-1.811363	-0.654785
C70	C	-0.136042	-1.311363	-0.154785
C71	C	-0.570299	-1.811333	-0.654825
C72	C	-0.070299	-1.311333	-0.154825
C73	C	-0.570300	-1.657852	-0.501306
C74	C	-0.070300	-1.157852	-0.001306
C75	C	-0.636042	-1.657876	-0.501276
C76	C	-0.136042	-1.157876	-0.001276
C77	C	-0.668910	-1.734638	-0.578014
C78	C	-0.168910	-1.234638	-0.078014
C79	C	-0.139719	-1.734525	-0.578151
C80	C	0.360281	-1.234525	-0.078151
C81	C	-0.069751	-1.734734	-0.577840
C82	C	0.430249	-1.234734	-0.077840
C83	C	-0.303279	-2.047554	-0.578193
C84	C	0.196721	-1.547554	-0.078193
C85	C	-0.303283	-2.180954	-0.578201
C86	C	0.196717	-1.680954	-0.078201
C87	C	-0.303289	-1.734592	-0.265132
C88	C	0.196711	-1.234592	0.234868
C89	C	-0.303297	-1.734626	-0.131732
C90	C	0.196703	-1.234626	0.368268
H91	H	-1.063642	-1.873969	-0.717090
H92	H	-0.563642	-1.373969	-0.217090
Cl93	Cl	-0.929816	-1.561486	-0.404650
Cl94	Cl	-0.429816	-1.061486	0.095350
H95	H	-0.543534	-1.595365	-0.438823
H96	H	-0.043534	-1.095365	0.061177
H97	H	-1.063643	-1.595487	-0.438592
H98	H	-0.563643	-1.095487	0.061408
H99	H	-0.662804	-1.873865	-0.717272
H100	H	-0.162804	-1.373865	-0.217272
H101	H	-0.543540	-1.873811	-0.717344
H102	H	-0.043540	-1.373811	-0.217344
Cl103	Cl	-0.929817	-1.907914	-0.751145
Cl104	Cl	-0.429817	-1.407914	-0.251145
H105	H	-0.662802	-1.595397	-0.438765
H106	H	-0.162802	-1.095397	0.061235
