data_functionalizedCrystal
_audit_creation_method	'MofGen! by Chris Wilmer'
_symmetry_space_group_name_H-M	'P1'
_symmetry_Int_Tables_number	1
_symmetry_cell_setting	triclinic
loop_
_symmetry_equiv_pos_as_xyz
  x,y,z
_cell_length_a	10.654549
_cell_length_b	10.654551
_cell_length_c	15.455313
_cell_angle_alpha	92.692775
_cell_angle_beta	87.293884
_cell_angle_gamma	84.485103
loop_
_atom_site_label
_atom_site_type_symbol
_atom_site_fract_x
_atom_site_fract_y
_atom_site_fract_z
O1	O	1.673297	0.170953	-0.072107
O2	O	1.307819	0.187759	-0.072113
O3	O	1.498961	-0.003383	-0.072108
O4	O	1.482156	0.362095	-0.072112
O5	O	1.488030	0.007502	0.072154
O6	O	1.296889	0.198644	0.072149
O7	O	1.662367	0.181838	0.072155
Cu8	Cu	1.478630	0.191235	0.085324
Cu9	Cu	1.491556	0.178362	-0.085282
O10	O	1.471226	0.372980	0.072150
C11	C	1.255556	0.191968	0.000017
C12	C	1.116113	0.188276	0.000015
C13	C	0.905599	0.297339	0.000017
C14	C	1.036620	0.300817	0.000012
C15	C	1.064580	0.072248	0.000014
C16	C	0.933562	0.068771	0.000013
C17	C	1.202708	0.439052	-0.050532
C18	C	1.254235	0.555078	-0.050519
C19	C	1.195540	0.658665	0.000030
C20	C	1.085317	0.646233	0.050588
C21	C	1.033796	0.530206	0.050583
C22	C	1.092490	0.426622	0.000013
C23	C	0.767470	-0.069456	0.050565
C24	C	0.715946	-0.185484	0.050566
C25	C	0.774640	-0.289081	0.000021
C26	C	0.884868	-0.276660	-0.050523
C27	C	0.936391	-0.160632	-0.050524
C28	C	0.877689	-0.057035	0.000018
C29	C	1.492261	-0.044739	0.000021
C30	C	1.488569	-0.184182	0.000017
C31	C	1.492794	-0.255619	-0.078621
C32	C	1.489314	-0.386640	-0.078621
C33	C	1.477389	-0.374774	0.078661
C34	C	1.480859	-0.243755	0.078661
C35	C	1.418281	-0.563841	-0.173101
C36	C	1.422529	-0.635285	-0.251743
C37	C	1.502383	-0.606984	-0.321172
C38	C	1.578020	-0.507243	-0.311962
C39	C	1.573784	-0.435806	-0.233318
C40	C	1.493901	-0.464103	-0.163892
C41	C	1.551903	-0.066554	0.173134
C42	C	1.547676	0.004884	0.251779
C43	C	1.467829	-0.023415	0.321215
C44	C	1.392210	-0.123161	0.312014
C45	C	1.396438	-0.194599	0.233369
C46	C	1.476282	-0.166291	0.163932
C47	C	1.714630	0.177629	0.000023
C48	C	1.854074	0.181321	0.000019
C49	C	1.477925	0.414335	0.000018
C50	C	1.481618	0.553778	0.000017
N51	N	1.469547	0.200288	0.205319
N52	N	1.500649	0.169299	-0.205278
C53	C	1.550779	0.119115	0.250715
C54	C	1.543922	0.125973	0.341523
C55	C	1.455837	0.214012	0.386933
C56	C	1.374597	0.295189	0.341530
C57	C	1.381449	0.288323	0.250724
C58	C	1.426261	0.243611	0.658514
C59	C	1.419417	0.250473	0.749326
C60	C	1.588741	0.081254	0.749313
C61	C	1.595591	0.074402	0.658505
C62	C	1.514346	0.155574	0.613110
N63	N	1.448829	0.221027	0.479753
N64	N	1.521349	0.148552	0.520292
H65	H	0.840882	0.388985	0.000021
Cl66	Cl	1.706328	-0.036275	0.601418
Cl67	Cl	1.690868	-0.020790	0.806384
Cl68	Cl	1.011545	0.776462	0.114150
Cl69	Cl	1.502478	-0.180731	-0.177486
H70	H	1.302870	0.366868	0.378508
Cl71	Cl	1.642756	0.130270	0.263350
H72	H	1.616914	-0.043492	0.116593
Cl73	Cl	1.308673	0.361163	0.806407
H74	H	1.464404	0.034754	0.385254
Cl75	Cl	0.693674	0.060785	0.114110
H76	H	1.635368	-0.354601	-0.225819
Cl77	Cl	1.678428	-0.471685	-0.399246
H78	H	1.360110	0.309707	0.621561
H79	H	1.505839	-0.665163	-0.385204
H80	H	0.626208	-0.195599	0.091741
Cl81	Cl	0.895241	0.514570	0.114134
Cl82	Cl	1.661526	0.008437	0.193638
H83	H	1.315299	0.354422	0.213764
H84	H	1.471114	-0.423295	0.142689
Cl85	Cl	1.260321	0.804524	0.000045
H86	H	1.353241	-0.586883	-0.116574
H87	H	1.334856	-0.275816	0.225880
H88	H	1.343980	0.565192	-0.091689
Cl89	Cl	1.291835	-0.158751	0.399309
H90	H	1.250500	0.354715	-0.091706
H91	H	1.610066	0.059874	0.378484
Cl92	Cl	1.327441	-0.760665	-0.263321
H93	H	1.129315	-0.019385	0.000011
Cl94	Cl	1.074968	-0.145018	-0.114066
H95	H	0.932661	-0.361018	-0.091679
H96	H	0.732679	-0.383557	0.000029
