data_functionalizedCrystal
_audit_creation_method	'MofGen! by Chris Wilmer'
_symmetry_space_group_name_H-M	'P1'
_symmetry_Int_Tables_number	1
_symmetry_cell_setting	triclinic
loop_
_symmetry_equiv_pos_as_xyz
  x,y,z
_cell_length_a	20.875641
_cell_length_b	20.875641
_cell_length_c	20.875658
_cell_angle_alpha	55.998508
_cell_angle_beta	87.033017
_cell_angle_gamma	60.088404
loop_
_atom_site_label
_atom_site_type_symbol
_atom_site_fract_x
_atom_site_fract_y
_atom_site_fract_z
Zr1	Zr	0.670850	0.652874	-0.083524
O2	O	0.575874	0.793661	-0.194594
O3	O	0.696265	0.517191	-0.046217
O4	O	0.708775	0.650089	-0.184452
O5	O	0.557706	0.661180	0.048977
O6	O	0.817819	0.642087	-0.180159
O7	O	0.563364	0.660763	-0.056358
O8	O	0.795441	0.404356	0.067119
O9	O	0.580084	0.898911	-0.198301
O10	O	0.792953	0.565137	-0.031039
O11	O	0.707352	0.571421	0.044368
O12	O	0.722081	0.727891	-0.118386
O13	O	0.636480	0.734175	-0.042979
Zr14	Zr	0.835739	0.640776	0.091321
Zr15	Zr	0.844763	0.640111	-0.076677
Zr16	Zr	0.661826	0.653540	0.084474
Zr17	Zr	0.677564	0.820735	-0.089436
Zr18	Zr	0.829025	0.472915	0.097233
O19	O	0.810324	0.776460	0.054013
O20	O	0.823156	0.775514	-0.184858
O21	O	0.563042	0.794607	0.044278
O22	O	0.930715	0.499989	0.202390
O23	O	0.943547	0.499043	-0.036481
O24	O	0.683433	0.518137	0.192655
O25	O	0.948883	0.632470	-0.041181
O26	O	0.797814	0.643561	0.192248
O27	O	0.688770	0.651564	0.187955
O28	O	0.943225	0.632887	0.064155
O29	O	0.718321	0.888766	-0.192858
O30	O	0.788268	0.404885	0.200655
O31	O	0.926505	0.394740	0.206097
O32	O	0.933679	0.394211	0.072561
O33	O	0.572910	0.899440	-0.064765
O34	O	0.711148	0.889295	-0.059322
O35	O	0.784508	0.565760	0.126183
O36	O	0.870109	0.559476	0.050776
O37	O	0.799237	0.722230	-0.036572
O38	O	0.713636	0.728514	0.038835
C39	C	0.744896	0.436857	0.011294
C40	C	0.742046	0.365596	0.013803
C41	C	0.785388	0.328837	-0.024379
C42	C	0.782711	0.261874	-0.022013
C43	C	0.736688	0.231677	0.018531
C44	C	0.693345	0.268438	0.056718
C45	C	0.696026	0.335394	0.054357
C46	C	0.723881	0.031773	0.029819
C47	C	0.721201	-0.035186	0.032176
C48	C	0.810569	-0.041747	-0.046555
C49	C	0.813243	0.025215	-0.048917
C50	C	0.769903	0.061967	-0.010726
N51	N	0.733949	0.163232	0.020948
N52	N	0.772647	0.130405	-0.013139
C53	C	0.535756	0.662790	-0.004666
C54	C	0.461925	0.668209	-0.007573
C55	C	0.464232	0.585800	0.036652
C56	C	0.394858	0.590897	0.033919
C57	C	0.323178	0.678403	-0.013044
C58	C	0.320873	0.760817	-0.057270
C59	C	0.390246	0.755720	-0.054532
C60	C	0.111732	0.702759	-0.026119
C61	C	0.042357	0.707850	-0.028855
C62	C	0.116347	0.537929	0.062335
C63	C	0.185718	0.532839	0.065066
C64	C	0.183407	0.615254	0.020843
N65	N	0.252265	0.683615	-0.015841
N66	N	0.254318	0.610041	0.023645
C67	C	0.970833	0.630860	0.012463
C68	C	1.044664	0.625442	0.015369
C69	C	0.764583	0.645993	-0.206241
C70	C	0.768414	0.645711	-0.277561
C71	C	0.761693	0.856794	-0.003497
C72	C	0.764543	0.928055	-0.006007
C73	C	0.710143	0.649986	-0.313434
C74	C	0.713745	0.649728	-0.380450
C75	C	0.775621	0.645189	-0.411589
C76	C	0.833896	0.640916	-0.375712
C77	C	0.830290	0.641181	-0.308701
C78	C	0.792844	0.643932	-0.611755
C79	C	0.796446	0.643665	-0.678769
C80	C	0.676294	0.652479	-0.683504
C81	C	0.672696	0.652737	-0.616488
C82	C	0.730968	0.648469	-0.580620
N83	N	0.779306	0.644922	-0.480089
N84	N	0.727280	0.648742	-0.512125
C85	C	0.742006	0.647658	0.214038
C86	C	0.738175	0.647940	0.285357
C87	C	0.962435	0.420892	0.019858
C88	C	1.033415	0.344212	0.025275
C89	C	0.733608	0.437689	0.221433
C90	C	0.726927	0.366710	0.295263
C91	C	0.951147	0.421724	0.229998
C92	C	1.018296	0.345327	0.306734
C93	C	0.555442	0.871927	-0.222201
C94	C	0.488293	0.948324	-0.298937
C95	C	0.544154	0.872759	-0.012061
C96	C	0.473174	0.949439	-0.017478
C97	C	0.772981	0.855962	-0.213637
C98	C	0.779662	0.926940	-0.287466
C99	C	1.026474	0.311157	-0.014895
C100	C	1.093162	0.239118	-0.009822
C101	C	1.166790	0.200131	0.035426
C102	C	1.173730	0.233192	0.075597
C103	C	1.107043	0.305234	0.070518
C104	C	0.764063	0.330423	0.372647
C105	C	0.757782	0.263740	0.442023
C106	C	0.714369	0.233341	0.434014
C107	C	0.677228	0.269636	0.356621
C108	C	0.683505	0.336322	0.287246
C109	C	1.094520	0.306169	0.303408
C110	C	1.157621	0.234395	0.375504
C111	C	1.144496	0.201774	0.450923
C112	C	1.068264	0.240939	0.454246
C113	C	1.005165	0.312717	0.382152
C114	C	0.412069	0.987489	-0.295612
C115	C	0.348969	1.059285	-0.367708
C116	C	0.362094	1.091909	-0.443128
C117	C	0.438326	1.052740	-0.446451
C118	C	0.501425	0.980950	-0.374356
C119	C	0.480115	0.982500	0.022684
C120	C	0.413429	1.054558	0.017592
C121	C	0.339801	1.093548	-0.027658
C122	C	0.332861	1.060483	-0.067826
C123	C	0.399547	0.988431	-0.062738
C124	C	0.823082	0.957318	-0.279430
C125	C	0.829375	1.024000	-0.348794
C126	C	0.792243	1.060309	-0.426192
C127	C	0.748823	1.029925	-0.434226
C128	C	0.742535	0.963239	-0.364863
H129	H	0.850718	0.049801	-0.081931
Br130	Br	0.597213	0.658273	-0.732185
H131	H	0.396743	0.523792	0.069932
H132	H	0.845856	-0.071677	-0.077647
Br133	Br	0.580031	0.929603	0.084099
Br134	Br	0.394235	0.943228	-0.193266
Br135	Br	1.261070	0.181256	0.370974
Br136	Br	0.456125	1.097024	-0.548814
H137	H	0.272905	1.092240	-0.104668
Br138	Br	0.390112	0.943567	-0.117246
H139	H	0.286903	1.091165	-0.364987
Br140	Br	0.276450	1.189339	-0.540965
Br141	Br	0.626167	0.656136	-0.271177
Br142	Br	0.873482	0.908056	-0.174399
Br143	Br	0.888302	1.065224	-0.337872
H144	H	1.195883	0.143328	0.509621
H145	H	0.788031	0.234197	0.505033
Br146	Br	1.257287	0.102358	0.042310
Br147	Br	0.800784	1.150813	-0.520320
Br148	Br	0.871926	0.638138	-0.563079
Br149	Br	1.116477	0.350081	0.125046
Br150	Br	0.618313	0.228370	0.345765
H151	H	0.884275	0.637226	-0.401072
Br152	Br	0.683596	0.922029	-0.375784
Br153	Br	1.050465	0.196658	0.556609
Br154	Br	0.698427	1.079219	-0.539273
Br155	Br	1.083726	0.194263	-0.064342
Br156	Br	0.604870	0.927800	-0.378883
Br157	Br	0.249305	1.191333	-0.034555
Br158	Br	0.847845	0.369820	-0.079413
H159	H	0.966529	0.342900	-0.051750
Br160	Br	0.901719	0.365847	0.386680
Br161	Br	0.705858	0.142837	0.528176
H162	H	0.666296	0.653210	-0.409659
H163	H	0.818004	0.231945	-0.053104
Br164	Br	0.633102	0.385558	0.182227
Br165	Br	0.822990	0.371658	0.383540
Br166	Br	1.112354	0.350428	0.201063
Br167	Br	0.422866	1.099413	0.072112
H168	H	0.683720	-0.059769	0.065191
Br169	Br	0.223592	0.879577	-0.120999
H170	H	0.622312	0.656433	-0.591136
Br171	Br	0.665068	0.081636	0.081656
Br172	Br	0.880432	0.637498	-0.721021
H173	H	0.655876	0.243841	0.089735
H174	H	0.660731	0.365325	0.085447
H175	H	0.244080	0.461583	0.103292
Br176	Br	0.561509	0.467036	0.100384
Br177	Br	1.273660	0.180268	0.137004
H178	H	0.118219	0.470832	0.098339
H179	H	-0.016009	0.779112	-0.067102
H180	H	0.388362	0.822825	-0.090535
Br181	Br	0.108587	0.814607	-0.086136
H182	H	0.877740	0.637701	-0.279494
