data_functionalizedCrystal
_audit_creation_method	'MofGen! by Chris Wilmer'
_symmetry_space_group_name_H-M	'P1'
_symmetry_Int_Tables_number	1
_symmetry_cell_setting	triclinic
loop_
_symmetry_equiv_pos_as_xyz
  x,y,z
_cell_length_a	19.805405
_cell_length_b	19.805407
_cell_length_c	19.805399
_cell_angle_alpha	90.021064
_cell_angle_beta	89.973385
_cell_angle_gamma	89.974289
loop_
_atom_site_label
_atom_site_type_symbol
_atom_site_fract_x
_atom_site_fract_y
_atom_site_fract_z
Zn1	Zn	-0.269497	-1.034734	-0.382751
Zn2	Zn	-0.382686	-1.034648	-0.269565
Zn3	Zn	-0.269514	-0.921549	-0.269573
Zn4	Zn	-0.382648	-0.921512	-0.382709
O5	O	-0.326086	-0.978111	-0.326149
O6	O	-0.284521	-1.129439	-0.367751
O7	O	-0.367696	-1.019625	-0.174849
O8	O	-0.174795	-0.936615	-0.284607
O9	O	-0.367680	-1.129376	-0.284594
O10	O	-0.174783	-1.019771	-0.367759
O11	O	-0.284549	-0.936531	-0.174855
O12	O	-0.284512	-0.826827	-0.284566
O13	O	-0.367615	-0.936551	-0.477431
O14	O	-0.367631	-0.826800	-0.367686
O15	O	-0.284484	-1.019735	-0.477462
O16	O	-0.477397	-1.019589	-0.284552
O17	O	-0.477369	-0.936468	-0.367679
C18	C	-0.326070	-0.802255	-0.326123
C19	C	-0.326079	-0.727023	-0.326128
C20	C	-0.369424	-0.691682	-0.369337
C21	C	-0.369424	-0.620994	-0.369345
C22	C	-0.326082	-0.585647	-0.326139
C23	C	-0.282733	-0.620993	-0.282927
C24	C	-0.282730	-0.691680	-0.282924
C25	C	-0.282743	-0.335920	-0.282942
C26	C	-0.282750	-0.265227	-0.282948
C27	C	-0.369437	-0.265233	-0.369364
C28	C	-0.369434	-0.335920	-0.369360
C29	C	-0.326082	-0.371260	-0.326151
C30	C	-0.326082	-0.447908	-0.326144
C31	C	-0.326085	-0.509000	-0.326142
C32	C	-0.501942	-0.978034	-0.326125
C33	C	-0.577174	-0.978063	-0.326137
C34	C	-0.612454	-1.021337	-0.369468
C35	C	-0.683142	-1.021361	-0.369481
C36	C	-0.718550	-0.978114	-0.326158
C37	C	-0.683265	-0.934835	-0.282825
C38	C	-0.612578	-0.934808	-0.282817
C39	C	-0.968338	-0.934944	-0.282860
C40	C	-1.039030	-0.934976	-0.282871
C41	C	-1.038902	-1.021497	-0.369524
C42	C	-0.968215	-1.021470	-0.369515
C43	C	-0.932937	-0.978189	-0.326185
C44	C	-0.856289	-0.978162	-0.326173
C45	C	-0.795197	-0.978144	-0.326167
C46	C	-0.149543	-0.978207	-0.326189
C47	C	-0.074311	-0.978248	-0.326206
C48	C	-0.326043	-0.978149	-0.502692
C49	C	-0.326025	-0.978165	-0.577924
C50	C	-0.326098	-0.154653	-0.326170
C51	C	-0.326092	-0.229885	-0.326162
C52	C	-0.282737	-1.021480	-0.613286
C53	C	-0.282717	-1.021487	-0.683974
C54	C	-0.325990	-0.978182	-0.719300
C55	C	-0.369280	-0.934862	-0.683933
C56	C	-0.369296	-0.934852	-0.613246
C57	C	-0.369217	-0.934900	-0.969007
C58	C	-0.369200	-0.934915	-1.039699
C59	C	-0.282638	-1.021535	-1.039735
C60	C	-0.282654	-1.021525	-0.969048
C61	C	-0.325942	-0.978203	-0.933687
C62	C	-0.325961	-0.978195	-0.857039
C63	C	-0.325974	-0.978193	-0.795947
C64	C	-0.326080	-0.978112	-0.150293
C65	C	-0.325907	-0.978227	-0.075062
H66	H	-0.247440	-0.592208	-0.247751
H67	H	-0.712100	-0.899620	-0.247554
O68	O	-0.578166	-1.063367	-0.411618
C69	C	-0.624467	-1.101577	-0.449855
H70	H	-0.674877	-1.073872	-0.452174
H71	H	-0.604008	-1.108753	-0.503189
H72	H	-0.631955	-1.153002	-0.425123
H73	H	-0.247431	-0.720453	-0.247741
O74	O	-0.717437	-1.063307	-0.411642
C75	C	-0.758344	-1.024773	-0.455325
H76	H	-0.737090	-0.971452	-0.459457
H77	H	-0.759087	-1.049230	-0.507435
H78	H	-0.811934	-1.022478	-0.434409
H79	H	-0.939389	-1.056688	-0.404790
O80	O	-1.073206	-1.063438	-0.411694
C81	C	-1.114110	-1.024891	-0.455369
H82	H	-1.092848	-0.971573	-0.459496
H83	H	-1.114861	-1.049341	-0.507481
H84	H	-1.167697	-1.022590	-0.434447
H85	H	-1.067857	-0.899756	-0.247591
O86	O	-0.578232	-0.892866	-0.240690
C87	C	-0.537348	-0.931408	-0.196993
H88	H	-0.526699	-0.982684	-0.220911
H89	H	-0.487670	-0.903822	-0.187892
H90	H	-0.564612	-0.938884	-0.146844
H91	H	-0.404539	-0.899574	-0.584456
O92	O	-0.411598	-0.726045	-0.411212
C93	C	-0.455254	-0.766912	-0.372601
H94	H	-0.459368	-0.745587	-0.319286
H95	H	-0.507374	-0.767702	-0.396991
H96	H	-0.434322	-0.820493	-0.370304
O97	O	-0.240796	-1.063617	-0.578942
C98	C	-0.279340	-1.107297	-0.538039
H99	H	-0.332644	-1.111457	-0.559329
H100	H	-0.254860	-1.159397	-0.537254
H101	H	-0.281682	-1.086360	-0.484462
H102	H	-0.404729	-0.364696	-0.404541
O103	O	-0.240648	-1.063630	-0.718219
C104	C	-0.202450	-1.101841	-0.671882
H105	H	-0.230187	-1.104160	-0.621489
H106	H	-0.195234	-1.155177	-0.692320
H107	H	-0.151042	-1.077086	-0.664370
O108	O	-0.934180	-0.892890	-0.240699
C109	C	-0.980592	-0.854720	-0.202473
H110	H	-1.030958	-0.882466	-0.200170
H111	H	-0.960210	-0.847531	-0.149132
H112	H	-0.988137	-0.803299	-0.227203
H113	H	-0.247448	-0.364684	-0.247754
H114	H	-0.247452	-0.236450	-0.247764
O115	O	-0.240560	-1.063677	-1.073980
C116	C	-0.202361	-1.101886	-1.027642
H117	H	-0.230099	-1.104206	-0.977249
H118	H	-0.195141	-1.155222	-1.048078
H119	H	-0.150954	-1.077128	-1.020127
H120	H	-0.404511	-0.899600	-0.712701
O121	O	-0.240576	-1.063492	-0.934664
C122	C	-0.196856	-1.024963	-0.893798
H123	H	-0.220735	-0.973660	-0.883188
H124	H	-0.187784	-1.052527	-0.844100
H125	H	-0.146696	-1.017546	-0.921059
H126	H	-0.404439	-0.899648	-1.068459
H127	H	-0.404475	-0.899635	-0.940225
H128	H	-0.404733	-0.236451	-0.404549
O129	O	-0.411601	-0.586769	-0.411333
C130	C	-0.449849	-0.633124	-0.449471
H131	H	-0.452144	-0.683501	-0.421742
H132	H	-0.503190	-0.612685	-0.456585
H133	H	-0.425142	-0.640671	-0.500926
