data_functionalizedCrystal
_audit_creation_method	'MofGen! by Chris Wilmer'
_symmetry_space_group_name_H-M	'P1'
_symmetry_Int_Tables_number	1
_symmetry_cell_setting	triclinic
loop_
_symmetry_equiv_pos_as_xyz
  x,y,z
_cell_length_a	27.731994
_cell_length_b	27.732048
_cell_length_c	26.210047
_cell_angle_alpha	89.999521
_cell_angle_beta	89.997128
_cell_angle_gamma	82.631595
loop_
_atom_site_label
_atom_site_type_symbol
_atom_site_fract_x
_atom_site_fract_y
_atom_site_fract_z
O1	O	0.640948	0.057385	-0.042362
O2	O	1.140948	0.557385	0.457638
O3	O	0.500151	0.066158	-0.042379
O4	O	1.000151	0.566158	0.457621
O5	O	0.574923	-0.008626	-0.042360
O6	O	1.074923	0.491374	0.457640
O7	O	0.566177	0.132169	-0.042381
O8	O	1.066177	0.632169	0.457619
O9	O	0.574908	-0.008614	0.042498
O10	O	1.074908	0.491386	0.542498
O11	O	0.500137	0.066170	0.042479
O12	O	1.000137	0.566170	0.542479
O13	O	0.640934	0.057397	0.042496
O14	O	1.140934	0.557397	0.542496
Cu15	Cu	0.570534	0.061784	0.050236
Cu16	Cu	1.070534	0.561784	0.550236
Cu17	Cu	0.570551	0.061771	-0.050119
Cu18	Cu	1.070551	0.561771	0.449881
O19	O	0.566162	0.132181	0.042477
O20	O	1.066162	0.632181	0.542477
C21	C	0.482137	0.065984	0.000047
C22	C	0.982137	0.565984	0.500047
C23	C	0.428480	0.065442	0.000041
C24	C	0.928480	0.565442	0.500041
C25	C	0.095754	0.062032	0.046317
C26	C	0.595754	0.562032	0.546317
C27	C	-0.105904	0.059971	0.046324
C28	C	0.394096	0.559971	0.546324
O29	O	-0.131984	0.059689	0.085663
O30	O	0.368016	0.559689	0.585663
N31	N	-0.131111	0.059708	0.000067
N32	N	0.368889	0.559708	0.500067
C33	C	-0.105900	0.059958	-0.046193
C34	C	0.394100	0.559958	0.453807
O35	O	-0.131967	0.059683	-0.085537
O36	O	0.368033	0.559683	0.414463
C37	C	0.095758	0.062016	-0.046199
C38	C	0.595758	0.562016	0.453801
C39	C	0.120961	0.062283	0.000060
C40	C	0.620961	0.562283	0.500060
C41	C	0.120958	0.062299	0.092573
C42	C	0.620958	0.562299	0.592573
C43	C	0.171369	0.062817	0.092571
C44	C	0.671369	0.562817	0.592571
C45	C	0.196576	0.063068	0.046313
C46	C	0.696576	0.563068	0.546313
C47	C	0.171372	0.062802	0.000058
C48	C	0.671372	0.562802	0.500058
C49	C	0.120968	0.062263	-0.092459
C50	C	0.620968	0.562263	0.407541
C51	C	0.171386	0.062776	-0.092457
C52	C	0.671386	0.562776	0.407543
C53	C	0.196590	0.063043	-0.046197
C54	C	0.696590	0.563043	0.453803
C55	C	0.246991	0.063571	-0.046201
C56	C	0.746991	0.563571	0.453799
N57	N	0.272198	0.063833	0.000055
N58	N	0.772198	0.563833	0.500055
C59	C	0.246991	0.063582	0.046312
C60	C	0.746991	0.563582	0.546312
C61	C	-0.211773	0.058878	-0.046187
C62	C	0.288227	0.558878	0.453813
C63	C	-0.262188	0.058365	-0.046186
C64	C	0.237812	0.558365	0.453814
C65	C	-0.262188	0.058376	0.046331
C66	C	0.237812	0.558376	0.546331
C67	C	-0.211774	0.058894	0.046329
C68	C	0.288226	0.558894	0.546329
C69	C	-0.186566	0.059141	0.000069
C70	C	0.313434	0.559141	0.500069
C71	C	0.352858	0.064670	0.046305
C72	C	0.852858	0.564670	0.546305
C73	C	0.403273	0.065190	0.046298
C74	C	0.903273	0.565190	0.546298
C75	C	0.403269	0.065176	-0.046218
C76	C	0.903269	0.565176	0.453782
C77	C	0.352858	0.064659	-0.046213
C78	C	0.852858	0.564659	0.453787
C79	C	0.327654	0.064404	0.000053
C80	C	0.827654	0.564404	0.500053
O81	O	0.273102	0.063848	-0.085520
O82	O	0.773102	0.563848	0.414480
O83	O	0.273067	0.063847	0.085650
O84	O	0.773067	0.563847	0.585650
C85	C	0.045343	0.061514	0.046319
C86	C	0.545343	0.561514	0.546319
C87	C	0.020139	0.061247	0.000064
C88	C	0.520139	0.561247	0.500064
C89	C	0.045346	0.061499	-0.046193
C90	C	0.545346	0.561499	0.453807
C91	C	-0.030275	0.060734	0.000065
C92	C	0.469725	0.560734	0.500065
C93	C	-0.055483	0.060482	0.046323
C94	C	0.444517	0.560482	0.546323
C95	C	-0.030276	0.060745	0.092579
C96	C	0.469724	0.560745	0.592579
C97	C	0.020135	0.061263	0.092577
C98	C	0.520135	0.561263	0.592577
C99	C	0.020139	0.061236	-0.092449
C100	C	0.520139	0.561236	0.407551
C101	C	-0.030272	0.060719	-0.092443
C102	C	0.469728	0.560719	0.407557
C103	C	-0.055479	0.060468	-0.046186
C104	C	0.444521	0.560468	0.453814
C105	C	0.574732	-0.026627	0.000070
C106	C	1.074732	0.473373	0.500070
C107	C	0.574179	-0.080282	0.000074
C108	C	1.074179	0.419718	0.500074
C109	C	0.614884	-0.419105	0.000053
C110	C	1.114884	0.080895	0.500053
C111	C	0.612833	-0.620764	0.000046
C112	C	1.112833	-0.120764	0.500046
O113	O	0.650055	-0.652027	0.000028
O114	O	1.150055	-0.152027	0.500028
N115	N	0.568496	-0.639879	0.000041
N116	N	1.068496	-0.139879	0.500041
C117	C	0.524670	-0.608576	0.000034
C118	C	1.024670	-0.108576	0.500034
O119	O	0.486912	-0.629462	0.000024
O120	O	0.986912	-0.129462	0.500024
C121	C	0.526721	-0.406918	0.000038
C122	C	1.026721	0.093082	0.500038
C123	C	0.571061	-0.387805	0.000048
C124	C	1.071061	0.112195	0.500048
C125	C	0.659220	-0.399992	0.000063
C126	C	1.159220	0.100008	0.500063
C127	C	0.659732	-0.349580	0.000068
C128	C	1.159732	0.150420	0.500068
C129	C	0.615908	-0.318281	0.000062
C130	C	1.115908	0.181719	0.500062
C131	C	0.571573	-0.337394	0.000053
C132	C	1.071573	0.162606	0.500053
C133	C	0.482895	-0.375615	0.000028
C134	C	0.982895	0.124385	0.500028
C135	C	0.483412	-0.325198	0.000027
C136	C	0.983412	0.174802	0.500027
C137	C	0.527751	-0.306086	0.000037
C138	C	1.027751	0.193914	0.500037
C139	C	0.528262	-0.255683	0.000052
C140	C	1.028262	0.244317	0.500052
N141	N	0.572598	-0.236567	0.000057
N142	N	1.072598	0.263433	0.500057
C143	C	0.616421	-0.267867	0.000062
C144	C	1.116421	0.232133	0.500062
C145	C	0.523596	-0.714450	0.000033
C146	C	1.023596	-0.214450	0.500033
C147	C	0.523083	-0.764864	0.000033
C148	C	1.023083	-0.264864	0.500033
C149	C	0.611246	-0.777049	0.000044
C150	C	1.111246	-0.277049	0.500044
C151	C	0.611759	-0.726633	0.000048
C152	C	1.111759	-0.226633	0.500048
C153	C	0.567932	-0.695335	0.000038
C154	C	1.067932	-0.195335	0.500038
C155	C	0.617494	-0.161998	0.000073
C156	C	1.117494	0.338002	0.500073
C157	C	0.618002	-0.111581	0.000079
C158	C	1.118002	0.388419	0.500079
C159	C	0.529839	-0.099401	0.000066
C160	C	1.029839	0.400599	0.500066
C161	C	0.529331	-0.149813	0.000062
C162	C	1.029331	0.350187	0.500062
C163	C	0.573162	-0.181111	0.000063
C164	C	1.073162	0.318889	0.500063
O165	O	0.491060	-0.224391	0.000064
O166	O	0.991060	0.275609	0.500064
O167	O	0.654174	-0.246971	0.000061
O168	O	1.154174	0.253029	0.500061
C169	C	0.614372	-0.469517	0.000049
C170	C	1.114372	0.030483	0.500049
C171	C	0.570036	-0.488629	0.000039
C172	C	1.070036	0.011371	0.500039
C173	C	0.526213	-0.457330	0.000034
C174	C	1.026213	0.042670	0.500034
C175	C	0.569523	-0.539043	0.000039
C176	C	1.069523	-0.039043	0.500039
C177	C	0.613346	-0.570343	0.000044
C178	C	1.113346	-0.070343	0.500044
C179	C	0.657683	-0.551228	0.000049
C180	C	1.157683	-0.051228	0.500049
C181	C	0.658195	-0.500816	0.000054
C182	C	1.158195	-0.000816	0.500054
C183	C	0.481876	-0.476445	0.000029
C184	C	0.981876	0.023555	0.500029
C185	C	0.481367	-0.526857	0.000025
C186	C	0.981367	-0.026857	0.500025
C187	C	0.525191	-0.558157	0.000030
C188	C	1.025191	-0.058157	0.500030
C189	C	0.658949	0.057571	0.000068
C190	C	1.158949	0.557571	0.500068
C191	C	0.712605	0.058114	0.000071
C192	C	1.212605	0.558114	0.500071
C193	C	0.566353	0.150182	0.000046
C194	C	1.066353	0.650182	0.500046
C195	C	0.566906	0.203837	0.000038
C196	C	1.066906	0.703837	0.500038
N197	N	0.570526	0.061794	0.120820
N198	N	1.070526	0.561794	0.620820
N199	N	0.570563	0.061757	-0.120703
N200	N	1.070563	0.561757	0.379297
C201	C	0.603656	0.028664	0.473342
C202	C	1.103656	0.528664	0.973342
C203	C	0.603667	0.028657	0.687001
C204	C	1.103667	0.528657	1.187001
O205	O	0.631818	0.000491	0.714630
O206	O	1.131818	0.500491	1.214630
N207	N	0.570554	0.061760	0.713714
N208	N	1.070554	0.561760	1.213714
C209	C	0.537433	0.094865	0.687008
C210	C	1.037433	0.594865	1.187008
O211	O	0.509265	0.123018	0.714632
O212	O	1.009265	0.623018	1.214632
C213	C	0.537421	0.094869	0.473351
C214	C	1.037421	0.594869	0.973351
C215	C	0.570539	0.061767	0.446641
C216	C	1.070539	0.561767	0.946641
C217	C	0.636772	-0.004436	0.446632
C218	C	1.136772	0.495564	0.946632
C219	C	0.636771	-0.004432	0.393221
C220	C	1.136771	0.495568	0.893221
C221	C	0.603654	0.028671	0.366519
C222	C	1.103654	0.528671	0.866519
C223	C	0.570538	0.061771	0.393229
C224	C	1.070538	0.561771	0.893229
C225	C	0.504298	0.127971	0.446647
C226	C	1.004298	0.627971	0.946647
C227	C	0.504297	0.127969	0.393229
C228	C	1.004297	0.627969	0.893229
C229	C	0.537416	0.094867	0.366519
C230	C	1.037416	0.594867	0.866519
C231	C	0.537420	0.094878	0.313117
C232	C	1.037420	0.594878	0.813117
N233	N	0.570533	0.061775	0.286404
N234	N	1.070533	0.561775	0.786404
C235	C	0.603650	0.028672	0.313105
C236	C	1.103650	0.528672	0.813105
C237	C	0.537443	0.094861	0.799182
C238	C	1.037443	0.594861	1.299182
C239	C	0.537446	0.094861	0.852596
C240	C	1.037446	0.594861	1.352596
C241	C	0.603680	0.028652	0.852585
C242	C	1.103680	0.528652	1.352585
C243	C	0.603678	0.028655	0.799169
C244	C	1.103678	0.528655	1.299169
C245	C	0.570556	0.061758	0.772469
C246	C	1.070556	0.561758	1.272469
C247	C	0.603645	0.028682	0.200937
C248	C	1.103645	0.528682	0.700937
C249	C	0.603643	0.028690	0.147521
C250	C	1.103643	0.528690	0.647521
C251	C	0.537408	0.094897	0.147537
C252	C	1.037408	0.594897	0.647537
C253	C	0.537412	0.094891	0.200949
C254	C	1.037412	0.594891	0.700949
C255	C	0.570533	0.061780	0.227647
C256	C	1.070533	0.561780	0.727647
O257	O	0.509281	0.123026	0.285454
O258	O	1.009281	0.623026	0.785454
O259	O	0.631807	0.000516	0.285473
O260	O	1.131807	0.500516	0.785473
C261	C	0.603658	0.028660	0.526754
C262	C	1.103658	0.528660	1.026754
C263	C	0.570542	0.061760	0.553464
C264	C	1.070542	0.561760	1.053464
C265	C	0.537425	0.094863	0.526762
C266	C	1.037425	0.594863	1.026762
C267	C	0.570546	0.061759	0.606878
C268	C	1.070546	0.561759	1.106878
C269	C	0.603663	0.028656	0.633579
C270	C	1.103663	0.528656	1.133579
C271	C	0.636776	-0.004447	0.606866
C272	C	1.136776	0.495553	1.106866
C273	C	0.636775	-0.004443	0.553455
C274	C	1.136775	0.495557	1.053455
C275	C	0.504311	0.127966	0.553475
C276	C	1.004311	0.627966	1.053475
C277	C	0.504316	0.127960	0.606887
C278	C	1.004316	0.627960	1.106887
C279	C	0.537433	0.094857	0.633588
C280	C	1.037433	0.594857	1.133588
H281	H	0.100439	0.062093	0.130243
H282	H	0.600439	0.562093	0.630243
Br283	Br	0.492466	0.139823	0.111291
Br284	Br	0.992466	0.639823	0.611291
Br285	Br	-0.177574	0.059256	0.109112
Br286	Br	0.322426	0.559256	0.609112
H287	H	-0.191254	0.059079	-0.083860
H288	H	0.308746	0.559079	0.416140
Br289	Br	0.459367	0.172891	0.643130
Br290	Br	0.959367	0.672891	1.143130
Br291	Br	0.678181	-0.085646	0.000094
Br292	Br	1.178181	0.414354	0.500094
Br293	Br	-0.296408	0.058035	0.109109
Br294	Br	0.203592	0.558035	0.609109
H295	H	0.694908	-0.425472	0.000065
H296	H	1.194908	0.074528	0.500065
Br297	Br	0.670720	-0.819536	0.000050
Br298	Br	1.170720	-0.319536	0.500050
H299	H	-0.050789	0.060505	-0.130116
H300	H	0.449211	0.560505	0.369884
Br301	Br	0.671935	-0.700701	0.000063
Br302	Br	1.171935	-0.200701	0.500063
Br303	Br	0.648624	-0.016273	0.888833
Br304	Br	1.148624	0.483727	1.388833
H305	H	0.493226	-0.165375	0.000068
H306	H	0.993226	0.334625	0.500068
H307	H	0.446789	-0.391167	0.000016
H308	H	0.946789	0.108833	0.500016
H309	H	0.191907	0.062977	-0.130128
H310	H	0.691907	0.562977	0.369872
Br311	Br	-0.296388	0.058014	-0.108969
Br312	Br	0.203612	0.558014	0.391031
Br313	Br	0.086776	0.061899	-0.155244
Br314	Br	0.586776	0.561899	0.344756
Br315	Br	0.492506	0.139794	0.888839
Br316	Br	0.992506	0.639794	1.388839
H317	H	0.477343	0.154922	0.531739
H318	H	0.977343	0.654922	1.031739
H319	H	0.423791	0.065410	0.083970
H320	H	0.923791	0.565410	0.583970
H321	H	0.630614	0.001735	0.125775
H322	H	1.130614	0.501735	0.625775
Br323	Br	0.681717	-0.049360	0.356977
Br324	Br	1.181717	0.450640	0.856977
Br325	Br	-0.064496	0.060407	0.155356
Br326	Br	0.435504	0.560407	0.655356
Br327	Br	0.648627	-0.016271	0.762926
Br328	Br	1.148627	0.483729	1.262926
Br329	Br	0.676980	-0.204466	0.000074
Br330	Br	1.176980	0.295534	0.500074
Br331	Br	0.422395	-0.433975	0.000019
Br332	Br	0.922395	0.066025	0.500019
H333	H	0.494160	-0.073908	0.000064
H334	H	0.994160	0.426092	0.500064
Br335	Br	0.462906	-0.790795	0.000031
Br336	Br	0.962906	-0.290795	0.500031
Br337	Br	0.318650	0.064306	-0.108993
Br338	Br	0.818650	0.564306	0.391007
H339	H	0.423802	0.065383	-0.083880
H340	H	0.923802	0.565383	0.416120
H341	H	0.040652	0.061481	0.130246
H342	H	0.540652	0.561481	0.630246
H343	H	0.332341	0.064467	0.083978
H344	H	0.832341	0.564467	0.583978
H345	H	0.487905	-0.688970	0.000026
H346	H	0.987905	-0.188970	0.500026
H347	H	0.694301	-0.485260	0.000062
H348	H	1.194301	0.014740	0.500062
H349	H	0.040658	0.061439	-0.130118
H350	H	0.540658	0.561439	0.369882
H351	H	0.663740	-0.031395	0.468368
H352	H	1.163740	0.468605	0.968368
H353	H	0.693365	-0.576720	0.000055
H354	H	1.193365	-0.076720	0.500055
Br355	Br	0.648595	-0.016255	0.237162
Br356	Br	1.148595	0.483745	0.737162
H357	H	0.510470	0.121819	0.777446
H358	H	1.010470	0.621819	1.277446
H359	H	0.477324	0.154925	0.371492
H360	H	0.977324	0.654925	0.871492
H361	H	0.695837	-0.334024	0.000074
H362	H	1.195837	0.165976	0.500074
H363	H	0.445258	-0.542413	0.000021
H364	H	0.945258	-0.042413	0.500021
H365	H	0.477329	0.154926	0.468387
H366	H	0.977329	0.654926	0.968387
H367	H	0.663743	-0.031400	0.628615
H368	H	1.163743	0.468600	1.128615
H369	H	0.447722	-0.299716	0.000019
H370	H	0.947722	0.200284	0.500019
Br371	Br	0.205566	0.063178	0.155354
Br372	Br	0.705566	0.563178	0.655354
Br373	Br	0.492470	0.139823	0.237197
Br374	Br	0.992470	0.639823	0.737197
Br375	Br	0.681724	-0.049369	0.517213
Br376	Br	1.181724	0.450631	1.017213
