data_functionalizedCrystal
_audit_creation_method	'MofGen! by Chris Wilmer'
_symmetry_space_group_name_H-M	'P1'
_symmetry_Int_Tables_number	1
_symmetry_cell_setting	triclinic
loop_
_symmetry_equiv_pos_as_xyz
  x,y,z
_cell_length_a	17.699077
_cell_length_b	14.853567
_cell_length_c	13.930277
_cell_angle_alpha	89.997891
_cell_angle_beta	90.004237
_cell_angle_gamma	83.457753
loop_
_atom_site_label
_atom_site_type_symbol
_atom_site_fract_x
_atom_site_fract_y
_atom_site_fract_z
O1	O	1.004375	0.113976	0.079810
O2	O	0.784035	0.128815	0.079814
O3	O	0.900091	-0.009856	0.079815
O4	O	0.888319	0.252647	0.079809
O5	O	0.900079	-0.009852	-0.079847
O6	O	0.784023	0.128819	-0.079848
O7	O	1.004364	0.113980	-0.079852
Zn8	Zn	0.894192	0.121400	-0.105200
Zn9	Zn	0.894207	0.121395	0.105162
O10	O	0.888308	0.252651	-0.079853
C11	C	0.755830	0.128286	-0.000017
C12	C	0.671808	0.126694	-0.000015
C13	C	0.632332	0.125945	-0.087047
C14	C	0.553386	0.124435	-0.087048
C15	C	0.513916	0.123679	-0.000016
C16	C	0.553397	0.124424	0.087024
C17	C	0.632343	0.125928	0.087024
C18	C	0.235018	0.118357	0.087026
C19	C	0.156067	0.116856	0.087019
C20	C	0.156061	0.116864	-0.087046
C21	C	0.235007	0.118368	-0.087047
C22	C	0.274482	0.119108	-0.000008
C23	C	0.360085	0.120745	-0.000008
C24	C	0.428314	0.122049	-0.000015
C25	C	0.899551	-0.043441	-0.000013
C26	C	0.897953	-0.143519	-0.000005
C27	C	0.822257	-0.555772	-0.000022
C28	C	0.960134	-0.577564	-0.000024
C29	C	0.961637	-0.483536	-0.000019
C30	C	0.893449	-0.425621	-0.000016
C31	C	0.823758	-0.461735	-0.000019
C32	C	1.031327	-0.447415	-0.000025
C33	C	1.032832	-0.353382	-0.000021
C34	C	0.964643	-0.295465	-0.000011
C35	C	0.894950	-0.331584	-0.000013
C36	C	0.826761	-0.273669	-0.000011
C37	C	0.757067	-0.309786	-0.000006
C38	C	0.755569	-0.403818	-0.000010
C39	C	0.966141	-0.201433	-0.000008
C40	C	0.828262	-0.179632	-0.000008
C41	C	1.032568	0.114509	-0.000019
C42	C	1.116590	0.116101	-0.000015
C43	C	0.888847	0.286236	-0.000022
C44	C	0.890445	0.386313	-0.000025
N45	N	0.894187	0.121403	-0.248766
C46	C	0.842790	0.182788	-0.299029
C47	C	0.945588	0.060015	-0.299007
C48	C	0.945596	0.060011	-0.399503
C49	C	0.894200	0.121396	-0.449766
C50	C	0.842795	0.182784	-0.399534
C51	C	0.996995	-0.001382	-0.449742
C52	C	0.997004	-0.001389	-0.550244
C53	C	0.945611	0.060001	-0.600510
C54	C	0.894205	0.121392	-0.550272
C55	C	0.842808	0.182777	-0.600535
C56	C	0.791405	0.244173	-0.550299
C57	C	0.791402	0.244174	-0.449800
C58	C	0.945614	0.060000	-0.701009
C59	C	0.842813	0.182773	-0.701040
N60	N	0.894218	0.121385	0.248728
H61	H	0.521255	0.123803	0.157887
O62	O	0.670558	0.126636	-0.171679
C63	C	0.618781	0.125672	-0.248495
H64	H	0.565612	0.096070	-0.222976
H65	H	0.646347	0.082354	-0.309365
H66	H	0.602514	0.197810	-0.275260
H67	H	0.267139	0.118988	-0.157918
H68	H	0.987462	0.010008	-0.741906
O69	O	0.792780	0.242313	-0.749821
C70	C	0.717845	0.227795	-0.725250
H71	H	0.717397	0.155617	-0.697613
H72	H	0.679874	0.238221	-0.791347
H73	H	0.695668	0.277806	-0.666923
H74	H	0.267150	0.118958	0.157898
H75	H	0.698827	-0.433234	-0.000007
H76	H	0.664483	0.126539	0.157895
O77	O	0.754625	-0.591000	-0.000061
C78	C	0.767915	-0.686414	-0.000035
H79	H	0.826954	-0.708626	-0.030263
H80	H	0.723312	-0.715187	-0.046386
H81	H	0.764227	-0.712583	0.076564
H82	H	0.772734	-0.132483	-0.000002
H83	H	0.701548	-0.262620	-0.000011
O84	O	0.741374	0.303709	-0.599088
C85	C	0.666437	0.289191	-0.574523
H86	H	0.665989	0.217017	-0.546876
H87	H	0.628471	0.299607	-0.640626
H88	H	0.644255	0.339210	-0.516205
O89	O	0.515029	0.123541	-0.171571
C90	C	0.477852	0.044626	-0.176770
H91	H	0.507583	-0.009467	-0.127371
H92	H	0.479816	0.018408	-0.253745
H93	H	0.416098	0.061124	-0.153401
O94	O	0.117812	0.116014	-0.171661
C95	C	0.145586	0.038326	-0.224598
H96	H	0.205739	0.013398	-0.199847
H97	H	0.146375	0.055936	-0.304219
H98	H	0.107105	-0.017176	-0.212538
O99	O	1.046890	-0.060865	-0.400705
C100	C	1.006436	-0.116446	-0.342432
H101	H	0.947176	-0.080607	-0.327496
H102	H	1.038012	-0.130463	-0.271711
H103	H	1.001408	-0.183213	-0.380965
O104	O	0.117846	0.116079	0.171654
C105	C	0.169613	0.117077	0.248477
H106	H	0.228992	0.089617	0.222967
H107	H	0.151563	0.072885	0.309344
H108	H	0.170143	0.189532	0.275244
H109	H	1.022885	-0.172031	-0.000018
O110	O	1.046970	-0.060897	-0.599146
C111	C	1.093728	-0.012686	-0.657250
H112	H	1.063658	0.057907	-0.672314
H113	H	1.105668	-0.050334	-0.727919
H114	H	1.149665	-0.006649	-0.618505
H115	H	1.015650	-0.624723	-0.000034
H116	H	0.800941	0.232778	-0.258125
O117	O	1.097538	-0.503711	0.000138
C118	C	1.100792	-0.558774	0.082816
H119	H	1.062134	-0.524250	0.140616
H120	H	1.161750	-0.569491	0.110565
H121	H	1.081123	-0.627106	0.064123
H122	H	1.089582	-0.323984	-0.000023
H123	H	0.749551	0.294160	-0.408891
H124	H	0.987430	0.010033	-0.258079
