data_functionalizedCrystal
_audit_creation_method	'MofGen! by Chris Wilmer'
_symmetry_space_group_name_H-M	'P1'
_symmetry_Int_Tables_number	1
_symmetry_cell_setting	triclinic
loop_
_symmetry_equiv_pos_as_xyz
  x,y,z
_cell_length_a	10.654550
_cell_length_b	10.654551
_cell_length_c	9.130313
_cell_angle_alpha	89.997488
_cell_angle_beta	90.000773
_cell_angle_gamma	95.514820
loop_
_atom_site_label
_atom_site_type_symbol
_atom_site_fract_x
_atom_site_fract_y
_atom_site_fract_z
O1	O	-1.667841	0.176398	-0.121684
O2	O	-1.302363	0.193204	-0.121710
O3	O	-1.493504	0.002062	-0.121693
O4	O	-1.476700	0.367540	-0.121701
O5	O	-1.493489	0.002057	0.121906
O6	O	-1.302348	0.193200	0.121889
O7	O	-1.667826	0.176394	0.121915
Cu8	Cu	-1.485085	0.184796	0.144144
Cu9	Cu	-1.485103	0.184802	-0.143939
O10	O	-1.476685	0.367536	0.121898
C11	C	-1.255557	0.191968	0.000086
C12	C	-1.116114	0.188276	0.000076
C13	C	-1.492262	-0.044738	0.000104
C14	C	-1.488570	-0.184181	0.000097
C15	C	-1.714632	0.177630	0.000116
C16	C	-1.854075	0.181322	0.000116
C17	C	-1.036629	0.300818	0.000078
C18	C	-0.905608	0.297341	0.000103
C19	C	-0.933570	0.068772	0.000119
C20	C	-1.064589	0.072249	0.000104
C21	C	-1.486845	-0.249683	-0.132690
C22	C	-1.483365	-0.380703	-0.132692
C23	C	-1.483340	-0.380710	0.132893
C24	C	-1.486811	-0.249691	0.132893
C25	C	-1.477926	0.414336	0.000098
C26	C	-1.481619	0.553779	0.000095
N27	N	-1.485082	0.184792	0.346767
C28	C	-1.569748	0.100190	0.423426
C29	C	-1.569759	0.100191	0.576763
C30	C	-1.400434	0.269406	0.576768
C31	C	-1.400418	0.269398	0.423434
N32	N	-1.485109	0.184801	0.653438
H33	H	-1.078576	0.395294	0.000066
C34	C	-0.692354	0.393503	0.000125
C35	C	-0.818236	0.421050	0.000098
H36	H	-0.638417	0.469881	0.000131
H37	H	-0.676624	0.345981	-0.084808
H38	H	-0.676646	0.345982	0.085089
H39	H	-0.833946	0.468563	-0.084872
H40	H	-0.833972	0.468592	0.085040
H41	H	-1.481958	-0.434028	-0.240821
H42	H	-0.891602	-0.025693	0.000151
C43	C	-1.079079	-0.154041	0.000104
C44	C	-1.151970	-0.051466	0.000095
H45	H	-1.133027	-0.230411	0.000094
H46	H	-1.027405	-0.150647	0.085052
H47	H	-1.027387	-0.150637	-0.084845
H48	H	-1.203656	-0.054865	0.085051
H49	H	-1.203666	-0.054862	-0.084862
H50	H	-1.488274	-0.196348	-0.240822
C51	C	-1.183665	0.341119	0.624020
C52	C	-1.307380	0.362403	0.661051
H53	H	-1.126219	0.398529	0.676061
H54	H	-1.171543	0.353230	0.521742
H55	H	-1.169327	0.257167	0.649168
H56	H	-1.321721	0.446354	0.635893
H57	H	-1.319507	0.350303	0.763352
C58	C	-1.478034	-0.581560	0.250820
C59	C	-1.481432	-0.452726	0.278857
H60	H	-1.476869	-0.626017	0.340936
H61	H	-1.404362	-0.594090	0.196271
H62	H	-1.550581	-0.611952	0.196256
H63	H	-1.408880	-0.422332	0.333412
H64	H	-1.555111	-0.440189	0.333429
C65	C	-1.486448	-0.262849	0.395424
C66	C	-1.488710	-0.177682	0.278864
H67	H	-1.487625	-0.218391	0.485534
H68	H	-1.411992	-0.305010	0.389896
H69	H	-1.558210	-0.322893	0.389902
H70	H	-1.416943	-0.117643	0.284380
H71	H	-1.563174	-0.135500	0.284395
H72	H	-1.638685	0.031297	0.361008
H73	H	-1.638699	0.031300	0.639175
H74	H	-1.331467	0.338291	0.361014
