data_functionalizedCrystal
_audit_creation_method	'MofGen! by Chris Wilmer'
_symmetry_space_group_name_H-M	'P1'
_symmetry_Int_Tables_number	1
_symmetry_cell_setting	triclinic
loop_
_symmetry_equiv_pos_as_xyz
  x,y,z
_cell_length_a	10.540539
_cell_length_b	10.540539
_cell_length_c	9.016244
_cell_angle_alpha	90.000067
_cell_angle_beta	89.994699
_cell_angle_gamma	95.474508
loop_
_atom_site_label
_atom_site_type_symbol
_atom_site_fract_x
_atom_site_fract_y
_atom_site_fract_z
O1	O	1.685893	-0.178895	-0.123263
O2	O	1.316480	-0.195751	-0.123280
O3	O	1.509614	-0.002617	-0.123269
O4	O	1.492759	-0.372030	-0.123274
O5	O	1.509586	-0.002621	0.123411
O6	O	1.316452	-0.195755	0.123400
O7	O	1.685865	-0.178900	0.123418
Cu8	Cu	1.501156	-0.187328	0.145933
Cu9	Cu	1.501189	-0.187323	-0.145795
O10	O	1.492730	-0.372034	0.123407
C11	C	1.269163	-0.194489	0.000058
C12	C	1.128215	-0.190707	0.000051
C13	C	0.944788	-0.045790	0.000628
C14	C	1.091406	-0.049624	0.000057
C15	C	1.066558	-0.258600	-0.140811
C16	C	0.920014	-0.253785	-0.140914
C17	C	0.919493	-0.256660	0.139608
C18	C	1.066475	-0.257960	0.141455
C19	C	1.508336	0.044684	0.000068
C20	C	1.504554	0.185632	0.000060
C21	C	1.733182	-0.180161	0.000077
C22	C	1.874130	-0.183943	0.000074
C23	C	1.494008	-0.419335	0.000066
C24	C	1.497790	-0.560283	0.000064
N25	N	1.501141	-0.187331	0.351119
C26	C	1.359637	0.369059	-0.000500
C27	C	1.363471	0.222441	0.000055
C28	C	1.572434	0.247287	0.140930
C29	C	1.567619	0.393832	0.141049
C30	C	1.570520	0.394355	-0.139473
C31	C	1.571820	0.247373	-0.141336
N32	N	1.501213	-0.187310	-0.350982
C33	C	1.397510	-0.290298	0.586146
C34	C	1.397739	-0.290684	0.414255
C35	C	1.633864	-0.217464	0.413464
C36	C	1.633298	-0.218193	0.585409
C37	C	1.473367	-0.053892	0.585663
C38	C	1.470322	-0.054757	0.413709
H39	H	1.109159	-0.211434	-0.245643
H40	H	1.299123	-0.272553	0.372106
C41	C	1.740667	-0.118911	0.358207
H42	H	1.705179	-0.058370	0.296470
H43	H	1.781563	-0.076545	0.440745
H44	H	1.801143	-0.161021	0.303283
H45	H	1.669083	0.441800	0.147444
H46	H	1.088912	-0.362208	-0.146054
H47	H	1.517429	0.422030	0.246347
C48	C	1.147824	0.023040	-0.136594
H49	H	1.081120	0.055010	-0.191983
H50	H	1.206278	0.091975	-0.105190
H51	H	1.190863	-0.033050	-0.196939
C52	C	1.263869	-0.266201	0.642072
H53	H	1.270115	-0.193121	0.704275
H54	H	1.210546	-0.252451	0.559831
H55	H	1.228504	-0.338164	0.696652
H56	H	1.310059	0.179839	-0.100926
H57	H	1.304121	0.399265	0.099949
H58	H	0.887935	-0.211004	0.246381
H59	H	1.107425	-0.208362	0.245664
H60	H	0.914592	0.009712	-0.099828
C61	C	1.712394	0.217085	0.148029
H62	H	1.730715	0.166479	0.064949
H63	H	1.766733	0.294344	0.146728
H64	H	1.726070	0.171771	0.236788
C65	C	1.284350	0.407708	-0.136954
H66	H	1.336490	0.467288	-0.194802
H67	H	1.259496	0.334294	-0.194967
H68	H	1.210620	0.445420	-0.105269
C69	C	1.099194	-0.396915	0.152949
H70	H	1.151158	-0.415821	0.071289
H71	H	1.143782	-0.408065	0.242853
H72	H	1.022817	-0.452593	0.151761
C73	C	1.504826	0.192072	-0.282125
H74	H	1.436153	0.131603	-0.254865
H75	H	1.473050	0.258915	-0.337438
H76	H	1.563949	0.151552	-0.340917
C77	C	1.290798	0.166023	0.136702
H78	H	1.258825	0.232726	0.192098
H79	H	1.221866	0.107567	0.105295
H80	H	1.346887	0.122985	0.197040
C81	C	1.666189	-0.349684	0.639582
H82	H	1.666139	-0.351287	0.744934
H83	H	1.604567	-0.413795	0.603210
H84	H	1.748170	-0.365083	0.604032
C85	C	1.421374	-0.423263	0.644480
H86	H	1.494265	-0.416286	0.706980
H87	H	1.349232	-0.457948	0.699219
H88	H	1.435375	-0.477581	0.563218
H89	H	0.872045	-0.355250	-0.147309
C90	C	1.508851	0.436971	-0.283712
H91	H	1.438162	0.482831	-0.260177
H92	H	1.569618	0.490201	-0.338713
H93	H	1.480693	0.364158	-0.341216
C94	C	0.906150	0.029506	0.137093
H95	H	0.846573	-0.022630	0.194951
H96	H	0.979570	0.054359	0.195090
H97	H	0.868438	0.103237	0.105422
H98	H	0.891816	-0.203602	-0.246209
C99	C	1.508708	0.189754	0.282549
H100	H	1.550463	0.227673	0.367207
H101	H	1.421513	0.205661	0.283810
H102	H	1.514854	0.100429	0.284008
H103	H	0.872266	-0.358564	0.140559
H104	H	1.674681	0.223152	-0.149837
C105	C	1.708177	0.458161	-0.140763
H106	H	1.721314	0.512190	-0.056726
H107	H	1.766101	0.394476	-0.137671
H108	H	1.722026	0.507211	-0.228678
H109	H	1.415639	-0.389668	0.373108
C110	C	1.740752	-0.120800	0.641598
H111	H	1.784565	-0.080973	0.559335
H112	H	1.705289	-0.058100	0.700156
H113	H	1.798712	-0.163257	0.699947
C114	C	1.667502	-0.347474	0.355286
H115	H	1.600844	-0.383557	0.293021
H116	H	1.744650	-0.336215	0.300332
H117	H	1.677735	-0.402872	0.436627
H118	H	1.378630	-0.025213	0.629106
H119	H	1.372684	-0.031916	0.372962
H120	H	1.134008	0.003797	0.101034
H121	H	1.540849	0.025564	0.370737
H122	H	1.548979	0.022762	0.626319
