data_functionalizedCrystal
_audit_creation_method	'MofGen! by Chris Wilmer'
_symmetry_space_group_name_H-M	'P1'
_symmetry_Int_Tables_number	1
_symmetry_cell_setting	triclinic
loop_
_symmetry_equiv_pos_as_xyz
  x,y,z
_cell_length_a	19.077105
_cell_length_b	12.759394
_cell_length_c	19.077174
_cell_angle_alpha	92.274588
_cell_angle_beta	85.483752
_cell_angle_gamma	87.711291
loop_
_atom_site_label
_atom_site_type_symbol
_atom_site_fract_x
_atom_site_fract_y
_atom_site_fract_z
Zn1	Zn	1.093765	-0.510482	-0.441858
Zn2	Zn	1.593765	-0.010482	0.058142
Zn3	Zn	1.088969	-0.678821	-0.323976
Zn4	Zn	1.588969	-0.178821	0.176024
Zn5	Zn	0.971148	-0.495796	-0.319255
Zn6	Zn	1.471148	0.004204	0.180745
Zn7	Zn	0.975863	-0.678752	-0.437093
Zn8	Zn	1.475863	-0.178752	0.062907
O9	O	1.032436	-0.590963	-0.380546
O10	O	1.532436	-0.090963	0.119454
O11	O	1.191779	-0.538988	-0.430190
O12	O	1.691779	-0.038988	0.069810
O13	O	1.069360	-0.648424	-0.224699
O14	O	1.569360	-0.148424	0.275301
O15	O	0.987447	-0.350726	-0.335538
O16	O	1.487447	0.149274	0.164462
O17	O	1.188256	-0.662665	-0.343582
O18	O	1.688256	-0.162665	0.156418
O19	O	1.077533	-0.361516	-0.425614
O20	O	1.577533	0.138484	0.074386
O21	O	0.982797	-0.513957	-0.221232
O22	O	1.482797	-0.013957	0.278768
O23	O	0.873123	-0.513890	-0.330917
O24	O	1.373123	-0.013890	0.169083
O25	O	0.995483	-0.662548	-0.536375
O26	O	1.495483	-0.162548	-0.036375
O27	O	0.876587	-0.648307	-0.417492
O28	O	1.376587	-0.148307	0.082508
O29	O	1.082105	-0.538921	-0.539876
O30	O	1.582105	-0.038921	-0.039876
O31	O	1.073931	-0.825829	-0.338962
O32	O	1.573931	-0.325829	0.161038
O33	O	0.990833	-0.825779	-0.422069
O34	O	1.490833	-0.325779	0.077931
C35	C	0.849276	-0.579498	-0.373176
C36	C	1.349276	-0.079498	0.126824
C37	C	0.770919	-0.574620	-0.370040
C38	C	1.270919	-0.074620	0.129960
C39	C	1.032393	-0.863926	-0.380527
C40	C	1.532393	-0.363926	0.119473
C41	C	1.032440	-0.980707	-0.380545
C42	C	1.532440	-0.480707	0.119455
C43	C	0.735926	-0.642409	-0.413571
C44	C	1.235926	-0.142409	0.086429
C45	C	0.662303	-0.637812	-0.410628
C46	C	1.162303	-0.137812	0.089372
C47	C	0.623673	-0.565430	-0.364149
C48	C	1.123673	-0.065430	0.135851
C49	C	0.658671	-0.497634	-0.320617
C50	C	1.158671	0.002366	0.179383
C51	C	0.732293	-0.502227	-0.323564
C52	C	1.232293	-0.002227	0.176436
C53	C	0.403289	-0.544174	-0.350512
C54	C	0.903289	-0.044174	0.149488
C55	C	0.329662	-0.539588	-0.347567
C56	C	0.829662	-0.039588	0.152433
C57	C	0.333299	-0.679765	-0.437579
C58	C	0.833299	-0.179765	0.062421
C59	C	0.406923	-0.684356	-0.440519
C60	C	0.906923	-0.184356	0.059481
C61	C	0.441914	-0.616556	-0.396989
C62	C	0.941914	-0.116556	0.103011
N63	N	0.548417	-0.560731	-0.361138
N64	N	1.048417	-0.060731	0.138862
N65	N	0.517168	-0.621251	-0.400004
N66	N	1.017168	-0.121251	0.099996
C67	C	1.119041	-0.980715	-0.294076
C68	C	1.619041	-0.480715	0.205924
C69	C	1.162360	-1.035581	-0.250850
C70	C	1.662360	-0.535581	0.249150
C71	C	1.162402	-1.145306	-0.250871
C72	C	1.662402	-0.645306	0.249129
C73	C	1.119122	-1.200168	-0.294124
C74	C	1.619122	-0.700168	0.205876
C75	C	1.075803	-1.145302	-0.337349
C76	C	1.575803	-0.645302	0.162651
C77	C	1.075764	-1.035574	-0.337322
C78	C	1.575764	-0.535574	0.162678
C79	C	0.989207	-1.145294	-0.423821
C80	C	1.489207	-0.645294	0.076179
C81	C	0.989160	-1.035569	-0.423798
C82	C	1.489160	-0.535569	0.076202
C83	C	0.945927	-1.200156	-0.467074
C84	C	1.445927	-0.700156	0.032926
C85	C	0.902603	-1.145289	-0.510297
C86	C	1.402603	-0.645289	-0.010297
C87	C	0.902562	-1.035557	-0.510274
C88	C	1.402562	-0.535557	-0.010274
C89	C	0.945841	-0.980702	-0.467023
C90	C	1.445841	-0.480702	0.032977
C91	C	1.216312	-0.602472	-0.387945
C92	C	1.716312	-0.102472	0.112055
C93	C	1.294669	-0.607377	-0.391097
C94	C	1.794669	-0.107377	0.108903
C95	C	1.039855	-0.602365	-0.564420
C96	C	1.539855	-0.102365	-0.064420
C97	C	1.043016	-0.607224	-0.642776
C98	C	1.543016	-0.107224	-0.142776
C99	C	1.032499	-0.316935	-0.380581
C100	C	1.532499	0.183065	0.119419
C101	C	1.032526	-0.200161	-0.380596
C102	C	1.532526	0.299839	0.119404
C103	C	0.999435	-0.539498	-0.677782
C104	C	1.499435	-0.039498	-0.177782
C105	C	1.002403	-0.544073	-0.751406
C106	C	1.502403	-0.044073	-0.251406
C107	C	1.048956	-0.616368	-0.790023
C108	C	1.548956	-0.116368	-0.290023
C109	C	1.092539	-0.684101	-0.755012
C110	C	1.592539	-0.184101	-0.255012
C111	C	1.089567	-0.679531	-0.681389
C112	C	1.589567	-0.179531	-0.181389
C113	C	1.062673	-0.637548	-1.010405
C114	C	1.562673	-0.137548	-0.510405
C115	C	1.065643	-0.642110	-1.084032
C116	C	1.565643	-0.142110	-0.584032
C117	C	0.975506	-0.502082	-1.080421
C118	C	1.475506	-0.002082	-0.580421
C119	C	0.972541	-0.497515	-1.006798
C120	C	1.472541	0.002485	-0.506798
C121	C	1.016121	-0.565251	-0.971793
C122	C	1.516121	-0.065251	-0.471793
N123	N	1.051992	-0.621043	-0.865278
N124	N	1.551992	-0.121043	-0.365278
N125	N	1.013081	-0.560581	-0.896539
N126	N	1.513081	-0.060581	-0.396539
C127	C	1.025087	-0.579531	-0.197389
C128	C	1.525087	-0.079531	0.302611
C129	C	1.022062	-0.574385	-0.119038
C130	C	1.522062	-0.074385	0.380962
H131	H	0.767374	-0.701353	-0.451416
H132	H	1.267374	-0.201353	0.048584
F133	F	0.440521	-0.472012	-0.304185
F134	F	0.940521	0.027988	0.195815
F135	F	0.617556	-0.420593	-0.271156
F136	F	1.117556	0.079407	0.228844
F137	F	0.769535	-0.430074	-0.277234
F138	F	1.269535	0.069926	0.222766
H139	H	0.867371	-1.189967	-0.545513
H140	H	1.367371	-0.689967	-0.045513
F141	F	1.119161	-0.863955	-0.294211
F142	F	1.619161	-0.363955	0.205789
F143	F	1.208510	-1.203701	-0.204869
F144	F	1.708510	-0.703701	0.295131
H145	H	1.103556	-0.700984	-1.115472
H146	H	1.603556	-0.200984	-0.615472
H147	H	0.867289	-0.990891	-0.545476
H148	H	1.367289	-0.490891	-0.045476
H149	H	1.197600	-0.990903	-0.215636
H150	H	1.697600	-0.490903	0.284364
H151	H	1.119167	-1.289513	-0.294143
H152	H	1.619167	-0.789513	0.205857
F153	F	0.288550	-0.462552	-0.298092
F154	F	0.788550	0.037448	0.201908
F155	F	0.945730	-1.316906	-0.466852
F156	F	1.445730	-0.816906	0.033148
F157	F	0.922994	-0.420566	-0.965704
F158	F	1.422994	0.079434	-0.465704
H159	H	0.945807	-0.891358	-0.466995
H160	H	1.445807	-0.391358	0.033005
F161	F	0.949890	-0.462546	-0.636690
F162	F	1.449890	0.037454	-0.136690
F163	F	0.955991	-0.472026	-0.788657
F164	F	1.455991	0.027974	-0.288657
H165	H	0.940024	-0.446936	-1.108930
H166	H	1.440024	0.053064	-0.608930
H167	H	1.098152	-0.692715	-0.981912
H168	H	1.598152	-0.192715	-0.481912
F169	F	1.135950	-0.751618	-0.644133
F170	F	1.635950	-0.251618	-0.144133
F171	F	0.625064	-0.709962	-0.456959
F172	F	1.125064	-0.209962	0.043041
F173	F	0.448030	-0.761397	-0.489986
F174	F	0.948030	-0.261397	0.010014
H175	H	1.130440	-0.742971	-0.786459
H176	H	1.630440	-0.242971	-0.286459
H177	H	0.304801	-0.734963	-0.473019
H178	H	0.804801	-0.234963	0.026981
