data_functionalizedCrystal
_audit_creation_method	'MofGen! by Chris Wilmer'
_symmetry_space_group_name_H-M	'P1'
_symmetry_Int_Tables_number	1
_symmetry_cell_setting	triclinic
loop_
_symmetry_equiv_pos_as_xyz
  x,y,z
_cell_length_a	8.965430
_cell_length_b	10.489689
_cell_length_c	10.489746
_cell_angle_alpha	95.470439
_cell_angle_beta	90.000118
_cell_angle_gamma	90.007027
loop_
_atom_site_label
_atom_site_type_symbol
_atom_site_fract_x
_atom_site_fract_y
_atom_site_fract_z
O1	O	-0.124151	-1.694095	0.179641
O2	O	-0.124130	-1.322892	0.196603
O3	O	-0.124130	-1.516937	0.002523
O4	O	-0.124152	-1.500050	0.373721
O5	O	0.123949	-1.516920	0.002536
O6	O	0.123949	-1.322875	0.196616
O7	O	0.123927	-1.694079	0.179654
Cu8	Cu	0.146590	-1.508476	0.188136
Cu9	Cu	-0.146792	-1.508495	0.188121
O10	O	0.123927	-1.500034	0.373734
C11	C	-0.000088	-1.275351	0.195343
C12	C	-0.000080	-1.133718	0.191552
N13	N	0.352939	-1.508471	0.188146
C14	C	-0.000091	-1.515652	-0.045002
C15	C	-0.000092	-1.511832	-0.186630
N16	N	-0.353142	-1.508509	0.188101
C17	C	0.450245	-1.418704	0.277872
C18	C	0.549650	-1.534204	0.303661
C19	C	0.549661	-1.393020	0.162368
C20	C	0.450155	-1.624030	0.213993
C21	C	0.450157	-1.482770	0.072650
C22	C	0.549518	-1.598353	0.098390
C23	C	-0.000098	-0.951332	0.308271
C24	C	-0.122411	-1.043485	0.249962
C25	C	0.122176	-1.043442	0.249943
C26	C	-0.122517	-0.973531	0.126425
C27	C	0.122179	-0.973478	0.126424
C28	C	-0.000164	-1.065604	0.068025
C29	C	-0.000110	-0.741618	0.180935
C30	C	-0.000103	-0.883243	0.184785
C31	C	-0.000103	-1.386105	-0.339464
C32	C	-0.122420	-1.448972	-0.262091
C33	C	0.122167	-1.448985	-0.262119
C34	C	-0.122542	-1.567956	-0.361604
C35	C	0.122155	-1.567952	-0.361638
C36	C	-0.000192	-1.630905	-0.284313
C37	C	-0.000115	-1.501319	0.421259
C38	C	-0.000124	-1.505139	0.562887
H39	H	0.406656	-1.342861	0.353820
N40	N	0.251881	-1.385917	-0.207572
N41	N	0.238293	-1.291422	-0.126339
H42	H	0.329897	-1.246873	-0.087812
N43	N	0.603907	-1.693688	0.003176
N44	N	0.683631	-1.661834	-0.086262
H45	H	0.722053	-1.729167	-0.153502
N46	N	-0.000243	-1.127686	-0.059412
N47	N	0.000742	-1.247221	-0.077140
H48	H	0.000682	-1.291070	-0.167142
N49	N	-0.252151	-1.082392	0.315471
N50	N	-0.379098	-1.058647	0.274514
H51	H	-0.470725	-1.086123	0.320783
H52	H	0.406421	-1.460970	-0.024973
N53	N	0.604460	-1.561501	0.426171
N54	N	0.572657	-1.488935	0.523876
H55	H	0.611359	-1.508206	0.610402
N56	N	0.251892	-0.934538	0.060913
N57	N	0.274910	-0.977153	-0.052752
H58	H	0.366529	-0.949647	-0.099014
N59	N	0.251902	-1.082246	0.315526
N60	N	0.343926	-1.000288	0.360206
H61	H	0.435541	-1.027687	0.406532
H62	H	0.593373	-1.295370	0.140585
H63	H	-0.226041	-0.942728	0.074219
N64	N	0.395544	-1.746558	0.241456
N65	N	0.258231	-1.766302	0.245949
H66	H	0.219657	-1.852836	0.265347
H67	H	-0.225826	-1.398729	-0.218611
N68	N	-0.252403	-1.630968	-0.415928
N69	N	-0.273397	-1.638177	-0.534200
H70	H	-0.365110	-1.682678	-0.572570
N71	N	-0.000256	-1.256259	-0.370442
N72	N	-0.105441	-1.183385	-0.334277
H73	H	-0.105556	-1.091683	-0.356155
H74	H	-0.000264	-1.734487	-0.259858
H75	H	0.225565	-1.618150	-0.405141
H76	H	-0.000223	-0.901643	0.409776
