data_functionalizedCrystal
_audit_creation_method	'MofGen! by Chris Wilmer'
_symmetry_space_group_name_H-M	'P1'
_symmetry_Int_Tables_number	1
_symmetry_cell_setting	triclinic
loop_
_symmetry_equiv_pos_as_xyz
  x,y,z
_cell_length_a	10.540510
_cell_length_b	16.974813
_cell_length_c	16.053802
_cell_angle_alpha	88.912550
_cell_angle_beta	87.392914
_cell_angle_gamma	83.953113
loop_
_atom_site_label
_atom_site_type_symbol
_atom_site_fract_x
_atom_site_fract_y
_atom_site_fract_z
O1	O	1.690018	0.107672	-0.076708
O2	O	1.320483	0.118162	-0.077417
O3	O	1.514955	-0.001761	-0.069310
O4	O	1.495546	0.227594	-0.084815
O5	O	1.504251	0.004813	0.069104
O6	O	1.309779	0.124735	0.060998
O7	O	1.679314	0.114245	0.061707
Zn8	Zn	1.492847	0.120534	0.083328
Zn9	Zn	1.506950	0.111873	-0.099039
O10	O	1.484842	0.234168	0.053600
C11	C	1.508666	-0.027843	0.001880
C12	C	1.505858	-0.115352	0.007791
C13	C	1.267836	0.120667	-0.008157
C14	C	1.126912	0.118328	-0.007999
C15	C	1.510377	-0.160043	-0.064882
C16	C	1.507731	-0.242266	-0.059326
C17	C	1.500575	-0.279798	0.018903
C18	C	1.496052	-0.235101	0.091581
C19	C	1.498689	-0.152878	0.086025
C20	C	1.492053	-0.525322	0.043613
C21	C	1.489420	-0.607551	0.049164
C22	C	1.501097	-0.614710	-0.101744
C23	C	1.503741	-0.532486	-0.107294
C24	C	1.499212	-0.487796	-0.034616
N25	N	1.497874	-0.363844	0.024584
N26	N	1.501904	-0.403751	-0.040297
C27	C	0.908554	0.201622	-0.013949
C28	C	1.055098	0.204132	-0.013800
C29	C	1.076529	0.078158	0.074010
C30	C	0.929784	0.076274	0.074198
C31	C	0.942171	0.067012	-0.083084
C32	C	1.088547	0.071032	-0.084399
C33	C	1.731961	0.111740	-0.007555
C34	C	1.872885	0.114079	-0.007719
C35	C	1.491131	0.260250	-0.017593
C36	C	1.493939	0.347758	-0.023508
N37	N	1.483231	0.126444	0.207789
N38	N	1.516576	0.105957	-0.223499
C39	C	1.566009	0.075435	0.254931
C40	C	1.559294	0.079577	0.342058
C41	C	1.469807	0.134732	0.382041
C42	C	1.387020	0.185743	0.334892
C43	C	1.393729	0.181597	0.247768
C44	C	1.440499	0.152821	0.642228
C45	C	1.433798	0.156965	0.729359
C46	C	1.606072	0.050798	0.736518
C47	C	1.612779	0.046660	0.649391
C48	C	1.529987	0.097668	0.602251
N49	N	1.462944	0.138969	0.471098
N50	N	1.536845	0.093427	0.513195
H51	H	1.516211	-0.129491	-0.128585
Cl52	Cl	1.663359	0.015450	0.401324
H53	H	0.884665	0.109097	0.131253
H54	H	1.638885	0.030526	0.222383
H55	H	1.360922	0.201882	0.761908
H56	H	1.314150	0.230649	0.367452
H57	H	1.326321	0.223133	0.209385
H58	H	1.373088	0.194356	0.603852
H59	H	1.511416	-0.278650	-0.118504
Cl60	Cl	1.150414	-0.019156	0.085141
H61	H	1.509570	-0.501934	-0.170996
Cl62	Cl	1.506788	-0.670896	-0.193104
H63	H	1.490218	-0.265665	0.155277
H64	H	1.483586	-0.638106	0.112871
H65	H	1.494991	-0.116491	0.145202
Cl66	Cl	0.894944	-0.022538	0.086489
H67	H	1.685647	0.001748	0.616839
H68	H	1.673476	0.009269	0.774908
Cl69	Cl	1.486339	-0.469149	0.134980
Cl70	Cl	0.849974	0.249083	-0.104954
H71	H	0.920775	0.002565	-0.079264
Cl72	Cl	1.091591	0.261662	0.070220
H73	H	1.102495	0.111456	0.130769
H74	H	1.121332	0.100214	-0.145032
Cl75	Cl	0.883187	0.104406	-0.178404
H76	H	1.088443	0.235804	-0.072784
H77	H	0.860318	0.237535	0.040167
H78	H	1.138681	0.008162	-0.084937
