data_functionalizedCrystal
_audit_creation_method	'MofGen! by Chris Wilmer'
_symmetry_space_group_name_H-M	'P1'
_symmetry_Int_Tables_number	1
_symmetry_cell_setting	triclinic
loop_
_symmetry_equiv_pos_as_xyz
  x,y,z
_cell_length_a	17.077404
_cell_length_b	12.645330
_cell_length_c	17.077396
_cell_angle_alpha	90.026204
_cell_angle_beta	90.019501
_cell_angle_gamma	90.012871
loop_
_atom_site_label
_atom_site_type_symbol
_atom_site_fract_x
_atom_site_fract_y
_atom_site_fract_z
Zn1	Zn	1.200110	-0.422033	0.443855
Zn2	Zn	1.200041	-0.599318	0.312594
Zn3	Zn	1.068842	-0.422070	0.312603
Zn4	Zn	1.068834	-0.599256	0.443818
O5	O	1.134457	-0.510669	0.378218
O6	O	1.309948	-0.445561	0.426455
O7	O	1.182612	-0.575848	0.202749
O8	O	1.086288	-0.273718	0.330033
O9	O	1.309897	-0.575812	0.330018
O10	O	1.182730	-0.273691	0.426464
O11	O	1.086221	-0.445624	0.202755
O12	O	0.958994	-0.445563	0.329997
O13	O	1.086273	-0.575705	0.553670
O14	O	0.958988	-0.575741	0.426400
O15	O	1.182722	-0.445500	0.553697
O16	O	1.182603	-0.747657	0.329982
O17	O	1.086206	-0.747611	0.426392
C18	C	0.930509	-0.510650	0.378196
C19	C	0.843259	-0.510667	0.378205
C20	C	0.802286	-0.578553	0.428322
C21	C	0.720306	-0.578555	0.428334
C22	C	0.679300	-0.510677	0.378226
C23	C	0.720278	-0.442783	0.328107
C24	C	0.802257	-0.442777	0.328099
C25	C	0.549408	-0.442804	0.328126
C26	C	0.467424	-0.442812	0.328133
C27	C	0.467457	-0.578583	0.428361
C28	C	0.549436	-0.578576	0.428353
C29	C	0.590409	-0.510684	0.378233
C30	C	1.134418	-0.786099	0.378199
C31	C	1.134473	-0.903929	0.378217
C32	C	1.195019	-1.071478	0.317443
C33	C	1.195216	-0.948918	0.317592
C34	C	1.156905	-0.948313	0.460961
C35	C	1.157385	-1.070911	0.460639
C36	C	1.051470	-1.071256	0.357063
C37	C	1.051868	-0.948652	0.355208
C38	C	1.339201	-0.510689	0.378240
C39	C	1.426451	-0.510698	0.378249
C40	C	1.134504	-0.510591	0.582962
C41	C	1.134525	-0.510558	0.670212
C42	C	1.134518	-0.234164	0.378253
C43	C	1.134544	-0.116334	0.378269
C44	C	1.134455	-0.510671	0.174270
C45	C	1.134587	-0.510405	0.087020
C46	C	1.184747	-0.442755	0.711218
C47	C	1.184757	-0.442719	0.793198
C48	C	1.134547	-0.510493	0.834171
C49	C	1.084319	-0.578300	0.793160
C50	C	1.084306	-0.578329	0.711181
C51	C	1.084350	-0.578236	0.964030
C52	C	1.084364	-0.578208	1.046015
C53	C	1.184801	-0.442626	1.046047
C54	C	1.184788	-0.442656	0.964068
C55	C	1.134561	-0.510464	0.923062
H56	H	0.686949	-0.633836	0.469144
N57	N	0.846512	-0.651773	0.482363
H58	H	0.808112	-0.694777	0.514114
H59	H	0.880548	-0.608683	0.518742
N60	N	0.593667	-0.651796	0.482390
H61	H	0.555273	-0.694805	0.514143
H62	H	0.627703	-0.608704	0.518768
N63	N	0.423181	-0.369637	0.274073
H64	H	0.389169	-0.320576	0.306028
H65	H	0.389207	-0.412778	0.237669
H66	H	1.225678	-0.387474	0.930710
N67	N	1.276084	-1.112184	0.335814
H68	H	1.291738	-1.088852	0.390182
H69	H	1.314520	-1.082987	0.296426
N70	N	1.101577	-1.110217	0.522717
H71	H	1.118840	-1.083316	0.575677
H72	H	1.101478	-1.190085	0.522923
N73	N	1.030143	-0.651469	0.666952
H74	H	1.037752	-0.641202	0.608802
H75	H	0.974087	-0.634958	0.681274
H76	H	1.256746	-0.919510	0.331618
H77	H	0.434093	-0.633860	0.469173
N78	N	1.238912	-0.369667	0.667028
H79	H	1.207024	-0.320549	0.633009
H80	H	1.275259	-0.412855	0.633066
N81	N	1.030178	-0.651283	1.090190
H82	H	0.993824	-0.608161	1.124193
H83	H	1.062100	-0.700411	1.124165
H84	H	1.043434	-0.633479	0.826527
H85	H	0.582766	-0.387510	0.287320
N86	N	1.238958	-0.369480	1.090282
H87	H	1.226779	-0.293742	1.076019
H88	H	1.295021	-0.386038	1.076017
H89	H	1.043438	-0.633436	0.930646
N90	N	0.991780	-1.109696	0.415733
H91	H	0.938526	-1.080487	0.401815
H92	H	1.007048	-1.084836	0.469837
H93	H	1.181160	-1.101030	0.255910
H94	H	0.686885	-0.387511	0.287311
N95	N	0.846454	-0.369550	0.274051
H96	H	0.808039	-0.326550	0.242308
H97	H	0.880450	-0.412630	0.237664
N98	N	1.024444	-1.112322	0.278533
H99	H	1.065782	-1.160570	0.255906
H100	H	1.015459	-1.050876	0.241856
N101	N	1.176636	-0.909163	0.236323
H102	H	1.168242	-0.971280	0.200080
H103	H	1.221690	-0.864886	0.216519
N104	N	1.237821	-1.108690	0.484413
H105	H	1.272633	-1.045704	0.495004
H106	H	1.261035	-1.152551	0.440777
H107	H	1.216941	-0.917524	0.479223
N108	N	1.100339	-0.909717	0.522607
H109	H	1.059531	-0.862976	0.497429
H110	H	1.129810	-0.868080	0.563605
H111	H	1.034954	-0.919654	0.294315
H112	H	1.004379	-0.918039	0.396262
N113	N	1.238909	-0.369568	0.837427
H114	H	1.270714	-0.326637	0.799031
H115	H	1.275235	-0.412693	0.871451
