data_functionalizedCrystal
_audit_creation_method	'MofGen! by Chris Wilmer'
_symmetry_space_group_name_H-M	'P1'
_symmetry_Int_Tables_number	1
_symmetry_cell_setting	triclinic
loop_
_symmetry_equiv_pos_as_xyz
  x,y,z
_cell_length_a	13.897441
_cell_length_b	14.908571
_cell_length_c	14.908520
_cell_angle_alpha	89.794039
_cell_angle_beta	93.265227
_cell_angle_gamma	93.314722
loop_
_atom_site_label
_atom_site_type_symbol
_atom_site_fract_x
_atom_site_fract_y
_atom_site_fract_z
Zn1	Zn	-0.655761	-1.353988	-0.437377
Zn2	Zn	-0.503192	-1.345199	-0.587748
Zn3	Zn	-0.484683	-1.203617	-0.428726
Zn4	Zn	-0.654647	-1.194916	-0.579001
O5	O	-0.574571	-1.274430	-0.508213
O6	O	-0.643736	-1.478647	-0.464605
O7	O	-0.365755	-1.326381	-0.566694
O8	O	-0.500097	-1.230883	-0.304052
O9	O	-0.531643	-1.472190	-0.575082
O10	O	-0.625788	-1.341360	-0.310408
O11	O	-0.352156	-1.222361	-0.449862
O12	O	-0.499016	-1.076637	-0.441379
O13	O	-0.789776	-1.216054	-0.560173
O14	O	-0.623888	-1.070245	-0.551785
O15	O	-0.790595	-1.332923	-0.456123
O16	O	-0.530562	-1.317944	-0.712409
O17	O	-0.641836	-1.207532	-0.705983
C18	C	-0.559323	-1.040816	-0.494695
C19	C	-0.552824	-0.940874	-0.488934
C20	C	-0.826163	-1.274498	-0.508137
C21	C	-0.933377	-1.274527	-0.508105
C22	C	-0.588109	-1.260865	-0.741822
C23	C	-0.593939	-1.255144	-0.841765
C24	C	-1.129670	-1.274555	-0.508046
C25	C	-1.020439	-1.274537	-0.508081
C26	C	-0.323956	-1.274417	-0.508227
C27	C	-0.216740	-1.274577	-0.508016
C28	C	-0.589879	-1.508956	-0.521784
C29	C	-0.596402	-1.608897	-0.527568
C30	C	-0.670486	-0.746453	-0.593252
C31	C	-0.664383	-0.652548	-0.587841
C32	C	-0.534521	-0.659158	-0.472698
C33	C	-0.540624	-0.753063	-0.478109
C34	C	-0.608607	-0.796707	-0.538389
C35	C	-0.614705	-0.890613	-0.543803
C36	C	-0.484848	-0.897221	-0.428656
C37	C	-0.478746	-0.803316	-0.423246
C38	C	-0.489131	-1.359484	-1.036207
C39	C	-0.494606	-1.354112	-1.130113
C40	C	-0.610366	-1.239032	-1.123485
C41	C	-0.604892	-1.244404	-1.029579
C42	C	-0.544271	-1.304631	-0.985944
C43	C	-0.538792	-1.309999	-0.892036
C44	C	-0.654558	-1.194923	-0.885409
C45	C	-0.660032	-1.189551	-0.979315
C46	C	-0.561002	-1.288073	-0.273694
C47	C	-0.555220	-1.293887	-0.173756
H48	H	-0.670059	-0.926147	-0.592887
H49	H	-0.479178	-0.623606	-0.423616
C50	C	-0.403968	-0.755297	-0.356941
N51	N	-0.347641	-0.719129	-0.307002
C52	C	-0.416775	-0.952508	-0.368305
N53	N	-0.365500	-0.994151	-0.322853
C54	C	-0.472109	-1.376249	-0.844038
N55	N	-0.421883	-1.426153	-0.807889
C56	C	-0.422447	-1.425732	-0.988206
N57	N	-0.372220	-1.475632	-0.952053
C58	C	-0.732448	-0.597272	-0.648201
N59	N	-0.783716	-0.555638	-0.693669
C60	C	-0.677042	-1.172785	-1.171500
N61	N	-0.727259	-1.122886	-1.207667
C62	C	-0.433943	-1.414451	-1.185400
N63	N	-0.388249	-1.459900	-1.227042
H64	H	-0.709390	-1.140518	-1.014856
H65	H	-0.699453	-1.150256	-0.844473
H66	H	-0.725836	-0.781988	-0.642339
