data_functionalizedCrystal
_audit_creation_method	'MofGen! by Chris Wilmer'
_symmetry_space_group_name_H-M	'P1'
_symmetry_Int_Tables_number	1
_symmetry_cell_setting	triclinic
loop_
_symmetry_equiv_pos_as_xyz
  x,y,z
_cell_length_a	6.817900
_cell_length_b	11.102193
_cell_length_c	11.102193
_cell_angle_alpha	91.949438
_cell_angle_beta	108.604059
_cell_angle_gamma	108.603963
loop_
_atom_site_label
_atom_site_type_symbol
_atom_site_fract_x
_atom_site_fract_y
_atom_site_fract_z
V1	V	-4.111505	-0.175848	-0.396257
O2	O	-4.070548	0.008441	-0.388714
O3	O	-4.088273	-0.348668	-0.393546
O4	O	-4.088280	-0.173147	-0.569079
O5	O	-4.070541	-0.168295	-0.211967
V6	V	-4.588610	-0.153804	-0.374215
O7	O	-4.386843	-0.224202	-0.444609
O8	O	-4.763470	-0.105450	-0.325862
O9	O	-4.388635	0.019016	-0.376925
O10	O	-4.746964	-0.338093	-0.381757
O11	O	-4.746971	-0.161357	-0.558504
O12	O	-4.388629	-0.156505	-0.201393
C13	C	-3.938582	-0.390797	-0.387295
C14	C	-4.001042	-0.532080	-0.386231
C15	C	-3.846384	-0.591987	-0.379398
C16	C	-3.905085	-0.724737	-0.378400
C17	C	-4.273115	-0.737664	-0.391075
C18	C	-4.214408	-0.604914	-0.392063
C19	C	-3.633908	-0.584525	-0.372086
C20	C	-3.692609	-0.717276	-0.371088
C21	C	-3.938589	-0.166902	-0.611202
C22	C	-4.001049	-0.165837	-0.752485
C23	C	-4.121366	-0.398615	-0.788811
C24	C	-4.210859	-0.514498	-0.873347
C25	C	-4.269545	-0.513491	-1.006093
C26	C	-4.238739	-0.396587	-1.054304
C27	C	-4.149246	-0.280704	-0.969769
C28	C	-4.090559	-0.281724	-0.837021
C29	C	-4.028945	-0.047929	-0.933443
C30	C	-3.970243	-0.048934	-0.800696
C31	C	-3.998139	0.068974	-0.981655
C32	C	-3.908630	0.184861	-0.897118
C33	C	-3.849940	0.183848	-0.764365
C34	C	-3.880750	0.066950	-0.716161
C35	C	-4.201669	0.061138	-0.383173
C36	C	-4.118449	0.202420	-0.384245
C37	C	-4.201662	-0.162755	-0.159263
C38	C	-4.118438	-0.163813	-0.017979
H39	H	-4.073555	-0.399446	-0.680723
H40	H	-4.235940	-0.609679	-0.834078
H41	H	-4.342421	-0.607853	-1.074923
H42	H	-3.597434	-0.555405	-0.462313
H43	H	-4.340343	-0.556142	-0.397614
H44	H	-4.286556	-0.395778	-1.162396
H45	H	-3.673145	-0.764367	-0.457360
H46	H	-4.446836	-0.796981	-0.395819
C47	C	-4.062682	0.070079	-1.127679
N48	N	-4.111281	0.070915	-1.237665
C49	C	-3.816195	0.065825	-0.570139
N50	N	-3.767582	0.064973	-0.460154
H51	H	-3.883570	0.280034	-0.936384
H52	H	-3.490200	-0.531707	-0.280194
C53	C	-3.563732	-0.750361	-0.243064
N54	N	-3.466665	-0.775282	-0.146638
C55	C	-3.751494	0.311332	-0.671384
N56	N	-3.677341	0.407357	-0.601355
