data_functionalizedCrystal
_audit_creation_method	'MofGen! by Chris Wilmer'
_symmetry_space_group_name_H-M	'P1'
_symmetry_Int_Tables_number	1
_symmetry_cell_setting	triclinic
loop_
_symmetry_equiv_pos_as_xyz
  x,y,z
_cell_length_a	10.540539
_cell_length_b	17.038272
_cell_length_c	9.016244
_cell_angle_alpha	89.997742
_cell_angle_beta	89.994699
_cell_angle_gamma	87.818524
loop_
_atom_site_label
_atom_site_type_symbol
_atom_site_fract_x
_atom_site_fract_y
_atom_site_fract_z
O1	O	1.696177	0.110247	-0.123272
O2	O	1.327733	0.120634	-0.123290
O3	O	1.509765	0.001613	-0.123269
O4	O	1.514144	0.229268	-0.123293
O5	O	1.509737	0.001615	0.123411
O6	O	1.327704	0.120637	0.123390
O7	O	1.696149	0.110249	0.123409
Cu8	Cu	1.511924	0.115443	0.145924
Cu9	Cu	1.511957	0.115440	-0.145805
O10	O	1.514116	0.229271	0.123388
C11	C	1.280343	0.119857	0.000048
C12	C	1.139177	0.117526	0.000041
C13	C	0.947420	0.028219	0.000626
C14	C	1.094259	0.030581	0.000055
C15	C	1.081424	0.159366	-0.140824
C16	C	0.934603	0.156399	-0.140927
C17	C	0.934247	0.158170	0.139595
C18	C	1.081304	0.158971	0.141442
C19	C	1.505768	-0.027537	0.000071
C20	C	1.493883	-0.114398	0.000070
C21	C	1.602994	-0.163886	0.000077
C22	C	1.591820	-0.245501	0.000062
C23	C	1.471534	-0.277626	0.000051
C24	C	1.362416	-0.228133	0.000039
C25	C	1.373591	-0.146519	0.000044
C26	C	1.432055	-0.523611	0.000029
C27	C	1.420888	-0.605231	0.000029
C28	C	1.650293	-0.622593	0.000049
C29	C	1.661457	-0.540977	0.000062
C30	C	1.552339	-0.491491	0.000042
C31	C	1.460110	-0.361050	0.000041
C32	C	1.563764	-0.408069	0.000042
C33	C	1.743538	0.111027	0.000068
C34	C	1.884704	0.113358	0.000065
C35	C	1.518114	0.258421	0.000045
C36	C	1.529998	0.345282	0.000036
N37	N	1.511910	0.115445	0.351110
N38	N	1.511981	0.115432	-0.350991
C39	C	1.414197	0.178900	0.586131
C40	C	1.414449	0.179138	0.414240
C41	C	1.646365	0.134015	0.413453
C42	C	1.645841	0.134465	0.585397
C43	C	1.476465	0.033212	0.585660
C44	C	1.473470	0.033745	0.413706
H45	H	0.914034	-0.005985	-0.099827
H46	H	1.119403	0.128406	0.245654
C47	C	1.747736	0.074462	0.641589
N48	N	1.824498	0.029279	0.683906
C49	C	1.687469	0.214143	0.355271
N50	N	1.718420	0.274500	0.311457
H51	H	1.661700	-0.381909	0.000018
H52	H	1.438038	0.240138	0.373088
H53	H	1.314246	0.167898	0.627521
H54	H	1.133790	-0.002340	0.101034
C55	C	1.686277	0.215508	0.639553
N56	N	1.716725	0.276554	0.680335
H57	H	1.264477	-0.254296	0.000021
C58	C	1.253561	-0.092083	0.000039
N59	N	1.163150	-0.051082	0.000032
H60	H	1.121313	0.130299	-0.245654
C61	C	1.445705	0.260844	0.644473
N62	N	1.469441	0.322563	0.688419
H63	H	1.322932	-0.631384	0.000044
H64	H	1.362173	-0.387215	0.000035
H65	H	0.915619	-0.006128	0.101649
H66	H	1.314790	0.167964	0.372092
H67	H	1.759406	-0.514827	0.000071
C68	C	1.339786	0.014730	0.358671
N69	N	1.239094	0.000410	0.317213
H70	H	1.132923	-0.002574	-0.101092
C71	C	1.562531	-0.033126	0.355690
N72	N	1.629631	-0.083490	0.312006
H73	H	0.900064	0.130034	0.246370
C74	C	0.878355	0.243008	0.140877
N75	N	0.836249	0.306905	0.141832
C76	C	1.572653	-0.030608	0.640601
N77	N	1.645104	-0.078671	0.681992
C78	C	1.346225	0.009351	0.644297
N79	N	1.248122	-0.008611	0.688462
H80	H	1.111442	0.222360	0.149940
H81	H	1.721226	0.089051	0.372556
C82	C	1.770314	-0.677034	0.000056
N83	N	1.860720	-0.718040	0.000055
H84	H	1.700943	-0.137736	0.000095
C85	C	1.312019	-0.469186	-0.000001
N86	N	1.221603	-0.428190	-0.000027
C87	C	0.877676	0.240870	-0.149604
N88	N	0.834804	0.304493	-0.156156
C89	C	0.892609	0.114611	-0.283163
N90	N	0.860986	0.083132	-0.390296
H91	H	1.109733	0.223216	-0.146072
H92	H	1.680669	-0.285790	0.000071
