data_functionalizedCrystal
_audit_creation_method	'MofGen! by Chris Wilmer'
_symmetry_space_group_name_H-M	'P1'
_symmetry_Int_Tables_number	1
_symmetry_cell_setting	triclinic
loop_
_symmetry_equiv_pos_as_xyz
  x,y,z
_cell_length_a	13.339070
_cell_length_b	16.974800
_cell_length_c	15.455313
_cell_angle_alpha	90.973911
_cell_angle_beta	93.394339
_cell_angle_gamma	99.476486
loop_
_atom_site_label
_atom_site_type_symbol
_atom_site_fract_x
_atom_site_fract_y
_atom_site_fract_z
O1	O	0.129038	1.077288	0.003523
O2	O	0.144496	0.851236	-0.012353
O3	O	-0.010570	0.938318	-0.006234
O4	O	0.284104	0.990206	-0.002595
O5	O	-0.001739	0.933331	0.137677
O6	O	0.153327	0.846248	0.131559
O7	O	0.137869	1.072301	0.147435
Cu8	Cu	0.146404	0.958819	0.152637
Cu9	Cu	0.135961	0.964718	-0.017555
O10	O	0.292935	0.985218	0.141316
C11	C	0.148162	0.819219	0.057530
C12	C	0.145916	0.731246	0.051351
C13	C	0.149672	0.687201	0.126897
C14	C	0.147545	0.604540	0.121094
C15	C	0.141670	0.565925	0.039745
C16	C	0.137911	0.609975	-0.035806
C17	C	0.140030	0.692634	-0.030003
C18	C	0.134809	0.319000	0.013975
C19	C	0.132693	0.236335	0.008177
C20	C	0.142326	0.230906	0.165079
C21	C	0.144451	0.313567	0.170875
C22	C	0.140686	0.357610	0.095324
N23	N	0.139499	0.481432	0.033811
N24	N	0.142849	0.442100	0.101258
C25	C	-0.043869	0.927060	0.065105
C26	C	-0.156245	0.900934	0.063267
C27	C	-0.520460	1.104073	0.077533
C28	C	-0.414877	1.128622	0.079266
C29	C	-0.350214	1.071702	0.075266
C30	C	-0.391144	0.990230	0.069534
C31	C	-0.496737	0.965678	0.067808
C32	C	-0.326491	0.933307	0.065541
C33	C	-0.367422	0.851835	0.059809
C34	C	-0.473005	0.827288	0.058083
C35	C	-0.537667	0.884207	0.062083
C36	C	-0.220898	0.957858	0.067266
C37	C	-0.197176	0.819463	0.057541
C38	C	-0.302759	0.794915	0.055809
C39	C	0.326234	0.996477	0.069975
C40	C	0.438610	1.022602	0.071808
C41	C	0.134203	1.104318	0.077550
C42	C	0.136449	1.192291	0.083723
N43	N	0.153749	0.954676	0.272342
N44	N	0.128608	0.968865	-0.137259
C45	C	0.087896	0.991695	0.320337
C46	C	0.093459	0.988571	0.410925
C47	C	0.164882	0.948432	0.453517
C48	C	0.230739	0.911408	0.405515
C49	C	0.225169	0.914528	0.314928
C50	C	0.188895	0.934961	0.724152
C51	C	0.194461	0.931846	0.814746
C52	C	0.057180	1.009008	0.820149
C53	C	0.051621	1.012128	0.729560
C54	C	0.117474	0.975100	0.681566
N55	N	0.170573	0.945240	0.546113
N56	N	0.111777	0.978288	0.588972
H57	H	0.131740	0.354849	-0.047544
H58	H	0.154465	0.718636	0.193141
O59	O	0.150187	0.351204	0.249830
C60	C	0.151223	0.433603	0.238752
H61	H	0.179401	0.450965	0.172389
H62	H	0.204193	0.469014	0.291464
H63	H	0.070916	0.447459	0.243445
H64	H	0.133120	0.578527	-0.102043
H65	H	-0.144526	0.773114	0.054288
O66	O	-0.342396	0.715748	0.050359
C67	C	-0.304834	0.677064	0.122366
H68	H	-0.230018	0.713697	0.149853
H69	H	-0.291401	0.615183	0.101212
H70	H	-0.362705	0.671030	0.174258
O71	O	-0.018087	1.050952	0.688411
C72	C	-0.116805	1.015296	0.708405
H73	H	-0.115731	0.951190	0.728758
H74	H	-0.171501	1.015290	0.648863
H75	H	-0.143011	1.050576	0.763760
H76	H	0.252627	0.899159	0.849420
O77	O	0.145790	0.188066	0.238438
C78	C	0.057276	0.129857	0.239048
H79	H	-0.006033	0.149165	0.195775
H80	H	0.032107	0.123087	0.308124
H81	H	0.074179	0.070251	0.213738
O82	O	0.029641	1.024594	0.457652
C83	C	0.087257	1.083301	0.514267
H84	H	0.167186	1.068733	0.526842
H85	H	0.048971	1.084346	0.578200
H86	H	0.092203	1.144293	0.483543
O87	O	0.136426	0.735308	-0.103473
C88	C	0.130764	0.683500	-0.176520
H89	H	0.162680	0.627517	-0.157397
H90	H	0.177110	0.715014	-0.229307
H91	H	0.047925	0.666078	-0.201924
H92	H	0.288889	0.878722	0.440198
O93	O	0.018358	1.030571	0.279017
C94	C	-0.080513	0.995076	0.298775
H95	H	-0.079675	0.930970	0.319237
H96	H	-0.134973	0.995090	0.239080
H97	H	-0.106840	1.030463	0.353981
H98	H	0.127911	0.204898	-0.058070
H99	H	-0.187583	1.024193	0.071933
O100	O	-0.006699	1.045096	0.866738
C101	C	0.008648	1.127519	0.850300
H102	H	0.088166	1.146487	0.826667
H103	H	0.000794	1.162498	0.912464
H104	H	-0.050605	1.140222	0.798478
H105	H	0.278793	0.884382	0.275851
O106	O	0.151253	0.561881	0.194566
C107	C	0.156876	0.613686	0.267610
H108	H	0.188992	0.677141	0.249006
H109	H	0.208734	0.593633	0.321198
H110	H	0.077451	0.612176	0.291692
O111	O	-0.247677	1.095684	0.076913
C112	C	-0.225415	1.179797	0.082850
H113	H	-0.294653	1.205779	0.057370
H114	H	-0.158062	1.201876	0.042516
H115	H	-0.205526	1.199751	0.153463
O116	O	-0.375290	1.207791	0.084797
C117	C	-0.454998	1.252765	0.087979
H118	H	-0.528457	1.215927	0.058073
H119	H	-0.435348	1.309706	0.050103
H120	H	-0.465645	1.269030	0.158333
O121	O	-0.583323	1.159331	0.081266
C122	C	-0.649702	1.151842	0.006039
H123	H	-0.614344	1.121787	-0.048298
H124	H	-0.662938	1.213630	-0.014694
H125	H	-0.725499	1.114055	0.020279
O126	O	-0.640237	0.860329	0.060242
C127	C	-0.673566	0.816740	-0.017526
H128	H	-0.616113	0.833911	-0.068534
H129	H	-0.750845	0.831004	-0.041613
H130	H	-0.680692	0.750062	-0.005318
O131	O	-0.512724	0.748142	0.052368
C132	C	-0.484255	0.714627	-0.024691
H133	H	-0.465367	0.763670	-0.073466
H134	H	-0.549846	0.667962	-0.053048
H135	H	-0.414535	0.685148	-0.009870
O136	O	0.252973	0.898986	0.677672
C137	C	0.317189	0.862878	0.734693
H138	H	0.322416	0.893242	0.801544
H139	H	0.396378	0.869419	0.708911
H140	H	0.284703	0.796777	0.739731
