data_functionalizedCrystal
_audit_creation_method	'MofGen! by Chris Wilmer'
_symmetry_space_group_name_H-M	'P1'
_symmetry_Int_Tables_number	1
_symmetry_cell_setting	triclinic
loop_
_symmetry_equiv_pos_as_xyz
  x,y,z
_cell_length_a	15.298708
_cell_length_b	16.959453
_cell_length_c	15.298259
_cell_angle_alpha	80.286568
_cell_angle_beta	110.755097
_cell_angle_gamma	99.714353
loop_
_atom_site_label
_atom_site_type_symbol
_atom_site_fract_x
_atom_site_fract_y
_atom_site_fract_z
Zn1	Zn	1.330666	-0.070143	-0.280183
Zn2	Zn	1.830666	0.429857	0.219817
Zn3	Zn	1.357469	-0.221850	-0.124688
Zn4	Zn	1.857469	0.278150	0.375312
Zn5	Zn	1.202064	-0.109208	-0.151557
Zn6	Zn	1.702064	0.390792	0.348443
Zn7	Zn	1.175141	-0.221828	-0.307006
Zn8	Zn	1.675141	0.278172	0.192994
O9	O	1.266335	-0.155757	-0.215858
O10	O	1.766335	0.344243	0.284142
O11	O	1.464347	-0.073927	-0.237087
O12	O	1.964347	0.426073	0.262913
O13	O	1.359339	-0.223265	0.001880
O14	O	1.859339	0.276735	0.501880
O15	O	1.219173	0.006595	-0.168639
O16	O	1.719173	0.506595	0.331361
O17	O	1.484039	-0.185385	-0.122844
O18	O	1.984039	0.314615	0.377156
O19	O	1.313657	0.035296	-0.263141
O20	O	1.813657	0.535296	0.236859
O21	O	1.245163	-0.140508	-0.017861
O22	O	1.745163	0.359492	0.482139
O23	O	1.068367	-0.140487	-0.194647
O24	O	1.568367	0.359513	0.305353
O25	O	1.173287	-0.185349	-0.433579
O26	O	1.673287	0.314651	0.066421
O27	O	1.048587	-0.223229	-0.308855
O28	O	1.548587	0.276771	0.191145
O29	O	1.287550	-0.073906	-0.413873
O30	O	1.787550	0.426094	0.086127
O31	O	1.333232	-0.332468	-0.148853
O32	O	1.833232	0.167532	0.351147
O33	O	1.199276	-0.332452	-0.282801
O34	O	1.699276	0.167548	0.217199
C35	C	1.024737	-0.186095	-0.257578
C36	C	1.524737	0.313905	0.242422
C37	C	0.921376	-0.199090	-0.275448
C38	C	1.421376	0.300910	0.224552
C39	C	0.671046	-0.063050	-0.088368
C40	C	1.171046	0.436950	0.411632
C41	C	0.768158	-0.050835	-0.071580
C42	C	1.268158	0.449165	0.428420
C43	C	0.806467	-0.087898	-0.122545
C44	C	1.306467	0.412102	0.377455
C45	C	0.747655	-0.137177	-0.190302
C46	C	1.247655	0.362823	0.309698
C47	C	0.650532	-0.149387	-0.207098
C48	C	1.150532	0.350613	0.292902
C49	C	0.785954	-0.174236	-0.241274
C50	C	1.285954	0.325764	0.258726
C51	C	0.727141	-0.223515	-0.309032
C52	C	1.227141	0.276485	0.190968
C53	C	0.630029	-0.235723	-0.325823
C54	C	1.130029	0.264277	0.174177
C55	C	0.591719	-0.198660	-0.274858
C56	C	1.091719	0.301340	0.225142
C57	C	0.883077	-0.162026	-0.224479
C58	C	1.383077	0.337974	0.275521
C59	C	0.862563	-0.248363	-0.343208
C60	C	1.362563	0.251637	0.156792
C61	C	0.765451	-0.260578	-0.359997
C62	C	1.265451	0.239422	0.140003
C63	C	1.266263	-0.361138	-0.215838
C64	C	1.766263	0.138862	0.284162
C65	C	1.266312	-0.448986	-0.215845
C66	C	1.766312	0.051014	0.284155
C67	C	1.315589	-0.805429	-0.265164
C68	C	1.815589	-0.305429	0.234836
C69	C	1.217316	-0.835432	-0.166646
C70	C	1.717316	-0.335432	0.333354
C71	C	1.217286	-0.752894	-0.166630
C72	C	1.717286	-0.252894	0.333370
C73	C	1.266406	-0.696618	-0.215884
C74	C	1.766406	-0.196618	0.284116
C75	C	1.315557	-0.722882	-0.265153
C76	C	1.815557	-0.222882	0.234847
C77	C	1.168128	-0.726624	-0.117370
C78	C	1.668128	-0.226624	0.382630
C79	C	1.168094	-0.644080	-0.117353
C80	C	1.668094	-0.144080	0.382647
C81	C	1.217220	-0.587803	-0.166602
C82	C	1.717220	-0.087803	0.333398
C83	C	1.266374	-0.614071	-0.215872
C84	C	1.766374	-0.114071	0.284128
C85	C	1.315495	-0.557796	-0.265126
C86	C	1.815495	-0.057796	0.234874
C87	C	1.364655	-0.584062	-0.314391
C88	C	1.864655	-0.084062	0.185609
C89	C	1.364684	-0.666605	-0.314402
C90	C	1.864684	-0.166605	0.185598
C91	C	1.217192	-0.505261	-0.166592
C92	C	1.717192	-0.005261	0.333408
C93	C	1.315463	-0.475249	-0.265114
C94	C	1.815463	0.024751	0.234886
C95	C	1.508876	-0.125301	-0.173976
C96	C	2.008876	0.374699	0.326024
C97	C	1.612233	-0.112323	-0.156129
C98	C	2.112233	0.387677	0.343871
C99	C	1.224425	-0.125268	-0.458411
C100	C	1.724425	0.374732	0.041589
C101	C	1.206566	-0.112275	-0.561773
C102	C	1.706566	0.387725	-0.061773
C103	C	1.266428	0.050431	-0.215895
C104	C	1.766428	0.550431	0.284105
C105	C	1.266468	0.138296	-0.215911
C106	C	1.766468	0.638296	0.284089
C107	C	1.394008	-0.248006	-0.812012
C108	C	1.894008	0.251994	-0.312012
C109	C	1.410783	-0.260219	-0.714899
C110	C	1.910783	0.239781	-0.214899
C111	C	1.359730	-0.223234	-0.676613
C112	C	1.859730	0.276766	-0.176613
C113	C	1.291900	-0.174034	-0.735448
C114	C	1.791900	0.325966	-0.235448
C115	C	1.275118	-0.161825	-0.832571
C116	C	1.775118	0.338175	-0.332571
C117	C	1.240840	-0.137053	-0.697172
C118	C	1.740840	0.362947	-0.197172
C119	C	1.173010	-0.087853	-0.756008
C120	C	1.673010	0.412147	-0.256008
C121	C	1.156232	-0.075645	-0.853121
C122	C	1.656232	0.424355	-0.353121
C123	C	1.207284	-0.112631	-0.891407
C124	C	1.707284	0.387369	-0.391407
C125	C	1.257622	-0.149262	-0.600049
C126	C	1.757622	0.350738	-0.100049
C127	C	1.138732	-0.063080	-0.620609
C128	C	1.638732	0.436920	-0.120609
C129	C	1.121957	-0.050867	-0.717721
C130	C	1.621957	0.449133	-0.217721
C131	C	1.308135	-0.186064	0.025760
C132	C	1.808135	0.313936	0.525760
C133	C	1.326174	-0.198812	0.129152
C134	C	1.826174	0.301188	0.629152
H135	H	0.816037	-0.010715	-0.016409
H136	H	1.316037	0.489285	0.483591
Br137	Br	0.619048	-0.012743	-0.019223
Br138	Br	1.119048	0.487257	0.480777
Br139	Br	1.502835	-0.326987	-0.635058
Br140	Br	2.002835	0.173013	-0.135058
H141	H	0.512644	-0.208607	-0.288520
H142	H	1.012644	0.291393	0.211480
H143	H	1.177320	-0.881256	-0.126550
H144	H	1.677320	-0.381256	0.373450
H145	H	0.582144	-0.275843	-0.381003
H146	H	1.082144	0.224157	0.118997
Br147	Br	1.101442	-0.802998	-0.050556
Br148	Br	1.601442	-0.302998	0.449444
H149	H	1.435561	-0.278121	-0.843196
H150	H	1.935561	0.221879	-0.343196
H151	H	1.193632	-0.102687	-0.970483
H152	H	1.693632	0.397313	-0.470483
Br153	Br	1.101374	-0.608439	-0.050500
Br154	Br	1.601374	-0.108439	0.449500
Br155	Br	1.150476	-0.469615	-0.099742
Br156	Br	1.650476	0.030385	0.400258
H157	H	0.717552	-0.300700	-0.415166
H158	H	1.217552	0.199300	0.084834
Br159	Br	0.914544	-0.298655	-0.412391
Br160	Br	1.414544	0.201345	0.087609
H161	H	1.355617	-0.826819	-0.305272
H162	H	1.855617	-0.326819	0.194728
H163	H	1.100990	-0.035592	-0.901025
H164	H	1.600990	0.464408	-0.401025
H165	H	1.066728	-0.010808	-0.765639
H166	H	1.566728	0.489192	-0.265639
H167	H	1.355468	-0.429433	-0.305219
H168	H	1.855468	0.070567	0.194781
H169	H	1.312856	-0.189316	-0.552153
H170	H	1.812856	0.310684	-0.052153
Br171	Br	0.962881	-0.095149	-0.132527
Br172	Br	1.462881	0.404851	0.367473
Br173	Br	1.431302	-0.507680	-0.381246
Br174	Br	1.931302	-0.007680	0.118754
Br175	Br	1.069426	-0.012898	-0.568660
Br176	Br	1.569426	0.487102	-0.068660
H177	H	1.404706	-0.687999	-0.354512
H178	H	1.904706	-0.187999	0.145488
H179	H	0.885541	-0.077950	-0.108872
H180	H	1.385541	0.422050	0.391128
Br181	Br	1.382500	-0.239807	-0.544814
Br182	Br	1.882500	0.260193	-0.044814
