data_functionalizedCrystal
_audit_creation_method	'MofGen! by Chris Wilmer'
_symmetry_space_group_name_H-M	'P1'
_symmetry_Int_Tables_number	1
_symmetry_cell_setting	triclinic
loop_
_symmetry_equiv_pos_as_xyz
  x,y,z
_cell_length_a	10.654545
_cell_length_b	9.065218
_cell_length_c	9.130313
_cell_angle_alpha	89.989571
_cell_angle_beta	90.003278
_cell_angle_gamma	95.250485
loop_
_atom_site_label
_atom_site_type_symbol
_atom_site_fract_x
_atom_site_fract_y
_atom_site_fract_z
O1	O	1.668664	-0.207200	0.121812
O2	O	1.303263	-0.226951	0.121820
O3	O	1.493516	-0.002391	0.121778
O4	O	1.478411	-0.431759	0.121854
O5	O	1.493502	-0.002391	-0.121820
O6	O	1.303249	-0.226951	-0.121778
O7	O	1.668650	-0.207200	-0.121787
Cu8	Cu	1.485948	-0.217075	-0.144025
Cu9	Cu	1.485965	-0.217075	0.144058
O10	O	1.478397	-0.431759	-0.121745
C11	C	1.256452	-0.225502	0.000021
C12	C	1.116991	-0.221167	0.000023
C13	C	1.051471	-0.219127	-0.132764
C14	C	0.920435	-0.215029	-0.132765
C15	C	0.920452	-0.215020	0.132820
C16	C	1.051486	-0.219106	0.132819
C17	C	1.492057	0.052587	-0.000027
C18	C	1.487716	0.216406	-0.000047
C19	C	1.715461	-0.208649	0.000015
C20	C	1.854921	-0.212983	0.000023
C21	C	1.479855	0.513262	0.000023
C22	C	1.484196	0.349443	-0.000068
N23	N	1.485945	-0.217074	-0.346648
C24	C	1.563134	-0.307395	-0.423280
C25	C	1.563154	-0.307386	-0.576617
C26	C	1.408785	-0.126734	-0.576676
C27	C	1.408773	-0.126735	-0.423342
N28	N	1.485978	-0.217064	0.346681
H29	H	0.867101	-0.213343	0.240938
C30	C	1.648026	-0.406749	-0.338914
H31	H	1.636957	-0.393828	-0.236617
H32	H	1.733648	-0.380273	-0.364033
H33	H	1.625827	-0.507455	-0.364031
C34	C	1.648056	-0.406746	-0.660906
H35	H	1.694004	-0.460553	-0.593264
H36	H	1.705182	-0.346920	-0.720721
H37	H	1.597352	-0.474091	-0.720717
C38	C	1.123527	-0.221351	-0.278833
H39	H	1.065736	-0.219527	-0.357914
H40	H	1.166049	-0.308825	-0.284360
H41	H	1.183240	-0.137035	-0.284350
C42	C	1.323835	-0.027414	-0.339035
H43	H	1.334883	-0.040354	-0.236731
H44	H	1.238222	-0.053913	-0.364185
H45	H	1.346016	0.073301	-0.364160
H46	H	0.867094	-0.213368	-0.240893
H47	H	1.345953	-0.053185	-0.639139
C48	C	1.123563	-0.221356	0.278892
H49	H	1.065783	-0.219566	0.357981
H50	H	1.183287	-0.137063	0.284394
H51	H	1.166071	-0.308851	0.284423
