data_functionalizedCrystal
_audit_creation_method	'MofGen! by Chris Wilmer'
_symmetry_space_group_name_H-M	'P1'
_symmetry_Int_Tables_number	1
_symmetry_cell_setting	triclinic
loop_
_symmetry_equiv_pos_as_xyz
  x,y,z
_cell_length_a	25.639242
_cell_length_b	29.839131
_cell_length_c	25.639233
_cell_angle_alpha	89.980415
_cell_angle_beta	89.977834
_cell_angle_gamma	90.036947
loop_
_atom_site_label
_atom_site_type_symbol
_atom_site_fract_x
_atom_site_fract_y
_atom_site_fract_z
Zn1	Zn	0.799215	-0.178962	-0.295739
Zn2	Zn	1.299215	0.321038	0.204261
Zn3	Zn	0.799134	-0.254076	-0.208302
Zn4	Zn	1.299134	0.245924	0.291698
Zn5	Zn	0.711791	-0.178955	-0.208303
Zn6	Zn	1.211791	0.321045	0.291697
Zn7	Zn	0.711732	-0.254059	-0.295692
Zn8	Zn	1.211732	0.245941	0.204308
O9	O	0.755468	-0.216513	-0.252009
O10	O	1.255468	0.283487	0.247991
O11	O	0.872370	-0.188935	-0.284160
O12	O	1.372370	0.311065	0.215840
O13	O	0.787539	-0.244115	-0.135137
O14	O	1.287539	0.255885	0.364863
O15	O	0.723447	-0.116089	-0.219922
O16	O	1.223447	0.383911	0.280078
O17	O	0.872310	-0.244122	-0.219920
O18	O	1.372310	0.255878	0.280080
O19	O	0.787677	-0.116094	-0.284161
O20	O	1.287677	0.383906	0.215839
O21	O	0.723369	-0.188924	-0.135138
O22	O	1.223369	0.311076	0.364862
O23	O	0.638618	-0.188908	-0.219876
O24	O	1.138618	0.311092	0.280124
O25	O	0.723346	-0.244093	-0.368864
O26	O	1.223346	0.255907	0.131136
O27	O	0.638575	-0.244087	-0.284081
O28	O	1.138575	0.255913	0.215919
O29	O	0.787619	-0.188919	-0.368898
O30	O	1.287619	0.311081	0.131102
O31	O	0.787482	-0.316941	-0.219875
O32	O	1.287482	0.183059	0.280125
O33	O	0.723268	-0.316929	-0.284080
O34	O	1.223268	0.183071	0.215920
C35	C	0.619626	-0.216495	-0.251974
C36	C	1.119626	0.283505	0.248026
C37	C	0.561512	-0.216499	-0.251971
C38	C	1.061512	0.283501	0.248029
C39	C	0.755374	-0.333236	-0.251983
C40	C	1.255374	0.166764	0.248017
C41	C	0.755381	-0.383170	-0.251990
C42	C	1.255381	0.116830	0.248010
C43	C	0.201135	-0.245293	-0.285409
C44	C	0.701135	0.254707	0.214591
C45	C	0.146531	-0.245295	-0.285417
C46	C	0.646531	0.254705	0.214583
O47	O	0.118282	-0.269755	-0.313817
O48	O	0.618282	0.230245	0.186183
N49	N	0.119229	-0.216525	-0.252043
N50	N	0.619229	0.283475	0.247957
C51	C	0.146535	-0.187748	-0.218663
C52	C	0.646535	0.312252	0.281337
O53	O	0.118299	-0.163276	-0.190277
O54	O	0.618299	0.336724	0.309723
C55	C	0.201138	-0.187743	-0.218658
C56	C	0.701138	0.312257	0.281342
C57	C	0.228437	-0.216518	-0.252030
C58	C	0.728437	0.283482	0.247970
C59	C	0.228434	-0.274065	-0.318778
C60	C	0.728434	0.225935	0.181222
C61	C	0.283034	-0.274063	-0.318769
C62	C	0.783034	0.225937	0.181231
C63	C	0.310336	-0.245288	-0.285390
C64	C	0.810336	0.254712	0.214610
C65	C	0.283037	-0.216516	-0.252021
C66	C	0.783037	0.283484	0.247979
C67	C	0.228443	-0.158963	-0.185281
C68	C	0.728443	0.341037	0.314719
C69	C	0.283050	-0.158961	-0.185279
C70	C	0.783050	0.341039	0.314721
C71	C	0.310349	-0.187736	-0.218651
C72	C	0.810349	0.312264	0.281349
C73	C	0.364940	-0.187739	-0.218633
C74	C	0.864940	0.312261	0.281367
N75	N	0.392241	-0.216509	-0.252006
N76	N	0.892241	0.283491	0.247994
C77	C	0.364939	-0.245283	-0.285385
C78	C	0.864939	0.254717	0.214615
C79	C	0.031864	-0.187759	-0.218677
C80	C	0.531864	0.312241	0.281323
C81	C	-0.022738	-0.187766	-0.218679
C82	C	0.477262	0.312234	0.281321
C83	C	-0.022739	-0.245313	-0.285434
C84	C	0.477261	0.254687	0.214566
C85	C	0.031865	-0.245308	-0.285429
C86	C	0.531865	0.254692	0.214571
C87	C	0.059166	-0.216529	-0.252051
C88	C	0.559166	0.283471	0.247949
C89	C	0.479604	-0.245277	-0.285363
C90	C	0.979604	0.254723	0.214637
C91	C	0.534210	-0.245273	-0.285350
C92	C	1.034210	0.254727	0.214650
C93	C	0.534206	-0.187724	-0.218597
C94	C	1.034206	0.312276	0.281403
C95	C	0.479605	-0.187729	-0.218609
C96	C	0.979605	0.312271	0.281391
C97	C	0.452306	-0.216507	-0.251996
C98	C	0.952306	0.283493	0.248004
O99	O	0.393223	-0.163290	-0.190249
O100	O	0.893223	0.336710	0.309751
O101	O	0.393182	-0.269746	-0.313771
O102	O	0.893182	0.230254	0.186229
C103	C	0.788965	-0.692807	-0.218627
C104	C	1.288965	-0.192807	0.281373
C105	C	0.789030	-0.880480	-0.218647
C106	C	1.289030	-0.380480	0.281353
O107	O	0.817509	-0.904740	-0.190260
O108	O	1.317509	-0.404740	0.309740
N109	N	0.755577	-0.903955	-0.252049
N110	N	1.255577	-0.403955	0.247951
C111	C	0.722108	-0.880509	-0.285450
C112	C	1.222108	-0.380509	0.214550
O113	O	0.693659	-0.904782	-0.313865
O114	O	1.193659	-0.404782	0.186135
C115	C	0.722046	-0.692837	-0.285432
C116	C	1.222046	-0.192837	0.214568
C117	C	0.755498	-0.669364	-0.252024
C118	C	1.255498	-0.169364	0.247976
C119	C	0.822415	-0.669335	-0.185222
C120	C	1.322415	-0.169335	0.314778
C121	C	0.822396	-0.622419	-0.185215
C122	C	1.322396	-0.122419	0.314785
C123	C	0.788928	-0.598976	-0.218613
C124	C	1.288928	-0.098976	0.281387
C125	C	0.755479	-0.622449	-0.252018
C126	C	1.255479	-0.122449	0.247982
C127	C	0.688580	-0.669391	-0.318836
C128	C	1.188580	-0.169391	0.181164
C129	C	0.688568	-0.622470	-0.318829
C130	C	1.188568	-0.122470	0.181171
C131	C	0.722020	-0.598998	-0.285422
C132	C	1.222020	-0.098998	0.214578
C133	C	0.721993	-0.552090	-0.285409
C134	C	1.221993	-0.052090	0.214591
N135	N	0.755446	-0.528615	-0.252007
N136	N	1.255446	-0.028615	0.247993
C137	C	0.788914	-0.552058	-0.218609
C138	C	1.288914	-0.052058	0.281391
C139	C	0.722141	-0.979039	-0.285457
C140	C	1.222141	-0.479039	0.214543
C141	C	0.722156	-1.025957	-0.285461
C142	C	1.222156	-0.525957	0.214539
C143	C	0.789079	-1.025925	-0.218658
C144	C	1.289079	-0.525925	0.281342
C145	C	0.789062	-0.979007	-0.218652
C146	C	1.289062	-0.479007	0.281348
C147	C	0.755595	-0.955565	-0.252055
C148	C	1.255595	-0.455565	0.247945
C149	C	0.788872	-0.453533	-0.218597
C150	C	1.288872	0.046467	0.281403
C151	C	0.788849	-0.406613	-0.218592
C152	C	1.288849	0.093387	0.281408
C153	C	0.721928	-0.406649	-0.285396
C154	C	1.221928	0.093351	0.214604
C155	C	0.721949	-0.453564	-0.285400
C156	C	1.221949	0.046436	0.214600
C157	C	0.755425	-0.477005	-0.251999
C158	C	1.255425	0.022995	0.248001
O159	O	0.693533	-0.527802	-0.313784
O160	O	1.193533	-0.027802	0.186216
O161	O	0.817366	-0.527777	-0.190207
O162	O	1.317366	-0.027777	0.309793
C163	C	0.788984	-0.739723	-0.218633
C164	C	1.288984	-0.239723	0.281367
C165	C	0.755535	-0.763195	-0.252038
C166	C	1.255535	-0.263195	0.247962
C167	C	0.722067	-0.739752	-0.285436
C168	C	1.222067	-0.239752	0.214564
C169	C	0.755549	-0.810113	-0.252042
C170	C	1.255549	-0.310113	0.247958
C171	C	0.789017	-0.833556	-0.218644
C172	C	1.289017	-0.333556	0.281356
C173	C	0.822470	-0.810081	-0.185242
C174	C	1.322470	-0.310081	0.314758
C175	C	0.822451	-0.763166	-0.185235
C176	C	1.322451	-0.263166	0.314765
C177	C	0.688614	-0.763227	-0.318838
C178	C	1.188614	-0.263227	0.181162
C179	C	0.688635	-0.810143	-0.318841
C180	C	1.188635	-0.310143	0.181159
C181	C	0.722102	-0.833585	-0.285443
C182	C	1.222102	-0.333585	0.214557
C183	C	0.891841	-0.216531	-0.252045
C184	C	1.391841	0.283469	0.247955
C185	C	0.949955	-0.216539	-0.252060
C186	C	1.449955	0.283461	0.247940
C187	C	0.755485	-0.216505	-0.388382
C188	C	1.255485	0.283495	0.111618
C189	C	0.755492	-0.216502	-0.446496
C190	C	1.255492	0.283498	0.053504
C191	C	0.755577	-0.099335	-0.252047
C192	C	1.255577	0.400665	0.247953
C193	C	0.755624	-0.049400	-0.252063
C194	C	1.255624	0.450600	0.247937
C195	C	0.789002	-0.187687	-0.806883
C196	C	1.289002	0.312313	-0.306883
C197	C	0.789008	-0.187675	-0.861488
C198	C	1.289008	0.312325	-0.361488
O199	O	0.817457	-0.163229	-0.889744
O200	O	1.317457	0.336771	-0.389744
N201	N	0.755550	-0.216396	-0.888779
N202	N	1.255550	0.283604	-0.388779
C203	C	0.722079	-0.245129	-0.861463
C204	C	1.222079	0.254871	-0.361463
O205	O	0.693621	-0.269558	-0.889691
O206	O	1.193621	0.230442	-0.389691
C207	C	0.722071	-0.245139	-0.806860
C208	C	1.222071	0.254861	-0.306860
C209	C	0.755535	-0.216419	-0.779571
C210	C	1.255535	0.283581	-0.279571
C211	C	0.822463	-0.158969	-0.779594
C212	C	1.322463	0.341031	-0.279594
C213	C	0.822457	-0.158982	-0.724994
C214	C	1.322457	0.341018	-0.224994
C215	C	0.788990	-0.187714	-0.697682
C216	C	1.288990	0.312286	-0.197682
C217	C	0.755529	-0.216432	-0.724971
C218	C	1.255529	0.283568	-0.224971
C219	C	0.688598	-0.273869	-0.779545
C220	C	1.188598	0.226131	-0.279545
C221	C	0.688592	-0.273876	-0.724938
C222	C	1.188592	0.226124	-0.224938
C223	C	0.722056	-0.245156	-0.697650
C224	C	1.222056	0.254844	-0.197650
C225	C	0.722056	-0.245176	-0.643058
C226	C	1.222056	0.254824	-0.143058
N227	N	0.755514	-0.216455	-0.615767
N228	N	1.255514	0.283545	-0.115767
C229	C	0.788981	-0.187723	-0.643079
C230	C	1.288981	0.312277	-0.143079
C231	C	0.722100	-0.245106	-0.976134
C232	C	1.222100	0.254894	-0.476134
C233	C	0.722110	-0.245099	-1.030736
C234	C	1.222110	0.254901	-0.530736
C235	C	0.789039	-0.187644	-1.030757
C236	C	1.289039	0.312356	-0.530757
C237	C	0.789030	-0.187653	-0.976153
C238	C	1.289030	0.312347	-0.476153
C239	C	0.755558	-0.216384	-0.948843
C240	C	1.255558	0.283616	-0.448843
C241	C	0.788967	-0.187753	-0.528414
C242	C	1.288967	0.312247	-0.028414
C243	C	0.788959	-0.187770	-0.473808
C244	C	1.288959	0.312230	0.026192
C245	C	0.722029	-0.245223	-0.473793
C246	C	1.222029	0.254777	0.026207
C247	C	0.722038	-0.245208	-0.528393
C248	C	1.222038	0.254792	-0.028393
C249	C	0.755509	-0.216470	-0.555702
C250	C	1.255509	0.283530	-0.055702
O251	O	0.693620	-0.269609	-0.614767
O252	O	1.193620	0.230391	-0.114767
O253	O	0.817430	-0.163295	-0.614845
O254	O	1.317430	0.336705	-0.114845
C255	C	0.755482	-0.216488	-0.116167
C256	C	1.255482	0.283512	0.383833
C257	C	0.755576	-0.216365	-0.058053
C258	C	1.255576	0.283635	0.441947
H259	H	0.556434	-0.268707	-0.312526
H260	H	1.056434	0.231293	0.187474
H261	H	0.661328	-0.297268	-0.702705
H262	H	1.161328	0.202732	-0.202705
O263	O	0.656049	-0.740528	-0.351296
O264	O	1.156049	-0.240528	0.148704
C265	C	0.626540	-0.771313	-0.380784
C266	C	1.126540	-0.271313	0.119216
H267	H	0.624766	-0.804767	-0.359368
H268	H	1.124766	-0.304767	0.140632
H269	H	0.585333	-0.757796	-0.386311
H270	H	1.085333	-0.257796	0.113689
H271	H	0.645657	-0.776271	-0.420516
H272	H	1.145657	-0.276271	0.079484
O273	O	0.821470	-0.159680	-1.057315
O274	O	1.321470	0.340320	-0.557315
C275	C	0.791726	-0.130664	-1.088902
C276	C	1.291726	0.369336	-0.588902
H277	H	0.750549	-0.127892	-1.072432
H278	H	1.250549	0.372108	-0.572432
H279	H	0.810663	-0.096091	-1.089533
H280	H	1.310663	0.403909	-0.589533
H281	H	0.789916	-0.144546	-1.130282
H282	H	1.289916	0.355454	-0.630282
H283	H	0.694712	-0.472677	-0.312605
H284	H	1.194712	0.027323	0.187395
O285	O	0.854901	-0.131008	-0.806142
O286	O	1.354901	0.368992	-0.306142
C287	C	0.825174	-0.101984	-0.837734
C288	C	1.325174	0.398016	-0.337734
H289	H	0.783992	-0.099207	-0.821278
H290	H	1.283992	0.400793	-0.321278
H291	H	0.844118	-0.067413	-0.838352
H292	H	1.344118	0.432587	-0.338352
H293	H	0.823375	-0.115859	-0.879118
H294	H	1.323375	0.384141	-0.379118
H295	H	0.206210	-0.297497	-0.345962
H296	H	0.706210	0.202503	0.154038
O297	O	-0.049346	-0.273221	-0.317846
O298	O	0.450654	0.226779	0.182154
C299	C	-0.103393	-0.267058	-0.310683
C300	C	0.396607	0.232942	0.189317
H301	H	-0.110830	-0.232366	-0.293631
H302	H	0.389170	0.267634	0.206369
H303	H	-0.124130	-0.270151	-0.349841
H304	H	0.375870	0.229849	0.150159
H305	H	-0.118922	-0.293671	-0.282787
H306	H	0.381078	0.206329	0.217213
H307	H	0.305276	-0.135522	-0.158101
H308	H	0.805276	0.364478	0.341899
O309	O	0.854871	-0.599672	-0.152695
O310	O	1.354871	-0.099672	0.347305
C311	C	0.843480	-0.611160	-0.100573
C312	C	1.343480	-0.111160	0.399427
H313	H	0.823386	-0.645238	-0.099473
H314	H	1.323386	-0.145238	0.400527
H315	H	0.881233	-0.612752	-0.077175
H316	H	1.381233	-0.112752	0.422825
H317	H	0.816611	-0.584779	-0.082924
H318	H	1.316611	-0.084779	0.417076
H319	H	0.305256	-0.297494	-0.345945
H320	H	0.805256	0.202506	0.154055
O321	O	0.854924	-0.740417	-0.152713
O322	O	1.354924	-0.240417	0.347287
C323	C	0.843528	-0.751907	-0.100592
C324	C	1.343528	-0.251907	0.399408
H325	H	0.823436	-0.785986	-0.099495
H326	H	1.323436	-0.285986	0.400505
H327	H	0.881279	-0.753497	-0.077190
H328	H	1.381279	-0.253497	0.422810
H329	H	0.816655	-0.725528	-0.082946
H330	H	1.316655	-0.225528	0.417054
O331	O	0.689573	-0.273066	-0.949687
O332	O	1.189573	0.226934	-0.449687
C333	C	0.660039	-0.298404	-0.985489
C334	C	1.160039	0.201596	-0.485489
H335	H	0.681462	-0.299948	-1.024416
H336	H	1.181462	0.200052	-0.524416
H337	H	0.654431	-0.333806	-0.969713
H338	H	1.154431	0.166194	-0.469713
H339	H	0.620344	-0.281950	-0.991289
H340	H	1.120344	0.218050	-0.491289
O341	O	0.821551	-0.159710	-0.949728
O342	O	1.321551	0.340290	-0.449728
C343	C	0.851100	-0.134361	-0.985550
C344	C	1.351100	0.365639	-0.485550
H345	H	0.829690	-0.132799	-1.024468
H346	H	1.329690	0.367201	-0.524468
H347	H	0.856709	-0.098966	-0.969785
H348	H	1.356709	0.401034	-0.469785
H349	H	0.890794	-0.150817	-0.991364
H350	H	1.390794	0.349183	-0.491364
H351	H	0.694794	-0.268599	-0.550613
H352	H	1.194794	0.231401	-0.050613
H353	H	0.556445	-0.164298	-0.191419
H354	H	1.056445	0.335702	0.308581
O355	O	0.689713	-1.048735	-0.317984
O356	O	1.189713	-0.548735	0.182016
C357	C	0.701094	-1.037230	-0.370103
C358	C	1.201094	-0.537230	0.129897
H359	H	0.742858	-1.024301	-0.372784
H360	H	1.242858	-0.524301	0.127216
H361	H	0.696580	-1.068077	-0.395936
H362	H	1.196580	-0.568077	0.104064
H363	H	0.673047	-1.010010	-0.383734
H364	H	1.173047	-0.510010	0.116266
O365	O	0.689684	-0.273051	-1.057263
O366	O	1.189684	0.226949	-0.557263
C367	C	0.719427	-0.302059	-1.088861
C368	C	1.219427	0.197941	-0.588861
H369	H	0.760603	-0.304838	-1.072421
H370	H	1.260603	0.195162	-0.572421
H371	H	0.700488	-0.336631	-1.089464
H372	H	1.200488	0.163369	-0.589464
H373	H	0.721239	-0.288165	-1.130248
H374	H	1.221239	0.211835	-0.630248
O375	O	0.656165	-0.301820	-0.806064
O376	O	1.156165	0.198180	-0.306064
C377	C	0.685903	-0.330833	-0.837660
C378	C	1.185903	0.169167	-0.337660
H379	H	0.727081	-0.333612	-0.821222
H380	H	1.227081	0.166388	-0.321222
H381	H	0.666962	-0.365404	-0.838255
H382	H	1.166962	0.134596	-0.338255
H383	H	0.687714	-0.316944	-0.879050
H384	H	1.187714	0.183056	-0.379050
O385	O	0.453165	-0.159739	-0.186172
O386	O	0.953165	0.340261	0.313828
C387	C	0.488974	-0.134352	-0.156697
C388	C	0.988974	0.365648	0.343303
H389	H	0.527911	-0.132825	-0.178108
H390	H	1.027911	0.367175	0.321892
H391	H	0.473223	-0.098948	-0.151198
H392	H	0.973223	0.401052	0.348802
H393	H	0.494745	-0.150753	-0.116952
H394	H	0.994745	0.349247	0.383048
H395	H	0.457384	-0.268709	-0.312552
H396	H	0.957384	0.231291	0.187448
O397	O	0.689584	-0.273199	-0.447275
O398	O	1.189584	0.226801	0.052725
C399	C	0.700965	-0.317974	-0.460621
C400	C	1.200965	0.182026	0.039379
H401	H	0.742729	-0.320242	-0.475654
H402	H	1.242729	0.179758	0.024346
H403	H	0.696450	-0.340172	-0.424703
H404	H	1.196450	0.159828	0.075297
H405	H	0.672919	-0.329713	-0.492297
H406	H	1.172919	0.170287	0.007703
O407	O	0.058300	-0.273272	-0.317899
O408	O	0.558300	0.226728	0.182101
C409	C	0.022486	-0.298677	-0.347347
C410	C	0.522486	0.201323	0.152653
H411	H	-0.016424	-0.280280	-0.349195
H412	H	0.483576	0.219720	0.150805
H413	H	0.038275	-0.303521	-0.388532
H414	H	0.538275	0.196479	0.111468
H415	H	0.016649	-0.332773	-0.328129
H416	H	0.516649	0.167227	0.171871
O417	O	0.821396	-0.383882	-0.186122
O418	O	1.321396	0.116118	0.313878
C419	C	0.850930	-0.414638	-0.156639
C420	C	1.350930	0.085362	0.343361
H421	H	0.852736	-0.448072	-0.178063
H422	H	1.352736	0.051928	0.321937
H423	H	0.892123	-0.401051	-0.151103
H424	H	1.392123	0.098949	0.348897
H425	H	0.831812	-0.419661	-0.116910
H426	H	1.331812	0.080339	0.383090
O427	O	0.821320	-0.476352	-0.186132
O428	O	1.321320	0.023648	0.313868
C429	C	0.791594	-0.503525	-0.152323
C430	C	1.291594	-0.003525	0.347677
H431	H	0.751959	-0.510581	-0.170716
H432	H	1.251959	-0.010581	0.329284
H433	H	0.812912	-0.536501	-0.145349
H434	H	1.312912	-0.036501	0.354651
H435	H	0.785873	-0.485465	-0.113566
H436	H	1.285873	0.014535	0.386434
H437	H	0.816212	-0.164382	-0.451592
H438	H	1.316212	0.335618	0.048408
H439	H	0.816330	-1.045021	-0.191464
H440	H	1.316330	-0.545021	0.308536
H441	H	0.849706	-0.135594	-0.702780
H442	H	1.349706	0.364406	-0.202780
O443	O	-0.049172	-0.159775	-0.186241
O444	O	0.450828	0.340225	0.313759
C445	C	-0.013358	-0.134388	-0.156771
C446	C	0.486642	0.365612	0.343229
H447	H	0.025576	-0.132861	-0.178187
H448	H	0.525576	0.367139	0.321813
H449	H	-0.029109	-0.098984	-0.151269
H450	H	0.470891	0.401016	0.348731
H451	H	-0.007582	-0.150790	-0.117027
H452	H	0.492418	0.349210	0.382973
O453	O	0.058440	-0.159868	-0.186219
O454	O	0.558440	0.340132	0.313781
C455	C	0.089980	-0.185401	-0.152382
C456	C	0.589980	0.314599	0.347618
H457	H	0.098153	-0.219468	-0.170751
H458	H	0.598153	0.280532	0.329249
H459	H	0.128383	-0.167088	-0.145404
H460	H	0.628383	0.332912	0.354596
H461	H	0.068910	-0.190293	-0.113631
H462	H	0.568910	0.309707	0.386369
O463	O	0.855049	-0.832872	-0.152881
O464	O	1.355049	-0.332872	0.347119
C465	C	0.888794	-0.859972	-0.182705
C466	C	1.388794	-0.359972	0.317295
H467	H	0.891970	-0.845810	-0.223885
H468	H	1.391970	-0.345810	0.276115
H469	H	0.929052	-0.860473	-0.163854
H470	H	1.429052	-0.360473	0.336146
H471	H	0.872647	-0.895545	-0.184491
H472	H	1.372647	-0.395545	0.315509
O473	O	0.202015	-0.130966	-0.152849
O474	O	0.702015	0.369034	0.347151
C475	C	0.237832	-0.105577	-0.123385
C476	C	0.737832	0.394423	0.376615
H477	H	0.276765	-0.104056	-0.144804
H478	H	0.776765	0.395944	0.355196
H479	H	0.222084	-0.070171	-0.117890
H480	H	0.722084	0.429829	0.382110
H481	H	0.243608	-0.121973	-0.083638
H482	H	0.743608	0.378027	0.416362
O483	O	0.855014	-0.692039	-0.152802
O484	O	1.355014	-0.192039	0.347198
C485	C	0.907102	-0.680513	-0.164308
C486	C	1.407102	-0.180513	0.335692
H487	H	0.908132	-0.646448	-0.184425
H488	H	1.408132	-0.146448	0.315575
H489	H	0.930578	-0.678874	-0.126604
H490	H	1.430578	-0.178874	0.373396
H491	H	0.924717	-0.706897	-0.191198
H492	H	1.424717	-0.206897	0.308802
O493	O	0.821530	-0.159824	-0.554856
O494	O	1.321530	0.340176	-0.054856
C495	C	0.851050	-0.134475	-0.519052
C496	C	1.351050	0.365525	-0.019052
H497	H	0.852832	-0.152889	-0.480130
H498	H	1.352832	0.347111	0.019870
H499	H	0.892253	-0.129686	-0.534834
H500	H	1.392253	0.370314	-0.034834
H501	H	0.831937	-0.100354	-0.513241
H502	H	1.331937	0.399646	-0.013241
H503	H	0.816301	-0.959898	-0.191448
H504	H	1.316301	-0.459898	0.308552
O505	O	0.689601	-0.956221	-0.317831
O506	O	1.189601	-0.456221	0.182169
C507	C	0.655833	-0.929128	-0.288025
C508	C	1.155833	-0.429128	0.211975
H509	H	0.674300	-0.922094	-0.248424
H510	H	1.174300	-0.422094	0.251576
H511	H	0.648795	-0.896136	-0.309314
H512	H	1.148795	-0.396136	0.190686
H513	H	0.617100	-0.947246	-0.282235
H514	H	1.117100	-0.447246	0.217765
H515	H	0.661337	-0.688495	-0.346038
H516	H	1.161337	-0.188495	0.153962
H517	H	0.661316	-0.603386	-0.346032
H518	H	1.161316	-0.103386	0.153968
O519	O	0.656210	-0.832990	-0.351323
O520	O	1.156210	-0.332990	0.148677
C521	C	0.685968	-0.860078	-0.385138
C522	C	1.185968	-0.360078	0.114862
H523	H	0.725603	-0.867085	-0.366737
H524	H	1.225603	-0.367085	0.133263
H525	H	0.664679	-0.893084	-0.392135
H526	H	1.164679	-0.393084	0.107865
H527	H	0.691685	-0.841971	-0.423883
H528	H	1.191685	-0.341971	0.076117
H529	H	0.694677	-0.387554	-0.312587
H530	H	1.194677	0.112446	0.187413
