data_functionalizedCrystal
_audit_creation_method	'MofGen! by Chris Wilmer'
_symmetry_space_group_name_H-M	'P1'
_symmetry_Int_Tables_number	1
_symmetry_cell_setting	triclinic
loop_
_symmetry_equiv_pos_as_xyz
  x,y,z
_cell_length_a	19.188930
_cell_length_b	11.792241
_cell_length_c	10.868271
_cell_angle_alpha	89.994719
_cell_angle_beta	89.981803
_cell_angle_gamma	83.669098
loop_
_atom_site_label
_atom_site_type_symbol
_atom_site_fract_x
_atom_site_fract_y
_atom_site_fract_z
O1	O	0.926947	0.141694	-0.102719
O2	O	0.723744	0.160769	-0.102634
O3	O	0.830277	-0.014013	-0.102670
O4	O	0.820414	0.316476	-0.102683
O5	O	0.830268	-0.014020	0.101975
O6	O	0.723735	0.160762	0.102010
O7	O	0.926938	0.141688	0.101926
Zn8	Zn	0.825335	0.151224	0.134460
Zn9	Zn	0.825347	0.151233	-0.135168
O10	O	0.820406	0.316469	0.101962
C11	C	0.697725	0.160148	-0.000301
C12	C	0.620210	0.158293	-0.000269
C13	C	0.829653	-0.056298	-0.000348
C14	C	0.827799	-0.182284	-0.000348
C15	C	0.824389	-0.412945	-0.000367
C16	C	0.826283	-0.284588	-0.000357
C17	C	0.575867	0.260849	-0.000292
C18	C	0.503033	0.259107	-0.000306
C19	C	0.474546	0.154803	-0.000320
C20	C	0.518899	0.052234	-0.000290
C21	C	0.591731	0.053979	-0.000264
N22	N	0.366117	0.075078	-0.070016
N23	N	0.296929	0.073428	-0.070043
C24	C	0.255107	0.149540	-0.000395
N25	N	0.285086	0.227382	0.069265
N26	N	0.354280	0.229036	0.069287
C27	C	0.395573	0.152900	-0.000348
C28	C	0.131789	0.250214	-0.000432
C29	C	0.058955	0.248468	-0.000438
C30	C	0.074822	0.041591	-0.000434
C31	C	0.147655	0.043341	-0.000416
C32	C	0.176134	0.147655	-0.000421
C33	C	0.952957	0.142309	-0.000410
C34	C	1.030472	0.144163	-0.000450
C35	C	0.821029	0.358754	-0.000363
C36	C	0.822884	0.484740	-0.000371
N37	N	0.825332	0.151217	0.318474
N38	N	0.825355	0.151230	-0.319182
C39	C	0.825343	0.151230	0.569480
C40	C	0.825335	0.151226	0.429803
H41	H	0.599050	0.345790	-0.000298
C42	C	0.162809	0.363384	-0.000222
C43	C	0.204144	0.370407	0.105060
C44	C	0.232735	0.474636	0.105290
H45	H	0.126037	0.424311	-0.000163
H46	H	0.190950	0.368386	-0.071541
H47	H	0.176005	0.365416	0.176360
H48	H	0.240928	0.309504	0.105023
H49	H	0.260875	0.479638	0.033971
H50	H	0.195958	0.535555	0.105346
H51	H	0.260789	0.479410	0.176716
H52	H	0.051628	-0.043335	-0.000523
C53	C	0.195839	-0.067973	-0.000157
C54	C	0.238074	-0.073034	0.105156
C55	C	0.282463	-0.175570	0.105447
H56	H	0.224665	-0.071694	-0.071429
H57	H	0.168469	-0.130378	-0.000103
H58	H	0.265441	-0.010646	0.105091
H59	H	0.209266	-0.069332	0.176445
H60	H	0.255094	-0.237975	0.105501
H61	H	0.311285	-0.179282	0.034171
H62	H	0.311121	-0.179022	0.176906
C63	C	0.454794	0.370372	-0.000532
C64	C	0.412540	0.375384	-0.105820
C65	C	0.368089	0.477855	-0.106064
H66	H	0.482098	0.432842	-0.000592
H67	H	0.425988	0.374002	0.070783
H68	H	0.441342	0.371766	-0.177116
H69	H	0.385221	0.312939	-0.105781
H70	H	0.339283	0.481485	-0.034750
H71	H	0.395398	0.540317	-0.106122
H72	H	0.339409	0.481265	-0.177494
H73	H	0.495700	-0.032691	-0.000319
H74	H	0.627836	-0.029537	-0.000246
C75	C	0.010924	0.359944	-0.000522
C76	C	0.051458	0.451665	-0.000554
C77	C	0.007235	0.554375	-0.000649
H78	H	-0.017852	0.363729	0.070815
H79	H	-0.017789	0.363622	-0.071923
H80	H	0.080158	0.447989	0.070839
H81	H	0.080232	0.447917	-0.071886
H82	H	-0.021477	0.558053	-0.072049
H83	H	-0.021538	0.558148	0.070690
H84	H	0.034731	0.616619	-0.000682
