data_functionalizedCrystal
_audit_creation_method	'MofGen! by Chris Wilmer'
_symmetry_space_group_name_H-M	'P1'
_symmetry_Int_Tables_number	1
_symmetry_cell_setting	triclinic
loop_
_symmetry_equiv_pos_as_xyz
  x,y,z
_cell_length_a	11.026607
_cell_length_b	10.489741
_cell_length_c	9.482900
_cell_angle_alpha	99.430409
_cell_angle_beta	78.636152
_cell_angle_gamma	96.562595
loop_
_atom_site_label
_atom_site_type_symbol
_atom_site_fract_x
_atom_site_fract_y
_atom_site_fract_z
O1	O	1.633618	0.519526	-0.120902
O2	O	1.279780	0.458584	-0.120903
O3	O	1.464749	0.305229	-0.120894
O4	O	1.448649	0.672881	-0.120911
O5	O	1.427179	0.336539	0.120897
O6	O	1.242210	0.489894	0.120887
O7	O	1.596048	0.550836	0.120889
Cu8	Cu	1.415698	0.523224	0.142965
Cu9	Cu	1.460129	0.486196	-0.142980
O10	O	1.411079	0.704190	0.120879
C11	C	1.215686	0.462996	-0.000008
C12	C	1.080679	0.429482	-0.000008
C13	C	1.444748	0.273085	0.000000
C14	C	1.441110	0.130655	-0.000002
C15	C	1.007683	0.522021	-0.000014
C16	C	0.868146	0.487384	-0.000014
C17	C	1.323420	0.036624	-0.000013
C18	C	1.360492	-0.027831	0.119202
C19	C	1.397561	-0.058669	-0.119184
C20	C	1.478215	0.068088	0.119312
C21	C	1.515284	0.037242	-0.119182
C22	C	1.552438	-0.027163	0.000063
C23	C	1.660143	0.546423	-0.000010
C24	C	1.795151	0.579936	-0.000019
C25	C	1.431080	0.736334	-0.000018
C26	C	1.434720	0.878763	-0.000025
N27	N	1.384457	0.549268	0.344084
N28	N	1.491380	0.460144	-0.344099
C29	C	1.450906	0.493869	0.416286
C30	C	1.424922	0.515551	0.583703
H31	H	1.048490	0.626890	-0.000010
H32	H	0.827348	0.382504	-0.000046
H33	H	0.835951	0.684814	-0.000014
H34	H	1.649280	-0.055274	0.000129
O35	O	1.031990	0.304356	-0.000262
C36	C	0.978829	0.263265	-0.125468
H37	H	1.023096	0.325574	-0.212996
H38	H	0.995713	0.157404	-0.167500
H39	H	0.874695	0.273589	-0.097156
H40	H	1.363411	-0.113642	-0.219981
H41	H	1.567508	0.396654	0.593781
O42	O	1.519007	0.133647	0.239539
C43	C	1.628250	0.212494	0.197002
H44	H	1.631841	0.233428	0.081953
H45	H	1.628606	0.307662	0.274787
H46	H	1.712639	0.160154	0.199871
H47	H	1.348785	0.579029	0.645823
O48	O	1.593172	0.071683	-0.239571
C49	C	1.550319	0.006421	-0.365024
H50	H	1.446658	-0.022930	-0.336462
H51	H	1.567405	0.073387	-0.451533
H52	H	1.602241	-0.083963	-0.408522
O53	O	1.207934	0.070301	-0.000071
C54	C	1.164800	0.003261	-0.124596
H55	H	1.215738	-0.088066	-0.165719
H56	H	1.060894	-0.024717	-0.095739
H57	H	1.182885	0.068352	-0.213020
H58	H	1.308326	0.612742	0.406210
O59	O	1.282229	-0.062307	0.239333
C60	C	1.161583	-0.030207	0.238933
H61	H	1.151630	-0.023944	0.122921
H62	H	1.090546	-0.108091	0.283966
H63	H	1.145015	0.067368	0.309589
O64	O	1.541614	0.418075	0.341991
C65	C	1.489222	0.313038	0.253948
H66	H	1.398093	0.339360	0.231347
H67	H	1.556301	0.290629	0.146828
H68	H	1.470908	0.224191	0.312472
