data_functionalizedCrystal
_audit_creation_method	'MofGen! by Chris Wilmer'
_symmetry_space_group_name_H-M	'P1'
_symmetry_Int_Tables_number	1
_symmetry_cell_setting	triclinic
loop_
_symmetry_equiv_pos_as_xyz
  x,y,z
_cell_length_a	15.297475
_cell_length_b	19.805405
_cell_length_c	19.805399
_cell_angle_alpha	90.029301
_cell_angle_beta	80.316777
_cell_angle_gamma	99.671656
loop_
_atom_site_label
_atom_site_type_symbol
_atom_site_fract_x
_atom_site_fract_y
_atom_site_fract_z
Zn1	Zn	1.379175	0.448830	-0.561444
Zn2	Zn	1.879175	0.948830	-0.061444
Zn3	Zn	1.379062	0.562004	-0.448238
Zn4	Zn	1.879062	1.062004	0.051762
Zn5	Zn	1.228313	0.429230	-0.428718
Zn6	Zn	1.728313	0.929230	0.071282
Zn7	Zn	1.228265	0.542358	-0.541842
Zn8	Zn	1.728265	1.042358	-0.041842
O9	O	1.303704	0.495605	-0.495060
O10	O	1.803704	0.995605	0.004940
O11	O	1.505406	0.480267	-0.562799
O12	O	2.005406	0.980267	-0.062799
O13	O	1.359038	0.544410	-0.350928
O14	O	1.859038	1.044410	0.149072
O15	O	1.248393	0.337122	-0.446358
O16	O	1.748393	0.837122	0.053642
O17	O	1.505322	0.563415	-0.479627
O18	O	2.005322	1.063415	0.020373
O19	O	1.359231	0.351522	-0.543872
O20	O	1.859231	0.851522	-0.043872
O21	O	1.248283	0.446862	-0.336587
O22	O	1.748283	0.946862	0.163413
O23	O	1.102061	0.427812	-0.427351
O24	O	1.602061	0.927812	0.072649
O25	O	1.248310	0.529932	-0.639162
O26	O	1.748310	1.029932	-0.139162
O27	O	1.102025	0.510926	-0.510463
O28	O	1.602025	1.010926	-0.010463
O29	O	1.359184	0.461217	-0.653564
O30	O	1.859184	0.961217	-0.153564
O31	O	1.358990	0.654105	-0.460620
O32	O	1.858990	1.154105	0.039380
O33	O	1.248200	0.639671	-0.529391
O34	O	1.748200	1.139671	-0.029391
C35	C	1.069309	0.465111	-0.464662
C36	C	1.569309	0.965111	0.035338
C37	C	0.969034	0.452082	-0.451674
C38	C	1.469034	0.952082	0.048326
C39	C	1.303602	0.671448	-0.495014
C40	C	1.803602	1.171448	0.004986
C41	C	1.303641	0.746685	-0.495028
C42	C	1.803641	1.246685	0.004972
C43	C	1.303754	0.495569	-0.671610
C44	C	1.803754	0.995569	-0.171610
C45	C	1.303776	0.495554	-0.746844
C46	C	1.803776	0.995554	-0.246844
C47	C	0.686401	0.588732	-0.587891
C48	C	1.186401	1.088732	-0.087891
C49	C	0.780615	0.600979	-0.600093
C50	C	1.280615	1.100979	-0.100093
C51	C	0.827724	0.563755	-0.562989
C52	C	1.327724	1.063755	-0.062989
C53	C	0.780611	0.514284	-0.513682
C54	C	1.280611	1.014284	-0.013682
C55	C	0.686389	0.502040	-0.501476
C56	C	1.186389	1.002040	-0.001476
C57	C	0.827711	0.477063	-0.476574
C58	C	1.327711	0.977063	0.023426
C59	C	0.780598	0.427591	-0.427267
C60	C	1.280598	0.927591	0.072733
C61	C	0.686385	0.415349	-0.415063
C62	C	1.186385	0.915349	0.084937
C63	C	0.639276	0.452572	-0.452166
C64	C	1.139276	0.952572	0.047834
C65	C	0.921934	0.489307	-0.488780
C66	C	1.421934	0.989307	0.011220
C67	C	0.921921	0.402615	-0.402365
C68	C	1.421921	0.902615	0.097635
C69	C	0.827708	0.390368	-0.390163
C70	C	1.327708	0.890368	0.109837
C71	C	1.539013	0.526219	-0.525577
C72	C	2.039013	1.026219	-0.025577
C73	C	1.639288	0.539265	-0.538582
C74	C	2.139288	1.039265	-0.038582
C75	C	1.303830	0.319079	-0.495124
C76	C	1.803830	0.819079	0.004876
C77	C	1.303884	0.243854	-0.495152
C78	C	1.803884	0.743854	0.004848
C79	C	1.361386	0.789530	-0.459272
C80	C	1.861386	1.289530	0.040728
C81	C	1.361424	0.860223	-0.459292
C82	C	1.861424	1.360223	0.040708
C83	C	1.303713	0.888070	-0.495064
C84	C	1.803713	1.388070	0.004936
C85	C	1.245966	0.845220	-0.530825
C86	C	1.745966	1.345220	-0.030825
C87	C	1.245933	0.774529	-0.530809
C88	C	1.745933	1.274529	-0.030809
C89	C	1.246099	1.130311	-0.530892
C90	C	1.746099	1.630311	-0.030892
C91	C	1.246134	1.201007	-0.530904
C92	C	1.746134	1.701007	-0.030904
C93	C	1.361590	1.216005	-0.459375
C94	C	1.861590	1.716005	0.040625
C95	C	1.361557	1.145314	-0.459359
C96	C	1.861557	1.645314	0.040641
C97	C	1.303814	1.102470	-0.495122
C98	C	1.803814	1.602470	0.004878
C99	C	1.303774	1.025817	-0.495102
C100	C	1.803774	1.525817	0.004898
C101	C	1.303747	0.964722	-0.495082
C102	C	1.803747	1.464722	0.004918
C103	C	1.361509	0.459772	-0.789689
C104	C	1.861509	0.959772	-0.289689
C105	C	1.361518	0.459754	-0.860378
C106	C	1.861518	0.959754	-0.360378
C107	C	1.303798	0.495521	-0.888223
C108	C	1.803798	0.995521	-0.388223
C109	C	1.246059	0.531304	-0.845373
C110	C	1.746059	1.031304	-0.345373
C111	C	1.246046	0.531318	-0.774684
C112	C	1.746046	1.031318	-0.274684
C113	C	1.246110	0.531248	-1.130453
C114	C	1.746110	1.031248	-0.630453
C115	C	1.246129	0.531232	-1.201148
C116	C	1.746129	1.031232	-0.701148
C117	C	1.361582	0.459683	-1.216147
C118	C	1.861582	0.959683	-0.716147
C119	C	1.361569	0.459697	-1.145458
C120	C	1.861569	0.959697	-0.645458
C121	C	1.303827	0.495477	-1.102614
C122	C	1.803827	0.995477	-0.602614
C123	C	1.303816	0.495495	-1.025964
C124	C	1.803816	0.995495	-0.525964
C125	C	1.303813	0.495507	-0.964872
C126	C	1.803813	0.995507	-0.464872
C127	C	1.303705	0.495599	-0.319204
C128	C	1.803705	0.995599	0.180796
C129	C	1.303858	0.495447	-0.243993
C130	C	1.803858	0.995447	0.256007
H131	H	0.960284	0.529587	-0.528927
H132	H	1.460284	1.029587	-0.028927
H133	H	0.562559	0.442602	-0.442236
H134	H	1.062559	0.942602	0.057764
F135	F	1.423035	0.421601	-1.261751
F136	F	1.923035	0.921601	-0.761751
F137	F	1.423006	0.421632	-1.115829
F138	F	1.923006	0.921632	-0.615829
H139	H	1.199024	0.560447	-0.739799
H140	H	1.699024	1.060447	-0.239799
F141	F	1.184692	0.569303	-1.230780
F142	F	1.684692	1.069303	-0.730780
F143	F	1.184642	1.084722	-0.568954
F144	F	1.684642	1.584722	-0.068954
H145	H	0.818967	0.641260	-0.640237
H146	H	1.318967	1.141260	-0.140237
H147	H	1.408514	0.430649	-0.767024
H148	H	1.908514	0.930649	-0.267024
H149	H	0.904437	0.573729	-0.572927
H150	H	1.404437	1.073729	-0.072927
H151	H	0.789335	0.350088	-0.350017
H152	H	1.289335	0.850088	0.149983
F153	F	1.422997	0.421697	-0.905978
F154	F	1.922997	0.921697	-0.405978
H155	H	0.648036	0.619038	-0.618091
H156	H	1.148036	1.119038	-0.118091
F157	F	0.636246	0.362702	-0.362581
F158	F	1.136246	0.862702	0.137419
H159	H	0.960278	0.372305	-0.372151
H160	H	1.460278	0.872305	0.127849
H161	H	1.408377	0.766862	-0.430138
H162	H	1.908377	1.266862	0.069862
H163	H	1.199105	0.560393	-1.095579
H164	H	1.699105	1.060393	-0.595579
F165	F	1.422886	0.905819	-0.421237
F166	F	1.922886	1.405819	0.078763
F167	F	1.422980	1.115681	-0.421284
F168	F	1.922980	1.615681	0.078716
H169	H	1.199140	1.223677	-0.560040
H170	H	1.699140	1.723677	-0.060040
F171	F	1.423050	1.261608	-0.421316
F172	F	1.923050	1.761608	0.078684
F173	F	1.184550	0.874859	-0.568902
F174	F	1.684550	1.374859	-0.068902
H175	H	1.198912	0.739645	-0.559926
H176	H	1.698912	1.239645	-0.059926
H177	H	1.199059	0.560424	-0.868049
H178	H	1.699059	1.060424	-0.368049
