data_functionalizedCrystal
_audit_creation_method	'MofGen! by Chris Wilmer'
_symmetry_space_group_name_H-M	'P1'
_symmetry_Int_Tables_number	1
_symmetry_cell_setting	triclinic
loop_
_symmetry_equiv_pos_as_xyz
  x,y,z
_cell_length_a	15.995350
_cell_length_b	15.944493
_cell_length_c	14.472311
_cell_angle_alpha	90.003785
_cell_angle_beta	90.000483
_cell_angle_gamma	83.483709
loop_
_atom_site_label
_atom_site_type_symbol
_atom_site_fract_x
_atom_site_fract_y
_atom_site_fract_z
O1	O	1.110968	0.108279	0.076750
O2	O	0.867191	0.121649	0.076768
O3	O	0.995762	-0.007315	0.076766
O4	O	0.982397	0.237242	0.076752
O5	O	0.995753	-0.007331	-0.076916
O6	O	0.867182	0.121633	-0.076914
O7	O	1.110959	0.108263	-0.076932
Cu8	Cu	0.989070	0.114946	-0.090955
Cu9	Cu	0.989080	0.114965	0.090792
O10	O	0.982388	0.237226	-0.076930
C11	C	0.835992	0.121088	-0.000071
C12	C	0.743041	0.119431	-0.000063
C13	C	0.995211	-0.038617	-0.000071
C14	C	0.993573	-0.131866	-0.000059
C15	C	0.405295	0.113480	-0.000082
C16	C	0.452743	0.021634	-0.000420
C17	C	0.549433	0.023292	-0.000067
C18	C	0.572855	0.116432	-0.000073
C19	C	0.531766	0.161742	0.087680
C20	C	0.435131	0.159435	0.087747
C21	C	0.434781	0.161314	-0.087018
C22	C	0.531727	0.161292	-0.088171
C23	C	0.667552	0.118105	-0.000065
C24	C	0.310597	0.111809	-0.000084
C25	C	1.069253	-0.367630	-0.000082
C26	C	1.028446	-0.418188	0.075694
C27	C	0.990539	-0.302587	-0.000070
C28	C	1.028419	-0.418180	-0.075824
C29	C	0.987614	-0.467496	-0.000085
C30	C	0.949753	-0.351916	0.075768
C31	C	0.949738	-0.351905	-0.075818
C32	C	0.908873	-0.402430	-0.000024
C33	C	0.992226	-0.207587	-0.000061
C34	C	0.985920	-0.562493	-0.000087
C35	C	1.142158	0.108823	-0.000091
C36	C	1.235108	0.110481	-0.000092
C37	C	0.982939	0.268529	-0.000091
C38	C	0.984577	0.361778	-0.000097
N39	N	0.989068	0.114932	-0.218786
C40	C	0.989081	0.114959	-0.592877
C41	C	1.058100	0.046184	-0.553684
C42	C	1.057920	0.045930	-0.446596
C43	C	0.989076	0.114946	-0.407286
C44	C	0.901721	0.095804	-0.446169
C45	C	0.902130	0.095317	-0.553291
C46	C	1.006629	0.203080	-0.553389
C47	C	1.008612	0.202489	-0.446261
C48	C	0.989067	0.114940	-0.302398
C49	C	0.989084	0.114963	-0.697765
N50	N	0.989088	0.114973	0.218622
H51	H	0.577863	-0.012324	-0.062972
C52	C	0.587087	-0.025114	0.085072
H53	H	0.646379	-0.024270	0.085576
H54	H	0.563595	0.000946	0.139654
H55	H	0.574528	-0.081889	0.082504
H56	H	0.961599	0.256066	-0.419501
H57	H	1.061674	-0.447120	-0.139883
H58	H	0.916534	-0.323088	0.139899
C59	C	1.073356	-0.457293	0.162226
H60	H	1.130303	-0.445651	0.162132
H61	H	1.045958	-0.433723	0.216038
H62	H	1.071527	-0.516638	0.161879
C63	C	0.391544	0.250523	0.093130
H64	H	0.332244	0.249731	0.093201
H65	H	0.408133	0.276411	0.148267
H66	H	0.407358	0.281617	0.041228
H67	H	1.122855	0.057329	-0.420306
H68	H	0.916521	-0.322949	-0.139879
C69	C	1.090839	0.227935	-0.589879
H70	H	1.116085	0.184796	-0.629541
H71	H	1.081048	0.279419	-0.623241
H72	H	1.127345	0.234903	-0.539363
H73	H	1.123252	0.057398	-0.579444
C74	C	0.938643	0.272225	-0.587631
H75	H	0.949579	0.325324	-0.563536
H76	H	0.939472	0.274142	-0.653224
H77	H	0.884930	0.259866	-0.567241
H78	H	0.849229	0.143505	-0.579219
H79	H	1.072873	0.217015	-0.420848
H80	H	0.545881	0.230170	0.090939
H81	H	1.137055	-0.352005	-0.000010
C82	C	0.552465	0.253047	-0.095342
H83	H	0.586623	0.265254	-0.044471
H84	H	0.581812	0.260150	-0.151354
H85	H	0.501746	0.290350	-0.094605
H86	H	0.434223	-0.015085	-0.063351
H87	H	1.046709	-0.019465	-0.420973
H88	H	0.885873	0.032270	-0.419345
H89	H	0.886661	0.031052	-0.578280
H90	H	0.841018	-0.417892	0.000023
C91	C	0.830661	0.161663	-0.411775
H92	H	0.778409	0.148898	-0.436106
H93	H	0.828647	0.160476	-0.346193
H94	H	0.841083	0.216251	-0.431824
C95	C	0.426285	-0.027731	0.084125
H96	H	0.386451	0.007390	0.119629
H97	H	0.401749	-0.076085	0.063946
H98	H	0.474337	-0.044939	0.120969
C99	C	0.570100	0.119253	0.175917
H100	H	0.544831	0.147125	0.228653
H101	H	0.560141	0.061647	0.176712
H102	H	0.628984	0.122786	0.176826
C103	C	0.410401	0.114815	0.176364
H104	H	0.351241	0.113018	0.177189
H105	H	0.438208	0.058926	0.177737
H106	H	0.426488	0.144985	0.228843
C107	C	0.407043	0.120745	-0.176875
H108	H	0.377218	0.074248	-0.162209
H109	H	0.371564	0.161274	-0.211141
H110	H	0.455241	0.101664	-0.212703
C111	C	0.568622	0.116609	-0.175875
H112	H	0.608927	0.070808	-0.158883
H113	H	0.524730	0.095973	-0.210339
H114	H	0.594994	0.155484	-0.212502
H115	H	0.403010	0.229031	-0.087616
C116	C	1.043176	-0.041660	-0.590044
H117	H	0.995064	-0.036605	-0.629004
H118	H	1.090983	-0.065046	-0.624127
H119	H	1.034255	-0.077521	-0.539426
