data_functionalizedCrystal
_audit_creation_method	'MofGen! by Chris Wilmer'
_symmetry_space_group_name_H-M	'P1'
_symmetry_Int_Tables_number	1
_symmetry_cell_setting	triclinic
loop_
_symmetry_equiv_pos_as_xyz
  x,y,z
_cell_length_a	16.109301
_cell_length_b	12.837942
_cell_length_c	15.186229
_cell_angle_alpha	89.996774
_cell_angle_beta	89.999362
_cell_angle_gamma	89.145211
loop_
_atom_site_label
_atom_site_type_symbol
_atom_site_fract_x
_atom_site_fract_y
_atom_site_fract_z
O1	O	1.113716	0.133240	-0.073172
O2	O	0.872971	0.149822	-0.073186
O3	O	0.988005	-0.009370	-0.073174
O4	O	0.998681	0.292432	-0.073184
O5	O	0.987996	-0.009372	0.073283
O6	O	0.872962	0.149820	0.073271
O7	O	1.113707	0.133238	0.073285
Zn8	Zn	0.993333	0.141528	0.096532
Zn9	Zn	0.993345	0.141531	-0.096432
O10	O	0.998673	0.292430	0.073273
C11	C	0.841938	0.149149	0.000041
C12	C	0.749483	0.147135	0.000036
C13	C	0.984394	-0.047991	0.000054
C14	C	0.973637	-0.163064	0.000052
C15	C	0.534343	0.236914	0.000043
C16	C	0.447471	0.235014	0.000049
C17	C	0.452341	0.046138	0.000051
C18	C	0.539211	0.048040	0.000052
C19	C	0.580209	0.143431	0.000043
C20	C	0.406468	0.139629	0.000048
C21	C	0.312278	0.137568	0.000055
C22	C	0.674405	0.145492	0.000039
C23	C	1.102954	-0.404066	0.000041
C24	C	1.092851	-0.512188	0.000039
C25	C	0.943328	-0.487433	0.000040
C26	C	0.953431	-0.379311	0.000042
C27	C	1.033247	-0.337632	0.000044
C28	C	1.043349	-0.229507	0.000052
C29	C	0.893827	-0.204754	0.000046
C30	C	0.883724	-0.312876	0.000044
C31	C	1.144739	0.133911	0.000056
C32	C	1.237195	0.135924	0.000056
C33	C	1.002284	0.331050	0.000043
C34	C	1.013041	0.446124	0.000040
N35	N	0.993331	0.141526	0.228224
N36	N	0.993352	0.141526	-0.228125
C37	C	1.044289	0.071059	0.453952
C38	C	1.044292	0.071057	0.546142
C39	C	0.942388	0.211996	0.546141
C40	C	0.942382	0.211992	0.453953
C41	C	0.993337	0.141525	0.407861
C42	C	0.993346	0.141526	0.592239
C43	C	0.993348	0.141524	0.692195
C44	C	0.993334	0.141526	0.307898
H45	H	0.567721	0.314588	0.000043
C46	C	0.397022	0.337846	0.000042
H47	H	0.433883	0.394925	0.000030
H48	H	0.363032	0.341034	0.051114
H49	H	0.363034	0.341028	-0.051038
H50	H	1.149614	-0.566277	0.000034
C51	C	0.407240	-0.058783	0.000050
H52	H	0.348934	-0.046528	0.000040
H53	H	0.422474	-0.097281	0.051121
H54	H	0.422480	-0.097265	-0.051031
H55	H	0.818741	-0.346827	0.000039
H56	H	0.900887	0.269374	0.416422
C57	C	1.190744	-0.358215	0.000050
H58	H	1.230814	-0.413268	0.000047
H59	H	1.197788	-0.316554	0.051124
H60	H	1.197797	-0.316548	-0.051028
C61	C	0.589671	-0.054794	0.000051
H62	H	0.647279	-0.039998	0.000060
H63	H	0.576439	-0.093909	-0.051020
H64	H	0.576435	-0.093909	0.051132
C65	C	1.131141	-0.183660	0.000051
H66	H	1.171208	-0.238716	0.000041
H67	H	1.138194	-0.142000	0.051124
H68	H	1.138188	-0.141993	-0.051028
C69	C	0.855541	-0.533294	0.000037
H70	H	0.859512	-0.607203	0.000039
H71	H	0.826476	-0.510484	-0.051033
H72	H	0.826481	-0.510500	0.051119
C73	C	0.817146	-0.131674	0.000042
H74	H	0.834592	-0.061309	0.000037
H75	H	0.784769	-0.144313	0.051112
H76	H	0.784779	-0.144304	-0.051041
C77	C	1.100329	-0.006460	0.403254
H78	H	1.130668	-0.048433	0.443912
H79	H	1.137891	0.030835	0.367284
H80	H	1.066994	-0.049625	0.367300
H81	H	1.085781	0.013676	0.583667
C82	C	0.886351	0.289512	0.596844
H83	H	0.893657	0.279431	0.658350
H84	H	0.829970	0.278239	0.581744
H85	H	0.900867	0.358699	0.581727
