data_functionalizedCrystal
_audit_creation_method	'MofGen! by Chris Wilmer'
_symmetry_space_group_name_H-M	'P1'
_symmetry_Int_Tables_number	1
_symmetry_cell_setting	triclinic
loop_
_symmetry_equiv_pos_as_xyz
  x,y,z
_cell_length_a	16.120484
_cell_length_b	16.625547
_cell_length_c	16.625539
_cell_angle_alpha	90.024822
_cell_angle_beta	87.131385
_cell_angle_gamma	92.925712
loop_
_atom_site_label
_atom_site_type_symbol
_atom_site_fract_x
_atom_site_fract_y
_atom_site_fract_z
Zn1	Zn	-0.331907	1.216387	0.472258
Zn2	Zn	0.001426	1.549720	0.805592
Zn3	Zn	0.334759	1.883053	1.138925
Zn4	Zn	-0.471332	1.209446	0.344255
Zn5	Zn	-0.137998	1.542779	0.677588
Zn6	Zn	0.195335	1.876112	1.010922
Zn7	Zn	-0.331936	1.081547	0.337430
Zn8	Zn	0.001397	1.414881	0.670764
Zn9	Zn	0.334730	1.748214	1.004097
Zn10	Zn	-0.471281	1.074677	0.479032
Zn11	Zn	-0.137948	1.408010	0.812366
Zn12	Zn	0.195386	1.741344	1.145699
O13	O	-0.401614	1.145514	0.408244
O14	O	-0.068281	1.478847	0.741577
O15	O	0.265053	1.812181	1.074911
O16	O	-0.350411	1.328298	0.455300
O17	O	-0.017078	1.661631	0.788633
O18	O	0.316255	1.994965	1.121966
O19	O	-0.452874	1.192450	0.230519
O20	O	-0.119540	1.525783	0.563852
O21	O	0.213793	1.859116	0.897185
O22	O	-0.215267	1.105214	0.349625
O23	O	0.118067	1.438547	0.682958
O24	O	0.451400	1.771881	1.016291
O25	O	-0.452846	1.323198	0.361256
O26	O	-0.119512	1.656532	0.694589
O27	O	0.213821	1.989865	1.027923
O28	O	-0.215245	1.204280	0.448682
O29	O	0.118088	1.537614	0.782015
O30	O	0.451421	1.870947	1.115349
O31	O	-0.350461	1.098483	0.225505
O32	O	-0.017127	1.431817	0.558838
O33	O	0.316206	1.765150	0.892171
O34	O	-0.350412	0.967804	0.356193
O35	O	-0.017078	1.301137	0.689526
O36	O	0.316255	1.634471	1.022860
O37	O	-0.452759	1.093505	0.590964
O38	O	-0.119426	1.426838	0.924298
O39	O	0.213907	1.760172	1.257631
O40	O	-0.452787	0.962756	0.460227
O41	O	-0.119454	1.296090	0.793561
O42	O	0.213879	1.629423	1.126894
O43	O	-0.350362	1.197618	0.585988
O44	O	-0.017029	1.530952	0.919321
O45	O	0.316305	1.864285	1.252654
O46	O	-0.587991	1.185788	0.367824
O47	O	-0.254657	1.519121	0.701158
O48	O	0.078676	1.852455	1.034491
O49	O	-0.587953	1.086774	0.466845
O50	O	-0.254620	1.420108	0.800178
O51	O	0.078713	1.753441	1.133511
C52	C	-0.401598	0.936024	0.408205
C53	C	-0.068264	1.269357	0.741538
C54	C	0.265069	1.602691	1.074872
C55	C	-0.401611	0.846402	0.408209
C56	C	-0.068278	1.179736	0.741542
C57	C	0.265056	1.513069	1.074875
C58	C	-0.618222	1.134804	0.418828
C59	C	-0.284889	1.468138	0.752161
C60	C	0.048445	1.801471	1.085494
C61	C	-0.710888	1.130296	0.423383
C62	C	-0.377555	1.463630	0.756716
C63	C	-0.044221	1.796963	1.090049
C64	C	-0.401613	0.773620	0.408219
C65	C	-0.068279	1.106953	0.741552
C66	C	0.265054	1.440286	1.074885
C67	C	-0.401617	0.682311	0.408239
C68	C	-0.068284	1.015644	0.741572
C69	C	0.265050	1.348978	1.074906
C70	C	-0.401625	0.609534	0.408260
C71	C	-0.068291	0.942868	0.741593
C72	C	0.265042	1.276201	1.074927
C73	C	-0.401630	0.518220	0.408279
C74	C	-0.068297	0.851553	0.741613
C75	C	0.265036	1.184886	1.074946
C76	C	-0.880550	1.122071	0.431715
C77	C	-0.547216	1.455404	0.765048
C78	C	-0.213883	1.788737	1.098382
C79	C	-0.921838	1.169102	0.384786
C80	C	-0.588504	1.502435	0.718120
C81	C	-0.255171	1.835769	1.051453
C82	C	-1.016243	1.164525	0.389422
C83	C	-0.682910	1.497859	0.722756
C84	C	-0.349577	1.831192	1.056089
C85	C	-0.786136	1.126646	0.427080
C86	C	-0.452802	1.459980	0.760413
C87	C	-0.119469	1.793313	1.093746
C88	C	-0.184160	1.156288	0.397636
C89	C	0.149173	1.489621	0.730970
C90	C	0.482507	1.822954	1.064303
C91	C	-0.091494	1.160879	0.393116
C92	C	0.241839	1.494212	0.726450
C93	C	0.575173	1.827546	1.059783
C94	C	-0.401552	1.145570	0.618550
C95	C	-0.068219	1.478903	0.951883
C96	C	0.265115	1.812236	1.285217
C97	C	-0.401525	1.145593	0.708170
C98	C	-0.068192	1.478927	1.041503
C99	C	0.265141	1.812260	1.374836
C100	C	-0.401631	1.355822	0.408283
C101	C	-0.068297	1.689156	0.741617
C102	C	0.265036	2.022489	1.074950
C103	C	-0.401638	1.445443	0.408300
C104	C	-0.068305	1.778776	0.741634
C105	C	0.265029	2.112110	1.074967
C106	C	-0.401616	1.145508	0.198753
C107	C	-0.068282	1.478842	0.532087
C108	C	0.265051	1.812175	0.865420
C109	C	-0.401407	1.145652	0.109122
C110	C	-0.068074	1.478986	0.442456
C111	C	0.265259	1.812319	0.775789
C112	C	-0.401432	1.145635	1.036341
C113	C	-0.068099	1.478968	1.369674
C114	C	0.265235	1.812302	1.703008
C115	C	-0.401461	1.145621	0.945034
C116	C	-0.068127	1.478954	1.278367
C117	C	0.265206	1.812288	1.611701
C118	C	-0.401479	1.145615	0.872258
C119	C	-0.068146	1.478948	1.205592
C120	C	0.265187	1.812281	1.538925
C121	C	-0.401507	1.145600	0.780945
C122	C	-0.068173	1.478933	1.114279
C123	C	0.265160	1.812266	1.447612
H124	H	-0.886285	1.212804	0.341127
H125	H	-0.552951	1.546137	0.674460
H126	H	-0.219618	1.879470	1.007794
F127	F	-0.927017	1.064951	0.488775
F128	F	-0.593684	1.398285	0.822109
F129	F	-0.260350	1.731618	1.155442
