data_functionalizedCrystal
_audit_creation_method	'MofGen! by Chris Wilmer'
_symmetry_space_group_name_H-M	'P1'
_symmetry_Int_Tables_number	1
_symmetry_cell_setting	triclinic
loop_
_symmetry_equiv_pos_as_xyz
  x,y,z
_cell_length_a	19.076808
_cell_length_b	19.805407
_cell_length_c	19.077579
_cell_angle_alpha	87.685941
_cell_angle_beta	94.529153
_cell_angle_gamma	87.680447
loop_
_atom_site_label
_atom_site_type_symbol
_atom_site_fract_x
_atom_site_fract_y
_atom_site_fract_z
Zn1	Zn	-0.264741	-1.039457	0.387324
Zn2	Zn	-0.014741	-0.789457	0.637324
Zn3	Zn	0.235259	-0.539457	0.887324
Zn4	Zn	0.485259	-0.289457	1.137324
Zn5	Zn	-0.387373	-1.029904	0.264694
Zn6	Zn	-0.137373	-0.779904	0.514694
Zn7	Zn	0.112627	-0.529904	0.764694
Zn8	Zn	0.362627	-0.279904	1.014694
Zn9	Zn	-0.269489	-0.921540	0.269447
Zn10	Zn	-0.019489	-0.671540	0.519447
Zn11	Zn	0.230511	-0.421540	0.769447
Zn12	Zn	0.480511	-0.171540	1.019447
Zn13	Zn	-0.382592	-0.921500	0.382543
Zn14	Zn	-0.132592	-0.671500	0.632543
Zn15	Zn	0.117408	-0.421500	0.882543
Zn16	Zn	0.367408	-0.171500	1.132543
O17	O	-0.326049	-0.978100	0.326002
O18	O	-0.076049	-0.728100	0.576002
O19	O	0.173951	-0.478100	0.826002
O20	O	0.423951	-0.228100	1.076002
O21	O	-0.281022	-1.132906	0.371068
O22	O	-0.031022	-0.882906	0.621068
O23	O	0.218978	-0.632906	0.871068
O24	O	0.468978	-0.382906	1.121068
O25	O	-0.375723	-1.011549	0.166673
O26	O	-0.125723	-0.761549	0.416673
O27	O	0.124277	-0.511549	0.666673
O28	O	0.374277	-0.261549	0.916673
O29	O	-0.170202	-0.941197	0.289074
O30	O	0.079798	-0.691197	0.539074
O31	O	0.329798	-0.441197	0.789074
O32	O	0.579798	-0.191197	1.039074
O33	O	-0.371119	-1.125888	0.280972
O34	O	-0.121119	-0.875888	0.530972
O35	O	0.128881	-0.625888	0.780972
O36	O	0.378881	-0.375888	1.030972
O37	O	-0.166714	-1.027830	0.375677
O38	O	0.083286	-0.777830	0.625677
O39	O	0.333286	-0.527830	0.875677
O40	O	0.583286	-0.277830	1.125677
O41	O	-0.289114	-0.931934	0.170165
O42	O	-0.039114	-0.681934	0.420165
O43	O	0.210886	-0.431934	0.670165
O44	O	0.460886	-0.181934	0.920165
O45	O	-0.284478	-0.826818	0.284438
O46	O	-0.034478	-0.576818	0.534438
O47	O	0.215522	-0.326818	0.784438
O48	O	0.465522	-0.076818	1.034438
O49	O	-0.362971	-0.941128	0.481829
O50	O	-0.112971	-0.691128	0.731829
O51	O	0.137029	-0.441128	0.981829
O52	O	0.387029	-0.191128	1.231829
O53	O	-0.367575	-0.826789	0.367530
O54	O	-0.117575	-0.576789	0.617530
O55	O	0.132425	-0.326789	0.867530
O56	O	0.382425	-0.076789	1.117530
O57	O	-0.276386	-1.027791	0.485341
O58	O	-0.026386	-0.777791	0.735341
O59	O	0.223614	-0.527791	0.985341
O60	O	0.473614	-0.277791	1.235341
O61	O	-0.485395	-1.011509	0.276337
O62	O	-0.235395	-0.761509	0.526337
O63	O	0.014605	-0.511509	0.776337
O64	O	0.264605	-0.261509	1.026337
O65	O	-0.481883	-0.931865	0.362921
O66	O	-0.231883	-0.681865	0.612921
O67	O	0.018117	-0.431865	0.862921
O68	O	0.268117	-0.181865	1.112921
C69	C	-0.326024	-0.802244	0.325982
C70	C	-0.076024	-0.552244	0.575982
C71	C	0.173976	-0.302244	0.825982
C72	C	0.423976	-0.052244	1.075982
C73	C	-0.326029	-0.727013	0.325989
C74	C	-0.076029	-0.477013	0.575989
C75	C	0.173971	-0.227013	0.825989
C76	C	0.423971	0.022987	1.075989
C77	C	-0.279192	-0.695323	0.372966
C78	C	-0.029192	-0.445323	0.622966
C79	C	0.220808	-0.195323	0.872966
C80	C	0.470808	0.054677	1.122966
C81	C	-0.279194	-0.624635	0.372967
C82	C	-0.029194	-0.374635	0.622967
C83	C	0.220806	-0.124635	0.872967
C84	C	0.470806	0.125365	1.122967
C85	C	-0.326038	-0.585637	0.325993
C86	C	-0.076038	-0.335637	0.575993
C87	C	0.173962	-0.085637	0.825993
C88	C	0.423962	0.164363	1.075993
C89	C	-0.372877	-0.617331	0.279011
C90	C	-0.122877	-0.367331	0.529011
C91	C	0.127123	-0.117331	0.779011
C92	C	0.377123	0.132669	1.029011
C93	C	-0.372871	-0.688018	0.279007
C94	C	-0.122871	-0.438018	0.529007
C95	C	0.127129	-0.188018	0.779007
C96	C	0.377129	0.061982	1.029007
C97	C	-0.372902	-0.332257	0.279025
C98	C	-0.122902	-0.082257	0.529025
C99	C	0.127098	0.167743	0.779025
C100	C	0.377098	0.417743	1.029025
C101	C	-0.372906	-0.261565	0.279033
C102	C	-0.122906	-0.011565	0.529033
C103	C	0.127094	0.238435	0.779033
C104	C	0.377094	0.488435	1.029033
C105	C	-0.279225	-0.268874	0.372984
C106	C	-0.029225	-0.018874	0.622984
C107	C	0.220775	0.231126	0.872984
C108	C	0.470775	0.481126	1.122984
C109	C	-0.279219	-0.339561	0.372980
C110	C	-0.029219	-0.089561	0.622980
C111	C	0.220781	0.160439	0.872980
C112	C	0.470781	0.410439	1.122980
C113	C	-0.326056	-0.371249	0.325996
C114	C	-0.076056	-0.121249	0.575996
C115	C	0.173944	0.128751	0.825996
C116	C	0.423944	0.378751	1.075996
C117	C	-0.326052	-0.447897	0.325994
C118	C	-0.076052	-0.197897	0.575994
C119	C	0.173948	0.052103	0.825994
C120	C	0.423948	0.302103	1.075994
C121	C	-0.326045	-0.508990	0.325997
C122	C	-0.076045	-0.258990	0.575997
C123	C	0.173955	-0.008990	0.825997
C124	C	0.423955	0.241010	1.075997
C125	C	-0.509219	-0.970665	0.318610
C126	C	-0.259219	-0.720665	0.568610
C127	C	-0.009219	-0.470665	0.818610
C128	C	0.240781	-0.220665	1.068610
C129	C	-0.587579	-0.967547	0.315471
C130	C	-0.337579	-0.717547	0.565471
C131	C	-0.087579	-0.467547	0.815471
C132	C	0.162421	-0.217547	1.065471
C133	C	-0.622515	-1.011157	0.359123
C134	C	-0.372515	-0.761157	0.609123
C135	C	-0.122515	-0.511157	0.859123
C136	C	0.127485	-0.261157	1.109123
C137	C	-0.696142	-1.008225	0.356175
C138	C	-0.446142	-0.758225	0.606175
C139	C	-0.196142	-0.508225	0.856175
C140	C	0.053858	-0.258225	1.106175
C141	C	-0.734833	-0.961686	0.309571
C142	C	-0.484833	-0.711686	0.559571
C143	C	-0.234833	-0.461686	0.809571
C144	C	0.015167	-0.211686	1.059571
C145	C	-0.699893	-0.918071	0.265918
C146	C	-0.449893	-0.668071	0.515918
C147	C	-0.199893	-0.418071	0.765918
C148	C	0.050107	-0.168071	1.015918
C149	C	-0.626266	-0.921001	0.268870
C150	C	-0.376266	-0.671001	0.518870
C151	C	-0.126266	-0.421001	0.768870
C152	C	0.123734	-0.171001	1.018870
C153	C	-0.955234	-0.948088	0.295906
C154	C	-0.705234	-0.698088	0.545906
C155	C	-0.455234	-0.448088	0.795906
C156	C	-0.205234	-0.198088	1.045906
C157	C	-1.028866	-0.945163	0.292956
C158	C	-0.778866	-0.695163	0.542956
C159	C	-0.528866	-0.445163	0.792956
C160	C	-0.278866	-0.195163	1.042956
C161	C	-1.025110	-1.035316	0.383214
C162	C	-0.775110	-0.785316	0.633214
C163	C	-0.525110	-0.535316	0.883214
C164	C	-0.275110	-0.285316	1.133214
C165	C	-0.951483	-1.038244	0.386159
C166	C	-0.701483	-0.788244	0.636159
C167	C	-0.451483	-0.538244	0.886159
C168	C	-0.201483	-0.288244	1.136159
C169	C	-0.916548	-0.994627	0.342509
C170	C	-0.666548	-0.744627	0.592509
C171	C	-0.416548	-0.494627	0.842509
C172	C	-0.166548	-0.244627	1.092509
N173	N	-0.810093	-0.958689	0.306555
N174	N	-0.560093	-0.708689	0.556555
N175	N	-0.310093	-0.458689	0.806555
N176	N	-0.060093	-0.208689	1.056555
N177	N	-0.841290	-0.997621	0.345529
N178	N	-0.591290	-0.747621	0.595529
N179	N	-0.341290	-0.497621	0.845529
N180	N	-0.091290	-0.247621	1.095529
C181	C	-0.142162	-0.985584	0.333439
C182	C	0.107838	-0.735584	0.583439
C183	C	0.357838	-0.485584	0.833439
C184	C	0.607838	-0.235584	1.083439
C185	C	-0.063801	-0.988772	0.336608
C186	C	0.186199	-0.738772	0.586608
C187	C	0.436199	-0.488772	0.836608
C188	C	0.686199	-0.238772	1.086608
C189	C	-0.318616	-0.985520	0.509880
C190	C	-0.068616	-0.735520	0.759880
C191	C	0.181384	-0.485520	1.009880
C192	C	0.431384	-0.235520	1.259880
C193	C	-0.315448	-0.988683	0.588238
C194	C	-0.065448	-0.738683	0.838238
C195	C	0.184552	-0.488683	1.088238
C196	C	0.434552	-0.238683	1.338238
C197	C	-0.326069	-0.154643	0.326017
C198	C	-0.076069	0.095357	0.576017
C199	C	0.173931	0.345357	0.826017
C200	C	0.423931	0.595357	1.076017
C201	C	-0.326065	-0.229875	0.326008
C202	C	-0.076065	0.020125	0.576008
C203	C	0.173935	0.270125	0.826008
C204	C	0.423935	0.520125	1.076008
C205	C	-0.333402	-0.970750	0.142842
C206	C	-0.083402	-0.720750	0.392842
C207	C	0.166598	-0.470750	0.642842
C208	C	0.416598	-0.220750	0.892842
C209	C	-0.336371	-0.967727	0.064492
C210	C	-0.086371	-0.717727	0.314492
C211	C	0.163629	-0.467727	0.564492
C212	C	0.413629	-0.217727	0.814492
C213	C	-0.292781	-1.011360	1.029506
C214	C	-0.042781	-0.761360	1.279506
C215	C	0.207219	-0.511360	1.529506
C216	C	0.457219	-0.261360	1.779506
C217	C	-0.295761	-1.008384	0.955880
C218	C	-0.045761	-0.758384	1.205880
C219	C	0.204239	-0.508384	1.455880
C220	C	0.454239	-0.258384	1.705880
C221	C	-0.342327	-0.961773	0.917242
C222	C	-0.092327	-0.711773	1.167242
C223	C	0.157673	-0.461773	1.417242
C224	C	0.407673	-0.211773	1.667242
C225	C	-0.385921	-0.918138	0.952234
C226	C	-0.135921	-0.668138	1.202234
C227	C	0.114079	-0.418138	1.452234
C228	C	0.364079	-0.168138	1.702234
C229	C	-0.382945	-0.921117	1.025858
C230	C	-0.132945	-0.671117	1.275858
C231	C	0.117055	-0.421117	1.525858
C232	C	0.367055	-0.171117	1.775858
C233	C	-0.356066	-0.948027	0.696853
C234	C	-0.106066	-0.698027	0.946853
C235	C	0.143934	-0.448027	1.196853
C236	C	0.393934	-0.198027	1.446853
C237	C	-0.359038	-0.945050	0.623224
C238	C	-0.109038	-0.695050	0.873224
C239	C	0.140962	-0.445050	1.123224
C240	C	0.390962	-0.195050	1.373224
C241	C	-0.268878	-1.035297	0.626876
C242	C	-0.018878	-0.785297	0.876876
C243	C	0.231122	-0.535297	1.126876
C244	C	0.481122	-0.285297	1.376876
C245	C	-0.265902	-1.038269	0.700501
C246	C	-0.015902	-0.788269	0.950501
C247	C	0.234098	-0.538269	1.200501
C248	C	0.484098	-0.288269	1.450501
C249	C	-0.309499	-0.994638	0.735486
C250	C	-0.059499	-0.744638	0.985486
C251	C	0.190501	-0.494638	1.235486
C252	C	0.440501	-0.244638	1.485486
N253	N	-0.345372	-0.958729	0.841985
N254	N	-0.095372	-0.708729	1.091985
N255	N	0.154628	-0.458729	1.341985
N256	N	0.404628	-0.208729	1.591985
N257	N	-0.306457	-0.997685	0.810742
N258	N	-0.056457	-0.747685	1.060742
N259	N	0.193543	-0.497685	1.310742
N260	N	0.443543	-0.247685	1.560742
H261	H	-0.241076	-0.371310	0.411233
H262	H	0.008924	-0.121310	0.661233
H263	H	0.258924	0.128690	0.911233
H264	H	0.508924	0.378690	1.161233
F265	F	-0.229375	-0.235143	0.422988
F266	F	0.020625	0.014857	0.672988
F267	F	0.270625	0.264857	0.922988
F268	F	0.520625	0.514857	1.172988
F269	F	-0.581343	-1.060694	0.408721
F270	F	-0.331343	-0.810694	0.658721
F271	F	-0.081343	-0.560694	0.908721
F272	F	0.168657	-0.310694	1.158721
F273	F	-0.422765	-0.220062	0.229034
F274	F	-0.172765	0.029938	0.479034
F275	F	0.077235	0.279938	0.729034
F276	F	0.327235	0.529938	0.979034
H277	H	-0.260267	-1.043916	0.927397
H278	H	-0.010267	-0.793916	1.177397
H279	H	0.239733	-0.543916	1.427397
H280	H	0.489733	-0.293916	1.677397
H281	H	-1.060366	-0.907262	0.255005
H282	H	-0.810366	-0.657262	0.505005
H283	H	-0.560366	-0.407262	0.755005
H284	H	-0.310366	-0.157262	1.005005
H285	H	-0.919982	-1.076139	0.424107
H286	H	-0.669982	-0.826139	0.674107
H287	H	-0.419982	-0.576139	0.924107
H288	H	-0.169982	-0.326139	1.174107
H289	H	-0.926796	-0.912575	0.260363
H290	H	-0.676796	-0.662575	0.510363
H291	H	-0.426796	-0.412575	0.760363
H292	H	-0.176796	-0.162575	1.010363
F293	F	-0.589086	-0.874585	0.222411
F294	F	-0.339086	-0.624585	0.472411
F295	F	-0.089086	-0.374585	0.722411
F296	F	0.160914	-0.124585	0.972411
H297	H	-0.391565	-0.912498	0.725329
H298	H	-0.141565	-0.662498	0.975329
H299	H	0.108435	-0.412498	1.225329
H300	H	0.358435	-0.162498	1.475329
H301	H	-0.227986	-1.076228	0.731955
H302	H	0.022014	-0.826228	0.981955
H303	H	0.272014	-0.576228	1.231955
H304	H	0.522014	-0.326228	1.481955
F305	F	-0.741072	-0.868535	0.216325
F306	F	-0.491072	-0.618535	0.466325
F307	F	-0.241072	-0.368535	0.716325
F308	F	0.008928	-0.118535	0.966325
H309	H	-0.241048	-0.727070	0.411219
H310	H	0.008952	-0.477070	0.661219
H311	H	0.258952	-0.227070	0.911219
H312	H	0.508952	0.022930	1.161219
F313	F	-0.222478	-1.081727	0.589637
F314	F	0.027522	-0.831727	0.839637
F315	F	0.277522	-0.581727	1.089637
F316	F	0.527522	-0.331727	1.339637
H317	H	-0.254858	-1.049312	1.060959
H318	H	-0.004858	-0.799312	1.310959
H319	H	0.245142	-0.549312	1.560959
H320	H	0.495142	-0.299312	1.810959
H321	H	-0.724584	-1.043741	0.391715
H322	H	-0.474584	-0.793741	0.641715
H323	H	-0.224584	-0.543741	0.891715
H324	H	0.025416	-0.293741	1.141715
F325	F	-1.062295	-1.081730	0.429669
F326	F	-0.812295	-0.831730	0.679669
F327	F	-0.562295	-0.581730	0.929669
F328	F	-0.312295	-0.331730	1.179669
F329	F	-0.429340	-0.874679	1.063093
F330	F	-0.179340	-0.624679	1.313093
F331	F	0.070660	-0.374679	1.563093
F332	F	0.320660	-0.124679	1.813093
F333	F	-0.422739	-0.365973	0.229008
F334	F	-0.172739	-0.115973	0.479008
F335	F	0.077261	0.134027	0.729008
F336	F	0.327261	0.384027	0.979008
F337	F	-0.408602	-0.895438	0.582104
F338	F	-0.158602	-0.645438	0.832104
F339	F	0.091398	-0.395438	1.082104
F340	F	0.341398	-0.145438	1.332104
F341	F	-0.435482	-0.868532	0.911111
F342	F	-0.185482	-0.618532	1.161111
F343	F	0.064518	-0.368532	1.411111
F344	F	0.314518	-0.118532	1.661111
F345	F	-0.422729	-0.575825	0.229015
F346	F	-0.172729	-0.325825	0.479015
F347	F	0.077271	-0.075825	0.729015
F348	F	0.327271	0.174175	0.979015
H349	H	-0.241055	-0.598836	0.411222
H350	H	0.008945	-0.348836	0.661222
H351	H	0.258945	-0.098836	0.911222
H352	H	0.508945	0.151164	1.161222
F353	F	-0.422723	-0.721744	0.229008
F354	F	-0.172723	-0.471744	0.479008
F355	F	0.077277	-0.221744	0.729008
F356	F	0.327277	0.028256	0.979008
