data_functionalizedCrystal
_audit_creation_method	'MofGen! by Chris Wilmer'
_symmetry_space_group_name_H-M	'P1'
_symmetry_Int_Tables_number	1
_symmetry_cell_setting	triclinic
loop_
_symmetry_equiv_pos_as_xyz
  x,y,z
_cell_length_a	17.038272
_cell_length_b	16.098538
_cell_length_c	17.038272
_cell_angle_alpha	92.920305
_cell_angle_beta	88.888444
_cell_angle_gamma	92.930266
loop_
_atom_site_label
_atom_site_type_symbol
_atom_site_fract_x
_atom_site_fract_y
_atom_site_fract_z
O1	O	1.052033	0.069152	-0.167266
O2	O	0.824222	0.069177	-0.164557
O3	O	0.936773	0.069158	-0.052006
O4	O	0.939482	0.069171	-0.279817
O5	O	0.930197	-0.069354	-0.058553
O6	O	0.817646	-0.069335	-0.171104
O7	O	1.045456	-0.069359	-0.173813
Zn8	Zn	0.930507	-0.091339	-0.173498
Zn9	Zn	0.939172	0.091156	-0.164872
O10	O	0.932905	-0.069341	-0.286364
C11	C	0.791641	-0.000076	-0.165367
C12	C	0.704358	-0.000067	-0.158019
N13	N	0.924599	-0.215887	-0.179385
C14	C	0.658749	-0.000064	-0.225482
C15	C	0.576737	-0.000075	-0.218574
C16	C	0.540335	-0.000085	-0.144201
C17	C	0.585950	-0.000090	-0.076733
C18	C	0.667961	-0.000084	-0.083642
C19	C	0.292946	-0.000108	-0.119792
C20	C	0.210929	-0.000112	-0.112887
C21	C	0.201722	-0.000098	-0.254729
C22	C	0.283734	-0.000088	-0.261632
C23	C	0.329342	-0.000098	-0.194164
C24	C	0.456505	-0.000094	-0.137138
C25	C	0.413170	-0.000094	-0.201228
C26	C	0.972390	-0.259480	-0.131633
C27	C	0.968265	-0.346668	-0.135759
C28	C	0.916352	-0.390262	-0.187642
C29	C	0.868556	-0.346663	-0.235395
C30	C	0.872678	-0.259476	-0.231265
C31	C	0.901410	-0.653510	-0.202602
C32	C	0.897294	-0.740702	-0.206731
C33	C	0.997003	-0.740702	-0.107093
C34	C	1.001123	-0.653513	-0.102971
C35	C	0.953324	-0.609922	-0.150721
C36	C	0.912136	-0.479383	-0.191862
C37	C	0.957536	-0.520803	-0.146496
C38	C	1.078037	-0.000105	-0.173002
C39	C	1.165320	-0.000108	-0.180351
C40	C	0.931022	-0.000097	-0.025987
C41	C	0.923674	-0.000096	0.061297
N42	N	0.945085	0.215705	-0.158979
C43	C	0.938656	-0.000083	-0.312383
C44	C	0.946005	-0.000079	-0.399666
C45	C	0.991137	-0.000104	0.106906
C46	C	0.984229	-0.000096	0.188918
C47	C	0.909856	-0.000085	0.225320
C48	C	0.842388	-0.000074	0.179705
C49	C	0.849297	-0.000077	0.097694
C50	C	0.885446	-0.000071	0.472708
C51	C	0.878541	-0.000071	0.554725
C52	C	1.020383	-0.000091	0.563932
C53	C	1.027286	-0.000098	0.481920
C54	C	0.959818	-0.000083	0.436312
C55	C	0.902792	-0.000079	0.309149
C56	C	0.966882	-0.000084	0.352485
H57	H	0.539605	-0.000072	-0.273510
N58	N	1.013512	-0.473777	-0.090532
H59	H	1.051982	-0.437588	-0.121162
H60	H	1.043114	-0.514665	-0.060912
N61	N	0.762173	-0.000066	0.218969
H62	H	0.729933	-0.051408	0.200257
H63	H	0.734873	0.051318	0.205098
N64	N	0.546684	-0.000110	0.003481
H65	H	0.515294	0.051234	0.011939
H66	H	0.588065	-0.000146	0.045123
H67	H	0.842238	-0.000072	0.338796
H68	H	0.181294	-0.000118	-0.052321
H69	H	0.688381	-0.000056	-0.286045
H70	H	0.869870	-0.514884	-0.234107
N71	N	1.048549	-0.787716	-0.055587
H72	H	1.105604	-0.772533	-0.067653
H73	H	1.037997	-0.849548	-0.066097
H74	H	1.051699	-0.000118	0.077274
N75	N	1.056992	-0.000109	0.238111
H76	H	1.105154	-0.000124	0.202606
H77	H	1.054769	-0.051457	0.269914
N78	N	0.841306	-0.787733	-0.262692
H79	H	0.854770	-0.772548	-0.318318
H80	H	0.785703	-0.772564	-0.249123
H81	H	0.705095	-0.000086	-0.028706
H82	H	1.027437	-0.000074	0.322844
N83	N	0.849854	-0.606499	-0.254098
H84	H	0.816344	-0.647348	-0.287591
H85	H	0.883929	-0.570309	-0.289122
N86	N	1.107508	-0.000108	0.442672
H87	H	1.139746	0.051236	0.461385
H88	H	1.101591	-0.000142	0.383805
H89	H	0.330070	-0.000117	-0.064854
N90	N	1.093149	-0.000108	0.613122
H91	H	1.077490	-0.000105	0.670599
H92	H	1.127765	0.051235	0.603222
N93	N	1.019841	-0.393675	-0.084275
H94	H	1.007834	-0.378514	-0.027206
H95	H	1.076865	-0.378453	-0.096437
H96	H	0.830508	-0.000059	0.435584
N97	N	0.776531	-0.000091	0.048500
H98	H	0.792193	-0.000097	-0.008977
H99	H	0.746784	0.051257	0.063241
H100	H	0.817975	-0.000075	0.584359
H101	H	0.426857	-0.000125	-0.076584
H102	H	0.826283	-0.382162	-0.277636
N103	N	0.821128	-0.212454	-0.282763
H104	H	0.787616	-0.253298	-0.316258
H105	H	0.855207	-0.176266	-0.317786
H106	H	1.043394	-0.618021	-0.060724
N107	N	0.322996	-0.000062	-0.341847
H108	H	0.281657	-0.000058	-0.383538
H109	H	0.354397	-0.051402	-0.350241
H110	H	0.442811	-0.000091	-0.261782
N111	N	0.152540	-0.000098	-0.327501
H112	H	0.120736	0.051245	-0.325377
H113	H	0.115927	-0.051482	-0.330186
H114	H	1.014666	-0.223992	-0.089389
