data_functionalizedCrystal
_audit_creation_method	'MofGen! by Chris Wilmer'
_symmetry_space_group_name_H-M	'P1'
_symmetry_Int_Tables_number	1
_symmetry_cell_setting	triclinic
loop_
_symmetry_equiv_pos_as_xyz
  x,y,z
_cell_length_a	15.625950
_cell_length_b	14.750779
_cell_length_c	11.026607
_cell_angle_alpha	105.479780
_cell_angle_beta	95.812270
_cell_angle_gamma	59.909492
loop_
_atom_site_label
_atom_site_type_symbol
_atom_site_fract_x
_atom_site_fract_y
_atom_site_fract_z
O1	O	1.292716	-0.370012	0.036669
O2	O	1.014797	-0.273301	0.087390
O3	O	1.130723	-0.313645	-0.112022
O4	O	1.176789	-0.329668	0.236081
O5	O	1.163496	-0.484700	-0.168387
O6	O	1.047569	-0.444356	0.031025
O7	O	1.325489	-0.541067	-0.019697
Zn8	Zn	1.191732	-0.519870	-0.003285
Zn9	Zn	1.148553	-0.294497	0.070979
O10	O	1.209562	-0.500723	0.179716
C11	C	0.995050	-0.346255	0.062492
C12	C	0.887383	-0.308789	0.072265
N13	N	1.221207	-0.673684	-0.053970
C14	C	0.622495	-0.651656	-0.049113
C15	C	0.521318	-0.616404	-0.039890
C16	C	0.485641	-0.429944	0.021553
C17	C	0.586817	-0.465181	0.012342
C18	C	0.655237	-0.576038	-0.022993
C19	C	0.619559	-0.389562	0.038461
C20	C	0.720726	-0.424796	0.029244
C21	C	0.789151	-0.535649	-0.006092
C22	C	0.756404	-0.611272	-0.032210
C23	C	0.551138	-0.278705	0.073787
C24	C	0.583880	-0.203087	0.099907
C25	C	0.685049	-0.238321	0.090699
C26	C	0.753474	-0.349173	0.055362
C27	C	0.717797	-0.162697	0.116816
C28	C	0.818963	-0.197931	0.107599
C29	C	0.854641	-0.384407	0.046145
C30	C	1.036754	-0.961310	0.263157
C31	C	1.057417	-1.069000	0.227647
C32	C	1.160108	-1.104701	0.051124
C33	C	1.139450	-0.997010	0.086616
C34	C	1.077773	-0.925323	0.192634
C35	C	1.180469	-0.961023	0.016093
C36	C	1.159817	-0.853343	0.051585
C37	C	1.098145	-0.781651	0.157601
C38	C	1.057121	-0.817643	0.228127
C39	C	1.242151	-1.032714	-0.089920
C40	C	1.283170	-0.996727	-0.160443
C41	C	1.262512	-0.889043	-0.124956
C42	C	1.200841	-0.817351	-0.018940
C43	C	1.303536	-0.853051	-0.195481
C44	C	1.282884	-0.745371	-0.159988
C45	C	1.180188	-0.709671	0.016553
C46	C	1.345235	-0.468111	0.005203
C47	C	1.452900	-0.505570	-0.004568
C48	C	1.138611	-0.396214	-0.184455
C49	C	1.113275	-0.387394	-0.316305
N50	N	1.119084	-0.140686	0.121654
C51	C	1.183228	-0.411735	-0.398015
C52	C	1.157045	-0.402620	-0.534289
C53	C	1.201674	-0.418152	0.252149
C54	C	1.227008	-0.426965	0.384001
H55	H	0.871527	-0.564334	-0.013597
C56	C	1.051400	-0.365902	-0.575772
C57	C	1.046438	-0.364195	-0.702699
C58	C	0.949140	-0.330391	-0.740962
H59	H	1.008618	-0.295357	-0.526074
H60	H	1.031551	-0.414693	-0.565343
H61	H	1.066275	-0.315406	-0.713117
H62	H	1.089198	-0.434729	-0.752426
H63	H	0.929291	-0.379181	-0.730533
H64	H	0.906366	-0.259848	-0.691256
H65	H	0.945762	-0.329237	-0.827088
C66	C	1.007558	-0.350752	-0.357416
C67	C	0.978569	-0.422790	-0.341778
C68	C	0.881182	-0.389060	-0.379616
H69	H	1.003881	-0.349518	-0.443525
H70	H	0.964831	-0.280239	-0.307559
H71	H	1.021284	-0.493284	-0.391636
H72	H	0.982222	-0.424032	-0.255679
H73	H	0.838455	-0.318547	-0.329760
H74	H	0.877515	-0.387827	-0.465724
H75	H	0.861497	-0.437926	-0.369001
C76	C	1.332698	-0.463548	-0.574780
C77	C	1.361667	-0.391480	-0.590365
C78	C	1.459015	-0.425136	-0.552392
H79	H	1.375493	-0.534049	-0.624563
H80	H	1.336282	-0.464745	-0.488650
H81	H	1.358091	-0.390294	-0.676480
H82	H	1.318899	-0.320975	-0.540582
H83	H	1.462599	-0.426333	-0.466262
H84	H	1.501801	-0.495638	-0.602179
H85	H	1.478680	-0.376239	-0.562951
C86	C	0.928875	-0.504775	0.007531
C87	C	0.907757	-0.549921	-0.112289
C88	C	0.976128	-0.660791	-0.147909
H89	H	0.924634	-0.539168	0.066454
H90	H	0.993826	-0.514966	0.005702
H91	H	0.842823	-0.539739	-0.110452
H92	H	0.912005	-0.515560	-0.171240
H93	H	1.041079	-0.670982	-0.149738
H94	H	0.971882	-0.695173	-0.088977
H95	H	0.961815	-0.691435	-0.229214
H96	H	0.429921	-0.339683	0.050317
H97	H	1.353762	-0.911434	-0.281795
H98	H	0.528159	-0.112826	0.128671
H99	H	0.812117	-0.701543	-0.060964
H100	H	0.494668	-0.677991	-0.061135
H101	H	0.678208	-0.741928	-0.077867
H102	H	1.316287	-0.716072	-0.217415
C103	C	0.441322	-0.240495	0.084018
C104	C	0.424831	-0.282130	0.173869
C105	C	0.323679	-0.246935	0.183337
H106	H	0.419968	-0.265220	0.004679
H107	H	0.405245	-0.163645	0.108856
H108	H	0.460895	-0.358965	0.149025
H109	H	0.446162	-0.257410	0.253223
H110	H	0.287602	-0.170084	0.208175
H111	H	0.302333	-0.271661	0.103993
H112	H	0.312475	-0.275170	0.244308
H113	H	0.662074	-0.072437	0.145573
H114	H	1.081334	-0.693973	0.186501
H115	H	0.845622	-0.136355	0.128875
H116	H	1.262503	-0.439327	-0.367083
H117	H	1.129956	-0.651296	0.102876
H118	H	1.006889	-0.759268	0.314450
C119	C	0.969803	-0.883646	0.378338
C120	C	0.938311	-0.938210	0.432524
C121	C	0.876650	-0.866706	0.538635
H122	H	0.913873	-0.824984	0.354048
H123	H	1.005279	-0.856803	0.437868
H124	H	0.902835	-0.965036	0.373006
H125	H	0.994218	-0.996866	0.456843
H126	H	0.912126	-0.839863	0.598165
H127	H	0.820726	-0.808047	0.514333
H128	H	0.855282	-0.903719	0.575420
H129	H	1.024010	-1.098293	0.285086
H130	H	1.210329	-1.163081	-0.035194
C131	C	1.264736	-1.149681	-0.128624
C132	C	1.327555	-1.204769	-0.236536
C133	C	1.348392	-1.312523	-0.272215
H134	H	1.204848	-1.151713	-0.146111
H135	H	1.296165	-1.183384	-0.062138
H136	H	1.296125	-1.171075	-0.303008
H137	H	1.387455	-1.202767	-0.219079
H138	H	1.379822	-1.346225	-0.205729
H139	H	1.288500	-1.314544	-0.289696
H140	H	1.391024	-1.349916	-0.345429
C141	C	1.350014	-1.074403	-0.275695
C142	C	1.308583	-1.035524	-0.382196
C143	C	1.370132	-1.107041	-0.488392
H144	H	1.356478	-1.143715	-0.286911
H145	H	1.413407	-1.079962	-0.264278
H146	H	1.245208	-1.029978	-0.393612
H147	H	1.302122	-0.966221	-0.371022
H148	H	1.433525	-1.112600	-0.476975
H149	H	1.376592	-1.176349	-0.499595
H150	H	1.342035	-1.080667	-0.560663
