data_functionalizedCrystal
_audit_creation_method	'MofGen! by Chris Wilmer'
_symmetry_space_group_name_H-M	'P1'
_symmetry_Int_Tables_number	1
_symmetry_cell_setting	triclinic
loop_
_symmetry_equiv_pos_as_xyz
  x,y,z
_cell_length_a	14.908783
_cell_length_b	12.759400
_cell_length_c	14.908308
_cell_angle_alpha	93.270344
_cell_angle_beta	89.788727
_cell_angle_gamma	93.304272
loop_
_atom_site_label
_atom_site_type_symbol
_atom_site_fract_x
_atom_site_fract_y
_atom_site_fract_z
Zn1	Zn	1.345353	-0.367466	-0.587851
Zn2	Zn	1.353951	-0.532490	-0.437501
Zn3	Zn	1.203666	-0.366329	-0.428823
Zn4	Zn	1.194979	-0.552608	-0.579124
O5	O	1.274488	-0.454723	-0.508325
O6	O	1.472321	-0.381413	-0.575191
O7	O	1.341250	-0.501553	-0.310526
O8	O	1.222499	-0.219457	-0.449938
O9	O	1.478638	-0.502656	-0.464730
O10	O	1.326596	-0.220293	-0.566776
O11	O	1.230836	-0.379475	-0.304150
O12	O	1.076687	-0.398983	-0.441476
O13	O	1.207692	-0.536944	-0.706105
O14	O	1.070304	-0.535842	-0.551902
O15	O	1.318172	-0.400920	-0.712517
O16	O	1.332826	-0.682181	-0.456267
O17	O	1.216029	-0.696962	-0.560317
C18	C	1.040870	-0.469473	-0.494801
C19	C	0.940927	-0.475809	-0.489036
C20	C	0.746532	-0.361662	-0.593404
C21	C	0.652626	-0.367613	-0.587991
C22	C	0.659206	-0.493654	-0.472793
C23	C	0.753113	-0.487704	-0.478206
C24	C	0.796772	-0.421707	-0.538514
C25	C	0.890680	-0.415763	-0.543932
C26	C	0.897259	-0.541798	-0.428730
C27	C	0.803353	-0.547748	-0.423316
C28	C	1.274441	-0.727693	-0.508308
C29	C	1.274502	-0.844467	-0.508335
C30	C	1.328674	-0.899689	-0.569218
C31	C	1.328714	-1.009412	-0.569243
C32	C	1.220409	-1.008680	-0.447493
C33	C	1.220365	-0.898960	-0.447474
C34	C	1.382811	-0.845196	-0.630080
C35	C	1.436988	-0.900419	-0.690967
C36	C	1.437028	-1.010142	-0.690991
C37	C	1.382892	-1.064642	-0.630128
C38	C	1.509017	-0.439917	-0.521902
C39	C	1.608959	-0.433608	-0.527688
C40	C	1.261004	-0.471303	-0.742848
C41	C	1.255258	-0.478368	-0.842788
C42	C	1.274557	-0.180688	-0.508363
C43	C	1.274587	-0.063910	-0.508379
C44	C	1.359501	-0.349979	-1.037264
C45	C	1.354105	-0.356614	-1.131167
C46	C	1.239066	-0.498267	-1.124498
C47	C	1.244462	-0.491632	-1.030595
C48	C	1.304682	-0.417487	-0.986982
C49	C	1.310082	-0.410858	-0.893078
C50	C	1.195040	-0.552505	-0.886410
C51	C	1.189644	-0.559140	-0.980313
C52	C	1.287970	-0.438129	-0.274717
C53	C	1.293890	-0.430756	-0.174787
H54	H	0.782080	-0.307930	-0.642513
C55	C	0.819290	-0.671741	-0.309996
C56	C	0.755358	-0.620293	-0.357030
H57	H	0.789660	-0.716525	-0.269072
H58	H	0.853670	-0.712436	-0.351230
H59	H	0.857889	-0.621151	-0.277777
H60	H	0.716763	-0.670883	-0.389254
H61	H	0.720963	-0.579595	-0.315791
H62	H	1.150405	-0.607477	-0.845460
H63	H	1.190038	-0.558632	-1.160024
C64	C	1.485020	-0.732548	-0.744987
C65	C	1.496491	-0.840516	-0.757866
H66	H	1.521760	-0.695570	-0.786286
H67	H	1.423843	-0.719360	-0.754600
H68	H	1.501695	-0.709488	-0.685342
H69	H	1.479810	-0.863578	-0.817509
H70	H	1.557682	-0.853711	-0.748260
C71	C	1.544081	-0.999838	-0.811328
C72	C	1.496575	-1.070844	-0.757917
H73	H	1.580850	-1.037314	-0.852640
H74	H	1.502888	-0.961971	-0.843412
H75	H	1.580737	-0.952085	-0.774151
H76	H	1.459915	-1.118593	-0.795093
H77	H	1.537774	-1.108729	-0.725830
C78	C	1.296070	-1.228896	-0.648064
C79	C	1.382927	-1.185253	-0.630157
H80	H	1.296096	-1.303354	-0.648085
H81	H	1.256074	-1.203803	-0.603091
H82	H	1.277142	-1.209140	-0.705168
H83	H	1.401853	-1.205003	-0.573050
H84	H	1.422936	-1.210356	-0.675133
C85	C	1.472674	-0.210633	-1.053285
C86	C	1.425694	-0.268485	-0.989318
H87	H	1.513535	-0.160317	-1.023684
H88	H	1.504951	-0.256824	-1.091892
H89	H	1.431395	-0.175508	-1.087650
H90	H	1.466972	-0.303616	-0.954957
H91	H	1.393414	-0.222287	-0.950695
H92	H	0.926225	-0.362026	-0.593039
H93	H	1.382786	-0.755854	-0.630065
C94	C	0.614998	-0.329309	-0.738652
C95	C	0.597398	-0.301618	-0.648331
H96	H	0.580898	-0.288567	-0.775903
H97	H	0.677166	-0.316315	-0.750499
H98	H	0.598850	-0.401823	-0.750812
H99	H	0.613552	-0.229104	-0.636170
H100	H	0.535216	-0.314603	-0.636479
C101	C	0.518172	-0.558718	-0.413340
C102	C	0.611205	-0.566185	-0.406500
H103	H	0.488540	-0.603500	-0.372415
H104	H	0.503552	-0.488160	-0.399397
H105	H	0.499330	-0.579448	-0.472847
H106	H	0.630049	-0.545447	-0.346995
H107	H	0.625832	-0.636758	-0.420437
C108	C	1.172397	-1.176551	-0.393461
C109	C	1.160914	-1.068584	-0.380589
H110	H	1.135671	-1.213529	-0.352150
H111	H	1.155721	-1.199620	-0.453094
H112	H	1.233587	-1.189725	-0.383852
H113	H	1.099725	-1.055409	-0.390205
H114	H	1.177584	-1.045508	-0.320942
H115	H	1.176252	-0.853998	-0.397898
C116	C	1.328664	-0.261285	-0.788214
C117	C	1.376269	-0.329354	-0.845134
H118	H	1.369526	-0.210969	-0.758615
H119	H	1.287396	-0.226171	-0.822587
H120	H	1.296796	-0.300553	-0.744829
H121	H	1.408132	-0.290087	-0.888524
H122	H	1.417553	-0.364471	-0.810760
C123	C	1.044131	-0.588651	-0.385876
C124	C	0.952485	-0.607806	-0.368390
H125	H	1.078223	-0.629400	-0.348624
H126	H	1.056053	-0.607425	-0.447149
H127	H	1.060270	-0.516138	-0.373699
H128	H	0.936344	-0.680318	-0.380574
H129	H	0.940558	-0.589038	-0.307103
C130	C	1.360556	-0.221957	-1.237497
C131	C	1.414362	-0.282405	-1.186436
H132	H	1.397759	-0.176136	-1.271612
H133	H	1.323934	-0.267062	-1.276911
H134	H	1.323494	-0.181664	-1.198591
H135	H	1.451419	-0.322704	-1.225342
H136	H	1.451000	-0.237295	-1.147017
H137	H	1.140613	-0.619505	-1.015835
