data_functionalizedCrystal
_audit_creation_method	'MofGen! by Chris Wilmer'
_symmetry_space_group_name_H-M	'P1'
_symmetry_Int_Tables_number	1
_symmetry_cell_setting	triclinic
loop_
_symmetry_equiv_pos_as_xyz
  x,y,z
_cell_length_a	17.038278
_cell_length_b	14.044220
_cell_length_c	13.101039
_cell_angle_alpha	86.332523
_cell_angle_beta	86.398827
_cell_angle_gamma	87.850311
loop_
_atom_site_label
_atom_site_type_symbol
_atom_site_fract_x
_atom_site_fract_y
_atom_site_fract_z
O1	O	1.055806	-0.202075	-0.085228
O2	O	0.827946	-0.198791	-0.085228
O3	O	0.938456	-0.062173	-0.085218
O4	O	0.945297	-0.338693	-0.085238
O5	O	0.930528	-0.071993	0.085212
O6	O	0.820018	-0.208610	0.085201
O7	O	1.047879	-0.211894	0.085202
Zn8	Zn	0.932690	-0.211811	0.112261
Zn9	Zn	0.943135	-0.198874	-0.112287
O10	O	0.937369	-0.348512	0.085191
C11	C	0.794645	-0.200711	-0.000013
C12	C	0.707228	-0.191793	-0.000013
C13	C	0.212983	-0.137004	-0.000013
C14	C	0.295120	-0.145392	-0.000007
C15	C	0.332870	-0.235667	-0.000018
C16	C	0.288477	-0.317560	-0.000025
C17	C	0.206342	-0.309172	-0.000023
C18	C	0.580700	-0.265299	-0.000018
C19	C	0.662842	-0.273680	-0.000022
C20	C	0.669479	-0.101511	-0.000003
C21	C	0.587342	-0.093131	-0.000007
C22	C	0.542956	-0.175025	-0.000008
C23	C	0.416827	-0.244242	-0.000016
C24	C	0.459000	-0.166449	-0.000003
C25	C	0.931497	-0.031527	-0.000003
C26	C	0.922566	0.074419	-0.000001
C27	C	1.081180	-0.209974	-0.000015
C28	C	1.168597	-0.218892	-0.000022
C29	C	0.944327	-0.379158	-0.000026
C30	C	0.953259	-0.485103	-0.000034
N31	N	0.925567	-0.220641	0.265509
C32	C	0.906238	0.268398	-0.000016
C33	C	0.969583	0.320924	-0.000019
C34	C	0.960498	0.428860	-0.000027
C35	C	0.915322	0.160451	-0.000008
N36	N	0.950263	-0.190037	-0.265535
C37	C	0.915877	-0.232662	0.474550
C38	C	0.959951	-0.178019	0.525430
C39	C	0.954560	-0.184707	0.641748
C40	C	0.921267	-0.225975	0.358222
H41	H	0.331256	-0.078710	0.000005
H42	H	1.001735	-0.126214	0.481632
N43	N	0.863466	-0.297643	0.529501
N44	N	0.859108	-0.303050	0.625283
H45	H	0.822095	-0.348944	0.664104
H46	H	1.030641	0.284834	-0.000088
N47	N	0.829649	0.313670	0.000015
N48	N	0.779802	0.294774	0.071870
H49	H	0.725711	0.326757	0.071900
N50	N	0.548801	-0.000907	0.000020
N51	N	0.556863	0.051649	0.071869
H52	H	0.529646	0.116786	0.071886
N53	N	0.174440	-0.044781	-0.000012
N54	N	0.214084	0.028324	-0.000002
H55	H	0.186865	0.093460	0.000001
H56	H	0.705626	-0.034838	-0.000001
H57	H	0.693574	-0.347197	-0.000017
H58	H	0.544571	-0.331983	-0.000024
N59	N	0.327047	-0.409768	-0.000025
N60	N	0.400382	-0.417247	-0.000027
H61	H	0.427621	-0.482370	-0.000029
H62	H	0.428262	-0.092947	-0.000006
N63	N	0.160998	-0.392819	-0.000013
N64	N	0.164607	-0.455532	0.071824
H65	H	0.132583	-0.514611	0.071838
N66	N	0.455390	-0.336453	-0.000015
N67	N	0.497139	-0.364479	0.071825
H68	H	0.524377	-0.429604	0.071830
