data_functionalizedCrystal
_audit_creation_method	'MofGen! by Chris Wilmer'
_symmetry_space_group_name_H-M	'P1'
_symmetry_Int_Tables_number	1
_symmetry_cell_setting	triclinic
loop_
_symmetry_equiv_pos_as_xyz
  x,y,z
_cell_length_a	14.519731
_cell_length_b	27.732048
_cell_length_c	13.596369
_cell_angle_alpha	90.010933
_cell_angle_beta	89.993567
_cell_angle_gamma	96.834246
loop_
_atom_site_label
_atom_site_type_symbol
_atom_site_fract_x
_atom_site_fract_y
_atom_site_fract_z
O1	O	-1.222753	0.063411	0.081828
O2	O	-0.722753	0.563411	0.581828
O3	O	-0.954149	0.070862	0.081826
O4	O	-0.454149	0.570862	0.581826
O5	O	-1.096793	-0.003220	0.081808
O6	O	-0.596793	0.496780	0.581808
O7	O	-1.080109	0.137493	0.081845
O8	O	-0.580109	0.637493	0.581845
O9	O	-1.096779	-0.003224	-0.081775
O10	O	-0.596779	0.496776	0.418225
O11	O	-0.954135	0.070858	-0.081757
O12	O	-0.454135	0.570858	0.418243
O13	O	-1.222739	0.063407	-0.081755
O14	O	-0.722739	0.563407	0.418245
Zn15	Zn	-1.088435	0.067132	-0.107729
Zn16	Zn	-0.588435	0.567132	0.392271
Zn17	Zn	-1.088453	0.067137	0.107799
Zn18	Zn	-0.588453	0.567137	0.607799
O19	O	-1.080095	0.137489	-0.081738
O20	O	-0.580095	0.637489	0.418262
C21	C	-0.919789	0.070511	0.000033
C22	C	-0.419789	0.570511	0.500033
C23	C	-0.817427	0.069465	0.000032
C24	C	-0.317427	0.569465	0.500032
C25	C	-1.096436	-0.021231	0.000014
C26	C	-0.596436	0.478769	0.500014
C27	C	-1.095382	-0.074890	0.000006
C28	C	-0.595382	0.425110	0.500006
C29	C	-0.734297	0.068615	0.000034
C30	C	-0.234297	0.568615	0.500034
C31	C	-0.630007	0.067553	0.000032
C32	C	-0.130007	0.567553	0.500032
C33	C	-0.546883	0.066710	0.000030
C34	C	-0.046883	0.566710	0.500030
C35	C	-0.442586	0.065647	0.000030
C36	C	0.057414	0.565647	0.500030
C37	C	-1.173036	-0.413331	0.000057
C38	C	-0.673036	0.086669	0.500057
C39	C	-1.169123	-0.615010	0.000071
C40	C	-0.669123	-0.115010	0.500071
O41	O	-1.240132	-0.645923	0.000114
O42	O	-0.740132	-0.145923	0.500114
N43	N	-1.084541	-0.634541	0.000069
N44	N	-0.584541	-0.134541	0.500069
C45	C	-1.000931	-0.603649	0.000070
C46	C	-0.500931	-0.103649	0.500070
O47	O	-0.928899	-0.624890	0.000079
O48	O	-0.428899	-0.124890	0.500079
C49	C	-1.004845	-0.401972	0.000064
C50	C	-0.504845	0.098028	0.500064
C51	C	-1.089432	-0.382444	0.000055
C52	C	-0.589432	0.117556	0.500055
C53	C	-1.257616	-0.393802	0.000050
C54	C	-0.757616	0.106198	0.500050
C55	C	-1.258594	-0.343386	0.000041
C56	C	-0.758594	0.156614	0.500041
C57	C	-1.174990	-0.312498	0.000039
C58	C	-0.674990	0.187502	0.500039
C59	C	-1.090410	-0.332027	0.000047
C60	C	-0.590410	0.167973	0.500047
C61	C	-0.921236	-0.371081	0.000072
C62	C	-0.421236	0.128919	0.500072
C63	C	-0.922222	-0.320659	0.000073
C64	C	-0.422222	0.179341	0.500073
C65	C	-1.006809	-0.301131	0.000065
C66	C	-0.506809	0.198869	0.500065
C67	C	-1.007784	-0.250723	0.000036
C68	C	-0.507784	0.249277	0.500036
N69	N	-1.092366	-0.231191	0.000038
N70	N	-0.592366	0.268809	0.500038
C71	C	-1.175969	-0.262079	0.000039
C72	C	-0.675969	0.237921	0.500039
C73	C	-0.998882	-0.709533	0.000072
C74	C	-0.498882	-0.209533	0.500072
C75	C	-0.997903	-0.759953	0.000072
C76	C	-0.497903	-0.259953	0.500072
C77	C	-1.166096	-0.771309	0.000074
C78	C	-0.666096	-0.271309	0.500074
C79	C	-1.167073	-0.720889	0.000067
C80	C	-0.667073	-0.220889	0.500067
C81	C	-1.083464	-0.690002	0.000073
C82	C	-0.583464	-0.190002	0.500073
C83	C	-1.178015	-0.156200	0.000020
C84	C	-0.678015	0.343800	0.500020
C85	C	-1.178985	-0.105778	0.000007
C86	C	-0.678985	0.394222	0.500007
C87	C	-1.010793	-0.094426	0.000010
C88	C	-0.510793	0.405574	0.500010
C89	C	-1.009823	-0.144843	0.000018
C90	C	-0.509823	0.355157	0.500018
C91	C	-1.093441	-0.175729	0.000026
C92	C	-0.593441	0.324271	0.500026
O93	O	-0.936812	-0.219781	0.000004
O94	O	-0.436812	0.280219	0.500004
O95	O	-1.247991	-0.240829	0.000052
O96	O	-0.747991	0.259171	0.500052
C97	C	-1.172058	-0.463748	0.000066
C98	C	-0.672058	0.036252	0.500066
C99	C	-1.087478	-0.483277	0.000073
C100	C	-0.587478	0.016723	0.500073
C101	C	-1.003874	-0.452389	0.000071
C102	C	-0.503874	0.047611	0.500071
C103	C	-1.086499	-0.533696	0.000073
C104	C	-0.586499	-0.033696	0.500073
C105	C	-1.170102	-0.564584	0.000074
C106	C	-0.670102	-0.064584	0.500074
C107	C	-1.254685	-0.545052	0.000076
C108	C	-0.754685	-0.045052	0.500076
C109	C	-1.255662	-0.494636	0.000067
C110	C	-0.755662	0.005364	0.500067
C111	C	-0.919292	-0.471921	0.000070
C112	C	-0.419292	0.028079	0.500070
C113	C	-0.918322	-0.522338	0.000077
C114	C	-0.418322	-0.022338	0.500077
C115	C	-1.001925	-0.553225	0.000079
C116	C	-0.501925	-0.053225	0.500079
C117	C	-0.257099	0.063758	0.000034
C118	C	0.242901	0.563758	0.500034
C119	C	-0.359462	0.064804	0.000028
C120	C	0.140538	0.564804	0.500028
C121	C	-1.080452	0.155500	0.000059
C122	C	-0.580452	0.655500	0.500059
C123	C	-1.081507	0.209160	0.000073
C124	C	-0.581507	0.709160	0.500073
N125	N	-1.088429	0.067128	-0.254820
N126	N	-0.588429	0.567128	0.245180
C127	C	-1.088452	0.067138	-0.656111
C128	C	-0.588452	0.567138	-0.156111
C129	C	-1.088443	0.067137	-0.544460
C130	C	-0.588443	0.567137	-0.044460
C131	C	-1.088441	0.067133	-0.455469
C132	C	-0.588441	0.567133	0.044531
C133	C	-1.088431	0.067132	-0.343811
C134	C	-0.588431	0.567132	0.156189
N135	N	-1.088467	0.067137	0.254891
N136	N	-0.588467	0.567137	0.754891
H137	H	-1.247869	-0.089881	-0.000002
H138	H	-0.747869	0.410119	0.499998
O139	O	-0.927635	-0.163794	0.000195
O140	O	-0.427635	0.336206	0.500195
C141	C	-0.783572	-0.169474	0.084929
C142	C	-0.283572	0.330526	0.584929
C143	C	-0.876625	-0.147993	0.084848
C144	C	-0.376625	0.352007	0.584848
H145	H	-0.742296	-0.156699	0.153352
H146	H	-0.242296	0.343301	0.653352
H147	H	-0.797179	-0.210818	0.085007
H148	H	-0.297179	0.289182	0.585007
H149	H	-0.742323	-0.156781	0.016437
H150	H	-0.242323	0.343219	0.516437
H151	H	-0.917922	-0.160649	0.153327
H152	H	-0.417922	0.339351	0.653327
H153	H	-0.862953	-0.106652	0.084719
H154	H	-0.362953	0.393348	0.584719
O155	O	-0.929610	-0.064396	0.000186
O156	O	-0.429610	0.435604	0.500186
C157	C	-0.833164	-0.000844	0.084915
C158	C	-0.333164	0.499156	0.584915
C159	C	-0.925127	-0.034834	0.084840
C160	C	-0.425127	0.465166	0.584840
H161	H	-0.829518	0.023073	0.153340
H162	H	-0.329518	0.523073	0.653340
H163	H	-0.772498	-0.023433	0.084986
H164	H	-0.272498	0.476567	0.584986
H165	H	-0.829424	0.023017	0.016424
H166	H	-0.329424	0.523017	0.516424
H167	H	-0.928958	-0.058702	0.153319
H168	H	-0.428958	0.441298	0.653319
H169	H	-0.985750	-0.012216	0.084718
H170	H	-0.485750	0.487784	0.584718
O171	O	-1.338812	-0.423822	0.000224
O172	O	-0.838812	0.076178	0.500224
C173	C	-1.435335	-0.487343	0.084929
C174	C	-0.935335	0.012657	0.584929
C175	C	-1.343350	-0.453371	0.084875
C176	C	-0.843350	0.046629	0.584875
H177	H	-1.439025	-0.511250	0.153351
H178	H	-0.939025	-0.011250	0.653351
H179	H	-1.495981	-0.464739	0.084988
H180	H	-0.995981	0.035261	0.584988
H181	H	-1.439070	-0.511215	0.016436
H182	H	-0.939070	-0.011215	0.516436
H183	H	-1.339524	-0.429493	0.153356
H184	H	-0.839524	0.070507	0.653356
H185	H	-1.282748	-0.476004	0.084764
H186	H	-0.782748	0.023996	0.584764
O187	O	-1.259181	-0.186247	-0.000108
O188	O	-0.759181	0.313753	0.499892
C189	C	-1.355721	-0.249745	-0.084887
C190	C	-0.855721	0.250255	0.415113
C191	C	-1.263760	-0.215753	-0.084845
C192	C	-0.763760	0.284247	0.415155
H193	H	-1.359462	-0.273602	-0.153400
H194	H	-0.859462	0.226398	0.346600
H195	H	-1.359500	-0.273660	-0.016472
H196	H	-0.859500	0.226340	0.483528
H197	H	-1.416317	-0.227109	-0.084847
H198	H	-0.916317	0.272891	0.415153
H199	H	-1.203111	-0.238351	-0.084919
H200	H	-0.703111	0.261649	0.415081
H201	H	-1.260062	-0.191836	-0.153254
H202	H	-0.760062	0.308164	0.346746
H203	H	-1.327474	-0.327491	0.000038
H204	H	-0.827474	0.172509	0.500038
H205	H	-0.929024	-0.775848	0.000061
H206	H	-0.429024	-0.275848	0.500061
O207	O	-0.917681	-0.679514	0.000246
O208	O	-0.417681	-0.179514	0.500246
C209	C	-0.821179	-0.615977	0.084958
C210	C	-0.321179	-0.115977	0.584958
C211	C	-0.913163	-0.649950	0.084899
C212	C	-0.413163	-0.149950	0.584899
H213	H	-0.817505	-0.592059	0.153382
H214	H	-0.317505	-0.092059	0.653382
H215	H	-0.760532	-0.638580	0.085017
H216	H	-0.260532	-0.138580	0.585017
H217	H	-0.817433	-0.592117	0.016467
H218	H	-0.317433	-0.092117	0.516467
H219	H	-0.917000	-0.673818	0.153379
H220	H	-0.417000	-0.173818	0.653379
H221	H	-0.973767	-0.627319	0.084788
H222	H	-0.473767	-0.127319	0.584788
O223	O	-1.337807	-0.475646	-0.000106
O224	O	-0.837807	0.024354	0.499894
C225	C	-1.436514	-0.425309	-0.084820
C226	C	-0.936514	0.074691	0.415180
C227	C	-1.343457	-0.446786	-0.084761
C228	C	-0.843457	0.053214	0.415239
H229	H	-1.441104	-0.401963	-0.153245
H230	H	-0.941104	0.098037	0.346755
H231	H	-1.496129	-0.456033	-0.084878
H232	H	-0.996129	0.043967	0.415122
H233	H	-1.441174	-0.402002	-0.016330
H234	H	-0.941174	0.097998	0.483670
H235	H	-1.338706	-0.470087	-0.153239
H236	H	-0.838706	0.029913	0.346761
H237	H	-1.283887	-0.416039	-0.084651
H238	H	-0.783887	0.083961	0.415349
O239	O	-1.249322	-0.702002	0.000112
O240	O	-0.749322	-0.202002	0.500112
C241	C	-1.416041	-0.718601	0.000058
C242	C	-0.916041	-0.218601	0.500058
C243	C	-1.322956	-0.740052	0.000025
C244	C	-0.822956	-0.240052	0.500025
H245	H	-1.475598	-0.749355	-0.000033
H246	H	-0.975598	-0.249355	0.499967
H247	H	-1.420776	-0.695295	0.068537
H248	H	-0.920776	-0.195295	0.568537
H249	H	-1.420655	-0.695268	-0.068382
H250	H	-0.920655	-0.195268	0.431618
H251	H	-1.318280	-0.763407	0.068418
H252	H	-0.818280	-0.263407	0.568418
H253	H	-1.318260	-0.763331	-0.068499
H254	H	-0.818260	-0.263331	0.431501
H255	H	-1.234169	-0.796467	0.000075
H256	H	-0.734169	-0.296467	0.500075
H257	H	-0.852356	-0.386972	0.000085
H258	H	-0.352356	0.113028	0.500085
H259	H	-0.854135	-0.295513	0.000080
H260	H	-0.354135	0.204487	0.500080
H261	H	-1.322757	-0.570210	0.000073
H262	H	-0.822757	-0.070210	0.500073
H263	H	-0.849435	-0.538232	0.000076
H264	H	-0.349435	-0.038232	0.500076
H265	H	-0.851211	-0.446776	0.000071
H266	H	-0.351211	0.053224	0.500071
