data_functionalizedCrystal
_audit_creation_method	'MofGen! by Chris Wilmer'
_symmetry_space_group_name_H-M	'P1'
_symmetry_Int_Tables_number	1
_symmetry_cell_setting	triclinic
loop_
_symmetry_equiv_pos_as_xyz
  x,y,z
_cell_length_a	16.959455
_cell_length_b	18.215405
_cell_length_c	16.959455
_cell_angle_alpha	90.016495
_cell_angle_beta	90.007639
_cell_angle_gamma	90.021832
loop_
_atom_site_label
_atom_site_type_symbol
_atom_site_fract_x
_atom_site_fract_y
_atom_site_fract_z
Zn1	Zn	1.208305	-0.293154	0.446890
Zn2	Zn	1.708305	0.206846	0.946890
Zn3	Zn	1.208232	-0.416195	0.314704
Zn4	Zn	1.708232	0.083805	0.814704
Zn5	Zn	1.076149	-0.293140	0.314728
Zn6	Zn	1.576149	0.206860	0.814728
Zn7	Zn	1.076087	-0.416177	0.446843
Zn8	Zn	1.576087	0.083823	0.946843
O9	O	1.142193	-0.354666	0.380791
O10	O	1.642193	0.145334	0.880791
O11	O	1.318906	-0.309489	0.429366
O12	O	1.818906	0.190511	0.929366
O13	O	1.190706	-0.399873	0.204097
O14	O	1.690706	0.100127	0.704097
O15	O	1.093736	-0.190158	0.332289
O16	O	1.593736	0.309842	0.832289
O17	O	1.318853	-0.399887	0.332249
O18	O	1.818853	0.100113	0.832249
O19	O	1.190831	-0.190168	0.429389
O20	O	1.690831	0.309832	0.929389
O21	O	1.093665	-0.309466	0.204114
O22	O	1.593665	0.190534	0.704114
O23	O	0.965530	-0.309448	0.332243
O24	O	1.465530	0.190552	0.832243
O25	O	1.093631	-0.399855	0.557460
O26	O	1.593631	0.100145	1.057460
O27	O	0.965485	-0.399842	0.429308
O28	O	1.465485	0.100158	0.929308
O29	O	1.190771	-0.309471	0.557495
O30	O	1.690771	0.190529	1.057495
O31	O	1.190646	-0.519177	0.332203
O32	O	1.690646	-0.019177	0.832203
O33	O	1.093560	-0.519163	0.429285
O34	O	1.593560	-0.019163	0.929285
C35	C	1.142110	-0.545873	0.380753
C36	C	1.642110	-0.045873	0.880753
C37	C	1.142146	-0.627672	0.380764
C38	C	1.642146	-0.127672	0.880764
C39	C	0.936827	-0.354642	0.380773
C40	C	1.436827	0.145358	0.880773
C41	C	0.848970	-0.354650	0.380784
C42	C	1.348970	0.145350	0.880784
C43	C	1.192818	-0.815848	0.330306
C44	C	1.692818	-0.315848	0.830306
C45	C	1.192853	-0.892707	0.330325
C46	C	1.692853	-0.392707	0.830325
C47	C	1.091670	-0.892733	0.431333
C48	C	1.591670	-0.392733	0.931333
C49	C	1.091639	-0.815875	0.431318
C50	C	1.591639	-0.315875	0.931318
C51	C	1.142212	-0.777435	0.380800
C52	C	1.642212	-0.277435	0.880800
C53	C	1.142278	-0.931151	0.380834
C54	C	1.642278	-0.431151	0.880834
C55	C	1.142316	-1.014485	0.380856
C56	C	1.642316	-0.514485	0.880856
C57	C	1.142175	-0.694096	0.380779
C58	C	1.642175	-0.194096	0.880779
C59	C	0.477494	-0.307560	0.330356
C60	C	0.977494	0.192440	0.830356
C61	C	0.477496	-0.401834	0.431272
C62	C	0.977496	0.098166	0.931272
C63	C	0.560042	-0.401823	0.431268
C64	C	1.060042	0.098177	0.931268
C65	C	0.601318	-0.354681	0.380805
C66	C	1.101318	0.145319	0.880805
C67	C	0.560048	-0.307549	0.330348
C68	C	1.060048	0.192451	0.830348
C69	C	0.601318	-0.448960	0.481719
C70	C	1.101318	0.051040	0.981719
C71	C	0.683869	-0.448951	0.481715
C72	C	1.183869	0.051049	0.981715
C73	C	0.725146	-0.401805	0.431256
C74	C	1.225146	0.098195	0.931256
C75	C	0.683871	-0.354671	0.380797
C76	C	1.183871	0.145329	0.880797
C77	C	0.725147	-0.307528	0.330335
C78	C	1.225147	0.192472	0.830335
C79	C	0.683874	-0.260390	0.279879
C80	C	1.183874	0.239610	0.779879
C81	C	0.601325	-0.260402	0.279889
C82	C	1.101325	0.239598	0.779889
C83	C	0.807694	-0.401792	0.431247
C84	C	1.307694	0.098208	0.931247
C85	C	0.807701	-0.307518	0.330327
C86	C	1.307701	0.192482	0.830327
C87	C	1.348362	-0.354691	0.380810
C88	C	1.848362	0.145309	0.880810
C89	C	1.436218	-0.354702	0.380818
C90	C	1.936218	0.145298	0.880818
C91	C	1.142202	-0.354663	0.586960
C92	C	1.642202	0.145337	1.086960
C93	C	1.142206	-0.354661	0.674816
C94	C	1.642206	0.145339	1.174816
C95	C	1.142299	-0.162714	0.380847
C96	C	1.642299	0.337286	0.880847
C97	C	1.142344	-0.080915	0.380871
C98	C	1.642344	0.419085	0.880871
C99	C	1.192733	-0.401731	0.716083
C100	C	1.692733	0.098269	1.216083
C101	C	1.091677	-0.307594	0.716103
C102	C	1.591677	0.192406	1.216103
C103	C	1.091676	-0.307594	0.798649
C104	C	1.591676	0.192406	1.298649
C105	C	1.142203	-0.354664	0.839916
C106	C	1.642203	0.145336	1.339916
C107	C	1.192732	-0.401733	0.798636
C108	C	1.692732	0.098267	1.298636
C109	C	1.041143	-0.260530	0.839935
C110	C	1.541143	0.239470	1.339935
C111	C	1.041139	-0.260529	0.922485
C112	C	1.541139	0.239471	1.422485
C113	C	1.091671	-0.307595	0.963754
C114	C	1.591671	0.192405	1.463754
C115	C	1.142202	-0.354666	0.922469
C116	C	1.642202	0.145334	1.422469
C117	C	1.192729	-0.401736	0.963736
C118	C	1.692729	0.098264	1.463736
C119	C	1.243265	-0.448804	0.922453
C120	C	1.743265	0.051196	1.422453
C121	C	1.243264	-0.448800	0.839904
C122	C	1.743264	0.051200	1.339904
C123	C	1.091672	-0.307599	1.046302
C124	C	1.591672	0.192401	1.546302
C125	C	1.192728	-0.401738	1.046289
C126	C	1.692728	0.098262	1.546289
C127	C	1.142185	-0.354682	1.175425
C128	C	1.642185	0.145318	1.675425
C129	C	1.142199	-0.354668	1.087569
C130	C	1.642199	0.145332	1.587569
H131	H	1.233999	-0.784552	0.289172
H132	H	1.733999	-0.284552	0.789172
Cl133	Cl	0.425610	-0.248299	0.266933
Cl134	Cl	0.925610	0.251701	0.766933
H135	H	1.233880	-0.440050	0.682467
H136	H	1.733880	0.059950	1.182467
Cl137	Cl	1.256256	-0.460911	1.098161
Cl138	Cl	1.756256	0.039089	1.598161
Cl139	Cl	1.028094	-0.941063	0.494836
Cl140	Cl	1.528094	-0.441063	0.994836
Cl141	Cl	0.735773	-0.201132	0.216438
Cl142	Cl	1.235773	0.298868	0.716438
Cl143	Cl	1.256477	-0.940994	0.266847
Cl144	Cl	1.756477	-0.440994	0.766847
H145	H	1.284401	-0.487130	0.956063
H146	H	1.784401	0.012870	1.456063
Cl147	Cl	1.028019	-0.767581	0.494805
Cl148	Cl	1.528019	-0.267581	0.994805
H149	H	1.050536	-0.269277	0.682499
H150	H	1.550536	0.230723	1.182499
H151	H	0.567713	-0.222026	0.238809
H152	H	1.067713	0.277974	0.738809
H153	H	1.000001	-0.222214	0.806329
H154	H	1.500001	0.277786	1.306329
H155	H	0.841302	-0.269124	0.289238
H156	H	1.341302	0.230876	0.789238
H157	H	0.443884	-0.440219	0.472352
H158	H	0.943884	0.059781	0.972352
H159	H	0.567705	-0.487345	0.522797
H160	H	1.067705	0.012655	1.022797
Cl161	Cl	0.735748	-0.508208	0.545146
Cl162	Cl	1.235748	-0.008208	1.045146
Cl163	Cl	0.859577	-0.461051	0.494666
Cl164	Cl	1.359577	0.038949	0.994666
H165	H	1.284406	-0.487121	0.806285
H166	H	1.784406	0.012879	1.306285
H167	H	0.999990	-0.222203	0.956091
H168	H	1.499990	0.277797	1.456091
Cl169	Cl	1.028155	-0.248426	1.098197
Cl170	Cl	1.528155	0.251574	1.598197
