data_functionalizedCrystal
_audit_creation_method	'MofGen! by Chris Wilmer'
_symmetry_space_group_name_H-M	'P1'
_symmetry_Int_Tables_number	1
_symmetry_cell_setting	triclinic
loop_
_symmetry_equiv_pos_as_xyz
  x,y,z
_cell_length_a	17.640280
_cell_length_b	17.639664
_cell_length_c	17.639306
_cell_angle_alpha	87.802395
_cell_angle_beta	92.178650
_cell_angle_gamma	87.812060
loop_
_atom_site_label
_atom_site_type_symbol
_atom_site_fract_x
_atom_site_fract_y
_atom_site_fract_z
Zn1	Zn	-0.094106	-1.262398	0.173139
Zn2	Zn	0.405894	-0.762398	0.673139
Zn3	Zn	-0.197690	-1.252731	0.022004
Zn4	Zn	0.302310	-0.752731	0.522004
Zn5	Zn	-0.103787	-1.111246	0.069531
Zn6	Zn	0.396213	-0.611246	0.569531
Zn7	Zn	-0.245255	-1.158822	0.163480
Zn8	Zn	0.254745	-0.658822	0.663480
O9	O	-0.160209	-1.196299	0.107039
O10	O	0.339791	-0.696299	0.607039
O11	O	-0.083889	-1.363675	0.137242
O12	O	0.416111	-0.863675	0.637242
O13	O	-0.169379	-1.210006	-0.074260
O14	O	0.330621	-0.710006	0.425740
O15	O	0.000052	-1.115433	0.107207
O16	O	0.500052	-0.615433	0.607207
O17	O	-0.159992	-1.356572	0.026204
O18	O	0.340008	-0.856572	0.526204
O19	O	0.007165	-1.226483	0.183327
O20	O	0.507165	-0.726483	0.683327
O21	O	-0.100389	-1.106058	-0.039342
O22	O	0.399611	-0.606058	0.460658
O23	O	-0.146510	-1.014999	0.097842
O24	O	0.353490	-0.514999	0.597842
O25	O	-0.241059	-1.196517	0.267330
O26	O	0.258941	-0.696517	0.767330
O27	O	-0.250446	-1.049952	0.166866
O28	O	0.249554	-0.549952	0.666866
O29	O	-0.130011	-1.272615	0.274426
O30	O	0.369989	-0.772615	0.774426
O31	O	-0.306554	-1.256138	0.016839
O32	O	0.193446	-0.756138	0.516839
O33	O	-0.341500	-1.187143	0.120781
O34	O	0.158500	-0.687143	0.620781
C35	C	-0.204691	-1.005883	0.136463
C36	C	0.295309	-0.505883	0.636463
C37	C	-0.223740	-0.924429	0.149065
C38	C	0.276260	-0.424429	0.649065
C39	C	-0.304755	-0.827833	0.202667
C40	C	0.195245	-0.327833	0.702667
C41	C	-0.286849	-0.904369	0.190822
C42	C	0.213151	-0.404369	0.690822
C43	C	-0.178511	-0.867953	0.119139
C44	C	0.321489	-0.367953	0.619139
C45	C	-0.196406	-0.791412	0.130981
C46	C	0.303594	-0.291412	0.630981
C47	C	-0.259529	-0.771359	0.172745
C48	C	0.240471	-0.271359	0.672745
C49	C	-0.151180	-0.734938	0.101059
C50	C	0.348820	-0.234938	0.601059
C51	C	-0.169076	-0.658404	0.112898
C52	C	0.330924	-0.158404	0.612898
C53	C	-0.232198	-0.638343	0.154658
C54	C	0.267802	-0.138343	0.654658
C55	C	-0.277425	-0.694824	0.184584
C56	C	0.222575	-0.194824	0.684584
C57	C	-0.088060	-0.754993	0.059291
C58	C	0.411940	-0.254993	0.559291
C59	C	-0.042834	-0.698519	0.029369
C60	C	0.457166	-0.198519	0.529369
C61	C	-0.060727	-0.621983	0.041211
C62	C	0.439273	-0.121983	0.541211
C63	C	-0.123848	-0.601923	0.082972
C64	C	0.376152	-0.101923	0.582972
C65	C	-0.015499	-0.565502	0.011286
C66	C	0.484501	-0.065502	0.511286
C67	C	-0.033395	-0.488967	0.023124
C68	C	0.466605	0.011033	0.523124
C69	C	-0.141745	-0.525388	0.094810
C70	C	0.358255	-0.025388	0.594810
C71	C	-0.350616	-1.225778	0.062618
C72	C	0.149384	-0.725778	0.562618
C73	C	-0.432061	-1.238462	0.043628
C74	C	0.067939	-0.738462	0.543628
C75	C	-0.791037	-1.100305	0.251518
C76	C	-0.291037	-0.600305	0.751518
C77	C	-0.867563	-1.112219	0.233651
C78	C	-0.367563	-0.612219	0.733651
C79	C	-0.831110	-1.184144	0.125502
C80	C	-0.331110	-0.684144	0.625502
C81	C	-0.754579	-1.172238	0.143362
C82	C	-0.254579	-0.672238	0.643362
C83	C	-0.734549	-1.130318	0.206371
C84	C	-0.234549	-0.630318	0.706371
C85	C	-0.698091	-1.202251	0.098215
C86	C	-0.198091	-0.702251	0.598215
C87	C	-0.621567	-1.190343	0.116071
C88	C	-0.121567	-0.690343	0.616071
C89	C	-0.601531	-1.148423	0.179075
C90	C	-0.101531	-0.648423	0.679075
C91	C	-0.658025	-1.118410	0.224227
C92	C	-0.158025	-0.618410	0.724227
C93	C	-0.718122	-1.244167	0.035204
C94	C	-0.218122	-0.744167	0.535204
C95	C	-0.661635	-1.274180	-0.009944
C96	C	-0.161635	-0.774180	0.490056
C97	C	-0.585109	-1.262277	0.007915
C98	C	-0.085109	-0.762277	0.507915
C99	C	-0.565073	-1.220356	0.070919
C100	C	-0.065073	-0.720356	0.570919
C101	C	-0.528615	-1.292290	-0.037236
C102	C	-0.028615	-0.792290	0.462764
C103	C	-0.452091	-1.280382	-0.019380
C104	C	0.047909	-0.780382	0.480620
C105	C	-0.488549	-1.208449	0.088776
C106	C	0.011451	-0.708449	0.588776
C107	C	0.030943	-1.166729	0.151646
C108	C	0.530943	-0.666729	0.651646
C109	C	0.112401	-1.154128	0.170655
C110	C	0.612401	-0.654128	0.670655
C111	C	-0.189761	-1.240951	0.298217
C112	C	0.310239	-0.740951	0.798217
C113	C	-0.202354	-1.259979	0.379685
C114	C	0.297646	-0.759979	0.879685
C115	C	-0.115553	-0.387458	0.077493
C116	C	0.384447	0.112542	0.577493
C117	C	-0.096519	-0.468914	0.064888
C118	C	0.403481	0.031086	0.564888
C119	C	-0.130710	-1.151855	-0.083390
C120	C	0.369290	-0.651855	0.416610
C121	C	-0.117877	-1.132937	-0.164832
C122	C	0.382123	-0.632937	0.335168
C123	C	-0.064201	-1.051988	0.738537
C124	C	0.435799	-0.551988	1.238537
C125	C	-0.076046	-1.069886	0.815083
C126	C	0.423954	-0.569886	1.315083
C127	C	-0.147878	-1.178116	0.778708
C128	C	0.352122	-0.678116	1.278708
C129	C	-0.136036	-1.160229	0.702157
C130	C	0.363964	-0.660229	1.202157
C131	C	-0.094198	-1.097163	0.682079
C132	C	0.405802	-0.597163	1.182079
C133	C	-0.166032	-1.205404	0.645698
C134	C	0.333968	-0.705404	1.145698
C135	C	-0.154195	-1.187516	0.569154
C136	C	0.345805	-0.687516	1.069154
C137	C	-0.112360	-1.124452	0.549069
C138	C	0.387640	-0.624452	1.049069
C139	C	-0.082360	-1.079275	0.605535
C140	C	0.417640	-0.579275	1.105535
C141	C	-0.207875	-1.268466	0.665778
C142	C	0.292125	-0.768466	1.165778
C143	C	-0.237871	-1.313642	0.609319
C144	C	0.262129	-0.813642	1.109319
C145	C	-0.226029	-1.295756	0.532774
C146	C	0.273971	-0.795756	1.032774
C147	C	-0.184195	-1.232693	0.512688
C148	C	0.315805	-0.732693	1.012688
C149	C	-0.256030	-1.340933	0.476308
C150	C	0.243970	-0.840933	0.976308
C151	C	-0.244192	-1.323045	0.399764
C152	C	0.255808	-0.823045	0.899764
C153	C	-0.172357	-1.214804	0.436144
C154	C	0.327643	-0.714804	0.936144
H155	H	0.035891	-0.581841	-0.022725
H156	H	0.535891	-0.081841	0.477275
H157	H	-0.847429	-1.218273	0.074199
H158	H	-0.347429	-0.718273	0.574199
H159	H	-0.913555	-1.087787	0.270428
H160	H	-0.413555	-0.587787	0.770428
O161	O	-0.046850	-1.026116	0.870001
O162	O	0.453150	-0.526116	1.370001
C163	C	0.003402	-1.070863	0.918861
C164	C	0.503402	-0.570863	1.418861
H165	H	-0.011245	-1.133080	0.915708
H166	H	0.488755	-0.633080	1.415708
H167	H	-0.002069	-1.052070	0.979596
H168	H	0.497931	-0.552070	1.479596
H169	H	0.064153	-1.063623	0.900790
H170	H	0.564153	-0.563623	1.400790
H171	H	0.008560	-0.714857	-0.004638
H172	H	0.508560	-0.214857	0.495362
H173	H	-0.181945	-1.229462	0.795066
H174	H	0.318055	-0.729462	1.295066
H175	H	0.003436	-0.442984	-0.001237
H176	H	0.503436	0.057016	0.498763
H177	H	-0.539220	-1.138722	0.193609
H178	H	-0.039220	-0.638722	0.693609
H179	H	-0.328821	-0.678497	0.218601
H180	H	0.171179	-0.178497	0.718601
O181	O	-0.792425	-1.255874	0.017837
O182	O	-0.292425	-0.755874	0.517837
C183	C	-0.804439	-1.334479	0.019928
C184	C	-0.304439	-0.834479	0.519928
H185	H	-0.748510	-1.366914	0.011213
H186	H	-0.248510	-0.866914	0.511213
H187	H	-0.847468	-1.347780	-0.027087
H188	H	-0.347468	-0.847780	0.472913
H189	H	-0.827055	-1.352304	0.077346
H190	H	-0.327055	-0.852304	0.577346
O191	O	-0.366110	-0.808477	0.243241
O192	O	0.133890	-0.308477	0.743241
C193	C	-0.402176	-0.874735	0.267143
C194	C	0.097824	-0.374735	0.767143
H195	H	-0.387286	-0.922660	0.228095
H196	H	0.112714	-0.422660	0.728095
H197	H	-0.466292	-0.863368	0.264831
H198	H	0.033708	-0.363368	0.764831
H199	H	-0.382116	-0.891754	0.327830
H200	H	0.117884	-0.391754	0.827830
O201	O	-0.547948	-1.332996	-0.098488
O202	O	-0.047948	-0.832996	0.401512
C203	C	-0.481678	-1.356952	-0.134497
C204	C	0.018322	-0.856952	0.365503
H205	H	-0.433767	-1.317857	-0.119696
H206	H	0.066233	-0.817857	0.380304
H207	H	-0.493027	-1.354769	-0.198616
H208	H	0.006973	-0.854769	0.301384
H209	H	-0.464652	-1.417599	-0.114298
H210	H	0.035348	-0.917599	0.385702
H211	H	-0.217509	-1.283030	0.728106
H212	H	0.282491	-0.783030	1.228106
O213	O	-0.330668	-0.959305	0.219939
O214	O	0.169332	-0.459305	0.719939
C215	C	-0.286000	-1.008196	0.270232
C216	C	0.214000	-0.508196	0.770232
H217	H	-0.223760	-1.005030	0.255671
H218	H	0.276240	-0.505030	0.755671
H219	H	-0.304790	-1.068926	0.264709
H220	H	0.195210	-0.568926	0.764709
H221	H	-0.293330	-0.990168	0.330983
H222	H	0.206670	-0.490168	0.830983
H223	H	-0.193140	-0.509061	0.128827
H224	H	0.306860	-0.009061	0.628827
O225	O	-0.249603	-0.564030	0.166296
O226	O	0.250397	-0.064030	0.666296
C227	C	-0.247716	-0.551989	0.244892
C228	C	0.252284	-0.051989	0.744892
H229	H	-0.256509	-0.607909	0.277328
H230	H	0.243491	-0.107909	0.777328
H231	H	-0.294771	-0.508945	0.258070
H232	H	0.205229	-0.008945	0.758070
H233	H	-0.190344	-0.529376	0.262835
H234	H	0.309656	-0.029376	0.762835
H235	H	-0.290101	-1.392277	0.492668
H236	H	0.209899	-0.892277	0.992668
O237	O	-0.117119	-0.887346	0.078641
O238	O	0.382881	-0.387346	0.578641
C239	C	-0.050969	-0.861125	0.114720
C240	C	0.449031	-0.361125	0.614720
H241	H	-0.066843	-0.811919	0.151842
H242	H	0.433157	-0.311919	0.651842
H243	H	-0.010473	-0.841047	0.069970
H244	H	0.489527	-0.341047	0.569970
H245	H	-0.022102	-0.909207	0.151521
H246	H	0.477898	-0.409207	0.651521
H247	H	-0.774729	-1.066175	0.302831
H248	H	-0.274729	-0.566175	0.802831
H249	H	-0.030123	-1.000640	0.722190
H250	H	0.469877	-0.500640	1.222190
H251	H	-0.073492	-0.817313	0.049652
H252	H	0.426508	-0.317313	0.549652
O253	O	-0.469168	-1.167809	0.150066
O254	O	0.030832	-0.667809	0.650066
C255	C	-0.495384	-1.203757	0.216309
C256	C	0.004616	-0.703757	0.716309
H257	H	-0.544586	-1.240923	0.200538
H258	H	-0.044586	-0.740923	0.700538
H259	H	-0.515465	-1.158922	0.256701
H260	H	-0.015465	-0.658922	0.756701
H261	H	-0.447303	-1.240492	0.245252
H262	H	0.052697	-0.740492	0.745252
H263	H	-0.641718	-1.084280	0.275540
H264	H	-0.141718	-0.584280	0.775540
O265	O	-0.681003	-1.314995	-0.071108
O266	O	-0.181003	-0.814995	0.428892
C267	C	-0.647688	-1.388872	-0.061930
C268	C	-0.147688	-0.888872	0.438070
H269	H	-0.596123	-1.388309	-0.021020
H270	H	-0.096123	-0.888309	0.478980
H271	H	-0.629199	-1.409022	-0.119272
H272	H	-0.129199	-0.909022	0.380728
H273	H	-0.690802	-1.429024	-0.038076
H274	H	-0.190802	-0.929024	0.461924
H275	H	-0.406096	-1.304821	-0.056145
H276	H	0.093904	-0.804821	0.443855
H277	H	-0.102729	-1.109884	0.486741
H278	H	0.397271	-0.609884	0.986741
O279	O	-0.131810	-1.153505	0.416532
O280	O	0.368190	-0.653505	0.916532
C281	C	-0.177753	-1.102270	0.369851
C282	C	0.322247	-0.602270	0.869851
H283	H	-0.225483	-1.134028	0.341428
H284	H	0.274517	-0.634028	0.841428
H285	H	-0.141876	-1.075258	0.324506
H286	H	0.358124	-0.575258	0.824506
H287	H	-0.203049	-1.056094	0.405867
H288	H	0.296951	-0.556094	0.905867
O289	O	-0.041825	-1.017928	0.586052
O290	O	0.458175	-0.517928	1.086052
C291	C	-0.077785	-0.951733	0.612327
C292	C	0.422215	-0.451733	1.112327
H293	H	-0.140449	-0.962006	0.620282
H294	H	0.359551	-0.462006	1.120282
H295	H	-0.072152	-0.902789	0.569056
H296	H	0.427848	-0.402789	1.069056
H297	H	-0.049835	-0.936878	0.668888
H298	H	0.450165	-0.436878	1.168888
H299	H	-0.268606	-1.359840	0.353793
H300	H	0.231394	-0.859840	0.853793
O301	O	-0.278465	-1.374893	0.628960
O302	O	0.221535	-0.874893	1.128960
C303	C	-0.282502	-1.380984	0.708625
C304	C	0.217498	-0.880984	1.208625
H305	H	-0.233172	-1.350674	0.735997
H306	H	0.266828	-0.850674	1.235997
H307	H	-0.279145	-1.443446	0.728068
H308	H	0.220855	-0.943446	1.228068
H309	H	-0.338450	-1.353758	0.726230
H310	H	0.161550	-0.853758	1.226230
