data_functionalizedCrystal
_audit_creation_method	'MofGen! by Chris Wilmer'
_symmetry_space_group_name_H-M	'P1'
_symmetry_Int_Tables_number	1
_symmetry_cell_setting	triclinic
loop_
_symmetry_equiv_pos_as_xyz
  x,y,z
_cell_length_a	19.077068
_cell_length_b	18.215407
_cell_length_c	18.215399
_cell_angle_alpha	90.020595
_cell_angle_beta	92.268164
_cell_angle_gamma	87.672995
loop_
_atom_site_label
_atom_site_type_symbol
_atom_site_fract_x
_atom_site_fract_y
_atom_site_fract_z
Zn1	Zn	-0.280210	-1.113288	-0.427884
Zn2	Zn	0.053123	-0.779954	-0.094551
Zn3	Zn	0.386457	-0.446621	0.238783
Zn4	Zn	-0.397912	-1.108246	-0.309754
Zn5	Zn	-0.064579	-0.774913	0.023579
Zn6	Zn	0.268755	-0.441579	0.356912
Zn7	Zn	-0.280232	-0.990219	-0.304831
Zn8	Zn	0.053101	-0.656886	0.028503
Zn9	Zn	0.386435	-0.323553	0.361836
Zn10	Zn	-0.397872	-0.985238	-0.432776
Zn11	Zn	-0.064538	-0.651904	-0.099443
Zn12	Zn	0.268795	-0.318571	0.233891
O13	O	-0.339056	-1.049248	-0.368811
O14	O	-0.005723	-0.715914	-0.035478
O15	O	0.327610	-0.382581	0.297855
O16	O	-0.295831	-1.215603	-0.412227
O17	O	0.037502	-0.882269	-0.078894
O18	O	0.370835	-0.548936	0.254440
O19	O	-0.382327	-1.092564	-0.206118
O20	O	-0.048994	-0.759231	0.127215
O21	O	0.284339	-0.425898	0.460549
O22	O	-0.181738	-1.010739	-0.317046
O23	O	0.151595	-0.677406	0.016288
O24	O	0.484929	-0.344073	0.349621
O25	O	-0.382306	-1.211899	-0.325438
O26	O	-0.048973	-0.878565	0.007895
O27	O	0.284361	-0.545232	0.341229
O28	O	-0.181722	-1.101157	-0.407453
O29	O	0.151611	-0.767824	-0.074119
O30	O	0.484945	-0.434490	0.259214
O31	O	-0.295869	-1.005851	-0.202500
O32	O	0.037465	-0.672517	0.130833
O33	O	0.370798	-0.339184	0.464166
O34	O	-0.295830	-0.886574	-0.321789
O35	O	0.037504	-0.553241	0.011544
O36	O	0.370837	-0.219908	0.344877
O37	O	-0.382238	-1.002249	-0.535110
O38	O	-0.048904	-0.668916	-0.201777
O39	O	0.284429	-0.335582	0.131556
O40	O	-0.382259	-0.882915	-0.415790
O41	O	-0.048925	-0.549581	-0.082457
O42	O	0.284408	-0.216248	0.250876
O43	O	-0.295792	-1.096327	-0.531516
O44	O	0.037541	-0.762993	-0.198183
O45	O	0.370875	-0.429660	0.135151
O46	O	-0.496398	-1.087734	-0.330182
O47	O	-0.163064	-0.754401	0.003152
O48	O	0.170269	-0.421067	0.336485
O49	O	-0.496368	-0.997360	-0.420565
O50	O	-0.163035	-0.664027	-0.087232
O51	O	0.170299	-0.330694	0.246102
C52	C	-0.339043	-0.858042	-0.368787
C53	C	-0.005709	-0.524709	-0.035454
C54	C	0.327624	-0.191375	0.297880
C55	C	-0.339054	-0.776243	-0.368795
C56	C	-0.005720	-0.442909	-0.035461
C57	C	0.327613	-0.109576	0.297872
C58	C	-0.384127	-0.586159	-0.417682
C59	C	-0.050793	-0.252826	-0.084349
C60	C	0.282540	0.080507	0.248984
C61	C	-0.384128	-0.509300	-0.417691
C62	C	-0.050795	-0.175967	-0.084357
C63	C	0.282539	0.157366	0.248976
C64	C	-0.293990	-0.513088	-0.319943
C65	C	0.039343	-0.179754	0.013390
C66	C	0.372676	0.153579	0.346724
C67	C	-0.293986	-0.589945	-0.319939
C68	C	0.039348	-0.256612	0.013394
C69	C	0.372681	0.076721	0.346728
C70	C	-0.339058	-0.626479	-0.368808
C71	C	-0.005725	-0.293146	-0.035474
C72	C	0.327609	0.040188	0.297859
C73	C	-0.339064	-0.472763	-0.368820
C74	C	-0.005731	-0.139429	-0.035487
C75	C	0.327603	0.193904	0.297847
C76	C	-0.339065	-0.389429	-0.368829
C77	C	-0.005732	-0.056095	-0.035495
C78	C	0.327601	0.277238	0.297838
C79	C	-0.339056	-0.709818	-0.368800
C80	C	-0.005722	-0.376485	-0.035467
C81	C	0.327611	-0.043151	0.297866
C82	C	-0.521920	-1.041479	-0.376454
C83	C	-0.188587	-0.708146	-0.043121
C84	C	0.144746	-0.374813	0.290212
C85	C	-0.600150	-1.038223	-0.379749
C86	C	-0.266817	-0.704890	-0.046416
C87	C	0.066516	-0.371557	0.286918
C88	C	-0.636895	-1.083783	-0.334278
C89	C	-0.303562	-0.750450	-0.000945
C90	C	0.029772	-0.417116	0.332389
C91	C	-0.710401	-1.080725	-0.337381
C92	C	-0.377067	-0.747392	-0.004047
C93	C	-0.043734	-0.414058	0.329286
C94	C	-0.747160	-1.032103	-0.385952
C95	C	-0.413827	-0.698770	-0.052618
C96	C	-0.080493	-0.365437	0.280715
C97	C	-0.710410	-0.986542	-0.431428
C98	C	-0.377077	-0.653208	-0.098094
C99	C	-0.043743	-0.319875	0.235239
C100	C	-0.636906	-0.989604	-0.428328
C101	C	-0.303573	-0.656271	-0.094995
C102	C	0.029761	-0.322937	0.238339
C103	C	-0.966994	-1.017899	-0.400268
C104	C	-0.633661	-0.684565	-0.066934
C105	C	-0.300328	-0.351232	0.266399
C106	C	-1.040504	-1.014838	-0.403362
C107	C	-0.707170	-0.681505	-0.070029
C108	C	-0.373837	-0.348172	0.263304
C109	C	-1.040489	-1.109023	-0.309316
C110	C	-0.707156	-0.775690	0.024017
C111	C	-0.373822	-0.442356	0.357351
C112	C	-0.966983	-1.112078	-0.306218
C113	C	-0.633650	-0.778744	0.027116
C114	C	-0.300317	-0.445411	0.360449
C115	C	-0.930240	-1.066519	-0.351696
C116	C	-0.596907	-0.733186	-0.018363
C117	C	-0.263573	-0.399852	0.314970
N118	N	-0.822294	-1.028975	-0.389123
N119	N	-0.488961	-0.695641	-0.055789
N120	N	-0.155628	-0.362308	0.277544
N121	N	-0.855107	-1.069652	-0.348528
N122	N	-0.521774	-0.736319	-0.015195
N123	N	-0.188440	-0.402985	0.318138
C124	C	-0.155478	-1.057066	-0.361154
C125	C	0.177855	-0.723733	-0.027821
C126	C	0.511188	-0.390399	0.305512
C127	C	-0.077248	-1.060398	-0.357891
C128	C	0.256085	-0.727065	-0.024558
C129	C	0.589418	-0.393731	0.308775
C130	C	-0.339008	-1.049294	-0.560762
C131	C	-0.005675	-0.715961	-0.227429
C132	C	0.327659	-0.382628	0.105904
C133	C	-0.338987	-1.049314	-0.642560
C134	C	-0.005654	-0.715981	-0.309227
C135	C	0.327679	-0.382648	0.024106
C136	C	-0.339068	-0.241200	-0.368833
C137	C	-0.005735	0.092133	-0.035499
C138	C	0.327598	0.425467	0.297834
C139	C	-0.339068	-0.322999	-0.368833
C140	C	-0.005735	0.010334	-0.035500
C141	C	0.327599	0.343668	0.297834
C142	C	-0.293933	-1.098319	-0.828882
C143	C	0.039400	-0.764986	-0.495549
C144	C	0.372734	-0.431653	-0.162216
C145	C	-0.293913	-1.098329	-0.905740
C146	C	0.039421	-0.764996	-0.572407
C147	C	0.372754	-0.431662	-0.239073
C148	C	-0.383933	-1.000366	-0.909472
C149	C	-0.050599	-0.667033	-0.576138
C150	C	0.282734	-0.333699	-0.242805
C151	C	-0.383949	-1.000353	-0.832615
C152	C	-0.050616	-0.667020	-0.499282
C153	C	0.282718	-0.333687	-0.165948
C154	C	-0.338950	-1.049334	-0.792322
C155	C	-0.005617	-0.716001	-0.458989
C156	C	0.327716	-0.382668	-0.125656
C157	C	-0.338913	-1.049357	-0.946037
C158	C	-0.005580	-0.716023	-0.612704
C159	C	0.327753	-0.382690	-0.279370
C160	C	-0.338891	-1.049367	-1.029370
C161	C	-0.005558	-0.716033	-0.696036
C162	C	0.327775	-0.382700	-0.362703
C163	C	-0.338971	-1.049323	-0.708984
C164	C	-0.005638	-0.715990	-0.375651
C165	C	0.327696	-0.382657	-0.042317
C166	C	-0.339054	-1.049245	-0.177605
C167	C	-0.005721	-0.715912	0.155728
C168	C	0.327613	-0.382579	0.489062
C169	C	-0.338876	-1.049376	-0.095799
C170	C	-0.005543	-0.716043	0.237534
C171	C	0.327790	-0.382710	0.570868
H172	H	-0.420825	-0.615903	-0.457476
H173	H	-0.087492	-0.282569	-0.124143
H174	H	0.245841	0.050764	0.209190
H175	H	-0.257290	-1.138201	-0.796078
H176	H	0.076043	-0.804867	-0.462745
H177	H	0.409376	-0.471534	-0.129411
H178	H	-0.257254	-1.138217	-0.935504
H179	H	0.076080	-0.804883	-0.602170
H180	H	0.409413	-0.471550	-0.268837
H181	H	-0.740345	-0.946956	-0.470978
H182	H	-0.407012	-0.613623	-0.137645
H183	H	-0.073679	-0.280289	0.195689
H184	H	-0.420607	-0.960459	-0.802847
H185	H	-0.087274	-0.627125	-0.469514
H186	H	0.246060	-0.293792	-0.136181
F187	F	-0.246011	-0.632859	-0.267921
F188	F	0.087322	-0.299526	0.065413
F189	F	0.420656	0.033807	0.398746
F190	F	-0.432095	-0.466393	-0.469711
F191	F	-0.098762	-0.133059	-0.136378
F192	F	0.234571	0.200274	0.196955
H193	H	-0.606970	-1.123373	-0.294723
H194	H	-0.273637	-0.790040	0.038610
H195	H	0.059696	-0.456706	0.371943
H196	H	-0.257295	-0.483333	-0.280155
H197	H	0.076038	-0.149999	0.053179
H198	H	0.409372	0.183334	0.386512
H199	H	-0.420570	-0.960489	-0.942287
H200	H	-0.087237	-0.627156	-0.608954
H201	H	0.246096	-0.293823	-0.275621
F202	F	-0.927899	-0.969410	-0.448670
F203	F	-0.594565	-0.636077	-0.115336
F204	F	-0.261232	-0.302743	0.217997
F205	F	-0.927867	-1.163836	-0.254530
F206	F	-0.594533	-0.830503	0.078803
F207	F	-0.261200	-0.497169	0.412137
F208	F	-0.749504	-1.129218	-0.288986
F209	F	-0.416170	-0.795885	0.044347
F210	F	-0.082837	-0.462552	0.377681
H211	H	-1.070431	-0.975253	-0.442927
H212	H	-0.737098	-0.641920	-0.109594
H213	H	-0.403764	-0.308587	0.223739
F214	F	-1.079599	-1.157510	-0.260921
F215	F	-0.746266	-0.824176	0.072412
F216	F	-0.412932	-0.490843	0.405745
F217	F	-0.597800	-0.941115	-0.476726
F218	F	-0.264467	-0.607782	-0.143393
F219	F	0.068867	-0.274448	0.189940
