data_functionalizedCrystal
_audit_creation_method	'MofGen! by Chris Wilmer'
_symmetry_space_group_name_H-M	'P1'
_symmetry_Int_Tables_number	1
_symmetry_cell_setting	triclinic
loop_
_symmetry_equiv_pos_as_xyz
  x,y,z
_cell_length_a	18.215407
_cell_length_b	15.299816
_cell_length_c	18.215399
_cell_angle_alpha	99.655517
_cell_angle_beta	89.985640
_cell_angle_gamma	80.347944
loop_
_atom_site_label
_atom_site_type_symbol
_atom_site_fract_x
_atom_site_fract_y
_atom_site_fract_z
Zn1	Zn	1.175750	-0.359112	-0.466826
Zn2	Zn	1.196960	-0.509946	-0.365080
Zn3	Zn	1.052693	-0.359140	-0.343783
Zn4	Zn	1.073934	-0.509882	-0.488101
O5	O	1.124834	-0.434520	-0.415948
O6	O	1.281550	-0.379136	-0.453339
O7	O	1.177809	-0.489980	-0.259276
O8	O	1.051251	-0.232925	-0.342289
O9	O	1.297133	-0.489953	-0.378586
O10	O	1.141660	-0.232905	-0.432688
O11	O	1.071817	-0.379183	-0.243629
O12	O	0.952524	-0.379121	-0.362918
O13	O	1.087454	-0.489843	-0.588258
O14	O	0.968130	-0.489870	-0.468947
O15	O	1.162257	-0.379073	-0.572627
O16	O	1.198406	-0.636148	-0.399215
O17	O	1.108020	-0.636101	-0.489598
C18	C	0.933624	-0.434492	-0.415931
C19	C	0.851827	-0.434502	-0.415944
C20	C	0.655534	-0.376918	-0.454959
C21	C	0.578677	-0.376926	-0.454962
C22	C	0.594890	-0.492147	-0.376953
C23	C	0.671745	-0.492134	-0.376945
C24	C	0.702066	-0.434521	-0.415953
C25	C	0.548353	-0.434542	-0.415964
C26	C	0.465020	-0.434550	-0.415967
C27	C	0.785403	-0.434511	-0.415948
C28	C	1.157839	-0.668850	-0.449042
C29	C	1.172027	-0.769097	-0.463225
C30	C	1.023919	-1.052019	-0.314832
C31	C	1.010586	-0.957832	-0.301508
C32	C	1.050945	-0.910644	-0.341936
C33	C	1.104640	-0.957652	-0.395690
C34	C	1.117970	-1.051848	-0.409019
C35	C	1.144996	-0.910473	-0.436123
C36	C	1.198690	-0.957481	-0.489878
C37	C	1.212019	-1.051668	-0.503204
C38	C	1.171660	-1.098857	-0.462776
C39	C	1.131665	-0.816276	-0.422794
C40	C	1.225716	-0.816105	-0.516982
C41	C	1.239049	-0.910293	-0.530305
C42	C	1.316791	-0.434548	-0.415965
C43	C	1.398592	-0.434560	-0.415972
C44	C	1.124859	-0.434448	-0.607890
C45	C	1.124869	-0.434417	-0.689685
C46	C	1.091720	-0.199275	-0.382740
C47	C	1.077609	-0.099027	-0.368588
C48	C	1.069713	-0.376686	-0.869727
C49	C	1.069724	-0.376668	-0.946583
C50	C	1.180098	-0.492040	-0.962865
C51	C	1.180084	-0.492062	-0.886011
C52	C	1.124892	-0.434380	-0.839443
C53	C	1.124916	-0.434340	-0.993154
C54	C	1.124928	-0.434321	-1.076485
C55	C	1.124880	-0.434400	-0.756107
C56	C	1.124843	-0.434527	-0.224742
C57	C	1.124939	-0.434303	-0.142912
H58	H	0.709633	-0.539042	-0.345178
Br59	Br	0.515529	-0.298744	-0.507899
H60	H	0.570193	-0.539054	-0.345195
Br61	Br	0.696682	-0.298727	-0.507895
Br62	Br	1.058796	-0.752491	-0.349845
Br63	Br	0.937708	-0.894041	-0.228570
Br64	Br	1.284872	-1.115464	-0.576173
H65	H	1.225034	-0.539003	-1.000790
Br66	Br	1.280490	-0.752072	-0.571855
Br67	Br	0.969138	-1.116063	-0.259986
H68	H	1.282768	-0.948580	-0.574073
H69	H	1.225020	-0.539047	-0.861355
H70	H	1.182515	-1.175552	-0.473618
Br71	Br	0.994809	-0.298406	-0.806530
H72	H	1.040087	-0.833952	-0.331084
H73	H	1.024791	-0.329689	-0.971236
