data_functionalizedCrystal
_audit_creation_method	'MofGen! by Chris Wilmer'
_symmetry_space_group_name_H-M	'P1'
_symmetry_Int_Tables_number	1
_symmetry_cell_setting	triclinic
loop_
_symmetry_equiv_pos_as_xyz
  x,y,z
_cell_length_a	6.817900
_cell_length_b	15.185511
_cell_length_c	14.125465
_cell_angle_alpha	95.683706
_cell_angle_beta	100.398878
_cell_angle_gamma	104.265286
loop_
_atom_site_label
_atom_site_type_symbol
_atom_site_fract_x
_atom_site_fract_y
_atom_site_fract_z
V1	V	-3.995174	-0.124975	-0.300259
O2	O	-3.979298	0.006809	-0.294251
O3	O	-3.950744	-0.248576	-0.298486
O4	O	-3.931246	-0.122700	-0.431084
O5	O	-3.998932	-0.119939	-0.160735
V6	V	-4.480299	-0.109253	-0.283536
O7	O	-4.252917	-0.159460	-0.336940
O8	O	-4.672753	-0.074768	-0.246855
O9	O	-4.301522	0.014348	-0.285309
O10	O	-4.613572	-0.241037	-0.289544
O11	O	-4.593938	-0.114289	-0.423060
O12	O	-4.321021	-0.111528	-0.152711
C13	C	-3.797214	-0.278719	-0.293822
C14	C	-3.842071	-0.379763	-0.293245
C15	C	-3.772340	-0.118150	-0.462962
C16	C	-3.801382	-0.117107	-0.569914
C17	C	-3.832922	-0.414486	-0.204836
C18	C	-3.893359	-0.439985	-0.381114
C19	C	-3.935502	-0.534921	-0.380577
C20	C	-3.926353	-0.569644	-0.292169
C21	C	-3.875062	-0.509431	-0.204297
C22	C	-3.986775	-0.595141	-0.468447
C23	C	-4.028920	-0.690084	-0.467914
C24	C	-4.019786	-0.724809	-0.379505
C25	C	-3.968493	-0.664589	-0.291630
C26	C	-3.959344	-0.699312	-0.203221
C27	C	-3.908066	-0.639094	-0.115345
C28	C	-3.865928	-0.544156	-0.115888
C29	C	-4.061924	-0.819748	-0.378962
C30	C	-4.001484	-0.794257	-0.202682
C31	C	-3.854613	-0.115196	-0.765733
C32	C	-4.040229	-0.119030	-0.818062
C33	C	-4.069849	-0.117967	-0.927023
C34	C	-3.824984	-0.116260	-0.656762
C35	C	-4.118395	0.044486	-0.289970
C36	C	-4.052776	0.145529	-0.290554
C37	C	-4.143269	-0.116082	-0.120828
C38	C	-4.093466	-0.117119	-0.013875
H39	H	-3.994037	-0.822521	-0.130688
H40	H	-4.176898	-0.123120	-0.781033
O41	O	-3.691820	-0.110379	-0.810062
C42	C	-3.758107	-0.110366	-0.910559
H43	H	-3.932279	-0.143010	-0.933217
H44	H	-3.721109	-0.036650	-0.926595
C45	C	-3.431295	-0.125737	-0.940240
C46	C	-3.645214	-0.165838	-0.968070
H47	H	-3.361652	-0.159951	-0.975716
H48	H	-3.386632	-0.125743	-0.872533
H49	H	-3.400492	-0.064309	-0.953604
H50	H	-3.676015	-0.227261	-0.954695
H51	H	-3.689880	-0.165844	-1.035777
H52	H	-3.900609	-0.667378	-0.043363
H53	H	-3.791178	-0.365453	-0.133290
O54	O	-3.816485	-0.485703	-0.030520
C55	C	-3.981013	-0.505546	0.018662
H56	H	-4.130929	-0.542180	-0.035960
H57	H	-3.947603	-0.551704	0.074978
C58	C	-3.819224	-0.370388	0.137185
C59	C	-4.003357	-0.415376	0.070096
H60	H	-3.833003	-0.314768	0.168917
H61	H	-3.708374	-0.357021	0.104053
H62	H	-3.791403	-0.408862	0.184106
H63	H	-4.031162	-0.376906	0.023171
H64	H	-4.114213	-0.428735	0.103222
O65	O	-3.902564	-0.406221	-0.466972
C66	C	-4.052578	-0.356431	-0.477120
H67	H	-4.168792	-0.380876	-0.430144
H68	H	-3.973483	-0.280062	-0.452809
C69	C	-4.023566	-0.342159	-0.642203
C70	C	-4.166312	-0.372189	-0.584511
H71	H	-4.093717	-0.351875	-0.708447
H72	H	-3.922493	-0.375700	-0.635365
H73	H	-3.957664	-0.278520	-0.621932
H74	H	-4.232191	-0.435829	-0.604774
H75	H	-4.267399	-0.338659	-0.591355
O76	O	-3.995988	-0.561524	-0.554387
C77	C	-4.197304	-0.596849	-0.612448
H78	H	-4.276859	-0.663627	-0.588533
H79	H	-4.290288	-0.544727	-0.603733
C80	C	-4.086428	-0.533621	-0.749325
C81	C	-4.184132	-0.615643	-0.719957
H82	H	-4.078307	-0.545211	-0.815642
H83	H	-3.950799	-0.509819	-0.710207
H84	H	-4.163928	-0.490194	-0.742054
H85	H	-4.106619	-0.659064	-0.727216
H86	H	-4.319749	-0.639453	-0.759078
O87	O	-4.079039	-0.748672	-0.553218
C88	C	-4.277878	-0.808720	-0.562767
H89	H	-4.315501	-0.813339	-0.487686
H90	H	-4.397425	-0.781488	-0.609670
C91	C	-4.236560	-0.899186	-0.703478
C92	C	-4.282762	-0.904865	-0.611261
H93	H	-4.239579	-0.958492	-0.733395
H94	H	-4.102601	-0.858729	-0.697047
H95	H	-4.336189	-0.876489	-0.742551
H96	H	-4.183120	-0.927551	-0.572186
H97	H	-4.416705	-0.945329	-0.617686
H98	H	-4.103657	-0.868773	-0.450509
