data_functionalizedCrystal
_audit_creation_method	'MofGen! by Chris Wilmer'
_symmetry_space_group_name_H-M	'P1'
_symmetry_Int_Tables_number	1
_symmetry_cell_setting	triclinic
loop_
_symmetry_equiv_pos_as_xyz
  x,y,z
_cell_length_a	25.639239
_cell_length_b	18.215407
_cell_length_c	25.639233
_cell_angle_alpha	89.986457
_cell_angle_beta	89.981253
_cell_angle_gamma	90.039134
loop_
_atom_site_label
_atom_site_type_symbol
_atom_site_fract_x
_atom_site_fract_y
_atom_site_fract_z
Zn1	Zn	-0.208208	1.124956	-0.295622
Zn2	Zn	-0.295627	1.124848	-0.208186
Zn3	Zn	-0.208208	1.001902	-0.208199
Zn4	Zn	-0.295615	1.001824	-0.295589
O5	O	-0.251915	1.063382	-0.251899
O6	O	-0.219809	1.227926	-0.284032
O7	O	-0.284036	1.108526	-0.135023
O8	O	-0.135043	1.018303	-0.219815
O9	O	-0.284036	1.227846	-0.219793
O10	O	-0.135043	1.108710	-0.284044
O11	O	-0.219809	1.018198	-0.135032
O12	O	-0.219798	0.898907	-0.219783
O13	O	-0.284015	1.018171	-0.368759
O14	O	-0.284015	0.898850	-0.283989
O15	O	-0.219798	1.108635	-0.368783
O16	O	-0.368791	1.108451	-0.219761
O17	O	-0.368782	1.018066	-0.283976
C18	C	-0.251906	0.872176	-0.251884
C19	C	-0.251914	0.790377	-0.251890
C20	C	-0.387757	1.063259	-0.251875
C21	C	-0.445871	1.063273	-0.251883
C22	C	-0.285405	0.602173	-0.285280
C23	C	-0.285407	0.525314	-0.285286
C24	C	-0.218434	0.525344	-0.218530
C25	C	-0.218430	0.602201	-0.218526
C26	C	-0.251918	0.640614	-0.251901
C27	C	-0.251924	0.486898	-0.251911
C28	C	-0.251925	0.403564	-0.251917
C29	C	-0.251916	0.723953	-0.251895
C30	C	-0.806226	1.110569	-0.218520
C31	C	-0.860830	1.110597	-0.218527
O32	O	-0.889060	1.150681	-0.190134
N33	N	-0.888154	1.063512	-0.251934
C34	C	-0.860870	1.016400	-0.285340
O35	O	-0.889124	0.976353	-0.313757
C36	C	-0.806266	1.016376	-0.285335
C37	C	-0.778946	1.063459	-0.251922
C38	C	-0.778906	1.157649	-0.185110
C39	C	-0.724305	1.157619	-0.185102
C40	C	-0.697025	1.110509	-0.218505
C41	C	-0.724345	1.063429	-0.251915
C42	C	-0.778983	0.969268	-0.318744
C43	C	-0.724376	0.969249	-0.318736
C44	C	-0.697056	1.016332	-0.285323
C45	C	-0.642465	1.016290	-0.285310
N46	N	-0.615142	1.063375	-0.251902
C47	C	-0.642422	1.110485	-0.218500
C48	C	-0.975540	1.016456	-0.285348
C49	C	-1.030142	1.016476	-0.285351
C50	C	-1.030100	1.110674	-0.218538
C51	C	-0.975496	1.110649	-0.218533
C52	C	-0.948217	1.063541	-0.251941
C53	C	-0.527757	1.110419	-0.218486
C54	C	-0.473151	1.110383	-0.218480
C55	C	-0.473199	1.016188	-0.285295
C56	C	-0.527800	1.016220	-0.285299
C57	C	-0.555077	1.063342	-0.251893
O58	O	-0.614200	0.976229	-0.313689
O59	O	-0.614161	1.150532	-0.190093
C60	C	-0.115542	1.063527	-0.251935
C61	C	-0.057427	1.063588	-0.251950
C62	C	-0.251905	1.063406	-0.388272
C63	C	-0.251901	1.063416	-0.446386
C64	C	-0.251924	1.255335	-0.251915
C65	C	-0.251928	1.337134	-0.251921
C66	C	-0.218364	1.110581	-0.806768
C67	C	-0.218350	1.110590	-0.861372
O68	O	-0.189897	1.150631	-0.889624
N69	N	-0.251779	1.063497	-0.888669
C70	C	-0.285221	1.016388	-0.861359
O71	O	-0.313654	0.976332	-0.889591
C72	C	-0.285232	1.016375	-0.806756
C73	C	-0.251805	1.063476	-0.779461
C74	C	-0.184939	1.157677	-0.779473
C75	C	-0.184954	1.157668	-0.724873
C76	C	-0.218395	1.110564	-0.697567
C77	C	-0.251820	1.063468	-0.724861
C78	C	-0.318672	0.969263	-0.779446
C79	C	-0.318680	0.969254	-0.724839
C80	C	-0.285252	1.016355	-0.697545
C81	C	-0.285276	1.016355	-0.642954
N82	N	-0.251847	1.063447	-0.615657
C83	C	-0.218406	1.110552	-0.642963
C84	C	-0.285194	1.016416	-0.976030
C85	C	-0.285185	1.016432	-1.030632
C86	C	-0.218313	1.110633	-1.030641
C87	C	-0.218325	1.110620	-0.976038
C88	C	-0.251765	1.063508	-0.948733
C89	C	-0.218441	1.110531	-0.528298
C90	C	-0.218461	1.110521	-0.473693
C91	C	-0.285331	1.016317	-0.473688
C92	C	-0.285313	1.016330	-0.528289
C93	C	-0.251864	1.063439	-0.555592
O94	O	-0.313713	0.976332	-0.614667
O95	O	-0.189973	1.150593	-0.614724
C96	C	-0.251886	1.063401	-0.116057
C97	C	-0.251743	1.063534	-0.057943
H98	H	-0.312672	0.633446	-0.312457
C99	C	-0.192833	0.625860	-0.130033
C100	C	-0.181620	0.644463	-0.181832
H101	H	-0.170110	0.651955	-0.107383
H102	H	-0.188039	0.574596	-0.125260
H103	H	-0.227952	0.638425	-0.122326
H104	H	-0.146502	0.631893	-0.189540
H105	H	-0.186409	0.695738	-0.186607
H106	H	-0.312411	0.978086	-1.052850
C107	C	-0.355663	1.006023	-0.412261
C108	C	-0.322086	0.964547	-0.443659
H109	H	-0.378349	0.974059	-0.393718
H110	H	-0.375663	1.038053	-0.433565
H111	H	-0.335746	1.034075	-0.388202
H112	H	-0.342003	0.936498	-0.467721
H113	H	-0.302083	0.932503	-0.422353
C114	C	-0.177677	1.256648	-0.663464
C115	C	-0.148196	1.209417	-0.694868
H116	H	-0.154978	1.288592	-0.644944
H117	H	-0.197595	1.228598	-0.639389
H118	H	-0.200446	1.284796	-0.684764
H119	H	-0.125430	1.181266	-0.673568
H120	H	-0.128269	1.237470	-0.718946
H121	H	-0.191202	1.148890	-0.550522
C122	C	-0.351610	0.533010	-0.351266
C123	C	-0.322219	0.483060	-0.321976
H124	H	-0.374339	0.506923	-0.373915
H125	H	-0.328859	0.563015	-0.371303
H126	H	-0.371573	0.562960	-0.328441
H127	H	-0.302253	0.453113	-0.344800
H128	H	-0.344973	0.453043	-0.301936
C129	C	-0.478602	1.203501	-0.152439
C130	C	-0.443122	1.162143	-0.181752
H131	H	-0.460063	1.235458	-0.129769
H132	H	-0.499931	1.171467	-0.132423
H133	H	-0.499869	1.231636	-0.175248
H134	H	-0.421858	1.134004	-0.158943
H135	H	-0.421784	1.194181	-0.201770
H136	H	-0.191169	0.494059	-0.191357
H137	H	-0.312427	0.978051	-0.953801
C138	C	-0.589068	1.209481	-0.211295
C139	C	-0.557729	1.162226	-0.181769
H140	H	-0.607567	1.241468	-0.188626
H141	H	-0.613162	1.181451	-0.231181
H142	H	-0.567727	1.237581	-0.234095
H143	H	-0.579071	1.134122	-0.158971
H144	H	-0.533632	1.190259	-0.161875
H145	H	-0.702064	1.195960	-0.157896
C146	C	-0.773364	1.250743	-0.119064
C147	C	-0.808886	1.209433	-0.148386
H148	H	-0.791871	1.282708	-0.096386
H149	H	-0.752042	1.278861	-0.141862
H150	H	-0.752096	1.218674	-0.099050
H151	H	-0.830153	1.241502	-0.168403
H152	H	-0.830218	1.181313	-0.125584
C153	C	-0.980951	1.203759	-0.152492
C154	C	-0.945469	1.162409	-0.181808
H155	H	-0.962414	1.235717	-0.129822
H156	H	-1.002277	1.171720	-0.132476
H157	H	-1.002221	1.231892	-0.175299
H158	H	-0.924201	1.134271	-0.159001
H159	H	-0.924134	1.194452	-0.201825
H160	H	-1.052382	0.978129	-0.312554
C161	C	-1.113789	1.152629	-0.188953
C162	C	-1.060093	1.162525	-0.181867
H163	H	-1.132305	1.184658	-0.166330
H164	H	-1.122794	1.103220	-0.181226
H165	H	-1.122682	1.163309	-0.224108
H166	H	-1.051199	1.151839	-0.146712
H167	H	-1.051084	1.211944	-0.189590
C168	C	-0.981076	0.923339	-0.351386
C169	C	-0.945557	0.964660	-0.322067
H170	H	-0.962567	0.891361	-0.374052
H171	H	-1.002339	0.955396	-0.371407
H172	H	-1.002404	0.895228	-0.328580
H173	H	-0.924231	0.992775	-0.344873
H174	H	-0.924285	0.932599	-0.302045
H175	H	-0.801218	0.930925	-0.345950
H176	H	-0.702168	0.930888	-0.345943
C177	C	-0.522354	0.923111	-0.351343
C178	C	-0.557833	0.964467	-0.322027
H179	H	-0.540894	0.891169	-0.374022
H180	H	-0.501095	0.894968	-0.328541
H181	H	-0.501018	0.955153	-0.371355
H182	H	-0.579167	0.932425	-0.302012
H183	H	-0.579102	0.992612	-0.344832
C184	C	-0.389510	0.974338	-0.314949
C185	C	-0.443205	0.964410	-0.322012
H186	H	-0.370993	0.942378	-0.337622
H187	H	-0.380589	0.963590	-0.279816
H188	H	-0.380531	1.023778	-0.322628
H189	H	-0.452185	0.914971	-0.314329
H190	H	-0.452130	0.975152	-0.357153
C191	C	-0.152355	1.203635	-0.479195
C192	C	-0.181712	1.162294	-0.443692
H193	H	-0.129666	1.235591	-0.460674
H194	H	-0.175131	1.231763	-0.500492
H195	H	-0.132352	1.171585	-0.500492
H196	H	-0.201718	1.194344	-0.422397
H197	H	-0.158933	1.134163	-0.422386
C198	C	-0.384757	0.876133	-0.773929
C199	C	-0.355412	0.917480	-0.809438
H200	H	-0.407437	0.844159	-0.792445
H201	H	-0.404765	0.908172	-0.752636
H202	H	-0.361969	0.848017	-0.752629
H203	H	-0.378200	0.945601	-0.830736
H204	H	-0.335404	0.885437	-0.830740
C205	C	-0.389023	0.958943	-0.663427
C206	C	-0.355440	0.917473	-0.694821
H207	H	-0.411715	0.926977	-0.644893
H208	H	-0.409018	0.990981	-0.684731
H209	H	-0.369111	0.986989	-0.639359
H210	H	-0.375352	0.889431	-0.718892
H211	H	-0.335444	0.885422	-0.673515
H212	H	-0.157704	1.196035	-0.801700
C213	C	-0.351416	0.923217	-0.522792
C214	C	-0.322060	0.964561	-0.558294
H215	H	-0.374096	0.891250	-0.541314
H216	H	-0.371423	0.955258	-0.501501
H217	H	-0.328635	0.895092	-0.501489
H218	H	-0.344840	0.992690	-0.579594
H219	H	-0.302051	0.932515	-0.579594
H220	H	-0.191104	1.148973	-0.953819
H221	H	-0.191083	1.148986	-1.052884
