data_functionalizedCrystal
_audit_creation_method	'MofGen! by Chris Wilmer'
_symmetry_space_group_name_H-M	'P1'
_symmetry_Int_Tables_number	1
_symmetry_cell_setting	triclinic
loop_
_symmetry_equiv_pos_as_xyz
  x,y,z
_cell_length_a	19.121063
_cell_length_b	12.759401
_cell_length_c	12.759393
_cell_angle_alpha	90.019465
_cell_angle_beta	92.402864
_cell_angle_gamma	87.532891
loop_
_atom_site_label
_atom_site_type_symbol
_atom_site_fract_x
_atom_site_fract_y
_atom_site_fract_z
Zn1	Zn	-0.279604	-1.588319	-0.611802
Zn2	Zn	-0.397073	-1.580677	-0.443597
Zn3	Zn	-0.279637	-1.412619	-0.436140
Zn4	Zn	-0.397015	-1.405077	-0.619231
O5	O	-0.338332	-1.496673	-0.527692
O6	O	-0.295197	-1.734325	-0.589500
O7	O	-0.381533	-1.558342	-0.295589
O8	O	-0.181349	-1.442279	-0.453212
O9	O	-0.381501	-1.728711	-0.465921
O10	O	-0.181324	-1.571365	-0.582270
O11	O	-0.295253	-1.434870	-0.290111
O12	O	-0.295197	-1.264598	-0.460416
O13	O	-0.381402	-1.429426	-0.765264
O14	O	-0.381434	-1.259057	-0.594933
O15	O	-0.295141	-1.564053	-0.759806
O16	O	-0.495349	-1.551030	-0.473125
O17	O	-0.495306	-1.422017	-0.602163
C18	C	-0.338313	-1.223707	-0.527672
C19	C	-0.338322	-1.106930	-0.527689
C20	C	-0.293463	-1.054986	-0.592145
C21	C	-0.293467	-0.945262	-0.592151
C22	C	-0.383195	-0.939434	-0.463242
C23	C	-0.383187	-1.049156	-0.463232
C24	C	-0.520812	-1.484905	-0.539282
C25	C	-0.598877	-1.479966	-0.544275
C26	C	-0.635551	-1.544868	-0.479494
C27	C	-0.708902	-1.540230	-0.484196
C28	C	-0.745577	-1.470683	-0.553676
C29	C	-0.708898	-1.405779	-0.618464
C30	C	-0.635549	-1.410423	-0.613767
C31	C	-0.967046	-1.453302	-0.571223
C32	C	-1.040400	-1.448661	-0.575914
C33	C	-1.040399	-1.583114	-0.441646
C34	C	-0.967048	-1.587747	-0.436950
C35	C	-0.930375	-1.522847	-0.501743
C36	C	-0.820554	-1.465938	-0.558481
C37	C	-0.855400	-1.527598	-0.496942
C38	C	-0.155140	-1.508516	-0.516080
C39	C	-0.077074	-1.513563	-0.511132
C40	C	-0.338261	-1.496751	-0.801721
C41	C	-0.338231	-1.496784	-0.918496
C42	C	-0.338345	-0.770705	-0.527709
C43	C	-0.338334	-0.887483	-0.527705
C44	C	-0.293297	-1.432517	-0.970505
C45	C	-0.293275	-1.432543	-1.080227
C46	C	-0.383124	-1.561112	-1.085924
C47	C	-0.383148	-1.561080	-0.976203
C48	C	-0.338352	-1.496659	-0.254726
C49	C	-0.338185	-1.496842	-0.137940
H50	H	-0.605695	-1.601496	-0.422912
O51	O	-0.426822	-1.623611	-0.925839
C52	C	-0.466470	-1.680354	-1.000298
H53	H	-0.437687	-1.685882	-1.076691
H54	H	-0.519805	-1.638432	-1.015342
C55	C	-0.511967	-1.784711	-0.864291
C56	C	-0.476612	-1.791508	-0.958115
H57	H	-0.518226	-1.853274	-0.838270
H58	H	-0.485257	-1.746480	-0.814125
H59	H	-0.556409	-1.749771	-0.876840
H60	H	-0.432167	-1.826435	-0.945562
H61	H	-0.503314	-1.829748	-1.008278
H62	H	-0.850423	-1.409311	-0.615050
O63	O	-0.744657	-1.603197	-0.421363
C64	C	-0.787219	-1.540849	-0.356159
H65	H	-0.798180	-1.460442	-0.393719
H66	H	-0.759091	-1.531284	-0.276391
C67	C	-0.843436	-1.693038	-0.295816
C68	C	-0.856904	-1.594284	-0.341953
H69	H	-0.886420	-1.726000	-0.287048
H70	H	-0.814760	-1.735045	-0.339742
H71	H	-0.819995	-1.685054	-0.229348
H72	H	-0.880336	-1.602271	-0.408424
H73	H	-0.885586	-1.552280	-0.298037
H74	H	-0.825537	-1.584227	-0.440375
H75	H	-0.256722	-1.380163	-0.923523
H76	H	-0.419723	-0.892381	-0.410764
H77	H	-0.738765	-1.349157	-0.675041
H78	H	-0.256686	-1.380209	-1.122568
O79	O	-0.249844	-1.111225	-0.654602
C80	C	-0.204417	-1.177570	-0.592008
H81	H	-0.229125	-1.192388	-0.513897
H82	H	-0.152364	-1.138625	-0.577288
C83	C	-0.161390	-1.264432	-0.744973
C84	C	-0.191739	-1.282640	-0.649038
H85	H	-0.153566	-1.329242	-0.780152
H86	H	-0.191992	-1.219732	-0.787144
H87	H	-0.118015	-1.231976	-0.732692
H88	H	-0.235116	-1.315083	-0.661320
H89	H	-0.161143	-1.327348	-0.606870
O90	O	-0.931536	-1.390139	-0.634185
C91	C	-0.979638	-1.327773	-0.696523
H92	H	-1.031950	-1.320862	-0.656836
H93	H	-0.987373	-1.365700	-0.776852
C94	C	-0.886819	-1.226236	-0.758462
C95	C	-0.951068	-1.217741	-0.709713
H96	H	-0.869195	-1.158365	-0.766603
H97	H	-0.854411	-1.268256	-0.716467
H98	H	-0.893273	-1.257846	-0.825398
H99	H	-0.944611	-1.186144	-0.642774
H100	H	-0.983474	-1.175714	-0.751697
O101	O	-0.249969	-0.894848	-0.654922
C102	C	-0.265392	-0.920731	-0.760570
H103	H	-0.321504	-0.947282	-0.769293
H104	H	-0.227757	-0.986855	-0.785733
C105	C	-0.188363	-0.791204	-0.819489
C106	C	-0.257283	-0.823806	-0.830204
H107	H	-0.183358	-0.731418	-0.862444
H108	H	-0.177969	-0.773768	-0.748312
H109	H	-0.157008	-0.846316	-0.840457
H110	H	-0.288635	-0.768698	-0.809224
H111	H	-0.267681	-0.841230	-0.901379
O112	O	-0.426867	-1.099567	-0.400735
C113	C	-0.496887	-1.068247	-0.427952
H114	H	-0.500504	-1.037886	-0.512107
H115	H	-0.515208	-1.003358	-0.372747
C116	C	-0.539298	-1.199991	-0.315218
C117	C	-0.543741	-1.162710	-0.418582
H118	H	-0.568201	-1.258258	-0.309434
H119	H	-0.492124	-1.221090	-0.296878
H120	H	-0.554564	-1.145908	-0.269225
H121	H	-0.528467	-1.216788	-0.464571
H122	H	-0.590914	-1.141622	-0.436930
O123	O	-0.600029	-1.347274	-0.676739
C124	C	-0.648126	-1.284915	-0.739092
H125	H	-0.700437	-1.277978	-0.699402
H126	H	-0.655868	-1.322864	-0.819409
C127	C	-0.555297	-1.183423	-0.801069
C128	C	-0.619544	-1.174896	-0.752317
H129	H	-0.537666	-1.115560	-0.809232
H130	H	-0.522893	-1.225438	-0.759064
H131	H	-0.561757	-1.215052	-0.867995
H132	H	-0.613082	-1.143280	-0.685388
H133	H	-0.651947	-1.132873	-0.794312
H134	H	-0.937189	-1.644378	-0.380375
H135	H	-0.419693	-1.613460	-1.132922
H136	H	-1.070266	-1.635954	-0.388897
H137	H	-1.070259	-1.392040	-0.632511
