data_functionalizedCrystal
_audit_creation_method	'MofGen! by Chris Wilmer'
_symmetry_space_group_name_H-M	'P1'
_symmetry_Int_Tables_number	1
_symmetry_cell_setting	triclinic
loop_
_symmetry_equiv_pos_as_xyz
  x,y,z
_cell_length_a	14.446369
_cell_length_b	21.606444
_cell_length_c	21.606444
_cell_angle_alpha	59.998659
_cell_angle_beta	90.000185
_cell_angle_gamma	60.002910
loop_
_atom_site_label
_atom_site_type_symbol
_atom_site_fract_x
_atom_site_fract_y
_atom_site_fract_z
Zr1	Zr	0.891754	0.677480	-0.081258
O2	O	0.743952	0.806597	-0.180080
O3	O	0.937058	0.548363	-0.050963
O4	O	0.937055	0.677486	-0.180087
O5	O	0.743963	0.677469	0.050897
O6	O	1.089384	0.677492	-0.180092
O7	O	0.743955	0.677474	-0.050957
O8	O	1.089389	0.446514	0.050886
O9	O	0.743958	0.908447	-0.180081
O10	O	1.070067	0.601475	-0.038048
O11	O	0.956391	0.601468	0.037969
O12	O	0.956388	0.753494	-0.114057
O13	O	0.842713	0.753486	-0.038040
Zr14	Zr	1.134713	0.677482	0.081179
Zr15	Zr	1.134701	0.677489	-0.081267
Zr16	Zr	0.891766	0.677473	0.081187
Zr17	Zr	0.891763	0.839920	-0.081259
Zr18	Zr	1.134704	0.515043	0.081179
O19	O	1.089409	0.806599	0.050884
O20	O	1.089391	0.806609	-0.180093
O21	O	0.743970	0.806587	0.050896
O22	O	1.282514	0.548366	0.180001
O23	O	1.282497	0.548376	-0.050976
O24	O	0.937075	0.548353	0.180013
O25	O	1.282504	0.677493	-0.050977
O26	O	1.089411	0.677476	0.180007
O27	O	0.937083	0.677471	0.180012
O28	O	1.282512	0.677489	0.050878
O29	O	0.937068	0.908454	-0.180088
O30	O	1.089398	0.446508	0.180008
O31	O	1.282509	0.446515	0.180001
O32	O	1.282499	0.446521	0.050879
O33	O	0.743968	0.908441	-0.050958
O34	O	0.937078	0.908449	-0.050965
O35	O	1.070078	0.601469	0.113977
O36	O	1.183754	0.601476	0.037961
O37	O	1.070075	0.753495	-0.038049
O38	O	0.956400	0.753487	0.037968
C39	C	1.013222	0.474294	-0.000039
C40	C	1.013218	0.405334	-0.000038
C41	C	1.072587	-0.017970	-0.039720
C42	C	1.072579	0.046830	-0.039723
C43	C	1.013238	0.079223	-0.000043
C44	C	0.953892	0.046819	0.039637
C45	C	0.953894	-0.017976	0.039635
C46	C	0.953880	0.308130	0.039644
C47	C	0.953885	0.372927	0.039645
C48	C	1.072565	0.372936	-0.039714
C49	C	1.072567	0.308141	-0.039715
C50	C	1.013217	0.275745	-0.000039
C51	C	1.013225	0.205483	-0.000038
C52	C	1.013236	0.149480	-0.000039
C53	C	0.709344	0.677470	-0.000029
C54	C	0.606207	0.677466	-0.000025
C55	C	0.531222	0.581598	0.047665
C56	C	0.638551	0.581534	0.047938
C57	C	0.531652	0.725087	0.034944
C58	C	0.424793	0.724478	0.035288
C59	C	0.423211	0.726458	-0.082762
C60	C	0.531882	0.724651	-0.082626
C61	C	1.317123	0.677492	-0.000051
C62	C	1.420260	0.677496	-0.000054
C63	C	1.013218	0.677490	-0.203234
C64	C	1.013213	0.677493	-0.272197
C65	C	1.013245	0.880668	-0.000041
C66	C	1.013249	0.949628	-0.000041
C67	C	0.953873	0.756844	-0.344272
C68	C	0.953883	0.756842	-0.409066
C69	C	1.013226	0.677487	-0.401785
C70	C	1.072573	0.598129	-0.329703
C71	C	1.072569	0.598133	-0.264909
C72	C	1.072591	0.598114	-0.591006
C73	C	1.072588	0.598117	-0.655806
C74	C	0.953905	0.756823	-0.735163
C75	C	0.953901	0.756827	-0.670369
C76	C	1.013252	0.677470	-0.598293
C77	C	1.013243	0.677473	-0.528036
C78	C	1.013230	0.677483	-0.472041
C79	C	1.013249	0.677472	0.203155
C80	C	1.013254	0.677469	0.272117
C81	C	1.317111	0.474305	-0.000050
C82	C	1.420245	0.405349	-0.000053
C83	C	1.013237	0.474286	0.203156
C84	C	1.013239	0.405323	0.272119
C85	C	1.317127	0.474297	0.203145
C86	C	1.420265	0.405338	0.272104
C87	C	0.709340	0.880666	-0.203225
C88	C	0.606201	0.949625	-0.272184
C89	C	0.709355	0.880657	-0.000030
C90	C	0.606222	0.949613	-0.000027
C91	C	1.013229	0.880677	-0.203236
C92	C	1.013228	0.949640	-0.272198
C93	C	1.409334	0.372966	-0.039737
C94	C	1.506229	0.308184	-0.039755
C95	C	1.614035	0.275781	-0.000085
C96	C	1.624943	0.308170	0.039601
C97	C	1.528049	0.372956	0.039614
C98	C	1.072583	0.372938	0.344187
C99	C	1.072580	0.308149	0.408991
C100	C	1.013239	0.275742	0.401725
C101	C	0.953887	0.308134	0.329649
C102	C	0.953884	0.372926	0.264847
C103	C	1.528048	0.372958	0.264808
C104	C	1.624967	0.308172	0.329596
C105	C	1.614101	0.275764	0.401680
C106	C	1.506307	0.308150	0.408974
C107	C	1.409390	0.372939	0.344187
C108	C	0.498419	0.982013	-0.264888
C109	C	0.401500	1.046818	-0.329676
C110	C	0.412366	1.079230	-0.401759
C111	C	0.520160	1.046839	-0.409054
C112	C	0.617076	0.982040	-0.344266
C113	C	0.617133	0.982003	0.039651
C114	C	0.520237	1.046803	0.039651
C115	C	0.412432	1.079208	-0.000022
C116	C	0.401523	1.046816	-0.039704
C117	C	0.498418	0.982021	-0.039709
C118	C	1.072581	0.982026	-0.264908
C119	C	1.072602	1.046815	-0.329700
C120	C	1.013262	1.079221	-0.401781
C121	C	0.953908	1.046829	-0.409069
C122	C	0.953894	0.982036	-0.344278
H123	H	1.120888	0.399322	-0.072023
H124	H	1.013282	1.131980	-0.454532
H125	H	1.120896	0.073212	-0.072032
C126	C	0.888707	0.272427	0.083366
N127	N	0.839656	0.245506	0.116326
H128	H	0.583258	0.692007	0.095230
H129	H	0.905596	1.073224	-0.467766
C130	C	1.137892	1.082439	-0.321665
N131	N	1.187068	1.109270	-0.315612
C132	C	0.735710	0.946374	0.083293
N133	N	0.825020	0.919546	0.116162
C134	C	1.137845	0.510840	-0.185624
N135	N	1.187014	0.445088	-0.125906
C136	C	1.743529	0.272551	0.321555
N137	N	1.832828	0.245721	0.315497
C138	C	1.494204	0.272560	-0.083406
N139	N	1.485144	0.245728	-0.116282
C140	C	1.137865	-0.053595	-0.083374
N141	N	1.187029	-0.080421	-0.116260
C142	C	0.735635	0.946410	-0.352305
N143	N	0.824933	0.919575	-0.358365
H144	H	0.489518	0.955651	-0.072016
C145	C	0.888611	0.408533	0.185573
N146	N	0.839446	0.435348	0.125865
C147	C	1.137879	0.510816	-0.647790
N148	N	1.187053	0.445065	-0.641754
C149	C	0.282926	1.082459	-0.083329
N150	N	0.193596	1.109300	-0.116180
H151	H	0.905557	0.955674	-0.350225
H152	H	0.333441	1.131994	-0.454507
H153	H	0.528994	1.073238	-0.467752
C154	C	0.532262	1.082416	0.083313
N155	N	0.541323	1.109236	0.116201
C156	C	1.137886	0.272522	0.488267
N157	N	1.187079	0.245687	0.547976
H158	H	0.692811	0.544184	0.024472
H159	H	1.120893	0.281765	-0.072024
H160	H	1.321562	0.399348	-0.072051
H161	H	0.905556	0.399302	0.071957
C162	C	0.305856	1.150481	-0.000006
N163	N	0.225586	1.204161	0.000012
H164	H	1.692923	0.223028	-0.000101
H165	H	0.905573	0.281738	0.323745
C166	C	1.540029	0.408600	0.185522
N167	N	1.549062	0.435446	0.125805
H168	H	0.905570	0.073202	0.071942
C169	C	1.720724	0.204488	0.472941
N170	N	1.801036	0.150799	0.526612
C171	C	0.711218	0.530728	0.130366
N172	N	0.765951	0.492460	0.192454
H173	H	0.533553	0.543960	0.024331
C174	C	0.532865	0.531118	0.129681
N175	N	0.534186	0.493143	0.191488
C176	C	0.425164	0.678746	0.117511
N177	N	0.425452	0.644296	0.179443
H178	H	0.905572	-0.044355	0.071944
H179	H	0.346215	0.794837	0.002777
H180	H	0.504423	0.795623	0.001863
H181	H	1.120902	0.955651	-0.206222
C182	C	0.486438	0.946377	-0.185602
N183	N	0.477405	0.919545	-0.125885
C184	C	0.417653	0.684999	-0.122226
N185	N	0.413474	0.653762	-0.151942
H186	H	0.583301	0.689930	-0.108750
H187	H	0.344998	0.797103	-0.118483
C188	C	0.497412	0.819203	-0.134700
N189	N	0.471450	0.890421	-0.173921
H190	H	1.497476	0.281754	0.467673
H191	H	1.712731	0.281779	0.071899
C192	C	1.137869	0.510819	-0.511729
N193	N	1.187036	0.445064	-0.452013
H194	H	0.905541	0.821464	-0.350210
H195	H	0.905573	0.821446	-0.676305
C196	C	0.888555	0.844135	-0.488349
N197	N	0.839331	0.909888	-0.548066
H198	H	0.905581	0.821440	-0.793857
H199	H	1.536949	0.399314	0.071934
H200	H	1.321633	0.399294	0.350138
H201	H	1.120906	0.399316	0.350117
C202	C	1.137849	0.510838	-0.321695
N203	N	1.187011	0.445088	-0.315662
H204	H	1.013250	0.222984	0.454498
H205	H	0.313739	1.073179	-0.323722
