data_functionalizedCrystal
_audit_creation_method	'MofGen! by Chris Wilmer'
_symmetry_space_group_name_H-M	'P1'
_symmetry_Int_Tables_number	1
_symmetry_cell_setting	triclinic
loop_
_symmetry_equiv_pos_as_xyz
  x,y,z
_cell_length_a	21.395362
_cell_length_b	18.050589
_cell_length_c	21.395356
_cell_angle_alpha	89.979995
_cell_angle_beta	89.964230
_cell_angle_gamma	90.044101
loop_
_atom_site_label
_atom_site_type_symbol
_atom_site_fract_x
_atom_site_fract_y
_atom_site_fract_z
Zn1	Zn	0.957820	-0.295379	-0.354610
Zn2	Zn	0.957742	-0.419566	-0.249843
Zn3	Zn	0.853050	-0.295429	-0.249811
Zn4	Zn	0.853008	-0.419566	-0.354547
O5	O	0.905405	-0.357485	-0.302203
O6	O	1.045487	-0.311831	-0.340752
O7	O	0.943839	-0.403120	-0.162161
O8	O	0.866998	-0.191497	-0.263726
O9	O	1.045430	-0.403071	-0.263780
O10	O	0.943972	-0.191461	-0.340721
O11	O	0.866922	-0.311917	-0.162138
O12	O	0.765366	-0.311917	-0.263665
O13	O	0.866927	-0.403071	-0.442234
O14	O	0.765336	-0.403120	-0.340615
O15	O	0.943932	-0.311831	-0.442280
O16	O	0.943799	-0.523490	-0.263719
O17	O	0.866852	-0.523490	-0.340645
C18	C	0.742617	-0.357524	-0.302130
C19	C	0.672976	-0.357559	-0.302114
C20	C	0.640264	-0.405111	-0.342121
C21	C	0.574828	-0.405093	-0.342149
C22	C	0.542108	-0.357530	-0.302159
C23	C	0.574828	-0.309969	-0.262148
C24	C	0.640262	-0.309983	-0.262126
C25	C	0.438391	-0.351556	-0.245753
C26	C	0.372958	-0.351547	-0.245774
C27	C	0.340287	-0.357482	-0.302228
C28	C	0.373057	-0.363441	-0.358662
C29	C	0.438491	-0.363456	-0.358640
C30	C	0.471155	-0.357509	-0.302179
C31	C	0.236622	-0.405017	-0.342269
C32	C	0.171185	-0.404993	-0.342298
C33	C	0.171187	-0.309873	-0.262291
C34	C	0.236622	-0.309892	-0.262268
C35	C	0.269336	-0.357468	-0.302256
C36	C	0.905329	-0.550437	-0.302192
C37	C	0.905354	-0.632983	-0.302209
C38	C	0.863552	-0.832460	-0.344027
C39	C	0.848281	-0.881901	-0.286848
C40	C	0.905416	-0.784113	-0.302217
C41	C	0.920717	-0.881754	-0.359402
C42	C	0.905474	-0.930098	-0.302230
C43	C	0.890116	-0.832467	-0.245009
C44	C	0.962577	-0.832315	-0.317601
C45	C	0.947329	-0.881734	-0.260383
C46	C	0.905381	-0.700015	-0.302211
C47	C	0.905509	-1.014195	-0.302230
C48	C	1.068828	-0.357446	-0.302276
C49	C	1.138470	-0.357429	-0.302307
C50	C	0.905434	-0.357446	-0.465626
C51	C	0.905446	-0.357429	-0.535268
C52	C	0.905498	-0.163779	-0.302227
C53	C	0.905538	-0.081233	-0.302237
C54	C	0.945567	-0.404763	-1.037077
C55	C	0.945556	-0.404786	-0.971641
C56	C	0.905506	-0.357311	-0.938906
C57	C	0.865453	-0.309823	-0.971612
C58	C	0.865461	-0.309806	-1.037046
C59	C	0.900578	-0.290430	-0.835244
C60	C	0.900574	-0.290446	-0.769811
C61	C	0.905477	-0.357364	-0.737085
C62	C	0.910397	-0.424269	-0.769801
C63	C	0.910405	-0.424252	-0.835235
C64	C	0.905492	-0.357325	-0.867954
C65	C	0.945513	-0.404879	-0.633435
C66	C	0.945497	-0.404904	-0.567998
C67	C	0.865397	-0.309933	-0.567970
C68	C	0.865410	-0.309915	-0.633405
C69	C	0.905471	-0.357387	-0.666134
C70	C	0.905412	-0.357470	-0.139415
C71	C	0.905522	-0.357277	-0.069774
H72	H	0.666896	-0.271258	-0.229547
C73	C	0.895163	-0.216857	-0.733827
H74	H	0.895868	-0.226449	-0.690170
H75	H	0.857030	-0.193122	-0.744532
H76	H	0.929263	-0.185602	-0.744572
C77	C	0.815662	-0.803225	-0.391725
H78	H	0.836542	-0.774221	-0.422369
H79	H	0.785509	-0.773598	-0.370831
H80	H	0.795395	-0.843828	-0.411411
H81	H	0.978186	-0.443420	-1.063720
C82	C	0.938196	-0.910964	-0.424728
H83	H	0.975185	-0.939858	-0.421945
H84	H	0.945102	-0.870349	-0.452127
H85	H	0.905086	-0.940706	-0.440413
C86	C	0.474539	-0.370008	-0.420710
H87	H	0.518187	-0.369172	-0.412608
H88	H	0.463876	-0.329651	-0.447129
H89	H	0.463800	-0.415255	-0.440680
H90	H	0.832850	-0.271136	-1.063668
H91	H	0.982757	-0.903233	-0.224991
H92	H	0.464986	-0.346719	-0.199778
H93	H	0.978131	-0.443535	-0.660084
C94	C	0.783016	-0.911330	-0.269270
H95	H	0.785896	-0.940295	-0.232303
H96	H	0.767307	-0.941034	-0.302373
H97	H	0.755583	-0.870807	-0.262282
H98	H	0.978103	-0.443579	-0.541376
C99	C	0.872582	-0.803347	-0.179668
H100	H	0.872645	-0.750717	-0.180068
H101	H	0.902152	-0.820611	-0.149948
H102	H	0.832120	-0.820739	-0.168685
H103	H	1.010879	-0.810520	-0.330628
C104	C	0.135202	-0.257545	-0.218310
H105	H	0.091546	-0.264346	-0.224053
H106	H	0.145980	-0.207667	-0.227553
H107	H	0.145872	-0.268346	-0.176188
C108	C	0.272608	-0.257594	-0.218251
H109	H	0.243750	-0.229268	-0.194433
H110	H	0.298185	-0.225279	-0.242253
H111	H	0.298081	-0.285972	-0.190900
H112	H	0.896626	-0.235929	-0.861883
H113	H	0.832786	-0.271280	-0.541318
C114	C	0.989608	-0.457021	-0.935666
H115	H	1.013469	-0.485288	-0.964529
H116	H	0.965624	-0.489393	-0.910123
H117	H	1.016917	-0.428602	-0.910158
C118	C	0.915813	-0.497838	-0.871223
H119	H	0.915120	-0.488240	-0.914879
H120	H	0.881715	-0.529092	-0.860481
H121	H	0.953949	-0.521575	-0.860518
H122	H	0.346458	-0.368273	-0.404632
H123	H	0.346281	-0.346698	-0.199822
C124	C	0.272610	-0.457339	-0.386259
H125	H	0.243753	-0.485650	-0.410098
H126	H	0.298086	-0.489666	-0.362238
H127	H	0.298185	-0.428974	-0.413591
C128	C	0.915787	-0.497883	-0.733812
H129	H	0.915070	-0.488315	-0.690156
H130	H	0.953921	-0.521619	-0.744549
H131	H	0.881686	-0.529126	-0.744519
H132	H	0.548183	-0.271241	-0.229589
C133	C	0.135201	-0.457314	-0.386300
H134	H	0.164059	-0.485656	-0.410103
H135	H	0.109721	-0.428957	-0.413655
H136	H	0.109630	-0.489624	-0.362280
H137	H	0.832803	-0.271245	-0.660028
C138	C	0.821401	-0.257599	-0.935606
H139	H	0.827136	-0.264404	-0.891952
H140	H	0.779299	-0.268476	-0.946306
H141	H	0.830598	-0.207693	-0.946342
H142	H	0.666895	-0.443850	-0.374684
H143	H	0.548188	-0.443815	-0.374731
