data_functionalizedCrystal
_audit_creation_method	'MofGen! by Chris Wilmer'
_symmetry_space_group_name_H-M	'P1'
_symmetry_Int_Tables_number	1
_symmetry_cell_setting	triclinic
loop_
_symmetry_equiv_pos_as_xyz
  x,y,z
_cell_length_a	16.992694
_cell_length_b	19.188924
_cell_length_c	15.455313
_cell_angle_alpha	92.653849
_cell_angle_beta	87.142206
_cell_angle_gamma	86.905094
loop_
_atom_site_label
_atom_site_type_symbol
_atom_site_fract_x
_atom_site_fract_y
_atom_site_fract_z
O1	O	1.043321	0.145161	-0.072029
O2	O	1.543321	0.645161	0.427971
O3	O	0.815043	0.143536	-0.072054
O4	O	1.315043	0.643536	0.427946
O5	O	0.935772	0.043078	-0.072030
O6	O	1.435772	0.543078	0.427970
O7	O	0.922592	0.245618	-0.072052
O8	O	1.422592	0.745618	0.427948
O9	O	0.928868	0.048798	0.072230
O10	O	1.428868	0.548798	0.572230
O11	O	0.808139	0.149255	0.072207
O12	O	1.308139	0.649255	0.572207
O13	O	1.036418	0.150880	0.072232
O14	O	1.536418	0.650880	0.572232
Cu15	Cu	0.921648	0.150590	0.085392
Cu16	Cu	1.421648	0.650590	0.585392
Cu17	Cu	0.929813	0.143826	-0.085213
Cu18	Cu	1.429813	0.643826	0.414787
O19	O	0.915688	0.251338	0.072209
O20	O	1.415688	0.751338	0.572209
C21	C	0.782386	0.144306	0.000073
C22	C	1.282386	0.644306	0.500073
C23	C	0.695364	0.138073	0.000064
C24	C	1.195364	0.638073	0.500064
C25	C	0.931894	0.019902	0.000101
C26	C	1.431894	0.519902	0.500101
C27	C	0.930616	-0.057677	0.000103
C28	C	1.430616	0.442323	0.500103
C29	C	0.644916	0.198212	0.000058
C30	C	1.144916	0.698212	0.500058
C31	C	0.563149	0.192352	0.000071
C32	C	1.063149	0.692352	0.500071
C33	C	0.531832	0.126352	0.000083
C34	C	1.031832	0.626352	0.500083
C35	C	0.582286	0.066208	0.000091
C36	C	1.082286	0.566208	0.500091
C37	C	0.664051	0.072069	0.000085
C38	C	1.164051	0.572069	0.500085
C39	C	0.288317	0.102060	0.000109
C40	C	0.788317	0.602060	0.500109
C41	C	0.206545	0.096203	0.000113
C42	C	0.706545	0.596203	0.500113
C43	C	0.187413	0.222348	0.000093
C44	C	0.687413	0.722348	0.500093
C45	C	0.269181	0.228203	0.000082
C46	C	0.769181	0.728203	0.500082
C47	C	0.319628	0.168060	0.000095
C48	C	0.819628	0.668060	0.500095
N49	N	0.448253	0.120360	0.000093
N50	N	0.948253	0.620360	0.500093
N51	N	0.403205	0.174052	0.000091
N52	N	0.903205	0.674052	0.500091
C53	C	0.933782	-0.097229	-0.078534
C54	C	1.433782	0.402771	0.421466
C55	C	0.932570	-0.170123	-0.078541
C56	C	1.432570	0.329877	0.421459
C57	C	0.928207	-0.203463	0.000094
C58	C	1.428207	0.296537	0.500094
C59	C	0.925035	-0.163902	0.078741
C60	C	1.425035	0.336098	0.578741
C61	C	0.926240	-0.091009	0.078746
C62	C	1.426240	0.408991	0.578746
N63	N	0.968126	-0.318306	0.058625
N64	N	1.468126	0.181694	0.558625
N65	N	0.966984	-0.387552	0.058615
N66	N	1.466984	0.112448	0.558615
C67	C	0.924576	-0.423085	0.000085
C68	C	1.424576	0.076915	0.500085
N69	N	0.883364	-0.386758	-0.058448
N70	N	1.383364	0.113242	0.441552
N71	N	0.884510	-0.317507	-0.058441
N72	N	1.384510	0.182493	0.441559
C73	C	0.926900	-0.282503	0.000098
C74	C	1.426900	0.217497	0.500098
C75	C	0.926427	-0.541677	-0.078564
C76	C	1.426427	-0.041677	0.421436
C77	C	0.925210	-0.614572	-0.078568
C78	C	1.425210	-0.114572	0.421432
C79	C	0.917683	-0.608350	0.078716
C80	C	1.417683	-0.108350	0.578716
C81	C	0.918893	-0.535456	0.078717
C82	C	1.418893	-0.035456	0.578717
C83	C	0.923268	-0.502124	0.000075
C84	C	1.423268	-0.002124	0.500075
C85	C	1.069075	0.150109	0.000103
C86	C	1.569075	0.650109	0.500103
C87	C	1.156097	0.156343	0.000107
C88	C	1.656097	0.656343	0.500107
C89	C	0.919566	0.274514	0.000075
C90	C	1.419566	0.774514	0.500075
C91	C	0.920845	0.352093	0.000068
C92	C	1.420845	0.852093	0.500068
N93	N	0.915911	0.155347	0.205386
N94	N	1.415911	0.655347	0.705386
N95	N	0.935555	0.139064	-0.205208
N96	N	1.435555	0.639064	0.294792
C97	C	0.967219	0.112687	0.250790
C98	C	1.467219	0.612687	0.750790
C99	C	0.962888	0.116291	0.341597
C100	C	1.462888	0.616291	0.841597
C101	C	0.907252	0.162560	0.386998
C102	C	1.407252	0.662560	0.886998
C103	C	0.855939	0.205222	0.341588
C104	C	1.355939	0.705222	0.841588
C105	C	0.860267	0.201613	0.250783
C106	C	1.360267	0.701613	0.750783
C107	C	0.888570	0.178117	0.658576
C108	C	1.388570	0.678117	1.158576
C109	C	0.884248	0.181724	0.749388
C110	C	1.384248	0.681724	1.249388
C111	C	0.991196	0.092792	0.749391
C112	C	1.491196	0.592792	1.249391
C113	C	0.995523	0.089191	0.658584
C114	C	1.495523	0.589191	1.158584
C115	C	0.944207	0.131850	0.613181
C116	C	1.444207	0.631850	1.113181
N117	N	0.902825	0.166247	0.479818
N118	N	1.402825	0.666247	0.979818
N119	N	0.948630	0.128159	0.520364
N120	N	1.448630	0.628159	1.020364
H121	H	0.670407	0.251957	0.000047
H122	H	1.170407	0.751957	0.500047
H123	H	0.818486	0.236351	0.213815
H124	H	1.318486	0.736351	0.713815
H125	H	0.181051	0.042455	0.000122
H126	H	0.681051	0.542455	0.500122
H127	H	1.012527	0.075013	0.213831
H128	H	1.512527	0.575013	0.713831
H129	H	0.846788	0.212853	0.621617
H130	H	1.346788	0.712853	1.121617
H131	H	0.916321	-0.503253	0.142752
H132	H	1.416321	-0.003253	0.642752
H133	H	0.935144	-0.202332	-0.142578
H134	H	1.435144	0.297668	0.357422
H135	H	0.522076	0.241324	0.000065
H136	H	1.022076	0.741324	0.500065
H137	H	0.927785	-0.646773	-0.142606
H138	H	1.427785	-0.146773	0.357394
H139	H	0.923658	-0.058806	0.142783
H140	H	1.423658	0.441194	0.642783
H141	H	0.810635	0.242892	0.378559
H142	H	1.310635	0.742892	0.878559
H143	H	0.838940	0.219404	0.786349
H144	H	1.338940	0.719404	1.286349
H145	H	0.929986	-0.514536	-0.142600
H146	H	1.429986	-0.014536	0.357400
H147	H	0.329381	0.053086	0.000120
H148	H	0.829381	0.553086	0.500120
H149	H	0.294673	0.281947	0.000062
H150	H	0.794673	0.781947	0.500062
H151	H	0.705126	0.023097	0.000089
H152	H	1.205126	0.523097	0.500089
H153	H	0.146331	0.271314	0.000085
H154	H	0.646331	0.771314	0.500085
H155	H	0.556781	0.012469	0.000114
H156	H	1.056781	0.512469	0.500114
H157	H	1.040826	0.051515	0.621620
H158	H	1.540826	0.551515	1.121620
H159	H	0.937343	-0.070095	-0.142571
H160	H	1.437343	0.429905	0.357429
H161	H	1.032974	0.058060	0.786366
H162	H	1.532974	0.558060	1.286366
H163	H	0.914125	-0.635495	0.142742
H164	H	1.414125	-0.135495	0.642742
H165	H	0.921481	-0.191053	0.142766
H166	H	1.421481	0.308947	0.642766
H167	H	1.004666	0.081554	0.378565
H168	H	1.504666	0.581554	0.878565
