data_functionalizedCrystal
_audit_creation_method	'MofGen! by Chris Wilmer'
_symmetry_space_group_name_H-M	'P1'
_symmetry_Int_Tables_number	1
_symmetry_cell_setting	triclinic
loop_
_symmetry_equiv_pos_as_xyz
  x,y,z
_cell_length_a	19.288864
_cell_length_b	10.489741
_cell_length_c	18.366186
_cell_angle_alpha	89.994090
_cell_angle_beta	89.977106
_cell_angle_gamma	83.837710
loop_
_atom_site_label
_atom_site_type_symbol
_atom_site_fract_x
_atom_site_fract_y
_atom_site_fract_z
O1	O	0.922420	0.159110	-0.060783
O2	O	1.422420	0.659110	0.439217
O3	O	0.720303	0.180573	-0.060733
O4	O	1.220303	0.680573	0.439267
O5	O	0.825960	-0.015860	-0.060755
O6	O	1.325960	0.484140	0.439245
O7	O	0.816762	0.355543	-0.060761
O8	O	1.316762	0.855543	0.439239
O9	O	0.825942	-0.015870	0.060344
O10	O	1.325942	0.484130	0.560344
O11	O	0.720285	0.180564	0.060366
O12	O	1.220285	0.680564	0.560366
O13	O	0.922402	0.159100	0.060316
O14	O	1.422402	0.659100	0.560316
Zn15	Zn	0.821340	0.169830	0.079568
Zn16	Zn	1.321340	0.669830	0.579568
Zn17	Zn	0.821364	0.169843	-0.079985
Zn18	Zn	1.321364	0.669843	0.420015
O19	O	0.816744	0.355534	0.060338
O20	O	1.316744	0.855534	0.560338
C21	C	0.694413	0.179878	-0.000177
C22	C	1.194413	0.679878	0.499823
C23	C	0.617295	0.177805	-0.000158
C24	C	1.117295	0.677805	0.499842
C25	C	0.573372	0.293063	-0.000171
C26	C	1.073372	0.793063	0.499829
C27	C	0.500912	0.291115	-0.000179
C28	C	1.000912	0.791115	0.499821
C29	C	0.472378	0.173903	-0.000189
C30	C	0.972378	0.673903	0.499811
C31	C	0.516311	0.058629	-0.000171
C32	C	1.016311	0.558629	0.499829
C33	C	0.588770	0.060580	-0.000156
C34	C	1.088770	0.560580	0.499844
C35	C	0.363505	0.081764	-0.042638
C36	C	0.863505	0.581764	0.457362
C37	C	0.291047	0.079818	-0.042658
C38	C	0.791047	0.579818	0.457342
C39	C	0.248892	0.167880	-0.000233
C40	C	0.748892	0.667880	0.499767
C41	C	0.279202	0.257911	0.042203
C42	C	0.779202	0.757911	0.542203
C43	C	0.351661	0.259862	0.042218
C44	C	0.851661	0.759862	0.542218
C45	C	0.393810	0.171774	-0.000205
C46	C	0.893810	0.671774	0.499795
C47	C	0.126399	0.281035	-0.000254
C48	C	0.626399	0.781035	0.499746
C49	C	0.053938	0.279082	-0.000257
C50	C	0.553938	0.779082	0.499743
C51	C	0.069339	0.046593	-0.000256
C52	C	0.569339	0.546593	0.499744
C53	C	0.141798	0.048549	-0.000245
C54	C	0.641798	0.548549	0.499755
C55	C	0.170324	0.165773	-0.000248
C56	C	0.670324	0.665773	0.499752
C57	C	0.825257	-0.063381	-0.000205
C58	C	1.325257	0.436619	0.499795
C59	C	0.823178	-0.204964	-0.000206
C60	C	1.323178	0.295036	0.499794
C61	C	0.755951	-0.271583	-0.000195
C62	C	1.255951	0.228417	0.499805
C63	C	0.787700	-0.364429	0.059505
C64	C	1.287700	0.135571	0.559505
C65	C	0.787734	-0.364394	-0.059889
C66	C	1.287734	0.135606	0.440111
C67	C	0.854954	-0.295944	0.059543
C68	C	1.354954	0.204056	0.559543
C69	C	0.854979	-0.295900	-0.059905
C70	C	1.354979	0.204100	0.440095
C71	C	0.886776	-0.388719	-0.000190
C72	C	1.386776	0.111281	0.499810
C73	C	0.948292	0.159796	-0.000241
C74	C	1.448292	0.659796	0.499759
C75	C	1.025409	0.161869	-0.000265
C76	C	1.525409	0.661869	0.499735
C77	C	0.817448	0.403055	-0.000213
C78	C	1.317448	0.903055	0.499787
C79	C	0.819526	0.544637	-0.000217
C80	C	1.319526	1.044637	0.499783
N81	N	0.821329	0.169821	0.188460
N82	N	1.321329	0.669821	0.688460
N83	N	0.821381	0.169842	-0.188876
N84	N	1.321381	0.669842	0.311124
C85	C	0.868130	0.082883	0.226550
C86	C	1.368130	0.582883	0.726550
C87	C	0.868134	0.082877	0.302778
C88	C	1.368134	0.582877	0.802778
C89	C	0.821344	0.169831	0.340912
C90	C	1.321344	0.669831	0.840912
C91	C	0.774535	0.256776	0.302812
C92	C	1.274535	0.756776	0.802812
C93	C	0.774527	0.256771	0.226586
C94	C	1.274527	0.756771	0.726586
C95	C	0.812826	0.286045	0.461672
C96	C	1.312826	0.786045	0.961672
C97	C	0.812838	0.286052	0.537897
C98	C	1.312838	0.786052	1.037897
C99	C	0.821364	0.169847	0.576020
C100	C	1.321364	0.669847	1.076020
C101	C	0.829893	0.053631	0.537908
C102	C	1.329893	0.553631	1.037908
C103	C	0.829885	0.053626	0.461682
C104	C	1.329885	0.553626	0.961682
C105	C	0.821347	0.169846	0.423567
C106	C	1.321347	0.669846	0.923567
C107	C	0.868172	0.082896	0.696766
C108	C	1.368172	0.582896	1.196766
C109	C	0.868172	0.082888	0.772995
C110	C	1.368172	0.582888	1.272995
C111	C	0.774576	0.256799	0.773027
C112	C	1.274576	0.756799	1.273027
C113	C	0.774573	0.256795	0.696800
C114	C	1.274573	0.756795	1.196800
C115	C	0.821375	0.169845	0.658673
C116	C	1.321375	0.669845	1.158673
H117	H	0.596592	0.388516	-0.000175
H118	H	1.096592	0.888516	0.499825
H119	H	0.046108	-0.048844	-0.000309
H120	H	0.546108	0.451156	0.499691
H121	H	0.883367	-0.265759	0.110072
H122	H	1.383367	0.234241	0.610072
H123	H	0.836835	-0.040993	0.568946
H124	H	1.336835	0.459007	1.068946
H125	H	0.759288	-0.394711	-0.110366
H126	H	1.259288	0.105289	0.389634
C127	C	0.919602	-0.012772	0.184615
C128	C	1.419602	0.487228	0.684615
H129	H	0.947472	-0.064558	0.218223
H130	H	1.447472	0.435442	0.718223
H131	H	0.948739	0.032967	0.154856
H132	H	1.448739	0.532967	0.654856
H133	H	0.894345	-0.065759	0.154902
H134	H	1.394345	0.434241	0.654902
H135	H	0.942099	-0.439394	-0.000170
H136	H	1.442099	0.060606	0.499830
C137	C	0.893358	-0.254730	-0.128105
C138	C	1.393358	0.245270	0.371895
H139	H	0.933085	-0.214651	-0.113775
H140	H	1.433085	0.285349	0.386225
H141	H	0.862916	-0.196100	-0.155691
H142	H	1.362916	0.303900	0.344309
H143	H	0.907750	-0.328026	-0.156924
H144	H	1.407750	0.171974	0.343076
H145	H	0.906246	0.012079	0.333797
H146	H	1.406246	0.512079	0.833797
C147	C	0.839255	-0.074197	0.419760
C148	C	1.339255	0.425803	0.919760
H149	H	0.844429	-0.143407	0.453374
H150	H	1.344429	0.356593	0.953374
H151	H	0.879622	-0.076893	0.389920
H152	H	1.379622	0.423107	0.889920
H153	H	0.799479	-0.081160	0.390128
H154	H	1.299479	0.418840	0.890128
C155	C	0.452587	0.417904	-0.000205
C156	C	0.952587	0.917904	0.499795
H157	H	0.479954	0.487996	-0.000211
H158	H	0.979954	0.987996	0.499789
H159	H	0.423971	0.421986	0.042014
H160	H	0.923971	0.921986	0.542014
H161	H	0.424032	0.421957	-0.042451
H162	H	0.924032	0.921957	0.457549
C163	C	0.919657	-0.012746	0.814895
C164	C	1.419657	0.487254	1.314895
H165	H	0.947532	-0.064518	0.781268
H166	H	1.447532	0.435482	1.281268
H167	H	0.894417	-0.065731	0.844648
H168	H	1.394417	0.434269	1.344648
H169	H	0.948797	0.033019	0.844611
H170	H	1.448797	0.533019	1.344611
H171	H	0.906279	0.012092	0.665722
H172	H	1.406279	0.512092	1.165722
C173	C	0.723108	0.352447	0.814966
C174	C	1.223108	0.852447	1.314966
H175	H	0.729817	0.340005	0.865820
H176	H	1.229817	0.840005	1.365820
H177	H	0.676685	0.338814	0.802498
H178	H	1.176685	0.838814	1.302498
H179	H	0.731078	0.437540	0.802462
H180	H	1.231078	0.937540	1.302462
H181	H	0.736466	0.327594	0.665784
H182	H	1.236466	0.827594	1.165784
C183	C	0.803463	0.413881	0.579813
C184	C	1.303463	0.913881	1.079813
H185	H	0.798372	0.483087	0.546192
H186	H	1.298372	0.983087	1.046192
H187	H	0.843186	0.420780	0.609524
H188	H	1.343186	0.920780	1.109524
H189	H	0.763034	0.416649	0.609572
H190	H	1.263034	0.916649	1.109572
H191	H	0.376337	0.333164	0.076773
H192	H	0.876337	0.833164	0.576773
C193	C	0.723049	0.352416	0.184684
C194	C	1.223049	0.852416	0.684684
H195	H	0.695184	0.404209	0.218310
H196	H	1.195184	0.904209	0.718310
H197	H	0.693908	0.306671	0.154964
H198	H	1.193908	0.806671	0.654964
H199	H	0.748302	0.405398	0.154935
H200	H	1.248302	0.905398	0.654935
H201	H	0.244881	0.329619	0.076750
H202	H	0.744881	0.829619	0.576750
C203	C	0.409868	-0.015102	-0.089315
C204	C	0.909868	0.484898	0.410685
H205	H	0.381440	-0.068982	-0.114600
H206	H	0.881440	0.431018	0.385400
H207	H	0.441532	-0.065848	-0.058730
H208	H	0.941532	0.434152	0.441270
H209	H	0.435227	0.029778	-0.123426
H210	H	0.935227	0.529778	0.376574
H211	H	0.177562	-0.045307	-0.000238
H212	H	0.677562	0.454693	0.499762
C213	C	0.723070	0.352427	0.344756
C214	C	1.223070	0.852427	0.844756
H215	H	0.729782	0.339989	0.395610
H216	H	1.229782	0.839989	0.895610
H217	H	0.676646	0.338793	0.332293
H218	H	1.176646	0.838793	0.832293
H219	H	0.731039	0.437520	0.332250
H220	H	1.231039	0.937520	0.832250
H221	H	0.700678	-0.220682	-0.000121
H222	H	1.200678	0.279318	0.499879
C223	C	0.157780	0.409973	-0.000249
C224	C	0.657780	0.909973	0.499751
H225	H	0.121240	0.478341	-0.000247
H226	H	0.621240	0.978341	0.499753
H227	H	0.185748	0.415572	-0.042474
H228	H	0.685748	0.915572	0.457526
H229	H	0.185704	0.415561	0.041991
H230	H	0.685704	0.915561	0.541991
H231	H	0.805871	0.380678	0.430639
H232	H	1.305871	0.880678	0.930639
H233	H	0.018175	0.372944	-0.000264
H234	H	0.518175	0.872944	0.499736
H235	H	0.266374	0.006515	-0.077214
H236	H	0.766374	0.506515	0.422786
H237	H	0.493075	-0.036806	-0.000189
H238	H	0.993075	0.463194	0.499811
H239	H	0.759247	-0.394801	0.109991
H240	H	1.259247	0.105199	0.609991
C241	C	0.637088	-0.066209	-0.000150
C242	C	1.137088	0.433791	0.499850
H243	H	0.609719	-0.136299	-0.000160
H244	H	1.109719	0.363701	0.499840
H245	H	0.665655	-0.070287	0.042083
H246	H	1.165655	0.429713	0.542083
H247	H	0.665692	-0.070271	-0.042382
H248	H	1.165692	0.429729	0.457618
