data_functionalizedCrystal
_audit_creation_method	'MofGen! by Chris Wilmer'
_symmetry_space_group_name_H-M	'P1'
_symmetry_Int_Tables_number	1
_symmetry_cell_setting	triclinic
loop_
_symmetry_equiv_pos_as_xyz
  x,y,z
_cell_length_a	15.995350
_cell_length_b	15.995350
_cell_length_c	15.072220
_cell_angle_alpha	89.998899
_cell_angle_beta	89.991149
_cell_angle_gamma	96.507625
loop_
_atom_site_label
_atom_site_type_symbol
_atom_site_fract_x
_atom_site_fract_y
_atom_site_fract_z
O1	O	1.110996	-0.107921	-0.073703
O2	O	1.610996	0.392079	0.426297
O3	O	0.867221	-0.121249	-0.073721
O4	O	1.367221	0.378751	0.426279
O5	O	0.995772	0.007303	-0.073710
O6	O	1.495772	0.507303	0.426290
O7	O	0.982444	-0.236472	-0.073713
O8	O	1.482444	0.263528	0.426287
O9	O	0.995740	0.007296	0.073855
O10	O	1.495740	0.507296	0.573855
O11	O	0.867189	-0.121256	0.073844
O12	O	1.367189	0.378744	0.573844
O13	O	1.110964	-0.107928	0.073862
O14	O	1.610964	0.392072	0.573862
Zn15	Zn	0.989071	-0.114593	0.097283
Zn16	Zn	1.489071	0.385407	0.597283
Zn17	Zn	0.989113	-0.114584	-0.097141
Zn18	Zn	1.489113	0.385416	0.402859
O19	O	0.982413	-0.236480	0.073852
O20	O	1.482413	0.263520	0.573852
C21	C	0.836010	-0.120701	0.000060
C22	C	1.336010	0.379299	0.500060
C23	C	0.743060	-0.119049	0.000053
C24	C	1.243060	0.380951	0.500053
C25	C	0.405312	-0.113117	0.000071
C26	C	0.905312	0.386883	0.500071
C27	C	0.452746	-0.021565	0.000401
C28	C	0.952746	0.478435	0.500401
C29	C	0.549436	-0.023217	0.000063
C30	C	1.049436	0.476783	0.500063
C31	C	0.572873	-0.116060	0.000063
C32	C	1.072873	0.383940	0.500063
C33	C	0.531804	-0.161212	-0.084201
C34	C	1.031804	0.338788	0.415799
C35	C	0.435168	-0.158912	-0.084266
C36	C	0.935168	0.341088	0.415734
C37	C	0.434793	-0.160812	0.083543
C38	C	0.934793	0.339188	0.583543
C39	C	0.531738	-0.160790	0.084651
C40	C	1.031738	0.339210	0.584651
C41	C	0.667570	-0.117727	0.000055
C42	C	1.167570	0.382273	0.500055
C43	C	0.310614	-0.111452	0.000073
C44	C	0.810614	0.388548	0.500073
C45	C	0.995205	0.038494	0.000070
C46	C	1.495205	0.538494	0.500070
C47	C	0.993553	0.131444	0.000065
C48	C	1.493553	0.631444	0.500065
C49	C	1.142175	-0.108476	0.000080
C50	C	1.642175	0.391524	0.500080
C51	C	1.235125	-0.110127	0.000081
C52	C	1.735125	0.389873	0.500081
C53	C	0.982980	-0.267671	0.000069
C54	C	1.482980	0.232329	0.500069
C55	C	0.984631	-0.360621	0.000069
C56	C	1.484631	0.139379	0.500069
N57	N	0.989049	-0.114599	0.229971
N58	N	1.489049	0.385401	0.729971
C59	C	0.987621	0.469192	0.000068
C60	C	1.487621	0.969192	0.500068
C61	C	0.896069	0.421758	-0.000270
C62	C	1.396069	0.921758	0.499730
C63	C	0.897721	0.325068	0.000063
C64	C	1.397721	0.825068	0.500063
C65	C	0.990564	0.301631	0.000066
C66	C	1.490564	0.801631	0.500066
C67	C	1.035702	0.342705	0.084335
C68	C	1.535702	0.842705	0.584335
C69	C	1.033402	0.439341	0.084405
C70	C	1.533402	0.939341	0.584405
C71	C	1.035330	0.439707	-0.083404
C72	C	1.535330	0.939707	0.416596
C73	C	1.035308	0.342761	-0.084518
C74	C	1.535308	0.842761	0.415482
C75	C	0.992231	0.206934	0.000068
C76	C	1.492231	0.706934	0.500068
C77	C	0.985956	0.563890	0.000072
C78	C	1.485956	1.063890	0.500072
N79	N	0.989142	-0.114571	-0.229830
N80	N	1.489142	0.385429	0.270170
C81	C	0.989112	-0.114580	0.589173
C82	C	1.489112	0.385420	1.089173
C83	C	0.920095	-0.183135	0.551560
C84	C	1.420095	0.316865	1.051560
C85	C	0.920254	-0.183385	0.448735
C86	C	1.420254	0.316615	0.948735
C87	C	0.989080	-0.114590	0.410969
C88	C	1.489080	0.385410	0.910969
C89	C	1.076445	-0.133671	0.448266
C90	C	1.576445	0.366329	0.948266
C91	C	1.076058	-0.134159	0.551124
C92	C	1.576058	0.365841	1.051124
C93	C	0.971542	-0.026741	0.551272
C94	C	1.471542	0.473259	1.051272
C95	C	0.969537	-0.027327	0.448409
C96	C	1.469537	0.472673	0.948409
C97	C	0.989067	-0.114593	0.310255
C98	C	1.489067	0.385407	0.810255
C99	C	0.989130	-0.114579	0.689886
C100	C	1.489130	0.385421	1.189886
H101	H	0.433165	0.014865	-0.059694
H102	H	0.933165	0.514865	0.440306
F103	F	1.096294	-0.217890	0.582473
F104	F	1.596294	0.282110	1.082473
F105	F	1.121255	0.481493	0.089415
F106	F	1.621255	0.981493	0.589415
F107	F	1.030979	0.042479	0.414821
F108	F	1.530979	0.542479	0.914821
F109	F	0.585844	0.023306	-0.079152
F110	F	1.085844	0.523306	0.420848
H111	H	0.909219	-0.008392	0.577258
H112	H	1.409219	0.491608	1.077258
H113	H	0.547102	-0.228494	0.089741
H114	H	1.047102	0.271506	0.589741
H115	H	1.103014	0.327400	-0.089603
H116	H	1.603014	0.827400	0.410397
H117	H	0.931160	-0.247952	0.577399
H118	H	1.431160	0.252048	1.077399
F119	F	0.393280	-0.249040	0.084289
F120	F	0.893280	0.250960	0.584289
F121	F	0.851342	0.287919	-0.078893
F122	F	1.351342	0.787919	0.421107
F123	F	1.037326	0.039941	0.583063
F124	F	1.537326	0.539941	1.083063
H125	H	1.129029	-0.085068	0.423801
H126	H	1.629029	0.414932	0.923801
H127	H	0.855314	-0.172016	0.423519
H128	H	1.355314	0.327984	0.923519
H129	H	0.854945	-0.171953	0.576317
H130	H	1.354945	0.328047	1.076317
H131	H	0.861974	0.297200	0.060568
H132	H	1.361974	0.797200	0.560568
H133	H	0.434211	0.015027	0.060830
H134	H	0.934211	0.515027	0.560830
H135	H	0.931473	-0.248570	0.424121
H136	H	1.431473	0.251430	0.924121
H137	H	0.545929	-0.229421	-0.087335
H138	H	1.045929	0.270579	0.412665
F139	F	0.568906	-0.120215	-0.166171
F140	F	1.068906	0.379785	0.333829
F141	F	1.145141	-0.071311	0.583646
F142	F	1.645141	0.428689	1.083646
F143	F	0.411253	-0.115866	-0.166596
F144	F	0.911253	0.384134	0.333404
F145	F	0.393015	-0.246766	-0.089265
F146	F	0.893015	0.253234	0.410735
H147	H	1.092297	-0.197002	0.422498
H148	H	1.592297	0.302998	0.922498
F149	F	1.123557	0.481221	-0.084143
F150	F	1.623557	0.981221	0.415857
H151	H	0.859490	0.440293	-0.060701
H152	H	1.359490	0.940293	0.439299
H153	H	0.577852	0.012275	0.060467
H154	H	1.077852	0.512275	0.560467
F155	F	0.567342	-0.117640	0.166131
F156	F	1.067342	0.382360	0.666131
F157	F	0.407938	-0.121693	0.167027
F158	F	0.907938	0.378307	0.667027
F159	F	0.848312	0.447646	0.078055
F160	F	1.348312	0.947646	0.578055
F161	F	0.992504	0.306761	-0.166012
F162	F	1.492504	0.806761	0.333988
H163	H	0.905271	-0.012846	0.424032
H164	H	1.405271	0.487154	0.924032
H165	H	1.000460	0.457639	0.147395
H166	H	1.500460	0.957639	0.647395
H167	H	1.103910	0.328579	0.087471
H168	H	1.603910	0.828579	0.587471
F169	F	0.994691	0.305607	0.166300
F170	F	1.494691	0.805607	0.666300
H171	H	1.005411	0.460250	-0.147274
H172	H	1.505411	0.960250	0.352726
