data_functionalizedCrystal
_audit_creation_method	'MofGen! by Chris Wilmer'
_symmetry_space_group_name_H-M	'P1'
_symmetry_Int_Tables_number	1
_symmetry_cell_setting	triclinic
loop_
_symmetry_equiv_pos_as_xyz
  x,y,z
_cell_length_a	18.215407
_cell_length_b	18.101397
_cell_length_c	18.215398
_cell_angle_alpha	89.971892
_cell_angle_beta	89.983001
_cell_angle_gamma	90.017909
loop_
_atom_site_label
_atom_site_type_symbol
_atom_site_fract_x
_atom_site_fract_y
_atom_site_fract_z
Zn1	Zn	1.125092	-0.294906	-0.416054
Zn2	Zn	1.125011	-0.418747	-0.292982
Zn3	Zn	1.002025	-0.294918	-0.293006
Zn4	Zn	1.002000	-0.418705	-0.416012
O5	O	1.063532	-0.356819	-0.354513
O6	O	1.228065	-0.311346	-0.399735
O7	O	1.108673	-0.402344	-0.190001
O8	O	1.018395	-0.191284	-0.309357
O9	O	1.228006	-0.402332	-0.309315
O10	O	1.108811	-0.191275	-0.399759
O11	O	1.018316	-0.311367	-0.190019
O12	O	0.899038	-0.311326	-0.309316
O13	O	1.018352	-0.402260	-0.519002
O14	O	0.899019	-0.402272	-0.399688
O15	O	1.108787	-0.311306	-0.519032
O16	O	1.108648	-0.522374	-0.309274
O17	O	1.018273	-0.522343	-0.399664
C18	C	0.872326	-0.356796	-0.354501
C19	C	0.790527	-0.356804	-0.354512
C20	C	0.602363	-0.309526	-0.401669
C21	C	0.525504	-0.309532	-0.401671
C22	C	0.525453	-0.404133	-0.307371
C23	C	0.602310	-0.404123	-0.307365
C24	C	0.640763	-0.356820	-0.354518
C25	C	0.487047	-0.356837	-0.354527
C26	C	0.403713	-0.356844	-0.354529
C27	C	0.724102	-0.356812	-0.354515
C28	C	1.063469	-0.549230	-0.354478
C29	C	1.063509	-0.631544	-0.354487
C30	C	1.063603	-0.930635	-0.354554
C31	C	1.120306	-0.899298	-0.297531
C32	C	1.120503	-0.813680	-0.297679
C33	C	1.063557	-0.782252	-0.354520
C34	C	1.084581	-0.813264	-0.432092
C35	C	1.085019	-0.898909	-0.431781
C36	C	0.985725	-0.899139	-0.334677
C37	C	0.986109	-0.813490	-0.332946
C38	C	1.063529	-0.698393	-0.354506
C39	C	1.063633	-1.014494	-0.354574
C40	C	1.255485	-0.356843	-0.354527
C41	C	1.337284	-0.356853	-0.354532
C42	C	1.063575	-0.356777	-0.546466
C43	C	1.063594	-0.356758	-0.628265
C44	C	1.063615	-0.163657	-0.354565
C45	C	1.063651	-0.081343	-0.354587
C46	C	1.110676	-0.404038	-0.893318
C47	C	1.110665	-0.404064	-0.816459
C48	C	1.016567	-0.309336	-0.816461
C49	C	1.016575	-0.309314	-0.893319
C50	C	1.063634	-0.356664	-0.931745
C51	C	1.063615	-0.356712	-0.778029
C52	C	1.063602	-0.356739	-0.694695
C53	C	1.063646	-0.356638	-1.015084
C54	C	1.063531	-0.356808	-0.163307
C55	C	1.063655	-0.356618	-0.081509
H56	H	0.494135	-0.442646	-0.268981
H57	H	0.978255	-0.270784	-0.785165
Cl58	Cl	0.477233	-0.250073	-0.460948
H59	H	0.633577	-0.442636	-0.268966
H60	H	1.148994	-0.442595	-0.924602
Cl61	Cl	1.169806	-0.463624	-0.768154
H62	H	0.633669	-0.271007	-0.440062
Cl63	Cl	0.961627	-0.782203	-0.244812
H64	H	1.107350	-0.792715	-0.240161
Cl65	Cl	0.957420	-0.249765	-0.941631
H66	H	1.107312	-0.919938	-0.239841
Cl67	Cl	1.171486	-0.780067	-0.458529
H68	H	1.177679	-0.920769	-0.310531
H69	H	0.966599	-0.920797	-0.279094
H70	H	1.141945	-0.918831	-0.448618
Cl71	Cl	1.209568	-0.781961	-0.317988
H72	H	1.045528	-0.919636	-0.475732
H73	H	1.044543	-0.792905	-0.475721
Cl74	Cl	0.917369	-0.780475	-0.392374
Cl75	Cl	0.920496	-0.930430	-0.398797
