data_functionalizedCrystal
_audit_creation_method	'MofGen! by Chris Wilmer'
_symmetry_space_group_name_H-M	'P1'
_symmetry_Int_Tables_number	1
_symmetry_cell_setting	triclinic
loop_
_symmetry_equiv_pos_as_xyz
  x,y,z
_cell_length_a	17.699083
_cell_length_b	19.288865
_cell_length_c	17.766277
_cell_angle_alpha	90.011603
_cell_angle_beta	90.003333
_cell_angle_gamma	83.209632
loop_
_atom_site_label
_atom_site_type_symbol
_atom_site_fract_x
_atom_site_fract_y
_atom_site_fract_z
O1	O	-1.003958	-0.087837	-0.062497
O2	O	-0.783563	-0.099265	-0.062523
O3	O	-0.900129	0.007572	-0.062495
O4	O	-0.887392	-0.194674	-0.062526
O5	O	-0.900108	0.007577	0.062694
O6	O	-0.783543	-0.099260	0.062665
O7	O	-1.003937	-0.087832	0.062691
Cu8	Cu	-0.893738	-0.093545	0.074109
Cu9	Cu	-0.893762	-0.093552	-0.073941
O10	O	-0.887372	-0.194668	0.062663
C11	C	-0.899709	0.033451	0.000102
C12	C	-0.898478	0.110556	0.000108
C13	C	-0.755356	-0.098853	0.000068
C14	C	-0.671340	-0.097624	0.000059
C15	C	-1.032144	-0.088244	0.000098
C16	C	-1.116160	-0.089472	0.000103
C17	C	-0.622631	-0.160335	0.000049
C18	C	-0.543689	-0.159177	0.000059
C19	C	-0.513458	-0.095307	0.000073
C20	C	-0.562174	-0.032591	0.000085
C21	C	-0.641114	-0.033750	0.000080
C22	C	-0.243817	-0.027915	0.000104
C23	C	-0.164871	-0.026761	0.000107
C24	C	-0.146393	-0.153342	0.000083
C25	C	-0.225333	-0.154501	0.000079
C26	C	-0.274041	-0.091785	0.000094
C27	C	-0.359639	-0.093042	0.000085
C28	C	-0.427862	-0.094049	0.000077
C29	C	-0.887792	-0.220548	0.000064
C30	C	-0.889022	-0.297653	0.000053
N31	N	-0.893727	-0.093540	0.178239
C32	C	-0.966874	0.155172	0.000120
C33	C	-0.965718	0.227620	0.000108
C34	C	-0.896163	0.255450	0.000099
C35	C	-0.827759	0.210825	0.000083
C36	C	-0.828916	0.138378	0.000088
C37	C	-0.841477	0.363804	0.043944
C38	C	-0.840323	0.436250	0.043944
C39	C	-0.892589	0.478900	0.000082
C40	C	-0.946024	0.449097	-0.043770
C41	C	-0.947182	0.376650	-0.043766
C42	C	-0.894900	0.334006	0.000094
C43	C	-0.959736	0.602073	0.000080
C44	C	-0.958578	0.674522	0.000063
C45	C	-0.820616	0.657725	0.000046
C46	C	-0.821777	0.585277	0.000055
C47	C	-0.891339	0.557456	0.000075
N48	N	-0.893780	-0.093551	-0.178071
C49	C	-0.945358	-0.046256	0.217639
C50	C	-0.945363	-0.046253	0.296441
C51	C	-0.893743	-0.093546	0.335840
C52	C	-0.842101	-0.140833	0.296431
C53	C	-0.842093	-0.140831	0.217630
C54	C	-0.883610	-0.156821	0.460667
C55	C	-0.883623	-0.156825	0.539466
C56	C	-0.893763	-0.093554	0.578886
C57	C	-0.903905	-0.030277	0.539498
C58	C	-0.903897	-0.030274	0.460697
C59	C	-0.893745	-0.093554	0.421286
C60	C	-0.945402	-0.046263	0.703732
C61	C	-0.945401	-0.046258	0.782535
C62	C	-0.842143	-0.140845	0.782524
C63	C	-0.842140	-0.140843	0.703722
C64	C	-0.893774	-0.093553	0.664331
H65	H	-0.647238	-0.212346	0.000037
F66	F	-1.033769	0.572460	0.000105
H67	H	-0.796810	0.460509	0.079647
H68	H	-1.014276	0.710848	0.000068
H69	H	-0.800110	-0.179349	0.814602
F70	F	-1.038517	0.275112	0.000119
F71	F	-1.000353	0.004074	0.824468
F72	F	-1.004045	0.344933	-0.090439
H73	H	-0.504033	-0.210242	0.000051
H74	H	-0.283467	0.023152	0.000118
F75	F	-0.753733	0.240444	0.000069
F76	F	-0.914685	0.037068	0.418780
H77	H	-0.800100	-0.179349	0.671640
H78	H	-0.798914	0.329084	0.079665
H79	H	-0.106724	-0.204407	0.000074
F80	F	-0.756117	0.090893	0.000075
F81	F	-0.132699	0.041222	0.000122
F82	F	-1.001654	0.494482	-0.090456
F83	F	-0.257502	-0.222480	0.000059
H84	H	-0.912161	0.021245	0.571592
F85	F	-1.000308	0.004076	0.175717
H86	H	-0.537553	0.019413	0.000107
F87	F	-1.000352	0.004071	0.661808
F88	F	-0.746590	0.687339	0.000033
F89	F	-0.692954	0.032995	0.000093
H90	H	-1.023517	0.132524	0.000134
H91	H	-0.766082	0.548950	0.000050
F92	F	-1.000320	0.004076	0.338379
H93	H	-0.875370	-0.208349	0.571530
H94	H	-0.875340	-0.208348	0.428578
H95	H	-0.800070	-0.179339	0.328514
F96	F	-0.787137	-0.191159	0.175697
