data_functionalizedCrystal
_audit_creation_method	'MofGen! by Chris Wilmer'
_symmetry_space_group_name_H-M	'P1'
_symmetry_Int_Tables_number	1
_symmetry_cell_setting	triclinic
loop_
_symmetry_equiv_pos_as_xyz
  x,y,z
_cell_length_a	16.625548
_cell_length_b	19.120786
_cell_length_c	19.120904
_cell_angle_alpha	89.866497
_cell_angle_beta	92.422750
_cell_angle_gamma	92.466188
loop_
_atom_site_label
_atom_site_type_symbol
_atom_site_fract_x
_atom_site_fract_y
_atom_site_fract_z
Zn1	Zn	1.199307	-0.296029	-0.384473
Zn2	Zn	1.199702	-0.408273	-0.262232
Zn3	Zn	1.070462	-0.291049	-0.267252
Zn4	Zn	1.058939	-0.413237	-0.379429
O5	O	1.132103	-0.352147	-0.323346
O6	O	1.312191	-0.310924	-0.368268
O7	O	1.187546	-0.388561	-0.164793
O8	O	1.092211	-0.193599	-0.287013
O9	O	1.312481	-0.393389	-0.278458
O10	O	1.186872	-0.197257	-0.373135
O11	O	1.092594	-0.302438	-0.168481
O12	O	0.956102	-0.307252	-0.282122
O13	O	1.072571	-0.401851	-0.478203
O14	O	0.947636	-0.397023	-0.364538
O15	O	1.175699	-0.315738	-0.481909
O16	O	1.176373	-0.507042	-0.273567
O17	O	1.072955	-0.510689	-0.359671
C18	C	0.922613	-0.352136	-0.323327
C19	C	0.832991	-0.352149	-0.323335
C20	C	0.504814	-0.352155	-0.323365
C21	C	0.596123	-0.352151	-0.323354
C22	C	0.668900	-0.352152	-0.323349
C23	C	0.760215	-0.352148	-0.323340
C24	C	1.123477	-0.534305	-0.315542
C25	C	1.119860	-0.612234	-0.312227
C26	C	1.167405	-0.650691	-0.355545
C27	C	1.164003	-0.723914	-0.352431
C28	C	1.113059	-0.758678	-0.305995
C29	C	1.065508	-0.720216	-0.262675
C30	C	1.068907	-0.646995	-0.265793
C31	C	1.100330	-0.979667	-0.294340
C32	C	1.096937	-1.052893	-0.291224
C33	C	1.195431	-1.056586	-0.380981
C34	C	1.198828	-0.983363	-0.384091
C35	C	1.151274	-0.944908	-0.340774
C36	C	1.109582	-0.833524	-0.302810
C37	C	1.154748	-0.870064	-0.343964
C38	C	1.342410	-0.352158	-0.323366
C39	C	1.432030	-0.352163	-0.323374
C40	C	1.122806	-0.359904	-0.506204
C41	C	1.118844	-0.363209	-0.584127
C42	C	1.140783	-0.169278	-0.331197
C43	C	1.144482	-0.091350	-0.334542
C44	C	1.170673	-0.319930	-0.622667
C45	C	1.166941	-0.323033	-0.695884
C46	C	1.111383	-0.369420	-0.730560
C47	C	1.059548	-0.412701	-0.692016
C48	C	1.063277	-0.409593	-0.618800
C49	C	1.097434	-0.381041	-0.951528
C50	C	1.093711	-0.384146	-1.024749
C51	C	1.201102	-0.294477	-1.028611
C52	C	1.204830	-0.291377	-0.955394
C53	C	1.152992	-0.334656	-0.916856
C54	C	1.107568	-0.372594	-0.805400
C55	C	1.156804	-0.331477	-0.842018
C56	C	1.141412	-0.344370	-0.141202
C57	C	1.145540	-0.340867	-0.063288
H58	H	1.202726	-0.755223	-0.387700
O59	O	1.216782	-0.616848	-0.400691
C60	C	1.170494	-0.576446	-0.447747
H61	H	1.111180	-0.564481	-0.423435
H62	H	1.205240	-0.525328	-0.459364
H63	H	1.157634	-0.606858	-0.498492
O64	O	1.224560	-0.274769	-0.589022
C65	C	1.209353	-0.205654	-0.609927
H66	H	1.144081	-0.202967	-0.630193
H67	H	1.220395	-0.168971	-0.563268
H68	H	1.251284	-0.189134	-0.653221
H69	H	1.048466	-0.421921	-1.052980
H70	H	1.021065	-0.444829	-0.587423
H71	H	1.202035	-0.293707	-0.813781
H72	H	1.240311	-0.955060	-0.421903
O73	O	1.241567	-1.093873	-0.423165
C74	C	1.221134	-1.078943	-0.493783
H75	H	1.192537	-1.025861	-0.497468
H76	H	1.277809	-1.077723	-0.525382
H77	H	1.176537	-1.121173	-0.515602
O78	O	1.047327	-1.086639	-0.246192
C79	C	0.967003	-1.069446	-0.262201
H80	H	0.960968	-1.051673	-0.319060
H81	H	0.925253	-1.117380	-0.254083
H82	H	0.949834	-1.025383	-0.226404
H83	H	1.061611	-0.948362	-0.259068
O84	O	1.022633	-0.609607	-0.223815
C85	C	0.970472	-0.568959	-0.265493
H86	H	0.961611	-0.593354	-0.319765
H87	H	0.909770	-0.567105	-0.240123
H88	H	0.997852	-0.513550	-0.270294
O89	O	1.217311	-0.281090	-0.733398
C90	C	1.265346	-0.322802	-0.774039
H91	H	1.233832	-0.376400	-0.782718
H92	H	1.274872	-0.296427	-0.826754
H93	H	1.326176	-0.329307	-0.745510
O94	O	1.060056	-0.867377	-0.257792
C95	C	1.003934	-0.911436	-0.295860
H96	H	1.029106	-0.924611	-0.348551
H97	H	0.992227	-0.961736	-0.265107
H98	H	0.945088	-0.883589	-0.304705
O99	O	1.015973	-0.754066	-0.217661
C100	C	0.959852	-0.798126	-0.255728
H101	H	0.985030	-0.811310	-0.308415
H102	H	0.948138	-0.848422	-0.224969
H103	H	0.901009	-0.770277	-0.264582
H104	H	1.196223	-0.841757	-0.381775
O105	O	1.047038	-0.423142	-0.914205
C106	C	0.997186	-0.464732	-0.960515
H107	H	1.027450	-0.469390	-1.012599
H108	H	0.987014	-0.519068	-0.936983
H109	H	0.936783	-0.439368	-0.969409
O110	O	1.258820	-0.246253	-0.921823
C111	C	1.303781	-0.208731	-0.971539
H112	H	1.268213	-0.208514	-1.023829
H113	H	1.316082	-0.152595	-0.952756
H114	H	1.363402	-0.234740	-0.978233
H115	H	1.243304	-0.259242	-1.059997
O116	O	1.053714	-0.417730	-0.839116
C117	C	1.095315	-0.464795	-0.879549
H118	H	1.159735	-0.468197	-0.857305
H119	H	1.063549	-0.518784	-0.878069
H120	H	1.096301	-0.445463	-0.935965
H121	H	1.014309	-0.450467	-0.720256
