data_functionalizedCrystal
_audit_creation_method	'MofGen! by Chris Wilmer'
_symmetry_space_group_name_H-M	'P1'
_symmetry_Int_Tables_number	1
_symmetry_cell_setting	triclinic
loop_
_symmetry_equiv_pos_as_xyz
  x,y,z
_cell_length_a	12.811438
_cell_length_b	12.837942
_cell_length_c	16.053948
_cell_angle_alpha	92.611913
_cell_angle_beta	98.288606
_cell_angle_gamma	89.413151
loop_
_atom_site_label
_atom_site_type_symbol
_atom_site_fract_x
_atom_site_fract_y
_atom_site_fract_z
O1	O	1.408955	0.141806	0.037266
O2	O	1.103450	0.155685	0.014130
O3	O	1.249429	-0.002215	0.025190
O4	O	1.262976	0.299707	0.026206
O5	O	1.258113	0.005654	0.164703
O6	O	1.112135	0.163554	0.153643
O7	O	1.417639	0.149675	0.176779
Zn8	Zn	1.266266	0.157864	0.187362
Zn9	Zn	1.254824	0.147497	0.003547
O10	O	1.271661	0.307576	0.165719
C11	C	1.068418	0.158600	0.080905
C12	C	0.951092	0.155548	0.072020
C13	C	0.780991	0.146958	-0.016543
C14	C	0.891228	0.149824	-0.008201
C15	C	0.900711	0.158403	0.143905
C16	C	0.790474	0.155537	0.135564
C17	C	0.730617	0.149816	0.055337
C18	C	0.620378	0.146957	0.046997
C19	C	0.629863	0.155529	0.199102
C20	C	0.740101	0.158395	0.207443
C21	C	1.249194	-0.036940	0.094600
C22	C	1.235543	-0.152134	0.093564
C23	C	1.399645	-0.391686	0.105974
C24	C	1.386824	-0.499922	0.105002
C25	C	1.197081	-0.476845	0.090641
C26	C	1.209902	-0.368609	0.091614
C27	C	1.311187	-0.326033	0.099282
C28	C	1.324008	-0.217795	0.100260
C29	C	1.134265	-0.194720	0.085893
C30	C	1.121444	-0.302956	0.084921
C31	C	1.452672	0.146761	0.110002
C32	C	1.569997	0.149812	0.118882
C33	C	1.271895	0.342301	0.096308
C34	C	1.285546	0.457495	0.097337
N35	N	1.274083	0.164939	0.312811
N36	N	1.247014	0.140413	-0.121902
C37	C	1.206532	0.103905	0.351416
C38	C	1.212027	0.108867	0.439236
C39	C	1.285080	0.174858	0.488451
C40	C	1.352634	0.235899	0.449841
C41	C	1.347132	0.230942	0.362021
C42	C	1.309067	0.196498	0.751668
C43	C	1.314566	0.201448	0.839494
C44	C	1.173957	0.074416	0.828883
C45	C	1.168466	0.069461	0.741062
C46	C	1.236016	0.130506	0.702459
N47	N	1.290701	0.179928	0.578219
N48	N	1.230389	0.125440	0.612693
H49	H	0.788851	0.163049	0.272761
C50	C	1.087178	-0.523236	0.082186
C51	C	1.069824	-0.588759	0.009441
C52	C	0.968599	-0.631526	0.001630
H53	H	1.036218	-0.468750	0.078289
H54	H	1.081251	-0.562306	0.130132
H55	H	1.075741	-0.549691	-0.038493
H56	H	1.120759	-0.643262	0.013321
H57	H	0.962673	-0.670596	0.049575
H58	H	0.917648	-0.577034	-0.002265
H59	H	0.956815	-0.675996	-0.047724
C60	C	1.127380	0.032119	0.297953
C61	C	1.181133	-0.040424	0.251850
C62	C	1.108250	-0.106575	0.202601
H63	H	1.080920	0.072138	0.260279
H64	H	1.087948	-0.003581	0.333499
H65	H	1.220548	-0.004727	0.216307
H66	H	1.227589	-0.080466	0.289502
H67	H	1.068817	-0.142275	0.238147
H68	H	1.061793	-0.066548	0.164933
H69	H	1.144711	-0.155809	0.171321
C70	C	1.434055	-0.171770	0.108543
C71	C	1.508775	-0.252439	0.114170
C72	C	1.610162	-0.210085	0.121785
H73	H	1.446188	-0.127301	0.157870
H74	H	1.440016	-0.132798	0.060552
H75	H	1.502818	-0.291393	0.162156
H76	H	1.496676	-0.296914	0.064849
H77	H	1.616123	-0.171113	0.073794
H78	H	1.622284	-0.165616	0.171112
H79	H	1.660871	-0.264812	0.125596
C80	C	0.965527	0.164547	0.231074
C81	C	0.897822	0.166408	0.292245
C82	C	0.957492	0.172049	0.372555
H83	H	1.006778	0.226223	0.237463
H84	H	1.010671	0.105419	0.237675
H85	H	0.852696	0.225531	0.285647
H86	H	0.856570	0.104738	0.285884
H87	H	1.002636	0.112921	0.379155
H88	H	0.998741	0.233725	0.378934
H89	H	0.911564	0.173302	0.414068
H90	H	1.108982	0.015720	0.700997
C91	C	0.575127	0.158405	0.277124
C92	C	0.515047	0.067895	0.277013
C93	C	0.464624	0.070502	0.348877
H94	H	0.530271	0.217792	0.276963
H95	H	0.626542	0.162164	0.326115
H96	H	0.463639	0.064146	0.228035
H97	H	0.559878	0.008494	0.277187
H98	H	0.516039	0.074262	0.397868
H99	H	0.419773	0.129893	0.348709
H100	H	0.423862	0.009089	0.348815
H101	H	0.571643	0.142304	-0.018328
C102	C	0.716182	0.140708	-0.103714
C103	C	0.783894	0.138803	-0.164880
C104	C	0.724233	0.133036	-0.245192
H105	H	0.671002	0.199786	-0.110391
H106	H	0.674970	0.078992	-0.110029
H107	H	0.825088	0.200512	-0.158568
H108	H	0.829074	0.079728	-0.158230
H109	H	0.683020	0.071320	-0.251507
H110	H	0.679055	0.192116	-0.251860
H111	H	0.770166	0.131733	-0.286703
H112	H	0.932237	0.147497	-0.066734
H113	H	1.364076	0.246201	0.720249
H114	H	1.062237	-0.141253	0.080450
H115	H	1.482116	-0.357020	0.112226
C116	C	1.482999	-0.571027	0.112323
C117	C	1.574441	-0.510568	0.119266
C118	C	1.663061	-0.576033	0.126022
H119	H	1.479059	-0.616491	0.063616
H120	H	1.485035	-0.610972	0.160919
H121	H	1.572405	-0.470640	0.070676
H122	H	1.578415	-0.465105	0.167973
H123	H	1.665097	-0.615978	0.174617
H124	H	1.659110	-0.621494	0.077313
H125	H	1.725114	-0.535021	0.130741
C126	C	1.011537	-0.349337	0.076473
C127	C	0.994166	-0.414863	0.003729
C128	C	0.892936	-0.457616	-0.004073
H129	H	0.960584	-0.294845	0.072577
H130	H	1.005611	-0.388403	0.124420
H131	H	1.000083	-0.375799	-0.044207
H132	H	1.045093	-0.469373	0.007607
H133	H	0.887009	-0.496681	0.043875
H134	H	0.841992	-0.403116	-0.007965
H135	H	0.881140	-0.502087	-0.053425
H136	H	1.157020	0.059165	0.470664
H137	H	1.118960	0.024718	0.860323
C138	C	1.393921	0.273203	0.892782
C139	C	1.451884	0.325623	0.840179
C140	C	1.524984	0.391734	0.889237
H141	H	1.440452	0.233171	0.930392
H142	H	1.357650	0.322539	0.924124
H143	H	1.488153	0.276294	0.808850
H144	H	1.405382	0.365675	0.802569
H145	H	1.488714	0.441071	0.920579
H146	H	1.571508	0.351694	0.926845
H147	H	1.564315	0.427317	0.853552
H148	H	1.412111	0.289635	0.489919
C149	C	1.420602	0.297251	0.320265
C150	C	1.485776	0.356084	0.382161
C151	C	1.553477	0.417175	0.343729
H152	H	1.380134	0.342757	0.283110
H153	H	1.462802	0.253268	0.289373
H154	H	1.443581	0.400063	0.413039
H155	H	1.526266	0.310604	0.419320
H156	H	1.595676	0.373192	0.312837
H157	H	1.513000	0.462675	0.306574
H158	H	1.597711	0.457093	0.385720
