data_functionalizedCrystal
_audit_creation_method	'MofGen! by Chris Wilmer'
_symmetry_space_group_name_H-M	'P1'
_symmetry_Int_Tables_number	1
_symmetry_cell_setting	triclinic
loop_
_symmetry_equiv_pos_as_xyz
  x,y,z
_cell_length_a	25.639243
_cell_length_b	21.295418
_cell_length_c	21.295411
_cell_angle_alpha	90.017488
_cell_angle_beta	90.027104
_cell_angle_gamma	90.031110
loop_
_atom_site_label
_atom_site_type_symbol
_atom_site_fract_x
_atom_site_fract_y
_atom_site_fract_z
Zn1	Zn	0.799320	-0.250635	0.355972
Zn2	Zn	1.299320	0.249365	0.855972
Zn3	Zn	0.799242	-0.355887	0.250705
Zn4	Zn	1.299242	0.144113	0.750705
Zn5	Zn	0.711879	-0.250641	0.250713
Zn6	Zn	1.211879	0.249359	0.750713
Zn7	Zn	0.711857	-0.355875	0.355932
Zn8	Zn	1.211857	0.144125	0.855932
O9	O	0.755575	-0.303260	0.303331
O10	O	1.255575	0.196740	0.803331
O11	O	0.872475	-0.264600	0.342022
O12	O	1.372475	0.235400	0.842022
O13	O	0.787630	-0.341933	0.162617
O14	O	1.287630	0.158067	0.662617
O15	O	0.723520	-0.162551	0.264695
O16	O	1.223520	0.337449	0.764695
O17	O	0.872418	-0.341928	0.264683
O18	O	1.372418	0.158072	0.764683
O19	O	0.787763	-0.162546	0.342029
O20	O	1.287763	0.337454	0.842029
O21	O	0.723445	-0.264609	0.162622
O22	O	1.223445	0.235391	0.662622
O23	O	0.638711	-0.264598	0.264657
O24	O	1.138711	0.235402	0.764657
O25	O	0.723483	-0.341908	0.444027
O26	O	1.223483	0.158092	0.944027
O27	O	0.638695	-0.341913	0.341961
O28	O	1.138695	0.158087	0.841961
O29	O	0.787741	-0.264588	0.444056
O30	O	1.287741	0.235412	0.944056
O31	O	0.787609	-0.443975	0.264644
O32	O	1.287609	0.056025	0.764644
O33	O	0.723407	-0.443966	0.341954
O34	O	1.223407	0.056034	0.841954
C35	C	0.619732	-0.303255	0.303306
C36	C	1.119732	0.196745	0.803306
C37	C	0.561618	-0.303269	0.303310
C38	C	1.061618	0.196731	0.803310
C39	C	0.755511	-0.466811	0.303308
C40	C	1.255511	0.033189	0.803308
C41	C	0.755532	-0.536779	0.303319
C42	C	1.255532	-0.036779	0.803319
C43	C	0.789091	-1.036182	0.343679
C44	C	1.289091	-0.536182	0.843679
C45	C	0.789075	-0.970439	0.343669
C46	C	1.289075	-0.470439	0.843669
C47	C	0.755646	-0.937619	0.303370
C48	C	1.255646	-0.437619	0.803370
C49	C	0.722239	-0.970546	0.263066
C50	C	1.222239	-0.470546	0.763066
C51	C	0.722259	-1.036287	0.263073
C52	C	1.222259	-0.536287	0.763073
N53	N	0.709850	-0.834451	0.298477
N54	N	1.209850	-0.334451	0.798477
N55	N	0.709832	-0.771999	0.298474
N56	N	1.209832	-0.271999	0.798474
C57	C	0.755584	-0.739544	0.303346
C58	C	1.255584	-0.239544	0.803346
N59	N	0.801356	-0.771899	0.308234
N60	N	1.301356	-0.271899	0.808234
N61	N	0.801373	-0.834356	0.308240
N62	N	1.301373	-0.334356	0.808240
C63	C	0.755621	-0.866333	0.303358
C64	C	1.255621	-0.366333	0.803358
C65	C	0.788975	-0.635339	0.343634
C66	C	1.288975	-0.135339	0.843634
C67	C	0.788961	-0.569595	0.343619
C68	C	1.288961	-0.069595	0.843619
C69	C	0.722120	-0.569703	0.263020
C70	C	1.222120	-0.069703	0.763020
C71	C	0.722139	-0.635446	0.263031
C72	C	1.222139	-0.135446	0.763031
C73	C	0.755566	-0.668260	0.303341
C74	C	1.255566	-0.168260	0.803341
C75	C	0.201279	-0.263058	0.343668
C76	C	0.701279	0.236942	0.843668
C77	C	0.146675	-0.263058	0.343672
C78	C	0.646675	0.236942	0.843672
O79	O	0.118459	-0.228857	0.377955
O80	O	0.618459	0.271143	0.877955
N81	N	0.119336	-0.303258	0.303348
N82	N	0.619336	0.196742	0.803348
C83	C	0.146603	-0.343457	0.263013
C84	C	0.646603	0.156543	0.763013
O85	O	0.118335	-0.377649	0.228714
O86	O	0.618335	0.122351	0.728714
C87	C	0.201207	-0.343453	0.263006
C88	C	0.701207	0.156547	0.763006
C89	C	0.228543	-0.303255	0.303337
C90	C	0.728543	0.196745	0.803337
C91	C	0.228616	-0.222863	0.383996
C92	C	0.728616	0.277137	0.883996
C93	C	0.283216	-0.222864	0.383993
C94	C	0.783216	0.277136	0.883993
C95	C	0.310480	-0.263061	0.343662
C96	C	0.810480	0.236939	0.843662
C97	C	0.283144	-0.303257	0.303334
C98	C	0.783144	0.196743	0.803334
C99	C	0.228474	-0.383649	0.222668
C100	C	0.728474	0.116351	0.722668
C101	C	0.283081	-0.383642	0.222665
C102	C	0.783081	0.116358	0.722665
C103	C	0.310417	-0.343443	0.262996
C104	C	0.810417	0.156557	0.762996
C105	C	0.365008	-0.343455	0.263000
C106	C	0.865008	0.156545	0.763000
N107	N	0.392348	-0.303255	0.303324
N108	N	0.892348	0.196745	0.803324
C109	C	0.365084	-0.263058	0.343655
C110	C	0.865084	0.236942	0.843655
C111	C	0.031933	-0.343459	0.263029
C112	C	0.531933	0.156541	0.763029
C113	C	-0.022670	-0.343466	0.263038
C114	C	0.477330	0.156534	0.763038
C115	C	-0.022594	-0.263066	0.343697
C116	C	0.477406	0.236934	0.843697
C117	C	0.032009	-0.263063	0.343690
C118	C	0.532009	0.236937	0.843690
C119	C	0.059272	-0.303259	0.303353
C120	C	0.559272	0.196741	0.803353
C121	C	0.479749	-0.263065	0.343646
C122	C	0.979749	0.236935	0.843646
C123	C	0.534354	-0.263072	0.343641
C124	C	1.034354	0.236928	0.843641
C125	C	0.534274	-0.343469	0.262980
C126	C	1.034274	0.156531	0.762980
C127	C	0.479673	-0.343465	0.262987
C128	C	0.979673	0.156535	0.762987
C129	C	0.452412	-0.303257	0.303322
C130	C	0.952412	0.196743	0.803322
O131	O	0.393259	-0.377636	0.228733
O132	O	0.893259	0.122364	0.728733
O133	O	0.393358	-0.228865	0.377943
O134	O	0.893358	0.271135	0.877943
C135	C	0.891948	-0.303264	0.303356
C136	C	1.391948	0.196736	0.803356
C137	C	0.950062	-0.303266	0.303367
C138	C	1.450062	0.196734	0.803367
C139	C	0.755618	-0.303246	0.467521
C140	C	1.255618	0.196754	0.967521
C141	C	0.755637	-0.303241	0.537489
C142	C	1.255637	0.196759	1.037489
C143	C	0.755653	-0.139069	0.303368
C144	C	1.255653	0.360931	0.803368
C145	C	0.755686	-0.069101	0.303383
C146	C	1.255686	0.430899	0.803383
C147	C	0.755562	-0.303227	0.139779
C148	C	1.255562	0.196773	0.639779
C149	C	0.755644	-0.303056	0.069811
C150	C	1.255644	0.196944	0.569811
C151	C	0.789095	-0.262978	0.570372
C152	C	1.289095	0.237022	1.070372
C153	C	0.789094	-0.262951	0.636115
C154	C	1.289094	0.237049	1.136115
C155	C	0.755641	-0.303197	0.668972
C156	C	1.255641	0.196803	1.168972
C157	C	0.722176	-0.343462	0.636081
C158	C	1.222176	0.156538	1.136081
C159	C	0.722174	-0.343484	0.570340
C160	C	1.222174	0.156516	1.070340
N161	N	0.751608	-0.358265	0.772191
N162	N	1.251608	0.141735	1.272191
N163	N	0.751613	-0.358243	0.834642
N164	N	1.251613	0.141757	1.334642
C165	C	0.755644	-0.303133	0.867047
C166	C	1.255644	0.196867	1.367047
N167	N	0.759679	-0.248046	0.834640
N168	N	1.259679	0.251954	1.334640
N169	N	0.759677	-0.248069	0.772183
N170	N	1.259677	0.251931	1.272183
C171	C	0.755639	-0.303178	0.740257
C172	C	1.255639	0.196822	1.240257
C173	C	0.789103	-0.262838	0.971215
C174	C	1.289103	0.237162	1.471215
C175	C	0.789099	-0.262810	1.036959
C176	C	1.289099	0.237190	1.536959
C177	C	0.722184	-0.343327	1.036924
C178	C	1.222184	0.156673	1.536924
C179	C	0.722185	-0.343349	0.971181
C180	C	1.222185	0.156651	1.471181
C181	C	0.755648	-0.303106	0.938331
C182	C	1.255648	0.196894	1.438331
H183	H	0.816314	-1.062895	0.376498
H184	H	1.316314	-0.562895	0.876498
F185	F	0.824631	-0.935397	0.386559
F186	F	1.324631	-0.435397	0.886559
H187	H	0.695021	-0.943820	0.230253
H188	H	1.195021	-0.443820	0.730253
H189	H	0.816190	-0.662058	0.376461
H190	H	1.316190	-0.162058	0.876461
F191	F	0.686703	-1.071323	0.220183
F192	F	1.186703	-0.571323	0.720183
H193	H	0.816342	-0.230208	0.543629
H194	H	1.316342	0.269792	1.043629
F195	F	0.824520	-0.534560	0.386507
F196	F	1.324520	-0.034560	0.886507
F197	F	0.686545	-0.534777	0.220125
F198	F	1.186545	-0.034777	0.720125
H199	H	0.694935	-0.662249	0.230220
H200	H	1.194935	-0.162249	0.730220
F201	F	0.563444	-0.220287	0.386570
F202	F	1.063444	0.279713	0.886570
H203	H	0.457559	-0.230322	0.376489
H204	H	0.957559	0.269678	0.876489
H205	H	0.305469	-0.190130	0.416834
H206	H	0.805469	0.309870	0.916834
H207	H	0.206423	-0.190126	0.416838
H208	H	0.706423	0.309874	0.916838
H209	H	0.054127	-0.376197	0.230183
H210	H	0.554127	0.123803	0.730183
H211	H	0.054263	-0.230329	0.376531
H212	H	0.554263	0.269671	0.876531
F213	F	-0.051620	-0.220282	0.386619
F214	F	0.448380	0.279718	0.886619
H215	H	-0.044922	-0.376207	0.230203
H216	H	0.455078	0.123793	0.730203
F217	F	0.199392	-0.426424	0.179731
F218	F	0.699392	0.073576	0.679731
F219	F	0.824717	-0.219962	1.071955
F220	F	1.324717	0.280038	1.571955
H221	H	0.305275	-0.416374	0.189815
H222	H	0.805275	0.083626	0.689815
H223	H	0.457415	-0.376205	0.230153
H224	H	0.957415	0.123795	0.730153
H225	H	0.694940	-0.376089	1.063675
H226	H	1.194940	0.123911	1.563675
F227	F	0.563300	-0.386248	0.220060
F228	F	1.063300	0.113752	0.720060
F229	F	0.824697	-0.220087	0.671118
F230	F	1.324697	0.279913	1.171118
H231	H	0.694937	-0.376229	0.662837
H232	H	1.194937	0.123771	1.162837
H233	H	0.816347	-0.230066	0.944467
H234	H	1.316347	0.269934	1.444467
F235	F	0.686562	-0.386338	0.535342
F236	F	1.186562	0.113662	1.035342
F237	F	0.686576	-0.386205	0.936183
F238	F	1.186576	0.113795	1.436183
