data_functionalizedCrystal
_audit_creation_method	'MofGen! by Chris Wilmer'
_symmetry_space_group_name_H-M	'P1'
_symmetry_Int_Tables_number	1
_symmetry_cell_setting	triclinic
loop_
_symmetry_equiv_pos_as_xyz
  x,y,z
_cell_length_a	18.101395
_cell_length_b	12.759401
_cell_length_c	12.759393
_cell_angle_alpha	89.980324
_cell_angle_beta	89.967630
_cell_angle_gamma	90.031531
loop_
_atom_site_label
_atom_site_type_symbol
_atom_site_fract_x
_atom_site_fract_y
_atom_site_fract_z
Zn1	Zn	-0.294785	1.606147	-0.593971
Zn2	Zn	0.205215	2.106147	-0.093971
Zn3	Zn	-0.418645	1.605987	-0.418285
Zn4	Zn	0.081355	2.105987	0.081715
Zn5	Zn	-0.294822	1.430445	-0.418310
Zn6	Zn	0.205178	1.930445	0.081690
Zn7	Zn	-0.418591	1.430387	-0.593926
Zn8	Zn	0.081409	1.930387	-0.093926
O9	O	-0.356711	1.518242	-0.506123
O10	O	0.143289	2.018242	-0.006123
O11	O	-0.311223	1.753146	-0.570674
O12	O	0.188777	2.253146	-0.070674
O13	O	-0.402257	1.582659	-0.271268
O14	O	0.097743	2.082659	0.228732
O15	O	-0.191185	1.453844	-0.441641
O16	O	0.308815	1.953844	0.058359
O17	O	-0.402222	1.753030	-0.441599
O18	O	0.097778	2.253030	0.058401
O19	O	-0.191157	1.582931	-0.570698
O20	O	0.308843	2.082931	-0.070698
O21	O	-0.311286	1.453689	-0.271286
O22	O	0.188714	1.953689	0.228714
O23	O	-0.311233	1.283417	-0.441598
O24	O	0.188767	1.783417	0.058402
O25	O	-0.402129	1.453744	-0.740953
O26	O	0.097871	1.953744	-0.240953
O27	O	-0.402165	1.283374	-0.570622
O28	O	0.097835	1.783374	-0.070622
O29	O	-0.311170	1.582874	-0.740986
O30	O	0.188830	2.082874	-0.240986
O31	O	-0.522270	1.582603	-0.441556
O32	O	-0.022270	2.082603	0.058444
O33	O	-0.522231	1.453590	-0.570598
O34	O	-0.022231	1.953590	-0.070598
C35	C	-0.356698	1.245274	-0.506108
C36	C	0.143302	1.745274	-0.006108
C37	C	-0.356710	1.128498	-0.506127
C38	C	0.143290	1.628498	-0.006127
C39	C	-0.309413	1.073697	-0.573440
C40	C	0.190587	1.573697	-0.073440
C41	C	-0.309420	0.963973	-0.573447
C42	C	0.190580	1.463973	-0.073447
C43	C	-0.404029	0.963860	-0.438825
C44	C	0.095971	1.463860	0.061175
C45	C	-0.404017	1.073582	-0.438813
C46	C	0.095983	1.573582	0.061187
C47	C	-0.549121	1.518101	-0.506092
C48	C	-0.049121	2.018101	-0.006092
C49	C	-0.631435	1.518137	-0.506114
C50	C	-0.131435	2.018137	-0.006114
C51	C	-0.930526	1.518368	-0.506171
C52	C	-0.430526	2.018368	-0.006171
C53	C	-0.899207	1.437384	-0.587563
C54	C	-0.399207	1.937384	-0.087563
C55	C	-0.813589	1.436999	-0.587308
C56	C	-0.313589	1.936999	-0.087308
C57	C	-0.782144	1.518253	-0.506144
C58	C	-0.282144	2.018253	-0.006144
C59	C	-0.813302	1.488270	-0.395419
C60	C	-0.313302	1.988270	0.104581
C61	C	-0.898947	1.487748	-0.395906
C62	C	-0.398947	1.987748	0.104094
C63	C	-0.898868	1.629510	-0.534529
C64	C	-0.398868	2.129510	-0.034529
C65	C	-0.813216	1.628857	-0.536958
C66	C	-0.313216	2.128857	-0.036958
C67	C	-0.698284	1.518190	-0.506121
C68	C	-0.198284	2.018190	-0.006121
C69	C	-1.014386	1.518428	-0.506186
C70	C	-0.514386	2.018428	-0.006186
C71	C	-0.163549	1.518411	-0.506177
C72	C	0.336451	2.018411	-0.006177
C73	C	-0.081235	1.518484	-0.506200
C74	C	0.418765	2.018484	-0.006200
C75	C	-0.356640	1.518320	-0.780157
C76	C	0.143360	2.018320	-0.280157
C77	C	-0.356609	1.518354	-0.896933
C78	C	0.143391	2.018354	-0.396933
C79	C	-0.356724	1.792275	-0.506139
C80	C	0.143276	2.292275	-0.006139
C81	C	-0.356730	1.909051	-0.506145
C82	C	0.143270	2.409051	-0.006145
C83	C	-0.309239	1.585597	-0.951814
C84	C	0.190761	2.085597	-0.451814
C85	C	-0.309207	1.585614	-1.061538
C86	C	0.190793	2.085614	-0.561538
C87	C	-0.403922	1.451143	-1.061491
C88	C	0.096078	1.951143	-0.561491
C89	C	-0.403949	1.451121	-0.951769
C90	C	0.096051	1.951121	-0.451769
C91	C	-0.356728	1.518224	-0.233156
C92	C	0.143272	2.018224	0.266844
C93	C	-0.356550	1.518394	-0.116380
C94	C	0.143450	2.018394	0.383620
H95	H	-0.442533	1.118201	-0.383993
H96	H	0.057467	1.618201	0.116007
Br97	Br	-0.244922	1.676884	-1.136016
Br98	Br	0.255078	2.176884	-0.636016
Br99	Br	-0.777527	1.734752	-0.445362
Br100	Br	-0.277527	2.234752	0.054638
Br101	Br	-0.933446	1.468333	-0.724854
Br102	Br	-0.433446	1.968333	-0.224854
Br103	Br	-0.468230	0.889324	-0.347477
Br104	Br	0.031770	1.389324	0.152523
Br105	Br	-0.932639	1.730079	-0.435743
Br106	Br	-0.432639	2.230079	0.064257
Br107	Br	-0.778468	1.468264	-0.724150
Br108	Br	-0.278468	1.968264	-0.224150
Br109	Br	-0.468235	1.359847	-0.877281
Br110	Br	0.031765	1.859847	-0.377281
Br111	Br	-0.935207	1.300914	-0.556678
Br112	Br	-0.435207	1.800914	-0.056678
H113	H	-0.270890	1.118406	-0.628248
H114	H	0.229110	1.618406	-0.128248
Br115	Br	-0.245225	0.889605	-0.664801
Br116	Br	0.254775	1.389605	-0.164801
H117	H	-0.270690	1.640339	-0.907170
H118	H	0.229310	2.140339	-0.407170
Br119	Br	-0.779545	1.299689	-0.556008
Br120	Br	-0.279545	1.799689	-0.056008
Br121	Br	-0.468169	1.359908	-1.135918
Br122	Br	0.031831	1.859908	-0.635918
H123	H	-0.918992	1.406503	-0.371882
H124	H	-0.418992	1.906503	0.128118
Br125	Br	-0.777668	1.354289	-0.354656
Br126	Br	-0.277668	1.854289	0.145344
Br127	Br	-0.933488	1.581781	-0.291378
Br128	Br	-0.433488	2.081781	0.208622
H129	H	-0.920411	1.656845	-0.613894
H130	H	-0.420411	2.156845	-0.113894
Br131	Br	-0.779361	1.583486	-0.291581
Br132	Br	-0.279361	2.083486	0.208419
H133	H	-0.792848	1.651467	-0.618445
H134	H	-0.292848	2.151467	-0.118445
