data_functionalizedCrystal
_audit_creation_method	'MofGen! by Chris Wilmer'
_symmetry_space_group_name_H-M	'P1'
_symmetry_Int_Tables_number	1
_symmetry_cell_setting	triclinic
loop_
_symmetry_equiv_pos_as_xyz
  x,y,z
_cell_length_a	16.109301
_cell_length_b	10.065875
_cell_length_c	16.109302
_cell_angle_alpha	81.213141
_cell_angle_beta	83.461772
_cell_angle_gamma	98.741855
loop_
_atom_site_label
_atom_site_type_symbol
_atom_site_fract_x
_atom_site_fract_y
_atom_site_fract_z
O1	O	1.115291	0.113406	0.094652
O2	O	1.615291	0.613406	0.594652
O3	O	0.873231	0.113427	0.107949
O4	O	1.373231	0.613427	0.607949
O5	O	1.000909	0.113407	-0.019729
O6	O	1.500909	0.613407	0.480271
O7	O	0.987613	0.113426	0.222331
O8	O	1.487613	0.613426	0.722331
O9	O	0.976563	-0.113578	0.004715
O10	O	1.476563	0.386422	0.504715
O11	O	0.848885	-0.113558	0.132394
O12	O	1.348885	0.386442	0.632394
O13	O	1.090944	-0.113579	0.119097
O14	O	1.590944	0.386421	0.619097
Zn15	Zn	0.966049	-0.149607	0.129626
Zn16	Zn	1.466049	0.350393	0.629626
Zn17	Zn	0.998127	0.149455	0.097420
Zn18	Zn	1.498127	0.649455	0.597420
O19	O	0.963267	-0.113559	0.246775
O20	O	1.463267	0.386441	0.746775
C21	C	0.830083	-0.000062	0.119632
C22	C	1.330083	0.499938	0.619632
C23	C	0.737789	-0.000054	0.118016
C24	C	1.237789	0.499946	0.618016
N25	N	0.944163	-0.353709	0.151606
N26	N	1.444163	0.146291	0.651606
C27	C	0.515516	-0.000065	0.190025
C28	C	1.015516	0.499935	0.690025
C29	C	0.428794	-0.000074	0.188502
C30	C	0.928794	0.499926	0.688502
C31	C	0.448667	-0.000079	0.037014
C32	C	0.948667	0.499921	0.537014
C33	C	0.535386	-0.000080	0.038539
C34	C	1.035386	0.499920	0.538539
C35	C	0.568808	-0.000066	0.115046
C36	C	1.068808	0.499934	0.615046
C37	C	0.395368	-0.000074	0.111998
C38	C	0.895368	0.499926	0.611998
C39	C	0.301341	-0.000084	0.110346
C40	C	0.801341	0.499916	0.610346
C41	C	0.662841	-0.000059	0.116699
C42	C	1.162841	0.499941	0.616699
C43	C	0.990507	-0.421495	0.105062
C44	C	1.490507	0.078505	0.605062
C45	C	0.973669	-0.578660	0.121984
C46	C	1.473669	-0.078660	0.621984
C47	C	1.134093	-0.000086	0.107413
C48	C	1.634093	0.499914	0.607413
C49	C	1.226388	-0.000086	0.109028
C50	C	1.726388	0.499914	0.609028
C51	C	0.988197	-0.000084	-0.038482
C52	C	1.488197	0.499916	0.461518
C53	C	0.986582	-0.000082	-0.130777
C54	C	1.486582	0.499918	0.369223
N55	N	1.020019	0.353557	0.075434
N56	N	1.520019	0.853557	0.575434
C57	C	0.975979	-0.000064	0.265527
C58	C	1.475979	0.499936	0.765527
C59	C	0.977595	-0.000058	0.357822
C60	C	1.477595	0.499942	0.857822
C61	C	0.994600	0.123662	0.556839
C62	C	1.494600	0.623662	1.056839
C63	C	0.996126	0.123660	0.643560
C64	C	1.496126	0.623660	1.143560
C65	C	0.969578	-0.123812	0.670200
C66	C	1.469578	0.376188	1.170200
C67	C	0.968058	-0.123807	0.583480
C68	C	1.468058	0.376193	1.083480
C69	C	0.980565	-0.000066	0.526802
C70	C	1.480565	0.499934	1.026802
C71	C	0.983612	-0.000074	0.700242
C72	C	1.483612	0.499926	1.200242
C73	C	0.985266	-0.000078	0.794269
C74	C	1.485266	0.499922	1.294269
C75	C	0.978912	-0.000062	0.432770
C76	C	1.478912	0.499938	0.932770
H77	H	0.542724	-0.000063	0.252323
H78	H	1.042724	0.499937	0.752323
H79	H	0.892018	-0.412027	0.203978
H80	H	1.392018	0.087973	0.703978
H81	H	1.004783	0.224421	0.510694
H82	H	1.504783	0.724421	1.010694
N83	N	0.592866	-0.000093	-0.042338
N84	N	1.092866	0.499907	0.457662
H85	H	0.591145	0.084048	-0.084780
H86	H	1.091145	0.584048	0.415220
H87	H	0.652843	-0.000151	-0.029689
H88	H	1.152843	0.499849	0.470311
N89	N	1.011268	0.257109	0.675958
N90	N	1.511268	0.757109	1.175958
H91	H	1.018961	0.335493	0.626891
H92	H	1.518961	0.835493	1.126891
H93	H	0.960970	0.262506	0.718115
H94	H	1.460970	0.762506	1.218115
H95	H	0.421443	-0.000099	-0.025275
H96	H	0.921443	0.499901	0.474725
N97	N	1.059556	-0.344263	0.035661
N98	N	1.559556	0.155737	0.535661
H99	H	1.061787	-0.242937	0.033401
H100	H	1.561787	0.257063	0.533401
H101	H	1.115933	-0.369134	0.047761
H102	H	1.615933	0.130866	0.547761
H103	H	0.385406	-0.000075	0.249558
H104	H	0.885406	0.499925	0.749558
H105	H	0.921521	-0.636973	0.174361
H106	H	1.421521	-0.136973	0.674361
N107	N	0.956075	-0.257275	0.731328
N108	N	1.456075	0.242725	1.231328
H109	H	1.001514	-0.311377	0.715306
H110	H	1.501514	0.188623	1.215306
H111	H	0.959143	-0.238399	0.790802
H112	H	1.459143	0.261601	1.290802
H113	H	0.956631	-0.224568	0.559025
H114	H	1.456631	0.275432	1.059025
H115	H	1.072161	-0.588130	0.023051
H116	H	1.572161	-0.088130	0.523051
