data_functionalizedCrystal
_audit_creation_method	'MofGen! by Chris Wilmer'
_symmetry_space_group_name_H-M	'P1'
_symmetry_Int_Tables_number	1
_symmetry_cell_setting	triclinic
loop_
_symmetry_equiv_pos_as_xyz
  x,y,z
_cell_length_a	14.971482
_cell_length_b	10.654551
_cell_length_c	14.048226
_cell_angle_alpha	89.996418
_cell_angle_beta	89.994098
_cell_angle_gamma	84.048985
loop_
_atom_site_label
_atom_site_type_symbol
_atom_site_fract_x
_atom_site_fract_y
_atom_site_fract_z
O1	O	1.187840	0.163637	-0.079142
O2	O	0.927546	0.183240	-0.079146
O3	O	1.063677	-0.009365	-0.079145
O4	O	1.051709	0.356242	-0.079144
O5	O	1.063661	-0.009377	0.079177
O6	O	0.927530	0.183229	0.079175
O7	O	1.187823	0.163625	0.079179
Zn8	Zn	1.057674	0.173425	0.104314
Zn9	Zn	1.057696	0.173440	-0.104281
O10	O	1.051692	0.356230	0.079178
C11	C	0.894208	0.182358	0.000014
C12	C	0.794897	0.179734	0.000012
C13	C	0.748236	0.178491	0.086314
C14	C	0.654924	0.176005	0.086315
C15	C	0.608274	0.174770	0.000013
C16	C	0.654941	0.176009	-0.086295
C17	C	0.748252	0.178486	-0.086295
C18	C	0.460451	0.170849	-0.086289
C19	C	0.367133	0.168374	-0.086290
C20	C	0.367123	0.168368	0.086321
C21	C	0.460434	0.170845	0.086321
C22	C	0.507095	0.172086	0.000012
C23	C	1.062790	-0.056159	0.000014
C24	C	1.060160	-0.195574	0.000007
C25	C	1.058936	-0.261067	-0.086292
C26	C	1.056457	-0.392061	-0.086287
C27	C	1.056431	-0.392058	0.086323
C28	C	1.058904	-0.261066	0.086318
C29	C	1.058954	-0.261070	-0.185947
C30	C	1.056475	-0.392064	-0.185943
C31	C	1.221161	0.164507	0.000017
C32	C	1.320473	0.167131	0.000012
C33	C	1.052580	0.403025	0.000017
C34	C	1.055209	0.542439	0.000017
N35	N	1.057665	0.173414	0.246675
N36	N	1.057711	0.173441	-0.246642
C37	C	1.117964	0.088164	0.296493
C38	C	1.117970	0.088163	0.396151
C39	C	1.057681	0.173420	0.445988
C40	C	0.997377	0.258674	0.396163
C41	C	0.997367	0.258668	0.296507
C42	C	0.997402	0.258683	0.603877
C43	C	0.997413	0.258691	0.703539
C44	C	1.118005	0.088179	0.703521
C45	C	1.117995	0.088172	0.603865
C46	C	1.057692	0.173429	0.554047
H47	H	0.329153	0.167369	-0.156564
Br48	Br	0.955943	-0.182809	-0.249731
Br49	Br	0.811538	0.180180	0.203445
H50	H	1.167068	0.018745	0.436713
Br51	Br	1.199823	-0.027521	0.536226
H52	H	0.991244	-0.420928	-0.216875
H53	H	1.124194	-0.232202	-0.216866
Br54	Br	0.915524	0.374362	0.228895
Br55	Br	0.915556	0.374385	0.536268
H56	H	1.059896	-0.207746	0.156591
H57	H	0.616951	0.174995	-0.156564
Br58	Br	1.199795	-0.027540	0.228868
Br59	Br	1.159505	-0.470333	-0.249707
H60	H	1.167106	0.018760	0.744090
H61	H	1.055407	-0.445397	0.156594
Br62	Br	0.915589	0.374402	0.771169
H63	H	0.948284	0.328087	0.436746
H64	H	0.616939	0.174972	0.156591
Br65	Br	0.523744	0.172540	0.203447
H66	H	0.329128	0.167358	0.156597
H67	H	0.498439	0.171860	-0.156571
H68	H	0.786241	0.179500	-0.156571
