data_functionalizedCrystal
_audit_creation_method	'MofGen! by Chris Wilmer'
_symmetry_space_group_name_H-M	'P1'
_symmetry_Int_Tables_number	1
_symmetry_cell_setting	triclinic
loop_
_symmetry_equiv_pos_as_xyz
  x,y,z
_cell_length_a	19.077105
_cell_length_b	29.839131
_cell_length_c	19.076929
_cell_angle_alpha	92.257200
_cell_angle_beta	90.078300
_cell_angle_gamma	87.731134
loop_
_atom_site_label
_atom_site_type_symbol
_atom_site_fract_x
_atom_site_fract_y
_atom_site_fract_z
Zn1	Zn	1.058192	-0.217322	-0.440347
Zn2	Zn	1.062816	-0.289559	-0.322817
Zn3	Zn	0.945416	-0.211308	-0.318143
Zn4	Zn	0.940634	-0.289284	-0.435570
O5	O	1.001765	-0.251868	-0.379219
O6	O	1.157137	-0.229536	-0.428712
O7	O	1.051180	-0.276777	-0.223867
O8	O	0.960443	-0.149242	-0.334396
O9	O	1.160534	-0.282608	-0.342364
O10	O	1.043299	-0.153660	-0.424179
O11	O	0.964927	-0.219286	-0.220433
O12	O	0.846451	-0.219020	-0.329764
O13	O	0.952291	-0.282140	-0.534534
O14	O	0.842937	-0.276308	-0.416037
O15	O	1.038661	-0.229270	-0.538044
O16	O	1.046542	-0.352387	-0.337731
O17	O	0.956775	-0.352185	-0.420570
C18	C	0.819198	-0.246982	-0.371875
C19	C	0.741095	-0.244903	-0.368750
C20	C	0.702593	-0.273795	-0.412129
C21	C	0.629207	-0.271836	-0.409196
C22	C	0.594323	-0.240986	-0.362880
C23	C	0.632829	-0.212091	-0.319499
C24	C	0.706215	-0.214049	-0.322436
C25	C	0.375039	-0.231927	-0.349291
C26	C	0.301648	-0.229972	-0.346355
C27	C	0.298030	-0.289716	-0.436053
C28	C	0.371417	-0.291673	-0.438983
C29	C	0.409917	-0.262776	-0.395605
N30	N	0.519310	-0.238984	-0.359880
N31	N	0.484929	-0.264777	-0.398610
C32	C	1.001660	-0.368587	-0.379156
C33	C	1.001678	-0.418521	-0.379155
C34	C	1.044895	-0.730436	-0.426033
C35	C	1.044970	-0.918112	-0.426078
O36	O	1.081611	-0.944304	-0.465888
N37	N	1.001881	-0.939315	-0.379302
C38	C	0.958767	-0.913597	-0.332514
O39	O	0.922113	-0.935938	-0.292734
C40	C	0.958689	-0.725922	-0.332473
C41	C	1.001786	-0.704721	-0.379247
C42	C	1.087988	-0.709235	-0.472804
C43	C	1.087972	-0.662318	-0.472790
C44	C	1.044863	-0.636603	-0.426004
C45	C	1.001770	-0.657804	-0.379233
C46	C	0.915572	-0.700204	-0.285689
C47	C	0.915555	-0.653282	-0.285684
C48	C	0.958652	-0.632081	-0.332459
C49	C	0.958644	-0.585173	-0.332433
N50	N	1.001733	-0.563970	-0.379209
C51	C	1.044843	-0.589685	-0.425995
C52	C	0.958812	-1.012129	-0.332538
C53	C	0.958832	-1.059048	-0.332548
C54	C	1.045034	-1.063560	-0.426113
C55	C	1.045017	-1.016640	-0.426099
C56	C	1.001901	-0.990926	-0.379315
C57	C	1.044806	-0.491157	-0.425961
C58	C	1.044788	-0.444236	-0.425940
C59	C	0.958583	-0.439729	-0.332378
C60	C	0.958603	-0.486645	-0.332396
C61	C	1.001717	-0.512358	-0.379193
O62	O	0.922016	-0.558953	-0.292650
O63	O	1.081479	-0.567335	-0.465780
C64	C	1.044912	-0.777352	-0.426047
C65	C	1.001819	-0.798553	-0.379276
C66	C	0.958709	-0.772838	-0.332491
C67	C	1.001839	-0.845472	-0.379286
C68	C	1.044948	-0.871187	-0.426071
C69	C	1.088037	-0.849983	-0.472847
C70	C	1.088021	-0.803067	-0.472833
C71	C	0.915620	-0.794042	-0.285714
C72	C	0.915641	-0.840958	-0.285732
C73	C	0.958750	-0.866673	-0.332518
C74	C	1.185044	-0.256774	-0.386592
C75	C	1.263147	-0.258864	-0.389734
C76	C	0.994427	-0.256345	-0.562498
C77	C	0.991300	-0.258253	-0.640600
C78	C	1.001888	-0.134695	-0.379299
C79	C	1.001941	-0.084763	-0.379333
C80	C	0.968878	-0.271973	-1.080037
C81	C	0.971813	-0.270173	-1.006652
C82	C	1.018252	-0.241750	-0.971790
C83	C	1.061754	-0.215121	-1.010317
C84	C	1.058814	-0.216918	-1.083701
C85	C	1.031862	-0.233421	-0.752511
C86	C	1.034800	-0.231627	-0.679122
C87	C	0.944858	-0.286679	-0.675461
C88	C	0.941925	-0.288476	-0.748847
C89	C	0.985424	-0.261845	-0.787368
N90	N	1.021255	-0.239911	-0.896778
N91	N	0.982417	-0.263682	-0.862378
C92	C	1.009114	-0.247377	-0.196656
C93	C	1.012377	-0.245346	-0.118559
H94	H	0.399815	-0.316795	-0.476697
H95	H	0.597862	-0.295363	-0.444519
H96	H	0.273248	-0.204846	-0.308643
H97	H	0.266676	-0.313242	-0.471370
H98	H	0.923486	-0.418784	-0.294284
H99	H	0.406377	-0.208400	-0.313964
H100	H	0.730990	-0.298917	-0.449843
H101	H	0.604421	-0.186971	-0.281791
H102	H	1.072616	-0.208478	-0.650740
H103	H	0.936398	-0.291861	-0.975290
H104	H	0.737562	-0.190520	-0.287116
H105	H	1.094234	-0.195234	-1.115065
H106	H	1.079885	-0.426976	-0.464030
H107	H	1.079908	-0.512087	-0.464072
H108	H	1.123093	-0.730167	-0.510907
H109	H	1.123141	-0.870929	-0.510939
H110	H	0.880547	-0.858215	-0.247636
H111	H	1.123063	-0.645060	-0.510879
H112	H	1.080110	-0.999381	-0.464188
H113	H	1.080136	-1.084505	-0.464207
H114	H	0.909443	-0.308360	-0.644090
H115	H	0.923700	-0.991195	-0.294439
H116	H	0.923746	-1.076305	-0.294452
H117	H	0.880478	-0.717457	-0.247600
H118	H	1.099563	-0.191976	-0.981927
H119	H	0.880442	-0.632348	-0.247587
H120	H	0.904110	-0.311622	-0.777226
H121	H	1.123114	-0.785809	-0.510921
H122	H	0.923516	-0.503908	-0.294303
H123	H	0.880514	-0.773108	-0.247617
H124	H	0.931064	-0.295120	-1.108416
H125	H	1.067286	-0.211739	-0.783866
