data_functionalizedCrystal
_audit_creation_method	'MofGen! by Chris Wilmer'
_symmetry_space_group_name_H-M	'P1'
_symmetry_Int_Tables_number	1
_symmetry_cell_setting	triclinic
loop_
_symmetry_equiv_pos_as_xyz
  x,y,z
_cell_length_a	11.169417
_cell_length_b	25.639239
_cell_length_c	25.639234
_cell_angle_alpha	90.024584
_cell_angle_beta	90.014881
_cell_angle_gamma	90.039565
loop_
_atom_site_label
_atom_site_type_symbol
_atom_site_fract_x
_atom_site_fract_y
_atom_site_fract_z
Zn1	Zn	1.834667	-0.208172	0.295573
Zn2	Zn	2.334667	0.291828	0.795573
Zn3	Zn	1.834475	-0.295600	0.208138
Zn4	Zn	2.334475	0.204400	0.708138
Zn5	Zn	1.633970	-0.208181	0.208156
Zn6	Zn	2.133970	0.291819	0.708156
Zn7	Zn	1.633861	-0.295580	0.295546
Zn8	Zn	2.133861	0.204420	0.795546
O9	O	1.734243	-0.251883	0.251853
O10	O	2.234243	0.248117	0.751853
O11	O	2.002591	-0.219774	0.283979
O12	O	2.502591	0.280226	0.783979
O13	O	1.807842	-0.284016	0.134975
O14	O	2.307842	0.215984	0.634975
O15	O	1.660720	-0.135015	0.219771
O16	O	2.160720	0.364985	0.719771
O17	O	2.002450	-0.284007	0.219740
O18	O	2.502450	0.215993	0.719740
O19	O	1.808171	-0.135008	0.283996
O20	O	2.308171	0.364992	0.783996
O21	O	1.660533	-0.219790	0.134988
O22	O	2.160533	0.280210	0.634988
O23	O	1.466006	-0.219771	0.219745
O24	O	1.966006	0.280229	0.719745
O25	O	1.660534	-0.283972	0.368715
O26	O	2.160534	0.216028	0.868715
O27	O	1.465926	-0.283982	0.283950
O28	O	1.965926	0.216018	0.783950
O29	O	1.808065	-0.219754	0.368735
O30	O	2.308065	0.280246	0.868735
O31	O	1.807737	-0.368762	0.219714
O32	O	2.307737	0.131238	0.719714
O33	O	1.660347	-0.368748	0.283932
O34	O	2.160347	0.131252	0.783932
C35	C	1.422419	-0.251875	0.251846
C36	C	1.922419	0.248125	0.751846
C37	C	1.289019	-0.251885	0.251856
C38	C	1.789019	0.248115	0.751856
C39	C	1.734042	-0.387726	0.251829
C40	C	2.234042	0.112274	0.751829
C41	C	1.734065	-0.445840	0.251837
C42	C	2.234065	0.054160	0.751837
C43	C	1.811190	-0.806198	0.218472
C44	C	2.311190	-0.306198	0.718472
C45	C	1.811236	-0.860802	0.218479
C46	C	2.311236	-0.360802	0.718479
O47	O	1.876601	-0.889035	0.190084
O48	O	2.376601	-0.389035	0.690084
N49	N	1.734454	-0.888122	0.251888
N50	N	2.234454	-0.388122	0.751888
C51	C	1.657630	-0.860835	0.285296
C52	C	2.157630	-0.360835	0.785296
O53	O	1.592326	-0.889087	0.313714
O54	O	2.092326	-0.389087	0.813714
C55	C	1.657590	-0.806232	0.285291
C56	C	2.157590	-0.306232	0.785291
C57	C	1.734368	-0.778915	0.251876
C58	C	2.234368	-0.278915	0.751876
C59	C	1.887962	-0.778881	0.185059
C60	C	2.387962	-0.278881	0.685059
C61	C	1.887914	-0.724280	0.185052
C62	C	2.387914	-0.224280	0.685052
C63	C	1.811093	-0.696997	0.218456
C64	C	2.311093	-0.196997	0.718456
C65	C	1.734320	-0.724314	0.251869
C66	C	2.234320	-0.224314	0.751869
C67	C	1.580773	-0.778946	0.318702
C68	C	2.080773	-0.278946	0.818702
C69	C	1.580740	-0.724339	0.318694
C70	C	2.080740	-0.224339	0.818694
C71	C	1.657518	-0.697021	0.285279
C72	C	2.157518	-0.197021	0.785279
C73	C	1.657450	-0.642430	0.285266
C74	C	2.157450	-0.142430	0.785266
N75	N	1.734232	-0.615110	0.251856
N76	N	2.234232	-0.115110	0.751856
C77	C	1.811053	-0.642394	0.218452
C78	C	2.311053	-0.142394	0.718452
C79	C	1.657720	-0.975506	0.285304
C80	C	2.157720	-0.475506	0.785304
C81	C	1.657753	-1.030108	0.285307
C82	C	2.157753	-0.530108	0.785307
C83	C	1.811361	-1.030071	0.218490
C84	C	2.311361	-0.530071	0.718490
C85	C	1.811321	-0.975468	0.218485
C86	C	2.311321	-0.475468	0.718485
C87	C	1.734502	-0.948186	0.251895
C88	C	2.234502	-0.448186	0.751895
C89	C	1.810945	-0.527729	0.218438
C90	C	2.310945	-0.027729	0.718438
C91	C	1.810886	-0.473123	0.218432
C92	C	2.310886	0.026877	0.718432
C93	C	1.657283	-0.473165	0.285251
C94	C	2.157283	0.026835	0.785251
C95	C	1.657337	-0.527765	0.285255
C96	C	2.157337	-0.027765	0.785255
C97	C	1.734178	-0.555046	0.251847
C98	C	2.234178	-0.055046	0.751847
O99	O	1.592123	-0.614163	0.313647
O100	O	2.092123	-0.114163	0.813647
O101	O	1.876357	-0.614135	0.190043
O102	O	2.376357	-0.114135	0.690043
C103	C	2.047286	-0.251892	0.251860
C104	C	2.547286	0.248108	0.751860
C105	C	2.180686	-0.251895	0.251863
C106	C	2.680686	0.248105	0.751863
C107	C	1.734309	-0.251860	0.388226
C108	C	2.234309	0.248140	0.888226
C109	C	1.734336	-0.251850	0.446340
C110	C	2.234336	0.248150	0.946340
C111	C	1.734479	-0.115510	0.251889
C112	C	2.234479	0.384490	0.751889
C113	C	1.734579	-0.057396	0.251904
C114	C	2.234579	0.442604	0.751904
C115	C	1.734248	-0.251868	0.116011
C116	C	2.234248	0.248132	0.616011
C117	C	1.734453	-0.251731	0.057897
C118	C	2.234453	0.248269	0.557897
C119	C	1.811072	-0.285250	0.697519
C120	C	2.311072	0.214750	1.197519
C121	C	1.811059	-0.285261	0.642915
C122	C	2.311059	0.214739	1.142915
O123	O	1.876247	-0.313716	0.614666
O124	O	2.376247	0.186284	1.114666
N125	N	1.734362	-0.251825	0.615614
N126	N	2.234362	0.248175	1.115614
C127	C	1.657664	-0.218380	0.642921
C128	C	2.157664	0.281620	1.142921
O129	O	1.592426	-0.189942	0.614685
O130	O	2.092426	0.310058	1.114685
C131	C	1.657672	-0.218372	0.697524
C132	C	2.157672	0.281628	1.197524
C133	C	1.734383	-0.251806	0.724822
C134	C	2.234383	0.248194	1.224822
C135	C	1.887775	-0.318682	0.724817
C136	C	2.387775	0.181318	1.224817
C137	C	1.887789	-0.318670	0.779418
C138	C	2.387789	0.181330	1.279418
C139	C	1.811100	-0.285226	0.806720
C140	C	2.311100	0.214774	1.306720
C141	C	1.734396	-0.251794	0.779423
C142	C	2.234396	0.248206	1.279423
C143	C	1.580969	-0.184930	0.724829
C144	C	2.080969	0.315070	1.224829
C145	C	1.580982	-0.184925	0.779437
C146	C	2.080982	0.315075	1.279437
C147	C	1.657693	-0.218359	0.806734
C148	C	2.157693	0.281641	1.306734
C149	C	1.657721	-0.218339	0.861326
C150	C	2.157721	0.281661	1.361326
N151	N	1.734418	-0.251775	0.888626
N152	N	2.234418	0.248225	1.388626
C153	C	1.811107	-0.285218	0.861324
C154	C	2.311107	0.214782	1.361324
C155	C	1.657653	-0.218400	0.528250
C156	C	2.157653	0.281600	1.028250
C157	C	1.657651	-0.218405	0.473648
C158	C	2.157651	0.281595	0.973648
C159	C	1.811044	-0.285286	0.473646
C160	C	2.311044	0.214714	0.973646
C161	C	1.811052	-0.285278	0.528249
C162	C	2.311052	0.214722	1.028249
C163	C	1.734350	-0.251835	0.555551
C164	C	2.234350	0.248165	1.055551
C165	C	1.811131	-0.285191	0.975989
C166	C	2.311131	0.214809	1.475989
C167	C	1.811142	-0.285175	1.030594
C168	C	2.311142	0.214825	1.530594
C169	C	1.657744	-0.218295	1.030592
C170	C	2.157744	0.281705	1.530592
C171	C	1.657738	-0.218309	0.975991
C172	C	2.157738	0.281691	1.475991
C173	C	1.734435	-0.251761	0.948691
C174	C	2.234435	0.248239	1.448691
O175	O	1.592563	-0.189900	0.889609
O176	O	2.092563	0.310100	1.389609
O177	O	1.876324	-0.313657	0.889566
O178	O	2.376324	0.186343	1.389566
H179	H	1.873408	-0.450883	0.191219
H180	H	2.373408	0.049117	0.691219
N181	N	1.889440	-0.555582	0.184309
N182	N	2.389440	-0.055582	0.684309
N183	N	1.957972	-0.531176	0.154480
N184	N	2.457972	-0.031176	0.654480
H185	H	2.013403	-0.550847	0.130373
H186	H	2.513403	-0.050847	0.630373
N187	N	1.578838	-0.445288	0.319379
N188	N	2.078838	0.054712	0.819379
N189	N	1.586753	-0.451352	0.367628
N190	N	2.086753	0.048648	0.867628
H191	H	1.531358	-0.431662	0.391735
H192	H	2.031358	0.068338	0.891735
N193	N	1.579301	-0.184255	0.445759
N194	N	2.079301	0.315745	0.945759
N195	N	1.579285	-0.184266	0.397007
N196	N	2.079285	0.315734	0.897007
H197	H	1.523943	-0.160150	0.377311
H198	H	2.023943	0.339850	0.877311
H199	H	1.950437	-0.702042	0.157844
H200	H	2.450437	-0.202042	0.657844
H201	H	1.950526	-0.801089	0.157857
H202	H	2.450526	-0.301089	0.657857
H203	H	1.518246	-0.801178	0.345910
H204	H	2.018246	-0.301178	0.845910
H205	H	1.518186	-0.702128	0.345903
H206	H	2.018186	-0.202128	0.845903
H207	H	1.594822	-0.550008	0.312466
H208	H	2.094822	-0.050008	0.812466
N209	N	1.579371	-0.184160	0.948107
N210	N	2.079371	0.315840	1.448107
N211	N	1.502838	-0.202559	0.917635
N212	N	2.002838	0.297441	1.417635
H213	H	1.447481	-0.178443	0.897946
H214	H	1.947481	0.321557	1.397946
N215	N	1.889735	-0.947560	0.184353
N216	N	2.389735	-0.447560	0.684353
N217	N	1.847533	-0.917127	0.151016
N218	N	2.347533	-0.417127	0.651016
H219	H	1.902915	-0.897418	0.126909
H220	H	2.402915	-0.397418	0.626909
H221	H	1.595221	-1.052345	0.312512
H222	H	2.095221	-0.552345	0.812512
N223	N	1.502601	-0.150787	0.696946
N224	N	2.002601	0.349213	1.196946
N225	N	1.502578	-0.150795	0.648194
N226	N	2.002578	0.349205	1.148194
H227	H	1.447224	-0.126681	0.628501
H228	H	1.947224	0.373319	1.128501
H229	H	1.950251	-0.345897	0.801639
H230	H	2.450251	0.154103	1.301639
N231	N	1.889824	-1.057955	0.184369
N232	N	2.389824	-0.557955	0.684369
N233	N	1.889842	-1.106707	0.184383
N234	N	2.389842	-0.606707	0.684383
H235	H	1.945252	-1.126402	0.160286
H236	H	2.445252	-0.626402	0.660286
N237	N	1.579218	-0.947639	0.319422
N238	N	2.079218	-0.447639	0.819422
N239	N	1.502735	-0.917216	0.300995
N240	N	2.002735	-0.417216	0.800995
H241	H	1.447294	-0.897537	0.325090
H242	H	1.947294	-0.397537	0.825090
N243	N	1.579391	-0.184144	1.058486
N244	N	2.079391	0.315856	1.558486
N245	N	1.468638	-0.187616	1.052381
N246	N	1.968638	0.312384	1.552381
H247	H	1.413292	-0.163499	1.072083
H248	H	1.913292	0.336501	1.572083
H249	H	1.873594	-0.312427	0.953768
H250	H	2.373594	0.187573	1.453768
N251	N	1.889388	-0.319441	0.556129
N252	N	2.389388	0.180559	1.056129
N253	N	1.847112	-0.352758	0.586580
N254	N	2.347112	0.147242	1.086580
H255	H	1.902439	-0.376889	0.606267
H256	H	2.402439	0.123111	1.106267
N257	N	1.889388	-0.319441	0.445743
N258	N	2.389388	0.180559	0.945743
N259	N	1.889365	-0.319437	0.396990
N260	N	2.389365	0.180563	0.896990
H261	H	1.944697	-0.343555	0.377282
H262	H	2.444697	0.156445	0.877282
N263	N	1.889520	-0.319328	1.058470
N264	N	2.389520	0.180672	1.558470
N265	N	1.957986	-0.349185	1.034081
N266	N	2.457986	0.150815	1.534081
H267	H	2.013340	-0.373305	1.053766
H268	H	2.513340	0.126695	1.553766
H269	H	1.595197	-0.191161	0.550476
H270	H	2.095197	0.308839	1.050476
N271	N	1.966121	-0.352852	0.696942
N272	N	2.466121	0.147148	1.196942
N273	N	2.034590	-0.382698	0.721332
N274	N	2.534590	0.117302	1.221332
H275	H	2.089932	-0.406831	0.701649
H276	H	2.589932	0.093169	1.201649
N277	N	1.502617	-0.150762	0.807315
N278	N	2.002617	0.349238	1.307315
N279	N	1.434137	-0.120917	0.782931
N280	N	1.934137	0.379083	1.282931
H281	H	1.378792	-0.096788	0.802619
H282	H	1.878792	0.403212	1.302619
