data_functionalizedCrystal
_audit_creation_method	'MofGen! by Chris Wilmer'
_symmetry_space_group_name_H-M	'P1'
_symmetry_Int_Tables_number	1
_symmetry_cell_setting	triclinic
loop_
_symmetry_equiv_pos_as_xyz
  x,y,z
_cell_length_a	15.995362
_cell_length_b	10.723024
_cell_length_c	9.798715
_cell_angle_alpha	90.002487
_cell_angle_beta	90.002240
_cell_angle_gamma	96.017375
loop_
_atom_site_label
_atom_site_type_symbol
_atom_site_fract_x
_atom_site_fract_y
_atom_site_fract_z
O1	O	-0.117434	1.655697	0.113436
O2	O	-0.128675	1.292402	0.113445
O3	O	-0.001224	1.483972	0.113450
O4	O	-0.244884	1.464126	0.113431
O5	O	-0.001224	1.483958	-0.113533
O6	O	-0.128674	1.292388	-0.113537
O7	O	-0.117434	1.655683	-0.113547
Zn8	Zn	-0.123054	1.474033	-0.149580
Zn9	Zn	-0.123054	1.474052	0.149479
O10	O	-0.244884	1.464112	-0.113551
C11	C	0.029975	1.483142	-0.000036
C12	C	0.122939	1.480674	-0.000020
C13	C	-0.127857	1.245905	-0.000045
C14	C	-0.125409	1.107382	-0.000040
C15	C	-0.118252	1.702179	-0.000054
C16	C	-0.120699	1.840702	-0.000049
C17	C	0.460736	1.471811	0.000006
C18	C	0.414085	1.335376	0.000515
C19	C	0.317382	1.337844	-0.000005
C20	C	0.293151	1.476207	-0.000006
C21	C	0.333842	1.543493	-0.129620
C22	C	0.430497	1.540059	-0.129720
C23	C	0.430838	1.542894	0.128402
C24	C	0.333893	1.542868	0.130106
C25	C	0.198439	1.478699	-0.000017
C26	C	0.555447	1.469324	0.000008
C27	C	0.723915	1.464926	-0.000040
C28	C	0.630947	1.467345	0.000020
N29	N	-0.123053	1.474029	-0.353680
C30	C	-0.049385	1.916590	-0.000042
C31	C	-0.051913	2.059761	-0.000037
C32	C	-0.069305	1.554467	-0.421455
C33	C	-0.069302	1.554487	-0.578617
N34	N	-0.123049	1.474065	0.353578
H35	H	0.432930	1.280847	0.093468
C36	C	0.280079	1.266127	-0.125840
C37	C	0.215328	1.150586	-0.107388
C38	C	0.177995	1.078974	-0.233276
C39	C	0.205413	1.122902	-0.377616
C40	C	0.270168	1.238448	-0.396074
C41	C	0.307501	1.310061	-0.270186
H42	H	0.195028	1.118063	-0.000533
H43	H	0.130059	0.993439	-0.219611
H44	H	0.177777	1.069890	-0.470805
H45	H	0.290468	1.270972	-0.502928
H46	H	0.355437	1.395596	-0.283851
C47	C	-0.207894	2.019309	-0.000049
C48	C	-0.271081	2.024816	-0.117919
C49	C	-0.353566	1.936732	-0.117928
C50	C	-0.372864	1.843141	-0.000067
C51	C	-0.309675	1.837631	0.117812
C52	C	-0.227190	1.925714	0.117821
H53	H	-0.256797	2.094101	-0.205175
H54	H	-0.400342	1.940812	-0.205190
H55	H	-0.433924	1.777936	-0.000073
H56	H	-0.323959	1.768346	0.205068
H57	H	-0.180414	1.921635	0.205083
C58	C	0.295874	1.480345	-0.259939
C59	C	0.325779	1.529715	-0.401176
C60	C	0.287813	1.466559	-0.531491
C61	C	0.219941	1.354031	-0.520569
C62	C	0.190032	1.304654	-0.379327
C63	C	0.227998	1.367811	-0.249012
H64	H	0.376025	1.613020	-0.409265
H65	H	0.309954	1.503111	-0.636048
H66	H	0.191836	1.307279	-0.617036
H67	H	0.139786	1.221349	-0.371237
H68	H	0.205858	1.331259	-0.144455
H69	H	-0.169064	1.405173	-0.412006
C70	C	0.030569	2.147842	-0.000029
C71	C	0.049867	2.241433	-0.117890
C72	C	0.132351	2.329516	-0.117881
C73	C	0.195539	2.324010	-0.000011
C74	C	0.176243	2.230415	0.117859
C75	C	0.093758	2.142331	0.117850
H76	H	0.003090	2.245512	-0.205152
H77	H	0.146635	2.398801	-0.205137
H78	H	0.256599	2.389215	-0.000005
H79	H	0.223019	2.226335	0.205121
H80	H	0.079474	2.073046	0.205106
C81	C	0.458927	1.482641	0.261128
C82	C	0.509381	1.368113	0.254615
C83	C	0.537470	1.307845	0.387333
C84	C	0.515104	1.362106	0.526563
C85	C	0.464646	1.476640	0.533081
C86	C	0.436558	1.536908	0.400364
H87	H	0.525940	1.327940	0.151544
H88	H	0.574822	1.223059	0.382507
H89	H	0.535896	1.317492	0.624809
H90	H	0.448087	1.516813	0.636153
H91	H	0.399206	1.621695	0.405190
H92	H	0.289263	1.284952	0.092907
C93	C	0.312358	1.679180	0.140693
C94	C	0.257156	1.732587	0.030883
C95	C	0.235620	1.868903	0.041460
C96	C	0.269286	1.951812	0.161847
C97	C	0.324491	1.898405	0.271666
C98	C	0.346027	1.762089	0.261088
H99	H	0.232232	1.671212	-0.058243
H100	H	0.194753	1.908438	-0.039836
H101	H	0.253343	2.052721	0.169677
H102	H	0.349416	1.959780	0.360791
H103	H	0.386894	1.722555	0.342384
H104	H	-0.023288	1.623358	-0.636901
C105	C	-0.185220	1.381021	-0.567704
C106	C	-0.280550	1.382830	-0.588049
C107	C	-0.342721	1.289787	-0.509320
C108	C	-0.309563	1.194934	-0.410246
C109	C	-0.214229	1.193122	-0.389896
C110	C	-0.152058	1.286165	-0.468626
H111	H	-0.305099	1.453049	-0.661394
H112	H	-0.413294	1.291129	-0.524384
H113	H	-0.355587	1.126058	-0.351966
H114	H	-0.189680	1.122903	-0.316552
H115	H	-0.081485	1.284823	-0.453561
H116	H	0.433991	1.281077	-0.091914
H117	H	0.306927	1.493673	0.225991
H118	H	0.449080	1.490979	-0.226610
H119	H	0.462169	1.640228	-0.135596
C120	C	0.313948	1.680807	-0.136150
C121	C	0.265599	1.726831	-0.259030
C122	C	0.245693	1.864139	-0.265558
C123	C	0.274135	1.955422	-0.149207
C124	C	0.322486	1.909399	-0.026319
C125	C	0.342393	1.772092	-0.019790
H126	H	0.244542	1.659256	-0.345167
H127	H	0.209900	1.898207	-0.356528
H128	H	0.259400	2.057066	-0.154040
H129	H	0.343544	1.976974	0.059819
H130	H	0.378186	1.738023	0.071180
H131	H	-0.023287	1.623315	-0.363130
C132	C	0.472958	1.678792	0.129598
C133	C	0.458749	1.767417	0.010092
C134	C	0.500869	1.903310	0.011276
C135	C	0.557199	1.950578	0.131966
C136	C	0.571411	1.861951	0.251480
C137	C	0.529290	1.726058	0.250296
H138	H	0.417047	1.732428	-0.079257
H139	H	0.490348	1.968917	-0.077197
H140	H	0.588379	2.051174	0.132842
H141	H	0.613112	1.896940	0.340830
H142	H	0.539811	1.660451	0.338769
H143	H	-0.183626	1.881726	-0.000060
H144	H	0.013542	1.875566	-0.000060
