data_functionalizedCrystal
_audit_creation_method	'MofGen! by Chris Wilmer'
_symmetry_space_group_name_H-M	'P1'
_symmetry_Int_Tables_number	1
_symmetry_cell_setting	triclinic
loop_
_symmetry_equiv_pos_as_xyz
  x,y,z
_cell_length_a	14.908571
_cell_length_b	16.120484
_cell_length_c	14.908308
_cell_angle_alpha	84.013929
_cell_angle_beta	89.824947
_cell_angle_gamma	89.787312
loop_
_atom_site_label
_atom_site_type_symbol
_atom_site_fract_x
_atom_site_fract_y
_atom_site_fract_z
Zn1	Zn	1.320097	-0.434923	0.609960
Zn2	Zn	1.820097	0.065077	1.109960
Zn3	Zn	1.321040	-0.566744	0.466383
Zn4	Zn	1.821040	-0.066744	0.966383
Zn5	Zn	1.179340	-0.418915	0.450134
Zn6	Zn	1.679340	0.081085	0.950134
Zn7	Zn	1.162126	-0.565754	0.607984
Zn8	Zn	1.662126	-0.065754	1.107984
O9	O	1.245651	-0.496584	0.533615
O10	O	1.745651	0.003416	1.033615
O11	O	1.445636	-0.459523	0.598542
O12	O	1.945636	0.040477	1.098542
O13	O	1.309843	-0.540849	0.338080
O14	O	1.809843	-0.040849	0.838080
O15	O	1.204822	-0.304418	0.465363
O16	O	1.704822	0.195582	0.965363
O17	O	1.446329	-0.556371	0.493056
O18	O	1.946329	-0.056371	0.993056
O19	O	1.308235	-0.316179	0.582786
O20	O	1.808235	0.183821	1.082786
O21	O	1.205736	-0.432240	0.326142
O22	O	1.705736	0.067760	0.826142
O23	O	1.051643	-0.431280	0.463446
O24	O	1.551643	0.068720	0.963446
O25	O	1.175482	-0.554684	0.734394
O26	O	1.675482	-0.054684	1.234394
O27	O	1.038995	-0.539162	0.579418
O28	O	1.538995	-0.039162	1.079418
O29	O	1.291543	-0.458562	0.735846
O30	O	1.791543	0.041438	1.235846
O31	O	1.293150	-0.683233	0.491140
O32	O	1.793150	-0.183233	0.991140
O33	O	1.176396	-0.682506	0.595173
O34	O	1.676396	-0.182506	1.095173
C35	C	1.012801	-0.483377	0.519455
C36	C	1.512801	0.016623	1.019455
C37	C	0.913184	-0.477748	0.513419
C38	C	1.413184	0.022252	1.013419
C39	C	0.712871	-0.579666	0.622692
C40	C	1.212871	-0.079666	1.122692
C41	C	0.619272	-0.574380	0.617025
C42	C	1.119272	-0.074380	1.117025
C43	C	0.632384	-0.461887	0.496421
C44	C	1.132384	0.038113	0.996421
C45	C	0.725983	-0.467173	0.502089
C46	C	1.225983	0.032827	1.002089
C47	C	0.766223	-0.526065	0.565226
C48	C	1.266223	-0.026065	1.065226
C49	C	0.859824	-0.531355	0.570888
C50	C	1.359824	-0.031355	1.070888
C51	C	0.872935	-0.418858	0.450290
C52	C	1.372935	0.081142	0.950290
C53	C	0.779335	-0.413572	0.444622
C54	C	1.279335	0.086428	0.944622
C55	C	1.233031	-0.713110	0.544726
C56	C	1.733031	-0.213110	1.044726
C57	C	1.227712	-0.805747	0.549515
C58	C	1.727712	-0.305747	1.049515
C59	C	1.218005	-0.975358	0.558276
C60	C	1.718005	-0.475358	1.058276
C61	C	1.273456	-1.016980	0.508979
C62	C	1.773456	-0.516980	1.008979
C63	C	1.268055	-1.111356	0.513854
C64	C	1.768055	-0.611356	1.013854
C65	C	1.223405	-0.880972	0.553403
C66	C	1.723405	-0.380972	1.053403
C67	C	1.479410	-0.509843	0.547832
C68	C	1.979410	-0.009843	1.047832
C69	C	1.579025	-0.515493	0.553890
C70	C	2.079025	-0.015493	1.053890
C71	C	1.231487	-0.508298	0.768743
C72	C	1.731487	-0.008298	1.268743
C73	C	1.225451	-0.513290	0.868941
C74	C	1.725451	-0.013290	1.368941
C75	C	1.258344	-0.279214	0.522482
C76	C	1.758344	0.220786	1.022482
C77	C	1.263752	-0.186584	0.517738
C78	C	1.763752	0.313416	1.017738
C79	C	1.259815	-0.484858	0.299402
C80	C	1.759815	0.015142	0.799402
C81	C	1.266038	-0.479641	0.199204
C82	C	1.766038	0.020359	0.699204
C83	C	1.334963	-0.422560	1.058735
C84	C	1.834963	0.077440	1.558735
C85	C	1.329294	-0.427248	1.152880
C86	C	1.829294	0.072752	1.652880
C87	C	1.208443	-0.527348	1.151376
C88	C	1.708443	-0.027348	1.651376
C89	C	1.214111	-0.522661	1.057231
C90	C	1.714111	-0.022661	1.557231
C91	C	1.277374	-0.470266	1.010914
C92	C	1.777374	0.029734	1.510914
C93	C	1.283046	-0.465583	0.916769
C94	C	1.783046	0.034417	1.416769
C95	C	1.162191	-0.565679	0.915266
C96	C	1.662191	-0.065679	1.415266
C97	C	1.156523	-0.570366	1.009410
C98	C	1.656523	-0.070366	1.509410
H99	H	0.892586	-0.579309	0.622296
H100	H	1.392586	-0.079309	1.122296
C101	C	1.327935	-0.984896	0.357658
C102	C	1.827935	-0.484896	0.857658
C103	C	1.343017	-0.969409	0.447052
C104	C	1.843017	-0.469409	0.947052
H105	H	1.370880	-0.955529	0.319429
H106	H	1.870880	-0.455529	0.819429
H107	H	1.269327	-0.966663	0.340050
H108	H	1.769327	-0.466663	0.840050
H109	H	1.333386	-1.043000	0.352867
H110	H	1.833386	-0.543000	0.852867
H111	H	1.337559	-0.911305	0.451844
H112	H	1.837559	-0.411305	0.951844
H113	H	1.401639	-0.987637	0.464665
H114	H	1.901639	-0.487637	0.964665
C115	C	0.690513	-0.690333	0.741332
C116	C	1.190513	-0.190333	1.241332
C117	C	0.757110	-0.644399	0.692089
C118	C	1.257110	-0.144399	1.192089
H119	H	0.717825	-0.730292	0.784179
H120	H	1.217825	-0.230292	1.284179
H121	H	0.654520	-0.718134	0.701423
H122	H	1.154520	-0.218134	1.201423
H123	H	0.654039	-0.653723	0.771804
H124	H	1.154039	-0.153723	1.271804
H125	H	0.793581	-0.681008	0.661612
H126	H	1.293581	-0.181008	1.161612
H127	H	0.793119	-0.616596	0.732004
H128	H	1.293119	-0.116596	1.232004
H129	H	1.166480	-1.010601	0.604138
H130	H	1.666480	-0.510601	1.104138
H131	H	1.376187	-0.388398	1.191812
H132	H	1.876187	0.111602	1.691812
H133	H	0.599604	-0.413934	0.445024
H134	H	1.099604	0.086066	0.945024
H135	H	0.746559	-0.365621	0.393220
H136	H	1.246559	0.134379	0.893220
H137	H	0.916384	-0.375214	0.403494
H138	H	1.416384	0.124786	0.903494
C139	C	1.401923	-0.367101	0.927714
C140	C	1.901923	0.132899	1.427714
C141	C	1.352579	-0.407988	0.865854
C142	C	1.852579	0.092012	1.365854
H143	H	1.444845	-0.331538	0.896281
H144	H	1.944845	0.168462	1.396281
H145	H	1.431877	-0.407180	0.968376
H146	H	1.931877	0.092820	1.468376
H147	H	1.362511	-0.334844	0.960428
H148	H	1.862511	0.165156	1.460428
H149	H	1.391991	-0.440250	0.833144
H150	H	1.891991	0.059750	1.333144
H151	H	1.322623	-0.367903	0.825177
H152	H	1.822623	0.132097	1.325177
H153	H	1.386478	-0.379902	1.021024
H154	H	1.886478	0.120098	1.521024
C155	C	0.506061	-0.586221	0.732495
C156	C	1.006061	-0.086221	1.232495
C157	C	0.560626	-0.633300	0.680193
C158	C	1.060626	-0.133300	1.180193
H159	H	0.469860	-0.622598	0.771498
H160	H	0.969860	-0.122598	1.271498
H161	H	0.468701	-0.550403	0.694083
H162	H	0.968701	-0.050403	1.194083
H163	H	0.542621	-0.553745	0.767385
H164	H	1.042621	-0.053745	1.267385
H165	H	0.524065	-0.665772	0.645297
H166	H	1.024065	-0.165772	1.145297
H167	H	0.597989	-0.669133	0.718609
H168	H	1.097989	-0.169133	1.218609
C169	C	1.146080	-0.578952	1.295028
C170	C	1.646080	-0.078952	1.795028
C171	C	1.138896	-0.584923	1.202297
C172	C	1.638896	-0.084923	1.702297
H173	H	1.103143	-0.614497	1.326462
H174	H	1.603143	-0.114497	1.826462
H175	H	1.135312	-0.522983	1.306771
H176	H	1.635312	-0.022983	1.806771
H177	H	1.204654	-0.595340	1.314740
H178	H	1.704654	-0.095340	1.814740
H179	H	1.080324	-0.568529	1.182583
H180	H	1.580324	-0.068529	1.682583
H181	H	1.149657	-0.640904	1.190547
H182	H	1.649657	-0.140904	1.690547
C183	C	1.102893	-0.710454	1.042976
C184	C	1.602893	-0.210454	1.542976
C185	C	1.086988	-0.627959	1.060326
C186	C	1.586988	-0.127959	1.560326
H187	H	1.059962	-0.746008	1.074405
H188	H	1.559962	-0.246008	1.574405
H189	H	1.161462	-0.726820	1.062696
H190	H	1.661462	-0.226820	1.562696
H191	H	1.098027	-0.714479	0.980061
H192	H	1.598027	-0.214479	1.480061
H193	H	1.091861	-0.623932	1.123241
H194	H	1.591861	-0.123932	1.623241
H195	H	1.028405	-0.611587	1.040612
H196	H	1.528405	-0.111587	1.540612
H197	H	1.115300	-0.604527	0.876320
H198	H	1.615300	-0.104527	1.376320
