data_functionalizedCrystal
_audit_creation_method	'MofGen! by Chris Wilmer'
_symmetry_space_group_name_H-M	'P1'
_symmetry_Int_Tables_number	1
_symmetry_cell_setting	triclinic
loop_
_symmetry_equiv_pos_as_xyz
  x,y,z
_cell_length_a	34.408637
_cell_length_b	34.407814
_cell_length_c	34.404193
_cell_angle_alpha	60.004510
_cell_angle_beta	60.009006
_cell_angle_gamma	59.994604
loop_
_atom_site_label
_atom_site_type_symbol
_atom_site_fract_x
_atom_site_fract_y
_atom_site_fract_z
O1	O	0.053973	-0.567860	0.474801
O2	O	0.553973	-0.067860	0.974801
O3	O	0.020377	-0.442124	0.382567
O4	O	0.520377	0.057876	0.882567
O5	O	0.100004	-0.521670	0.382483
O6	O	0.600004	-0.021670	0.882483
O7	O	-0.025653	-0.488314	0.474886
O8	O	0.474347	0.011686	0.974886
O9	O	0.126426	-0.495253	0.408816
O10	O	0.626426	0.004747	0.908816
O11	O	0.046800	-0.415707	0.408900
O12	O	0.546800	0.084293	0.908900
O13	O	0.080396	-0.541443	0.501134
O14	O	0.580396	-0.041443	1.001134
Zn15	Zn	0.067793	-0.474381	0.459198
Zn16	Zn	0.567793	0.025619	0.959198
Zn17	Zn	0.032980	-0.509186	0.424503
Zn18	Zn	0.532980	-0.009186	0.924503
O19	O	0.000769	-0.461897	0.501219
O20	O	0.500769	0.038103	1.001219
N21	N	0.091552	-0.450631	0.482879
N22	N	0.591552	0.049369	0.982879
N23	N	0.009225	-0.532940	0.400823
N24	N	0.509225	-0.032940	0.900823
C25	C	0.142848	-0.268847	0.534081
C26	C	0.642848	0.231153	1.034081
C27	C	0.142979	-0.399386	0.664559
C28	C	0.642979	0.100614	1.164559
C29	C	0.142862	-0.399365	0.534081
C30	C	0.642862	0.100635	1.034081
C31	C	0.273409	-0.399338	0.533986
C32	C	0.773409	0.100662	1.033986
C33	C	0.157225	-0.311914	0.548422
C34	C	0.657225	0.188086	1.048422
C35	C	0.157300	-0.385019	0.621491
C36	C	0.657300	0.114981	1.121491
C37	C	0.230339	-0.384991	0.548370
C38	C	0.730339	0.115009	1.048370
C39	C	0.157235	-0.385007	0.548422
C40	C	0.657235	0.114993	1.048422
C41	C	0.124548	-0.214028	0.515827
C42	C	0.624548	0.285972	1.015827
C43	C	0.124571	-0.417639	0.515827
C44	C	0.624571	0.082361	1.015827
C45	C	0.175526	-0.366733	0.566676
C46	C	0.675526	0.133267	1.066676
C47	C	0.353121	-0.385580	0.491988
C48	C	0.853121	0.114420	0.991988
C49	C	0.402952	-0.402180	0.475348
C50	C	0.902952	0.097820	0.975348
C51	C	0.402981	-0.482812	0.506096
C52	C	0.902981	0.017188	1.006096
C53	C	0.353151	-0.466211	0.522737
C54	C	0.853151	0.033789	1.022737
C55	C	0.136544	-0.189099	0.466839
C56	C	0.636544	0.310901	0.966839
C57	C	0.119905	-0.139265	0.450247
C58	C	0.619905	0.360735	0.950247
C59	C	0.079280	-0.139291	0.531632
C60	C	0.579280	0.360709	1.031632
C61	C	0.095918	-0.189125	0.548224
C62	C	0.595918	0.310875	1.048224
C63	C	0.075577	-0.405615	0.527900
C64	C	0.575577	0.094385	1.027900
C65	C	0.058953	-0.422228	0.511301
C66	C	0.558953	0.077772	1.011301
C67	C	0.140315	-0.462889	0.470566
C68	C	0.640315	0.037111	0.970566
C69	C	0.156941	-0.446276	0.487159
C70	C	0.656941	0.053724	0.987159
C71	C	0.075772	-0.405653	0.744326
C72	C	0.575772	0.094347	1.244326
C73	C	0.059206	-0.422280	0.794159
C74	C	0.559206	0.077720	1.294159
C75	C	0.140607	-0.462951	0.794094
C76	C	0.640607	0.037049	1.294094
C77	C	0.157172	-0.446325	0.744260
C78	C	0.657172	0.053675	1.244260
C79	C	0.124753	-0.417674	0.719377
C80	C	0.624753	0.082326	1.219377
C81	C	0.328223	-0.417595	0.515681
C82	C	0.828223	0.082405	1.015681
C83	C	-0.172390	-0.583988	0.349141
C84	C	0.327610	-0.083988	0.849141
C85	C	-0.041751	-0.584138	0.218783
C86	C	0.458249	-0.084138	0.718783
C87	C	-0.041941	-0.584130	0.349402
C88	C	0.458059	-0.084130	0.849402
C89	C	-0.041957	-0.714607	0.349338
C90	C	0.458043	-0.214607	0.849338
C91	C	-0.129326	-0.598388	0.334853
C92	C	0.370674	-0.098388	0.834853
C93	C	-0.056165	-0.598473	0.261852
C94	C	0.443835	-0.098473	0.761852
C95	C	-0.056282	-0.671535	0.334962
C96	C	0.443718	-0.171535	0.834962
C97	C	-0.056272	-0.598469	0.334999
C98	C	0.443728	-0.098469	0.834999
C99	C	-0.227205	-0.565659	0.367327
C100	C	0.272795	-0.065659	0.867327
C101	C	-0.023703	-0.565882	0.367734
C102	C	0.476297	-0.065882	0.867734
C103	C	-0.074511	-0.616717	0.316667
C104	C	0.425489	-0.116717	0.816667
C105	C	-0.055754	-0.794298	0.391257
C106	C	0.444246	-0.294298	0.891257
C107	C	-0.039181	-0.844132	0.407888
C108	C	0.460819	-0.344132	0.907888
C109	C	0.041447	-0.844215	0.377269
C110	C	0.541447	-0.344215	0.877269
C111	C	0.024873	-0.794381	0.360637
C112	C	0.524873	-0.294381	0.860637
C113	C	-0.252183	-0.577666	0.416302
C114	C	0.247817	-0.077666	0.916302
C115	C	-0.302014	-0.561001	0.432833
C116	C	0.197986	-0.061001	0.932833
C117	C	-0.301886	-0.520329	0.351410
C118	C	0.198114	-0.020329	0.851410
C119	C	-0.252055	-0.536994	0.334880
C120	C	0.247945	-0.036994	0.834880
C121	C	-0.035709	-0.516892	0.355682
C122	C	0.464291	-0.016892	0.855682
C123	C	-0.019129	-0.500308	0.372353
C124	C	0.480871	-0.000308	0.872353
C125	C	0.021465	-0.581700	0.413115
C126	C	0.521465	-0.081700	0.913115
C127	C	0.004884	-0.598286	0.396450
C128	C	0.504884	-0.098286	0.896450
C129	C	-0.035389	-0.516907	0.139026
C130	C	0.464611	-0.016907	0.639026
C131	C	-0.018707	-0.500324	0.089193
C132	C	0.481293	-0.000324	0.589193
C133	C	0.021949	-0.581721	0.089240
C134	C	0.521949	-0.081721	0.589240
C135	C	0.005268	-0.598303	0.139074
C136	C	0.505268	-0.098303	0.639074
C137	C	-0.023402	-0.565894	0.163965
C138	C	0.476598	-0.065894	0.663965
C139	C	-0.023728	-0.769425	0.367633
C140	C	0.476272	-0.269425	0.867633
N141	N	0.427173	-0.450553	0.482630
N142	N	0.927173	0.049447	0.982630
O143	O	0.589997	-0.458460	0.365361
O144	O	1.089997	0.041540	0.865361
O145	O	0.590185	-0.550997	0.490963
O146	O	1.090185	-0.050997	0.990963
O147	O	0.590104	-0.550786	0.411309
O148	O	1.090104	-0.050786	0.911309
O149	O	0.590077	-0.458671	0.445016
O150	O	1.090077	0.041329	0.945016
O151	O	0.510940	-0.524462	0.437777
O152	O	1.010940	-0.024462	0.937777
O153	O	0.511020	-0.524674	0.517432
O154	O	1.011020	-0.024674	1.017432
O155	O	0.510832	-0.432136	0.391830
O156	O	1.010832	0.067864	0.891830
Zn157	Zn	0.498357	-0.474225	0.458833
Zn158	Zn	0.998357	0.025775	0.958833
Zn159	Zn	0.602660	-0.508908	0.423960
Zn160	Zn	1.102660	-0.008908	0.923960
O161	O	0.510913	-0.432348	0.471484
O162	O	1.010913	0.067652	0.971484
N163	N	0.673844	-0.532580	0.400158
N164	N	1.173844	-0.032580	0.900158
N165	N	0.091520	-0.115070	0.482873
N166	N	0.591520	0.384930	0.982873
O167	O	-0.025663	0.047841	0.474857
O168	O	0.474337	0.547841	0.974857
O169	O	0.099940	0.047877	0.382299
O170	O	0.599940	0.547877	0.882299
O171	O	0.020247	0.047844	0.382560
O172	O	0.520247	0.547844	0.882560
O173	O	0.054030	0.047874	0.474596
O174	O	0.554030	0.547874	0.974596
O175	O	0.046674	-0.031326	0.408942
O176	O	0.546674	0.468674	0.908942
O177	O	0.126367	-0.031293	0.408680
O178	O	0.626367	0.468707	0.908680
O179	O	0.000764	-0.031329	0.501238
O180	O	0.500764	0.468671	1.001238
Zn181	Zn	0.067761	-0.043881	0.459148
Zn182	Zn	0.567761	0.456119	0.959148
Zn183	Zn	0.032943	0.060429	0.424389
Zn184	Zn	0.532943	0.560429	0.924389
O185	O	0.080457	-0.031296	0.500977
O186	O	0.580457	0.468704	1.000977
N187	N	0.009178	0.131618	0.400665
N188	N	0.509178	0.631618	0.900665
N189	N	0.091852	-0.450680	0.818332
N190	N	0.591852	0.049320	1.318332
O191	O	0.083862	-0.567845	0.981235
O192	O	0.583862	-0.067845	1.481235
O193	O	-0.008657	-0.442198	0.981276
O194	O	0.491343	0.057802	1.481276
O195	O	-0.008441	-0.521875	0.981252
O196	O	0.491559	-0.021875	1.481252
O197	O	0.083646	-0.488168	0.981258
O198	O	0.583646	0.011832	1.481258
O199	O	0.017919	-0.495468	0.902085
O200	O	0.517919	0.004532	1.402085
O201	O	0.017703	-0.415791	0.902109
O202	O	0.517703	0.084209	1.402109
O203	O	0.110222	-0.541438	0.902067
O204	O	0.610222	-0.041438	1.402067
Zn205	Zn	0.068148	-0.474422	0.889518
Zn206	Zn	0.568148	0.025578	1.389518
Zn207	Zn	0.033417	-0.509214	0.993825
Zn208	Zn	0.533417	-0.009214	1.493825
O209	O	0.110006	-0.461761	0.902091
O210	O	0.610006	0.038239	1.402091
N211	N	0.009712	-0.532961	1.065011
N212	N	0.509712	-0.032961	1.565011
C213	C	0.030439	-0.413071	0.383027
C214	C	0.530439	0.086929	0.883027
C215	C	0.129046	-0.511580	0.382922
C216	C	0.629046	-0.011580	0.882922
C217	C	0.070334	-0.570496	0.500675
C218	C	0.570334	-0.070496	1.000675
C219	C	-0.028274	-0.471987	0.500780
C220	C	0.471726	0.028013	1.000780
C221	C	0.550625	-0.550579	0.520021
C222	C	1.050625	-0.050579	1.020021
C223	C	0.550527	-0.550317	0.421379
C224	C	1.050527	-0.050317	0.921379
C225	C	0.550389	-0.432554	0.362773
C226	C	1.050389	0.067446	0.862773
C227	C	0.550491	-0.432816	0.461414
C228	C	1.050491	0.067184	0.961414
C229	C	0.128944	0.008394	0.382712
C230	C	0.628944	0.508394	0.882712
C231	C	0.030287	0.008256	0.383068
C232	C	0.530287	0.508256	0.883068
C233	C	-0.028273	0.008252	0.500793
C234	C	0.471727	0.508252	1.000793
C235	C	0.070417	0.008292	0.500470
C236	C	0.570417	0.508292	1.000470
C237	C	-0.008218	-0.413165	0.941698
C238	C	0.491782	0.086835	1.441698
C239	C	-0.007945	-0.511830	0.941653
C240	C	0.492055	-0.011830	1.441653
C241	C	0.109783	-0.570471	0.941646
C242	C	0.609783	-0.070471	1.441646
C243	C	0.109516	-0.471800	0.941673
C244	C	0.609516	0.028200	1.441673
H245	H	0.019320	-0.412483	0.814467
H246	H	0.519320	0.087517	1.314467
C247	C	0.047803	-0.111898	0.567272
C248	C	0.547803	0.388102	1.067272
N249	N	0.024099	-0.091267	0.594117
N250	N	0.524099	0.408733	1.094117
C251	C	-0.077012	0.008267	0.540039
C252	C	0.422988	0.508267	1.040039
N253	N	-0.113727	0.008288	0.569596
N254	N	0.386273	0.508288	1.069596
H255	H	0.550674	-0.579628	0.556096
H256	H	1.050674	-0.079628	1.056096
H257	H	-0.036863	-0.519031	0.941619
H258	H	0.463137	-0.019031	1.441619
C259	C	0.550543	-0.589411	0.411635
C260	C	1.050543	-0.089411	0.911635
N261	N	0.550554	-0.618857	0.404297
N262	N	1.050554	-0.118857	0.904297
H263	H	0.138832	-0.606554	0.941627
H264	H	0.638832	-0.106554	1.441627
C265	C	0.175928	-0.494393	0.439033
C266	C	0.675928	0.005607	0.939033
N267	N	0.202751	-0.518121	0.415282
N268	N	0.702751	-0.018121	0.915282
C269	C	0.177573	0.008708	0.343357
C270	C	0.677573	0.508708	0.843357
N271	N	0.214201	0.008946	0.313714
N272	N	0.714201	0.508946	0.813714
C273	C	0.550475	-0.393722	0.471157
C274	C	1.050475	0.106278	0.971157
N275	N	0.550462	-0.364276	0.478497
N276	N	1.050462	0.135724	0.978497
H277	H	0.023050	0.008252	0.354152
H278	H	0.523050	0.508252	0.854152
H279	H	0.023260	-0.376951	0.354059
H280	H	0.523260	0.123049	0.854059
C281	C	0.550242	-0.393280	0.314065
C282	C	1.050242	0.106720	0.814065
N283	N	0.550107	-0.363692	0.277386
N284	N	1.050107	0.136308	0.777386
C285	C	0.080030	-0.619292	0.539811
C286	C	0.580030	-0.119292	1.039811
N287	N	0.087334	-0.656046	0.569289
N288	N	0.587334	-0.156046	1.069289
C289	C	0.177803	-0.521181	0.343722
C290	C	0.677803	-0.021181	0.843722
N291	N	0.214527	-0.528412	0.314196
N292	N	0.714527	-0.028412	0.814196
C293	C	0.080191	0.008300	0.539534
C294	C	0.580191	0.508300	1.039534
N295	N	0.087553	0.008305	0.568958
N296	N	0.587553	0.508305	1.068958
C297	C	-0.077030	-0.462387	0.539979
C298	C	0.422970	0.037613	1.039979
N299	N	-0.113754	-0.455155	0.569505
N300	N	0.386246	0.044845	1.069505
C301	C	-0.047459	-0.364415	0.941712
C302	C	0.452541	0.135585	1.441712
N303	N	-0.077016	-0.327696	0.941724
N304	N	0.422984	0.172304	1.441724
C305	C	0.133099	-0.111842	0.396357
C306	C	0.633099	0.388158	0.896357
N307	N	0.143037	-0.091189	0.355766
N308	N	0.643037	0.408811	0.855766
H309	H	0.049370	-0.382321	0.724071
H310	H	0.549370	0.117679	1.224071
C311	C	0.176271	-0.494459	0.821463
C312	C	0.676271	0.005541	1.321463
N313	N	0.203133	-0.518195	0.842078
N314	N	0.703133	-0.018195	1.342078
H315	H	0.138447	-0.464586	0.941669
H316	H	0.638447	0.035414	1.441669
H317	H	0.197059	-0.456117	0.723950
H318	H	0.697059	0.043883	1.223950
H319	H	0.049217	-0.382297	0.551240
H320	H	0.549217	0.117703	1.051240
H321	H	0.196836	-0.456064	0.477324
H322	H	0.696836	0.043936	0.977324
C323	C	0.005057	-0.409001	0.524580
C324	C	0.505057	0.090999	1.024580
N325	N	-0.035538	-0.399039	0.534582
N326	N	0.464462	0.100961	1.034582
H327	H	0.332881	-0.492283	0.542031
H328	H	0.832881	0.007717	1.042031
H329	H	0.081021	-0.864532	0.371574
H330	H	0.581021	-0.364532	0.871574
C331	C	0.430342	-0.366960	0.449282
C332	C	0.930342	0.133040	0.949282
N333	N	0.450973	-0.340432	0.429645
N334	N	0.950973	0.159568	0.929645
C335	C	0.430401	-0.536291	0.513859
C336	C	0.930401	-0.036291	1.013859
N337	N	0.451055	-0.576572	0.519708
N338	N	0.951055	-0.076572	1.019708
C339	C	0.325700	-0.332099	0.484227
C340	C	0.825700	0.167901	0.984227
N341	N	0.305049	-0.291818	0.478380
N342	N	0.805049	0.208182	0.978380
H343	H	0.159856	-0.209371	0.440456
H344	H	0.659856	0.290629	0.940456
H345	H	0.086148	-0.209418	0.588113
H346	H	0.586148	0.290582	1.088113
H347	H	-0.028474	-0.460433	0.068892
H348	H	0.471526	0.039567	0.568892
H349	H	0.045284	-0.608113	0.068976
H350	H	0.545284	-0.108113	0.568976
C351	C	-0.066928	-0.481252	0.166401
C352	C	0.433072	0.018748	0.666401
N353	N	-0.090681	-0.454397	0.187021
N354	N	0.409319	0.045603	0.687021
H355	H	0.015032	-0.638195	0.159378
H356	H	0.515032	-0.138195	0.659378
H357	H	-0.058984	-0.490504	0.332300
H358	H	0.441016	0.009496	0.832300
H359	H	0.044746	-0.608091	0.436494
H360	H	0.544746	-0.108091	0.936494
C361	C	0.018093	-0.652178	0.409705
C362	C	0.518093	-0.152178	0.909705
N363	N	0.028044	-0.692770	0.419688
N364	N	0.528044	-0.192770	0.919688
C365	C	0.060106	-0.767024	0.334661
C366	C	0.560106	-0.267024	0.834661
N367	N	0.086645	-0.746420	0.315102
N368	N	0.586645	-0.246420	0.815102
C369	C	-0.074414	-0.871495	0.433883
C370	C	0.425586	-0.371495	0.933883
N371	N	-0.100952	-0.892106	0.453467
N372	N	0.399048	-0.392106	0.953467
C373	C	-0.109220	-0.766846	0.398952
C374	C	0.390780	-0.266846	0.898952
N375	N	-0.149489	-0.746172	0.404749
N376	N	0.350511	-0.246172	0.904749
C377	C	-0.224852	-0.609195	0.451998
C378	C	0.275148	-0.109195	0.951998
N379	N	-0.204265	-0.632942	0.478884
N380	N	0.295735	-0.132942	0.978884
C381	C	-0.032333	-0.446416	0.359096
C382	C	0.467667	0.053584	0.859096
N383	N	-0.042278	-0.405825	0.349110
N384	N	0.457722	0.094175	0.849110
H385	H	-0.322352	-0.570775	0.472713
H386	H	0.177648	-0.070775	0.972713
H387	H	-0.231721	-0.527215	0.295000
H388	H	0.268279	-0.027215	0.795000
C389	C	-0.329220	-0.488800	0.315715
C390	C	0.170780	0.011200	0.815715
N391	N	-0.349808	-0.465051	0.288829
N392	N	0.150192	0.034949	0.788829
