data_functionalizedCrystal
_audit_creation_method	'MofGen! by Chris Wilmer'
_symmetry_space_group_name_H-M	'P1'
_symmetry_Int_Tables_number	1
_symmetry_cell_setting	triclinic
loop_
_symmetry_equiv_pos_as_xyz
  x,y,z
_cell_length_a	10.654550
_cell_length_b	23.532361
_cell_length_c	9.130313
_cell_angle_alpha	90.000758
_cell_angle_beta	89.998405
_cell_angle_gamma	83.657298
loop_
_atom_site_label
_atom_site_type_symbol
_atom_site_fract_x
_atom_site_fract_y
_atom_site_fract_z
O1	O	0.152160	0.756267	-0.121644
O2	O	0.174277	0.590544	-0.121677
O3	O	-0.019643	0.677216	-0.121661
O4	O	0.346080	0.669596	-0.121660
O5	O	-0.019648	0.677210	0.121938
O6	O	0.174272	0.590538	0.121921
O7	O	0.152154	0.756261	0.121955
Cu8	Cu	0.163212	0.673399	0.144181
Cu9	Cu	0.163219	0.673406	-0.143903
O10	O	0.346074	0.669590	0.121939
C11	C	0.173721	0.569321	0.000117
C12	C	0.172055	0.506092	0.000104
C13	C	0.164774	0.232804	-0.132673
C14	C	0.166351	0.292214	-0.132676
O15	O	0.167125	0.322948	-0.245603
N16	N	0.167144	0.321922	0.000110
C17	C	0.166348	0.292217	0.132908
O18	O	0.167167	0.322941	0.245853
C19	C	0.164763	0.232808	0.132911
C20	C	0.163982	0.203103	0.000116
C21	C	0.163992	0.203099	-0.265457
C22	C	0.162419	0.143693	-0.265453
C23	C	0.161627	0.113992	-0.132664
C24	C	0.162408	0.143697	0.000120
C25	C	0.163958	0.203105	0.265708
C26	C	0.162371	0.143693	0.265698
C27	C	0.161591	0.113987	0.132903
C28	C	0.160042	0.054590	0.132912
N29	N	0.159249	0.024882	0.000126
C30	C	0.160041	0.054583	-0.132662
C31	C	0.169675	0.416979	0.132894
C32	C	0.171270	0.476385	0.132894
C33	C	0.171270	0.476379	-0.132692
C34	C	0.169684	0.416970	-0.132690
C35	C	0.168882	0.387271	0.000108
C36	C	0.156737	-0.070174	-0.132644
C37	C	0.155168	-0.129585	-0.132628
C38	C	0.155161	-0.129573	0.132957
C39	C	0.156737	-0.070167	0.132942
C40	C	0.157520	-0.040469	0.000130
O41	O	0.159262	0.023819	0.245781
O42	O	0.159206	0.023853	-0.245588
C43	C	-0.066426	0.676654	0.000135
C44	C	-0.205815	0.674979	0.000125
C45	C	-0.402277	0.672617	-0.132651
C46	C	-0.271307	0.674196	-0.132659
C47	C	-0.271301	0.674190	0.132926
C48	C	-0.402270	0.672615	0.132933
C49	C	0.392857	0.670152	0.000139
C50	C	0.532247	0.671826	0.000140
C51	C	0.152711	0.777484	0.000157
C52	C	0.154376	0.840714	0.000161
N53	N	0.163207	0.673398	0.346803
N54	N	0.163214	0.673412	-0.346526
C55	C	0.077375	0.711790	0.423463
C56	C	0.077375	0.711795	0.576799
C57	C	0.249051	0.635016	0.576804
C58	C	0.249044	0.635008	0.423470
H59	H	0.161777	0.119512	-0.373588
H60	H	0.164589	0.227281	0.373844
H61	H	0.157397	-0.045981	0.241074
C62	C	0.161497	0.111026	0.411779
H63	H	0.162199	0.137229	0.490857
H64	H	0.087646	0.091906	0.417307
H65	H	0.234132	0.083796	0.417304
H66	H	-0.217968	0.674832	0.241040
H67	H	-0.455583	0.671973	0.241074
H68	H	0.169049	0.392788	-0.240823
H69	H	0.007480	0.743049	0.361044
C70	C	-0.474310	0.671767	-0.278715
H71	H	-0.416555	0.672473	-0.357800
H72	H	-0.515409	0.638006	-0.284265
H73	H	-0.535396	0.704311	-0.284203
C74	C	0.172132	0.509055	-0.278762
H75	H	0.171444	0.482858	-0.357854
H76	H	0.099510	0.536288	-0.284272
H77	H	0.245996	0.528172	-0.284279
H78	H	0.171926	0.500565	0.241029
C79	C	-0.017036	0.754028	0.661118
H80	H	-0.068148	0.776892	0.593493
H81	H	-0.069078	0.733344	0.720945
H82	H	0.027878	0.777913	0.720921
C83	C	0.164874	0.235760	-0.411537
H84	H	0.164191	0.209552	-0.490605
H85	H	0.092260	0.262996	-0.417084
H86	H	0.238746	0.254872	-0.417060
C87	C	0.343474	0.592796	0.661142
H88	H	0.331196	0.598303	0.763443
H89	H	0.330278	0.554735	0.636031
H90	H	0.427215	0.599313	0.635997
C91	C	0.343467	0.592777	0.339139
H92	H	0.394601	0.569920	0.406758
H93	H	0.298562	0.568894	0.279335
H94	H	0.395506	0.613469	0.279314
C95	C	-0.199283	0.675067	-0.278725
H96	H	-0.111906	0.676125	-0.259717
H97	H	-0.210740	0.641661	-0.333296
H98	H	-0.230761	0.707966	-0.333271
C99	C	0.154306	-0.162258	-0.278708
H100	H	0.154991	-0.136056	-0.357788
H101	H	0.226930	-0.189489	-0.284234
H102	H	0.080443	-0.181376	-0.284228
H103	H	0.157377	-0.046000	-0.240792
C104	C	0.154183	-0.162246	0.279012
H105	H	0.153088	-0.201878	0.259984
H106	H	0.227642	-0.156585	0.333664
H107	H	0.081157	-0.148434	0.333488
H108	H	0.169038	0.392800	0.241040
