data_functionalizedCrystal
_audit_creation_method	'MofGen! by Chris Wilmer'
_symmetry_space_group_name_H-M	'P1'
_symmetry_Int_Tables_number	1
_symmetry_cell_setting	triclinic
loop_
_symmetry_equiv_pos_as_xyz
  x,y,z
_cell_length_a	10.723024
_cell_length_b	10.654541
_cell_length_c	9.198806
_cell_angle_alpha	89.997047
_cell_angle_beta	89.996352
_cell_angle_gamma	84.475899
loop_
_atom_site_label
_atom_site_type_symbol
_atom_site_fract_x
_atom_site_fract_y
_atom_site_fract_z
O1	O	1.657212	0.176147	-0.120882
O2	O	1.294062	0.193008	-0.120887
O3	O	1.483989	0.001837	-0.120876
O4	O	1.467286	0.367318	-0.120894
O5	O	1.483973	0.001836	0.120909
O6	O	1.294047	0.193007	0.120898
O7	O	1.657197	0.176147	0.120903
Cu8	Cu	1.475621	0.184577	0.142977
Cu9	Cu	1.475639	0.184578	-0.142962
O10	O	1.467271	0.367318	0.120891
C11	C	1.247555	0.191781	0.000005
C12	C	1.109000	0.188109	0.000003
C13	C	1.034033	0.295079	-0.000003
C14	C	0.890829	0.291287	-0.000005
C15	C	1.482755	-0.044961	0.000016
C16	C	1.479088	-0.184404	0.000013
C17	C	1.706196	-0.212409	0.000035
C18	C	1.818022	-0.291921	0.000048
C19	C	1.814569	-0.422938	0.000044
C20	C	1.699277	-0.474446	0.000021
C21	C	1.587451	-0.394935	0.000008
C22	C	1.590917	-0.263916	0.000017
C23	C	1.360346	-0.366930	-0.000024
C24	C	1.363796	-0.235912	-0.000009
C25	C	1.245054	-0.418438	-0.000047
C26	C	1.133225	-0.338927	-0.000050
C27	C	1.136683	-0.207902	-0.000044
C28	C	1.251970	-0.156401	-0.000023
C29	C	1.703705	0.177374	0.000008
C30	C	1.842259	0.181045	-0.000000
C31	C	1.468504	0.414116	-0.000004
C32	C	1.472172	0.553559	-0.000011
N33	N	1.475617	0.184576	0.344091
N34	N	1.475652	0.184569	-0.344076
C35	C	1.555362	0.103955	0.416293
C36	C	1.555381	0.103950	0.583705
H37	H	1.067165	0.093722	-0.000030
H38	H	1.407355	0.253591	0.406215
H39	H	1.623658	0.034931	0.645796
H40	H	1.075868	0.389466	0.000000
F41	F	1.933586	-0.507562	0.000047
F42	F	1.386415	0.274800	0.574780
F43	F	0.926449	0.061341	-0.000004
F44	F	1.017660	-0.123289	-0.000069
H45	H	1.709019	-0.105730	0.000058
F46	F	1.644359	0.013514	0.335098
H47	H	1.254797	-0.049722	-0.000009
H48	H	1.911891	-0.249968	0.000080
H49	H	1.696475	-0.581129	-0.000000
F50	F	0.806631	0.410986	-0.000022
F51	F	1.241381	-0.557879	-0.000127
F52	F	1.010537	-0.393753	-0.000090
