data_functionalizedCrystal
_audit_creation_method	'MofGen! by Chris Wilmer'
_symmetry_space_group_name_H-M	'P1'
_symmetry_Int_Tables_number	1
_symmetry_cell_setting	triclinic
loop_
_symmetry_equiv_pos_as_xyz
  x,y,z
_cell_length_a	16.109302
_cell_length_b	13.339070
_cell_length_c	15.186229
_cell_angle_alpha	89.998719
_cell_angle_beta	89.994701
_cell_angle_gamma	99.545538
loop_
_atom_site_label
_atom_site_type_symbol
_atom_site_fract_x
_atom_site_fract_y
_atom_site_fract_z
O1	O	1.133153	0.130024	-0.073266
O2	O	1.633153	0.630024	0.426734
O3	O	0.894828	0.146204	-0.073259
O4	O	1.394828	0.646204	0.426741
O5	O	0.986638	-0.009140	-0.073259
O6	O	1.486638	0.490860	0.426741
O7	O	1.041343	0.285369	-0.073266
O8	O	1.541343	0.785369	0.426734
O9	O	0.986629	-0.009143	0.073198
O10	O	1.486629	0.490857	0.573198
O11	O	0.894819	0.146202	0.073198
O12	O	1.394819	0.646202	0.573198
O13	O	1.133144	0.130022	0.073191
O14	O	1.633144	0.630022	0.573191
Zn15	Zn	1.013980	0.138112	0.096448
Zn16	Zn	1.513980	0.638112	0.596448
Zn17	Zn	1.013992	0.138115	-0.096516
Zn18	Zn	1.513992	0.638115	0.403484
O19	O	1.041334	0.285367	0.073191
O20	O	1.541334	0.785367	0.573191
C21	C	0.863697	0.145548	-0.000030
C22	C	1.363697	0.645548	0.499970
C23	C	0.770948	0.143582	-0.000027
C24	C	1.270948	0.643582	0.499973
C25	C	0.557553	0.139037	0.079798
C26	C	1.057553	0.639037	0.579798
C27	C	0.470404	0.137179	0.079795
C28	C	0.970404	0.637179	0.579795
C29	C	0.470425	0.137187	-0.079880
C30	C	0.970425	0.637187	0.420120
C31	C	0.557572	0.139037	-0.079876
C32	C	1.057572	0.639037	0.420124
C33	C	0.601134	0.139967	-0.000034
C34	C	1.101134	0.639967	0.499966
C35	C	0.426838	0.136259	-0.000041
C36	C	0.926838	0.636259	0.499959
C37	C	0.332348	0.134245	-0.000045
C38	C	0.832348	0.634245	0.499955
C39	C	0.695630	0.141979	-0.000030
C40	C	1.195630	0.641979	0.499970
C41	C	0.977393	-0.046828	-0.000031
C42	C	1.477393	0.453172	0.499969
C43	C	0.949849	-0.159121	-0.000034
C44	C	1.449849	0.340879	0.499966
C45	C	1.164017	-0.523983	-0.000040
C46	C	1.664017	-0.023983	0.499960
C47	C	1.189899	-0.418479	-0.000033
C48	C	1.689899	0.081521	0.499967
C49	C	1.129889	-0.353634	-0.000033
C50	C	1.629889	0.146366	0.499967
C51	C	1.043992	-0.394304	-0.000041
C52	C	1.543992	0.105696	0.499959
C53	C	1.018108	-0.499819	-0.000042
C54	C	1.518108	0.000181	0.499958
C55	C	0.983980	-0.329470	-0.000035
C56	C	1.483980	0.170530	0.499965
C57	C	0.898083	-0.370139	-0.000042
C58	C	1.398083	0.129861	0.499958
C59	C	0.872203	-0.475644	-0.000044
C60	C	1.372203	0.024356	0.499956
C61	C	0.932214	-0.540489	-0.000043
C62	C	1.432214	-0.040489	0.499957
C63	C	1.009864	-0.223955	-0.000034
C64	C	1.509864	0.276045	0.499966
C65	C	0.863955	-0.199790	-0.000036
C66	C	1.363955	0.300210	0.499964
C67	C	0.838073	-0.305295	-0.000043
C68	C	1.338073	0.194705	0.499957
C69	C	1.164275	0.130679	-0.000040
C70	C	1.664275	0.630679	0.499960
C71	C	1.257024	0.132644	-0.000049
C72	C	1.757024	0.632644	0.499951
C73	C	1.050579	0.323054	-0.000038
C74	C	1.550579	0.823054	0.499962
C75	C	1.078123	0.435347	-0.000041
C76	C	1.578123	0.935347	0.499959
N77	N	1.013978	0.138109	0.228141
N78	N	1.513978	0.638109	0.728141
N79	N	1.013999	0.138109	-0.228209
N80	N	1.513999	0.638109	0.271791
C81	C	1.054656	0.069346	0.453863
C82	C	1.554656	0.569346	0.953863
C83	C	1.054658	0.069343	0.546053
C84	C	1.554658	0.569343	1.046053
C85	C	0.973315	0.206876	0.546062
C86	C	1.473315	0.706876	1.046062
C87	C	0.973309	0.206873	0.453874
C88	C	1.473309	0.706873	0.953874
C89	C	1.013984	0.138109	0.407777
C90	C	1.513984	0.638109	0.907777
C91	C	1.013993	0.138110	0.592155
C92	C	1.513993	0.638110	1.092155
C93	C	1.013995	0.138107	0.692111
C94	C	1.513995	0.638107	1.192111
C95	C	1.013981	0.138109	0.307815
C96	C	1.513981	0.638109	0.807815
H97	H	0.593056	0.139792	-0.144890
H98	H	1.093056	0.639792	0.355110
H99	H	0.593018	0.139794	0.144811
H100	H	1.093018	0.639794	0.644811
H101	H	0.434924	0.136422	0.144803
H102	H	0.934924	0.636422	0.644803
H103	H	0.911145	-0.626400	-0.000052
H104	H	1.411145	-0.126400	0.499948
H105	H	1.212868	-0.576788	-0.000032
H106	H	1.712868	-0.076788	0.499968
Cl107	Cl	0.415652	0.135993	-0.180247
Cl108	Cl	0.915652	0.635993	0.319753
Cl109	Cl	1.162428	-0.220999	-0.000029
Cl110	Cl	1.662428	0.279001	0.499971
Cl111	Cl	1.105787	-0.017104	0.395917
Cl112	Cl	1.605787	0.482896	0.895917
H113	H	1.079801	-0.190853	-0.000028
H114	H	1.579801	0.309147	0.499972
Cl115	Cl	1.297877	-0.367359	-0.000043
Cl116	Cl	1.797877	0.132641	0.499957
H117	H	0.802261	-0.508753	-0.000043
H118	H	1.302261	-0.008753	0.499957
Cl119	Cl	0.730092	-0.356435	-0.000054
Cl120	Cl	1.230092	0.143565	0.499946
Cl121	Cl	0.922187	0.293322	0.604017
Cl122	Cl	1.422187	0.793322	1.104017
H123	H	0.815089	-0.146993	-0.000032
H124	H	1.315089	0.353007	0.499968
Cl125	Cl	1.105789	-0.017107	0.603987
Cl126	Cl	1.605789	0.482893	1.103987
Cl127	Cl	0.922169	0.293320	0.395932
Cl128	Cl	1.422169	0.793320	0.895932
