data_functionalizedCrystal
_audit_creation_method	'MofGen! by Chris Wilmer'
_symmetry_space_group_name_H-M	'P1'
_symmetry_Int_Tables_number	1
_symmetry_cell_setting	triclinic
loop_
_symmetry_equiv_pos_as_xyz
  x,y,z
_cell_length_a	19.188905
_cell_length_b	19.188930
_cell_length_c	16.053802
_cell_angle_alpha	92.551696
_cell_angle_beta	87.420636
_cell_angle_gamma	83.139668
loop_
_atom_site_label
_atom_site_type_symbol
_atom_site_fract_x
_atom_site_fract_y
_atom_site_fract_z
O1	O	0.929117	0.084129	-0.069576
O2	O	1.262450	0.417463	0.263757
O3	O	1.595783	0.750796	0.597090
O4	O	0.725802	0.095883	-0.069549
O5	O	1.059135	0.429216	0.263784
O6	O	1.392468	0.762550	0.597118
O7	O	0.833326	-0.011649	-0.069547
O8	O	1.166659	0.321684	0.263786
O9	O	1.499992	0.655017	0.597120
O10	O	0.821593	0.191662	-0.069578
O11	O	1.154926	0.524995	0.263755
O12	O	1.488259	0.858328	0.597089
O13	O	0.827407	-0.005755	0.069312
O14	O	1.160741	0.327578	0.402645
O15	O	1.494074	0.660912	0.735978
O16	O	0.719883	0.101777	0.069310
O17	O	1.053217	0.435111	0.402643
O18	O	1.386550	0.768444	0.735977
O19	O	0.923198	0.090024	0.069283
O20	O	1.256532	0.423357	0.402616
O21	O	1.589865	0.756690	0.735949
Zn22	Zn	0.820601	0.096837	0.091343
Zn23	Zn	1.153935	0.430170	0.424676
Zn24	Zn	1.487268	0.763503	0.758010
Zn25	Zn	0.828399	0.089070	-0.091609
Zn26	Zn	1.161732	0.422404	0.241724
Zn27	Zn	1.495066	0.755737	0.575057
O28	O	0.815674	0.197556	0.069281
O29	O	1.149008	0.530889	0.402614
O30	O	1.482341	0.864223	0.735947
C31	C	0.696831	0.098453	-0.000116
C32	C	1.030165	0.431786	0.333218
C33	C	1.363498	0.765119	0.666551
C34	C	0.619325	0.097319	-0.000105
C35	C	0.952659	0.430653	0.333229
C36	C	1.285992	0.763986	0.666562
C37	C	0.586160	0.093562	-0.075799
C38	C	0.919493	0.426895	0.257535
C39	C	1.252826	0.760228	0.590868
C40	C	0.513336	0.092488	-0.075809
C41	C	0.846670	0.425822	0.257524
C42	C	1.180003	0.759155	0.590858
C43	C	0.473683	0.095159	-0.000121
C44	C	0.807017	0.428492	0.333213
C45	C	1.140350	0.761825	0.666546
C46	C	0.506857	0.098921	0.075583
C47	C	0.840190	0.432254	0.408917
C48	C	1.173523	0.765588	0.742250
C49	C	0.579678	0.100001	0.075591
C50	C	0.913011	0.433335	0.408925
C51	C	1.246344	0.766668	0.742258
N52	N	0.362262	0.056121	0.056213
N53	N	0.695595	0.389455	0.389546
N54	N	1.028929	0.722788	0.722879
N55	N	0.293086	0.055093	0.056200
N56	N	0.626419	0.388427	0.389533
N57	N	0.959752	0.721760	0.722867
C58	C	0.254278	0.091905	-0.000141
C59	C	0.587611	0.425239	0.333193
C60	C	0.920944	0.758572	0.666526
N61	N	0.287261	0.129775	-0.056480
N62	N	0.620594	0.463108	0.276853
N63	N	0.953928	0.796441	0.610186
N64	N	0.356444	0.130799	-0.056470
N65	N	0.689778	0.464133	0.276863
N66	N	1.023111	0.797466	0.610197
C67	C	0.394721	0.093988	-0.000121
C68	C	0.728054	0.427321	0.333212
C69	C	1.061387	0.760655	0.666546
C70	C	0.142149	0.086984	-0.075851
C71	C	0.475482	0.420318	0.257482
C72	C	0.808815	0.753651	0.590816
C73	C	0.069324	0.085915	-0.075858
C74	C	0.402657	0.419249	0.257475
C75	C	0.735990	0.752582	0.590809
C76	C	0.062846	0.092341	0.075536
C77	C	0.396179	0.425674	0.408870
C78	C	0.729513	0.759008	0.742203
C79	C	0.135669	0.093417	0.075541
C80	C	0.469002	0.426750	0.408875
C81	C	0.802336	0.760084	0.742208
C82	C	0.175317	0.090735	-0.000155
C83	C	0.508650	0.424068	0.333179
C84	C	0.841983	0.757402	0.666512
C85	C	0.829987	-0.034713	-0.000115
C86	C	1.163320	0.298620	0.333218
C87	C	1.496653	0.631954	0.666551
C88	C	0.828846	-0.112217	-0.000108
C89	C	1.162179	0.221116	0.333225
C90	C	1.495512	0.554450	0.666559
C91	C	0.891937	-0.157147	-0.000112
C92	C	1.225271	0.176186	0.333221
C93	C	1.558604	0.509520	0.666554
C94	C	0.890866	-0.229971	-0.000126
C95	C	1.224200	0.103362	0.333208
C96	C	1.557533	0.436695	0.666541
C97	C	0.826699	-0.257862	-0.000118
C98	C	1.160032	0.075472	0.333216
C99	C	1.493366	0.408805	0.666549
C100	C	0.763599	-0.212922	-0.000118
C101	C	1.096932	0.120411	0.333216
C102	C	1.430266	0.453744	0.666549
C103	C	0.764672	-0.140100	-0.000113
C104	C	1.098006	0.193233	0.333220
C105	C	1.431339	0.526567	0.666554
N106	N	0.775637	-0.363856	0.047145
N107	N	1.108970	-0.030523	0.380479
N108	N	1.442303	0.302811	0.713812
N109	N	0.774621	-0.433035	0.047142
N110	N	1.107955	-0.099701	0.380476
N111	N	1.441288	0.233632	0.713809
C112	C	0.823462	-0.477271	-0.000134
C113	C	1.156795	-0.143937	0.333199
C114	C	1.490128	0.189396	0.666533
N115	N	0.873366	-0.449716	-0.047397
N116	N	1.206699	-0.116383	0.285936
N117	N	1.540032	0.216951	0.619270
N118	N	0.874383	-0.380531	-0.047391
N119	N	1.207716	-0.047198	0.285943
N120	N	1.541050	0.286136	0.619276
C121	C	0.825528	-0.336824	-0.000123
C122	C	1.158861	-0.003491	0.333210
C123	C	1.492195	0.329842	0.666543
C124	C	0.885396	-0.601166	-0.000154
C125	C	1.218730	-0.267832	0.333179
C126	C	1.552063	0.065501	0.666513
C127	C	0.884323	-0.673991	-0.000172
C128	C	1.217656	-0.340658	0.333161
C129	C	1.550989	-0.007324	0.666494
C130	C	0.757053	-0.656940	-0.000156
C131	C	1.090387	-0.323607	0.333177
C132	C	1.423720	0.009727	0.666510
C133	C	0.758129	-0.584117	-0.000146
C134	C	1.091463	-0.250783	0.333187
C135	C	1.424796	0.082550	0.666520
C136	C	0.822302	-0.556234	-0.000141
C137	C	1.155636	-0.222900	0.333192
C138	C	1.488969	0.110433	0.666525
C139	C	0.952169	0.087454	-0.000152
C140	C	1.285502	0.420787	0.333181
C141	C	1.618836	0.754121	0.666514
C142	C	1.029675	0.088587	-0.000169
C143	C	1.363009	0.421920	0.333164
C144	C	1.696342	0.755254	0.666498
C145	C	0.819014	0.220620	-0.000153
C146	C	1.152347	0.553953	0.333180
C147	C	1.485680	0.887286	0.666514
C148	C	0.820155	0.298124	-0.000166
C149	C	1.153488	0.631457	0.333168
C150	C	1.486822	0.964790	0.666501
N151	N	0.815285	0.102136	0.216203
N152	N	1.148618	0.435470	0.549537
N153	N	1.481951	0.768803	0.882870
N154	N	0.833721	0.083765	-0.216470
N155	N	1.167054	0.417098	0.116864
N156	N	1.500388	0.750431	0.450197
C157	C	0.861053	0.056397	0.259898
C158	C	1.194386	0.389731	0.593231
C159	C	1.527720	0.723064	0.926565
C160	C	0.857340	0.060111	0.347305
C161	C	1.190674	0.393445	0.680638
C162	C	1.524007	0.726778	1.013971
C163	C	0.807862	0.109568	0.391015
C164	C	1.141196	0.442901	0.724348
C165	C	1.474529	0.776235	1.057682
C166	C	0.762089	0.155309	0.347314
C167	C	1.095423	0.488642	0.680648
C168	C	1.428756	0.821976	1.013981
C169	C	0.765799	0.151591	0.259909
C170	C	1.099132	0.484925	0.593242
C171	C	1.432466	0.818258	0.926576
C172	C	0.791658	0.125788	0.652424
C173	C	1.124991	0.459121	0.985758
C174	C	1.458324	0.792455	1.319091
C175	C	0.787953	0.129504	0.739836
C176	C	1.121286	0.462837	1.073169
C177	C	1.454620	0.796170	1.406502
C178	C	0.883203	0.034305	0.739820
C179	C	1.216537	0.367638	1.073153
C180	C	1.549870	0.700971	1.406487
C181	C	0.886912	0.030594	0.652413
C182	C	1.220245	0.363927	0.985747
C183	C	1.553578	0.697261	1.319080
C184	C	0.841136	0.076333	0.608720
C185	C	1.174469	0.409666	0.942053
C186	C	1.507803	0.742999	1.275387
N187	N	0.804068	0.113367	0.480359
N188	N	1.137401	0.446700	0.813692
N189	N	1.470735	0.780034	1.147025
N190	N	0.844928	0.072530	0.519378
N191	N	1.178261	0.405863	0.852711
N192	N	1.511594	0.739196	1.186045
H193	H	0.174431	0.084808	-0.137487
H194	H	0.507764	0.418141	0.195846
H195	H	0.841097	0.751475	0.529180
Cl196	Cl	0.685350	-0.083613	-0.000107
Cl197	Cl	1.018683	0.249720	0.333226
Cl198	Cl	1.352017	0.583053	0.666560
H199	H	0.728529	0.188836	0.224334
H200	H	1.061862	0.522169	0.557667
H201	H	1.395196	0.855503	0.891000
H202	H	0.754387	0.163031	0.616856
H203	H	1.087720	0.496365	0.950190
H204	H	1.421053	0.829698	1.283523
Cl205	Cl	0.027628	0.081197	-0.171025
Cl206	Cl	0.360962	0.414530	0.162308
Cl207	Cl	0.694295	0.747863	0.495641
Cl208	Cl	0.682932	-0.247984	-0.000114
Cl209	Cl	1.016265	0.085350	0.333219
Cl210	Cl	1.349599	0.418683	0.666552
Cl211	Cl	0.471633	0.087763	-0.170975
Cl212	Cl	0.804967	0.421096	0.162359
Cl213	Cl	1.138300	0.754430	0.495692
Cl214	Cl	0.914878	0.002609	0.402237
Cl215	Cl	1.248211	0.335943	0.735570
Cl216	Cl	1.581544	0.669276	1.068903
H217	H	0.704807	-0.679648	-0.000154
H218	H	1.038141	-0.346314	0.333179
H219	H	1.371474	-0.012981	0.666513
Cl220	Cl	0.678809	-0.527630	-0.000137
Cl221	Cl	1.012142	-0.194297	0.333197
Cl222	Cl	1.345475	0.139037	0.666530
Cl223	Cl	0.013002	0.095705	0.170689
Cl224	Cl	0.346336	0.429039	0.504022
Cl225	Cl	0.679669	0.762372	0.837355
Cl226	Cl	0.966069	-0.566109	-0.000143
Cl227	Cl	1.299402	-0.232776	0.333190
Cl228	Cl	1.632736	0.100558	0.666524
Cl229	Cl	0.963646	-0.730476	-0.000184
Cl230	Cl	1.296980	-0.397143	0.333150
Cl231	Cl	1.630313	-0.063810	0.666483
H232	H	0.474566	0.101097	0.137209
H233	H	0.807900	0.434430	0.470542
H234	H	1.141233	0.767764	0.803876
Cl235	Cl	0.923261	-0.005777	0.204957
Cl236	Cl	1.256594	0.327556	0.538290
Cl237	Cl	1.589927	0.660890	0.871624
H238	H	0.920471	-0.002934	0.775403
H239	H	1.253804	0.330399	1.108736
H240	H	1.587138	0.663732	1.442070
Cl241	Cl	0.699884	0.217481	0.402262
Cl242	Cl	1.033217	0.550815	0.735596
Cl243	Cl	1.366551	0.884148	1.068929
Cl244	Cl	0.725747	0.191685	0.794780
Cl245	Cl	1.059080	0.525019	1.128113
Cl246	Cl	1.392414	0.858352	1.461447
H247	H	0.944192	-0.134450	-0.000111
H248	H	1.277526	0.198883	0.333222
H249	H	1.610859	0.532217	0.666556
H250	H	0.606680	0.103062	0.137232
H251	H	0.940014	0.436395	0.470566
H252	H	1.273347	0.769729	0.803899
H253	H	0.162673	0.096472	0.137180
H254	H	0.496007	0.429806	0.470513
H255	H	0.829340	0.763139	0.803846
H256	H	0.942245	-0.266560	-0.000133
H257	H	1.275578	0.066773	0.333201
H258	H	1.608912	0.400106	0.666534
H259	H	0.618436	0.091378	-0.137436
H260	H	0.951770	0.424711	0.195897
H261	H	1.285103	0.758045	0.529230
Cl262	Cl	0.949114	-0.031580	0.597463
Cl263	Cl	1.282447	0.301753	0.930796
Cl264	Cl	1.615780	0.635087	1.264130
