data_functionalizedCrystal
_audit_creation_method	'MofGen! by Chris Wilmer'
_symmetry_space_group_name_H-M	'P1'
_symmetry_Int_Tables_number	1
_symmetry_cell_setting	triclinic
loop_
_symmetry_equiv_pos_as_xyz
  x,y,z
_cell_length_a	16.120530
_cell_length_b	12.759400
_cell_length_c	12.759393
_cell_angle_alpha	90.031564
_cell_angle_beta	87.081000
_cell_angle_gamma	92.889638
loop_
_atom_site_label
_atom_site_type_symbol
_atom_site_fract_x
_atom_site_fract_y
_atom_site_fract_z
Zn1	Zn	1.274626	0.499755	-0.675426
Zn2	Zn	1.774626	0.999755	-0.175426
Zn3	Zn	1.274542	0.675468	-0.499741
Zn4	Zn	1.774542	1.175468	0.000259
Zn5	Zn	1.135203	0.490889	-0.490856
Zn6	Zn	1.635203	0.990889	0.009144
Zn7	Zn	1.135194	0.666471	-0.666478
Zn8	Zn	1.635194	1.166471	-0.166478
O9	O	1.204891	0.583146	-0.583125
O10	O	1.704891	1.083146	-0.083125
O11	O	1.391282	0.530539	-0.659583
O12	O	1.891282	1.030539	-0.159583
O13	O	1.256027	0.651038	-0.351539
O14	O	1.756027	1.151038	0.148461
O15	O	1.153736	0.345047	-0.515367
O16	O	1.653736	0.845047	-0.015367
O17	O	1.391220	0.659635	-0.530508
O18	O	1.891220	1.159635	-0.030508
O19	O	1.256170	0.351560	-0.650969
O20	O	1.756170	0.851560	-0.150969
O21	O	1.153655	0.515429	-0.345012
O22	O	1.653655	1.015429	0.154988
O23	O	1.018535	0.506705	-0.506690
O24	O	1.518535	1.006705	-0.006690
O25	O	1.153721	0.644301	-0.814688
O26	O	1.653721	1.144301	-0.314688
O27	O	1.018528	0.635704	-0.635719
O28	O	1.518528	1.135704	-0.135719
O29	O	1.256161	0.521815	-0.821262
O30	O	1.756161	1.021815	-0.321262
O31	O	1.256019	0.821293	-0.521832
O32	O	1.756019	1.321293	-0.021832
O33	O	1.153640	0.814683	-0.644333
O34	O	1.653640	1.314683	-0.144333
C35	C	0.988281	0.569267	-0.569270
C36	C	1.488281	1.069267	-0.069270
C37	C	0.895614	0.563355	-0.563368
C38	C	1.395614	1.063355	-0.063368
C39	C	1.204950	0.583044	-0.857162
C40	C	1.704950	1.083044	-0.357162
C41	C	1.204974	0.583000	-0.973941
C42	C	1.704974	1.083000	-0.473941
C43	C	1.204842	0.856110	-0.583100
C44	C	1.704842	1.356110	-0.083100
C45	C	1.204897	0.972890	-0.583129
C46	C	1.704897	1.472890	-0.083129
C47	C	0.725951	0.552536	-0.552601
C48	C	1.225951	1.052536	-0.052601
C49	C	0.684672	0.613833	-0.613726
C50	C	1.184672	1.113833	-0.113726
C51	C	0.590265	0.607813	-0.607735
C52	C	1.090265	1.107813	-0.107735
C53	C	0.820366	0.558555	-0.558590
C54	C	1.320366	1.058555	-0.058590
C55	C	1.422347	0.597080	-0.597035
C56	C	1.922347	1.097080	-0.097035
C57	C	1.515014	0.603017	-0.602962
C58	C	2.015014	1.103017	-0.102962
C59	C	1.204964	0.309117	-0.583175
C60	C	1.704964	0.809117	-0.083175
C61	C	1.204994	0.192343	-0.583196
C62	C	1.704994	0.692343	-0.083196
C63	C	1.258265	1.031163	-0.519421
C64	C	1.758265	1.531163	-0.019421
C65	C	1.258316	1.140890	-0.519457
C66	C	1.758316	1.640890	-0.019457
C67	C	1.151624	1.134062	-0.646912
C68	C	1.651624	1.634062	-0.146912
C69	C	1.151578	1.024337	-0.646881
C70	C	1.651578	1.524337	-0.146881
C71	C	1.319860	1.035106	-0.445832
C72	C	1.819860	1.535106	0.054168
C73	C	1.319911	1.144833	-0.445868
C74	C	1.819911	1.644833	0.054132
C75	C	1.258322	0.519216	-1.032228
C76	C	1.758322	1.019216	-0.532228
C77	C	1.258342	0.519179	-1.141953
C78	C	1.758342	1.019179	-0.641953
C79	C	1.151664	0.646720	-1.135095
C80	C	1.651664	1.146720	-0.635095
C81	C	1.151640	0.646750	-1.025371
C82	C	1.651640	1.146750	-0.525371
C83	C	1.319915	0.445584	-1.036189
C84	C	1.819915	0.945584	-0.536189
C85	C	1.319935	0.445547	-1.145914
C86	C	1.819935	0.945547	-0.645914
C87	C	1.204881	0.583175	-0.310157
C88	C	1.704881	1.083175	0.189843
C89	C	1.205018	0.582933	-0.193390
C90	C	1.705018	1.082933	0.306610
H91	H	0.720233	0.670829	-0.670558
H92	H	1.220233	1.170829	-0.170558
H93	H	1.108239	0.698621	-1.176982
H94	H	1.608239	1.198621	-0.676982
C95	C	1.402775	1.196000	-0.490625
C96	C	1.902775	1.696000	0.009375
H97	H	1.439644	1.142858	-0.510526
H98	H	1.939644	1.642858	-0.010526
H99	H	1.392865	1.237231	-0.550251
H100	H	1.892865	1.737231	-0.050251
H101	H	1.426944	1.239468	-0.438698
H102	H	1.926944	1.739468	0.061302
H103	H	1.108196	0.698686	-0.977917
H104	H	1.608196	1.198686	-0.477917
H105	H	0.690392	0.495544	-0.495775
H106	H	1.190392	0.995544	0.004225
H107	H	1.302641	0.363115	-1.005329
H108	H	1.802641	0.863115	-0.505329
C109	C	1.402750	0.490273	-0.995494
C110	C	1.902750	0.990273	-0.495494
H111	H	1.439657	0.510148	-1.053299
H112	H	1.939657	1.010148	-0.553299
H113	H	1.392819	0.549904	-0.952936
H114	H	1.892819	1.049904	-0.452936
H115	H	1.426887	0.438324	-0.955151
H116	H	1.926887	0.938324	-0.455151
H117	H	1.384409	1.009378	-0.471808
H118	H	1.884409	1.509378	0.028192
H119	H	1.296832	0.366760	-1.178486
H120	H	1.796832	0.866760	-0.678486
C121	C	1.407154	0.480591	-1.191723
C122	C	1.907154	0.980591	-0.691723
H123	H	1.443008	0.495037	-1.136104
H124	H	1.943008	0.995037	-0.636104
H125	H	1.428641	0.426276	-1.234475
H126	H	1.928641	0.926276	-0.734475
H127	H	1.403616	0.542103	-1.232841
H128	H	1.903616	1.042103	-0.732841
C129	C	1.092884	0.960236	-0.716970
C130	C	1.592884	1.460236	-0.216970
H131	H	1.100498	0.887519	-0.707831
H132	H	1.600498	1.387519	-0.207831
H133	H	1.036880	0.974700	-0.697973
H134	H	1.536880	1.474700	-0.197973
H135	H	1.105079	0.978932	-0.788357
H136	H	1.605079	1.478932	-0.288357
C137	C	1.092976	1.190652	-0.717032
C138	C	1.592976	1.690652	-0.217032
H139	H	1.061189	1.140229	-0.754976
H140	H	1.561189	1.640229	-0.254976
H141	H	1.056685	1.231207	-0.674502
H142	H	1.556685	1.731207	-0.174502
H143	H	1.124876	1.235420	-0.764897
H144	H	1.624876	1.735420	-0.264897
C145	C	1.288638	0.987235	-0.339385
C146	C	1.788638	1.487235	0.160615
H147	H	1.289663	0.912936	-0.342996
H148	H	1.789663	1.412936	0.157004
H149	H	1.323631	1.012470	-0.286226
H150	H	1.823631	1.512470	0.213774
H151	H	1.233343	1.006752	-0.323273
H152	H	1.733343	1.506752	0.176727
C153	C	1.296600	1.183691	-0.334450
C154	C	1.796600	1.683691	0.165550
H155	H	1.286970	1.125212	-0.288607
H156	H	1.786970	1.625212	0.211393
H157	H	1.340817	1.227858	-0.310292
H158	H	1.840817	1.727858	0.189708
H159	H	1.247615	1.221965	-0.335718
H160	H	1.747615	1.721965	0.164282
