data_functionalizedCrystal
_audit_creation_method	'MofGen! by Chris Wilmer'
_symmetry_space_group_name_H-M	'P1'
_symmetry_Int_Tables_number	1
_symmetry_cell_setting	triclinic
loop_
_symmetry_equiv_pos_as_xyz
  x,y,z
_cell_length_a	18.101395
_cell_length_b	17.077404
_cell_length_c	18.101389
_cell_angle_alpha	90.018907
_cell_angle_beta	90.016841
_cell_angle_gamma	90.031329
loop_
_atom_site_label
_atom_site_type_symbol
_atom_site_fract_x
_atom_site_fract_y
_atom_site_fract_z
Zn1	Zn	-0.294903	1.200005	0.418740
Zn2	Zn	0.205097	1.700005	0.918740
Zn3	Zn	-0.418729	1.199895	0.294902
Zn4	Zn	0.081271	1.699895	0.794902
Zn5	Zn	-0.294906	1.068738	0.294913
Zn6	Zn	0.205094	1.568738	0.794913
Zn7	Zn	-0.418708	1.068686	0.418702
Zn8	Zn	0.081292	1.568686	0.918702
O9	O	-0.356811	1.134331	0.356814
O10	O	0.143189	1.634331	0.856814
O11	O	-0.311336	1.309837	0.402324
O12	O	0.188664	1.809837	0.902324
O13	O	-0.402313	1.182472	0.191270
O14	O	0.097687	1.682472	0.691270
O15	O	-0.191273	1.086219	0.311359
O16	O	0.308727	1.586219	0.811359
O17	O	-0.402310	1.309756	0.311340
O18	O	0.097690	1.809756	0.811340
O19	O	-0.191270	1.182660	0.402334
O20	O	0.308730	1.682660	0.902334
O21	O	-0.311341	1.086112	0.191278
O22	O	0.188659	1.586112	0.691278
O23	O	-0.311321	0.958885	0.311322
O24	O	0.188679	1.458885	0.811322
O25	O	-0.402275	1.086130	0.522340
O26	O	0.097725	1.586130	1.022340
O27	O	-0.402277	0.958846	0.402270
O28	O	0.097723	1.458846	0.902270
O29	O	-0.311316	1.182610	0.522368
O30	O	0.188684	1.682610	1.022368
O31	O	-0.522359	1.182422	0.311304
O32	O	-0.022359	1.682422	0.811304
O33	O	-0.522343	1.086023	0.402259
O34	O	-0.022343	1.586023	0.902259
C35	C	-0.356798	0.930383	0.356794
C36	C	0.143202	1.430383	0.856794
C37	C	-0.356810	0.843133	0.356802
C38	C	0.143190	1.343133	0.856802
C39	C	-0.404242	0.802144	0.404083
C40	C	0.095758	1.302144	0.904083
C41	C	-0.404244	0.720163	0.404095
C42	C	0.095756	1.220163	0.904095
C43	C	-0.356816	0.679174	0.356822
C44	C	0.143184	1.179174	0.856822
C45	C	-0.309379	0.720169	0.309539
C46	C	0.190621	1.220169	0.809539
C47	C	-0.309374	0.802148	0.309532
C48	C	0.190626	1.302148	0.809532
C49	C	-0.309393	0.549299	0.309557
C50	C	0.190607	1.049299	0.809557
C51	C	-0.309399	0.467315	0.309563
C52	C	0.190601	0.967315	0.809563
C53	C	-0.404263	0.467314	0.404120
C54	C	0.095737	0.967314	0.904120
C55	C	-0.404259	0.549293	0.404112
C56	C	0.095741	1.049293	0.904112
C57	C	-0.356822	0.590283	0.356829
C58	C	0.143178	1.090283	0.856829
C59	C	-0.549222	1.134226	0.356792
C60	C	-0.049222	1.634226	0.856792
C61	C	-0.631536	1.134253	0.356808
C62	C	-0.131536	1.634253	0.856808
C63	C	-0.930627	1.134425	0.356848
C64	C	-0.430627	1.634425	0.856848
C65	C	-0.899323	1.073915	0.414216
C66	C	-0.399323	1.573915	0.914216
C67	C	-0.813705	1.073627	0.414037
C68	C	-0.313705	1.573627	0.914037
C69	C	-0.782244	1.134340	0.356828
C70	C	-0.282244	1.634340	0.856828
C71	C	-0.813381	1.111944	0.278779
C72	C	-0.313381	1.611944	0.778779
C73	C	-0.899027	1.111554	0.279122
C74	C	-0.399027	1.611554	0.779122
C75	C	-0.898974	1.217464	0.376841
C76	C	-0.398974	1.717464	0.876841
C77	C	-0.813323	1.216976	0.378553
C78	C	-0.313323	1.716976	0.878553
C79	C	-0.698385	1.134293	0.356813
C80	C	-0.198385	1.634293	0.856813
C81	C	-1.014486	1.134470	0.356858
C82	C	-0.514486	1.634470	0.856858
C83	C	-0.163649	1.134458	0.356852
C84	C	0.336351	1.634458	0.856852
C85	C	-0.081335	1.134512	0.356868
C86	C	0.418665	1.634512	0.856868
C87	C	-0.356792	1.134376	0.549976
C88	C	0.143208	1.634376	1.049976
C89	C	-0.356784	1.134396	0.632290
C90	C	0.143216	1.634396	1.132290
C91	C	-0.356825	1.339075	0.356835
C92	C	0.143175	1.839075	0.856835
C93	C	-0.356831	1.426325	0.356844
C94	C	0.143169	1.926325	0.856844
C95	C	-0.356776	1.134331	0.164403
C96	C	0.143224	1.634331	0.664403
C97	C	-0.356576	1.134464	0.082090
C98	C	0.143424	1.634464	0.582090
C99	C	-0.356646	1.134442	0.931381
C100	C	0.143354	1.634442	1.431381
C101	C	-0.413692	1.073530	0.900039
C102	C	0.086308	1.573530	1.400039
C103	C	-0.413957	1.073695	0.814420
C104	C	0.086043	1.573695	1.314420
C105	C	-0.356715	1.134418	0.782999
C106	C	0.143285	1.634418	1.282999
C107	C	-0.377898	1.217122	0.814098
C108	C	0.122102	1.717122	1.314098
C109	C	-0.378273	1.216783	0.899743
C110	C	0.121727	1.716783	1.399743
C111	C	-0.278288	1.113368	0.899805
C112	C	0.221712	1.613368	1.399805
C113	C	-0.278741	1.111528	0.814154
C114	C	0.221259	1.611528	1.314154
C115	C	-0.356752	1.134410	0.699139
C116	C	0.143248	1.634410	1.199139
C117	C	-0.356610	1.134455	1.015241
C118	C	0.143390	1.634455	1.515241
H119	H	-0.270770	0.433943	0.271079
H120	H	0.229230	0.933943	0.771079
N121	N	-0.924368	1.274036	0.324441
N122	N	-0.424368	1.774036	0.824441
N123	N	-0.905335	1.344114	0.330520
N124	N	-0.405335	1.844114	0.830520
H125	H	-0.923274	1.384064	0.293512
H126	H	-0.423274	1.884064	0.793512
N127	N	-0.452701	0.844010	0.452360
N128	N	0.047299	1.344010	0.952360
N129	N	-0.521030	0.834816	0.447327
N130	N	-0.021030	1.334816	0.947327
H131	H	-0.555255	0.864382	0.481424
H132	H	-0.055255	1.364382	0.981424
H133	H	-0.270758	0.582671	0.271060
H134	H	0.229242	1.082671	0.771060
N135	N	-0.925997	1.243090	0.447026
N136	N	-0.425997	1.743090	0.947026
N137	N	-0.906682	1.308112	0.472223
N138	N	-0.406682	1.808112	0.972223
H139	H	-0.925766	1.326204	0.521795
H140	H	-0.425766	1.826204	1.021795
H141	H	-0.442869	0.686793	0.442594
H142	H	0.057131	1.186793	0.942594
H143	H	-0.442886	0.433937	0.442622
H144	H	0.057114	0.933937	0.942622
H145	H	-0.270759	0.686789	0.271052
H146	H	0.229241	1.186789	0.771052
N147	N	-0.260911	0.844009	0.261238
N148	N	0.239089	1.344009	0.761238
N149	N	-0.218564	0.807404	0.219037
N150	N	0.281436	1.307404	0.719037
H151	H	-0.184332	0.836967	0.184931
H152	H	0.315668	1.336967	0.684931
N153	N	-0.786449	1.276528	0.329960
N154	N	-0.286449	1.776528	0.829960
N155	N	-0.718567	1.288762	0.324686
N156	N	-0.218567	1.788762	0.824686
H157	H	-0.699587	1.330818	0.290361
H158	H	-0.199587	1.830818	0.790361
N159	N	-0.787299	1.091206	0.486640
N160	N	-0.287299	1.591206	0.986640
N161	N	-0.832124	1.103772	0.537798
N162	N	-0.332124	1.603772	1.037798
H163	H	-0.813479	1.116186	0.589078
H164	H	-0.313479	1.616186	1.089078
N165	N	-0.788086	0.996409	0.397425
N166	N	-0.288086	1.496409	0.897425
N167	N	-0.833460	0.942564	0.385922
N168	N	-0.333460	1.442564	0.885922
H169	H	-0.815369	0.888025	0.374188
H170	H	-0.315369	1.388025	0.874188
H171	H	-0.792970	1.233865	0.435993
H172	H	-0.292970	1.733865	0.935993
H173	H	-0.435553	1.234648	0.919726
H174	H	0.064447	1.734648	1.419726
N175	N	-0.254082	1.039028	0.926896
N176	N	0.245918	1.539028	1.426896
N177	N	-0.294294	1.000673	0.969810
N178	N	0.205706	1.500673	1.469810
H179	H	-0.277206	0.948168	0.988945
H180	H	0.222794	1.448168	1.488945
N181	N	-0.452715	0.591152	0.452398
N182	N	0.047285	1.091152	0.952398
N183	N	-0.495065	0.554548	0.494610
N184	N	0.004935	1.054548	0.994610
H185	H	-0.529288	0.584110	0.528714
H186	H	-0.029288	1.084110	1.028714
H187	H	-0.400701	1.012366	0.793393
H188	H	0.099299	1.512366	1.293393
N189	N	-0.787829	1.165482	0.223680
N190	N	-0.287829	1.665482	0.723680
N191	N	-0.833195	1.204707	0.187084
N192	N	-0.333195	1.704707	0.687084
H193	H	-0.815149	1.242519	0.148169
H194	H	-0.315149	1.742519	0.648169
N195	N	-0.925064	1.091364	0.487061
N196	N	-0.425064	1.591364	0.987061
N197	N	-0.966788	1.148595	0.497547
N198	N	-0.466788	1.648595	0.997547
H199	H	-0.984954	1.160935	0.548999
H200	H	-0.484954	1.660935	1.048999
N201	N	-0.328434	1.275665	0.925757
N202	N	0.171566	1.775665	1.425757
N203	N	-0.351774	1.330316	0.965314
N204	N	0.148226	1.830316	1.465314
H205	H	-0.316580	1.371906	0.983683
H206	H	0.183420	1.871906	1.483683
H207	H	-0.400572	1.012017	0.920630
H208	H	0.099428	1.512017	1.420630
H209	H	-0.471419	1.087305	0.921564
H210	H	0.028581	1.587305	1.421564
N211	N	-0.926407	0.997173	0.397810
N212	N	-0.426407	1.497173	0.897810
N213	N	-0.968664	0.986852	0.344050
N214	N	-0.468664	1.486852	0.844050
H215	H	-0.987795	0.932654	0.332460
H216	H	-0.487795	1.432654	0.832460
H217	H	-0.472038	1.087608	0.793938
H218	H	0.027962	1.587608	1.293938
H219	H	-0.919067	1.050852	0.262186
H220	H	-0.419067	1.550852	0.762186
H221	H	-0.791994	1.051885	0.261539
H222	H	-0.291994	1.551885	0.761539
H223	H	-0.919736	1.153715	0.234920
H224	H	-0.419736	1.653715	0.734920
H225	H	-0.337654	1.263724	0.793746
H226	H	0.162346	1.763724	1.293746
N227	N	-0.448990	1.239917	0.787192
N228	N	0.051010	1.739917	1.287192
N229	N	-0.484177	1.195396	0.745123
N230	N	0.015823	1.695396	1.245123
H231	H	-0.534388	1.211491	0.726121
H232	H	-0.034388	1.711491	1.226121
H233	H	-0.262766	1.050665	0.793828
H234	H	0.237234	1.550665	1.293828
N235	N	-0.222595	1.163124	0.787317
N236	N	0.277405	1.663124	1.287317
N237	N	-0.239209	1.217854	0.744604
N238	N	0.260791	1.717854	1.244604
H239	H	-0.199558	1.254301	0.725649
H240	H	0.300442	1.754301	1.225649
N241	N	-0.224975	1.169028	0.925236
N242	N	0.275025	1.669028	1.425236
N243	N	-0.244503	1.224000	0.966434
N244	N	0.255497	1.724000	1.466434
H245	H	-0.206856	1.263313	0.984398
H246	H	0.293144	1.763313	1.484398
