data_functionalizedCrystal
_audit_creation_method	'MofGen! by Chris Wilmer'
_symmetry_space_group_name_H-M	'P1'
_symmetry_Int_Tables_number	1
_symmetry_cell_setting	triclinic
loop_
_symmetry_equiv_pos_as_xyz
  x,y,z
_cell_length_a	27.732046
_cell_length_b	26.809956
_cell_length_c	27.732066
_cell_angle_alpha	90.008081
_cell_angle_beta	82.646039
_cell_angle_gamma	89.997320
loop_
_atom_site_label
_atom_site_type_symbol
_atom_site_fract_x
_atom_site_fract_y
_atom_site_fract_z
O1	O	-0.640935	0.041405	-0.057506
O2	O	-0.307602	0.374738	0.275828
O3	O	0.025731	0.708072	0.609161
O4	O	-0.500142	0.041421	-0.066252
O5	O	-0.166809	0.374754	0.267081
O6	O	0.166524	0.708087	0.600415
O7	O	-0.574907	0.041414	0.008517
O8	O	-0.241574	0.374747	0.341851
O9	O	0.091760	0.708081	0.675184
O10	O	-0.566171	0.041412	-0.132275
O11	O	-0.232837	0.374745	0.201058
O12	O	0.100496	0.708078	0.534392
O13	O	-0.574893	-0.041545	0.008506
O14	O	-0.241559	0.291788	0.341839
O15	O	0.091774	0.625121	0.675172
O16	O	-0.500128	-0.041538	-0.066263
O17	O	-0.166795	0.291795	0.267070
O18	O	0.166538	0.625128	0.600403
O19	O	-0.640921	-0.041554	-0.057517
O20	O	-0.307588	0.291779	0.275816
O21	O	0.025745	0.625112	0.609149
Zn22	Zn	-0.570522	-0.054718	-0.061892
Zn23	Zn	-0.237189	0.278615	0.271441
Zn24	Zn	0.096144	0.611949	0.604775
Zn25	Zn	-0.570541	0.054584	-0.061877
Zn26	Zn	-0.237208	0.387918	0.271456
Zn27	Zn	0.096126	0.721251	0.604790
O28	O	-0.566157	-0.041547	-0.132286
O29	O	-0.232823	0.291786	0.201047
O30	O	0.100510	0.625119	0.534380
C31	C	-0.482128	-0.000057	-0.066074
C32	C	-0.148795	0.333277	0.267259
C33	C	0.184538	0.666610	0.600592
C34	C	-0.428473	-0.000050	-0.065522
C35	C	-0.095140	0.333283	0.267811
C36	C	0.238193	0.666616	0.601145
N37	N	-0.570513	-0.129314	-0.061902
N38	N	-0.237180	0.204019	0.271431
N39	N	0.096153	0.537353	0.604765
C40	C	-0.089661	-0.000069	-0.106227
C41	C	0.243673	0.333264	0.227106
C42	C	0.577006	0.666598	0.560439
C43	C	0.111999	-0.000071	-0.104177
C44	C	0.445333	0.333262	0.229156
C45	C	0.778666	0.666595	0.562489
O46	O	0.143253	-0.000093	-0.141398
O47	O	0.476586	0.333240	0.191935
O48	O	0.809919	0.666573	0.525269
N49	N	0.131126	-0.000070	-0.059843
N50	N	0.464459	0.333264	0.273491
N51	N	0.797793	0.666597	0.606824
C52	C	0.099834	-0.000071	-0.016017
C53	C	0.433167	0.333263	0.317316
C54	C	0.766501	0.666596	0.650649
O55	O	0.120730	-0.000074	0.021739
O56	O	0.454063	0.333259	0.355072
O57	O	0.787396	0.666592	0.688406
C58	C	-0.101825	-0.000072	-0.018068
C59	C	0.231509	0.333262	0.315266
C60	C	0.564842	0.666595	0.648599
C61	C	-0.120948	-0.000069	-0.062405
C62	C	0.212385	0.333265	0.270928
C63	C	0.545718	0.666598	0.604261
C64	C	-0.108785	-0.000066	-0.150561
C65	C	0.224549	0.333267	0.182772
C66	C	0.557882	0.666600	0.516105
C67	C	-0.159197	-0.000063	-0.151073
C68	C	0.174136	0.333270	0.182260
C69	C	0.507470	0.666604	0.515593
C70	C	-0.190485	-0.000063	-0.107251
C71	C	0.142849	0.333271	0.226082
C72	C	0.476182	0.666604	0.559415
C73	C	-0.171360	-0.000065	-0.062917
C74	C	0.161973	0.333268	0.270416
C75	C	0.495306	0.666601	0.603749
C76	C	-0.133116	-0.000076	0.025757
C77	C	0.200218	0.333257	0.359090
C78	C	0.533551	0.666590	0.692424
C79	C	-0.183533	-0.000078	0.025241
C80	C	0.149800	0.333255	0.358574
C81	C	0.483134	0.666589	0.691907
C82	C	-0.202657	-0.000075	-0.019097
C83	C	0.130677	0.333259	0.314236
C84	C	0.464010	0.666592	0.647570
C85	C	-0.253060	-0.000061	-0.019607
C86	C	0.080273	0.333272	0.313726
C87	C	0.413606	0.666605	0.647059
N88	N	-0.272187	-0.000063	-0.063942
N89	N	0.061146	0.333270	0.269391
N90	N	0.394480	0.666604	0.602725
C91	C	-0.240899	-0.000064	-0.107764
C92	C	0.092434	0.333270	0.225569
C93	C	0.425768	0.666603	0.558903
C94	C	0.205708	-0.000069	-0.014944
C95	C	0.539042	0.333264	0.318389
C96	C	0.872375	0.666598	0.651723
C97	C	0.256123	-0.000068	-0.014431
C98	C	0.589456	0.333266	0.318902
C99	C	0.922790	0.666599	0.652235
C100	C	0.268285	-0.000070	-0.102592
C101	C	0.601618	0.333264	0.230742
C102	C	0.934951	0.666597	0.564075
C103	C	0.217869	-0.000067	-0.103104
C104	C	0.551202	0.333266	0.230229
C105	C	0.884536	0.666600	0.563563
C106	C	0.186582	-0.000071	-0.059279
C107	C	0.519915	0.333263	0.274055
C108	C	0.853248	0.666596	0.607388
C109	C	-0.346768	-0.000056	-0.108836
C110	C	-0.013435	0.333277	0.224498
C111	C	0.319898	0.666610	0.557831
C112	C	-0.397186	-0.000051	-0.109344
C113	C	-0.063852	0.333282	0.223989
C114	C	0.269481	0.666616	0.557323
C115	C	-0.409343	-0.000052	-0.021184
C116	C	-0.076009	0.333282	0.312149
C117	C	0.257324	0.666615	0.645483
C118	C	-0.358930	-0.000055	-0.020675
C119	C	-0.025597	0.333279	0.312658
C120	C	0.307736	0.666612	0.645991
C121	C	-0.327644	-0.000059	-0.064505
C122	C	0.005690	0.333275	0.268828
C123	C	0.339023	0.666608	0.602161
O124	O	-0.284342	-0.000045	0.017593
O125	O	0.048991	0.333288	0.350927
O126	O	0.382325	0.666622	0.684260
O127	O	-0.261804	-0.000071	-0.145515
O128	O	0.071529	0.333262	0.187819
O129	O	0.404862	0.666596	0.521152
C130	C	-0.039249	-0.000072	-0.105715
C131	C	0.294085	0.333261	0.227618
C132	C	0.627418	0.666594	0.560951
C133	C	-0.020124	-0.000075	-0.061381
C134	C	0.313209	0.333258	0.271952
C135	C	0.646542	0.666592	0.605285
C136	C	-0.051412	-0.000075	-0.017559
C137	C	0.281921	0.333259	0.315774
C138	C	0.615254	0.666592	0.649107
C139	C	0.030290	-0.000074	-0.060869
C140	C	0.363623	0.333259	0.272465
C141	C	0.696957	0.666593	0.605798
C142	C	0.061578	-0.000075	-0.104691
C143	C	0.394911	0.333259	0.228643
C144	C	0.728245	0.666592	0.561976
C145	C	0.042451	-0.000076	-0.149025
C146	C	0.375785	0.333257	0.184308
C147	C	0.709118	0.666590	0.517641
C148	C	-0.007961	-0.000073	-0.149537
C149	C	0.325373	0.333260	0.183796
C150	C	0.658706	0.666594	0.517129
C151	C	-0.032286	-0.000073	0.026775
C152	C	0.301048	0.333261	0.360109
C153	C	0.634381	0.666594	0.693442
C154	C	0.018127	-0.000076	0.027284
C155	C	0.351460	0.333258	0.360617
C156	C	0.684794	0.666591	0.693950
C157	C	0.049415	-0.000076	-0.016538
C158	C	0.382748	0.333257	0.316795
C159	C	0.716081	0.666591	0.650128
C160	C	-0.603643	-0.473943	-0.028777
C161	C	-0.270309	-0.140610	0.304556
C162	C	0.063024	0.192724	0.637889
C163	C	-0.603654	-0.682821	-0.028770
C164	C	-0.270321	-0.349487	0.304563
C165	C	0.063013	-0.016154	0.637897
O166	O	-0.631802	-0.709827	-0.000609
O167	O	-0.298469	-0.376494	0.332724
O168	O	0.034865	-0.043161	0.666057
N169	N	-0.570544	-0.708941	-0.061866
N170	N	-0.237210	-0.375608	0.271467
N171	N	0.096123	-0.042274	0.604800
C172	C	-0.537426	-0.682839	-0.094965
C173	C	-0.204093	-0.349505	0.238368
C174	C	0.129241	-0.016172	0.571702
O175	O	-0.509261	-0.709848	-0.123112
O176	O	-0.175927	-0.376515	0.210221
O177	O	0.157406	-0.043182	0.543555
C178	C	-0.537413	-0.473962	-0.094970
C179	C	-0.204079	-0.140629	0.238364
C180	C	0.129254	0.192705	0.571697
C181	C	-0.570528	-0.447844	-0.061874
C182	C	-0.237195	-0.114511	0.271459
C183	C	0.096138	0.218822	0.604792
C184	C	-0.636755	-0.447825	0.004316
C185	C	-0.303422	-0.114492	0.337649
C186	C	0.029911	0.218841	0.670982
C187	C	-0.636754	-0.395609	0.004312
C188	C	-0.303420	-0.062276	0.337645
C189	C	0.029913	0.271058	0.670978
C190	C	-0.603640	-0.369510	-0.028785
C191	C	-0.270306	-0.036177	0.304548
C192	C	0.063027	0.297156	0.637881
C193	C	-0.570527	-0.395628	-0.061878
C194	C	-0.237194	-0.062295	0.271455
C195	C	0.096140	0.271039	0.604788
C196	C	-0.504293	-0.447861	-0.128066
C197	C	-0.170960	-0.114527	0.205268
C198	C	0.162374	0.218806	0.538601
C199	C	-0.504292	-0.395638	-0.128063
C200	C	-0.170959	-0.062305	0.205270
C201	C	0.162375	0.271029	0.538604
C202	C	-0.537408	-0.369520	-0.094968
C203	C	-0.204074	-0.036187	0.238366
C204	C	0.129259	0.297146	0.571699
C205	C	-0.537411	-0.317313	-0.094979
C206	C	-0.204078	0.016020	0.238354
C207	C	0.129255	0.349354	0.571687
N208	N	-0.570522	-0.291193	-0.061883
N209	N	-0.237188	0.042141	0.271451
N210	N	0.096145	0.375474	0.604784
C211	C	-0.603636	-0.317291	-0.028786
C212	C	-0.270302	0.016042	0.304547
C213	C	0.063031	0.349375	0.637881
C214	C	-0.537436	-0.792502	-0.094961
C215	C	-0.204103	-0.459169	0.238373
C216	C	0.129231	-0.125835	0.571706
C217	C	-0.537440	-0.844721	-0.094960
C218	C	-0.204107	-0.511388	0.238373
C219	C	0.129227	-0.178054	0.571706
C220	C	-0.603667	-0.844699	-0.028765
C221	C	-0.270334	-0.511366	0.304569
C222	C	0.062999	-0.178033	0.637902
C223	C	-0.603665	-0.792479	-0.028768
C224	C	-0.270332	-0.459146	0.304566
C225	C	0.063001	-0.125813	0.637899
C226	C	-0.570546	-0.766382	-0.061864
C227	C	-0.237213	-0.433048	0.271469
C228	C	0.096120	-0.099715	0.604802
C229	C	-0.603630	-0.207634	-0.028797
C230	C	-0.270297	0.125700	0.304536
C231	C	0.063036	0.459033	0.637870
C232	C	-0.603627	-0.155413	-0.028805
C233	C	-0.270294	0.177921	0.304528
C234	C	0.063039	0.511254	0.637862
C235	C	-0.537398	-0.155439	-0.094999
C236	C	-0.204065	0.177895	0.238334
C237	C	0.129268	0.511228	0.571668
C238	C	-0.537403	-0.207655	-0.094993
C239	C	-0.204070	0.125678	0.238341
C240	C	0.129264	0.459012	0.571674
C241	C	-0.570521	-0.233751	-0.061888
C242	C	-0.237188	0.099582	0.271446
C243	C	0.096146	0.432915	0.604779
O244	O	-0.509274	-0.290274	-0.123122
O245	O	-0.175941	0.043059	0.210212
O246	O	0.157392	0.376392	0.543545
O247	O	-0.631790	-0.290273	-0.000636
O248	O	-0.298457	0.043061	0.332697
O249	O	0.034877	0.376394	0.666031
C250	C	-0.603644	-0.526159	-0.028774
C251	C	-0.270311	-0.192826	0.304560
C252	C	0.063023	0.140507	0.637893
C253	C	-0.570531	-0.552277	-0.061867
C254	C	-0.237198	-0.218944	0.271467
C255	C	0.096135	0.114390	0.604800
C256	C	-0.537417	-0.526178	-0.094963
C257	C	-0.204084	-0.192845	0.238370
C258	C	0.129250	0.140488	0.571703
C259	C	-0.570535	-0.604496	-0.061866
C260	C	-0.237202	-0.271163	0.271467
C261	C	0.096132	0.062171	0.604801
C262	C	-0.603649	-0.630595	-0.028769
C263	C	-0.270316	-0.297261	0.304564
C264	C	0.063017	0.036072	0.637898
C265	C	-0.636760	-0.604474	0.004327
C266	C	-0.303426	-0.271141	0.337661
C267	C	0.029907	0.062192	0.670994
C268	C	-0.636758	-0.552258	0.004323
C269	C	-0.303425	-0.218925	0.337657
C270	C	0.029909	0.114409	0.670990
C271	C	-0.504307	-0.552299	-0.128060
C272	C	-0.170974	-0.218965	0.205273
C273	C	0.162360	0.114368	0.538607
C274	C	-0.504311	-0.604515	-0.128054
C275	C	-0.170978	-0.271182	0.205280
C276	C	0.162355	0.062152	0.538613
C277	C	-0.537426	-0.630614	-0.094957
C278	C	-0.204092	-0.297280	0.238377
C279	C	0.129241	0.036053	0.571710
C280	C	0.341065	-0.000073	-0.057696
C281	C	0.674398	0.333260	0.275637
C282	C	1.007732	0.666594	0.608970
C283	C	0.287411	-0.000068	-0.058253
C284	C	0.620744	0.333265	0.275080
C285	C	0.954077	0.666598	0.608413
C286	C	-0.574715	-0.000064	0.026518
C287	C	-0.241382	0.333269	0.359852
C288	C	0.091952	0.666602	0.693185
C289	C	-0.574159	-0.000060	0.080173
C290	C	-0.240825	0.333274	0.413506
C291	C	0.092508	0.666607	0.746839
N292	N	-0.570554	0.129180	-0.061863
N293	N	-0.237221	0.462514	0.271470
N294	N	0.096113	0.795847	0.604803
C295	C	-0.526189	-0.000055	0.457245
C296	C	-0.192856	0.333279	0.790578
C297	C	0.140477	0.666612	1.123911
C298	C	-0.528237	-0.000053	0.255585
C299	C	-0.194903	0.333280	0.588918
C300	C	0.138430	0.666614	0.922251
O301	O	-0.491016	-0.000029	0.224332
O302	O	-0.157683	0.333305	0.557665
O303	O	0.175651	0.666638	0.890999
N304	N	-0.572571	-0.000058	0.236457
N305	N	-0.239238	0.333275	0.569791
N306	N	0.094095	0.666609	0.903124
C307	C	-0.616397	-0.000060	0.267749
C308	C	-0.283064	0.333273	0.601082
C309	C	0.050270	0.666607	0.934415
O310	O	-0.654153	-0.000059	0.246853
O311	O	-0.320820	0.333275	0.580186
O312	O	0.012514	0.666608	0.913519
C313	C	-0.614349	-0.000058	0.469408
C314	C	-0.281016	0.333275	0.802741
C315	C	0.052318	0.666609	1.136075
C316	C	-0.570012	-0.000058	0.488532
C317	C	-0.236678	0.333275	0.821865
C318	C	0.096655	0.666609	1.155199
C319	C	-0.481856	-0.000054	0.476370
C320	C	-0.148522	0.333279	0.809703
C321	C	0.184811	0.666612	1.143036
C322	C	-0.481344	-0.000057	0.526782
C323	C	-0.148011	0.333276	0.860115
C324	C	0.185322	0.666609	1.193448
C325	C	-0.525167	-0.000061	0.558069
C326	C	-0.191833	0.333272	0.891402
C327	C	0.141500	0.666606	1.224736
C328	C	-0.569500	-0.000061	0.538944
C329	C	-0.236167	0.333272	0.872278
C330	C	0.097166	0.666605	1.205611
C331	C	-0.658174	-0.000056	0.500698
C332	C	-0.324841	0.333277	0.834032
C333	C	0.008493	0.666610	1.167365
C334	C	-0.657658	-0.000054	0.551116
C335	C	-0.324325	0.333279	0.884449
C336	C	0.009008	0.666612	1.217782
C337	C	-0.613321	-0.000055	0.570240
C338	C	-0.279988	0.333279	0.903573
C339	C	0.053346	0.666612	1.236907
C340	C	-0.612811	-0.000068	0.620644
C341	C	-0.279478	0.333266	0.953977
C342	C	0.053855	0.666599	1.287310
N343	N	-0.568477	-0.000063	0.639771
N344	N	-0.235143	0.333270	0.973104
N345	N	0.098190	0.666604	1.306437
C346	C	-0.524654	-0.000059	0.608483
C347	C	-0.191321	0.333274	0.941817
C348	C	0.142012	0.666607	1.275150
C349	C	-0.617469	-0.000062	0.161874
C350	C	-0.284136	0.333271	0.495208
C351	C	0.049198	0.666605	0.828541
C352	C	-0.617981	-0.000063	0.111460
C353	C	-0.284648	0.333270	0.444793
C354	C	0.048686	0.666603	0.778127
C355	C	-0.529821	-0.000056	0.099299
C356	C	-0.196487	0.333278	0.432633
C357	C	0.136846	0.666611	0.765966
C358	C	-0.529309	-0.000058	0.149715
C359	C	-0.195976	0.333276	0.483048
C360	C	0.137357	0.666609	0.816381
C361	C	-0.573135	-0.000057	0.181002
C362	C	-0.239801	0.333276	0.514335
C363	C	0.093532	0.666610	0.847668
C364	C	-0.523584	-0.000066	0.714353
C365	C	-0.190251	0.333267	1.047686
C366	C	0.143083	0.666600	1.381020
C367	C	-0.523076	-0.000072	0.764770
C368	C	-0.189743	0.333262	1.098103
C369	C	0.143590	0.666595	1.431437
C370	C	-0.611236	-0.000077	0.776926
C371	C	-0.277903	0.333257	1.110260
C372	C	0.055430	0.666590	1.443593
C373	C	-0.611744	-0.000074	0.726514
C374	C	-0.278411	0.333259	1.059847
C375	C	0.054922	0.666592	1.393180
C376	C	-0.567914	-0.000067	0.695228
C377	C	-0.234581	0.333266	1.028561
C378	C	0.098753	0.666599	1.361894
O379	O	-0.650012	-0.000086	0.651925
O380	O	-0.316679	0.333247	0.985258
O381	O	0.016655	0.666580	1.318591
O382	O	-0.486904	-0.000049	0.629389
O383	O	-0.153571	0.333284	0.962722
O384	O	0.179763	0.666617	1.296056
C385	C	-0.526701	-0.000052	0.406833
C386	C	-0.193367	0.333282	0.740166
C387	C	0.139966	0.666615	1.073499
C388	C	-0.571034	-0.000052	0.387708
C389	C	-0.237701	0.333281	0.721041
C390	C	0.095632	0.666615	1.054375
C391	C	-0.614857	-0.000055	0.418995
C392	C	-0.281523	0.333278	0.752329
C393	C	0.051810	0.666611	1.085662
C394	C	-0.571547	-0.000053	0.337293
C395	C	-0.238213	0.333280	0.670627
C396	C	0.095120	0.666613	1.003960
C397	C	-0.527724	-0.000050	0.306006
C398	C	-0.194391	0.333284	0.639339
C399	C	0.138942	0.666617	0.972673
C400	C	-0.483390	-0.000045	0.325133
C401	C	-0.150056	0.333288	0.658467
C402	C	0.183277	0.666622	0.991800
C403	C	-0.482878	-0.000048	0.375545
C404	C	-0.149545	0.333285	0.708879
C405	C	0.183788	0.666619	1.042212
C406	C	-0.659191	-0.000060	0.399868
C407	C	-0.325858	0.333273	0.733201
C408	C	0.007475	0.666607	1.066535
C409	C	-0.659699	-0.000058	0.349456
C410	C	-0.326366	0.333276	0.682789
C411	C	0.006968	0.666609	1.016122
C412	C	-0.615877	-0.000054	0.318168
C413	C	-0.282543	0.333279	0.651502
C414	C	0.050790	0.666613	0.984835
C415	C	-0.566347	-0.000070	0.849712
C416	C	-0.233014	0.333264	1.183046
C417	C	0.100320	0.666597	1.516379
C418	C	-0.566899	-0.000075	0.796057
C419	C	-0.233565	0.333258	1.129391
C420	C	0.099768	0.666592	1.462724
H421	H	-0.412753	-0.000048	-0.145450
H422	H	-0.079419	0.333285	0.187883
H423	H	0.253914	0.666619	0.521216
H424	H	-0.477327	-0.469118	-0.155015
H425	H	-0.143994	-0.135785	0.178319
H426	H	0.189340	0.197548	0.511652
H427	H	-0.510439	-0.134181	-0.121948
H428	H	-0.177105	0.199152	0.211386
H429	H	0.156228	0.532486	0.544719
H430	H	-0.057756	-0.000074	0.062461
H431	H	0.275577	0.333260	0.395795
H432	H	0.608911	0.666593	0.729128
H433	H	-0.445240	-0.000053	0.542347
H434	H	-0.111907	0.333280	0.875681
H435	H	0.221426	0.666613	1.209014
H436	H	-0.694878	-0.000062	0.425338
H437	H	-0.361544	0.333271	0.758671
H438	H	-0.028211	0.666604	1.092005
H439	H	0.033692	-0.000074	0.063391
H440	H	0.367025	0.333259	0.396725
H441	H	0.700359	0.666592	0.730058
H442	H	-0.209005	-0.000081	0.060929
H443	H	0.124328	0.333252	0.394263
H444	H	0.457661	0.666586	0.727596
H445	H	-0.663724	-0.625732	0.031275
H446	H	-0.330391	-0.292399	0.364608
H447	H	0.002942	0.040934	0.697941
H448	H	-0.446168	-0.000050	0.450900
H449	H	-0.112835	0.333284	0.784233
H450	H	0.220498	0.666617	1.117566
H451	H	-0.654085	-0.000071	0.095894
H452	H	-0.320752	0.333262	0.429227
H453	H	0.012582	0.666596	0.762561
H454	H	-0.647847	-0.000081	0.710942
H455	H	-0.314514	0.333252	1.044275
H456	H	0.018819	0.666586	1.377609
H457	H	-0.630631	-0.865958	-0.001816
H458	H	-0.297298	-0.532624	0.331517
H459	H	0.036036	-0.199291	0.664850
H460	H	-0.494139	-0.000055	0.073816
H461	H	-0.160806	0.333278	0.407150
H462	H	0.172528	0.666612	0.740483
H463	H	-0.447708	-0.000045	0.299650
H464	H	-0.114375	0.333288	0.632983
H465	H	0.218959	0.666621	0.966317
H466	H	-0.487893	-0.000061	0.688885
H467	H	-0.154560	0.333273	1.022219
H468	H	0.178774	0.666606	1.355552
H469	H	-0.477321	-0.374392	-0.155014
H470	H	-0.143987	-0.041058	0.178319
H471	H	0.189346	0.292275	0.511653
H472	H	-0.630631	-0.771218	-0.001818
H473	H	-0.297298	-0.437884	0.331515
H474	H	0.036036	-0.104551	0.664848
H475	H	-0.653159	-0.000062	0.187345
H476	H	-0.319826	0.333271	0.520678
H477	H	0.013508	0.666605	0.854011
H478	H	-0.695806	-0.000061	0.333890
H479	H	-0.362473	0.333272	0.667223
H480	H	-0.029140	0.666605	1.000557
H481	H	0.180238	-0.000072	0.020746
H482	H	0.513571	0.333261	0.354079
H483	H	0.846904	0.666595	0.687412
H484	H	-0.694278	-0.000056	0.485137
H485	H	-0.360945	0.333278	0.818470
H486	H	-0.027612	0.666611	1.151803
H487	H	-0.510442	-0.228920	-0.121947
H488	H	-0.177108	0.104413	0.211387
H489	H	0.156225	0.437746	0.544720
H490	H	-0.083315	-0.000069	-0.186248
H491	H	0.250019	0.333265	0.147085
H492	H	0.583352	0.666598	0.480418
H493	H	-0.321300	-0.000061	-0.144526
H494	H	0.012033	0.333272	0.188807
H495	H	0.345366	0.666606	0.522140
H496	H	-0.693347	-0.000051	0.576588
H497	H	-0.360014	0.333282	0.909921
H498	H	-0.026680	0.666615	1.243254
H499	H	-0.646915	-0.000082	0.802409
H500	H	-0.313582	0.333251	1.135743
H501	H	0.019751	0.666585	1.469076
H502	H	-0.493206	-0.000060	0.165282
H503	H	-0.159873	0.333273	0.498615
H504	H	0.173461	0.666607	0.831949
H505	H	-0.446774	-0.000049	0.391111
H506	H	-0.113441	0.333285	0.724445
H507	H	0.219892	0.666618	1.057778
H508	H	-0.343359	-0.000050	0.015428
H509	H	-0.010026	0.333283	0.348761
H510	H	0.323308	0.666617	0.682094
H511	H	-0.174762	-0.000060	-0.187177
H512	H	0.158571	0.333273	0.146156
H513	H	0.491904	0.666606	0.479489
H514	H	0.202302	-0.000067	-0.139207
H515	H	0.535636	0.333266	0.194126
H516	H	0.868969	0.666599	0.527459
H517	H	-0.477341	-0.531053	-0.155011
H518	H	-0.144007	-0.197720	0.178322
H519	H	0.189326	0.135614	0.511656
H520	H	0.293768	-0.000070	-0.138273
H521	H	0.627101	0.333263	0.195060
H522	H	0.960435	0.666597	0.528393
H523	H	0.271689	-0.000063	0.021673
H524	H	0.605022	0.333271	0.355006
H525	H	0.938355	0.666604	0.688339
H526	H	-0.434826	-0.000049	0.014495
H527	H	-0.101493	0.333284	0.347828
H528	H	0.231840	0.666617	0.681161
H529	H	-0.117554	-0.000079	0.061861
H530	H	0.215779	0.333254	0.395195
H531	H	0.549112	0.666587	0.728528
H532	H	-0.023526	-0.000071	-0.185641
H533	H	0.309807	0.333262	0.147692
H534	H	0.643140	0.666596	0.481025
H535	H	-0.663721	-0.469070	0.031269
H536	H	-0.330387	-0.135737	0.364603
H537	H	0.002946	0.197596	0.697936
H538	H	0.067935	-0.000075	-0.184707
H539	H	0.401268	0.333259	0.148627
H540	H	0.734601	0.666592	0.481960
H541	H	-0.477345	-0.625776	-0.155008
H542	H	-0.144012	-0.292443	0.178325
H543	H	0.189321	0.040890	0.511659
H544	H	-0.630598	-0.228875	-0.001839
H545	H	-0.297264	0.104458	0.331494
H546	H	0.036069	0.437792	0.664827
H547	H	-0.630596	-0.134149	-0.001855
H548	H	-0.297263	0.199184	0.331478
H549	H	0.036071	0.532517	0.664812
H550	H	-0.663724	-0.530997	0.031273
H551	H	-0.330391	-0.197663	0.364606
H552	H	0.002943	0.135670	0.697940
H553	H	-0.663718	-0.374347	0.031262
H554	H	-0.330385	-0.041014	0.364595
H555	H	0.002949	0.292319	0.697929
H556	H	-0.510479	-0.865982	-0.121915
H557	H	-0.177146	-0.532649	0.211419
H558	H	0.156188	-0.199316	0.544752
H559	H	-0.510466	-0.771257	-0.121913
H560	H	-0.177132	-0.437923	0.211420
H561	H	0.156201	-0.104590	0.544753
H562	H	-0.486970	-0.000074	0.780338
H563	H	-0.153637	0.333259	1.113671
H564	H	0.179697	0.666593	1.447004
