data_functionalizedCrystal
_audit_creation_method	'MofGen! by Chris Wilmer'
_symmetry_space_group_name_H-M	'P1'
_symmetry_Int_Tables_number	1
_symmetry_cell_setting	triclinic
loop_
_symmetry_equiv_pos_as_xyz
  x,y,z
_cell_length_a	19.288864
_cell_length_b	15.944493
_cell_length_c	17.766277
_cell_angle_alpha	89.999511
_cell_angle_beta	89.976791
_cell_angle_gamma	83.305646
loop_
_atom_site_label
_atom_site_type_symbol
_atom_site_fract_x
_atom_site_fract_y
_atom_site_fract_z
O1	O	0.921611	0.104787	-0.062826
O2	O	0.719385	0.118922	-0.062773
O3	O	0.826041	-0.010445	-0.062807
O4	O	0.814955	0.234154	-0.062792
O5	O	0.826023	-0.010452	0.062381
O6	O	0.719366	0.118916	0.062415
O7	O	0.921592	0.104780	0.062362
Cu8	Cu	0.820478	0.111847	0.073820
Cu9	Cu	0.820500	0.111855	-0.074230
O10	O	0.814936	0.234147	0.062397
C11	C	0.693498	0.118464	-0.000172
C12	C	0.616391	0.117099	-0.000153
C13	C	0.571882	0.193005	-0.000160
C14	C	0.499432	0.191723	-0.000168
C15	C	0.471494	0.114529	-0.000185
C16	C	0.516013	0.038612	-0.000173
C17	C	0.588462	0.039897	-0.000157
C18	C	0.363089	0.053848	-0.044073
C19	C	0.290642	0.052567	-0.044094
C20	C	0.248039	0.110563	-0.000231
C21	C	0.277891	0.169855	0.043643
C22	C	0.350339	0.171140	0.043659
C23	C	0.392937	0.113127	-0.000202
C24	C	0.124970	0.185084	-0.000246
C25	C	0.052519	0.183798	-0.000249
C26	C	0.069102	0.030685	-0.000262
C27	C	0.141552	0.031973	-0.000251
C28	C	0.169481	0.109175	-0.000246
C29	C	0.825579	-0.041742	-0.000216
C30	C	0.824220	-0.134985	-0.000225
C31	C	0.887001	-0.370987	-0.000228
C32	C	0.853155	-0.421421	-0.061943
C33	C	0.821703	-0.305696	-0.000216
C34	C	0.853121	-0.421403	0.061483
C35	C	0.819277	-0.470596	-0.000203
C36	C	0.787875	-0.354902	-0.061982
C37	C	0.787851	-0.354882	0.061500
C38	C	0.753957	-0.405283	-0.000230
C39	C	0.823103	-0.210702	-0.000224
C40	C	0.817872	-0.565588	-0.000200
C41	C	0.947479	0.105238	-0.000240
C42	C	1.024586	0.106603	-0.000265
C43	C	0.815399	0.265444	-0.000196
C44	C	0.816757	0.358687	-0.000192
N45	N	0.820467	0.111841	0.177950
N46	N	0.820516	0.111854	-0.178361
C47	C	0.867710	0.054585	0.217322
C48	C	0.867714	0.054581	0.296124
C49	C	0.820482	0.111848	0.335550
C50	C	0.773230	0.169108	0.296169
C51	C	0.773223	0.169105	0.217369
C52	C	0.811371	0.188383	0.460395
C53	C	0.811384	0.188388	0.539194
C54	C	0.820500	0.111858	0.578597
C55	C	0.829620	0.035320	0.539192
C56	C	0.829612	0.035317	0.460391
C57	C	0.820484	0.111858	0.420996
C58	C	0.867750	0.054593	0.703415
C59	C	0.867749	0.054588	0.782218
C60	C	0.773269	0.169122	0.782262
C61	C	0.773266	0.169120	0.703460
C62	C	0.820511	0.111856	0.664041
H63	H	0.243205	0.217081	0.079361
H64	H	0.734751	0.215730	0.185312
C65	C	0.678918	-0.425676	-0.000097
C66	C	0.667026	-0.472038	0.064620
C67	C	0.597908	-0.490831	0.064769
H68	H	0.670924	-0.457988	-0.043495
H69	H	0.648090	-0.374657	-0.000485
H70	H	0.697845	-0.523049	0.065000
H71	H	0.675005	-0.439741	0.108028
H72	H	0.567080	-0.439812	0.064381
H73	H	0.589921	-0.523140	0.021368
H74	H	0.589829	-0.522283	0.108681
C75	C	0.890064	-0.460138	-0.131468
C76	C	0.959658	-0.443139	-0.131196
C77	C	0.993686	-0.478799	-0.195221
H78	H	0.867423	-0.436517	-0.175349
H79	H	0.888589	-0.519488	-0.131194
H80	H	0.961129	-0.383801	-0.131477
H81	H	0.982318	-0.466761	-0.087328
H82	H	0.992211	-0.538149	-0.194947
H83	H	0.971040	-0.455175	-0.239098
H84	H	1.040911	-0.467277	-0.195042
H85	H	0.734800	0.215746	0.671401
H86	H	0.803962	0.250709	0.571271
H87	H	0.906186	0.007955	0.328186
H88	H	0.760291	-0.325817	0.113693
C89	C	0.038914	-0.053214	-0.000240
C90	C	0.093405	-0.119417	-0.000216
C91	C	0.065620	-0.196719	-0.000182
H92	H	0.011029	-0.057016	-0.043889
H93	H	0.010994	-0.056944	0.043429
H94	H	0.121313	-0.115688	-0.043880
H95	H	0.121294	-0.115642	0.043430
H96	H	0.037700	-0.200449	0.043487
H97	H	0.037735	-0.200513	-0.043832
H98	H	0.102587	-0.241647	-0.000159
C99	C	0.890007	-0.460188	0.130963
C100	C	0.946067	-0.518786	0.108873
C101	C	0.980072	-0.554521	0.172852
H102	H	0.858177	-0.487857	0.160092
H103	H	0.906890	-0.417006	0.160215
H104	H	0.929183	-0.561961	0.079633
H105	H	0.977912	-0.491138	0.079753
H106	H	0.996955	-0.511339	0.202104
H107	H	0.948237	-0.582186	0.201976
H108	H	1.018116	-0.594278	0.157873
C109	C	0.919027	-0.007686	0.174661
C110	C	0.960389	-0.057845	0.226014
C111	C	1.007662	-0.115228	0.186741
H112	H	0.947998	0.022340	0.143899
H113	H	0.894063	-0.042626	0.143955
H114	H	0.985352	-0.022909	0.256707
H115	H	0.931438	-0.087890	0.256778
H116	H	0.982698	-0.150168	0.156036
H117	H	1.036628	-0.085194	0.155980
H118	H	1.035728	-0.149272	0.221578
C119	C	0.751209	-0.316185	-0.131611
C120	C	0.752976	-0.228652	-0.130832
C121	C	0.719222	-0.192958	-0.194969
H122	H	0.704074	-0.328026	-0.131850
H123	H	0.774259	-0.339501	-0.175411
H124	H	0.729925	-0.205344	-0.087044
H125	H	0.800102	-0.216787	-0.130604
H126	H	0.742272	-0.216275	-0.238769
H127	H	0.672089	-0.204806	-0.195202
H128	H	0.720422	-0.133565	-0.194453
H129	H	0.906217	0.007963	0.671318
C130	C	0.801591	0.271418	0.417518
C131	C	0.860155	0.277871	0.372232
C132	C	0.851166	0.354340	0.332715
H133	H	0.796194	0.317075	0.452179
H134	H	0.761165	0.273250	0.386755
H135	H	0.900569	0.276047	0.402992
H136	H	0.865563	0.232232	0.337556
H137	H	0.810741	0.356172	0.301952
H138	H	0.845768	0.399991	0.367382
H139	H	0.890897	0.358725	0.301979
H140	H	0.397771	0.006619	-0.079796
H141	H	0.493262	-0.024240	-0.000197
H142	H	0.016279	0.245613	-0.000251
C143	C	0.839480	-0.047864	0.417744
C144	C	0.847449	-0.114890	0.469109
C145	C	0.856528	-0.191529	0.429850
H146	H	0.879922	-0.049810	0.386977
H147	H	0.799779	-0.052444	0.387044
H148	H	0.887146	-0.110312	0.499796
H149	H	0.807013	-0.112972	0.499878
H150	H	0.816827	-0.196110	0.399150
H151	H	0.896969	-0.193467	0.399084
H152	H	0.861930	-0.237016	0.464696
C153	C	0.721981	0.231418	0.338874
C154	C	0.733213	0.313927	0.319679
C155	C	0.686005	0.371347	0.358994
H156	H	0.728701	0.223340	0.391456
H157	H	0.675615	0.222484	0.325970
H158	H	0.779568	0.322858	0.332588
H159	H	0.726487	0.322032	0.267104
H160	H	0.639638	0.362413	0.346090
H161	H	0.692728	0.363262	0.411574
H162	H	0.693614	0.427336	0.345971
C163	C	0.258321	-0.011768	-0.091852
C164	C	0.274809	-0.000416	-0.167648
C165	C	0.245058	-0.059675	-0.211665
H166	H	0.209069	-0.004292	-0.085683
H167	H	0.276222	-0.067149	-0.076470
H168	H	0.256905	0.054951	-0.183026
H169	H	0.324056	-0.007900	-0.173840
H170	H	0.262959	-0.115056	-0.196283
H171	H	0.195807	-0.052194	-0.205490
H172	H	0.256246	-0.051986	-0.263097
H173	H	0.624702	-0.021918	-0.000152
C174	C	0.839375	-0.047760	0.581995
C175	C	0.780796	-0.054253	0.627248
C176	C	0.789757	-0.130778	0.666682
H177	H	0.879782	-0.049670	0.612776
H178	H	0.844770	-0.093361	0.547260
H179	H	0.775409	-0.008664	0.661979
H180	H	0.740381	-0.052358	0.596485
H181	H	0.795152	-0.176379	0.631947
H182	H	0.830166	-0.132681	0.697459
H183	H	0.750011	-0.135197	0.697385
C184	C	0.919124	-0.007616	0.824832
C185	C	0.960507	-0.057745	0.773440
C186	C	1.007849	-0.115048	0.812669
H187	H	0.894234	-0.042591	0.855589
H188	H	0.948067	0.022498	0.855539
H189	H	0.931568	-0.087857	0.742745
H190	H	0.985413	-0.022793	0.742681
H191	H	1.036792	-0.084933	0.843376
H192	H	0.982953	-0.150017	0.843425
H193	H	1.035937	-0.149062	0.777806
H194	H	0.734809	0.215746	0.814363
H195	H	0.463185	0.253537	-0.000172
C196	C	0.602100	0.276889	-0.000268
C197	C	0.579489	0.322764	-0.064668
C198	C	0.607302	0.400048	-0.064788
H199	H	0.651621	0.266916	-0.000297
H200	H	0.586771	0.308176	0.043364
H201	H	0.594822	0.291484	-0.108288
H202	H	0.529972	0.332760	-0.064653
H203	H	0.591973	0.431336	-0.021157
H204	H	0.656822	0.390067	-0.064815
H205	H	0.591960	0.431187	-0.108479
C206	C	0.382623	0.235540	0.091377
C207	C	0.329815	0.286047	0.129804
C208	C	0.359529	0.345371	0.173779
H209	H	0.407225	0.270042	0.059845
H210	H	0.413992	0.207015	0.126684
H211	H	0.298458	0.314570	0.094500
H212	H	0.305208	0.251568	0.161349
H213	H	0.390898	0.316847	0.209087
H214	H	0.384130	0.379867	0.142242
H215	H	0.323704	0.379642	0.199862
H216	H	0.147711	0.247946	-0.000231
H217	H	0.943246	-0.355575	-0.000304
H218	H	0.177792	-0.029838	-0.000249
