data_functionalizedCrystal
_audit_creation_method	'MofGen! by Chris Wilmer'
_symmetry_space_group_name_H-M	'P1'
_symmetry_Int_Tables_number	1
_symmetry_cell_setting	triclinic
loop_
_symmetry_equiv_pos_as_xyz
  x,y,z
_cell_length_a	6.817900
_cell_length_b	13.466082
_cell_length_c	12.908943
_cell_angle_alpha	94.181716
_cell_angle_beta	100.860631
_cell_angle_gamma	111.116375
loop_
_atom_site_label
_atom_site_type_symbol
_atom_site_fract_x
_atom_site_fract_y
_atom_site_fract_z
V1	V	-4.035857	-0.146102	-0.329636
O2	O	-3.982033	0.008389	-0.322370
O3	O	-4.026901	-0.291013	-0.328334
O4	O	-3.973361	-0.143254	-0.472967
O5	O	-4.035944	-0.140392	-0.176736
V6	V	-4.516200	-0.127694	-0.311232
O7	O	-4.304090	-0.186482	-0.370006
O8	O	-4.698164	-0.087315	-0.270862
O9	O	-4.301949	0.017216	-0.312534
O10	O	-4.687421	-0.282186	-0.318497
O11	O	-4.633510	-0.133405	-0.464131
O12	O	-4.355490	-0.130542	-0.167901
C13	C	-3.881954	-0.326358	-0.323379
C14	C	-3.955825	-0.444820	-0.323270
C15	C	-3.813657	-0.137876	-0.507872
C16	C	-3.844104	-0.136506	-0.625052
C17	C	-3.728409	-0.656611	-0.312452
C18	C	-3.797808	-0.767916	-0.312349
C19	C	-4.164017	-0.778737	-0.322954
C20	C	-4.094618	-0.667432	-0.323057
C21	C	-3.876810	-0.606372	-0.317807
C22	C	-3.807416	-0.495066	-0.317918
C23	C	-4.173621	-0.505888	-0.328515
C24	C	-4.243019	-0.617193	-0.328412
C25	C	-4.267447	-0.144507	-0.856051
C26	C	-4.296064	-0.143221	-0.966152
C27	C	-3.929954	-0.132639	-0.955357
C28	C	-3.901337	-0.133926	-0.845255
C29	C	-4.070092	-0.139861	-0.795607
C30	C	-4.041477	-0.141155	-0.685504
C31	C	-3.675364	-0.130566	-0.674710
C32	C	-3.703982	-0.129280	-0.784811
C33	C	-4.110240	0.052555	-0.317485
C34	C	-4.015607	0.171016	-0.317601
C35	C	-4.178537	-0.135924	-0.132991
C36	C	-4.127327	-0.137289	-0.015809
H37	H	-3.630070	-0.445354	-0.313650
O38	O	-4.477932	-0.683054	-0.334074
H39	H	-4.526018	-0.653200	-0.264376
O40	O	-4.333728	-0.451718	-0.334320
H41	H	-4.408509	-0.464593	-0.264601
H42	H	-4.178891	-0.145993	-0.645083
H43	H	-3.514663	-0.126788	-0.625485
H44	H	-4.456767	-0.147004	-1.015362
H45	H	-3.676961	-0.808817	-0.307993
H46	H	-3.566591	-0.124444	-0.825250
O47	O	-3.748037	-0.126185	-1.008994
H48	H	-3.703706	-0.052413	-1.047151
O49	O	-3.493498	-0.590756	-0.306801
H50	H	-3.479523	-0.550884	-0.378858
H51	H	-4.341355	-0.828471	-0.327229
H52	H	-4.404862	-0.149351	-0.815628
