data_functionalizedCrystal
_audit_creation_method	'MofGen! by Chris Wilmer'
_symmetry_space_group_name_H-M	'P1'
_symmetry_Int_Tables_number	1
_symmetry_cell_setting	triclinic
loop_
_symmetry_equiv_pos_as_xyz
  x,y,z
_cell_length_a	14.519709
_cell_length_b	12.996460
_cell_length_c	14.519731
_cell_angle_alpha	90.007128
_cell_angle_beta	83.684499
_cell_angle_gamma	89.999966
loop_
_atom_site_label
_atom_site_type_symbol
_atom_site_fract_x
_atom_site_fract_y
_atom_site_fract_z
O1	O	1.223878	0.085435	0.120892
O2	O	1.473878	0.335435	0.370892
O3	O	1.723878	0.585435	0.620892
O4	O	1.973878	0.835435	0.870892
O5	O	0.955402	0.085467	0.135128
O6	O	1.205402	0.335467	0.385128
O7	O	1.455402	0.585467	0.635128
O8	O	1.705402	0.835467	0.885128
O9	O	1.096748	0.085441	-0.006227
O10	O	1.346748	0.335441	0.243773
O11	O	1.596748	0.585441	0.493773
O12	O	1.846748	0.835441	0.743773
O13	O	1.082532	0.085461	0.262247
O14	O	1.332532	0.335461	0.512247
O15	O	1.582532	0.585461	0.762247
O16	O	1.832532	0.835461	1.012247
O17	O	1.096733	-0.085693	-0.006235
O18	O	1.346733	0.164307	0.243765
O19	O	1.596733	0.414307	0.493765
O20	O	1.846733	0.664307	0.743765
O21	O	0.955387	-0.085667	0.135120
O22	O	1.205387	0.164333	0.385120
O23	O	1.455387	0.414333	0.635120
O24	O	1.705387	0.664333	0.885120
O25	O	1.223863	-0.085699	0.120884
O26	O	1.473863	0.164301	0.370884
O27	O	1.723863	0.414301	0.620884
O28	O	1.973863	0.664301	0.870884
Cu29	Cu	1.089624	-0.101309	0.128001
Cu30	Cu	1.339624	0.148691	0.378001
Cu31	Cu	1.589624	0.398691	0.628001
Cu32	Cu	1.839624	0.648691	0.878001
Cu33	Cu	1.089641	0.101077	0.128011
Cu34	Cu	1.339641	0.351077	0.378011
Cu35	Cu	1.589641	0.601077	0.628011
Cu36	Cu	1.839641	0.851077	0.878011
O37	O	1.082517	-0.085673	0.262239
O38	O	1.332517	0.164327	0.512239
O39	O	1.582517	0.414327	0.762239
O40	O	1.832517	0.664327	1.012239
C41	C	0.921035	-0.000096	0.134461
C42	C	1.171035	0.249904	0.384461
C43	C	1.421035	0.499904	0.634461
C44	C	1.671035	0.749904	0.884461
C45	C	0.818654	-0.000084	0.132473
C46	C	1.068654	0.249916	0.382473
C47	C	1.318654	0.499916	0.632473
C48	C	1.568654	0.749916	0.882473
N49	N	1.089618	-0.243656	0.127994
N50	N	1.339618	0.006344	0.377994
N51	N	1.589618	0.256344	0.627994
N52	N	1.839618	0.506344	0.877994
C53	C	0.443757	-0.000132	0.125153
C54	C	0.693757	0.249868	0.375153
C55	C	0.943757	0.499868	0.625153
C56	C	1.193757	0.749868	0.875153
C57	C	0.548065	-0.000118	0.127186
C58	C	0.798065	0.249882	0.377186
C59	C	1.048065	0.499882	0.627186
C60	C	1.298065	0.749882	0.877186
C61	C	0.631202	-0.000107	0.128813
C62	C	0.881202	0.249893	0.378813
C63	C	1.131202	0.499893	0.628813
C64	C	1.381202	0.749893	0.878813
C65	C	0.735517	-0.000095	0.130846
C66	C	0.985517	0.249905	0.380846
C67	C	1.235517	0.499905	0.630846
C68	C	1.485517	0.749905	0.880846
C69	C	1.089640	-0.663470	0.128012
C70	C	1.339640	-0.413470	0.378012
C71	C	1.589640	-0.163470	0.628012
C72	C	1.839640	0.086530	0.878012
C73	C	1.089631	-0.546665	0.128010
C74	C	1.339631	-0.296665	0.378010
C75	C	1.589631	-0.046665	0.628010
C76	C	1.839631	0.203335	0.878010
C77	C	1.089630	-0.453567	0.128004
C78	C	1.339630	-0.203567	0.378004
C79	C	1.589630	0.046433	0.628004
C80	C	1.839630	0.296433	0.878004
C81	C	1.089620	-0.336754	0.128001
C82	C	1.339620	-0.086754	0.378001
C83	C	1.589620	0.163246	0.628001
C84	C	1.839620	0.413246	0.878001
C85	C	1.258230	-0.000133	0.121551
C86	C	1.508230	0.249867	0.371551
C87	C	1.758230	0.499867	0.621551
C88	C	2.008230	0.749867	0.871551
C89	C	1.360612	-0.000138	0.123539
C90	C	1.610612	0.249862	0.373539
C91	C	1.860612	0.499862	0.623539
C92	C	2.110612	0.749862	0.873539
C93	C	1.096075	-0.000126	-0.040591
C94	C	1.346075	0.249874	0.209409
C95	C	1.596075	0.499874	0.459409
C96	C	1.846075	0.749874	0.709409
C97	C	1.094079	-0.000127	-0.142971
C98	C	1.344079	0.249873	0.107029
C99	C	1.594079	0.499873	0.357029
C100	C	1.844079	0.749873	0.607029
N101	N	1.089654	0.243424	0.128010
N102	N	1.339654	0.493424	0.378010
N103	N	1.589654	0.743424	0.628010
N104	N	1.839654	0.993424	0.878010
C105	C	1.092457	-0.000124	-0.226115
C106	C	1.342457	0.249876	0.023885
C107	C	1.592457	0.499876	0.273885
C108	C	1.842457	0.749876	0.523885
C109	C	1.090430	-0.000116	-0.330424
C110	C	1.340430	0.249884	-0.080424
C111	C	1.590430	0.499884	0.169576
C112	C	1.840430	0.749884	0.419576
C113	C	1.088822	-0.000109	-0.413563
C114	C	1.338822	0.249891	-0.163563
C115	C	1.588822	0.499891	0.086437
C116	C	1.838822	0.749891	0.336437
C117	C	1.086795	-0.000103	-0.517878
C118	C	1.336795	0.249897	-0.267878
C119	C	1.586795	0.499897	-0.017878
C120	C	1.836795	0.749897	0.232122
C121	C	1.083191	-0.000103	0.296603
C122	C	1.333191	0.249897	0.546603
C123	C	1.583191	0.499897	0.796603
C124	C	1.833191	0.749897	1.046603
C125	C	1.085187	-0.000096	0.398983
C126	C	1.335187	0.249904	0.648983
C127	C	1.585187	0.499904	0.898983
C128	C	1.835187	0.749904	1.148983
