data_functionalizedCrystal
_audit_creation_method	'MofGen! by Chris Wilmer'
_symmetry_space_group_name_H-M	'P1'
_symmetry_Int_Tables_number	1
_symmetry_cell_setting	triclinic
loop_
_symmetry_equiv_pos_as_xyz
  x,y,z
_cell_length_a	8.597213
_cell_length_b	14.853559
_cell_length_c	7.681481
_cell_angle_alpha	84.252160
_cell_angle_beta	88.167023
_cell_angle_gamma	84.486962
loop_
_atom_site_label
_atom_site_type_symbol
_atom_site_fract_x
_atom_site_fract_y
_atom_site_fract_z
O1	O	2.036662	0.160704	-0.455398
O2	O	1.586653	0.167108	-0.387130
O3	O	1.823685	0.032880	-0.423087
O4	O	1.799630	0.294933	-0.419441
O5	O	1.852860	0.016320	-0.134655
O6	O	1.615828	0.150549	-0.098698
O7	O	2.065837	0.144145	-0.166965
Zn8	Zn	1.845464	0.144717	-0.087037
Zn9	Zn	1.807026	0.166536	-0.467059
O10	O	1.828805	0.278373	-0.131009
C11	C	1.543650	0.157218	-0.234178
C12	C	1.372048	0.152410	-0.208146
C13	C	1.837185	-0.009007	-0.278709
C14	C	1.833925	-0.109146	-0.278224
C15	C	1.804195	-0.523528	-0.433351
C16	C	1.836003	-0.541577	-0.118891
C17	C	1.839078	-0.447492	-0.119356
C18	C	1.824709	-0.391420	-0.276821
C19	C	1.807266	-0.429434	-0.433820
C20	C	1.856505	-0.409470	0.037643
C21	C	1.859579	-0.315380	0.037184
C22	C	1.845222	-0.259307	-0.120284
C23	C	1.827779	-0.297326	-0.277290
C24	C	1.813411	-0.241254	-0.434754
C25	C	1.795979	-0.279272	-0.591764
C26	C	1.792908	-0.373361	-0.591289
C27	C	1.848293	-0.165218	-0.120760
C28	C	1.816481	-0.147160	-0.435224
C29	C	2.108840	0.154035	-0.319922
C30	C	2.280440	0.158844	-0.345965
C31	C	1.815305	0.320261	-0.275391
C32	C	1.818564	0.420400	-0.275887
N33	N	1.871709	0.129826	0.172316
N34	N	1.780793	0.181420	-0.726414
H35	H	1.319189	0.143225	-0.070234
H36	H	1.333290	0.168038	-0.483867
H37	H	1.873779	-0.284434	0.165030
Cl38	Cl	1.798428	-0.076677	-0.633193
H39	H	1.868195	-0.455130	0.165843
H40	H	1.847691	-0.587235	0.009310
Cl41	Cl	1.637501	0.262726	0.179227
H42	H	1.784269	-0.233605	-0.719970
H43	H	1.778714	-0.404324	-0.719117
Cl44	Cl	1.782298	-0.571320	-0.630727
H45	H	1.964534	0.077169	0.233441
H46	H	1.862451	-0.134266	0.007080
