data_functionalizedCrystal
_audit_creation_method	'MofGen! by Chris Wilmer'
_symmetry_space_group_name_H-M	'P1'
_symmetry_Int_Tables_number	1
_symmetry_cell_setting	triclinic
loop_
_symmetry_equiv_pos_as_xyz
  x,y,z
_cell_length_a	6.817900
_cell_length_b	9.514072
_cell_length_c	16.255661
_cell_angle_alpha	91.323020
_cell_angle_beta	103.488922
_cell_angle_gamma	118.843421
loop_
_atom_site_label
_atom_site_type_symbol
_atom_site_fract_x
_atom_site_fract_y
_atom_site_fract_z
V1	V	-4.111881	-0.223505	-0.264538
O2	O	-4.010606	0.009405	-0.258820
O3	O	-4.146651	-0.441889	-0.263385
O4	O	-4.062356	-0.220653	-0.379613
O5	O	-4.095485	-0.213362	-0.141788
V6	V	-4.584878	-0.195577	-0.249776
O7	O	-4.396230	-0.284767	-0.296919
O8	O	-4.750727	-0.134315	-0.217395
O9	O	-4.326902	0.022807	-0.250929
O10	O	-4.803550	-0.428487	-0.255494
O11	O	-4.718672	-0.205720	-0.372527
O12	O	-4.411196	-0.198429	-0.134702
C13	C	-4.011921	-0.495108	-0.259381
C14	C	-4.121629	-0.673643	-0.259205
C15	C	-3.904393	-0.212897	-0.407640
C16	C	-3.945735	-0.212010	-0.501719
C17	C	-3.852254	-0.201415	-0.724506
C18	C	-4.060779	-0.338160	-0.794390
C19	C	-4.021486	-0.210347	-0.673962
C20	C	-3.886655	-0.072037	-0.771711
C21	C	-4.094639	-0.208733	-0.840341
C22	C	-4.229538	-0.347214	-0.742617
C23	C	-4.055307	-0.080971	-0.719922
C24	C	-4.263983	-0.217754	-0.789787
C25	C	-3.979340	-0.211278	-0.578116
C26	C	-4.136807	-0.207815	-0.936187
C27	C	-4.124977	0.076017	-0.254931
C28	C	-3.994508	0.254551	-0.255112
C29	C	-4.232504	-0.206190	-0.106670
C30	C	-4.170397	-0.207069	-0.012590
H31	H	-3.801719	-0.670327	-0.251700
C32	C	-4.406076	-0.850093	-0.190834
C33	C	-4.381902	-0.775047	-0.263803
H34	H	-4.566756	-0.912701	-0.193676
H35	H	-4.326869	-0.769433	-0.141092
H36	H	-4.341028	-0.919063	-0.188259
H37	H	-4.446935	-0.706068	-0.266375
H38	H	-4.461140	-0.855717	-0.313559
C39	C	-3.579403	-0.191841	-0.597547
C40	C	-3.616934	-0.192323	-0.686017
H41	H	-3.434128	-0.186225	-0.573786
H42	H	-3.701189	-0.288625	-0.587046
H43	H	-3.577402	-0.100326	-0.571807
H44	H	-3.618952	-0.283846	-0.711758
H45	H	-3.495116	-0.095528	-0.696524
H46	H	-4.063540	-0.446895	-0.826800
C47	C	-4.383882	-0.503857	-0.636369
C48	C	-4.424713	-0.504389	-0.724915
H49	H	-4.504361	-0.600897	-0.625442
H50	H	-4.381678	-0.412632	-0.610178
H51	H	-4.237927	-0.497711	-0.613441
H52	H	-4.570661	-0.510524	-0.747842
H53	H	-4.426940	-0.595640	-0.751116
H54	H	-4.438502	-0.224699	-0.818154
H55	H	-3.742117	0.044227	-0.784974
C56	C	-3.871203	0.209739	-0.690257
C57	C	-4.051465	0.065820	-0.676127
H58	H	-3.868808	0.300369	-0.663212
H59	H	-3.896232	0.211957	-0.750077
H60	H	-3.726308	0.214506	-0.667050
H61	H	-4.196363	0.061047	-0.699340
H62	H	-4.026452	0.063601	-0.616295
