data_functionalizedCrystal
_audit_creation_method	'MofGen! by Chris Wilmer'
_symmetry_space_group_name_H-M	'P1'
_symmetry_Int_Tables_number	1
_symmetry_cell_setting	triclinic
loop_
_symmetry_equiv_pos_as_xyz
  x,y,z
_cell_length_a	15.297327
_cell_length_b	19.077241
_cell_length_c	19.076919
_cell_angle_alpha	89.886096
_cell_angle_beta	78.489658
_cell_angle_gamma	77.647063
loop_
_atom_site_label
_atom_site_type_symbol
_atom_site_fract_x
_atom_site_fract_y
_atom_site_fract_z
Zn1	Zn	-0.332118	-1.011713	0.483504
Zn2	Zn	0.167882	-0.511713	0.983504
Zn3	Zn	-0.478730	-0.995791	0.384952
Zn4	Zn	0.021270	-0.495791	0.884952
Zn5	Zn	-0.331635	-0.898996	0.361219
Zn6	Zn	0.168365	-0.398996	0.861219
Zn7	Zn	-0.490932	-0.871899	0.499265
Zn8	Zn	0.009068	-0.371899	0.999265
O9	O	-0.408354	-0.944600	0.432235
O10	O	0.091646	-0.444600	0.932235
O11	O	-0.346661	-1.108622	0.473767
O12	O	0.153339	-0.608622	0.973767
O13	O	-0.453909	-0.987628	0.282787
O14	O	0.046091	-0.487628	0.782787
O15	O	-0.203675	-0.931952	0.360911
O16	O	0.296325	-0.431952	0.860911
O17	O	-0.454376	-1.096925	0.401361
O18	O	0.045624	-0.596925	0.901361
O19	O	-0.204030	-1.014764	0.450754
O20	O	0.295970	-0.514764	0.950754
O21	O	-0.345839	-0.916513	0.265350
O22	O	0.154161	-0.416513	0.765350
O23	O	-0.357672	-0.796380	0.376195
O24	O	0.142328	-0.296380	0.876195
O25	O	-0.475174	-0.885769	0.596191
O26	O	0.024826	-0.385769	1.096191
O27	O	-0.474706	-0.776472	0.477617
O28	O	0.025294	-0.276472	0.977617
O29	O	-0.358493	-0.988489	0.584611
O30	O	0.141507	-0.488489	1.084611
O31	O	-0.608372	-0.961354	0.416645
O32	O	-0.108372	-0.461354	0.916645
O33	O	-0.617338	-0.870331	0.500630
O34	O	-0.117338	-0.370331	1.000630
C35	C	-0.417461	-0.760751	0.426041
C36	C	0.082539	-0.260751	0.926041
C37	C	-0.421381	-0.682096	0.423411
C38	C	0.078619	-0.182096	0.923411
C39	C	-0.367237	-0.651218	0.459954
C40	C	0.132763	-0.151218	0.959954
C41	C	-0.370915	-0.577314	0.457477
C42	C	0.129085	-0.077314	0.957477
C43	C	-0.428742	-0.534288	0.418459
C44	C	0.071258	-0.034288	0.918459
C45	C	-0.482888	-0.565171	0.381912
C46	C	0.017112	-0.065171	0.881912
C47	C	-0.479204	-0.639074	0.384386
C48	C	0.020796	-0.139074	0.884386
C49	C	-0.445756	-0.312608	0.407005
C50	C	0.054244	0.187392	0.907005
C51	C	-0.449438	-0.238700	0.404535
C52	C	0.050562	0.261300	0.904535
C53	C	-0.337463	-0.250848	0.480099
C54	C	0.162537	0.249152	0.980099
C55	C	-0.333789	-0.324752	0.482573
C56	C	0.166211	0.175248	0.982573
C57	C	-0.387931	-0.355629	0.446023
C58	C	0.112069	0.144371	0.946023
N59	N	-0.432505	-0.458745	0.415927
N60	N	0.067495	0.041255	0.915927
N61	N	-0.384163	-0.431171	0.448551
N62	N	0.115837	0.068829	0.948551
C63	C	-0.646050	-0.911193	0.462939
C64	C	-0.146050	-0.411193	0.962939
C65	C	-0.747736	-0.896964	0.476100
C66	C	-0.247736	-0.396964	0.976100
C67	C	-1.015573	-1.046571	0.338421
C68	C	-0.515573	-0.546571	0.838421
C69	C	-0.920034	-1.059939	0.326051
C70	C	-0.420034	-0.559939	0.826051
C71	C	-0.876955	-1.019197	0.363563
C72	C	-0.376955	-0.519197	0.863563
C73	C	-0.929424	-0.965084	0.413445
C74	C	-0.429424	-0.465084	0.913445
C75	C	-1.024972	-0.951711	0.425812
C76	C	-0.524972	-0.451711	0.925812
C77	C	-0.886354	-0.924336	0.450954
C78	C	-0.386354	-0.424336	0.950954
C79	C	-0.938822	-0.870223	0.500836
C80	C	-0.438822	-0.370223	1.000836
C81	C	-1.034361	-0.856853	0.513201
C82	C	-0.534361	-0.356853	1.013201
C83	C	-1.077440	-0.897596	0.475689
C84	C	-0.577440	-0.397596	0.975689
C85	C	-0.790805	-0.937709	0.438587
C86	C	-0.290805	-0.437709	0.938587
C87	C	-0.800204	-0.842849	0.525978
C88	C	-0.300204	-0.342849	1.025978
C89	C	-0.895743	-0.829481	0.538347
C90	C	-0.395743	-0.329481	1.038347
C91	C	-0.169729	-0.978156	0.401427
C92	C	0.330271	-0.478156	0.901427
C93	C	-0.068042	-0.992456	0.388298
C94	C	0.431958	-0.492456	0.888298
C95	C	-0.418248	-0.935883	0.616793
C96	C	0.081752	-0.435883	1.116793
C97	C	-0.422465	-0.932168	0.695441
C98	C	0.077535	-0.432168	1.195441
C99	C	-0.399206	-0.129168	0.438447
C100	C	0.100794	0.370832	0.938447
C101	C	-0.395294	-0.207822	0.441078
C102	C	0.104706	0.292178	0.941078
C103	C	-0.398430	-0.953333	0.248387
C104	C	0.101570	-0.453333	0.748387
C105	C	-0.393948	-0.957221	0.169711
C106	C	0.106052	-0.457221	0.669711
C107	C	-0.363699	-0.983901	0.726362
C108	C	0.136301	-0.483901	1.226362
C109	C	-0.367658	-0.980402	0.800260
C110	C	0.132342	-0.480402	1.300260
C111	C	-0.430388	-0.925173	0.843235
C112	C	0.069612	-0.425173	1.343235
C113	C	-0.489156	-0.873435	0.812309
C114	C	0.010844	-0.373435	1.312309
C115	C	-0.485192	-0.876931	0.738412
C116	C	0.014808	-0.376931	1.238412
C117	C	-0.448753	-0.908979	1.064888
C118	C	0.051247	-0.408979	1.564888
C119	C	-0.452714	-0.905488	1.138790
C120	C	0.047286	-0.405488	1.638790
C121	C	-0.331215	-1.012455	1.126736
C122	C	0.168785	-0.512455	1.626736
C123	C	-0.327260	-1.015949	1.052839
C124	C	0.172740	-0.515949	1.552839
C125	C	-0.386025	-0.964209	1.021918
C126	C	0.113975	-0.464209	1.521918
N127	N	-0.434438	-0.921597	0.918770
N128	N	0.065562	-0.421597	1.418770
N129	N	-0.381970	-0.967783	0.946384
N130	N	0.118030	-0.467783	1.446384
H131	H	-0.496532	-0.203669	0.372763
H132	H	0.003468	0.296331	0.872763
H133	H	-0.276182	-1.060924	1.017853
H134	H	0.223818	-0.560924	1.517853
C135	C	-1.092079	-0.797331	0.568068
C136	C	-0.592079	-0.297331	1.068068
H137	H	-1.155149	-0.795199	0.570057
H138	H	-0.655149	-0.295199	1.070057
H139	H	-1.078423	-0.807602	0.613934
H140	H	-0.578423	-0.307602	1.113934
H141	H	-1.078280	-0.752465	0.554054
H142	H	-0.578280	-0.252465	1.054054
C143	C	-0.505314	-0.346564	0.366804
C144	C	-0.005314	0.153436	0.866804
H145	H	-0.540286	-0.310352	0.343219
H146	H	-0.040286	0.189648	0.843219
H147	H	-0.467169	-0.381765	0.332452
H148	H	0.032831	0.118235	0.832452
H149	H	-0.545247	-0.368516	0.399943
H150	H	-0.045247	0.131484	0.899943
C151	C	-0.953461	-0.769958	0.593214
C152	C	-0.453461	-0.269958	1.093214
H153	H	-0.914127	-0.747609	0.613789
H154	H	-0.414127	-0.247609	1.113789
H155	H	-0.990858	-0.735205	0.569916
H156	H	-0.490858	-0.235205	1.069916
H157	H	-0.990996	-0.790344	0.629795
H158	H	-0.490996	-0.290344	1.129795
C159	C	-0.752832	-0.798029	0.567246
C160	C	-0.252832	-0.298029	1.067246
H161	H	-0.797763	-0.763880	0.598717
H162	H	-0.297763	-0.263880	1.098717
H163	H	-0.715828	-0.828838	0.594178
H164	H	-0.215828	-0.328838	1.094178
H165	H	-0.715683	-0.773706	0.534293
H166	H	-0.215683	-0.273706	1.034293
H167	H	-0.799162	-1.030084	0.353488
H168	H	-0.299162	-0.530084	0.853488
C169	C	-0.558158	-0.812685	0.859580
C170	C	-0.058158	-0.312685	1.359580
H171	H	-0.552110	-0.818015	0.908020
H172	H	-0.052110	-0.318015	1.408020
H173	H	-0.546476	-0.767596	0.844137
H174	H	-0.046476	-0.267596	1.344137
H175	H	-0.618467	-0.814975	0.855753
H176	H	-0.118467	-0.314975	1.355753
C177	C	-0.546497	-0.517844	0.338995
C178	C	-0.046497	-0.017844	0.838995
H179	H	-0.540944	-0.469406	0.342761
H180	H	-0.040944	0.030594	0.842761
H181	H	-0.529864	-0.534084	0.290133
H182	H	-0.029864	-0.034084	0.790133
H183	H	-0.607937	-0.520838	0.357627
H184	H	-0.107937	-0.020838	0.857627
H185	H	-0.286704	-0.359779	0.514348
H186	H	0.213296	0.140221	1.014348
H187	H	-0.503798	-0.860511	1.173780
H188	H	-0.003798	-0.360511	1.673780
H189	H	-0.312621	-1.028877	0.691377
H190	H	0.187379	-0.528877	1.191377
C191	C	-1.062956	-1.091379	0.297160
C192	C	-0.562956	-0.591379	0.797160
H193	H	-1.018027	-1.125520	0.265678
H194	H	-0.518027	-0.625520	0.765678
H195	H	-1.100110	-1.115698	0.330104
H196	H	-0.600110	-0.615698	0.830104
H197	H	-1.099954	-1.060560	0.270225
H198	H	-0.599954	-0.560560	0.770225
C199	C	-0.538770	-0.673039	0.344195
C200	C	-0.038770	-0.173039	0.844195
H201	H	-0.573745	-0.636829	0.320610
H202	H	-0.073745	-0.136829	0.820610
H203	H	-0.500629	-0.708243	0.309846
H204	H	-0.000629	-0.208243	0.809846
H205	H	-0.578700	-0.694988	0.377341
H206	H	-0.078700	-0.194988	0.877341
H207	H	-0.326827	-0.552176	0.487235
H208	H	0.173173	-0.052176	0.987235
H209	H	-0.319807	-1.022530	0.825432
H210	H	0.180193	-0.522530	1.325432
C211	C	-0.862325	-1.119462	0.271190
C212	C	-0.362325	-0.619462	0.771190
H213	H	-0.901663	-1.141817	0.250626
H214	H	-0.401663	-0.641817	0.750626
H215	H	-0.824784	-1.099087	0.234609
H216	H	-0.324784	-0.599087	0.734609
H217	H	-0.824934	-1.154218	0.294496
H218	H	-0.324934	-0.654218	0.794496
H219	H	-0.748094	-0.981769	0.397972
H220	H	-0.248094	-0.481769	0.897972
H221	H	-0.283371	-1.054579	1.151919
H222	H	0.216629	-0.554579	1.651919
H223	H	-1.155236	-0.886716	0.485760
H224	H	-0.655236	-0.386716	0.985760
H225	H	-0.496616	-0.866857	1.039724
H226	H	0.003384	-0.366857	1.539724
H227	H	-0.293382	-0.225700	0.509856
H228	H	0.206618	0.274300	1.009856
H229	H	-0.533036	-0.834799	0.713236
H230	H	-0.033036	-0.334799	1.213236
H231	H	-0.320150	-0.686244	0.491729
H232	H	0.179850	-0.186244	0.991729
