data_functionalizedCrystal
_audit_creation_method	'MofGen! by Chris Wilmer'
_symmetry_space_group_name_H-M	'P1'
_symmetry_Int_Tables_number	1
_symmetry_cell_setting	triclinic
loop_
_symmetry_equiv_pos_as_xyz
  x,y,z
_cell_length_a	13.339070
_cell_length_b	12.376457
_cell_length_c	13.261948
_cell_angle_alpha	94.200613
_cell_angle_beta	99.426992
_cell_angle_gamma	104.410245
loop_
_atom_site_label
_atom_site_type_symbol
_atom_site_fract_x
_atom_site_fract_y
_atom_site_fract_z
O1	O	1.394787	0.244485	0.489198
O2	O	1.095792	0.224174	0.423173
O3	O	1.243609	0.190093	0.312360
O4	O	1.246970	0.278566	0.600011
O5	O	1.206665	0.010586	0.340015
O6	O	1.058848	0.044667	0.450827
O7	O	1.357843	0.064978	0.516853
Zn8	Zn	1.202480	0.026322	0.488231
Zn9	Zn	1.251155	0.262830	0.451795
O10	O	1.210026	0.099059	0.627665
C11	C	1.038876	0.130990	0.425847
C12	C	0.924325	0.120764	0.392603
N13	N	1.169268	-0.135088	0.513099
C14	C	0.577026	0.200286	0.651093
C15	C	0.684653	0.209898	0.682330
C16	C	0.744576	0.187615	0.609901
C17	C	0.696862	0.155719	0.506229
C18	C	0.589225	0.146114	0.474987
C19	C	0.756776	0.133443	0.433795
C20	C	0.709061	0.101547	0.330123
C21	C	0.601436	0.091943	0.298887
C22	C	0.541512	0.114226	0.371316
C23	C	0.864412	0.143048	0.465037
C24	C	0.876612	0.088876	0.288931
C25	C	0.768984	0.079264	0.257694
C26	C	1.361469	-0.534337	0.369175
C27	C	1.384708	-0.421351	0.351768
C28	C	1.330850	-0.349780	0.392099
C29	C	1.253749	-0.391206	0.449840
C30	C	1.230513	-0.504201	0.467256
C31	C	1.199894	-0.319644	0.490180
C32	C	1.122793	-0.361069	0.547921
C33	C	1.099561	-0.474054	0.565333
C34	C	1.153419	-0.545625	0.525002
C35	C	1.223130	-0.206648	0.472764
C36	C	1.092174	-0.176512	0.570845
C37	C	1.068935	-0.289498	0.588252
C38	C	1.414760	0.158165	0.514178
C39	C	1.529313	0.168398	0.547422
C40	C	1.221930	0.088787	0.288619
C41	C	1.212361	0.054363	0.176673
N42	N	1.284375	0.424238	0.426921
C43	C	1.187715	-0.059660	0.139134
C44	C	1.178716	-0.091986	0.033950
C45	C	1.194355	-0.010293	-0.033704
C46	C	1.218995	0.103732	0.003834
C47	C	1.228002	0.136062	0.109028
C48	C	1.234643	0.185429	-0.063810
C49	C	1.259282	0.299454	-0.026271
C50	C	1.268287	0.331778	0.078913
C51	C	1.252649	0.250085	0.146568
C52	C	1.225635	0.153100	-0.169004
C53	C	1.265922	0.348822	-0.199109
C54	C	1.274921	0.381148	-0.093926
C55	C	1.231706	0.200368	0.651406
C56	C	1.241276	0.234799	0.763351
H57	H	0.832211	0.195446	0.635341
H58	H	0.562592	0.065983	0.214468
H59	H	0.528229	0.218435	0.710052
H60	H	1.036789	-0.507779	0.612359
H61	H	1.134495	-0.637630	0.539171
H62	H	1.006158	-0.323241	0.635267
H63	H	0.903249	0.169014	0.549448
H64	H	1.405319	-0.592615	0.336349
H65	H	1.187027	-0.036619	-0.119349
H66	H	1.048320	-0.118238	0.603689
H67	H	0.723496	0.235876	0.766739
H68	H	1.205572	0.060260	-0.199557
H69	H	1.259975	0.276399	0.232218
H70	H	1.447484	-0.387626	0.304756
H71	H	1.158659	-0.184825	0.003395
O72	O	1.172353	-0.138965	0.204872
C73	C	1.087942	-0.130080	0.253639
H74	H	1.034845	-0.087093	0.204301
H75	H	1.040543	-0.217598	0.263804
H76	H	1.120179	-0.078368	0.332245
O77	O	0.722640	0.048095	0.157006
C78	C	0.733535	-0.058990	0.125384
H79	H	0.746180	-0.105485	0.195500
H80	H	0.659094	-0.108796	0.069710
H81	H	0.804138	-0.049284	0.085371
O82	O	1.281302	0.428239	-0.264751
C83	C	1.384184	0.499686	-0.235197
H84	H	1.436690	0.454109	-0.188390
H85	H	1.417079	0.524156	-0.306842
H86	H	1.381979	0.578565	-0.186465
O87	O	0.934953	0.067221	0.218705
C88	C	1.040186	0.082562	0.268505
H89	H	1.042642	0.073162	0.353679
H90	H	1.074263	0.016801	0.232174
H91	H	1.088746	0.170123	0.259933
O92	O	1.292020	0.442559	0.115250
C93	C	1.213615	0.490122	0.067313
H94	H	1.137562	0.421144	0.038162
H95	H	1.198963	0.554463	0.125246
H96	H	1.240920	0.533222	-0.000228
O97	O	0.436999	0.105000	0.340827
C98	C	0.423520	0.179925	0.267792
H99	H	0.495485	0.200643	0.229600
H100	H	0.350207	0.139278	0.206831
H101	H	0.413970	0.260440	0.307885
O102	O	1.297884	-0.166562	0.416490
C103	C	1.268698	-0.226213	0.316861
H104	H	1.179751	-0.264353	0.298598
H105	H	1.292431	-0.166446	0.258260
H106	H	1.310312	-0.296074	0.313160
O107	O	1.353514	-0.240069	0.375051
C108	C	1.433130	-0.218846	0.315460
H109	H	1.433684	-0.300828	0.270650
H110	H	1.417166	-0.156956	0.259298
H111	H	1.512916	-0.181591	0.368242
O112	O	1.298681	0.491915	-0.057533
C113	C	1.220312	0.539560	-0.105411
H114	H	1.144239	0.470623	-0.134608
H115	H	1.205685	0.603864	-0.047425
H116	H	1.247641	0.582721	-0.172914
