data_functionalizedCrystal
_audit_creation_method	'MofGen! by Chris Wilmer'
_symmetry_space_group_name_H-M	'P1'
_symmetry_Int_Tables_number	1
_symmetry_cell_setting	triclinic
loop_
_symmetry_equiv_pos_as_xyz
  x,y,z
_cell_length_a	15.944499
_cell_length_b	17.019294
_cell_length_c	15.021413
_cell_angle_alpha	86.125043
_cell_angle_beta	89.990095
_cell_angle_gamma	83.435652
loop_
_atom_site_label
_atom_site_type_symbol
_atom_site_fract_x
_atom_site_fract_y
_atom_site_fract_z
O1	O	1.114429	0.101532	-0.081868
O2	O	0.869857	0.114118	-0.082822
O3	O	0.998965	-0.007007	-0.073538
O4	O	0.985321	0.222658	-0.091152
O5	O	0.998945	-0.006990	0.074525
O6	O	0.869837	0.114136	0.065241
O7	O	1.114408	0.101550	0.066195
Zn8	Zn	0.992119	0.107845	0.089226
Zn9	Zn	0.992146	0.107823	-0.105853
O10	O	0.985300	0.222675	0.056911
C11	C	0.838553	0.113612	-0.008750
C12	C	0.745307	0.112067	-0.008628
C13	C	0.453683	0.182437	-0.014038
C14	C	0.514768	0.145848	-0.084237
C15	C	0.409677	0.106454	-0.008218
C16	C	0.514733	0.145845	0.061743
C17	C	0.574582	0.109216	-0.008418
C18	C	0.469534	0.069844	-0.078475
C19	C	0.469493	0.069852	0.067569
C20	C	0.530561	0.033207	-0.002643
C21	C	0.314679	0.104866	-0.008103
C22	C	0.669579	0.110799	-0.008538
C23	C	0.998437	-0.036387	0.002746
C24	C	0.996885	-0.123957	0.009457
C25	C	0.996168	-0.165102	-0.068099
C26	C	0.994704	-0.247382	-0.061791
C27	C	0.993962	-0.288516	0.022074
C28	C	0.994676	-0.247364	0.099635
C29	C	0.996134	-0.165085	0.093326
C30	C	0.989553	-0.536945	0.045161
C31	C	0.988097	-0.619230	0.051464
C32	C	0.988124	-0.619242	-0.109963
C33	C	0.989587	-0.536961	-0.116264
C34	C	0.990296	-0.495817	-0.038703
C35	C	0.992468	-0.372619	0.028524
C36	C	0.991784	-0.411714	-0.045154
C37	C	1.145713	0.102056	-0.007879
C38	C	1.238959	0.103601	-0.008007
C39	C	0.985828	0.252055	-0.019375
C40	C	0.987381	0.339624	-0.026091
N41	N	0.992107	0.107860	0.222363
N42	N	0.992165	0.107801	-0.238989
C43	C	0.932398	0.163842	0.457755
C44	C	1.008281	0.179144	0.515913
C45	C	0.992128	0.107841	0.403971
C46	C	0.916266	0.092557	0.522554
C47	C	0.992142	0.107824	0.579396
C48	C	1.068050	0.123177	0.460820
C49	C	0.975984	0.036560	0.467458
C50	C	1.051922	0.051831	0.525591
C51	C	0.992119	0.107853	0.302913
C52	C	0.992160	0.107811	0.680453
H53	H	0.996777	-0.131617	-0.136391
F54	F	0.991675	-0.416404	0.117777
F55	F	0.993877	-0.291143	0.188891
F56	F	0.540988	0.187844	-0.168132
F57	F	0.574037	-0.049285	0.003632
H58	H	0.990147	-0.503457	0.108318
H59	H	0.449408	0.037747	0.131754
H60	H	1.132225	0.136169	0.433847
H61	H	0.852105	0.079638	0.549632
F62	F	0.866443	0.225792	0.418998
F63	F	0.410012	0.264858	-0.020449
H64	H	0.996706	-0.131584	0.156481
F65	F	0.958090	-0.042196	0.439372
H66	H	0.449604	0.037729	-0.137802
H67	H	1.021949	0.239416	0.537376
H68	H	0.534760	0.178003	0.120994
F69	F	0.993943	-0.291168	-0.144337
F70	F	0.992576	-0.367935	-0.134406
F71	F	1.118022	-0.010083	0.564133
H72	H	0.990192	-0.503476	-0.184556
H73	H	0.987545	-0.652750	-0.173109
F74	F	0.987312	-0.663007	0.140729
