data_functionalizedCrystal
_audit_creation_method	'MofGen! by Chris Wilmer'
_symmetry_space_group_name_H-M	'P1'
_symmetry_Int_Tables_number	1
_symmetry_cell_setting	triclinic
loop_
_symmetry_equiv_pos_as_xyz
  x,y,z
_cell_length_a	14.519731
_cell_length_b	14.519709
_cell_length_c	9.798715
_cell_angle_alpha	89.995905
_cell_angle_beta	89.996220
_cell_angle_gamma	83.684499
loop_
_atom_site_label
_atom_site_type_symbol
_atom_site_fract_x
_atom_site_fract_y
_atom_site_fract_z
O1	O	1.223855	0.120983	-0.113497
O2	O	1.723855	0.620983	0.386503
O3	O	0.955380	0.135199	-0.113499
O4	O	1.455380	0.635199	0.386501
O5	O	1.096736	-0.006147	-0.113486
O6	O	1.596736	0.493853	0.386514
O7	O	1.082499	0.262329	-0.113511
O8	O	1.582499	0.762329	0.386489
O9	O	1.096725	-0.006147	0.113496
O10	O	1.596725	0.493853	0.613496
O11	O	0.955370	0.135198	0.113483
O12	O	1.455370	0.635198	0.613483
O13	O	1.223844	0.120982	0.113485
O14	O	1.723844	0.620982	0.613485
Zn15	Zn	1.089605	0.128090	0.149522
Zn16	Zn	1.589605	0.628090	0.649522
Zn17	Zn	1.089619	0.128091	-0.149536
Zn18	Zn	1.589619	0.628091	0.350464
O19	O	1.082489	0.262328	0.113472
O20	O	1.582489	0.762328	0.613472
C21	C	0.921016	0.134532	-0.000008
C22	C	1.421016	0.634532	0.499992
C23	C	0.818635	0.132536	-0.000009
C24	C	1.318635	0.632536	0.499991
C25	C	0.735491	0.130915	-0.000014
C26	C	1.235491	0.630915	0.499986
C27	C	0.631182	0.128888	-0.000015
C28	C	1.131182	0.628888	0.499985
C29	C	0.548043	0.127280	-0.000014
C30	C	1.048043	0.627280	0.499986
C31	C	0.443728	0.125253	-0.000017
C32	C	0.943728	0.625253	0.499983
C33	C	1.096067	-0.040507	0.000006
C34	C	1.596067	0.459493	0.500006
C35	C	1.094079	-0.142889	0.000006
C36	C	1.594079	0.357111	0.500006
C37	C	1.086759	-0.517785	-0.000029
C38	C	1.586759	-0.017785	0.499971
C39	C	1.088792	-0.413477	-0.000019
C40	C	1.588792	0.086523	0.499981
C41	C	1.090419	-0.330340	-0.000010
C42	C	1.590419	0.169660	0.499990
C43	C	1.092452	-0.226025	-0.000002
C44	C	1.592452	0.273975	0.499998
C45	C	1.258209	0.121649	-0.000009
C46	C	1.758209	0.621649	0.499991
C47	C	1.360589	0.123645	-0.000017
C48	C	1.860589	0.623645	0.499983
C49	C	1.083157	0.296688	-0.000023
C50	C	1.583157	0.796688	0.499977
C51	C	1.085146	0.399070	-0.000032
C52	C	1.585146	0.899070	0.499968
N53	N	1.089603	0.128090	0.353622
N54	N	1.589603	0.628090	0.853622
N55	N	1.089629	0.128084	-0.353636
N56	N	1.589629	0.628084	0.146364
C57	C	1.148956	0.068483	0.421405
C58	C	1.648956	0.568483	0.921405
C59	C	1.148970	0.068479	0.578567
C60	C	1.648970	0.568479	1.078567
H61	H	1.199756	0.017449	0.363087
H62	H	1.699756	0.517449	0.863087
H63	H	1.199788	0.017450	0.636857
H64	H	1.699788	0.517450	1.136857
C65	C	1.020978	0.197033	0.567643
C66	C	1.520978	0.697033	1.067643
H67	H	0.983755	0.234432	0.630566
H68	H	1.483755	0.734432	1.130566
H69	H	0.982464	0.163855	0.511911
H70	H	1.482464	0.663855	1.011911
H71	H	1.054369	0.235364	0.511894
H72	H	1.554369	0.735364	1.011894
H73	H	1.038795	0.179116	0.411942
H74	H	1.538795	0.679116	0.911942
