data_functionalizedCrystal
_audit_creation_method	'MofGen! by Chris Wilmer'
_symmetry_space_group_name_H-M	'P1'
_symmetry_Int_Tables_number	1
_symmetry_cell_setting	triclinic
loop_
_symmetry_equiv_pos_as_xyz
  x,y,z
_cell_length_a	16.625539
_cell_length_b	12.759401
_cell_length_c	12.759400
_cell_angle_alpha	89.983831
_cell_angle_beta	89.974918
_cell_angle_gamma	90.018781
loop_
_atom_site_label
_atom_site_type_symbol
_atom_site_fract_x
_atom_site_fract_y
_atom_site_fract_z
Zn1	Zn	-0.455889	-1.606244	-0.418222
Zn2	Zn	0.044111	-1.106244	0.081778
Zn3	Zn	-0.321064	-1.606142	-0.593923
Zn4	Zn	0.178936	-1.106142	-0.093923
Zn5	Zn	-0.321074	-1.430550	-0.418263
Zn6	Zn	0.178926	-0.930550	0.081737
Zn7	Zn	-0.455858	-1.430535	-0.593864
Zn8	Zn	0.044142	-0.930535	-0.093864
O9	O	-0.388471	-1.518368	-0.506068
O10	O	0.111529	-1.018368	-0.006068
O11	O	-0.438013	-1.753252	-0.441536
O12	O	0.061987	-1.253252	0.058464
O13	O	-0.208233	-1.582813	-0.570663
O14	O	0.291767	-1.082813	-0.070663
O15	O	-0.338974	-1.453905	-0.271237
O16	O	0.161026	-0.953905	0.228763
O17	O	-0.338958	-1.753177	-0.570623
O18	O	0.161042	-1.253177	-0.070623
O19	O	-0.438023	-1.582987	-0.271206
O20	O	0.061977	-1.082987	0.228794
O21	O	-0.208240	-1.453806	-0.441607
O22	O	0.291760	-0.953806	0.058393
O23	O	-0.338944	-1.283527	-0.441550
O24	O	0.161056	-0.783527	0.058450
O25	O	-0.568694	-1.453880	-0.570523
O26	O	-0.068694	-0.953880	-0.070523
O27	O	-0.437970	-1.283516	-0.570563
O28	O	0.062030	-0.783516	-0.070563
O29	O	-0.568717	-1.582973	-0.441479
O30	O	-0.068717	-1.082973	0.058521
O31	O	-0.338927	-1.582799	-0.740936
O32	O	0.161073	-1.082799	-0.240936
O33	O	-0.437960	-1.453781	-0.740893
O34	O	0.062040	-0.953781	-0.240893
C35	C	-0.388455	-1.245401	-0.506055
C36	C	0.111545	-0.745401	-0.006055
C37	C	-0.388467	-1.128624	-0.506075
C38	C	0.111533	-0.628624	-0.006075
C39	C	-0.388457	-1.518306	-0.779035
C40	C	0.111543	-1.018306	-0.279035
C41	C	-0.388478	-1.518375	-0.895812
C42	C	0.111522	-1.018375	-0.395812
C43	C	-0.598780	-1.518436	-0.505990
C44	C	-0.098780	-1.018436	-0.005990
C45	C	-0.688401	-1.518465	-0.505956
C46	C	-0.188401	-1.018465	-0.005956
C47	C	-1.016577	-1.518514	-0.505839
C48	C	-0.516577	-1.018514	-0.005839
C49	C	-0.925269	-1.518497	-0.505875
C50	C	-0.425269	-1.018497	-0.005875
C51	C	-0.852492	-1.518490	-0.505898
C52	C	-0.352492	-1.018490	-0.005898
C53	C	-0.761178	-1.518473	-0.505933
C54	C	-0.261178	-1.018473	-0.005933
C55	C	-0.178980	-1.518360	-0.506070
C56	C	0.321020	-1.018360	-0.006070
C57	C	-0.089360	-1.518535	-0.505807
C58	C	0.410640	-1.018535	-0.005807
C59	C	-0.388488	-1.792401	-0.506082
C60	C	0.111512	-1.292401	-0.006082
C61	C	-0.388495	-1.909178	-0.506087
C62	C	0.111505	-1.409178	-0.006087
C63	C	-0.439949	-1.073784	-0.573354
C64	C	0.060051	-0.573784	-0.073354
C65	C	-0.439965	-0.964060	-0.573358
C66	C	0.060035	-0.464060	-0.073358
C67	C	-0.337011	-0.964025	-0.438801
C68	C	0.162989	-0.464025	0.061199
C69	C	-0.337000	-1.073748	-0.438792
C70	C	0.163000	-0.573748	0.061208
C71	C	-0.440096	-1.585559	-0.950568
C72	C	0.059904	-1.085559	-0.450568
C73	C	-0.440118	-1.585618	-1.060292
C74	C	0.059882	-1.085618	-0.560292
C75	C	-0.336896	-1.451306	-1.060494
C76	C	0.163104	-0.951306	-0.560494
C77	C	-0.336879	-1.451243	-0.950772
C78	C	0.163121	-0.951243	-0.450772
C79	C	-0.388503	-1.518459	-0.232035
C80	C	0.111497	-1.018459	0.267965
C81	C	-0.388517	-1.518498	-0.115258
C82	C	0.111483	-1.018498	0.384742
H83	H	-0.481887	-0.919414	-0.628142
H84	H	0.018113	-0.419414	-0.128142
H85	H	-0.295077	-1.118399	-0.383999
H86	H	0.204923	-0.618399	0.116001
H87	H	-0.482152	-1.640323	-1.104870
H88	H	0.017848	-1.140323	-0.604870
O89	O	-0.490146	-1.650727	-0.897017
O90	O	0.009854	-1.150727	-0.397017
C91	C	-0.479079	-1.636250	-0.788430
C92	C	0.020921	-1.136250	-0.288430
H93	H	-0.416827	-1.601881	-0.773524
H94	H	0.083173	-1.101881	-0.273524
H95	H	-0.526862	-1.580247	-0.757302
H96	H	-0.026862	-1.080247	-0.257302
C97	C	-0.562994	-1.784727	-0.750310
C98	C	-0.062994	-1.284727	-0.250310
C99	C	-0.486533	-1.742523	-0.732001
C100	C	0.013467	-1.242523	-0.232001
H101	H	-0.567595	-1.850279	-0.715500
H102	H	-0.067595	-1.350279	-0.215500
H103	H	-0.570453	-1.794479	-0.823467
H104	H	-0.070453	-1.294479	-0.323467
H105	H	-0.602804	-1.738048	-0.724370
H106	H	-0.102804	-1.238048	-0.224370
H107	H	-0.446725	-1.789196	-0.757953
H108	H	0.053275	-1.289196	-0.257953
H109	H	-0.479067	-1.732781	-0.658847
H110	H	0.020933	-1.232781	-0.158847
H111	H	-0.481859	-1.118461	-0.628137
H112	H	0.018141	-0.618461	-0.128137
H113	H	-0.294845	-1.396529	-0.906186
H114	H	0.205155	-0.896529	-0.406186
H115	H	-0.294885	-1.396652	-1.105256
H116	H	0.205115	-0.896652	-0.605256
O117	O	-0.287043	-0.910554	-0.373546
O118	O	0.212957	-0.410554	0.126454
C119	C	-0.298105	-0.801950	-0.387960
C120	C	0.201895	-0.301950	0.112040
H121	H	-0.324402	-0.786962	-0.469087
H122	H	0.175598	-0.286962	0.030913
H123	H	-0.341133	-0.770854	-0.325720
H124	H	0.158867	-0.270854	0.174280
C125	C	-0.184244	-0.763977	-0.278548
C126	C	0.315756	-0.263977	0.221452
C127	C	-0.216536	-0.745569	-0.378194
C128	C	0.283464	-0.245569	0.121806
H129	H	-0.133930	-0.729197	-0.272520
H130	H	0.366070	-0.229197	0.227480
H131	H	-0.176792	-0.837146	-0.268834
H132	H	0.323208	-0.337146	0.231166
H133	H	-0.220108	-0.738064	-0.226693
H134	H	0.279892	-0.238064	0.273307
H135	H	-0.180677	-0.771494	-0.430047
H136	H	0.319323	-0.271494	0.069953
H137	H	-0.223980	-0.672403	-0.387917
H138	H	0.276020	-0.172403	0.112083
