data_functionalizedCrystal
_audit_creation_method	'MofGen! by Chris Wilmer'
_symmetry_space_group_name_H-M	'P1'
_symmetry_Int_Tables_number	1
_symmetry_cell_setting	triclinic
loop_
_symmetry_equiv_pos_as_xyz
  x,y,z
_cell_length_a	14.519709
_cell_length_b	14.971486
_cell_length_c	13.448316
_cell_angle_alpha	89.992514
_cell_angle_beta	90.004213
_cell_angle_gamma	83.647137
loop_
_atom_site_label
_atom_site_type_symbol
_atom_site_fract_x
_atom_site_fract_y
_atom_site_fract_z
O1	O	-1.223793	-0.117254	0.082563
O2	O	-0.723793	0.382746	0.582563
O3	O	-0.955308	-0.131062	0.082593
O4	O	-0.455308	0.368938	0.582593
O5	O	-1.096746	0.006038	0.082570
O6	O	-0.596746	0.506038	0.582570
O7	O	-1.082354	-0.254354	0.082586
O8	O	-0.582354	0.245646	0.582586
O9	O	-1.096743	0.006049	-0.082814
O10	O	-0.596743	0.506049	0.417186
O11	O	-0.955305	-0.131051	-0.082790
O12	O	-0.455305	0.368949	0.417210
O13	O	-1.223790	-0.117243	-0.082821
O14	O	-0.723790	0.382757	0.417179
Cu15	Cu	-1.089547	-0.124146	-0.097907
Cu16	Cu	-0.589547	0.375854	0.402093
Cu17	Cu	-1.089551	-0.124159	0.097679
Cu18	Cu	-0.589551	0.375841	0.597679
O19	O	-1.082351	-0.254343	-0.082798
O20	O	-0.582351	0.245657	0.417202
C21	C	-0.920947	-0.130413	-0.000095
C22	C	-0.420947	0.369587	0.499905
C23	C	-0.818567	-0.128485	-0.000083
C24	C	-0.318567	0.371515	0.499917
N25	N	-1.089554	-0.124163	0.235243
N26	N	-0.589554	0.375837	0.735243
C27	C	-1.258151	-0.117892	-0.000131
C28	C	-0.758151	0.382108	0.499869
C29	C	-1.360531	-0.119820	-0.000136
C30	C	-0.860531	0.380180	0.499864
C31	C	-0.443675	-0.121386	-0.000129
C32	C	0.056325	0.378614	0.499871
C33	C	-0.547982	-0.123357	-0.000116
C34	C	-0.047982	0.376643	0.499884
C35	C	-0.631118	-0.124935	-0.000105
C36	C	-0.131118	0.375065	0.499895
C37	C	-0.735431	-0.126907	-0.000094
C38	C	-0.235431	0.373093	0.499906
C39	C	-1.096101	0.039369	-0.000121
C40	C	-0.596101	0.539369	0.499879
C41	C	-1.094172	0.138667	-0.000120
C42	C	-0.594172	0.638667	0.499880
C43	C	-1.082996	-0.287674	-0.000104
C44	C	-0.582996	0.212326	0.499896
C45	C	-1.084925	-0.386972	-0.000099
C46	C	-0.584925	0.113028	0.499901
C47	C	-1.177264	0.195845	-0.000130
C48	C	-0.677264	0.695845	0.499870
C49	C	-1.175446	0.289146	-0.000120
C50	C	-0.675446	0.789146	0.499880
C51	C	-1.090536	0.325266	-0.000107
C52	C	-0.590536	0.825266	0.499893
C53	C	-1.007438	0.268080	-0.000094
C54	C	-0.507438	0.768080	0.499906
C55	C	-1.009257	0.174781	-0.000097
C56	C	-0.509257	0.674781	0.499903
C57	C	-1.003653	0.462545	-0.000090
C58	C	-0.503653	0.962545	0.499910
C59	C	-1.001834	0.555850	-0.000089
C60	C	-0.501834	1.055850	0.499911
C61	C	-1.169842	0.576909	-0.000113
C62	C	-0.669842	1.076909	0.499887
C63	C	-1.171661	0.483610	-0.000116
C64	C	-0.671661	0.983610	0.499884
C65	C	-1.088563	0.426431	-0.000105
C66	C	-0.588563	0.926431	0.499895
N67	N	-1.089551	-0.124135	-0.235471
N68	N	-0.589551	0.375865	0.264529
C69	C	-1.152300	-0.063575	0.287273
C70	C	-0.652300	0.436425	0.787273
C71	C	-1.152304	-0.063572	0.391377
C72	C	-0.652304	0.436428	0.891377
C73	C	-1.089556	-0.124154	0.443448
C74	C	-0.589556	0.375846	0.943448
C75	C	-1.026807	-0.184749	0.391410
C76	C	-0.526807	0.315251	0.891410
C77	C	-1.026809	-0.184755	0.287309
C78	C	-0.526809	0.315245	0.787309
C79	C	-1.026808	-0.184730	0.608390
C80	C	-0.526808	0.315270	1.108390
C81	C	-1.026805	-0.184723	0.712499
C82	C	-0.526805	0.315277	1.212499
C83	C	-1.152303	-0.063548	0.712458
C84	C	-0.652303	0.436452	1.212458
C85	C	-1.152304	-0.063554	0.608357
C86	C	-0.652304	0.436446	1.108357
C87	C	-1.089554	-0.124147	0.556326
C88	C	-0.589554	0.375853	1.056326
H89	H	-1.243107	0.335698	-0.000131
H90	H	-0.743107	0.835698	0.499869
H91	H	-0.975713	-0.234075	0.566031
H92	H	-0.475713	0.265925	1.066031
O93	O	-0.965980	-0.243635	0.442100
O94	O	-0.465980	0.256365	0.942100
C95	C	-1.015304	-0.299038	0.502311
C96	C	-0.515304	0.200962	1.002311
H97	H	-1.087482	-0.263693	0.517894
H98	H	-0.587482	0.236307	1.017894
H99	H	-0.976806	-0.313029	0.575520
H100	H	-0.476806	0.186971	1.075520
H101	H	-1.021508	-0.365188	0.462208
H102	H	-0.521508	0.134812	0.962208
O103	O	-1.254085	0.448417	0.000003
O104	O	-0.754085	0.948417	0.500003
C105	C	-1.260172	0.395086	0.085668
C106	C	-0.760172	0.895086	0.585668
H107	H	-1.187510	0.371965	0.114232
H108	H	-0.687510	0.871965	0.614232
H109	H	-1.296999	0.333936	0.066398
H110	H	-0.796999	0.833936	0.566398
H111	H	-1.300928	0.436231	0.145642
H112	H	-0.800928	0.936231	0.645642
O113	O	-1.213287	-0.004628	0.441764
O114	O	-0.713287	0.495372	0.941764
C115	C	-1.268680	0.048831	0.373482
C116	C	-0.768680	0.548831	0.873482
H117	H	-1.230878	0.049986	0.299279
H118	H	-0.730878	0.549986	0.799279
H119	H	-1.282805	0.120225	0.403544
H120	H	-0.782805	0.620225	0.903544
H121	H	-1.337147	0.019511	0.362410
H122	H	-0.837147	0.519511	0.862410
O123	O	-1.259689	0.160656	-0.000010
O124	O	-0.759689	0.660656	0.499990
C125	C	-1.265778	0.107325	0.085654
C126	C	-0.765778	0.607325	0.585654
H127	H	-1.193117	0.084198	0.114216
H128	H	-0.693117	0.584198	0.614216
H129	H	-1.302610	0.046178	0.066385
H130	H	-0.802610	0.546178	0.566385
H131	H	-1.306530	0.148471	0.145630
H132	H	-0.806530	0.648471	0.645630
O133	O	-1.250480	0.632576	-0.000069
O134	O	-0.750480	1.132576	0.499931
C135	C	-1.230672	0.722670	-0.000079
C136	C	-0.730672	1.222670	0.499921
H137	H	-1.158231	0.726355	0.031241
H138	H	-0.658231	1.226355	0.531241
H139	H	-1.283630	0.764843	0.047936
H140	H	-0.783630	1.264843	0.547936
H141	H	-1.234138	0.749663	-0.079419
H142	H	-0.734138	1.249663	0.420581
H143	H	-0.932692	0.585255	-0.000094
H144	H	-0.432692	1.085255	0.499906
H145	H	-0.935985	0.415991	-0.000078
H146	H	-0.435985	0.915991	0.499922
H147	H	-0.941595	0.128227	-0.000088
H148	H	-0.441595	0.628227	0.499912
H149	H	-0.938303	0.297496	-0.000077
H150	H	-0.438303	0.797496	0.499923
H151	H	-1.203392	-0.014238	0.244884
H152	H	-0.703392	0.485762	0.744884
H153	H	-1.203393	-0.014219	0.565960
H154	H	-0.703393	0.485781	1.065960
O155	O	-1.213021	-0.004433	0.762966
O156	O	-0.713021	0.495567	1.262966
C157	C	-1.163483	0.050950	0.822961
C158	C	-0.663483	0.550950	1.322961
H159	H	-1.091421	0.015403	0.838705
H160	H	-0.591421	0.515403	1.338705
H161	H	-1.201971	0.065305	0.896104
H162	H	-0.701971	0.565305	1.396104
H163	H	-1.157001	0.116924	0.782590
H164	H	-0.657001	0.616924	1.282590
H165	H	-0.975711	-0.234056	0.754890
H166	H	-0.475711	0.265944	1.254890
H167	H	-0.975716	-0.234093	0.244947
H168	H	-0.475716	0.265907	0.744947
