data_functionalizedCrystal
_audit_creation_method	'MofGen! by Chris Wilmer'
_symmetry_space_group_name_H-M	'P1'
_symmetry_Int_Tables_number	1
_symmetry_cell_setting	triclinic
loop_
_symmetry_equiv_pos_as_xyz
  x,y,z
_cell_length_a	6.817900
_cell_length_b	19.551136
_cell_length_c	11.102193
_cell_angle_alpha	94.538640
_cell_angle_beta	108.604059
_cell_angle_gamma	101.650842
loop_
_atom_site_label
_atom_site_type_symbol
_atom_site_fract_x
_atom_site_fract_y
_atom_site_fract_z
V1	V	-4.076467	-0.096682	-0.396883
O2	O	-4.072230	0.004641	-0.388684
O3	O	-4.018801	-0.191698	-0.394788
O4	O	-4.053780	-0.095197	-0.569695
O5	O	-4.037008	-0.092529	-0.212567
V6	V	-4.557964	-0.084562	-0.374762
O7	O	-4.342170	-0.123267	-0.445408
O8	O	-4.742459	-0.057977	-0.326238
O9	O	-4.392424	0.010455	-0.376857
O10	O	-4.679599	-0.185884	-0.382961
O11	O	-4.714820	-0.088715	-0.559079
O12	O	-4.357445	-0.086047	-0.201950
C13	C	-3.860715	-0.214861	-0.388687
C14	C	-3.895024	-0.292539	-0.388126
C15	C	-3.854595	-0.319028	-0.271396
C16	C	-3.886898	-0.392012	-0.270830
C17	C	-3.959590	-0.438505	-0.386999
C18	C	-4.000034	-0.412009	-0.503745
C19	C	-3.967751	-0.339026	-0.504308
C20	C	-3.936634	-0.559517	-0.471231
C21	C	-3.968902	-0.632498	-0.470662
C22	C	-4.059173	-0.663609	-0.385266
C23	C	-4.117137	-0.621728	-0.300417
C24	C	-4.084854	-0.548745	-0.300980
C25	C	-3.994603	-0.517644	-0.386401
C26	C	-4.053770	-0.769235	-0.267915
C27	C	-4.086087	-0.842221	-0.267354
C28	C	-4.199204	-0.862216	-0.500271
C29	C	-4.166906	-0.789231	-0.500830
C30	C	-4.094179	-0.742745	-0.384647
C31	C	-3.905333	-0.091763	-0.611797
C32	C	-3.968006	-0.091178	-0.753076
C33	C	-4.041941	-0.219159	-0.790231
C34	C	-4.108344	-0.282873	-0.875180
C35	C	-4.167231	-0.282319	-1.007922
C36	C	-4.159718	-0.218045	-1.055717
C37	C	-4.093315	-0.154332	-0.970768
C38	C	-4.034425	-0.154893	-0.838025
C39	C	-4.019395	-0.026352	-0.933614
C40	C	-3.960493	-0.026904	-0.800871
C41	C	-4.011882	0.037922	-0.981409
C42	C	-3.945463	0.101637	-0.896459
C43	C	-3.886572	0.101080	-0.763710
C44	C	-3.894090	0.036809	-0.715922
C45	C	-4.213851	0.033614	-0.382955
C46	C	-4.158781	0.111291	-0.383524
C47	C	-4.169232	-0.089483	-0.159842
C48	C	-4.085799	-0.090065	-0.018562
H49	H	-4.190624	-0.647056	-0.230871
C50	C	-3.829314	0.036196	-0.569906
C51	C	-3.950697	0.067752	-0.492867
C52	C	-3.885928	0.067137	-0.346851
C53	C	-3.699777	0.034965	-0.277873
C54	C	-3.578382	0.003406	-0.354912
C55	C	-3.643150	0.004022	-0.500928
H56	H	-4.088508	0.091570	-0.543929
H57	H	-3.975794	0.090498	-0.289822
H58	H	-3.651831	0.034509	-0.169783
H59	H	-3.440571	-0.020411	-0.303850
H60	H	-3.553285	-0.019340	-0.557957
H61	H	-4.207697	-0.217600	-1.163805
C62	C	-4.240250	-0.352401	-1.101372
C63	C	-4.305000	-0.351785	-1.247381
C64	C	-4.378005	-0.421867	-1.340831
C65	C	-4.386261	-0.492564	-1.288271
C66	C	-4.321508	-0.493183	-1.142254
C67	C	-4.248503	-0.423101	-1.048805
H68	H	-4.298891	-0.299448	-1.286296
H69	H	-4.425939	-0.421408	-1.448923
H70	H	-4.440303	-0.544443	-1.357448
H71	H	-4.327617	-0.545520	-1.103340
H72	H	-4.200569	-0.423560	-0.940713
H73	H	-3.795391	-0.281182	-0.176792
C74	C	-3.973726	-0.718093	-0.140119
C75	C	-3.938142	-0.637813	-0.140730
C76	C	-3.858066	-0.586673	-0.012932
C77	C	-3.813575	-0.615814	0.115476
C78	C	-3.849159	-0.696098	0.116091
C79	C	-3.929235	-0.747238	-0.011706
H80	H	-3.971077	-0.616238	-0.235789
H81	H	-3.831725	-0.527241	-0.013389
H82	H	-3.754298	-0.577957	0.210079
H83	H	-3.816224	-0.717673	0.211151
H84	H	-3.955576	-0.806670	-0.011250
C85	C	-4.279168	-0.913349	-0.628062
C86	C	-4.314686	-0.993628	-0.627450
C87	C	-4.394663	-1.044766	-0.755245
C88	C	-4.439122	-1.015624	-0.883651
C89	C	-4.403604	-0.935341	-0.884267
C90	C	-4.323627	-0.884203	-0.756473
H91	H	-4.281774	-1.015205	-0.532392
H92	H	-4.420955	-1.104197	-0.754788
H93	H	-4.498326	-1.053479	-0.978252
H94	H	-4.436516	-0.913765	-0.979325
H95	H	-4.297335	-0.824772	-0.756930
H96	H	-4.059850	0.038368	-1.089497
H97	H	-4.114461	-0.335203	-0.836250
H98	H	-4.053175	-0.863786	-0.172295
H99	H	-3.939367	0.153963	-0.935387
H100	H	-3.832515	0.152963	-0.694551
H101	H	-3.863126	-0.534193	-0.540776
H102	H	-3.853971	-0.413584	-0.175772
H103	H	-4.132055	-0.514648	-0.231895
H104	H	-4.059225	-0.449868	-0.598331
H105	H	-4.199813	-0.767665	-0.595883
H106	H	-3.921696	-0.666592	-0.539749
H107	H	-3.993965	-0.219616	-0.682146
H108	H	-4.000682	-0.317460	-0.599367
