data_functionalizedCrystal
_audit_creation_method	'MofGen! by Chris Wilmer'
_symmetry_space_group_name_H-M	'P1'
_symmetry_Int_Tables_number	1
_symmetry_cell_setting	triclinic
loop_
_symmetry_equiv_pos_as_xyz
  x,y,z
_cell_length_a	25.639239
_cell_length_b	16.959455
_cell_length_c	16.959447
_cell_angle_alpha	89.985678
_cell_angle_beta	90.033076
_cell_angle_gamma	89.964367
loop_
_atom_site_label
_atom_site_type_symbol
_atom_site_fract_x
_atom_site_fract_y
_atom_site_fract_z
Zn1	Zn	-0.208183	-1.208282	0.446894
Zn2	Zn	-0.295624	-1.208161	0.314709
Zn3	Zn	-0.208199	-1.076110	0.314731
Zn4	Zn	-0.295585	-1.076032	0.446847
O5	O	-0.251898	-1.142146	0.380795
O6	O	-0.219792	-1.318876	0.429369
O7	O	-0.284050	-1.190627	0.204101
O8	O	-0.135032	-1.093726	0.332291
O9	O	-0.284034	-1.318788	0.332253
O10	O	-0.135020	-1.190832	0.429391
O11	O	-0.219820	-1.093609	0.204117
O12	O	-0.219782	-0.965489	0.332247
O13	O	-0.283967	-1.093593	0.557464
O14	O	-0.283983	-0.965431	0.429312
O15	O	-0.219754	-1.190756	0.557498
O16	O	-0.368784	-1.190551	0.332208
O17	O	-0.368755	-1.093476	0.429290
C18	C	-0.387740	-1.142013	0.380759
C19	C	-0.445854	-1.142029	0.380770
C20	C	-0.251880	-0.936780	0.380777
C21	C	-0.251886	-0.848923	0.380788
C22	C	-0.251854	-1.142179	0.586963
C23	C	-0.251836	-1.142193	0.674820
C24	C	-0.806220	-1.192825	0.330331
C25	C	-0.860824	-1.192855	0.330341
O26	O	-0.889063	-1.235906	0.287417
N27	N	-0.888137	-1.142285	0.380847
C28	C	-0.860842	-1.091686	0.431352
O29	O	-0.889088	-1.048675	0.474313
C30	C	-0.806239	-1.091660	0.431345
C31	C	-0.778929	-1.142228	0.380830
C32	C	-0.778910	-1.243389	0.279820
C33	C	-0.724309	-1.243358	0.279809
C34	C	-0.697019	-1.192761	0.330308
C35	C	-0.724329	-1.142196	0.380818
C36	C	-0.778946	-1.041066	0.481853
C37	C	-0.724339	-1.041045	0.481842
C38	C	-0.697029	-1.091613	0.431326
C39	C	-0.642437	-1.091568	0.431306
N40	N	-0.615125	-1.142139	0.380800
C41	C	-0.642415	-1.192735	0.330301
C42	C	-0.975513	-1.091746	0.431364
C43	C	-1.030115	-1.091767	0.431368
C44	C	-1.030093	-1.192938	0.330358
C45	C	-0.975490	-1.192912	0.330351
C46	C	-0.948200	-1.142316	0.380858
C47	C	-0.527750	-1.192664	0.330280
C48	C	-0.473145	-1.192625	0.330271
C49	C	-0.473172	-1.091458	0.431283
C50	C	-0.527772	-1.091493	0.431290
C51	C	-0.555060	-1.142103	0.380786
O52	O	-0.614164	-1.048541	0.474211
O53	O	-0.614163	-1.235746	0.287355
C54	C	-0.115525	-1.142301	0.380849
C55	C	-0.057411	-1.142367	0.380872
C56	C	-0.251915	-1.348314	0.380814
C57	C	-0.251923	-1.436171	0.380822
C58	C	-0.218441	-0.477453	0.330359
C59	C	-0.285398	-0.477442	0.431277
C60	C	-0.285390	-0.559988	0.431272
C61	C	-0.251908	-0.601270	0.380809
C62	C	-0.218433	-0.560007	0.330351
C63	C	-0.318868	-0.601258	0.481723
C64	C	-0.318863	-0.683809	0.481720
C65	C	-0.285377	-0.725092	0.431260
C66	C	-0.251901	-0.683824	0.380801
C67	C	-0.218418	-0.725106	0.330338
C68	C	-0.184939	-0.683839	0.279882
C69	C	-0.184948	-0.601290	0.279891
C70	C	-0.285368	-0.807641	0.431251
C71	C	-0.218411	-0.807660	0.330330
C72	C	-0.251903	-1.142159	0.175429
C73	C	-0.251774	-1.142298	0.087573
C74	C	-0.285214	-1.091699	1.046281
C75	C	-0.218348	-1.192876	1.046311
C76	C	-0.218359	-1.192855	0.963765
C77	C	-0.251799	-1.142256	0.922473
C78	C	-0.285227	-1.091678	0.963727
C79	C	-0.184935	-1.243438	0.922505
C80	C	-0.184945	-1.243419	0.839954
C81	C	-0.218382	-1.192816	0.798661
C82	C	-0.251812	-1.142235	0.839920
C83	C	-0.285251	-1.091636	0.798628
C84	C	-0.318679	-1.041051	0.839885
C85	C	-0.318665	-1.041074	0.922433
C86	C	-0.218396	-1.192792	0.716112
C87	C	-0.285265	-1.091615	0.716074
H88	H	-0.450911	-1.233804	0.289133
C89	C	-0.840392	-1.254547	0.173561
C90	C	-0.808924	-1.299039	0.224360
H91	H	-0.858926	-1.288913	0.139338
H92	H	-0.819138	-1.220148	0.143249
H93	H	-0.864459	-1.224415	0.203649
H94	H	-0.784853	-1.329166	0.194272
H95	H	-0.830179	-1.333452	0.254676
C96	C	-0.373802	-1.053013	0.690613
C97	C	-0.322026	-1.036001	0.670684
H98	H	-0.396496	-1.018684	0.662586
H99	H	-0.378573	-1.045778	0.745674
H100	H	-0.381452	-1.106114	0.677083
H101	H	-0.314375	-0.982902	0.684220
H102	H	-0.317252	-1.043230	0.615611
H103	H	-0.312661	-0.443825	0.472356
H104	H	-0.157680	-0.717462	0.238791
H105	H	-0.157691	-0.567683	0.238812
C106	C	-0.522307	-0.991493	0.531137
C107	C	-0.557795	-1.035909	0.486816
H108	H	-0.540839	-0.957186	0.565425
H109	H	-0.501051	-0.961264	0.496666
H110	H	-0.500967	-1.025908	0.561390
H111	H	-0.579132	-1.001493	0.456559
H112	H	-0.579059	-1.066140	0.521292
C113	C	-0.980965	-1.292913	0.230509
C114	C	-0.945474	-1.248502	0.274829
H115	H	-0.962435	-1.327237	0.196235
H116	H	-1.002295	-1.258500	0.200249
H117	H	-1.002231	-1.323131	0.264988
H118	H	-0.924211	-1.218280	0.240350
H119	H	-0.924135	-1.282919	0.305091
H120	H	-1.052323	-1.234139	0.289242
H121	H	-1.052346	-1.050582	0.472495
C122	C	-0.152228	-0.799378	0.230572
C123	C	-0.181608	-0.853034	0.274854
H124	H	-0.129510	-0.827392	0.196320
H125	H	-0.132258	-0.767214	0.265069
H126	H	-0.174991	-0.767148	0.200283
H127	H	-0.158844	-0.885261	0.305148
H128	H	-0.201578	-0.885212	0.240352
C129	C	-0.155231	-1.288393	1.049061
C130	C	-0.148184	-1.299060	0.967893
H131	H	-0.132541	-1.322732	1.077083
H132	H	-0.190357	-1.299917	1.062564
H133	H	-0.147567	-1.235295	1.062584
H134	H	-0.155853	-1.352157	0.954369
H135	H	-0.113050	-1.287542	0.954385
H136	H	-0.346132	-0.567640	0.522802
H137	H	-0.312628	-0.841237	0.472329
C138	C	-0.981028	-0.991737	0.531202
C139	C	-0.945519	-1.036116	0.486877
H140	H	-0.962512	-0.957392	0.565469
H141	H	-1.002288	-1.026169	0.561468
H142	H	-1.002361	-0.961543	0.496725
H143	H	-0.924188	-1.066315	0.521353
H144	H	-0.924250	-1.001680	0.456608
H145	H	-0.345907	-0.999857	0.806254
C146	C	-0.385046	-0.675497	0.581481
C147	C	-0.355658	-0.729166	0.537186
H148	H	-0.407758	-0.703501	0.615728
H149	H	-0.405022	-0.643279	0.546990
H150	H	-0.362288	-0.643321	0.611775
H151	H	-0.378416	-0.761337	0.506887
H152	H	-0.335681	-0.761397	0.571682
C153	C	-0.192860	-0.452016	0.196586
C154	C	-0.181641	-0.432099	0.274898
H155	H	-0.170138	-0.424019	0.162348
H156	H	-0.227975	-0.438449	0.184928
H157	H	-0.188065	-0.507089	0.189370
H158	H	-0.186439	-0.377026	0.282116
H159	H	-0.146516	-0.445660	0.286560
H160	H	-0.702077	-1.284537	0.238678
H161	H	-0.157726	-1.284608	0.806369
C162	C	-0.348336	-0.996188	1.048960
C163	C	-0.355407	-0.985478	0.967785
H164	H	-0.371022	-0.961869	1.076958
H165	H	-0.313207	-0.984663	1.062502
H166	H	-0.355991	-1.049295	1.062472
H167	H	-0.347748	-0.932373	0.954271
H168	H	-0.390544	-0.996998	0.954238
H169	H	-0.549962	-1.233876	0.289157
C170	C	-0.152305	-1.292807	0.724438
C171	C	-0.181656	-1.248388	0.670762
H172	H	-0.129619	-1.327127	0.696440
H173	H	-0.175084	-1.323022	0.756619
H174	H	-0.132298	-1.258394	0.756650
H175	H	-0.201666	-1.282802	0.638554
H176	H	-0.158874	-1.218171	0.638568
H177	H	-0.312428	-1.050511	1.079876
C178	C	-0.773459	-0.941082	0.581709
C179	C	-0.808955	-0.985484	0.537387
H180	H	-0.791986	-0.906771	0.615999
H181	H	-0.752201	-0.910858	0.547238
H182	H	-0.752124	-0.975507	0.611958
H183	H	-0.830288	-0.951059	0.507133
H184	H	-0.830223	-1.015710	0.571862
H185	H	-0.702122	-0.999845	0.522973
H186	H	-0.191126	-1.234076	1.079936
C187	C	-0.389473	-1.046511	0.476116
C188	C	-0.443167	-1.035848	0.486794
H189	H	-0.370950	-1.012185	0.510393
H190	H	-0.380561	-1.034965	0.423002
H191	H	-0.380495	-1.099613	0.487723
H192	H	-0.452146	-0.982747	0.475180
H193	H	-0.452083	-1.047388	0.539920
