data_functionalizedCrystal
_audit_creation_method	'MofGen! by Chris Wilmer'
_symmetry_space_group_name_H-M	'P1'
_symmetry_Int_Tables_number	1
_symmetry_cell_setting	triclinic
loop_
_symmetry_equiv_pos_as_xyz
  x,y,z
_cell_length_a	19.805407
_cell_length_b	25.639239
_cell_length_c	19.805407
_cell_angle_alpha	90.014465
_cell_angle_beta	90.009221
_cell_angle_gamma	90.038686
loop_
_atom_site_label
_atom_site_type_symbol
_atom_site_fract_x
_atom_site_fract_y
_atom_site_fract_z
Zn1	Zn	1.034609	-0.208237	0.382714
Zn2	Zn	1.367942	0.125097	0.716047
Zn3	Zn	1.701275	0.458430	1.049381
Zn4	Zn	1.034520	-0.295649	0.269524
Zn5	Zn	1.367853	0.037685	0.602857
Zn6	Zn	1.701186	0.371018	0.936190
Zn7	Zn	0.921444	-0.208229	0.269539
Zn8	Zn	1.254777	0.125104	0.602872
Zn9	Zn	1.588110	0.458437	0.936205
Zn10	Zn	0.921363	-0.295643	0.382670
Zn11	Zn	1.254696	0.037691	0.716004
Zn12	Zn	1.588029	0.371024	1.049337
O13	O	0.977984	-0.251939	0.326112
O14	O	1.311317	0.081394	0.659445
O15	O	1.644650	0.414727	0.992778
O16	O	1.129313	-0.219838	0.367711
O17	O	1.462647	0.113496	0.701044
O18	O	1.795980	0.446829	1.034378
O19	O	1.019517	-0.284052	0.174809
O20	O	1.352850	0.049282	0.508142
O21	O	1.686183	0.382615	0.841476
O22	O	0.936527	-0.135065	0.284576
O23	O	1.269860	0.198268	0.617910
O24	O	1.603193	0.531602	0.951243
O25	O	1.129248	-0.284059	0.284551
O26	O	1.462581	0.049274	0.617884
O27	O	1.795915	0.382608	0.951217
O28	O	1.019668	-0.135070	0.367726
O29	O	1.353002	0.198263	0.701059
O30	O	1.686335	0.531596	1.034392
O31	O	0.936440	-0.219825	0.174820
O32	O	1.269774	0.113508	0.508153
O33	O	1.603107	0.446842	0.841487
O34	O	0.826717	-0.219819	0.284534
O35	O	1.160050	0.113514	0.617867
O36	O	1.493383	0.446847	0.951200
O37	O	0.936388	-0.284049	0.477393
O38	O	1.269722	0.049285	0.810726
O39	O	1.603055	0.382618	1.144059
O40	O	0.826657	-0.284042	0.367651
O41	O	1.159990	0.049292	0.700984
O42	O	1.493324	0.382625	1.034318
O43	O	1.019590	-0.219832	0.477425
O44	O	1.352923	0.113502	0.810758
O45	O	1.686256	0.446835	1.144091
O46	O	1.019438	-0.368813	0.284508
O47	O	1.352771	-0.035480	0.617841
O48	O	1.686105	0.297853	0.951175
O49	O	0.936302	-0.368809	0.367636
O50	O	1.269635	-0.035475	0.700970
O51	O	1.602969	0.297858	1.034303
C52	C	0.802128	-0.251929	0.326090
C53	C	1.135461	0.081404	0.659423
C54	C	1.468794	0.414737	0.992756
C55	C	0.726896	-0.251938	0.326096
C56	C	1.060229	0.081396	0.659430
C57	C	1.393562	0.414729	0.992763
C58	C	0.691538	-0.285429	0.369306
C59	C	1.024872	0.047905	0.702639
C60	C	1.358205	0.381238	1.035972
C61	C	0.620850	-0.285429	0.369315
C62	C	0.954183	0.047904	0.702648
C63	C	1.287516	0.381237	1.035982
C64	C	0.585520	-0.251942	0.326112
C65	C	0.918853	0.081392	0.659445
C66	C	1.252187	0.414725	0.992778
C67	C	0.620883	-0.218447	0.282901
C68	C	0.954216	0.114886	0.616234
C69	C	1.287549	0.448220	0.949567
C70	C	0.691570	-0.218444	0.282895
C71	C	1.024903	0.114889	0.616228
C72	C	1.358236	0.448223	0.949562
C73	C	0.335809	-0.218459	0.282923
C74	C	0.669143	0.114875	0.616256
C75	C	1.002476	0.448208	0.949590
C76	C	0.265117	-0.218466	0.282930
C77	C	0.598451	0.114868	0.616264
C78	C	0.931784	0.448201	0.949597
C79	C	0.265089	-0.285444	0.369343
C80	C	0.598423	0.047889	0.702676
C81	C	0.931756	0.381223	1.036010
C82	C	0.335776	-0.285441	0.369337
C83	C	0.669110	0.047892	0.702671
C84	C	1.002443	0.381226	1.036004
C85	C	0.371133	-0.251945	0.326129
C86	C	0.704466	0.081389	0.659463
C87	C	1.037799	0.414722	0.992796
C88	C	0.447781	-0.251943	0.326120
C89	C	0.781115	0.081390	0.659454
C90	C	1.114448	0.414723	0.992787
C91	C	0.508873	-0.251945	0.326117
C92	C	0.842206	0.081388	0.659450
C93	C	1.175540	0.414721	0.992783
C94	C	0.977870	-0.387782	0.326081
C95	C	1.311203	-0.054449	0.659414
C96	C	1.644537	0.278885	0.992747
C97	C	0.977883	-0.445896	0.326090
C98	C	1.311216	-0.112563	0.659423
C99	C	1.644550	0.220771	0.992757
C100	C	1.021386	-0.806249	0.282900
C101	C	1.354719	-0.472915	0.616234
C102	C	1.688052	-0.139582	0.949567
C103	C	1.021412	-0.860853	0.282910
C104	C	1.354745	-0.527520	0.616243
C105	C	1.688078	-0.194186	0.949576
O106	O	1.058281	-0.889081	0.246154
O107	O	1.391614	-0.555748	0.579488
O108	O	1.724948	-0.222414	0.912821
N109	N	0.978103	-0.888178	0.326156
N110	N	1.311436	-0.554845	0.659490
N111	N	1.644769	-0.221512	0.992823
C112	C	0.934769	-0.860897	0.369402
C113	C	1.268103	-0.527563	0.702735
C114	C	1.601436	-0.194230	1.036069
O115	O	0.897934	-0.889153	0.406188
O116	O	1.231268	-0.555820	0.739522
O117	O	1.564601	-0.222486	1.072855
C118	C	0.934747	-0.806293	0.369396
C119	C	1.268080	-0.472960	0.702729
C120	C	1.601414	-0.139627	1.036063
C121	C	0.978054	-0.778971	0.326141
C122	C	1.311388	-0.445637	0.659475
C123	C	1.644721	-0.112304	0.992808
C124	C	1.064690	-0.778926	0.239650
C125	C	1.398023	-0.445593	0.572983
C126	C	1.731356	-0.112259	0.906317
C127	C	1.064662	-0.724326	0.239640
C128	C	1.397996	-0.390992	0.572973
C129	C	1.731329	-0.057659	0.906307
C130	C	1.021331	-0.697048	0.282881
C131	C	1.354664	-0.363714	0.616214
C132	C	1.687998	-0.030381	0.949548
C133	C	0.978027	-0.724370	0.326132
C134	C	1.311360	-0.391037	0.659465
C135	C	1.644694	-0.057704	0.992798
C136	C	0.891418	-0.779012	0.412644
C137	C	1.224751	-0.445679	0.745978
C138	C	1.558084	-0.112346	1.079311
C139	C	0.891399	-0.724405	0.412635
C140	C	1.224733	-0.391072	0.745968
C141	C	1.558066	-0.057739	1.079302
C142	C	0.934707	-0.697083	0.369380
C143	C	1.268040	-0.363750	0.702714
C144	C	1.601373	-0.030416	1.036047
C145	C	0.934668	-0.642492	0.369363
C146	C	1.268001	-0.309158	0.702696
C147	C	1.601335	0.024175	1.036029
N148	N	0.977977	-0.615166	0.326116
N149	N	1.311311	-0.281833	0.659449
N150	N	1.644644	0.051500	0.992782
C151	C	1.021309	-0.642444	0.282875
C152	C	1.354642	-0.309111	0.616208
C153	C	1.687975	0.024222	0.949541
C154	C	0.934820	-0.975567	0.369413
C155	C	1.268154	-0.642234	0.702746
C156	C	1.601487	-0.308901	1.036079
C157	C	0.934839	-1.030169	0.369416
C158	C	1.268172	-0.696836	0.702749
C159	C	1.601505	-0.363503	1.036082
C160	C	1.021482	-1.030122	0.282924
C161	C	1.354816	-0.696789	0.616257
C162	C	1.688149	-0.363455	0.949591
C163	C	1.021460	-0.975519	0.282918
C164	C	1.354793	-0.642185	0.616251
C165	C	1.688127	-0.308852	0.949584
C166	C	0.978129	-0.948242	0.326166
C167	C	1.311463	-0.614908	0.659499
C168	C	1.644796	-0.281575	0.992832
C169	C	1.021248	-0.527779	0.282857
C170	C	1.354581	-0.194446	0.616190
C171	C	1.687914	0.138887	0.949524
C172	C	1.021215	-0.473174	0.282849
C173	C	1.354548	-0.139841	0.616183
C174	C	1.687881	0.193493	0.949516
C175	C	0.934574	-0.473226	0.369343
C176	C	1.267907	-0.139893	0.702677
C177	C	1.601241	0.193441	1.036010
C178	C	0.934604	-0.527827	0.369349
C179	C	1.267937	-0.194493	0.702682
C180	C	1.601271	0.138840	1.036016
C181	C	0.977947	-0.555102	0.326104
C182	C	1.311280	-0.221769	0.659437
C183	C	1.644613	0.111565	0.992770
O184	O	0.897820	-0.614229	0.406101
O185	O	1.231153	-0.280896	0.739434
O186	O	1.564486	0.052438	1.072768
O187	O	1.058144	-0.614181	0.246101
O188	O	1.391477	-0.280848	0.579434
O189	O	1.724810	0.052485	0.912768
C190	C	1.154526	-0.251950	0.326134
C191	C	1.487860	0.081384	0.659467
C192	C	1.821193	0.414717	0.992801
C193	C	1.229758	-0.251954	0.326144
C194	C	1.563092	0.081379	0.659477
C195	C	1.896425	0.414712	0.992810
C196	C	0.977990	-0.251940	0.502654
C197	C	1.311323	0.081393	0.835988
C198	C	1.644656	0.414726	1.169321
C199	C	0.977992	-0.251941	0.577886
C200	C	1.311326	0.081393	0.911220
C201	C	1.644659	0.414726	1.244553
C202	C	0.978116	-0.115566	0.326158
C203	C	1.311450	0.217767	0.659491
C204	C	1.644783	0.551100	0.992824
C205	C	0.978173	-0.057452	0.326177
C206	C	1.311506	0.275881	0.659510
C207	C	1.644840	0.609214	0.992844
C208	C	1.021310	-0.218508	0.613248
C209	C	1.354643	0.114825	0.946582
C210	C	1.687977	0.448159	1.279915
C211	C	1.021304	-0.218507	0.683937
C212	C	1.354637	0.114827	1.017270
C213	C	1.687971	0.448160	1.350603
C214	C	0.977984	-0.251941	0.719262
C215	C	1.311317	0.081393	1.052595
C216	C	1.644650	0.414726	1.385929
C217	C	0.934661	-0.285375	0.683895
C218	C	1.267995	0.047959	1.017228
C219	C	1.601328	0.381292	1.350562
C220	C	0.934664	-0.285373	0.613208
C221	C	1.267998	0.047960	0.946541
C222	C	1.601331	0.381293	1.279874
C223	C	0.934648	-0.285381	0.968968
C224	C	1.267981	0.047952	1.302302
C225	C	1.601315	0.381286	1.635635
C226	C	0.934650	-0.285381	1.039660
C227	C	1.267983	0.047952	1.372994
C228	C	1.601316	0.381286	1.706327
C229	C	1.021288	-0.218514	1.039697
C230	C	1.354621	0.114819	1.373030
C231	C	1.687954	0.448153	1.706364
C232	C	1.021291	-0.218513	0.969010
C233	C	1.354624	0.114821	1.302343
C234	C	1.687957	0.448154	1.635677
C235	C	0.977966	-0.251945	0.933649
C236	C	1.311300	0.081389	1.266983
C237	C	1.644633	0.414722	1.600316
C238	C	0.977972	-0.251945	0.857001
C239	C	1.311305	0.081388	1.190334
C240	C	1.644639	0.414721	1.523668
C241	C	0.977981	-0.251943	0.795909
C242	C	1.311314	0.081390	1.129242
C243	C	1.644647	0.414724	1.462576
C244	C	0.977971	-0.251949	1.150256
C245	C	1.311305	0.081384	1.483589
C246	C	1.644638	0.414718	1.816922
C247	C	0.977964	-0.251945	1.075024
C248	C	1.311298	0.081388	1.408357
C249	C	1.644631	0.414721	1.741690
H250	H	0.720299	-0.312700	0.404485
H251	H	1.053632	0.020633	0.737818
H252	H	1.386965	0.353967	1.071151
H253	H	0.592112	-0.191179	0.247726
H254	H	0.925445	0.142155	0.581060
H255	H	1.258778	0.475488	0.914393
Cl256	Cl	0.736019	-0.176338	0.228574
Cl257	Cl	1.069353	0.156995	0.561908
Cl258	Cl	1.402686	0.490329	0.895241
Cl259	Cl	1.119171	-0.813209	0.185282
Cl260	Cl	1.452505	-0.479875	0.518616
Cl261	Cl	1.785838	-0.146542	0.851949
Cl262	Cl	1.075793	-0.176498	0.728389
Cl263	Cl	1.409126	0.156835	1.061722
Cl264	Cl	1.742460	0.490169	1.395056
H265	H	1.099929	-0.702083	0.204420
H266	H	1.433262	-0.368749	0.537754
H267	H	1.766595	-0.035416	0.871087
H268	H	0.856149	-0.801249	0.447864
H269	H	1.189482	-0.467916	0.781197
H270	H	1.522816	-0.134582	1.114531
H271	H	0.592065	-0.312702	0.404500
H272	H	0.925398	0.020632	0.737833
H273	H	1.258731	0.353965	1.071166
H274	H	0.236354	-0.191193	0.247749
H275	H	0.569687	0.142141	0.581082
H276	H	0.903020	0.475474	0.914416
Cl277	Cl	0.880203	-0.327403	0.568753
Cl278	Cl	1.213537	0.005930	0.902086
Cl279	Cl	1.546870	0.339264	1.235419
Cl280	Cl	0.380248	-0.176347	0.228606
Cl281	Cl	0.713581	0.156986	0.561939
Cl282	Cl	1.046915	0.490319	0.895272
Cl283	Cl	0.380187	-0.327543	0.423650
Cl284	Cl	0.713520	0.005790	0.756983
Cl285	Cl	1.046854	0.339123	1.090317
H286	H	1.056480	-0.450930	0.247624
H287	H	1.389814	-0.117596	0.580957
H288	H	1.723147	0.215737	0.914290
H289	H	1.056543	-0.549980	0.247644
H290	H	1.389876	-0.216647	0.580977
H291	H	1.723209	0.116686	0.914311
Cl292	Cl	0.880336	-0.941282	0.423781
Cl293	Cl	1.213670	-0.607948	0.757115
Cl294	Cl	1.547003	-0.274615	1.090448
Cl295	Cl	1.075755	-0.176481	0.924605
Cl296	Cl	1.409088	0.156852	1.257938
Cl297	Cl	1.742422	0.490185	1.591272
H298	H	1.056725	-0.953276	0.247697
H299	H	1.390058	-0.619943	0.581030
H300	H	1.723391	-0.286609	0.914363
Cl301	Cl	0.880385	-1.064511	0.423787
Cl302	Cl	1.213718	-0.731178	0.757121
Cl303	Cl	1.547052	-0.397844	1.090454
H304	H	0.856115	-0.702199	0.447855
H305	H	1.189448	-0.368866	0.781188
H306	H	1.522782	-0.035532	1.114521
Cl307	Cl	1.075956	-1.064425	0.228562
Cl308	Cl	1.409289	-0.731091	0.561896
Cl309	Cl	1.742622	-0.397758	0.895229
H310	H	0.899342	-0.550074	0.404573
H311	H	1.232675	-0.216740	0.737906
H312	H	1.566009	0.116593	1.071239
H313	H	0.236294	-0.312717	0.404528
H314	H	0.569627	0.020617	0.737861
H315	H	0.902960	0.353950	1.071195
Cl316	Cl	0.880198	-0.327405	0.728304
Cl317	Cl	1.213532	0.005929	1.061637
Cl318	Cl	1.546865	0.339262	1.394971
Cl319	Cl	0.880107	-0.438924	0.423704
Cl320	Cl	1.213440	-0.105590	0.757037
Cl321	Cl	1.546773	0.227743	1.090370
Cl322	Cl	1.075777	-0.176477	0.568846
Cl323	Cl	1.409110	0.156857	0.902180
Cl324	Cl	1.742443	0.490190	1.235513
Cl325	Cl	1.075751	-0.176483	1.084155
Cl326	Cl	1.409085	0.156851	1.417488
Cl327	Cl	1.742418	0.490184	1.750822
Cl328	Cl	0.880185	-0.327415	1.084068
Cl329	Cl	1.213518	0.005918	1.417402
Cl330	Cl	1.546851	0.339252	1.750735
H331	H	0.899380	-0.312611	0.940186
H332	H	1.232714	0.020722	1.273519
H333	H	1.566047	0.354056	1.606853
