data_functionalizedCrystal
_audit_creation_method	'MofGen! by Chris Wilmer'
_symmetry_space_group_name_H-M	'P1'
_symmetry_Int_Tables_number	1
_symmetry_cell_setting	triclinic
loop_
_symmetry_equiv_pos_as_xyz
  x,y,z
_cell_length_a	6.817900
_cell_length_b	15.866870
_cell_length_c	13.694077
_cell_angle_alpha	96.798544
_cell_angle_beta	106.289399
_cell_angle_gamma	102.655915
loop_
_atom_site_label
_atom_site_type_symbol
_atom_site_fract_x
_atom_site_fract_y
_atom_site_fract_z
V1	V	-4.025016	-0.045297	-0.333031
O2	O	-3.990152	0.079867	-0.280238
O3	O	-3.998097	-0.164536	-0.375430
O4	O	-3.966020	-0.010512	-0.457894
O5	O	-4.022451	-0.075224	-0.197203
V6	V	-4.507233	-0.034354	-0.311357
O7	O	-4.289138	-0.069302	-0.380573
O8	O	-4.693308	-0.010349	-0.263815
O9	O	-4.310945	0.084885	-0.268958
O10	O	-4.659493	-0.159518	-0.364150
O11	O	-4.627194	-0.004427	-0.447185
O12	O	-4.343021	-0.069140	-0.186494
C13	C	-3.848667	-0.194669	-0.381704
C14	C	-3.907874	-0.291929	-0.417203
C15	C	-3.807748	0.001805	-0.486894
C16	C	-3.840939	0.029458	-0.589264
C17	C	-3.802997	0.118946	-0.594290
C18	C	-3.834166	0.144926	-0.690471
C19	C	-3.903297	0.081420	-0.781637
C20	C	-3.941255	-0.008071	-0.776613
C21	C	-3.910067	-0.034053	-0.680421
C22	C	-4.010367	-0.071580	-0.867769
C23	C	-4.048325	-0.161071	-0.862744
C24	C	-4.017140	-0.187049	-0.766561
C25	C	-3.948009	-0.123542	-0.675395
C26	C	-4.041556	-0.045598	-0.963960
C27	C	-4.148626	-0.198598	-1.050092
C28	C	-4.117456	-0.224578	-0.953910
C29	C	-3.924716	-0.660368	-0.087922
C30	C	-3.980357	-0.751755	-0.121310
C31	C	-4.051510	-0.732317	-0.299726
C32	C	-3.995863	-0.640927	-0.266354
C33	C	-3.932472	-0.604960	-0.160451
C34	C	-4.003619	-0.585518	-0.338882
C35	C	-3.947988	-0.494136	-0.305512
C36	C	-3.884602	-0.458162	-0.199613
C37	C	-3.876841	-0.513577	-0.127081
C38	C	-4.067026	-0.621488	-0.444785
C39	C	-4.074782	-0.566079	-0.517313
C40	C	-4.019136	-0.474695	-0.483943
C41	C	-3.955749	-0.438720	-0.378044
C42	C	-4.026897	-0.419279	-0.556476
C43	C	-3.971266	-0.327897	-0.523105
C44	C	-3.900118	-0.347338	-0.344674
C45	C	-4.123718	0.115013	-0.262683
C46	C	-4.043749	0.212273	-0.227191
C47	C	-4.164636	-0.081461	-0.157490
C48	C	-4.110684	-0.109109	-0.055118
H49	H	-4.010658	0.027266	-0.968040
C50	C	-3.726939	0.188793	-0.494006
N51	N	-3.669644	0.241406	-0.418467
C52	C	-4.224677	-0.268461	-1.150373
N53	N	-4.281956	-0.321076	-1.225908
C54	C	-4.159201	-0.323016	-0.948368
N55	N	-4.190645	-0.397160	-0.944193
H56	H	-3.974030	-0.796867	-0.062240
C57	C	-4.058886	-0.285491	-0.761039
N58	N	-4.090335	-0.359639	-0.756881
H59	H	-3.848466	-0.318051	-0.258437
C60	C	-4.121217	-0.771892	-0.416216
N61	N	-4.173705	-0.801698	-0.503957
H62	H	-3.873064	-0.631081	-0.001685
C63	C	-3.823403	-0.357637	-0.162905
N64	N	-3.777303	-0.281922	-0.135257
C65	C	-4.144490	-0.605654	-0.633802
N66	N	-4.196977	-0.635460	-0.721544
C67	C	-4.096627	-0.458856	-0.672965
N68	N	-4.149139	-0.488665	-0.760707
C69	C	-3.807100	-0.474008	-0.010581
N70	N	-3.754579	-0.444205	0.077162
H71	H	-4.112324	-0.695898	-0.471951
H72	H	-3.977613	-0.282782	-0.582166
H73	H	-3.928674	0.102578	-0.859950
H74	H	-3.803236	0.217790	-0.694553
H75	H	-3.922635	-0.144691	-0.597073
