data_functionalizedCrystal
_audit_creation_method	'MofGen! by Chris Wilmer'
_symmetry_space_group_name_H-M	'P1'
_symmetry_Int_Tables_number	1
_symmetry_cell_setting	triclinic
loop_
_symmetry_equiv_pos_as_xyz
  x,y,z
_cell_length_a	10.654550
_cell_length_b	15.944551
_cell_length_c	9.730223
_cell_angle_alpha	89.997716
_cell_angle_beta	89.996251
_cell_angle_gamma	83.991820
loop_
_atom_site_label
_atom_site_type_symbol
_atom_site_fract_x
_atom_site_fract_y
_atom_site_fract_z
O1	O	1.666308	0.117973	-0.114406
O2	O	1.300684	0.129213	-0.114384
O3	O	1.493480	0.001376	-0.114384
O4	O	1.473511	0.245810	-0.114407
O5	O	1.493478	0.001379	0.114196
O6	O	1.300681	0.129216	0.114196
O7	O	1.666305	0.117976	0.114174
Zn8	Zn	1.483493	0.123597	0.150477
Zn9	Zn	1.483496	0.123592	-0.150687
O10	O	1.473509	0.245813	0.114173
C11	C	1.253895	0.128389	-0.000092
C12	C	1.114484	0.125920	-0.000083
C13	C	1.034024	0.201188	-0.000110
C14	C	0.903034	0.198863	-0.000134
C15	C	0.932975	0.045995	-0.000108
C16	C	1.063963	0.048321	-0.000075
C17	C	1.084545	0.278788	-0.000118
C18	C	1.004084	0.354062	-0.000147
C19	C	0.873094	0.351737	-0.000170
C20	C	0.822564	0.274137	-0.000165
C21	C	1.492650	-0.029921	-0.000093
C22	C	1.490165	-0.123182	-0.000092
C23	C	1.364720	-0.338765	-0.000104
C24	C	1.422971	-0.399443	0.112596
C25	C	1.485668	-0.293934	-0.000103
C26	C	1.423002	-0.399430	-0.112765
C27	C	1.481317	-0.458872	-0.000119
C28	C	1.543953	-0.353384	0.112691
C29	C	1.543967	-0.353364	-0.112772
C30	C	1.602306	-0.414024	-0.000045
C31	C	1.488172	-0.198917	-0.000092
C32	C	1.478822	-0.553887	-0.000119
C33	C	1.713094	0.118800	-0.000122
C34	C	1.852505	0.121269	-0.000140
C35	C	1.474339	0.277110	-0.000120
C36	C	1.476824	0.370371	-0.000130
N37	N	1.483500	0.123599	0.356013
N38	N	1.483499	0.123583	-0.356224
C39	C	1.568892	0.067012	0.427939
C40	C	1.568889	0.067002	0.571822
C41	C	1.398098	0.180173	0.571840
C42	C	1.398096	0.180178	0.427959
C43	C	1.654296	0.010433	0.355993
C44	C	1.739696	-0.046158	0.427920
C45	C	1.739693	-0.046168	0.571803
C46	C	1.654290	0.010412	0.643759
H47	H	0.891822	-0.017184	-0.000127
H48	H	1.702787	-0.446602	0.000013
N49	N	1.146141	-0.028570	-0.000030
N50	N	1.101021	-0.097849	-0.000027
H51	H	1.159059	-0.152156	0.000014
H52	H	1.328567	0.226239	0.630436
N53	N	1.608076	-0.327928	0.232341
N54	N	1.620289	-0.251707	0.251681
H55	H	1.665572	-0.233725	0.336184
H56	H	1.328561	0.226256	0.369396
N57	N	1.826907	-0.103954	0.354404
N58	N	1.826898	-0.103941	0.225941
H59	H	1.888490	-0.144761	0.174020
N60	N	1.358822	-0.425048	0.232141
N61	N	1.398916	-0.409403	0.349109
H62	H	1.353605	-0.427484	0.433535
H63	H	1.654286	0.010393	0.760918
H64	H	1.264327	-0.306038	0.000015
H65	H	1.371831	-0.419804	-0.208051
N66	N	1.608083	-0.327747	-0.232321
N67	N	1.566861	-0.342263	-0.349257
H68	H	1.612134	-0.324170	-0.433700
H69	H	1.045235	0.417241	-0.000140
N70	N	1.218344	0.281179	-0.000106
N71	N	1.263441	0.350465	-0.000118
H72	H	1.357937	0.352154	-0.000114
N73	N	1.654273	0.010446	0.209022
N74	N	1.578016	0.060971	0.144816
H75	H	1.577996	0.060983	0.041017
N76	N	0.790908	0.428625	-0.000161
N77	N	0.795498	0.480062	0.096190
H78	H	0.737457	0.534368	0.096196
N79	N	1.826916	-0.103985	0.645254
N80	N	1.903153	-0.154498	0.580994
H81	H	1.964761	-0.195333	0.632866
H82	H	0.715901	0.272250	-0.000163
