data_functionalizedCrystal
_audit_creation_method	'MofGen! by Chris Wilmer'
_symmetry_space_group_name_H-M	'P1'
_symmetry_Int_Tables_number	1
_symmetry_cell_setting	triclinic
loop_
_symmetry_equiv_pos_as_xyz
  x,y,z
_cell_length_a	12.594516
_cell_length_b	16.625548
_cell_length_c	16.625548
_cell_angle_alpha	90.002903
_cell_angle_beta	90.007202
_cell_angle_gamma	90.024258
loop_
_atom_site_label
_atom_site_type_symbol
_atom_site_fract_x
_atom_site_fract_y
_atom_site_fract_z
Zn1	Zn	-0.423746	1.232606	0.455817
Zn2	Zn	0.076254	1.732606	0.955817
Zn3	Zn	-0.601694	1.232549	0.320994
Zn4	Zn	-0.101694	1.732549	0.820994
Zn5	Zn	-0.423749	1.097797	0.321011
Zn6	Zn	0.076251	1.597797	0.821011
Zn7	Zn	-0.601702	1.097749	0.455797
Zn8	Zn	-0.101702	1.597749	0.955797
O9	O	-0.512723	1.165175	0.388405
O10	O	-0.012723	1.665175	0.888405
O11	O	-0.447347	1.345431	0.437935
O12	O	0.052653	1.845431	0.937935
O13	O	-0.578088	1.214670	0.208164
O14	O	-0.078088	1.714670	0.708164
O15	O	-0.274803	1.115724	0.338908
O16	O	0.225197	1.615724	0.838908
O17	O	-0.578085	1.345389	0.338881
O18	O	-0.078085	1.845389	0.838881
O19	O	-0.274801	1.214768	0.437950
O20	O	0.225199	1.714768	0.937950
O21	O	-0.447352	1.115668	0.208176
O22	O	0.052648	1.615668	0.708176
O23	O	-0.447359	0.984958	0.338888
O24	O	0.052641	1.484958	0.838888
O25	O	-0.578097	1.115642	0.568632
O26	O	-0.078097	1.615642	1.068632
O27	O	-0.578100	0.984923	0.437915
O28	O	-0.078100	1.484923	0.937915
O29	O	-0.447354	1.214721	0.568647
O30	O	0.052646	1.714721	1.068647
O31	O	-0.750641	1.214623	0.338861
O32	O	-0.250641	1.714623	0.838861
O33	O	-0.750647	1.115586	0.437899
O34	O	-0.250647	1.615586	0.937899
C35	C	-0.512732	0.955684	0.388402
C36	C	-0.012732	1.455684	0.888402
C37	C	-0.512761	0.866063	0.388420
C38	C	-0.012761	1.366063	0.888420
C39	C	-0.789264	1.165115	0.388394
C40	C	-0.289264	1.665115	0.888394
C41	C	-0.907569	1.165163	0.388416
C42	C	-0.407569	1.665163	0.888416
C43	C	-0.512726	1.165182	0.598714
C44	C	-0.012726	1.665182	1.098714
C45	C	-0.512727	1.165185	0.688335
C46	C	-0.012727	1.665185	1.188335
C47	C	-1.047628	1.111340	0.442256
C48	C	-0.547628	1.611340	0.942256
C49	C	-0.976715	1.184844	0.462031
C50	C	-0.476715	1.684844	0.962031
C51	C	-0.976910	1.091666	0.368676
C52	C	-0.476910	1.591666	0.868676
C53	C	-1.047442	1.238836	0.408259
C54	C	-0.547442	1.738836	0.908259
C55	C	-1.047644	1.145610	0.314870
C56	C	-0.547644	1.645610	0.814870
C57	C	-0.976763	1.219164	0.334618
C58	C	-0.476763	1.719164	0.834618
C59	C	-0.235102	1.165258	0.388434
C60	C	0.264898	1.665258	0.888434
C61	C	-0.116797	1.165293	0.388446
C62	C	0.383203	1.665293	0.888446
C63	C	-0.512715	1.375484	0.388408
C64	C	-0.012715	1.875484	0.888408
C65	C	-0.512711	1.465105	0.388410
C66	C	-0.012711	1.965105	0.888410
C67	C	-0.512761	1.793281	0.388415
C68	C	-0.012761	2.293281	0.888415
C69	C	-0.512750	1.701972	0.388411
C70	C	-0.012750	2.201972	0.888411
C71	C	-0.512735	1.629196	0.388412
C72	C	-0.012735	2.129196	0.888412
C73	C	-0.512726	1.537882	0.388409
C74	C	-0.012726	2.037882	0.888409
C75	C	-0.512737	1.165152	1.016510
C76	C	-0.012737	1.665152	1.516510
C77	C	-0.512737	1.165159	0.925202
C78	C	-0.012737	1.665159	1.425202
C79	C	-0.512733	1.165169	0.852425
C80	C	-0.012733	1.665169	1.352425
C81	C	-0.512732	1.165175	0.761111
C82	C	-0.012732	1.665175	1.261111
C83	C	-0.512741	1.165160	1.178914
C84	C	-0.012741	1.665160	1.678914
C85	C	-0.512733	1.165152	1.089293
C86	C	-0.012733	1.665152	1.589293
H87	H	-1.078738	1.065826	0.487809
H88	H	-0.578738	1.565826	0.987809
F89	F	-0.935995	1.206540	0.543341
F90	F	-0.435995	1.706540	1.043341
F91	F	-0.936348	1.278794	0.275122
F92	F	-0.436348	1.778794	0.775122
F93	F	-1.088397	1.123887	0.233582
F94	F	-0.588397	1.623887	0.733582
H95	H	-1.078298	1.301065	0.425040
H96	H	-0.578298	1.801065	0.925040
F97	F	-0.936407	1.010354	0.346836
F98	F	-0.436407	1.510354	0.846836
