data_functionalizedCrystal
_audit_creation_method	'MofGen! by Chris Wilmer'
_symmetry_space_group_name_H-M	'P1'
_symmetry_Int_Tables_number	1
_symmetry_cell_setting	triclinic
loop_
_symmetry_equiv_pos_as_xyz
  x,y,z
_cell_length_a	25.639243
_cell_length_b	25.639239
_cell_length_c	12.759393
_cell_angle_alpha	89.957028
_cell_angle_beta	90.024249
_cell_angle_gamma	89.957395
loop_
_atom_site_label
_atom_site_type_symbol
_atom_site_fract_x
_atom_site_fract_y
_atom_site_fract_z
Zn1	Zn	0.799264	0.208082	0.594059
Zn2	Zn	1.132597	0.541415	0.927393
Zn3	Zn	1.465930	0.874749	1.260726
Zn4	Zn	0.799173	0.295529	0.418344
Zn5	Zn	1.132506	0.628862	0.751678
Zn6	Zn	1.465839	0.962195	1.085011
Zn7	Zn	0.711827	0.208113	0.418381
Zn8	Zn	1.045161	0.541447	0.751714
Zn9	Zn	1.378494	0.874780	1.085048
Zn10	Zn	0.711783	0.295492	0.593968
Zn11	Zn	1.045116	0.628826	0.927302
Zn12	Zn	1.378450	0.962159	1.260635
O13	O	0.755512	0.251804	0.506188
O14	O	1.088845	0.585137	0.839522
O15	O	1.422178	0.918471	1.172855
O16	O	0.872417	0.219684	0.570773
O17	O	1.205750	0.553017	0.904106
O18	O	1.539083	0.886351	1.237440
O19	O	0.787566	0.283961	0.271328
O20	O	1.120900	0.617294	0.604661
O21	O	1.454233	0.950628	0.937995
O22	O	0.723482	0.134944	0.441739
O23	O	1.056816	0.468277	0.775072
O24	O	1.390149	0.801611	1.108405
O25	O	0.872350	0.283931	0.441676
O26	O	1.205683	0.617264	0.775009
O27	O	1.539016	0.950597	1.108343
O28	O	0.787721	0.134921	0.570809
O29	O	1.121055	0.468254	0.904142
O30	O	1.454388	0.801588	1.237475
O31	O	0.723394	0.219737	0.271355
O32	O	1.056727	0.553071	0.604688
O33	O	1.390061	0.886404	0.938022
O34	O	0.638656	0.219702	0.441650
O35	O	0.971989	0.553035	0.774984
O36	O	1.305323	0.886369	1.108317
O37	O	0.723407	0.283869	0.741001
O38	O	1.056741	0.617202	1.074335
O39	O	1.390074	0.950536	1.407668
O40	O	0.638624	0.283899	0.570653
O41	O	0.971957	0.617233	0.903987
O42	O	1.305290	0.950566	1.237320
O43	O	0.787679	0.219649	0.741068
O44	O	1.121012	0.552982	1.074402
O45	O	1.454345	0.886315	1.407735
O46	O	0.787524	0.368689	0.441588
O47	O	1.120857	0.702022	0.774921
O48	O	1.454190	1.035356	1.108255
O49	O	0.723319	0.368662	0.570618
O50	O	1.056652	0.701996	0.903951
O51	O	1.389986	1.035329	1.237285
C52	C	0.619669	0.251801	0.506147
C53	C	0.953002	0.585134	0.839480
C54	C	1.286336	0.918467	1.172813
C55	C	0.561555	0.251812	0.506154
C56	C	0.894888	0.585145	0.839487
C57	C	1.228222	0.918478	1.172820
C58	C	0.201221	0.218403	0.573521
C59	C	0.534554	0.551737	0.906854
C60	C	0.867888	0.885070	1.240188
C61	C	0.146617	0.218403	0.573528
C62	C	0.479950	0.551736	0.906861
C63	C	0.813284	0.885070	1.240194
O64	O	0.118405	0.189988	0.630754
O65	O	0.451738	0.523322	0.964087
O66	O	0.785072	0.856655	1.297421
N67	N	0.119273	0.251803	0.506217
N68	N	0.452606	0.585136	0.839550
N69	N	0.785939	0.918469	1.172884
C70	C	0.146535	0.285201	0.438888
C71	C	0.479869	0.618534	0.772222
C72	C	0.813202	0.951868	1.105555
O73	O	0.118263	0.313610	0.381635
O74	O	0.451596	0.646943	0.714969
O75	O	0.784930	0.980276	1.048302
C76	C	0.201139	0.285198	0.438877
C77	C	0.534472	0.618532	0.772211
C78	C	0.867805	0.951865	1.105544
C79	C	0.228480	0.251800	0.506200
C80	C	0.561813	0.585134	0.839533
C81	C	0.895147	0.918467	1.172866
C82	C	0.228563	0.185008	0.640837
C83	C	0.561896	0.518341	0.974171
C84	C	0.895229	0.851674	1.307504
C85	C	0.283163	0.185009	0.640832
C86	C	0.616497	0.518342	0.974165
C87	C	0.949830	0.851675	1.307498
C88	C	0.310422	0.218406	0.573510
C89	C	0.643756	0.551739	0.906844
C90	C	0.977089	0.885073	1.240177
C91	C	0.283081	0.251802	0.506194
C92	C	0.616414	0.585135	0.839528
C93	C	0.949747	0.918468	1.172861
C94	C	0.228400	0.318594	0.371544
C95	C	0.561734	0.651927	0.704877
C96	C	0.895067	0.985261	1.038210
C97	C	0.283008	0.318588	0.371538
C98	C	0.616341	0.651922	0.704871
C99	C	0.949674	0.985255	1.038205
C100	C	0.310349	0.285190	0.438860
C101	C	0.643682	0.618523	0.772194
C102	C	0.977016	0.951857	1.105527
C103	C	0.364940	0.285200	0.438867
C104	C	0.698274	0.618533	0.772201
C105	C	1.031607	0.951867	1.105534
N106	N	0.392285	0.251800	0.506178
N107	N	0.725618	0.585134	0.839511
N108	N	1.058951	0.918467	1.172844
C109	C	0.365026	0.218403	0.573499
C110	C	0.698359	0.551737	0.906833
C111	C	1.031692	0.885070	1.240166
C112	C	0.031865	0.285203	0.438915
C113	C	0.365198	0.618537	0.772249
C114	C	0.698531	0.951870	1.105582
C115	C	-0.022738	0.285209	0.438931
C116	C	0.310596	0.618542	0.772264
C117	C	0.643929	0.951876	1.105597
C118	C	-0.022652	0.218410	0.573569
C119	C	0.310681	0.551743	0.906902
C120	C	0.644014	0.885077	1.240236
C121	C	0.031951	0.218407	0.573558
C122	C	0.365284	0.551741	0.906891
C123	C	0.698618	0.885074	1.240225
C124	C	0.059209	0.251804	0.506226
C125	C	0.392542	0.585137	0.839559
C126	C	0.725876	0.918470	1.172892
C127	C	0.479691	0.218409	0.573484
C128	C	0.813024	0.551742	0.906817
C129	C	1.146357	0.885075	1.240150
C130	C	0.534296	0.218415	0.573475
C131	C	0.867629	0.551748	0.906809
C132	C	1.200963	0.885081	1.240142
C133	C	0.534206	0.285211	0.438833
C134	C	0.867539	0.618545	0.772167
C135	C	1.200873	0.951878	1.105500
C136	C	0.479605	0.285208	0.438845
C137	C	0.812939	0.618541	0.772179
C138	C	1.146272	0.951874	1.105512
C139	C	0.452349	0.251802	0.506174
C140	C	0.785682	0.585136	0.839507
C141	C	1.119016	0.918469	1.172840
O142	O	0.393187	0.313599	0.381667
O143	O	0.726520	0.646932	0.715001
O144	O	1.059853	0.980265	1.048334
O145	O	0.393305	0.189995	0.630733
O146	O	0.726638	0.523328	0.964066
O147	O	1.059971	0.856661	1.297400
C148	C	0.755421	0.387647	0.506112
C149	C	1.088754	0.720980	0.839445
C150	C	1.422087	1.054313	1.172779
C151	C	0.755430	0.445761	0.506114
C152	C	1.088763	0.779094	0.839448
C153	C	1.422096	1.112427	1.172781
C154	C	0.788909	0.806073	0.573541
C155	C	1.122242	1.139407	0.906874
C156	C	1.455575	1.472740	1.240207
C157	C	0.788917	0.860678	0.573565
C158	C	1.122251	1.194011	0.906898
C159	C	1.455584	1.527344	1.240231
O160	O	0.817329	0.888871	0.630796
O161	O	1.150662	1.222205	0.964129
O162	O	1.483995	1.555538	1.297463
N163	N	0.755505	0.888043	0.506318
N164	N	1.088838	1.221376	0.839651
N165	N	1.422172	1.554710	1.172985
C166	C	0.722078	0.860802	0.439051
C167	C	1.055412	1.194135	0.772384
C168	C	1.388745	1.527468	1.105717
O169	O	0.693659	0.889092	0.381855
O170	O	1.026992	1.222425	0.715188
O171	O	1.360326	1.555759	1.048522
C172	C	0.722067	0.806198	0.439033
C173	C	1.055401	1.139532	0.772366
C174	C	1.388734	1.472865	1.105700
C175	C	0.755486	0.778836	0.506277
C176	C	1.088819	1.112169	0.839610
C177	C	1.422152	1.445502	1.172943
C178	C	0.822324	0.778711	0.640780
C179	C	1.155657	1.112044	0.974113
C180	C	1.488990	1.445377	1.307446
C181	C	0.822316	0.724110	0.640754
C182	C	1.155649	1.057443	0.974088
C183	C	1.488982	1.390777	1.307421
C184	C	0.788892	0.696872	0.573490
C185	C	1.122226	1.030206	0.906823
C186	C	1.455559	1.363539	1.240157
C187	C	0.755477	0.724235	0.506251
C188	C	1.088811	1.057568	0.839584
C189	C	1.422144	1.390902	1.172918
C190	C	0.688638	0.778958	0.371772
C191	C	1.021972	1.112291	0.705105
C192	C	1.355305	1.445624	1.038439
C193	C	0.688630	0.724351	0.371761
C194	C	1.021963	1.057684	0.705094
C195	C	1.355297	1.391017	1.038427
C196	C	0.722048	0.696988	0.439004
C197	C	1.055382	1.030321	0.772337
C198	C	1.388715	1.363655	1.105671
C199	C	0.722046	0.642397	0.438961
C200	C	1.055380	0.975730	0.772295
C201	C	1.388713	1.309063	1.105628
N202	N	0.755459	0.615031	0.506208
N203	N	1.088792	0.948364	0.839541
N204	N	1.422125	1.281698	1.172875
C205	C	0.788882	0.642269	0.573472
C206	C	1.122215	0.975602	0.906806
C207	C	1.455548	1.308936	1.240139
C208	C	0.722103	0.975472	0.439094
C209	C	1.055436	1.308805	0.772428
C210	C	1.388770	1.642139	1.105761
C211	C	0.722116	1.030074	0.439106
C212	C	1.055450	1.363408	0.772439
C213	C	1.388783	1.696741	1.105773
C214	C	0.788955	1.029947	0.573621
C215	C	1.122288	1.363280	0.906955
C216	C	1.455621	1.696613	1.240288
C217	C	0.788944	0.975343	0.573604
C218	C	1.122277	1.308677	0.906937
C219	C	1.455610	1.642010	1.240270
C220	C	0.755515	0.948107	0.506341
C221	C	1.088849	1.281440	0.839674
C222	C	1.422182	1.614773	1.173008
C223	C	0.788862	0.527604	0.573413
C224	C	1.122196	0.860937	0.906747
C225	C	1.455529	1.194271	1.240080
C226	C	0.788853	0.472998	0.573379
C227	C	1.122186	0.806332	0.906712
C228	C	1.455520	1.139665	1.240045
C229	C	0.722013	0.473131	0.438868
C230	C	1.055346	0.806464	0.772201
C231	C	1.388679	1.139798	1.105534
C232	C	0.722024	0.527732	0.438898
C233	C	1.055357	0.861065	0.772231
C234	C	1.388691	1.194398	1.105564
C235	C	0.755451	0.554967	0.506179
C236	C	1.088784	0.888300	0.839512
C237	C	1.422117	1.221633	1.172846
O238	O	0.693648	0.614168	0.381762
O239	O	1.026981	0.947501	0.715096
O240	O	1.360314	1.280835	1.048429
O241	O	0.817291	0.613972	0.630668
O242	O	1.150625	0.947305	0.964001
O243	O	1.483958	1.280638	1.297335
C244	C	0.891885	0.251808	0.506231
C245	C	1.225218	0.585141	0.839564
C246	C	1.558551	0.918475	1.172897
C247	C	0.949999	0.251810	0.506249
C248	C	1.283332	0.585143	0.839582
C249	C	1.616665	0.918476	1.172915
C250	C	0.755548	0.251751	0.780222
C251	C	1.088882	0.585085	1.113555
C252	C	1.422215	0.918418	1.446888
C253	C	0.755564	0.251729	0.896999
C254	C	1.088897	0.585062	1.230332
C255	C	1.422231	0.918395	1.563665
C256	C	0.755586	1.115431	0.506299
C257	C	1.088919	1.448764	0.839632
C258	C	1.422252	1.782098	1.172966
C259	C	0.755538	1.057317	0.506375
C260	C	1.088871	1.390650	0.839708
C261	C	1.422204	1.723984	1.173041
C262	C	0.755505	0.251819	0.233221
C263	C	1.088839	0.585152	0.566554
C264	C	1.422172	0.918486	0.899888
C265	C	0.755591	0.251694	0.116445
C266	C	1.088924	0.585027	0.449778
C267	C	1.422258	0.918361	0.783111
C268	C	0.789035	0.218286	0.951897
C269	C	1.122368	0.551620	1.285230
C270	C	1.455701	0.884953	1.618564
C271	C	0.789047	0.218267	1.061621
C272	C	1.122380	0.551601	1.394955
C273	C	1.455714	0.884934	1.728288
C274	C	0.722116	0.285138	1.061539
C275	C	1.055450	0.618471	1.394872
C276	C	1.388783	0.951805	1.728205
C277	C	0.722102	0.285154	0.951816
C278	C	1.055435	0.618487	1.285150
C279	C	1.388768	0.951821	1.618483
C280	C	0.822497	0.184861	0.897079
C281	C	1.155830	0.518194	1.230413
C282	C	1.489163	0.851528	1.563746
C283	C	0.855971	0.151416	0.951978
C284	C	1.189304	0.484750	1.285311
C285	C	1.522637	0.818083	1.618645
C286	C	0.855983	0.151397	1.061702
C287	C	1.189316	0.484731	1.395035
C288	C	1.522650	0.818064	1.728369
C289	C	0.822522	0.184823	1.116528
C290	C	1.155855	0.518157	1.449861
C291	C	1.489188	0.851490	1.783194
H292	H	-0.044856	0.191215	0.628383
H293	H	0.288477	0.524548	0.961717
H294	H	0.621810	0.857881	1.295050
H295	H	0.816068	0.450721	0.628136
H296	H	1.149401	0.784055	0.961470
H297	H	1.482734	1.117388	1.294803
H298	H	0.822491	0.184874	0.807736
H299	H	1.155825	0.518207	1.141070
H300	H	1.489158	0.851541	1.474403
H301	H	0.849526	0.701834	0.695513
H302	H	1.182859	1.035168	1.028846
H303	H	1.516192	1.368501	1.362179
H304	H	0.694816	0.550011	0.384134
H305	H	1.028150	0.883345	0.717468
H306	H	1.361483	1.216678	1.050801
Cl307	Cl	0.679997	0.438879	0.354312
Cl308	Cl	1.013331	0.772212	0.687645
Cl309	Cl	1.346664	1.105546	1.020978
Cl310	Cl	0.864346	0.812942	0.725355
Cl311	Cl	1.197679	1.146276	1.058689
Cl312	Cl	1.531012	1.479609	1.392022
H313	H	-0.044994	0.312411	0.384122
H314	H	0.288339	0.645744	0.717455
H315	H	0.621672	0.979078	1.050788
H316	H	0.054055	0.312403	0.384088
H317	H	0.387388	0.645737	0.717421
H318	H	0.720722	0.979070	1.050755
H319	H	0.883210	0.124199	0.907332
H320	H	1.216544	0.457532	1.240665
H321	H	1.549877	0.790866	1.573998
H322	H	0.661426	0.801227	0.317015
H323	H	0.994759	1.134560	0.650348
H324	H	1.328093	1.467894	0.983681
H325	H	0.054209	0.191211	0.628376
H326	H	0.387542	0.524544	0.961709
H327	H	0.720876	0.857877	1.295042
Cl328	Cl	0.568665	0.176426	0.658118
Cl329	Cl	0.901998	0.509760	0.991451
Cl330	Cl	1.235331	0.843093	1.324785
H331	H	0.694874	0.312352	1.106186
H332	H	1.028207	0.645685	1.439520
H333	H	1.361540	0.979018	1.772853
Cl334	Cl	0.898065	0.109355	1.130715
Cl335	Cl	1.231398	0.442688	1.464048
Cl336	Cl	1.564732	0.776021	1.797382
H337	H	0.694839	0.312378	0.907117
H338	H	1.028172	0.645711	1.240450
H339	H	1.361506	0.979044	1.573784
Cl340	Cl	0.830955	0.940950	0.658143
Cl341	Cl	1.164289	1.274284	0.991477
Cl342	Cl	1.497622	1.607617	1.324810
Cl343	Cl	0.822531	0.184791	1.254468
Cl344	Cl	1.155865	0.518124	1.587801
Cl345	Cl	1.489198	0.851458	1.921135
H346	H	0.816078	0.549772	0.628207
H347	H	1.149411	0.883106	0.961541
H348	H	1.482745	1.216439	1.294874
Cl349	Cl	0.646603	0.690113	0.287195
Cl350	Cl	0.979937	1.023447	0.620529
Cl351	Cl	1.313270	1.356780	0.953862
H352	H	0.457505	0.191205	0.628306
H353	H	0.790838	0.524539	0.961639
H354	H	1.124172	0.857872	1.294972
Cl355	Cl	0.194304	0.143017	0.725483
Cl356	Cl	0.527637	0.476351	1.058817
Cl357	Cl	0.860971	0.809684	1.392150
Cl358	Cl	0.194042	0.360572	0.286883
Cl359	Cl	0.527375	0.693906	0.620216
Cl360	Cl	0.860708	1.027239	0.953550
Cl361	Cl	0.317527	0.143018	0.725466
Cl362	Cl	0.650861	0.476351	1.058799
Cl363	Cl	0.984194	0.809685	1.392133
Cl364	Cl	0.317271	0.360576	0.286889
Cl365	Cl	0.650605	0.693910	0.620222
Cl366	Cl	0.983938	1.027243	0.953555
H367	H	0.556410	0.312403	0.384024
H368	H	0.889743	0.645737	0.717358
H369	H	1.223077	0.979070	1.050691
Cl370	Cl	0.445232	0.327210	0.354241
Cl371	Cl	0.778566	0.660543	0.687574
Cl372	Cl	1.111899	0.993876	1.020908
H373	H	0.816169	1.052134	0.628394
H374	H	1.149502	1.385467	0.961727
H375	H	1.482835	1.718800	1.295060
Cl376	Cl	0.680110	1.064467	0.354553
Cl377	Cl	1.013443	1.397800	0.687886
Cl378	Cl	1.346777	1.731133	1.021220
Cl379	Cl	0.680078	0.941237	0.354519
Cl380	Cl	1.013411	1.274570	0.687852
Cl381	Cl	1.346745	1.607904	1.021186
