data_functionalizedCrystal
_audit_creation_method	'MofGen! by Chris Wilmer'
_symmetry_space_group_name_H-M	'P1'
_symmetry_Int_Tables_number	1
_symmetry_cell_setting	triclinic
loop_
_symmetry_equiv_pos_as_xyz
  x,y,z
_cell_length_a	19.805407
_cell_length_b	25.639239
_cell_length_c	19.805399
_cell_angle_alpha	90.028726
_cell_angle_beta	90.019573
_cell_angle_gamma	90.038686
loop_
_atom_site_label
_atom_site_type_symbol
_atom_site_fract_x
_atom_site_fract_y
_atom_site_fract_z
Zn1	Zn	1.034678	-0.208163	0.382714
Zn2	Zn	1.534678	0.291837	0.882714
Zn3	Zn	1.034569	-0.295597	0.269524
Zn4	Zn	1.534569	0.204403	0.769524
Zn5	Zn	0.921493	-0.208177	0.269539
Zn6	Zn	1.421493	0.291823	0.769539
Zn7	Zn	0.921432	-0.295569	0.382670
Zn8	Zn	1.421432	0.204431	0.882670
O9	O	0.978043	-0.251877	0.326112
O10	O	1.478043	0.248123	0.826112
O11	O	1.129380	-0.219767	0.367711
O12	O	1.629380	0.280233	0.867711
O13	O	1.019548	-0.284018	0.174809
O14	O	1.519548	0.215982	0.674809
O15	O	0.936578	-0.135010	0.284576
O16	O	1.436578	0.364990	0.784576
O17	O	1.129300	-0.284004	0.284551
O18	O	1.629300	0.215996	0.784551
O19	O	1.019735	-0.135000	0.367726
O20	O	1.519735	0.365000	0.867726
O21	O	0.936472	-0.219791	0.174820
O22	O	1.436472	0.280209	0.674820
O23	O	0.826768	-0.219764	0.284534
O24	O	1.326768	0.280236	0.784534
O25	O	0.936475	-0.283957	0.477393
O26	O	1.436475	0.216043	0.977393
O27	O	0.826723	-0.283971	0.367651
O28	O	1.326723	0.216029	0.867651
O29	O	1.019676	-0.219740	0.477425
O30	O	1.519676	0.280260	0.977425
O31	O	1.019489	-0.368758	0.284508
O32	O	1.519489	0.131242	0.784508
O33	O	0.936368	-0.368738	0.367637
O34	O	1.436368	0.131262	0.867637
C35	C	0.802187	-0.251867	0.326090
C36	C	1.302187	0.248133	0.826090
C37	C	0.726955	-0.251875	0.326097
C38	C	1.226955	0.248125	0.826097
C39	C	0.691605	-0.285357	0.369306
C40	C	1.191605	0.214643	0.869306
C41	C	0.620917	-0.285358	0.369315
C42	C	1.120917	0.214642	0.869315
C43	C	0.585579	-0.251879	0.326112
C44	C	1.085579	0.248121	0.826112
C45	C	0.620934	-0.218393	0.282901
C46	C	1.120934	0.281607	0.782901
C47	C	0.691621	-0.218390	0.282895
C48	C	1.191621	0.281610	0.782895
C49	C	0.335860	-0.218404	0.282923
C50	C	0.835860	0.281596	0.782923
C51	C	0.265168	-0.218411	0.282931
C52	C	0.765168	0.281589	0.782931
C53	C	0.265156	-0.285373	0.369343
C54	C	0.765156	0.214627	0.869343
C55	C	0.335843	-0.285370	0.369338
C56	C	0.835843	0.214630	0.869338
C57	C	0.371192	-0.251882	0.326129
C58	C	0.871192	0.248118	0.826129
C59	C	0.447840	-0.251881	0.326121
C60	C	0.947840	0.248119	0.826121
C61	C	0.508932	-0.251883	0.326117
C62	C	1.008932	0.248117	0.826117
C63	C	0.977929	-0.387719	0.326081
C64	C	1.477929	0.112281	0.826081
C65	C	0.977942	-0.445833	0.326090
C66	C	1.477942	0.054167	0.826090
C67	C	1.021437	-0.806194	0.282901
C68	C	1.521437	-0.306194	0.782901
C69	C	1.021463	-0.860799	0.282910
C70	C	1.521463	-0.360799	0.782910
O71	O	1.058326	-0.889034	0.246154
O72	O	1.558326	-0.389034	0.746154
N73	N	0.978162	-0.888116	0.326157
N74	N	1.478162	-0.388116	0.826157
C75	C	0.934836	-0.860825	0.369402
C76	C	1.434836	-0.360825	0.869402
O77	O	0.898008	-0.889075	0.406189
O78	O	1.398008	-0.389075	0.906189
C79	C	0.934814	-0.806222	0.369396
C80	C	1.434814	-0.306222	0.869396
C81	C	0.978113	-0.778908	0.326141
C82	C	1.478113	-0.278908	0.826141
C83	C	1.064733	-0.778880	0.239650
C84	C	1.564733	-0.278880	0.739650
C85	C	1.064706	-0.724279	0.239640
C86	C	1.564706	-0.224279	0.739640
C87	C	1.021382	-0.696993	0.282881
C88	C	1.521382	-0.196993	0.782881
C89	C	0.978086	-0.724307	0.326132
C90	C	1.478086	-0.224307	0.826132
C91	C	0.891492	-0.778933	0.412645
C92	C	1.391492	-0.278933	0.912645
C93	C	0.891474	-0.724326	0.412635
C94	C	1.391474	-0.224326	0.912635
C95	C	0.934773	-0.697012	0.369381
C96	C	1.434773	-0.197012	0.869381
C97	C	0.934735	-0.642421	0.369363
C98	C	1.434735	-0.142421	0.869363
N99	N	0.978036	-0.615104	0.326116
N100	N	1.478036	-0.115104	0.826116
C101	C	1.021360	-0.642390	0.282875
C102	C	1.521360	-0.142390	0.782875
C103	C	0.934887	-0.975496	0.369413
C104	C	1.434887	-0.475496	0.869413
C105	C	0.934906	-1.030098	0.369416
C106	C	1.434906	-0.530098	0.869416
C107	C	1.021533	-1.030068	0.282924
C108	C	1.521533	-0.530068	0.782924
C109	C	1.021511	-0.975464	0.282918
C110	C	1.521511	-0.475464	0.782918
C111	C	0.978188	-0.948179	0.326166
C112	C	1.478188	-0.448179	0.826166
C113	C	1.021299	-0.527725	0.282857
C114	C	1.521299	-0.027725	0.782857
C115	C	1.021266	-0.473119	0.282849
C116	C	1.521266	0.026881	0.782849
C117	C	0.934641	-0.473155	0.369343
C118	C	1.434641	0.026845	0.869343
C119	C	0.934671	-0.527756	0.369349
C120	C	1.434671	-0.027756	0.869349
C121	C	0.978006	-0.555039	0.326104
C122	C	1.478006	-0.055039	0.826104
O123	O	0.897893	-0.614151	0.406101
O124	O	1.397893	-0.114151	0.906101
O125	O	1.058188	-0.614134	0.246101
O126	O	1.558188	-0.114134	0.746101
C127	C	1.154585	-0.251887	0.326134
C128	C	1.654585	0.248113	0.826134
C129	C	1.229817	-0.251891	0.326144
C130	C	1.729817	0.248109	0.826144
C131	C	0.978081	-0.251844	0.502655
C132	C	1.478081	0.248156	1.002655
C133	C	0.978097	-0.251830	0.577887
C134	C	1.478097	0.248170	1.077887
C135	C	0.978175	-0.115504	0.326158
C136	C	1.478175	0.384496	0.826158
C137	C	0.978232	-0.057389	0.326177
C138	C	1.478232	0.442611	0.826177
C139	C	0.978044	-0.251872	0.150256
C140	C	1.478044	0.248128	0.650256
C141	C	0.978159	-0.251738	0.075024
C142	C	1.478159	0.248262	0.575024
C143	C	1.021421	-0.218390	0.613249
C144	C	1.521421	0.281610	1.113249
C145	C	1.021428	-0.218375	0.683937
C146	C	1.521428	0.281625	1.183937
C147	C	0.978114	-0.251802	0.719262
C148	C	1.478114	0.248198	1.219262
C149	C	0.934785	-0.285243	0.683895
C150	C	1.434785	0.214757	1.183895
C151	C	0.934775	-0.285255	0.613208
C152	C	1.434775	0.214745	1.113208
C153	C	0.934823	-0.285194	0.968969
C154	C	1.434823	0.214806	1.468969
C155	C	0.934838	-0.285181	1.039661
C156	C	1.434838	0.214819	1.539661
C157	C	1.021476	-0.218314	1.039698
C158	C	1.521476	0.281686	1.539698
C159	C	1.021466	-0.218326	0.969011
C160	C	1.521466	0.281674	1.469011
C161	C	0.978135	-0.251765	0.933650
C162	C	1.478135	0.248235	1.433650
C163	C	0.978127	-0.251780	0.857001
C164	C	1.478127	0.248220	1.357001
C165	C	0.978125	-0.251790	0.795909
C166	C	1.478125	0.248210	1.295909
H167	H	0.720402	-0.191122	0.247713
H168	H	1.220402	0.308878	0.747713
Cl169	Cl	1.075704	-0.438785	0.228468
Cl170	Cl	1.575704	0.061215	0.728468
Cl171	Cl	0.880381	-0.327207	1.084069
Cl172	Cl	1.380381	0.172793	1.584069
Cl173	Cl	0.380264	-0.327462	0.423650
Cl174	Cl	0.880264	0.172538	0.923650
Cl175	Cl	0.576509	-0.176300	0.228592
Cl176	Cl	1.076509	0.323700	0.728592
Cl177	Cl	0.220714	-0.327473	0.423664
Cl178	Cl	0.720714	0.172527	0.923664
Cl179	Cl	1.075925	-0.176358	0.728389
Cl180	Cl	1.575925	0.323642	1.228389
Cl181	Cl	0.220745	-0.176318	0.228615
Cl182	Cl	0.720745	0.323682	0.728615
H183	H	0.364633	-0.191140	0.247735
H184	H	0.864633	0.308860	0.747735
Cl185	Cl	0.576480	-0.327453	0.423638
Cl186	Cl	1.076480	0.172547	0.923638
H187	H	0.720372	-0.312622	0.404485
H188	H	1.220372	0.187378	0.904485
H189	H	0.856230	-0.801163	0.447864
H190	H	1.356230	-0.301163	0.947864
H191	H	1.056587	-0.549933	0.247644
H192	H	1.556587	-0.049933	0.747644
Cl193	Cl	1.075947	-0.176274	1.084156
Cl194	Cl	1.575947	0.323726	1.584156
H195	H	1.056739	-0.191108	0.940252
H196	H	1.556739	0.308892	1.440252
Cl197	Cl	1.075880	-0.176367	0.568847
Cl198	Cl	1.575880	0.323633	1.068847
Cl199	Cl	0.880413	-0.941200	0.423781
Cl200	Cl	1.380413	-0.441200	0.923781
Cl201	Cl	1.119153	-0.689950	0.185270
Cl202	Cl	1.619153	-0.189950	0.685270
Cl203	Cl	0.880350	-0.327232	0.924524
Cl204	Cl	1.380350	0.172768	1.424524
Cl205	Cl	1.119205	-0.813173	0.185283
Cl206	Cl	1.619205	-0.313173	0.685283
Cl207	Cl	0.880330	-0.327265	0.728304
Cl208	Cl	1.380330	0.172735	1.228304
H209	H	1.056769	-0.953228	0.247697
H210	H	1.556769	-0.453228	0.747697
H211	H	0.899489	-0.312480	0.584417
H212	H	1.399489	0.187520	1.084417
Cl213	Cl	1.075997	-1.064381	0.228562
Cl214	Cl	1.575997	-0.564381	0.728562
Cl215	Cl	0.880462	-1.064430	0.423788
Cl216	Cl	1.380462	-0.564430	0.923788
H217	H	0.856196	-0.702113	0.447855
H218	H	1.356196	-0.202113	0.947855
H219	H	0.899415	-0.549996	0.404573
H220	H	1.399415	-0.049996	0.904573
H221	H	0.899365	-0.450930	0.404548
H222	H	1.399365	0.049070	0.904548
