data_functionalizedCrystal
_audit_creation_method	'MofGen! by Chris Wilmer'
_symmetry_space_group_name_H-M	'P1'
_symmetry_Int_Tables_number	1
_symmetry_cell_setting	triclinic
loop_
_symmetry_equiv_pos_as_xyz
  x,y,z
_cell_length_a	10.654558
_cell_length_b	15.995292
_cell_length_c	9.130313
_cell_angle_alpha	90.001944
_cell_angle_beta	90.000369
_cell_angle_gamma	83.978466
loop_
_atom_site_label
_atom_site_type_symbol
_atom_site_fract_x
_atom_site_fract_y
_atom_site_fract_z
O1	O	1.666254	0.117635	-0.121768
O2	O	1.300627	0.128832	-0.121774
O3	O	1.493474	0.001401	-0.121773
O4	O	1.473408	0.245066	-0.121769
O5	O	1.493471	0.001405	0.121826
O6	O	1.300625	0.128836	0.121825
O7	O	1.666252	0.117638	0.121831
Cu8	Cu	1.483438	0.123237	0.144071
Cu9	Cu	1.483441	0.123233	-0.144013
O10	O	1.473406	0.245070	0.121830
C11	C	1.253840	0.128010	0.000025
C12	C	1.114430	0.125546	0.000022
C13	C	0.917939	0.122080	-0.132764
C14	C	1.048931	0.124388	-0.132766
C15	C	1.048932	0.124388	0.132819
C16	C	0.917944	0.122074	0.132819
C17	C	0.852445	0.120931	-0.265560
C18	C	0.917934	0.122088	-0.398358
C19	C	1.048926	0.124396	-0.398360
C20	C	1.114428	0.125547	-0.265563
C21	C	1.492656	-0.029798	0.000023
C22	C	1.490207	-0.122765	0.000012
C23	C	1.481207	-0.460556	0.000025
C24	C	1.620398	-0.436432	0.000572
C25	C	1.623043	-0.339741	0.000018
C26	C	1.485673	-0.292974	0.000019
C27	C	1.416085	-0.322482	-0.139084
C28	C	1.414410	-0.419282	-0.139195
C29	C	1.411565	-0.419152	0.137822
C30	C	1.416723	-0.322630	0.139655
C31	C	1.488190	-0.198263	0.000011
C32	C	1.478686	-0.555266	0.000023
C33	C	1.713040	0.118460	0.000030
C34	C	1.852450	0.120924	0.000023
C35	C	1.474224	0.276268	0.000031
C36	C	1.476672	0.369235	0.000033
N37	N	1.483446	0.123240	0.346693
N38	N	1.483444	0.123224	-0.346636
C39	C	1.568859	0.066833	0.423346
C40	C	1.568856	0.066822	0.576683
C41	C	1.398021	0.179634	0.576701
C42	C	1.398019	0.179640	0.423367
C43	C	1.654286	0.010433	0.346672
C44	C	1.739708	-0.045978	0.423325
C45	C	1.739704	-0.045988	0.576662
C46	C	1.654279	0.010413	0.653346
H47	H	0.864618	0.121148	0.240946
C48	C	1.480512	-0.295535	-0.277247
C49	C	1.523075	-0.366742	-0.359634
C50	C	1.582423	-0.341953	-0.486924
H51	H	1.550225	-0.266115	-0.251369
H52	H	1.422170	-0.259845	-0.333603
H53	H	1.581413	-0.402418	-0.303289
H54	H	1.453388	-0.396171	-0.385551
H55	H	1.524081	-0.306263	-0.543280
H56	H	1.652130	-0.312532	-0.461031
H57	H	1.611298	-0.390262	-0.542846
H58	H	1.677542	-0.320397	0.099730
C59	C	1.120231	0.125517	0.276881
C60	C	1.209604	0.054949	0.284621
C61	C	1.275317	0.055970	0.417302
H62	H	1.062620	0.124456	0.356091
H63	H	1.161815	0.175139	0.282410
H64	H	1.168022	0.005340	0.279106
H65	H	1.267242	0.055995	0.205442
H66	H	1.316901	0.105591	0.422832
H67	H	1.217697	0.054911	0.496502
H68	H	1.335972	0.008095	0.422566
H69	H	1.328466	0.225571	0.360956
H70	H	1.809251	-0.091903	0.360881
H71	H	1.455398	-0.446984	0.243262
C72	C	1.691637	-0.474542	-0.131760
C73	C	1.733020	-0.410253	-0.217534
C74	C	1.798657	-0.445328	-0.339443
H75	H	1.637392	-0.505357	-0.188203
H76	H	1.762355	-0.511122	-0.099823
H77	H	1.662312	-0.373688	-0.249473
H78	H	1.787281	-0.379433	-0.161135
H79	H	1.869375	-0.481908	-0.307506
H80	H	1.744405	-0.476142	-0.395874
H81	H	1.826754	-0.401715	-0.397648
C82	C	1.691751	-0.473451	0.133635
C83	C	1.611967	-0.518605	0.217565
C84	C	1.677658	-0.552732	0.340148
H85	H	1.719463	-0.429400	0.191072
H86	H	1.762717	-0.510038	0.102411
H87	H	1.541024	-0.482021	0.248790
H88	H	1.584251	-0.562668	0.160171
H89	H	1.748624	-0.589319	0.308924
H90	H	1.705367	-0.508676	0.397573
H91	H	1.623538	-0.583379	0.397102
H92	H	1.677866	-0.321019	-0.099870
C93	C	1.832378	-0.107368	0.659699
C94	C	1.812077	-0.189776	0.622351
C95	C	1.897442	-0.246340	0.698798
H96	H	1.820236	-0.099416	0.762024
H97	H	1.916206	-0.097798	0.634542
H98	H	1.728269	-0.199343	0.647518
H99	H	1.824229	-0.197756	0.520039
H100	H	1.981270	-0.236770	0.673640
H101	H	1.885293	-0.238380	0.801118
H102	H	1.883687	-0.302260	0.673457
H103	H	1.462605	-0.445819	-0.243179
C104	C	1.282932	-0.279611	0.150919
C105	C	1.197437	-0.340373	0.149202
C106	C	1.074174	-0.300776	0.159579
H107	H	1.266405	-0.242532	0.070329
H108	H	1.273834	-0.248622	0.239737
H109	H	1.206529	-0.371348	0.060395
H110	H	1.213923	-0.377455	0.229787
H111	H	1.065076	-0.269787	0.248397
H112	H	1.057660	-0.263698	0.078987
H113	H	1.016151	-0.341997	0.158429
H114	H	1.314999	-0.291204	-0.144254
C115	C	1.305084	0.240772	0.659879
C116	C	1.181690	0.226410	0.622613
C117	C	1.096045	0.282708	0.699221
H118	H	1.318525	0.296778	0.634825
H119	H	1.317237	0.232685	0.762191
H120	H	1.169543	0.234504	0.520324
H121	H	1.168209	0.170415	0.647671
H122	H	1.108198	0.274621	0.801533
H123	H	1.109498	0.338711	0.674160
H124	H	1.012313	0.272966	0.673957
C125	C	1.484033	-0.297420	0.277012
C126	C	1.400559	-0.244340	0.362339
C127	C	1.462518	-0.221107	0.488890
H128	H	1.554330	-0.268781	0.250302
H129	H	1.512373	-0.346312	0.331706
H130	H	1.372238	-0.195456	0.307656
H131	H	1.330260	-0.272961	0.389088
H132	H	1.490857	-0.269999	0.543584
H133	H	1.532813	-0.192471	0.462165
H134	H	1.405887	-0.185096	0.546806
H135	H	0.745784	0.119055	-0.265574
H136	H	1.309109	-0.433740	0.138761
H137	H	1.654299	0.010437	0.221818
C138	C	1.278258	-0.439314	-0.147727
C139	C	1.197868	-0.364285	-0.152751
C140	C	1.072443	-0.382700	-0.160648
H141	H	1.259005	-0.470732	-0.063885
H142	H	1.266958	-0.471273	-0.233542
H143	H	1.209162	-0.332338	-0.066945
H144	H	1.217081	-0.332856	-0.236589
H145	H	1.061142	-0.414660	-0.246463
H146	H	1.053202	-0.414120	-0.076804
H147	H	1.017883	-0.331797	-0.164072
H148	H	0.864594	0.121145	-0.506476
H149	H	1.102245	0.125330	-0.506490
H150	H	1.221092	0.127422	-0.265575
H151	H	1.654275	0.010394	0.778203
