data_functionalizedCrystal
_audit_creation_method	'MofGen! by Chris Wilmer'
_symmetry_space_group_name_H-M	'P1'
_symmetry_Int_Tables_number	1
_symmetry_cell_setting	triclinic
loop_
_symmetry_equiv_pos_as_xyz
  x,y,z
_cell_length_a	12.827893
_cell_length_b	16.625545
_cell_length_c	12.827885
_cell_angle_alpha	89.967039
_cell_angle_beta	90.019272
_cell_angle_gamma	89.975993
loop_
_atom_site_label
_atom_site_type_symbol
_atom_site_fract_x
_atom_site_fract_y
_atom_site_fract_z
Zn1	Zn	1.597607	0.320963	0.590826
Zn2	Zn	1.847607	0.570963	0.840826
Zn3	Zn	2.097607	0.820963	1.090826
Zn4	Zn	2.347607	1.070963	1.340826
Zn5	Zn	1.597475	0.455817	0.416076
Zn6	Zn	1.847475	0.705817	0.666076
Zn7	Zn	2.097475	0.955817	0.916076
Zn8	Zn	2.347475	1.205817	1.166076
Zn9	Zn	1.422848	0.321002	0.416099
Zn10	Zn	1.672848	0.571002	0.666099
Zn11	Zn	1.922848	0.821002	0.916099
Zn12	Zn	2.172848	1.071002	1.166099
Zn13	Zn	1.422807	0.455757	0.590776
Zn14	Zn	1.672807	0.705757	0.840776
Zn15	Zn	1.922807	0.955757	1.090776
Zn16	Zn	2.172807	1.205757	1.340776
O17	O	1.510184	0.388385	0.503444
O18	O	1.760184	0.638385	0.753444
O19	O	2.010184	0.888385	1.003444
O20	O	2.260184	1.138385	1.253444
O21	O	1.743825	0.338861	0.567656
O22	O	1.993825	0.588861	0.817656
O23	O	2.243825	0.838861	1.067656
O24	O	2.493825	1.088861	1.317656
O25	O	1.574272	0.437976	0.269843
O26	O	1.824272	0.687976	0.519843
O27	O	2.074272	0.937976	0.769843
O28	O	2.324272	1.187976	1.019843
O29	O	1.446103	0.208165	0.439307
O30	O	1.696103	0.458165	0.689307
O31	O	1.946103	0.708165	0.939307
O32	O	2.196103	0.958165	1.189307
O33	O	1.743728	0.437937	0.439268
O34	O	1.993728	0.687937	0.689268
O35	O	2.243728	0.937937	0.939268
O36	O	2.493728	1.187937	1.189268
O37	O	1.574497	0.208136	0.567678
O38	O	1.824497	0.458136	0.817678
O39	O	2.074497	0.708136	1.067678
O40	O	2.324497	0.958136	1.317678
O41	O	1.445975	0.338928	0.269860
O42	O	1.695975	0.588928	0.519860
O43	O	1.945975	0.838928	0.769860
O44	O	2.195975	1.088928	1.019860
O45	O	1.276607	0.338869	0.439259
O46	O	1.526607	0.588869	0.689259
O47	O	1.776607	0.838869	0.939259
O48	O	2.026607	1.088869	1.189259
O49	O	1.446033	0.437835	0.737019
O50	O	1.696033	0.687835	0.987019
O51	O	1.946033	0.937835	1.237019
O52	O	2.196033	1.187835	1.487019
O53	O	1.276577	0.437873	0.567594
O54	O	1.526577	0.687873	0.817594
O55	O	1.776577	0.937873	1.067594
O56	O	2.026577	1.187873	1.317594
O57	O	1.574457	0.338802	0.737055
O58	O	1.824457	0.588802	0.987055
O59	O	2.074457	0.838802	1.237055
O60	O	2.324457	1.088802	1.487055
O61	O	1.574232	0.568642	0.439220
O62	O	1.824232	0.818642	0.689220
O63	O	2.074232	1.068642	0.939220
O64	O	2.324232	1.318642	1.189220
O65	O	1.445905	0.568598	0.567572
O66	O	1.695905	0.818598	0.817572
O67	O	1.945905	1.068598	1.067572
O68	O	2.195905	1.318598	1.317572
C69	C	1.238674	0.388370	0.503424
C70	C	1.488674	0.638370	0.753424
C71	C	1.738674	0.888370	1.003424
C72	C	1.988674	1.138370	1.253424
C73	C	1.122521	0.388382	0.503441
C74	C	1.372521	0.638382	0.753441
C75	C	1.622521	0.888382	1.003441
C76	C	1.872521	1.138382	1.253441
C77	C	1.510078	0.597876	0.503411
C78	C	1.760078	0.847876	0.753411
C79	C	2.010078	1.097876	1.003411
C80	C	2.260078	1.347876	1.253411
C81	C	1.510128	0.687497	0.503431
C82	C	1.760128	0.937497	0.753431
C83	C	2.010128	1.187497	1.003431
C84	C	2.260128	1.437497	1.253431
C85	C	1.070749	0.437449	0.566847
C86	C	1.320749	0.687449	0.816847
C87	C	1.570749	0.937449	1.066847
C88	C	1.820749	1.187449	1.316847
C89	C	0.950699	0.437464	0.566865
C90	C	1.200699	0.687464	0.816865
C91	C	1.450699	0.937464	1.066865
C92	C	1.700699	1.187464	1.316865
C93	C	1.510299	1.015673	0.503556
C94	C	1.760299	1.265673	0.753556
C95	C	2.010299	1.515673	1.003556
C96	C	2.260299	1.765673	1.253556
C97	C	1.510248	0.924364	0.503524
C98	C	1.760248	1.174364	0.753524
C99	C	2.010248	1.424364	1.003524
C100	C	2.260248	1.674364	1.253524
C101	C	1.510212	0.851588	0.503493
C102	C	1.760212	1.101588	0.753493
C103	C	2.010212	1.351588	1.003493
C104	C	2.260212	1.601588	1.253493
C105	C	1.510163	0.760274	0.503463
C106	C	1.760163	1.010274	0.753463
C107	C	2.010163	1.260274	1.003463
C108	C	2.260163	1.510274	1.253463
C109	C	1.782754	0.388401	0.503465
C110	C	2.032754	0.638401	0.753465
C111	C	2.282754	0.888401	1.003465
C112	C	2.532754	1.138401	1.253465
C113	C	1.898907	0.388408	0.503474
C114	C	2.148907	0.638408	0.753474
C115	C	2.398907	0.888408	1.003474
C116	C	2.648907	1.138408	1.253474
C117	C	1.510310	1.178076	0.503513
C118	C	1.760310	1.428076	0.753513
C119	C	2.010310	1.678076	1.003513
C120	C	2.260310	1.928076	1.253513
C121	C	1.510342	1.088455	0.503574
C122	C	1.760342	1.338455	0.753574
C123	C	2.010342	1.588455	1.003574
C124	C	2.260342	1.838455	1.253574
C125	C	1.510255	0.388308	0.776015
C126	C	1.760255	0.638308	1.026015
C127	C	2.010255	0.888308	1.276015
C128	C	2.260255	1.138308	1.526015
C129	C	1.510286	0.388275	0.892168
C130	C	1.760286	0.638275	1.142168
C131	C	2.010286	0.888275	1.392168
C132	C	2.260286	1.138275	1.642168
C133	C	1.510173	0.388404	0.231934
C134	C	1.760173	0.638404	0.481934
C135	C	2.010173	0.888404	0.731934
C136	C	2.260173	1.138404	0.981934
C137	C	1.510346	0.388210	0.115782
C138	C	1.760346	0.638210	0.365782
C139	C	2.010346	0.888210	0.615782
C140	C	2.260346	1.138210	0.865782
C141	C	1.573841	0.339261	0.943971
C142	C	1.823841	0.589261	1.193971
C143	C	2.073841	0.839261	1.443971
C144	C	2.323841	1.089261	1.693971
C145	C	1.573874	0.339225	1.064021
C146	C	1.823874	0.589225	1.314021
C147	C	2.073874	0.839225	1.564021
C148	C	2.323874	1.089225	1.814021
H149	H	1.115302	0.479444	0.621121
H150	H	1.365302	0.729444	0.871121
H151	H	1.615302	0.979444	1.121121
H152	H	1.865302	1.229444	1.371121
Br153	Br	1.419655	0.458164	1.041545
Br154	Br	1.669655	0.708164	1.291545
Br155	Br	1.919655	0.958164	1.541545
Br156	Br	2.169655	1.208164	1.791545
Br157	Br	1.664466	0.269335	0.869768
Br158	Br	1.914466	0.519335	1.119768
Br159	Br	2.164466	0.769335	1.369768
Br160	Br	2.414466	1.019335	1.619768
Br161	Br	1.664579	0.269287	1.138265
Br162	Br	1.914579	0.519287	1.388265
Br163	Br	2.164579	0.769287	1.638265
Br164	Br	2.414579	1.019287	1.888265
Br165	Br	0.876499	0.507491	0.657339
Br166	Br	1.126499	0.757491	0.907339
Br167	Br	1.376499	1.007491	1.157339
Br168	Br	1.626499	1.257491	1.407339
H169	H	1.455891	0.430206	0.936694
H170	H	1.705891	0.680206	1.186694
H171	H	1.955891	0.930206	1.436694
H172	H	2.205891	1.180206	1.686694
H173	H	1.077968	0.346382	0.449174
H174	H	1.327968	0.596382	0.699174
H175	H	1.577968	0.846382	0.949174
H176	H	1.827968	1.096382	1.199174
Br177	Br	0.973101	0.318392	0.412979
Br178	Br	1.223101	0.568392	0.662979
Br179	Br	1.473101	0.818392	0.912979
Br180	Br	1.723101	1.068392	1.162979
