data_functionalizedCrystal
_audit_creation_method	'MofGen! by Chris Wilmer'
_symmetry_space_group_name_H-M	'P1'
_symmetry_Int_Tables_number	1
_symmetry_cell_setting	triclinic
loop_
_symmetry_equiv_pos_as_xyz
  x,y,z
_cell_length_a	14.971486
_cell_length_b	11.026607
_cell_length_c	14.048226
_cell_angle_alpha	89.996210
_cell_angle_beta	89.998499
_cell_angle_gamma	96.100073
loop_
_atom_site_label
_atom_site_type_symbol
_atom_site_fract_x
_atom_site_fract_y
_atom_site_fract_z
O1	O	1.212292	0.158180	-0.079046
O2	O	0.954927	0.177123	-0.079071
O3	O	1.062279	-0.009032	-0.079057
O4	O	1.104939	0.344336	-0.079060
O5	O	1.062261	-0.009043	0.079264
O6	O	0.954908	0.177112	0.079250
O7	O	1.212274	0.158169	0.079275
Zn8	Zn	1.083588	0.167639	0.104399
Zn9	Zn	1.083612	0.167653	-0.104196
O10	O	1.104921	0.344325	0.079261
C11	C	0.921457	0.176270	0.000086
C12	C	0.821753	0.173732	0.000076
C13	C	0.782051	0.283093	0.000077
C14	C	0.688368	0.280700	0.000091
C15	C	0.634389	0.168945	0.000098
C16	C	0.674098	0.059576	0.000100
C17	C	0.767779	0.061969	0.000093
C18	C	0.478837	0.054594	0.000113
C19	C	0.385150	0.052200	0.000119
C20	C	0.399426	0.273325	0.000111
C21	C	0.493107	0.275718	0.000104
C22	C	0.532809	0.166348	0.000105
C23	C	1.054400	-0.054260	0.000101
C24	C	1.030939	-0.189008	0.000096
C25	C	1.095719	-0.262720	0.000101
C26	C	1.071472	-0.401989	0.000095
C27	C	1.245743	0.159022	0.000116
C28	C	1.345447	0.161561	0.000119
C29	C	1.112800	0.389552	0.000100
C30	C	1.136261	0.524300	0.000100
N31	N	1.083578	0.167628	0.246760
N32	N	1.083628	0.167654	-0.246556
C33	C	1.131138	0.085233	0.296584
C34	C	1.131144	0.085232	0.396242
C35	C	1.083595	0.167634	0.446074
C36	C	1.036029	0.250033	0.396242
C37	C	1.036018	0.250027	0.296587
C38	C	1.036056	0.250042	0.603957
C39	C	1.036068	0.250050	0.703619
C40	C	1.131182	0.085247	0.703612
C41	C	1.131171	0.085241	0.603956
C42	C	1.083607	0.167642	0.554132
H43	H	0.537055	0.366719	0.000089
H44	H	0.630141	-0.031417	0.000119
O45	O	0.810609	-0.055983	0.000089
H46	H	0.757337	-0.134096	0.000087
H47	H	0.997308	0.317122	0.436821
H48	H	0.957528	-0.229006	0.000082
H49	H	1.169863	0.018137	0.256018
H50	H	0.367096	0.362378	0.000115
O51	O	0.645542	0.398653	0.000092
H52	H	0.698815	0.476764	0.000074
H53	H	1.169129	-0.222722	0.000114
H54	H	0.997288	0.317120	0.256021
O55	O	0.974222	-0.454946	0.000091
H56	H	0.970438	-0.556023	0.000097
H57	H	1.169871	0.018139	0.436809
O58	O	1.182452	-0.003635	0.550203
H59	H	1.215520	-0.060943	0.601589
O60	O	1.182479	-0.003641	0.757342
H61	H	1.174490	0.010191	0.835011
O62	O	1.233512	-0.422746	0.000115
H63	H	1.237298	-0.321669	0.000125
O64	O	0.984762	0.338897	0.757373
H65	H	0.951667	0.396176	0.705987
H66	H	0.341202	-0.038801	0.000126
O67	O	0.984760	0.338921	0.550212
H68	H	0.951707	0.396232	0.601603
H69	H	0.825994	0.374096	0.000070
O70	O	0.521665	-0.063366	0.000109
H71	H	0.468393	-0.141480	0.000104
