data_functionalizedCrystal
_audit_creation_method	'MofGen! by Chris Wilmer'
_symmetry_space_group_name_H-M	'P1'
_symmetry_Int_Tables_number	1
_symmetry_cell_setting	triclinic
loop_
_symmetry_equiv_pos_as_xyz
  x,y,z
_cell_length_a	16.625546
_cell_length_b	19.077300
_cell_length_c	19.076919
_cell_angle_alpha	85.332737
_cell_angle_beta	92.269917
_cell_angle_gamma	92.272239
loop_
_atom_site_label
_atom_site_type_symbol
_atom_site_fract_x
_atom_site_fract_y
_atom_site_fract_z
Zn1	Zn	-0.386172	-1.061661	-0.355292
Zn2	Zn	-0.052839	-0.728328	-0.021958
Zn3	Zn	0.280495	-0.394995	0.311375
Zn4	Zn	-0.515798	-1.066320	-0.237408
Zn5	Zn	-0.182465	-0.732987	0.095926
Zn6	Zn	0.150869	-0.399654	0.429259
Zn7	Zn	-0.375787	-0.948519	-0.242156
Zn8	Zn	-0.042454	-0.615186	0.091177
Zn9	Zn	0.290880	-0.281852	0.424510
Zn10	Zn	-0.515763	-0.943752	-0.359987
Zn11	Zn	-0.182429	-0.610419	-0.026654
Zn12	Zn	0.150904	-0.277085	0.306680
O13	O	-0.448380	-1.005063	-0.298711
O14	O	-0.115047	-0.671730	0.034623
O15	O	0.218287	-0.338396	0.367956
O16	O	-0.407728	-1.160925	-0.335702
O17	O	-0.074395	-0.827592	-0.002369
O18	O	0.258938	-0.494259	0.330965
O19	O	-0.492894	-1.054638	-0.139390
O20	O	-0.159561	-0.721305	0.193943
O21	O	0.173773	-0.387972	0.527276
O22	O	-0.264335	-0.963573	-0.257186
O23	O	0.068998	-0.630239	0.076147
O24	O	0.402331	-0.296906	0.409480
O25	O	-0.502964	-1.164348	-0.249093
O26	O	-0.169631	-0.831015	0.084240
O27	O	0.163703	-0.497681	0.417573
O28	O	-0.271965	-1.046698	-0.340306
O29	O	0.061368	-0.713365	-0.006973
O30	O	0.394701	-0.380031	0.326360
O31	O	-0.390028	-0.968090	-0.142879
O32	O	-0.056695	-0.634757	0.190454
O33	O	0.276638	-0.301424	0.523788
O34	O	-0.389994	-0.849241	-0.261739
O35	O	-0.056661	-0.515907	0.071594
O36	O	0.276673	-0.182574	0.404928
O37	O	-0.502904	-0.955448	-0.458011
O38	O	-0.169570	-0.622115	-0.124678
O39	O	0.163763	-0.288781	0.208655
O40	O	-0.492833	-0.845738	-0.348309
O41	O	-0.159500	-0.512405	-0.014975
O42	O	0.173833	-0.179072	0.318358
O43	O	-0.407694	-1.042076	-0.454562
O44	O	-0.074361	-0.708742	-0.121229
O45	O	0.258973	-0.375409	0.212105
O46	O	-0.628623	-1.050016	-0.253646
O47	O	-0.295289	-0.716683	0.079687
O48	O	0.038044	-0.383349	0.413021
O49	O	-0.628597	-0.959966	-0.343704
O50	O	-0.295263	-0.626632	-0.010371
O51	O	0.038070	-0.293299	0.322962
C52	C	-0.440283	-0.821912	-0.306049
C53	C	-0.106950	-0.488578	0.027284
C54	C	0.226383	-0.155245	0.360618
C55	C	-0.436840	-0.743558	-0.309205
C56	C	-0.103507	-0.410225	0.024128
C57	C	0.229827	-0.076891	0.357462
C58	C	-0.412080	-0.302318	-0.331852
C59	C	-0.078747	0.031016	0.001481
C60	C	0.254587	0.364349	0.334815
C61	C	-0.415330	-0.375939	-0.328882
C62	C	-0.081997	-0.042606	0.004451
C63	C	0.251336	0.290727	0.337784
C64	C	-0.466452	-0.414526	-0.282232
C65	C	-0.133118	-0.081193	0.051101
C66	C	0.200215	0.252140	0.384435
C67	C	-0.514332	-0.379487	-0.238553
C68	C	-0.180998	-0.046154	0.094780
C69	C	0.152335	0.287179	0.428113
C70	C	-0.511085	-0.305867	-0.241527
C71	C	-0.177752	0.027467	0.091806
C72	C	0.155582	0.360800	0.425140
C73	C	-0.481473	-0.634899	-0.268500
C74	C	-0.148140	-0.301565	0.064834
C75	C	0.185193	0.031768	0.398167
C76	C	-0.484715	-0.708524	-0.265528
C77	C	-0.151381	-0.375191	0.067805
C78	C	0.181952	-0.041858	0.401139
C79	C	-0.385714	-0.704971	-0.355858
C80	C	-0.052381	-0.371638	-0.022525
C81	C	0.280953	-0.038304	0.310808
C82	C	-0.382468	-0.631349	-0.358825
C83	C	-0.049135	-0.298016	-0.025491
C84	C	0.284198	0.035317	0.307842
C85	C	-0.430351	-0.596317	-0.315149
C86	C	-0.097018	-0.262984	0.018185
C87	C	0.236315	0.070350	0.351518
N88	N	-0.469773	-0.489780	-0.279194
N89	N	-0.136440	-0.156446	0.054139
N90	N	0.196893	0.176887	0.387472
N91	N	-0.427033	-0.521065	-0.318191
N92	N	-0.093700	-0.187731	0.015143
N93	N	0.239633	0.145602	0.348476
C94	C	-0.657867	-1.004998	-0.298684
C95	C	-0.324533	-0.671664	0.034649
C96	C	0.008800	-0.338331	0.367983
C97	C	-0.747490	-1.005033	-0.298693
C98	C	-0.414156	-0.671700	0.034640
C99	C	-0.080823	-0.338366	0.367973
C100	C	-1.075674	-1.005153	-0.298762
C101	C	-0.742341	-0.671820	0.034572
C102	C	-0.409007	-0.338486	0.367905
C103	C	-0.984363	-1.005117	-0.298745
C104	C	-0.651030	-0.671784	0.034589
C105	C	-0.317696	-0.338451	0.367922
C106	C	-0.911585	-1.005093	-0.298727
C107	C	-0.578251	-0.671759	0.034606
C108	C	-0.244918	-0.338426	0.367939
C109	C	-0.820268	-1.005058	-0.298711
C110	C	-0.486935	-0.671725	0.034622
C111	C	-0.153601	-0.338391	0.367956
C112	C	-0.238077	-1.005147	-0.298752
C113	C	0.095257	-0.671814	0.034581
C114	C	0.428590	-0.338481	0.367914
C115	C	-0.148458	-1.005183	-0.298770
C116	C	0.184875	-0.671850	0.034563
C117	C	0.518209	-0.338517	0.367897
C118	C	-0.456453	-0.997711	-0.482580
C119	C	-0.123120	-0.664377	-0.149247
C120	C	0.210213	-0.331044	0.184087
C121	C	-0.459894	-0.994577	-0.560934
C122	C	-0.126560	-0.661244	-0.227601
C123	C	0.206773	-0.327911	0.105732
C124	C	-0.456504	-0.188930	-0.291337
C125	C	-0.123171	0.144403	0.041997
C126	C	0.210163	0.477737	0.375330
C127	C	-0.459955	-0.267284	-0.288175
C128	C	-0.126621	0.066049	0.045158
C129	C	0.206712	0.399383	0.378492
C130	C	-0.411942	-1.038205	-0.595951
C131	C	-0.078608	-0.704872	-0.262617
C132	C	0.254725	-0.371539	0.070716
C133	C	-0.415171	-1.035253	-0.669573
C134	C	-0.081838	-0.701919	-0.336240
C135	C	0.251496	-0.368586	-0.002906
C136	C	-0.466357	-0.988675	-0.708178
C137	C	-0.133023	-0.655342	-0.374844
C138	C	0.200310	-0.322008	-0.041511
C139	C	-0.514311	-0.945042	-0.673156
C140	C	-0.180977	-0.611709	-0.339823
C141	C	0.152356	-0.278376	-0.006490
C142	C	-0.511077	-0.947992	-0.599536
C143	C	-0.177743	-0.614659	-0.266202
C144	C	0.155590	-0.281325	0.067131
C145	C	-0.481340	-0.975014	-0.928554
C146	C	-0.148007	-0.641681	-0.595220
C147	C	0.185327	-0.308347	-0.261887
C148	C	-0.484572	-0.972069	-1.002179
C149	C	-0.151239	-0.638736	-0.668846
C150	C	0.182095	-0.305403	-0.335513
C151	C	-0.385431	-1.062279	-0.998591
C152	C	-0.052098	-0.728946	-0.665258
C153	C	0.281236	-0.395613	-0.331924
C154	C	-0.382205	-1.065228	-0.924969
C155	C	-0.048872	-0.731894	-0.591635
C156	C	0.284462	-0.398561	-0.258302
C157	C	-0.430156	-1.021592	-0.889954
C158	C	-0.096822	-0.688259	-0.556621
C159	C	0.236511	-0.354926	-0.223287
N160	N	-0.469661	-0.985658	-0.783432
N161	N	-0.136327	-0.652324	-0.450098
N162	N	0.197006	-0.318991	-0.116765
N163	N	-0.426847	-1.024607	-0.814701
N164	N	-0.093514	-0.691273	-0.481368
N165	N	0.239820	-0.357940	-0.148035
C166	C	-0.440282	-1.012428	-0.115555
C167	C	-0.106948	-0.679094	0.217778
C168	C	0.226385	-0.345761	0.551112
C169	C	-0.436620	-1.015697	-0.037196
C170	C	-0.103287	-0.682364	0.296138
C171	C	0.230047	-0.349031	0.629471
H172	H	-0.340843	-0.599937	-0.396815
H173	H	-0.007510	-0.266603	-0.063482
H174	H	0.325824	0.066730	0.269852
N175	N	-0.336460	-1.106845	-1.034369
N176	N	-0.003126	-0.773511	-0.701036
N177	N	0.330207	-0.440178	-0.367702
N178	N	-0.339352	-1.104209	-1.100101
N179	N	-0.006019	-0.770875	-0.766768
N180	N	0.327314	-0.437542	-0.433435
H181	H	-0.304763	-1.135684	-1.125371
H182	H	0.028570	-0.802350	-0.792038
H183	H	0.361903	-0.469017	-0.458704
N184	N	-0.530359	-0.599110	-0.223877
N185	N	-0.197026	-0.265776	0.109456
N186	N	0.136308	0.067557	0.442790
N187	N	-0.527454	-0.533378	-0.226530
N188	N	-0.194121	-0.200045	0.106803
N189	N	0.139212	0.133289	0.440137
H190	H	-0.561978	-0.508098	-0.195010
H191	H	-0.228645	-0.174765	0.138323
H192	H	0.104688	0.158569	0.471656
N193	N	-0.336810	-0.740768	-0.400464
N194	N	-0.003477	-0.407434	-0.067131
N195	N	0.329857	-0.074101	0.266203
N196	N	-0.339712	-0.806500	-0.397804
N197	N	-0.006378	-0.473166	-0.064471
N198	N	0.326955	-0.139833	0.268862
H199	H	-0.305173	-0.831782	-0.429310
H200	H	0.028161	-0.498449	-0.095976
H201	H	0.361494	-0.165115	0.237357
N202	N	-0.566540	-0.418913	-0.190901
N203	N	-0.233207	-0.085580	0.142433
N204	N	0.100126	0.247754	0.475766
N205	N	-0.537925	-0.461783	-0.144368
N206	N	-0.204592	-0.128450	0.188965
N207	N	0.128741	0.204884	0.522298
H208	H	-0.574796	-0.489628	-0.110711
H209	H	-0.241463	-0.156295	0.222623
H210	H	0.091870	0.177039	0.555956
H211	H	-0.526347	-0.739940	-0.227538
H212	H	-0.193013	-0.406607	0.105795
H213	H	0.140320	-0.073273	0.439128
H214	H	-0.550071	-0.277343	-0.205962
H215	H	-0.216738	0.055990	0.127372
H216	H	0.116596	0.389323	0.460705
N217	N	-0.536838	-0.924462	-1.041605
N218	N	-0.203504	-0.591129	-0.708272
N219	N	0.129829	-0.257795	-0.374938
N220	N	-0.579628	-0.885490	-1.010335
N221	N	-0.246294	-0.552157	-0.677002
N222	N	0.087039	-0.218824	-0.343669
H223	H	-0.616529	-0.851861	-1.038179
H224	H	-0.283196	-0.518527	-0.704846
H225	H	0.050138	-0.185194	-0.371513
N226	N	-0.359657	-1.085793	-0.556531
N227	N	-0.026323	-0.752459	-0.223197
N228	N	0.307010	-0.419126	0.110136
N229	N	-0.316846	-1.124741	-0.587808
N230	N	0.016488	-0.791408	-0.254474
N231	N	0.349821	-0.458074	0.078859
H232	H	-0.279916	-1.158350	-0.559970
H233	H	0.053418	-0.825017	-0.226636
H234	H	0.386751	-0.491684	0.106697
N235	N	-0.366183	-1.079823	-0.705330
N236	N	-0.032850	-0.746489	-0.371996
N237	N	0.300483	-0.413156	-0.038663
N238	N	-0.320490	-1.121410	-0.670853
N239	N	0.012844	-0.788077	-0.337520
N240	N	0.346177	-0.454744	-0.004187
H241	H	-0.285890	-1.152891	-0.696105
H242	H	0.047444	-0.819557	-0.362772
H243	H	0.380777	-0.486224	-0.029439
H244	H	-0.340526	-1.103158	-0.893541
H245	H	-0.007193	-0.769825	-0.560208
H246	H	0.326140	-0.436491	-0.226875
H247	H	-0.520397	-0.939493	-0.900053
H248	H	-0.187064	-0.606160	-0.566720
H249	H	0.146269	-0.272827	-0.233386
H250	H	-0.555984	-0.907115	-0.704594
H251	H	-0.222651	-0.573782	-0.371261
H252	H	0.110682	-0.240449	-0.037928
N253	N	-0.560047	-0.903418	-0.563765
N254	N	-0.226714	-0.570084	-0.230431
N255	N	0.106620	-0.236751	0.102902
N256	N	-0.552178	-0.838044	-0.574590
N257	N	-0.218845	-0.504711	-0.241257
N258	N	0.114489	-0.171377	0.092077
H259	H	-0.586761	-0.806559	-0.549327
H260	H	-0.253428	-0.473226	-0.215994
H261	H	0.079905	-0.139892	0.117340
N262	N	-0.359870	-0.262912	-0.379518
N263	N	-0.026536	0.070421	-0.046185
N264	N	0.306797	0.403755	0.287148
N265	N	-0.368569	-0.268557	-0.444223
N266	N	-0.035236	0.064777	-0.110890
N267	N	0.298098	0.398110	0.222443
H268	H	-0.331699	-0.240727	-0.477893
H269	H	0.001634	0.092606	-0.144560
H270	H	0.334968	0.425939	0.188773
N271	N	-0.366430	-0.411714	-0.373509
N272	N	-0.033097	-0.078380	-0.040176
N273	N	0.300236	0.254953	0.293157
N274	N	-0.320791	-0.377253	-0.415159
N275	N	0.012543	-0.043920	-0.081826
N276	N	0.345876	0.289413	0.251508
H277	H	-0.286255	-0.402518	-0.446682
H278	H	0.047078	-0.069184	-0.113348
H279	H	0.380411	0.264149	0.219985
