data_functionalizedCrystal
_audit_creation_method	'MofGen! by Chris Wilmer'
_symmetry_space_group_name_H-M	'P1'
_symmetry_Int_Tables_number	1
_symmetry_cell_setting	triclinic
loop_
_symmetry_equiv_pos_as_xyz
  x,y,z
_cell_length_a	23.532407
_cell_length_b	14.853567
_cell_length_c	13.330367
_cell_angle_alpha	90.004582
_cell_angle_beta	90.009308
_cell_angle_gamma	83.241804
loop_
_atom_site_label
_atom_site_type_symbol
_atom_site_fract_x
_atom_site_fract_y
_atom_site_fract_z
O1	O	-0.074353	-1.195556	-0.083365
O2	O	-0.083210	-0.932999	-0.083383
O3	O	0.004116	-1.072195	-0.083355
O4	O	-0.161678	-1.056360	-0.083393
O5	O	0.004118	-1.072175	0.083492
O6	O	-0.083208	-0.932979	0.083464
O7	O	-0.074351	-1.195536	0.083482
Cu8	Cu	-0.078779	-1.064255	0.098707
Cu9	Cu	-0.078782	-1.064279	-0.098609
O10	O	-0.161677	-1.056340	0.083454
C11	C	0.025335	-1.071782	0.000071
C12	C	0.088557	-1.070569	0.000078
C13	C	-0.082808	-0.899405	0.000038
C14	C	-0.081605	-0.799334	0.000032
C15	C	-0.182895	-1.056753	0.000026
C16	C	-0.246118	-1.057966	0.000011
C17	C	0.487334	-1.145338	0.000029
C18	C	0.546739	-1.144212	0.000021
O19	O	0.583181	-1.213524	-0.000011
N20	N	0.569726	-1.061460	0.000016
C21	C	0.533305	-0.979829	0.000008
O22	O	0.558312	-0.909339	0.000002
C23	C	0.473901	-0.980957	0.000009
C24	C	0.450917	-1.063714	0.000024
C25	C	0.464349	-1.228089	0.000043
C26	C	0.404948	-1.229214	0.000052
C27	C	0.368531	-1.147590	0.000048
C28	C	0.391516	-1.064839	0.000034
C29	C	0.437481	-0.899327	-0.000006
C30	C	0.378073	-0.900461	-0.000006
C31	C	0.355089	-0.983218	0.000009
C32	C	0.295698	-0.984341	0.000039
N33	N	0.272711	-1.067092	0.000044
C34	C	0.309128	-1.148717	0.000048
C35	C	0.658058	-0.977469	0.000005
C36	C	0.717461	-0.976340	0.000012
C37	C	0.730890	-1.140723	0.000023
C38	C	0.671486	-1.141851	0.000023
C39	C	0.635070	-1.060220	0.000011
C40	C	0.184380	-1.151075	0.000069
C41	C	0.124974	-1.152194	0.000083
C42	C	0.111549	-0.987811	0.000067
C43	C	0.170951	-0.986692	0.000058
C44	C	0.207365	-1.068331	0.000056
O45	O	0.259221	-0.915065	0.000067
O46	O	0.284112	-1.219196	0.000041
C47	C	-0.074753	-1.229130	0.000058
C48	C	-0.075956	-1.329200	0.000058
N49	N	-0.078777	-1.064245	0.237489
C50	C	-0.024648	-0.387423	0.000067
C51	C	-0.128393	-0.365008	0.000043
C52	C	-0.129524	-0.459029	0.000039
C53	C	-0.078216	-0.517252	0.000048
C54	C	-0.025777	-0.481454	0.000061
C55	C	-0.181961	-0.494835	0.000016
C56	C	-0.183094	-0.588861	0.000012
C57	C	-0.131786	-0.647086	0.000028
C58	C	-0.079345	-0.611283	0.000042
C59	C	-0.028037	-0.669506	0.000051
C60	C	0.024404	-0.633704	0.000072
C61	C	0.025531	-0.539679	0.000077
C62	C	-0.132913	-0.741111	0.000023
C63	C	-0.029166	-0.763536	0.000044
N64	N	-0.078779	-1.064296	-0.237390
C65	C	-0.117434	-1.002641	0.710099
C66	C	-0.040124	-1.125942	0.710092
C67	C	-0.040123	-1.125932	0.605074
C68	C	-0.078778	-1.064276	0.552563
C69	C	-0.117435	-1.002631	0.605071
C70	C	-0.001470	-1.187582	0.552558
C71	C	-0.001467	-1.187575	0.447533
C72	C	-0.040120	-1.125914	0.395021
C73	C	-0.078778	-1.064266	0.447535
C74	C	-0.117434	-1.002610	0.395025
C75	C	-0.156089	-0.940957	0.447537
C76	C	-0.156088	-0.940970	0.552559
C77	C	-0.040122	-1.125901	0.289999
C78	C	-0.117434	-1.002600	0.289997
H79	H	0.106264	-1.219587	0.000098
F80	F	0.039673	-1.253189	0.391653
F81	F	0.339319	-0.813576	-0.000022
H82	H	0.736168	-0.908951	0.000017
F83	F	0.647031	-1.229931	0.000040
H84	H	-0.008652	-1.176102	0.247249
H85	H	0.081888	-0.921355	0.000067
F86	F	0.195413	-0.898614	0.000060
F87	F	0.025444	-0.825495	0.000061
F88	F	-0.236563	-0.432866	-0.000008
H89	H	-0.148906	-0.952441	0.752857
H90	H	0.029999	-1.237785	0.595316
F91	F	0.619305	-0.890580	0.000001
H92	H	0.066179	-0.681121	0.000072
F93	F	0.081338	-0.501569	0.000095
F94	F	0.461929	-0.811244	-0.000026
F95	F	0.001010	-1.191563	0.765977
H96	H	-0.187565	-0.890760	0.404771
H97	H	0.018049	-0.358269	0.000088
F98	F	0.769658	-1.227596	0.000023
F99	F	0.503099	-1.314973	0.000047
H100	H	-0.170165	-0.317597	0.000027
H101	H	-0.225795	-0.618003	-0.000005
F102	F	-0.188721	-0.779211	-0.000007
F103	F	-0.158575	-0.936972	0.234119
H104	H	0.214023	-1.217554	0.000064
F105	F	0.380495	-1.317296	0.000047
H106	H	-0.187560	-0.890775	0.595321
