data_functionalizedCrystal
_audit_creation_method	'MofGen! by Chris Wilmer'
_symmetry_space_group_name_H-M	'P1'
_symmetry_Int_Tables_number	1
_symmetry_cell_setting	triclinic
loop_
_symmetry_equiv_pos_as_xyz
  x,y,z
_cell_length_a	10.540539
_cell_length_b	9.065218
_cell_length_c	7.540329
_cell_angle_alpha	90.001757
_cell_angle_beta	90.000905
_cell_angle_gamma	84.770688
loop_
_atom_site_label
_atom_site_type_symbol
_atom_site_fract_x
_atom_site_fract_y
_atom_site_fract_z
O1	O	-1.686653	-0.207930	-0.147391
O2	O	-1.186653	0.292070	0.352609
O3	O	-1.317313	-0.227521	-0.147412
O4	O	-0.817313	0.272479	0.352588
O5	O	-1.509617	-0.003045	-0.147398
O6	O	-1.009617	0.496955	0.352602
O7	O	-1.494349	-0.432406	-0.147406
O8	O	-0.994349	0.067594	0.352594
O9	O	-1.509606	-0.003042	0.147568
O10	O	-1.009606	0.496958	0.647568
O11	O	-1.317301	-0.227519	0.147553
O12	O	-0.817301	0.272481	0.647553
O13	O	-1.686642	-0.207927	0.147574
O14	O	-1.186642	0.292073	0.647574
Cu15	Cu	-1.501970	-0.217723	0.174496
Cu16	Cu	-1.001970	0.282277	0.674496
Cu17	Cu	-1.501984	-0.217726	-0.174334
Cu18	Cu	-1.001984	0.282274	0.325666
O19	O	-1.494337	-0.432403	0.147559
O20	O	-0.994337	0.067597	0.647559
C21	C	-1.508144	0.051936	0.000082
C22	C	-1.008144	0.551936	0.500082
C23	C	-1.503757	0.215757	0.000073
C24	C	-1.003757	0.715757	0.500073
C25	C	-1.269999	-0.226051	0.000068
C26	C	-0.769999	0.273949	0.500068
C27	C	-1.129034	-0.221655	0.000059
C28	C	-0.629034	0.278345	0.500059
C29	C	-1.733956	-0.209398	0.000090
C30	C	-1.233956	0.290602	0.500090
C31	C	-1.874920	-0.213794	0.000087
C32	C	-1.374920	0.286206	0.500087
C33	C	-0.944985	-0.053221	0.000751
C34	C	-0.444985	0.446779	0.500751
C35	C	-1.091619	-0.057677	0.000068
C36	C	-0.591619	0.442323	0.500068
C37	C	-1.067660	-0.300570	-0.168375
C38	C	-0.567660	0.199430	0.331625
C39	C	-0.921095	-0.294974	-0.168498
C40	C	-0.421095	0.205026	0.331502
C41	C	-0.920606	-0.298306	0.166933
C42	C	-0.420606	0.201694	0.666933
C43	C	-1.067593	-0.299817	0.169141
C44	C	-0.567593	0.200183	0.669141
C45	C	-1.495811	-0.487384	0.000076
C46	C	-0.995811	0.012616	0.500076
C47	C	-1.500198	-0.651205	0.000073
C48	C	-1.000198	-0.151205	0.500073
N49	N	-1.501970	-0.217719	0.419845
N50	N	-1.001970	0.282281	0.919845
N51	N	-1.501995	-0.217718	-0.419683
N52	N	-1.001995	0.282282	0.080317
H53	H	-1.133999	0.004416	0.120809
H54	H	-0.633999	0.504416	0.620809
H55	H	-1.092261	-0.419367	0.179308
H56	H	-0.592261	0.080633	0.679308
H57	H	-1.110051	-0.245753	-0.293726
H58	H	-0.610051	0.254247	0.206274
Br59	Br	-0.873717	-0.197767	-0.378346
Br60	Br	-0.373717	0.302233	0.121654
Br61	Br	-0.841863	-0.491526	-0.181243
Br62	Br	-0.341863	0.008474	0.318757
H63	H	-1.133138	0.004852	-0.120880
H64	H	-0.633138	0.504852	0.379120
Br65	Br	-0.894240	0.054309	-0.199438
Br66	Br	-0.394240	0.554309	0.300562
Br67	Br	-1.105695	-0.501267	-0.178874
Br68	Br	-0.605695	-0.001267	0.321126
Br69	Br	-0.867699	-0.209851	0.379731
Br70	Br	-0.367699	0.290149	0.879731
Br71	Br	-1.135323	-0.203562	0.376829
Br72	Br	-0.635323	0.296438	0.876829
Br73	Br	-0.842626	-0.495715	0.168826
Br74	Br	-0.342626	0.004285	0.668826
H75	H	-0.916155	0.011561	0.121545
H76	H	-0.416155	0.511561	0.621545
