data_functionalizedCrystal
_audit_creation_method	'MofGen! by Chris Wilmer'
_symmetry_space_group_name_H-M	'P1'
_symmetry_Int_Tables_number	1
_symmetry_cell_setting	triclinic
loop_
_symmetry_equiv_pos_as_xyz
  x,y,z
_cell_length_a	6.817900
_cell_length_b	17.284796
_cell_length_c	11.102228
_cell_angle_alpha	90.650313
_cell_angle_beta	108.604565
_cell_angle_gamma	103.042616
loop_
_atom_site_label
_atom_site_type_symbol
_atom_site_fract_x
_atom_site_fract_y
_atom_site_fract_z
V1	V	-4.076931	-0.109060	-0.385430
O2	O	-4.072211	0.005239	-0.389233
O3	O	-4.019717	-0.216246	-0.372080
O4	O	-4.054238	-0.107383	-0.558418
O5	O	-4.037451	-0.104377	-0.201606
V6	V	-4.558370	-0.095388	-0.364745
O7	O	-4.342761	-0.139050	-0.430805
O8	O	-4.742738	-0.065399	-0.319370
O9	O	-4.392378	0.011798	-0.378095
O10	O	-4.680488	-0.209688	-0.360942
O11	O	-4.715247	-0.100071	-0.548570
O12	O	-4.357857	-0.097065	-0.191757
C13	C	-3.861742	-0.242376	-0.363235
C14	C	-3.896421	-0.330002	-0.353473
C15	C	-4.085372	-0.822021	-0.286035
C16	C	-4.052808	-0.739689	-0.295229
C17	C	-4.093142	-0.709790	-0.415096
C18	C	-4.166025	-0.762228	-0.525775
C19	C	-4.198573	-0.844557	-0.516580
C20	C	-4.001853	-0.464769	-0.454957
C21	C	-3.969304	-0.382433	-0.464144
C22	C	-3.856085	-0.359900	-0.233597
C23	C	-3.888651	-0.442232	-0.224412
C24	C	-3.961521	-0.494662	-0.335092
N25	N	-4.059863	-0.625634	-0.424496
N26	N	-3.994783	-0.578816	-0.325689
C27	C	-3.905776	-0.103509	-0.600926
C28	C	-3.968447	-0.102848	-0.742274
C29	C	-4.035163	-0.174721	-0.819664
C30	C	-4.094062	-0.174097	-0.952475
C31	C	-4.019511	-0.029721	-0.930494
C32	C	-3.960628	-0.030346	-0.797685
C33	C	-4.336787	-0.262498	-1.151089
C34	C	-4.403473	-0.334374	-1.228483
C35	C	-4.299784	-0.395781	-1.191173
C36	C	-4.129362	-0.385313	-1.076470
C37	C	-4.062661	-0.313435	-0.999082
C38	C	-4.166398	-0.252032	-1.036392
C39	C	-3.717887	0.058050	-0.599070
C40	C	-3.651170	0.129929	-0.521679
C41	C	-3.754842	0.191343	-0.558985
C42	C	-3.925231	0.180884	-0.673689
C43	C	-3.991948	0.109005	-0.751080
C44	C	-3.888276	0.047591	-0.713765
C45	C	-4.213694	0.037923	-0.386936
C46	C	-4.158254	0.125548	-0.396707
C47	C	-4.169660	-0.100942	-0.149242
C48	C	-4.086228	-0.101600	-0.007894
H49	H	-3.993469	-0.697003	-0.205109
H50	H	-4.061191	-0.507448	-0.545080
H51	H	-4.130694	0.100493	-0.844480
Cl52	Cl	-4.383624	-0.486138	-1.288470
Cl53	Cl	-3.670945	0.281710	-0.461697
Cl54	Cl	-4.216708	-0.724640	-0.676465
H55	H	-3.923900	-0.304911	-0.905697
H56	H	-4.542241	-0.342891	-1.321874
H57	H	-4.002196	-0.358094	-0.561761
H58	H	-4.257914	-0.887246	-0.606700
Cl59	Cl	-4.055564	0.258093	-0.720598
H60	H	-4.044923	-0.435316	-1.046110
Cl61	Cl	-4.009668	0.061419	-1.000163
H62	H	-4.041534	-0.233756	-0.774552
H63	H	-3.855809	-0.466569	-0.126805
Cl64	Cl	-3.764501	-0.293985	-0.094468
Cl65	Cl	-4.467172	-0.185304	-1.197996
H66	H	-3.512404	0.138445	-0.428289
H67	H	-4.052533	-0.846358	-0.188427
Cl68	Cl	-3.587545	-0.019159	-0.552160
