data_functionalizedCrystal
_audit_creation_method	'MofGen! by Chris Wilmer'
_symmetry_space_group_name_H-M	'P1'
_symmetry_Int_Tables_number	1
_symmetry_cell_setting	triclinic
loop_
_symmetry_equiv_pos_as_xyz
  x,y,z
_cell_length_a	15.297475
_cell_length_b	18.050589
_cell_length_c	15.298259
_cell_angle_alpha	80.289521
_cell_angle_beta	88.370891
_cell_angle_gamma	80.331321
loop_
_atom_site_label
_atom_site_type_symbol
_atom_site_fract_x
_atom_site_fract_y
_atom_site_fract_z
Zn1	Zn	1.253457	-0.370929	-0.726683
Zn2	Zn	1.753457	0.129071	-0.226683
Zn3	Zn	1.278678	-0.519604	-0.580190
Zn4	Zn	1.778678	-0.019604	-0.080190
Zn5	Zn	1.132309	-0.378152	-0.554907
Zn6	Zn	1.632309	0.121848	-0.054907
Zn7	Zn	1.106928	-0.477789	-0.701329
Zn8	Zn	1.606928	0.022211	-0.201329
O9	O	1.192843	-0.436618	-0.640777
O10	O	1.692843	0.063382	-0.140777
O11	O	1.379381	-0.405128	-0.728442
O12	O	1.879381	0.094872	-0.228442
O13	O	1.280440	-0.521363	-0.454250
O14	O	1.780440	-0.021363	0.045750
O15	O	1.148446	-0.273274	-0.577724
O16	O	1.648446	0.226726	-0.077724
O17	O	1.397912	-0.514359	-0.620814
O18	O	1.897912	-0.014359	-0.120814
O19	O	1.237453	-0.267968	-0.703927
O20	O	1.737453	0.232032	-0.203927
O21	O	1.172902	-0.417439	-0.435675
O22	O	1.672902	0.082561	0.064325
O23	O	1.006363	-0.376892	-0.553139
O24	O	1.506363	0.123108	-0.053139
O25	O	1.105188	-0.443091	-0.827278
O26	O	1.605188	0.056909	-0.327278
O27	O	0.987715	-0.450095	-0.660714
O28	O	1.487715	0.049905	-0.160714
O29	O	1.212842	-0.364581	-0.845906
O30	O	1.712842	0.135419	-0.345906
O31	O	1.255829	-0.617977	-0.596229
O32	O	1.755829	-0.117977	-0.096229
O33	O	1.129644	-0.587255	-0.685229
O34	O	1.629644	-0.087255	-0.185229
C35	C	0.965256	-0.409740	-0.601432
C36	C	1.465256	0.090260	-0.101432
C37	C	0.867889	-0.398256	-0.584621
C38	C	1.367889	0.101744	-0.084621
C39	C	1.192740	-0.629561	-0.640745
C40	C	1.692740	-0.129561	-0.140745
C41	C	1.192771	-0.712107	-0.640774
C42	C	1.692771	-0.212107	-0.140774
C43	C	0.554752	-0.518703	-0.760933
C44	C	1.054752	-0.018703	-0.260933
C45	C	0.646234	-0.529499	-0.776725
C46	C	1.146234	-0.029499	-0.276725
C47	C	0.701652	-0.496689	-0.728701
C48	C	1.201652	0.003311	-0.228701
C49	C	0.665580	-0.453082	-0.664880
C50	C	1.165580	0.046918	-0.164880
C51	C	0.574091	-0.442290	-0.649081
C52	C	1.074091	0.057710	-0.149081
C53	C	0.720990	-0.420275	-0.616850
C54	C	1.220990	0.079725	-0.116850
C55	C	0.684919	-0.376668	-0.553029
C56	C	1.184919	0.123332	-0.053029
C57	C	0.593438	-0.365877	-0.537234
C58	C	1.093438	0.134123	-0.037234
C59	C	0.538020	-0.398687	-0.585258
C60	C	1.038020	0.101313	-0.085258
C61	C	0.812480	-0.431067	-0.632649
C62	C	1.312480	0.068933	-0.132649
C63	C	0.831818	-0.354654	-0.520797
C64	C	1.331818	0.145346	-0.020797
C65	C	0.740337	-0.343858	-0.505005
C66	C	1.240337	0.156142	-0.005005
C67	C	1.124212	-0.894888	-0.689161
C68	C	1.624212	-0.394888	-0.189161
C69	C	1.116687	-0.955174	-0.605540
C70	C	1.616687	-0.455174	-0.105540
C71	C	1.192855	-0.863245	-0.640800
C72	C	1.692855	-0.363245	-0.140800
C73	C	1.200421	-0.950044	-0.724439
C74	C	1.700421	-0.450044	-0.224439
C75	C	1.192933	-1.009237	-0.640832
C76	C	1.692933	-0.509237	-0.140832
C77	C	1.185294	-0.922446	-0.557128
C78	C	1.685294	-0.422446	-0.057128
C79	C	1.269057	-0.917307	-0.676088
C80	C	1.769057	-0.417307	-0.176088
C81	C	1.261571	-0.977584	-0.592416
C82	C	1.761571	-0.477584	-0.092416
C83	C	1.192807	-0.779143	-0.640782
C84	C	1.692807	-0.279143	-0.140782
C85	C	1.192982	-1.093339	-0.640841
C86	C	1.692982	-0.593339	-0.140841
C87	C	1.421319	-0.463602	-0.680277
C88	C	1.921319	0.036398	-0.180277
C89	C	1.518682	-0.475101	-0.697109
C90	C	2.018682	0.024899	-0.197109
C91	C	1.153370	-0.398366	-0.869266
C92	C	1.653370	0.101634	-0.369266
C93	C	1.136549	-0.382065	-0.966634
C94	C	1.636549	0.117935	-0.466634
C95	C	1.192967	-0.242923	-0.640834
C96	C	1.692967	0.257077	-0.140834
C97	C	1.193020	-0.160381	-0.640858
C98	C	1.693020	0.339619	-0.140858
C99	C	1.313093	-0.552555	-1.279776
C100	C	1.813093	-0.052555	-0.779776
C101	C	1.328893	-0.567874	-1.188293
C102	C	1.828893	-0.067874	-0.688293
C103	C	1.280809	-0.521423	-1.132874
C104	C	1.780809	-0.021423	-0.632874
C105	C	1.216921	-0.459650	-1.168947
C106	C	1.716921	0.040350	-0.668947
C107	C	1.201115	-0.444333	-1.260438
C108	C	1.701115	0.055667	-0.760438
C109	C	1.168831	-0.413201	-1.113536
C110	C	1.668831	0.086799	-0.613536
C111	C	1.104944	-0.351428	-1.149608
C112	C	1.604944	0.148572	-0.649608
C113	C	1.089141	-0.336113	-1.241091
C114	C	1.589141	0.163887	-0.741091
C115	C	1.137225	-0.382564	-1.296510
C116	C	1.637225	0.117436	-0.796510
C117	C	1.184637	-0.428519	-1.022044
C118	C	1.684637	0.071481	-0.522044
C119	C	1.072659	-0.320297	-1.002706
C120	C	1.572659	0.179703	-0.502706
C121	C	1.056859	-0.304977	-1.094189
C122	C	1.556859	0.195023	-0.594189
C123	C	1.232212	-0.474674	-0.413186
C124	C	1.732212	0.025326	0.086814
C125	C	1.249203	-0.490786	-0.315848
C126	C	1.749203	0.009214	0.184152
H127	H	0.776139	-0.505481	-0.741563
H128	H	1.276139	-0.005481	-0.241563
O129	O	0.449183	-0.388229	-0.569742
O130	O	0.949183	0.111771	-0.069742
C131	C	0.433116	-0.417663	-0.480467
C132	C	0.933116	0.082337	0.019533
H133	H	0.494553	-0.419574	-0.439148
H134	H	0.994553	0.080426	0.060852
H135	H	0.374610	-0.379520	-0.454388
H136	H	0.874610	0.120480	0.045612
H137	H	0.417193	-0.477693	-0.475677
H138	H	0.917193	0.022307	0.024323
H139	H	0.876940	-0.327939	-0.481690
H140	H	1.376940	0.172061	0.018310
O141	O	1.054792	-0.852258	-0.737736
O142	O	1.554792	-0.352258	-0.237736
C143	C	0.974637	-0.871434	-0.700241
C144	C	1.474637	-0.371434	-0.200241
H145	H	0.985604	-0.897282	-0.627305
H146	H	1.485604	-0.397282	-0.127305
H147	H	0.922112	-0.817961	-0.706160
H148	H	1.422112	-0.317961	-0.206160
H149	H	0.951378	-0.914564	-0.736938
H150	H	1.451378	-0.414564	-0.236938
H151	H	1.206792	-0.962523	-0.795158
H152	H	1.706792	-0.462523	-0.295158
O153	O	1.026051	-0.275225	-0.948761
O154	O	1.526051	0.224775	-0.448761
C155	C	1.053687	-0.302000	-0.860276
C156	C	1.553687	0.198000	-0.360276
H157	H	1.123430	-0.336397	-0.859463
H158	H	1.623430	0.163603	-0.359463
H159	H	1.053788	-0.251496	-0.824493
H160	H	1.553788	0.248504	-0.324493
H161	H	1.006189	-0.339758	-0.825320
H162	H	1.506189	0.160242	-0.325320
O163	O	1.177635	-0.907803	-0.472663
O164	O	1.677635	-0.407803	0.027337
C165	C	1.172305	-0.975878	-0.413600
C166	C	1.672305	-0.475878	0.086400
H167	H	1.203305	-1.026713	-0.445645
H168	H	1.703305	-0.526713	0.054355
H169	H	1.209500	-0.976341	-0.349934
H170	H	1.709500	-0.476341	0.150066
H171	H	1.099801	-0.979627	-0.397460
H172	H	1.599801	-0.479627	0.102540
H173	H	1.333441	-0.900458	-0.705945
H174	H	1.833441	-0.400458	-0.205945
O175	O	1.296296	-0.536387	-1.044032
O176	O	1.796296	-0.036387	-0.544032
C177	C	1.362979	-0.600879	-1.024074
C178	C	1.862979	-0.100879	-0.524074
H179	H	1.405040	-0.608502	-1.085641
H180	H	1.905040	-0.108502	-0.585641
H181	H	1.406811	-0.592645	-0.968624
H182	H	1.906811	-0.092645	-0.468624
H183	H	1.331011	-0.653641	-1.001817
H184	H	1.831011	-0.153641	-0.501817
H185	H	1.352230	-0.590373	-1.324904
H186	H	1.852230	-0.090373	-0.824904
H187	H	1.052281	-0.972017	-0.575718
H188	H	1.552281	-0.472017	-0.075718
O189	O	1.330796	-1.020080	-0.543442
O190	O	1.830796	-0.520080	-0.043442
C191	C	1.322522	-1.006189	-0.455368
C192	C	1.822522	-0.506189	0.044632
H193	H	1.250138	-0.984170	-0.441077
H194	H	1.750138	-0.484170	0.058923
H195	H	1.345937	-1.061378	-0.407861
H196	H	1.845937	-0.561378	0.092139
H197	H	1.364797	-0.961789	-0.445948
H198	H	1.864797	-0.461789	0.054052
H199	H	1.236659	-0.478811	-0.992684
H200	H	1.736659	0.021189	-0.492684
H201	H	1.124367	-0.370092	-1.371004
H202	H	1.624367	0.129908	-0.871004
H203	H	1.037112	-0.285819	-1.270457
H204	H	1.537112	0.214181	-0.770457
O205	O	0.847602	-0.473321	-0.694704
O206	O	1.347602	0.026679	-0.194704
C207	C	0.890738	-0.427868	-0.760526
C208	C	1.390738	0.072132	-0.260526
H209	H	0.909784	-0.378320	-0.732115
H210	H	1.409784	0.121680	-0.232115
H211	H	0.953039	-0.463767	-0.783315
H212	H	1.453039	0.036233	-0.283315
H213	H	0.844276	-0.404766	-0.819372
H214	H	1.344276	0.095234	-0.319372
O215	O	0.994897	-0.244887	-1.129212
O216	O	1.494897	0.255113	-0.629212
C217	C	1.017937	-0.176878	-1.110171
C218	C	1.517937	0.323122	-0.610171
H219	H	1.092262	-0.185603	-1.097116
H220	H	1.592262	0.314397	-0.597116
H221	H	1.000025	-0.129228	-1.169045
H222	H	1.500025	0.370772	-0.669045
H223	H	0.980156	-0.160807	-1.048957
H224	H	1.480156	0.339193	-0.548957
O225	O	0.681121	-0.571848	-0.838775
O226	O	1.181121	-0.071848	-0.338775
C227	C	0.612597	-0.598508	-0.877761
C228	C	1.112597	-0.098508	-0.377761
H229	H	0.546863	-0.559883	-0.869600
H230	H	1.046863	-0.059883	-0.369600
H231	H	0.627121	-0.598093	-0.951330
H232	H	1.127121	-0.098093	-0.451330
H233	H	0.608396	-0.659106	-0.843879
H234	H	1.108396	-0.159106	-0.343879
O235	O	0.500791	-0.550492	-0.807523
O236	O	1.000791	-0.050492	-0.307523
C237	C	0.412315	-0.531634	-0.779872
C238	C	0.912315	-0.031634	-0.279872
H239	H	0.404779	-0.477593	-0.749148
H240	H	0.904779	0.022407	-0.249148
H241	H	0.366217	-0.521677	-0.839472
H242	H	0.866217	-0.021677	-0.339472
H243	H	0.394405	-0.580380	-0.728641
H244	H	0.894405	-0.080380	-0.228641
H245	H	0.710955	-0.308353	-0.453041
H246	H	1.210955	0.191647	0.046959
O247	O	0.558533	-0.323595	-0.475119
O248	O	1.058533	0.176405	0.024881
C249	C	0.595957	-0.356990	-0.391643
C250	C	1.095957	0.143010	0.108357
H251	H	0.662683	-0.393688	-0.401260
H252	H	1.162683	0.106312	0.098740
H253	H	0.605891	-0.310278	-0.353010
H254	H	1.105891	0.189722	0.146990
H255	H	0.549560	-0.394007	-0.353157
H256	H	1.049560	0.105993	0.146843
O257	O	1.391013	-0.627881	-1.153405
O258	O	1.891013	-0.127881	-0.653405
C259	C	1.430053	-0.665605	-1.221931
C260	C	1.930053	-0.165605	-0.721931
H261	H	1.421836	-0.624628	-1.287679
H262	H	1.921836	-0.124628	-0.787679
H263	H	1.503631	-0.686100	-1.207428
H264	H	2.003631	-0.186100	-0.707428
H265	H	1.396261	-0.716590	-1.226097
H266	H	1.896261	-0.216590	-0.726097
