data_functionalizedCrystal
_audit_creation_method	'MofGen! by Chris Wilmer'
_symmetry_space_group_name_H-M	'P1'
_symmetry_Int_Tables_number	1
_symmetry_cell_setting	triclinic
loop_
_symmetry_equiv_pos_as_xyz
  x,y,z
_cell_length_a	13.033291
_cell_length_b	12.759400
_cell_length_c	12.759393
_cell_angle_alpha	90.031564
_cell_angle_beta	82.789850
_cell_angle_gamma	82.815298
loop_
_atom_site_label
_atom_site_type_symbol
_atom_site_fract_x
_atom_site_fract_y
_atom_site_fract_z
Zn1	Zn	1.597796	0.214380	-0.798418
Zn2	Zn	1.597691	0.390112	-0.622724
Zn3	Zn	1.423023	0.236730	-0.600395
Zn4	Zn	1.423012	0.412314	-0.776016
O5	O	1.510380	0.313384	-0.699388
O6	O	1.744028	0.219047	-0.793832
O7	O	1.574481	0.369828	-0.472736
O8	O	1.446256	0.086738	-0.626694
O9	O	1.743951	0.348156	-0.664751
O10	O	1.574660	0.070318	-0.772180
O11	O	1.446154	0.257138	-0.456331
O12	O	1.276775	0.278666	-0.604971
O13	O	1.446236	0.385996	-0.926014
O14	O	1.276767	0.407667	-0.733999
O15	O	1.574649	0.240575	-0.942472
O16	O	1.574470	0.540085	-0.643028
O17	O	1.446135	0.556396	-0.755651
C18	C	1.238851	0.348002	-0.664632
C19	C	1.122689	0.362837	-0.649788
C20	C	0.950882	0.320991	-0.691802
C21	C	1.070941	0.305661	-0.707144
C22	C	1.510318	0.586359	-0.699358
C23	C	1.510387	0.703127	-0.699393
C24	C	1.510453	0.313269	-0.973431
C25	C	1.510485	0.313220	-1.090212
C26	C	1.782970	0.278632	-0.734281
C27	C	1.899132	0.263823	-0.749150
C28	C	1.510471	0.039339	-0.699445
C29	C	1.510510	-0.077442	-0.699469
C30	C	1.577286	0.749451	-0.640834
C31	C	1.577350	0.859167	-0.640875
C32	C	1.443608	0.876226	-0.758035
C33	C	1.443550	0.766511	-0.757999
C34	C	1.654498	0.739604	-0.573189
C35	C	1.654562	0.849320	-0.573230
C36	C	1.577358	0.237491	-1.153647
C37	C	1.577383	0.237450	-1.263374
C38	C	1.443657	0.388875	-1.246221
C39	C	1.443628	0.388911	-1.136496
C40	C	1.654567	0.150070	-1.163551
C41	C	1.654592	0.150029	-1.273278
C42	C	1.510367	0.313415	-0.426419
C43	C	1.510539	0.313143	-0.309665
H44	H	1.389085	0.728795	-0.805693
Cl45	Cl	1.773240	0.179959	-1.126177
H46	H	1.078117	0.423135	-0.589329
H47	H	1.632913	0.071468	-1.131024
H48	H	0.943710	0.203525	-0.809600
H49	H	1.389223	0.450498	-1.283919
Cl50	Cl	1.609730	0.036454	-1.320115
H51	H	1.389192	0.927846	-0.805751
Cl52	Cl	1.359538	0.484101	-1.056749
Cl53	Cl	0.882066	0.414077	-0.598455
H54	H	1.735534	0.161496	-1.313413
H55	H	1.735413	0.699424	-0.605393
Cl56	Cl	1.139753	0.212559	-0.800483
H57	H	1.731459	0.873455	-0.612280
Cl58	Cl	1.621180	0.899692	-0.443318
Cl59	Cl	1.609744	0.692892	-0.448089
