data_functionalizedCrystal
_audit_creation_method	'MofGen! by Chris Wilmer'
_symmetry_space_group_name_H-M	'P1'
_symmetry_Int_Tables_number	1
_symmetry_cell_setting	triclinic
loop_
_symmetry_equiv_pos_as_xyz
  x,y,z
_cell_length_a	19.188930
_cell_length_b	10.654550
_cell_length_c	9.730223
_cell_angle_alpha	89.999807
_cell_angle_beta	89.985926
_cell_angle_gamma	83.814842
loop_
_atom_site_label
_atom_site_type_symbol
_atom_site_fract_x
_atom_site_fract_y
_atom_site_fract_z
O1	O	0.927166	0.156774	-0.114729
O2	O	0.723993	0.177880	-0.114634
O3	O	0.830251	-0.015511	-0.114679
O4	O	0.820908	0.350165	-0.114684
O5	O	0.830250	-0.015506	0.113901
O6	O	0.723992	0.177885	0.113946
O7	O	0.927165	0.156779	0.113851
Zn8	Zn	0.825578	0.167333	0.150190
Zn9	Zn	0.825580	0.167326	-0.150973
O10	O	0.820907	0.350170	0.113896
C11	C	0.829564	-0.062292	-0.000390
C12	C	0.827512	-0.201692	-0.000394
C13	C	0.697977	0.177199	-0.000332
C14	C	0.620459	0.175147	-0.000296
C15	C	0.890075	-0.282501	-0.000419
C16	C	0.888142	-0.413481	-0.000427
C17	C	0.761078	-0.382829	-0.000380
C18	C	0.763011	-0.251852	-0.000382
C19	C	0.963434	-0.300199	-0.000440
C20	C	0.961502	-0.431179	-0.000449
C21	C	0.576277	0.288622	-0.000319
C22	C	0.503441	0.286695	-0.000334
C23	C	0.474789	0.171286	-0.000354
C24	C	0.518981	0.057795	-0.000323
C25	C	0.591816	0.059726	-0.000294
N26	N	0.366233	0.083068	-0.078203
N27	N	0.297042	0.081242	-0.078234
C28	C	0.255343	0.165461	-0.000438
N29	N	0.285446	0.251596	0.077373
N30	N	0.354643	0.253426	0.077397
C31	C	0.395813	0.169179	-0.000384
C32	C	0.132183	0.276855	-0.000475
C33	C	0.059345	0.274922	-0.000482
C34	C	0.074887	0.046020	-0.000484
C35	C	0.147723	0.047955	-0.000464
C36	C	0.176366	0.163376	-0.000466
C37	C	0.953181	0.157460	-0.000454
C38	C	1.030699	0.159512	-0.000499
C39	C	0.821594	0.396951	-0.000396
C40	C	0.823646	0.536351	-0.000401
N41	N	0.825582	0.167336	0.355727
N42	N	0.825581	0.167313	-0.356510
C43	C	0.872645	0.081732	0.427633
C44	C	0.872643	0.081716	0.571516
C45	C	0.778513	0.252922	0.571574
C46	C	0.778512	0.252930	0.427693
C47	C	0.926993	-0.017109	0.427601
C48	C	0.926991	-0.017124	0.571484
H49	H	0.712067	-0.186060	-0.000380
C50	C	1.002194	-0.261354	-0.129684
N51	N	1.031386	-0.232095	-0.227030
C52	C	0.163693	0.403819	-0.000461
N53	N	0.187424	0.499449	-0.000447
C54	C	0.043375	-0.080933	-0.000503
N55	N	0.019637	-0.176557	-0.000516
C56	C	0.904067	-0.139868	0.631779
N57	N	0.886797	-0.232312	0.677195
H58	H	0.467461	0.379103	-0.000350
H59	H	0.986794	-0.265065	0.098246
H60	H	0.708564	-0.423686	-0.000372
C61	C	0.991467	-0.493487	-0.133779
N62	N	1.014040	-0.540420	-0.234198
H63	H	0.023372	0.367332	-0.000493
H64	H	0.740189	0.322609	0.630184
C65	C	0.998835	-0.488387	0.128768
N66	N	1.026952	-0.531474	0.226092
C67	C	0.607780	0.415589	-0.000294
N68	N	0.631509	0.511222	-0.000267
C69	C	0.487463	-0.069155	-0.000345
N70	N	0.463724	-0.164779	-0.000359
C71	C	0.196325	-0.076879	-0.000454
N72	N	0.232932	-0.170909	-0.000444
H73	H	0.740183	0.322625	0.369148
C74	C	0.910884	-0.147174	0.374845
N75	N	0.898749	-0.245135	0.335110
H76	H	0.627789	-0.032682	-0.000276
H77	H	0.977683	0.012407	0.382950
C78	C	0.999454	0.010508	0.624212
N79	N	1.054024	0.031358	0.663925
