data_functionalizedCrystal
_audit_creation_method	'MofGen! by Chris Wilmer'
_symmetry_space_group_name_H-M	'P1'
_symmetry_Int_Tables_number	1
_symmetry_cell_setting	triclinic
loop_
_symmetry_equiv_pos_as_xyz
  x,y,z
_cell_length_a	6.817900
_cell_length_b	10.943925
_cell_length_c	10.943624
_cell_angle_alpha	91.772910
_cell_angle_beta	108.838799
_cell_angle_gamma	108.844289
loop_
_atom_site_label
_atom_site_type_symbol
_atom_site_fract_x
_atom_site_fract_y
_atom_site_fract_z
V1	V	-4.115532	-0.178599	-0.402534
O2	O	-4.073202	0.008617	-0.394889
O3	O	-4.093518	-0.354165	-0.399763
O4	O	-4.093494	-0.175837	-0.578100
O5	O	-4.073227	-0.170946	-0.215317
V6	V	-4.592325	-0.156208	-0.380143
O7	O	-4.391553	-0.227716	-0.451649
O8	O	-4.766501	-0.107090	-0.331028
O9	O	-4.391132	0.019359	-0.382914
O10	O	-4.752051	-0.343424	-0.387788
O11	O	-4.752026	-0.163861	-0.567359
O12	O	-4.391156	-0.158970	-0.204576
C13	C	-3.944085	-0.396965	-0.393408
C14	C	-4.007548	-0.540493	-0.392314
C15	C	-4.274915	-0.717225	-0.397745
C16	C	-4.085582	-0.611235	-0.288089
C17	C	-4.196062	-0.644571	-0.501935
C18	C	-3.931139	-0.690208	-0.280609
C19	C	-4.041699	-0.723567	-0.494552
C20	C	-3.852230	-0.617606	-0.384865
C21	C	-3.944052	-0.169487	-0.620894
C22	C	-4.007492	-0.168390	-0.764420
C23	C	-3.852320	-0.161003	-0.841568
C24	C	-4.041701	-0.270649	-0.947548
C25	C	-3.931176	-0.056802	-0.914182
C26	C	-4.196083	-0.278139	-0.868523
C27	C	-4.085478	-0.064195	-0.835134
C28	C	-4.274995	-0.173872	-0.941083
C29	C	-4.203907	0.062152	-0.389265
C30	C	-4.119684	0.205678	-0.390368
C31	C	-4.203939	-0.165324	-0.161776
C32	C	-4.119737	-0.166414	-0.018248
H33	H	-3.672911	-0.574321	-0.379394
O34	O	-4.328787	-0.619622	-0.613439
C35	C	-4.265339	-0.483580	-0.613497
H36	H	-4.174635	-0.430820	-0.508792
H37	H	-4.418956	-0.457060	-0.659530
H38	H	-4.151127	-0.452855	-0.672214
H39	H	-4.023857	-0.357930	-0.996488
H40	H	-4.454119	-0.760720	-0.403043
O41	O	-3.797923	-0.714649	-0.168976
C42	C	-3.575854	-0.662591	-0.161972
H43	H	-3.570765	-0.652448	-0.264368
H44	H	-3.485457	-0.730715	-0.117281
H45	H	-3.491768	-0.562517	-0.098603
O46	O	-4.020793	-0.781934	-0.598827
C47	C	-4.161568	-0.759423	-0.715264
H48	H	-4.301783	-0.737196	-0.695569
H49	H	-4.233633	-0.850027	-0.792176
H50	H	-4.063126	-0.672848	-0.752202
H51	H	-3.673119	-0.155709	-0.798120
O52	O	-4.107131	-0.553090	-0.183929
C53	C	-4.184258	-0.648709	-0.110447
H54	H	-4.273426	-0.747893	-0.175361
H55	H	-4.303717	-0.622364	-0.071286
H56	H	-4.038002	-0.653191	-0.025275
O57	O	-3.798184	0.054899	-0.938673
C58	C	-3.643290	0.131583	-0.819636
H59	H	-3.710199	0.103870	-0.737534
H60	H	-3.613866	0.239263	-0.827134
H61	H	-3.480558	0.113626	-0.797985
H62	H	-4.307485	-0.371785	-0.847969
O63	O	-4.489038	-0.180620	-0.992660
C64	C	-4.628565	-0.297369	-0.969830
H65	H	-4.541843	-0.371923	-0.953939
H66	H	-4.788952	-0.337815	-1.057803
H67	H	-4.667726	-0.276776	-0.879292
H68	H	-4.103238	0.023090	-0.786158
