data_functionalizedCrystal
_audit_creation_method	'MofGen! by Chris Wilmer'
_symmetry_space_group_name_H-M	'P1'
_symmetry_Int_Tables_number	1
_symmetry_cell_setting	triclinic
loop_
_symmetry_equiv_pos_as_xyz
  x,y,z
_cell_length_a	19.288859
_cell_length_b	19.288865
_cell_length_c	17.766277
_cell_angle_alpha	90.006751
_cell_angle_beta	90.007461
_cell_angle_gamma	83.134986
loop_
_atom_site_label
_atom_site_type_symbol
_atom_site_fract_x
_atom_site_fract_y
_atom_site_fract_z
O1	O	0.921354	0.086624	0.062618
O2	O	1.421354	0.586624	0.562618
O3	O	0.719092	0.098317	0.062617
O4	O	1.219092	0.598317	0.562617
O5	O	0.826067	-0.008660	0.062602
O6	O	1.326067	0.491340	0.562602
O7	O	0.814378	0.193601	0.062632
O8	O	1.314378	0.693601	0.562632
O9	O	0.826053	-0.008656	-0.062586
O10	O	1.326053	0.491344	0.437414
O11	O	0.719078	0.098321	-0.062571
O12	O	1.219078	0.598321	0.437429
O13	O	0.921339	0.086628	-0.062571
O14	O	1.421339	0.586628	0.437429
Cu15	Cu	0.820207	0.092474	-0.074002
Cu16	Cu	1.320207	0.592474	0.425998
Cu17	Cu	0.820224	0.092470	0.074048
Cu18	Cu	1.320224	0.592470	0.574048
O19	O	0.814364	0.193605	-0.062556
O20	O	1.314364	0.693605	0.437444
C21	C	0.693209	0.097943	0.000022
C22	C	1.193209	0.597943	0.500022
C23	C	0.616105	0.096816	0.000022
C24	C	1.116105	0.596816	0.500022
C25	C	0.825684	-0.034535	0.000006
C26	C	1.325684	0.465465	0.500006
C27	C	0.824555	-0.111638	-0.000001
C28	C	1.324555	0.388362	0.499999
C29	C	0.052064	0.151959	0.000031
C30	C	0.552064	0.651959	0.500031
C31	C	0.124511	0.153025	0.000035
C32	C	0.624511	0.653025	0.500035
C33	C	0.169217	0.090255	0.000024
C34	C	0.669217	0.590255	0.500024
C35	C	0.141472	0.026416	0.000029
C36	C	0.641472	0.526416	0.500029
C37	C	0.069027	0.025353	0.000032
C38	C	0.569027	0.525353	0.500032
C39	C	0.290483	0.043444	-0.043845
C40	C	0.790483	0.543444	0.456155
C41	C	0.362926	0.044510	-0.043853
C42	C	0.862926	0.544510	0.456147
C43	C	0.392663	0.093533	0.000017
C44	C	0.892663	0.593533	0.500017
C45	C	0.349946	0.141502	0.043885
C46	C	0.849946	0.641502	0.543885
C47	C	0.277501	0.140438	0.043888
C48	C	0.777501	0.640438	0.543888
C49	C	0.247773	0.091401	0.000021
C50	C	0.747773	0.591401	0.500021
C51	C	0.498955	0.158523	0.000022
C52	C	0.998955	0.658523	0.500022
C53	C	0.571403	0.159586	0.000031
C54	C	1.071403	0.659586	0.500031
C55	C	0.588364	0.032976	0.000017
C56	C	1.088364	0.532976	0.500017
C57	C	0.515917	0.031915	0.000016
C58	C	1.015917	0.531915	0.500016
C59	C	0.471216	0.094691	0.000015
C60	C	0.971216	0.594691	0.500015
C61	C	0.887323	-0.156336	-0.000004
C62	C	1.387323	0.343664	0.499996
C63	C	0.886262	-0.228783	0.000008
C64	C	1.386262	0.271217	0.500008
C65	C	0.822430	-0.256529	0.000008
C66	C	1.322430	0.243471	0.500008
C67	C	0.759654	-0.211822	0.000016
C68	C	1.259654	0.288178	0.500016
C69	C	0.760716	-0.139376	0.000011
C70	C	1.260716	0.360624	0.500011
C71	C	0.772245	-0.364814	-0.043843
C72	C	1.272245	0.135186	0.456157
C73	C	0.771186	-0.437258	-0.043843
C74	C	1.271186	0.062742	0.456157
C75	C	0.819150	-0.479975	0.000025
C76	C	1.319150	0.020025	0.500025
C77	C	0.868187	-0.450239	0.043883
C78	C	1.368187	0.049761	0.543883
C79	C	0.869249	-0.377793	0.043879
C80	C	1.369249	0.122207	0.543879
C81	C	0.821271	-0.335083	0.000013
C82	C	1.321271	0.164917	0.500013
C83	C	0.880773	-0.603228	0.000035
C84	C	1.380773	-0.103228	0.500035
C85	C	0.879709	-0.675676	0.000052
C86	C	1.379709	-0.175676	0.500052
C87	C	0.753099	-0.658713	0.000052
C88	C	1.253099	-0.158713	0.500052
C89	C	0.754164	-0.586267	0.000043
C90	C	1.254164	-0.086267	0.500043
C91	C	0.818003	-0.558529	0.000031
C92	C	1.318003	-0.058529	0.500031
C93	C	0.947223	0.087001	0.000025
C94	C	1.447223	0.587001	0.500025
C95	C	1.024327	0.088128	0.000031
C96	C	1.524327	0.588128	0.500031
C97	C	0.814747	0.219479	0.000042
C98	C	1.314747	0.719479	0.500042
C99	C	0.815876	0.296583	0.000053
C100	C	1.315876	0.796583	0.500053
N101	N	0.820201	0.092477	-0.178132
N102	N	1.320201	0.592477	0.321868
C103	C	0.862229	0.134475	-0.782414
C104	C	1.362229	0.634475	-0.282414
C105	C	0.862223	0.134481	-0.703612
C106	C	1.362223	0.634481	-0.203612
C107	C	0.820231	0.092462	-0.664221
C108	C	1.320231	0.592462	-0.164221
C109	C	0.778229	0.050447	-0.703639
C110	C	1.278229	0.550447	-0.203639
C111	C	0.778232	0.050446	-0.782439
C112	C	1.278232	0.550446	-0.282439
C113	C	0.818504	0.029838	-0.539386
C114	C	1.318504	0.529838	-0.039386
C115	C	0.818506	0.029837	-0.460587
C116	C	1.318506	0.529837	0.039413
C117	C	0.820218	0.092464	-0.421175
C118	C	1.320218	0.592464	0.078825
C119	C	0.821942	0.155093	-0.460571
C120	C	1.321942	0.655093	0.039429
C121	C	0.821945	0.155093	-0.539371
C122	C	1.321945	0.655093	-0.039371
C123	C	0.820223	0.092458	-0.578775
C124	C	1.320223	0.592458	-0.078775
C125	C	0.862205	0.134488	-0.296321
C126	C	1.362205	0.634488	0.203679
C127	C	0.862194	0.134496	-0.217517
C128	C	1.362194	0.634496	0.282483
C129	C	0.778204	0.050455	-0.217546
C130	C	1.278204	0.550455	0.282454
C131	C	0.778212	0.050453	-0.296348
C132	C	1.278212	0.550453	0.203652
C133	C	0.820217	0.092468	-0.335730
C134	C	1.320217	0.592468	0.164270
N135	N	0.820236	0.092462	0.178178
N136	N	1.320236	0.592462	0.678178
H137	H	0.015673	0.203077	0.000034
H138	H	0.515673	0.703077	0.500034
H139	H	0.046445	-0.026628	0.000033
H140	H	0.546445	0.473372	0.500033
H141	H	0.896431	0.168688	-0.814474
H142	H	1.396431	0.668688	-0.314474
C143	C	0.190651	-0.042630	0.000013
C144	C	0.690651	0.457370	0.500013
N145	N	0.227693	-0.094638	0.000001
N146	N	0.727693	0.405362	0.500001
C147	C	0.957548	-0.125829	-0.000011
C148	C	1.457548	0.374171	0.499989
N149	N	1.010442	-0.102850	-0.000014
N150	N	1.510442	0.397150	0.499986
C151	C	0.382651	0.195429	0.092148
C152	C	0.882651	0.695429	0.592148
N153	N	0.407287	0.236047	0.128499
N154	N	0.907287	0.736047	0.628499
C155	C	0.689438	-0.242344	0.000011
C156	C	1.189438	0.257656	0.500011
N157	N	0.636549	-0.265333	0.000007
N158	N	1.136549	0.234667	0.500007
C159	C	0.923184	-0.345086	0.092129
C160	C	1.423184	0.154914	0.592129
N161	N	0.963805	-0.320451	0.128474
N162	N	1.463805	0.179549	0.628474
H163	H	0.147099	0.205005	0.000028
H164	H	0.647099	0.705005	0.500028
H165	H	0.937377	-0.265183	0.000008
H166	H	1.437377	0.234817	0.500008
C167	C	0.950996	-0.572714	0.000033
C168	C	1.450996	-0.072714	0.500033
N169	N	1.003889	-0.549733	0.000034
N170	N	1.503889	-0.049733	0.500034
H171	H	0.896404	0.168702	-0.328388
H172	H	1.396404	0.668702	0.171612
C173	C	0.719479	-0.317833	-0.092108
C174	C	1.219479	0.182167	0.407892
N175	N	0.679738	-0.282448	-0.128461
N176	N	1.179738	0.217552	0.371539
H177	H	0.397701	0.005454	-0.079577
H178	H	0.897701	0.505454	0.420423
H179	H	0.709601	-0.102982	0.000014
H180	H	1.209601	0.397018	0.500014
C181	C	0.485405	-0.038305	0.000000
C182	C	0.985405	0.461695	0.500000
N183	N	0.462424	-0.091198	-0.000013
N184	N	0.962424	0.408802	0.499987
C185	C	0.920951	-0.497221	0.092146
C186	C	1.420951	0.002779	0.592146
N187	N	0.960691	-0.532612	0.128495
N188	N	1.460691	-0.032612	0.628495
H189	H	0.266278	0.003520	-0.079570
H190	H	0.766278	0.503520	0.420430
C191	C	0.908392	0.180716	-0.174169
C192	C	1.408392	0.680716	0.325831
N193	N	0.943191	0.215528	-0.141518
N194	N	1.443191	0.715528	0.358482
C195	C	0.682882	-0.689230	0.000055
C196	C	1.182882	-0.189230	0.500055
N197	N	0.629993	-0.712218	0.000059
N198	N	1.129993	-0.212218	0.500059
C199	C	0.731992	0.004254	-0.174221
C200	C	1.231992	0.504254	0.325779
N201	N	0.697175	-0.030538	-0.141584
N202	N	1.197175	0.469462	0.358416
H203	H	0.744020	0.016238	-0.328434
H204	H	1.244020	0.516238	0.171566
C205	C	0.816630	-0.039063	-0.582732
C206	C	1.316630	0.460937	-0.082732
N207	N	0.815221	-0.090958	-0.615380
N208	N	1.315221	0.409042	-0.115380
H209	H	0.930825	-0.712069	0.000053
H210	H	1.430825	-0.212069	0.500053
H211	H	0.703051	-0.549873	0.000042
H212	H	1.203051	-0.049873	0.500042
C213	C	0.230516	0.193196	0.092150
C214	C	0.730516	0.693196	0.592150
N215	N	0.195127	0.232931	0.128506
N216	N	0.695127	0.732931	0.628506
C217	C	0.717245	-0.469961	-0.092088
C218	C	1.217245	0.030039	0.407912
N219	N	0.676614	-0.494590	-0.128427
N220	N	1.176614	0.005410	0.371573
H221	H	0.462558	0.209639	0.000023
H222	H	0.962558	0.709639	0.500023
H223	H	0.823335	0.206090	-0.428483
H224	H	1.323335	0.706090	0.071517
C225	C	0.908424	0.180697	-0.660254
C226	C	1.408424	0.680697	-0.160254
N227	N	0.943225	0.215505	-0.627599
N228	N	1.443225	0.715505	-0.127599
C229	C	0.823827	0.223986	-0.582703
C230	C	1.323827	0.723986	-0.082703
N231	N	0.825239	0.275878	-0.615341
N232	N	1.325239	0.775878	-0.115341
H233	H	0.817108	-0.021161	-0.428517
H234	H	1.317108	0.478839	0.071483
H235	H	0.744035	0.016234	-0.814525
H236	H	1.244035	0.516234	-0.314525
C237	C	0.732099	0.004165	-0.660308
C238	C	1.232099	0.504165	-0.160308
N239	N	0.697373	-0.030716	-0.627670
N240	N	1.197373	0.469284	-0.127670
H241	H	0.593984	0.211567	0.000037
H242	H	1.093984	0.711567	0.500037
H243	H	0.624763	-0.018132	0.000014
H244	H	1.124763	0.481868	0.500014
