data_functionalizedCrystal
_audit_creation_method	'MofGen! by Chris Wilmer'
_symmetry_space_group_name_H-M	'P1'
_symmetry_Int_Tables_number	1
_symmetry_cell_setting	triclinic
loop_
_symmetry_equiv_pos_as_xyz
  x,y,z
_cell_length_a	17.699083
_cell_length_b	17.699104
_cell_length_c	16.176319
_cell_angle_alpha	89.998737
_cell_angle_beta	90.001389
_cell_angle_gamma	96.712734
loop_
_atom_site_label
_atom_site_type_symbol
_atom_site_fract_x
_atom_site_fract_y
_atom_site_fract_z
O1	O	-1.004086	0.095712	-0.068621
O2	O	-0.504086	0.595712	0.431379
O3	O	-0.783708	0.108164	-0.068646
O4	O	-0.283708	0.608164	0.431354
O5	O	-0.900115	-0.008250	-0.068639
O6	O	-0.400115	0.491750	0.431361
O7	O	-0.887679	0.212126	-0.068628
O8	O	-0.387679	0.712126	0.431372
O9	O	-0.900099	-0.008257	0.068854
O10	O	-0.400099	0.491743	0.568854
O11	O	-0.783692	0.108157	0.068847
O12	O	-0.283692	0.608157	0.568847
O13	O	-1.004070	0.095705	0.068873
O14	O	-0.504070	0.595705	0.568873
Cu15	Cu	-0.893880	0.101930	0.081414
Cu16	Cu	-0.393880	0.601930	0.581414
Cu17	Cu	-0.893899	0.101939	-0.081188
Cu18	Cu	-0.393899	0.601939	0.418812
O19	O	-0.887663	0.212119	0.068865
O20	O	-0.387663	0.712119	0.568865
C21	C	-0.755503	0.107715	0.000097
C22	C	-0.255503	0.607715	0.500097
C23	C	-0.671485	0.106376	0.000086
C24	C	-0.171485	0.606376	0.500086
C25	C	-0.899659	-0.036450	0.000104
C26	C	-0.399659	0.463550	0.500104
C27	C	-0.898314	-0.120467	0.000094
C28	C	-0.398314	0.379533	0.500094
C29	C	-0.888120	0.240319	0.000120
C30	C	-0.388120	0.740319	0.500120
C31	C	-0.889464	0.324337	0.000125
C32	C	-0.389464	0.824337	0.500125
C33	C	-1.032275	0.096155	0.000128
C34	C	-0.532275	0.596155	0.500128
C35	C	-1.116293	0.097493	0.000133
C36	C	-0.616293	0.597493	0.500133
C37	C	-0.622869	0.174709	0.000090
C38	C	-0.122869	0.674709	0.500090
C39	C	-0.543926	0.173446	0.000101
C40	C	-0.043926	0.673446	0.500101
C41	C	-0.513600	0.103851	0.000102
C42	C	-0.013600	0.603851	0.500102
C43	C	-0.562222	0.035513	0.000101
C44	C	-0.062222	0.535513	0.500101
C45	C	-0.641164	0.036776	0.000096
C46	C	-0.141164	0.536776	0.500096
C47	C	-0.243859	0.030418	0.000121
C48	C	0.256141	0.530418	0.500121
C49	C	-0.164911	0.029160	0.000123
C50	C	0.335089	0.529160	0.500123
C51	C	-0.146621	0.167088	0.000126
C52	C	0.353379	0.667088	0.500126
C53	C	-0.225563	0.168351	0.000121
C54	C	0.274437	0.668351	0.500121
C55	C	-0.274178	0.100014	0.000124
C56	C	0.225822	0.600014	0.500124
C57	C	-0.359777	0.101383	0.000114
C58	C	0.140223	0.601383	0.500114
C59	C	-0.428002	0.102480	0.000106
C60	C	0.071998	0.602480	0.500106
C61	C	-0.828721	0.849208	0.000086
C62	C	-0.328721	1.349208	0.500086
C63	C	-0.827461	0.770264	0.000095
C64	C	-0.327461	1.270264	0.500095
C65	C	-0.895797	0.721646	0.000105
C66	C	-0.395797	1.221646	0.500105
C67	C	-0.965395	0.751976	0.000116
C68	C	-0.465395	1.251976	0.500116
C69	C	-0.966654	0.830919	0.000113
C70	C	-0.466654	1.330919	0.500113
C71	C	-0.960322	0.433610	0.000127
C72	C	-0.460322	0.933610	0.500127
C73	C	-0.959059	0.354663	0.000127
C74	C	-0.459059	0.854663	0.500127
C75	C	-0.821130	0.372956	0.000108
C76	C	-0.321130	0.872956	0.500108
C77	C	-0.822388	0.451898	0.000106
C78	C	-0.322388	0.951898	0.500106
C79	C	-0.891987	0.482221	0.000121
C80	C	-0.391987	0.982221	0.500121
C81	C	-0.893351	0.567821	0.000113
C82	C	-0.393351	1.067821	0.500113
C83	C	-0.894433	0.636048	0.000107
C84	C	-0.394433	1.136048	0.500107
N85	N	-0.893872	0.101924	0.195779
N86	N	-0.393872	0.601924	0.695779
N87	N	-0.893912	0.101940	-0.195553
N88	N	-0.393912	0.601940	0.304447
C89	C	-0.945432	0.050396	0.239047
C90	C	-0.445432	0.550396	0.739047
C91	C	-0.945436	0.050396	0.325594
C92	C	-0.445436	0.550396	0.825594
C93	C	-0.893883	0.101926	0.368872
C94	C	-0.393883	0.601926	0.868872
C95	C	-0.842317	0.153456	0.325598
C96	C	-0.342317	0.653456	0.825598
C97	C	-0.842310	0.153453	0.239053
C98	C	-0.342310	0.653453	0.739053
C99	C	-0.842343	0.153470	0.674627
C100	C	-0.342343	0.653470	1.174627
C101	C	-0.842355	0.153471	0.761178
C102	C	-0.342355	0.653471	1.261178
C103	C	-0.945469	0.050413	0.761168
C104	C	-0.445469	0.550413	1.261168
C105	C	-0.945462	0.050410	0.674622
C106	C	-0.445462	0.550410	1.174622
C107	C	-0.893894	0.101936	0.631356
C108	C	-0.393894	0.601936	1.131356
C109	C	-0.893889	0.101936	0.537512
C110	C	-0.393889	0.601936	1.037512
C111	C	-0.893890	0.101931	0.462714
C112	C	-0.393890	0.601931	0.962714
H113	H	-0.647554	0.231382	0.000089
H114	H	-0.147554	0.731382	0.500089
H115	H	-0.800323	0.195410	0.203825
H116	H	-0.300323	0.695410	0.703825
H117	H	-0.987444	0.008451	0.639388
H118	H	-0.487444	0.508451	1.139388
H119	H	-0.987456	0.008455	0.796404
H120	H	-0.487456	0.508455	1.296404
H121	H	-0.800371	0.195435	0.796414
H122	H	-0.300371	0.695435	1.296414
C123	C	-0.754444	0.901863	0.000114
C124	C	-0.254444	1.401863	0.500114
C125	C	-0.693228	0.858405	0.000132
C126	C	-0.193228	1.358405	0.500132
C127	C	-0.624792	0.906883	0.000171
C128	C	-0.124792	1.406883	0.500171
H129	H	-0.751964	0.933054	-0.047821
H130	H	-0.251964	1.433054	0.452179
H131	H	-0.752020	0.933030	0.048079
H132	H	-0.252020	1.433030	0.548079
H133	H	-0.695651	0.827252	-0.047828
H134	H	-0.195651	1.327252	0.452172
H135	H	-0.695683	0.827215	0.048064
H136	H	-0.195683	1.327215	0.548064
H137	H	-0.622367	0.938049	0.048135
H138	H	-0.122367	1.438049	0.548135
H139	H	-0.622320	0.938071	-0.047766
H140	H	-0.122320	1.438071	0.452234
H141	H	-0.583249	0.877404	0.000190
H142	H	-0.083249	1.377404	0.500190
C143	C	-1.001512	-0.005573	0.372420
C144	C	-0.501512	0.494427	0.872420
C145	C	-1.046679	-0.050681	0.315996
C146	C	-0.546679	0.449319	0.815996
C147	C	-1.098355	-0.102240	0.359101
C148	C	-0.598355	0.397760	0.859101
H149	H	-0.974447	-0.037124	0.406194
H150	H	-0.474447	0.462876	0.906194
H151	H	-1.033006	0.021606	0.406155
H152	H	-0.533006	0.521606	0.906155
H153	H	-1.015189	-0.077858	0.282276
H154	H	-0.515189	0.422142	0.782276
H155	H	-1.073760	-0.019151	0.282220
H156	H	-0.573760	0.480849	0.782220
H157	H	-1.129849	-0.075061	0.392836
H158	H	-0.629849	0.424939	0.892836
H159	H	-1.071284	-0.133785	0.392874
H160	H	-0.571284	0.366215	0.892874
H161	H	-1.129012	-0.132847	0.320824
H162	H	-0.629012	0.367153	0.820824
H163	H	-0.800356	0.195426	0.639406
H164	H	-0.300356	0.695426	1.139406
H165	H	-0.283432	-0.025227	0.000124
H166	H	0.216568	0.474773	0.500124
C167	C	-0.132088	-0.046461	0.000002
C168	C	0.367912	0.453539	0.500002
C169	C	-0.156824	-0.087775	-0.070722
C170	C	0.343176	0.412225	0.429278
C171	C	-0.126611	-0.157439	-0.070858
C172	C	0.373389	0.342561	0.429142
H173	H	-0.078113	-0.037532	-0.000042
H174	H	0.421887	0.462468	0.499958
H175	H	-0.148803	-0.074631	0.047926
H176	H	0.351197	0.425369	0.547926
H177	H	-0.140104	-0.059611	-0.118634
H178	H	0.359896	0.440389	0.381366
H179	H	-0.210794	-0.096724	-0.070694
H180	H	0.289206	0.403276	0.429306
H181	H	-0.143326	-0.185609	-0.022933
H182	H	0.356674	0.314391	0.477067
H183	H	-0.072637	-0.148502	-0.070898
H184	H	0.427363	0.351498	0.429102
H185	H	-0.143395	-0.185482	-0.118838
H186	H	0.356605	0.314518	0.381162
H187	H	-0.800337	0.195411	0.360840
H188	H	-0.300337	0.695411	0.860840
C189	C	-0.751954	0.737239	-0.000050
C190	C	-0.251954	1.237239	0.499950
C191	C	-0.747223	0.692434	-0.070775
C192	C	-0.247223	1.192434	0.429225
C193	C	-0.677678	0.661994	-0.070932
C194	C	-0.177678	1.161994	0.429068
H195	H	-0.711374	0.777424	-0.000105
H196	H	-0.211374	1.277424	0.499895
H197	H	-0.748576	0.706784	0.047873
H198	H	-0.248576	1.206784	0.547873
H199	H	-0.750594	0.722888	-0.118686
H200	H	-0.250594	1.222888	0.381314
H201	H	-0.787787	0.652238	-0.070735
H202	H	-0.287787	1.152238	0.429265
H203	H	-0.674299	0.631539	-0.023009
H204	H	-0.174299	1.131539	0.476991
H205	H	-0.637103	0.702184	-0.070985
H206	H	-0.137103	1.202184	0.429015
H207	H	-0.674461	0.631585	-0.118914
H208	H	-0.174461	1.131585	0.381086
H209	H	-0.537525	-0.021153	0.000113
H210	H	-0.037525	0.478847	0.500113
H211	H	-0.250249	0.225023	0.000116
H212	H	0.249751	0.725023	0.500116
C213	C	-0.491269	0.247719	0.000061
C214	C	0.008731	0.747719	0.500061
C215	C	-0.534723	0.308938	0.000033
C216	C	-0.034723	0.808938	0.500033
C217	C	-0.486242	0.377372	-0.000012
C218	C	0.013758	0.877372	0.499988
H219	H	-0.460080	0.250202	0.047999
H220	H	0.039920	0.750202	0.547999
H221	H	-0.460100	0.250136	-0.047901
H222	H	0.039900	0.750136	0.452099
H223	H	-0.565878	0.306522	0.047991
H224	H	-0.065878	0.806522	0.547991
H225	H	-0.565911	0.306480	-0.047901
H226	H	-0.065911	0.806480	0.452099
H227	H	-0.455073	0.379789	-0.047975
H228	H	0.044927	0.879789	0.452025
H229	H	-0.455055	0.379847	0.047926
H230	H	0.044945	0.879847	0.547926
H231	H	-0.515718	0.418917	-0.000039
H232	H	-0.015718	0.918917	0.499961
H233	H	-0.107028	0.222732	0.000127
H234	H	0.392972	0.722732	0.500127
C235	C	-1.035859	0.466572	0.000303
C236	C	-0.535859	0.966572	0.500303
C237	C	-1.040616	0.511343	0.071050
C238	C	-0.540616	1.011343	0.571050
C239	C	-1.110196	0.541717	0.071243
C240	C	-0.610196	1.041717	0.571243
H241	H	-1.039296	0.497040	-0.047588
H242	H	-0.539296	0.997040	0.452412
H243	H	-1.076400	0.426333	0.000350
H244	H	-0.576400	0.926333	0.500350
H245	H	-1.000087	0.551577	0.070995
H246	H	-0.500087	1.051577	0.570995
H247	H	-1.037193	0.480893	0.118952
H248	H	-0.537193	0.980893	0.618952
H249	H	-1.150737	0.501477	0.071290
H250	H	-0.650737	1.001477	0.571290
H251	H	-1.113627	0.572180	0.023349
H252	H	-0.613627	1.072180	0.523349
H253	H	-1.113436	0.572091	0.119247
H254	H	-0.613436	1.072091	0.619247
H255	H	-0.680747	-0.018868	0.000092
H256	H	-0.180747	0.481132	0.500092
H257	H	-0.766743	0.491479	0.000093
H258	H	-0.266743	0.991479	0.500093
H259	H	-0.764460	0.348258	0.000100
H260	H	-0.264460	0.848258	0.500100
C261	C	-1.039614	0.699231	0.000296
C262	C	-0.539614	1.199231	0.500296
C263	C	-1.081512	0.712903	0.071048
C264	C	-0.581512	1.212903	0.571048
C265	C	-1.149883	0.664325	0.071243
C266	C	-0.649883	1.164325	0.571243
H267	H	-1.068252	0.708369	-0.047592
H268	H	-0.568252	1.208369	0.452408
H269	H	-1.028932	0.647861	0.000337
H270	H	-0.528932	1.147861	0.500337
H271	H	-1.092196	0.764262	0.070998
H272	H	-0.592196	1.264262	0.570998
H273	H	-1.052897	0.703760	0.118947
H274	H	-0.552897	1.203760	0.618947
H275	H	-1.139201	0.612954	0.071285
H276	H	-0.639201	1.112954	0.571285
H277	H	-1.178514	0.673466	0.023353
H278	H	-0.678514	1.173466	0.523353
H279	H	-1.178316	0.673589	0.119251
H280	H	-0.678316	1.173589	0.619251
C281	C	-1.033337	0.302001	0.000186
C282	C	-0.533337	0.802001	0.500186
C283	C	-1.094559	0.345452	0.000223
C284	C	-0.594559	0.845452	0.500223
C285	C	-1.162991	0.296967	0.000287
C286	C	-0.662991	0.796967	0.500287
H287	H	-1.035829	0.270809	-0.047747
H288	H	-0.535829	0.770809	0.452253
H289	H	-1.035742	0.270837	0.048153
H290	H	-0.535742	0.770837	0.548153
H291	H	-1.092156	0.376604	-0.047739
H292	H	-0.592156	0.876604	0.452261
H293	H	-1.092092	0.376643	0.048152
H294	H	-0.592092	0.876643	0.548152
H295	H	-1.165396	0.265803	0.048254
H296	H	-0.665396	0.765803	0.548254
H297	H	-1.165475	0.265777	-0.047647
H298	H	-0.665475	0.765777	0.452353
H299	H	-1.204538	0.326441	0.000319
H300	H	-0.704538	0.826441	0.500319
H301	H	-1.023324	0.855607	0.000121
H302	H	-0.523324	1.355607	0.500121
H303	H	-0.987416	0.008437	0.203815
H304	H	-0.487416	0.508437	0.703815
