data_functionalizedCrystal
_audit_creation_method	'MofGen! by Chris Wilmer'
_symmetry_space_group_name_H-M	'P1'
_symmetry_Int_Tables_number	1
_symmetry_cell_setting	triclinic
loop_
_symmetry_equiv_pos_as_xyz
  x,y,z
_cell_length_a	12.759395
_cell_length_b	14.908520
_cell_length_c	14.908308
_cell_angle_alpha	83.639235
_cell_angle_beta	86.719697
_cell_angle_gamma	93.322116
loop_
_atom_site_label
_atom_site_type_symbol
_atom_site_fract_x
_atom_site_fract_y
_atom_site_fract_z
Zn1	Zn	1.544176	-0.389837	0.532516
Zn2	Zn	2.044176	0.110163	1.032516
Zn3	Zn	1.544056	-0.532483	0.389887
Zn4	Zn	2.044056	-0.032483	0.889887
Zn5	Zn	1.379244	-0.381144	0.381180
Zn6	Zn	1.879244	0.118856	0.881180
Zn7	Zn	1.357689	-0.541160	0.541202
Zn8	Zn	1.857689	-0.041160	1.041202
O9	O	1.456291	-0.461156	0.461196
O10	O	1.956291	0.038844	0.961196
O11	O	1.691180	-0.408766	0.513605
O12	O	2.191180	0.091234	1.013605
O13	O	1.531164	-0.505137	0.262071
O14	O	2.031164	-0.005137	0.762071
O15	O	1.410193	-0.255632	0.393976
O16	O	1.910193	0.244368	0.893976
O17	O	1.691092	-0.513567	0.408816
O18	O	2.191092	-0.013567	0.908816
O19	O	1.531368	-0.262019	0.505162
O20	O	2.031368	0.237981	1.005162
O21	O	1.410077	-0.393949	0.255674
O22	O	1.910077	0.106051	0.755674
O23	O	1.229364	-0.402363	0.402398
O24	O	1.729364	0.097637	0.902398
O25	O	1.373457	-0.528357	0.666710
O26	O	1.873457	-0.028357	1.166710
O27	O	1.213529	-0.519927	0.519965
O28	O	1.713529	-0.019927	1.019965
O29	O	1.510467	-0.417180	0.660329
O30	O	2.010467	0.082820	1.160329
O31	O	1.510264	-0.660299	0.417238
O32	O	2.010264	-0.160299	0.917238
O33	O	1.373341	-0.666674	0.528408
O34	O	1.873341	-0.166674	1.028408
C35	C	1.439478	-0.696330	0.474730
C36	C	1.939478	-0.196330	0.974730
C37	C	1.432379	-0.796940	0.480550
C38	C	1.932379	-0.296940	0.980550
C39	C	1.183326	-0.461144	0.461180
C40	C	1.683326	0.038856	0.961180
C41	C	1.066547	-0.461162	0.461196
C42	C	1.566547	0.038838	0.961196
C43	C	1.561749	-0.979303	0.375818
C44	C	2.061749	-0.479303	0.875818
C45	C	1.555082	-1.073836	0.381284
C46	C	2.055082	-0.573836	0.881284
C47	C	1.412385	-1.080539	0.496951
C48	C	1.912385	-0.580539	0.996951
C49	C	1.419052	-0.986007	0.491486
C50	C	1.919052	-0.486007	0.991486
C51	C	1.493735	-0.935392	0.430916
C52	C	1.993735	-0.435392	0.930916
C53	C	1.500396	-0.840858	0.425447
C54	C	2.000396	-0.340858	0.925447
C55	C	1.357704	-0.847563	0.541118
C56	C	1.857704	-0.347563	1.041118
C57	C	1.351038	-0.942095	0.546583
C58	C	1.851038	-0.442095	1.046583
C59	C	1.050095	-0.583757	0.583442
C60	C	1.550095	-0.083757	1.083442
C61	C	0.987008	-0.645062	0.644569
C62	C	1.487008	-0.145062	1.144569
C63	C	0.877285	-0.645073	0.644580
C64	C	1.377285	-0.145073	1.144580
C65	C	0.830648	-0.583772	0.583461
C66	C	1.330648	-0.083772	1.083461
C67	C	0.893735	-0.522467	0.522335
C68	C	1.393735	-0.022467	1.022335
C69	C	1.003459	-0.522464	0.522328
C70	C	1.503459	-0.022464	1.022328
C71	C	0.910186	-0.399869	0.400094
C72	C	1.410186	0.100131	0.900094
C73	C	1.019909	-0.399860	0.400076
C74	C	1.519909	0.100140	0.900076
C75	C	0.863548	-0.338568	0.338974
C76	C	1.363548	0.161432	0.838974
C77	C	0.926635	-0.277266	0.277842
C78	C	1.426635	0.222734	0.777842
C79	C	1.036365	-0.277257	0.277832
C80	C	1.536365	0.222743	0.777832
C81	C	1.082996	-0.338555	0.338950
C82	C	1.582996	0.161445	0.838950
C83	C	1.730323	-0.461168	0.461213
C84	C	2.230323	0.038832	0.961213
C85	C	1.847099	-0.461174	0.461220
C86	C	2.347099	0.038826	0.961220
C87	C	1.439571	-0.474706	0.697280
C88	C	1.939571	0.025294	1.197280
C89	C	1.432446	-0.480480	0.797885
C90	C	1.932446	0.019520	1.297885
C91	C	1.473198	-0.225064	0.447629
C92	C	1.973198	0.274936	0.947629
C93	C	1.480402	-0.124456	0.441847
C94	C	1.980402	0.375544	0.941847
C95	C	1.473012	-0.447593	0.226027
C96	C	1.973012	0.052407	0.726027
C97	C	1.480359	-0.441564	0.125408
C98	C	1.980359	0.058436	0.625408
C99	C	1.561725	-0.375542	0.980288
C100	C	2.061725	0.124458	1.480288
C101	C	1.555033	-0.380965	1.074815
C102	C	2.055033	0.119035	1.574815
C103	C	1.412368	-0.496742	1.081467
C104	C	1.912368	0.003258	1.581467
C105	C	1.419059	-0.491320	0.986940
C106	C	1.919059	0.008680	1.486940
C107	C	1.493741	-0.430719	0.936354
C108	C	1.993741	0.069281	1.436354
C109	C	1.500436	-0.425302	0.841825
C110	C	2.000436	0.074698	1.341825
C111	C	1.357767	-0.541074	0.848479
C112	C	1.857767	-0.041074	1.348479
C113	C	1.351075	-0.546497	0.943006
C114	C	1.851075	-0.046497	1.443006
H115	H	1.622552	-0.938092	0.326494
H116	H	2.122552	-0.438092	0.826494
H117	H	1.351565	-0.546080	1.122671
H118	H	1.851565	-0.046080	1.622671
N119	N	1.201339	-0.338545	0.338946
N120	N	1.701339	0.161455	0.838946
H121	H	1.234231	-0.290407	0.290951
H122	H	1.734231	0.209593	0.790951
H123	H	1.224429	-0.399680	0.325799
H124	H	1.724429	0.100320	0.825799
N125	N	1.270489	-0.996695	0.611901
N126	N	1.770489	-0.496695	1.111901
H127	H	1.197594	-0.979496	0.596830
H128	H	1.697594	-0.479496	1.096830
H129	H	1.283408	-0.983900	0.675608
H130	H	1.783408	-0.483900	1.175608
N131	N	1.270510	-0.611838	0.997568
N132	N	1.770510	-0.111838	1.497568
H133	H	1.276578	-0.606896	1.064117
H134	H	1.776578	-0.106896	1.564117
H135	H	1.283391	-0.675541	0.984773
H136	H	1.783391	-0.175541	1.484773
H137	H	1.561248	-0.375958	0.800639
H138	H	2.061248	0.124042	1.300639
H139	H	1.302412	-0.586006	0.812699
H140	H	1.802412	-0.086006	1.312699
N141	N	0.876336	-0.211165	0.211916
N142	N	1.376336	0.288835	0.711916
H143	H	0.797255	-0.220476	0.221198
H144	H	1.297255	0.279524	0.721198
H145	H	0.899084	-0.221453	0.148057
H146	H	1.399084	0.278547	0.648057
H147	H	1.561203	-0.799648	0.376126
H148	H	2.061203	-0.299648	0.876126
H149	H	1.610468	-1.109584	0.336420
H150	H	2.110468	-0.609584	0.836420
H151	H	1.087725	-0.227329	0.228062
H152	H	1.587725	0.272671	0.728062
H153	H	1.351589	-1.121765	0.546270
H154	H	1.851589	-0.621765	1.046270
H155	H	1.610390	-0.336032	1.110582
H156	H	2.110390	0.163968	1.610582
N157	N	1.284334	-0.800203	0.600544
N158	N	1.784334	-0.300203	1.100544
H159	H	1.299884	-0.732636	0.587891
H160	H	1.799884	-0.232636	1.087891
H161	H	1.294875	-0.820398	0.666156
H162	H	1.794875	-0.320398	1.166156
N163	N	1.168439	-0.583755	0.583418
N164	N	1.668439	-0.083755	1.083418
H165	H	1.188411	-0.631891	0.631407
H166	H	1.688411	-0.131891	1.131407
H167	H	1.198050	-0.522619	0.596560
H168	H	1.698050	-0.022619	1.096560
H169	H	1.622538	-0.326203	0.939100
H170	H	2.122538	0.173797	1.439100
H171	H	1.024993	-0.694971	0.694332
H172	H	1.524993	-0.194971	1.194332
H173	H	0.825919	-0.694989	0.694359
H174	H	1.325919	-0.194989	1.194359
H175	H	0.741304	-0.583779	0.583483
H176	H	1.241304	-0.083779	1.083483
H177	H	0.774205	-0.338578	0.338992
H178	H	1.274205	0.161422	0.838992
