data_functionalizedCrystal
_audit_creation_method	'MofGen! by Chris Wilmer'
_symmetry_space_group_name_H-M	'P1'
_symmetry_Int_Tables_number	1
_symmetry_cell_setting	triclinic
loop_
_symmetry_equiv_pos_as_xyz
  x,y,z
_cell_length_a	16.120297
_cell_length_b	12.759401
_cell_length_c	12.759400
_cell_angle_alpha	90.014845
_cell_angle_beta	87.124600
_cell_angle_gamma	87.118559
loop_
_atom_site_label
_atom_site_type_symbol
_atom_site_fract_x
_atom_site_fract_y
_atom_site_fract_z
Zn1	Zn	-0.471333	-1.576121	0.448407
Zn2	Zn	-0.331928	-1.584928	0.615191
Zn3	Zn	-0.331944	-1.409335	0.439529
Zn4	Zn	-0.471303	-1.400414	0.624043
O5	O	-0.401627	-1.492700	0.531792
O6	O	-0.452847	-1.724310	0.470542
O7	O	-0.215267	-1.569055	0.584470
O8	O	-0.350453	-1.431507	0.293687
O9	O	-0.350427	-1.730781	0.593078
O10	O	-0.452862	-1.554044	0.300209
O11	O	-0.215278	-1.440047	0.455411
O12	O	-0.350424	-1.261131	0.463994
O13	O	-0.587970	-1.416303	0.608164
O14	O	-0.452810	-1.254577	0.599555
O15	O	-0.587992	-1.545394	0.479125
O16	O	-0.350398	-1.560404	0.763385
O17	O	-0.452795	-1.424842	0.769889
C18	C	-0.401616	-1.219733	0.531772
C19	C	-0.401631	-1.102955	0.531790
C20	C	-0.619077	-1.478871	0.545622
C21	C	-0.711741	-1.472978	0.551516
C22	C	-0.401610	-1.492638	0.804759
C23	C	-0.401630	-1.492707	0.921537
C24	C	-0.881399	-1.462180	0.562253
C25	C	-0.922707	-1.523426	0.501017
C26	C	-1.017110	-1.517418	0.506991
C27	C	-0.786987	-1.468186	0.556280
C28	C	-0.185023	-1.506535	0.517940
C29	C	-0.092360	-1.512632	0.511751
C30	C	-0.401639	-1.766732	0.531813
C31	C	-0.401644	-1.883508	0.531822
C32	C	-0.454855	-1.044714	0.602479
C33	C	-0.454864	-0.934989	0.602493
C34	C	-0.348417	-0.941758	0.461126
C35	C	-0.348413	-1.051480	0.461108
C36	C	-0.516309	-1.040805	0.684100
C37	C	-0.516318	-0.931080	0.684114
C38	C	-0.401663	-1.492789	0.257761
C39	C	-0.401678	-1.492826	0.140986
C40	C	-0.348371	-1.563364	0.972981
C41	C	-0.348396	-1.563427	1.082707
C42	C	-0.454943	-1.422165	1.089534
C43	C	-0.454921	-1.422108	0.979810
C44	C	-0.286854	-1.644918	0.969041
C45	C	-0.286880	-1.644981	1.078766
H46	H	-0.887172	-1.580372	0.444105
Cl47	Cl	-0.936259	-1.374268	0.650120
H48	H	-0.304193	-1.725153	0.940294
H49	H	-0.305078	-1.098896	0.403539
Cl50	Cl	-0.521892	-1.333293	0.915141
Cl51	Cl	-0.281519	-0.877039	0.372272
Cl52	Cl	-0.192129	-1.605984	0.910549
H53	H	-0.222303	-1.627372	1.104490
H54	H	-0.498914	-0.902397	0.764348
H55	H	-0.580906	-1.066483	0.666540
H56	H	-0.498332	-1.364687	1.136993
H57	H	-0.577698	-0.893158	0.659003
Cl58	Cl	-0.322681	-1.762031	1.133478
Cl59	Cl	-0.480512	-1.095618	0.801112
