data_functionalizedCrystal
_audit_creation_method	'MofGen! by Chris Wilmer'
_symmetry_space_group_name_H-M	'P1'
_symmetry_Int_Tables_number	1
_symmetry_cell_setting	triclinic
loop_
_symmetry_equiv_pos_as_xyz
  x,y,z
_cell_length_a	16.109302
_cell_length_b	14.853559
_cell_length_c	14.586319
_cell_angle_alpha	89.998399
_cell_angle_beta	89.994552
_cell_angle_gamma	83.546617
loop_
_atom_site_label
_atom_site_type_symbol
_atom_site_fract_x
_atom_site_fract_y
_atom_site_fract_z
O1	O	1.103290	0.115884	-0.076277
O2	O	1.353290	0.365884	0.173723
O3	O	1.603290	0.615884	0.423723
O4	O	1.853290	0.865884	0.673723
O5	O	0.861248	0.130305	-0.076269
O6	O	1.111248	0.380305	0.173731
O7	O	1.361248	0.630305	0.423731
O8	O	1.611248	0.880305	0.673731
O9	O	0.988738	-0.008146	-0.076272
O10	O	1.238738	0.241854	0.173728
O11	O	1.488738	0.491854	0.423728
O12	O	1.738738	0.741854	0.673728
O13	O	0.975800	0.254336	-0.076274
O14	O	1.225800	0.504336	0.173726
O15	O	1.475800	0.754336	0.423726
O16	O	1.725800	1.004336	0.673726
O17	O	0.988729	-0.008148	0.076208
O18	O	1.238729	0.241852	0.326208
O19	O	1.488729	0.491852	0.576208
O20	O	1.738729	0.741852	0.826208
O21	O	0.861239	0.130303	0.076212
O22	O	1.111239	0.380303	0.326212
O23	O	1.361239	0.630303	0.576212
O24	O	1.611239	0.880303	0.826212
O25	O	1.103281	0.115882	0.076204
O26	O	1.353281	0.365882	0.326204
O27	O	1.603281	0.615882	0.576204
O28	O	1.853281	0.865882	0.826204
Cu29	Cu	0.982259	0.123092	0.090130
Cu30	Cu	1.232259	0.373092	0.340130
Cu31	Cu	1.482259	0.623092	0.590130
Cu32	Cu	1.732259	0.873092	0.840130
Cu33	Cu	0.982270	0.123095	-0.090196
Cu34	Cu	1.232270	0.373095	0.159804
Cu35	Cu	1.482270	0.623095	0.409804
Cu36	Cu	1.732270	0.873095	0.659804
O37	O	0.975791	0.254333	0.076207
O38	O	1.225791	0.504333	0.326207
O39	O	1.475791	0.754333	0.576207
O40	O	1.725791	1.004333	0.826207
C41	C	0.830268	0.129720	-0.000028
C42	C	1.080268	0.379720	0.249972
C43	C	1.330268	0.629720	0.499972
C44	C	1.580268	0.879720	0.749972
C45	C	0.737970	0.127968	-0.000025
C46	C	0.987970	0.377968	0.249975
C47	C	1.237970	0.627968	0.499975
C48	C	1.487970	0.877968	0.749975
C49	C	0.525619	0.123917	0.083083
C50	C	0.775619	0.373917	0.333083
C51	C	1.025619	0.623917	0.583083
C52	C	1.275619	0.873917	0.833083
C53	C	0.438896	0.122261	0.083080
C54	C	0.688896	0.372261	0.333080
C55	C	0.938896	0.622261	0.583080
C56	C	1.188896	0.872261	0.833080
C57	C	0.438917	0.122268	-0.083163
C58	C	0.688917	0.372268	0.166837
C59	C	0.938917	0.622268	0.416837
C60	C	1.188917	0.872268	0.666837
C61	C	0.525638	0.123917	-0.083159
C62	C	0.775638	0.373917	0.166841
C63	C	1.025638	0.623917	0.416841
C64	C	1.275638	0.873917	0.666841
C65	C	0.568986	0.124746	-0.000033
C66	C	0.818986	0.374746	0.249967
C67	C	1.068986	0.624746	0.499967
C68	C	1.318986	0.874746	0.749967
C69	C	0.395543	0.121441	-0.000040
C70	C	0.645543	0.371441	0.249960
C71	C	0.895543	0.621441	0.499960
C72	C	1.145543	0.871441	0.749960
C73	C	0.301514	0.119646	-0.000044
C74	C	0.551514	0.369646	0.249956
C75	C	0.801514	0.619646	0.499956
C76	C	1.051514	0.869646	0.749956
C77	C	0.663021	0.126539	-0.000029
C78	C	0.913021	0.376539	0.249971
C79	C	1.163021	0.626539	0.499971
C80	C	1.413021	0.876539	0.749971
C81	C	0.988149	-0.041735	-0.000034
C82	C	1.238149	0.208265	0.249966
C83	C	1.488149	0.458265	0.499966
C84	C	1.738149	0.708265	0.749966
C85	C	0.986396	-0.141816	-0.000039
C86	C	1.236396	0.108184	0.249961
C87	C	1.486396	0.358184	0.499961
C88	C	1.736396	0.608184	0.749961
C89	C	0.978964	-0.564978	-0.083156
C90	C	1.228964	-0.314978	0.166844
C91	C	1.478964	-0.064978	0.416844
C92	C	1.728964	0.185022	0.666844
C93	C	0.978954	-0.564975	0.083085
C94	C	1.228954	-0.314975	0.333085
C95	C	1.478954	-0.064975	0.583085
C96	C	1.728954	0.185025	0.833085
C97	C	0.980608	-0.470945	0.083085
C98	C	1.230608	-0.220945	0.333085
C99	C	1.480608	0.029055	0.583085
C100	C	1.730608	0.279055	0.833085
C101	C	0.981439	-0.423926	-0.000036
C102	C	1.231439	-0.173926	0.249964
C103	C	1.481439	0.076074	0.499964
C104	C	1.731439	0.326074	0.749964
C105	C	0.980615	-0.470939	-0.083158
C106	C	1.230615	-0.220939	0.166842
C107	C	1.480615	0.029061	0.416842
C108	C	1.730615	0.279061	0.666842
C109	C	0.981423	-0.423924	0.166206
C110	C	1.231423	-0.173924	0.416206
C111	C	1.481423	0.076076	0.666206
C112	C	1.731423	0.326076	0.916206
C113	C	0.983076	-0.329888	0.166210
C114	C	1.233076	-0.079888	0.416210
C115	C	1.483076	0.170112	0.666210
C116	C	1.733076	0.420112	0.916210
C117	C	0.983913	-0.282868	0.083088
C118	C	1.233913	-0.032868	0.333088
C119	C	1.483913	0.217132	0.583088
C120	C	1.733913	0.467132	0.833088
C121	C	0.983090	-0.329887	-0.000038
C122	C	1.233090	-0.079887	0.249962
C123	C	1.483090	0.170113	0.499962
C124	C	1.733090	0.420113	0.749962
C125	C	0.983921	-0.282868	-0.083159
C126	C	1.233921	-0.032868	0.166841
C127	C	1.483921	0.217132	0.416841
C128	C	1.733921	0.467132	0.666841
C129	C	0.983104	-0.329886	-0.166285
C130	C	1.233104	-0.079886	0.083715
C131	C	1.483104	0.170114	0.333715
C132	C	1.733104	0.420114	0.583715
C133	C	0.981452	-0.423919	-0.166280
C134	C	1.231452	-0.173919	0.083720
C135	C	1.481452	0.076081	0.333720
C136	C	1.731452	0.326081	0.583720
C137	C	0.985565	-0.188835	0.083082
C138	C	1.235565	0.061165	0.333082
C139	C	1.485565	0.311165	0.583082
C140	C	1.735565	0.561165	0.833082
C141	C	0.985572	-0.188829	-0.083161
C142	C	1.235572	0.061171	0.166839
C143	C	1.485572	0.311171	0.416839
C144	C	1.735572	0.561171	0.666839
C145	C	1.134261	0.116467	-0.000040
C146	C	1.384261	0.366467	0.249960
C147	C	1.634261	0.616467	0.499960
C148	C	1.884261	0.866467	0.749960
C149	C	1.226559	0.118219	-0.000048
C150	C	1.476559	0.368219	0.249952
C151	C	1.726559	0.618219	0.499952
C152	C	1.976559	0.868219	0.749952
C153	C	0.976380	0.287922	-0.000034
C154	C	1.226380	0.537922	0.249966
C155	C	1.476380	0.787922	0.499966
C156	C	1.726380	1.037922	0.749966
C157	C	0.978133	0.388004	-0.000035
C158	C	1.228133	0.638004	0.249965
C159	C	1.478133	0.888004	0.499965
C160	C	1.728133	1.138004	0.749965
N161	N	0.982258	0.123090	0.216962
N162	N	1.232258	0.373090	0.466962
N163	N	1.482258	0.623090	0.716962
N164	N	1.732258	0.873090	0.966962
N165	N	0.982278	0.123090	-0.217028
N166	N	1.232278	0.373090	0.032972
N167	N	1.482278	0.623090	0.282972
N168	N	1.732278	0.873090	0.532972
C169	C	1.038729	0.061804	0.451967
C170	C	1.288729	0.311804	0.701967
C171	C	1.538729	0.561804	0.951967
C172	C	1.788729	0.811804	1.201967
C173	C	1.038732	0.061802	0.547948
C174	C	1.288732	0.311802	0.797948
C175	C	1.538732	0.561802	1.047948
C176	C	1.788732	0.811802	1.297948
C177	C	0.925800	0.184378	0.547961
C178	C	1.175800	0.434378	0.797961
C179	C	1.425800	0.684378	1.047961
C180	C	1.675800	0.934378	1.297961
C181	C	0.925795	0.184376	0.451981
C182	C	1.175795	0.434376	0.701981
C183	C	1.425795	0.684376	0.951981
C184	C	1.675795	0.934376	1.201981
C185	C	0.982264	0.123090	0.403987
C186	C	1.232264	0.373090	0.653987
C187	C	1.482264	0.623090	0.903987
C188	C	1.732264	0.873090	1.153987
C189	C	0.982272	0.123090	0.595948
C190	C	1.232272	0.373090	0.845948
C191	C	1.482272	0.623090	1.095948
C192	C	1.732272	0.873090	1.345948
C193	C	0.982274	0.123088	0.700015
C194	C	1.232274	0.373088	0.950015
C195	C	1.482274	0.623088	1.200015
C196	C	1.732274	0.873088	1.450015
C197	C	0.982261	0.123090	0.299913
C198	C	1.232261	0.373090	0.549913
C199	C	1.482261	0.623090	0.799913
C200	C	1.732261	0.873090	1.049913
H201	H	0.403590	0.121586	0.150761
H202	H	0.653590	0.371586	0.400761
H203	H	0.903590	0.621586	0.650761
H204	H	1.153590	0.871586	0.900761
H205	H	0.879810	0.234282	0.412913
H206	H	1.129810	0.484282	0.662913
H207	H	1.379810	0.734282	0.912913
H208	H	1.629810	0.984282	1.162913
H209	H	1.084710	0.011897	0.587011
H210	H	1.334710	0.261897	0.837011
H211	H	1.584710	0.511897	1.087011
H212	H	1.834710	0.761897	1.337011
H213	H	0.560949	0.124590	-0.150846
H214	H	0.810949	0.374590	0.099154
H215	H	1.060949	0.624590	0.349154
H216	H	1.310949	0.874590	0.599154
H217	H	1.084709	0.011900	0.412893
H218	H	1.334709	0.261900	0.662893
H219	H	1.584709	0.511900	0.912893
H220	H	1.834709	0.761900	1.162893
H221	H	0.986253	-0.150554	-0.150849
H222	H	1.236253	0.099446	0.099151
H223	H	1.486253	0.349446	0.349151
H224	H	1.736253	0.599446	0.599151
H225	H	0.560910	0.124592	0.150770
H226	H	0.810910	0.374592	0.400770
H227	H	1.060910	0.624592	0.650770
H228	H	1.310910	0.874592	0.900770
H229	H	0.403612	0.121594	-0.150841
H230	H	0.653612	0.371594	0.099159
H231	H	0.903612	0.621594	0.349159
H232	H	1.153612	0.871594	0.599159
H233	H	0.879825	0.234277	0.587047
H234	H	1.129825	0.484277	0.837047
H235	H	1.379825	0.734277	1.087047
H236	H	1.629825	0.984277	1.337047
H237	H	0.983775	-0.291590	-0.233962
H238	H	1.233775	-0.041590	0.016038
H239	H	1.483775	0.208410	0.266038
H240	H	1.733775	0.458410	0.516038
H241	H	0.980787	-0.462209	-0.233957
H242	H	1.230787	-0.212209	0.016043
H243	H	1.480787	0.037791	0.266043
H244	H	1.730787	0.287791	0.516043
H245	H	0.978302	-0.603264	-0.150835
H246	H	1.228302	-0.353264	0.099165
H247	H	1.478302	-0.103264	0.349165
H248	H	1.728302	0.146736	0.599165
H249	H	0.978272	-0.603262	0.150758
H250	H	1.228272	-0.353262	0.400758
H251	H	1.478272	-0.103262	0.650758
H252	H	1.728272	0.146738	0.900758
H253	H	0.980742	-0.462213	0.233878
H254	H	1.230742	-0.212213	0.483878
H255	H	1.480742	0.037787	0.733878
H256	H	1.730742	0.287787	0.983878
H257	H	0.983744	-0.291614	0.233896
H258	H	1.233744	-0.041614	0.483896
H259	H	1.483744	0.208386	0.733896
H260	H	1.733744	0.458386	0.983896
H261	H	0.986211	-0.150555	0.150762
H262	H	1.236211	0.099445	0.400762
H263	H	1.486211	0.349445	0.650762
H264	H	1.736211	0.599445	0.900762
