data_functionalizedCrystal
_audit_creation_method	'MofGen! by Chris Wilmer'
_symmetry_space_group_name_H-M	'P1'
_symmetry_Int_Tables_number	1
_symmetry_cell_setting	triclinic
loop_
_symmetry_equiv_pos_as_xyz
  x,y,z
_cell_length_a	23.532361
_cell_length_b	10.489741
_cell_length_c	8.965430
_cell_angle_alpha	89.999293
_cell_angle_beta	90.000502
_cell_angle_gamma	96.315579
loop_
_atom_site_label
_atom_site_type_symbol
_atom_site_fract_x
_atom_site_fract_y
_atom_site_fract_z
O1	O	0.756301	-0.154533	-0.123889
O2	O	0.590583	-0.176997	-0.123925
O3	O	0.677213	0.019960	-0.123897
O4	O	0.669671	-0.351489	-0.123917
O5	O	0.677205	0.019947	0.124182
O6	O	0.590575	-0.177010	0.124154
O7	O	0.756293	-0.154546	0.124190
Cu8	Cu	0.673434	-0.165779	0.146823
Cu9	Cu	0.673442	-0.165764	-0.146559
O10	O	0.669664	-0.351502	0.124162
C11	C	0.569359	-0.176441	0.000110
C12	C	0.506129	-0.174749	0.000097
C13	C	0.232840	-0.167344	-0.135122
C14	C	0.292251	-0.168945	-0.135126
O15	O	0.322985	-0.169723	-0.250129
N16	N	0.321958	-0.169761	0.000103
C17	C	0.292252	-0.168963	0.135344
O18	O	0.322975	-0.169803	0.250366
C19	C	0.232843	-0.167353	0.135346
C20	C	0.203138	-0.166550	0.000109
C21	C	0.203136	-0.166540	-0.270348
C22	C	0.143729	-0.164941	-0.270344
C23	C	0.114027	-0.164147	-0.135113
C24	C	0.143732	-0.164951	0.000113
C25	C	0.203139	-0.166545	0.270585
C26	C	0.143726	-0.164934	0.270576
C27	C	0.114022	-0.164131	0.135339
C28	C	0.054624	-0.162559	0.135348
N29	N	0.024917	-0.161743	0.000119
C30	C	0.054619	-0.162537	-0.135111
C31	C	0.417014	-0.172342	0.135329
C32	C	0.476422	-0.173962	0.135328
C33	C	0.476416	-0.173941	-0.135142
C34	C	0.417008	-0.172331	-0.135139
C35	C	0.387307	-0.171526	0.000100
C36	C	-0.070139	-0.159181	-0.135092
C37	C	-0.129551	-0.157588	-0.135075
C38	C	-0.129540	-0.157601	0.135393
C39	C	-0.070134	-0.159201	0.135378
C40	C	-0.040435	-0.159987	0.000123
O41	O	0.023852	-0.161774	0.250293
O42	O	0.023889	-0.161680	-0.250114
C43	C	0.676639	0.067466	0.000141
C44	C	0.674935	0.209038	0.000138
C45	C	0.777517	-0.155102	0.000151
C46	C	0.840747	-0.156793	0.000155
C47	C	0.670237	-0.399008	0.000120
C48	C	0.671941	-0.540581	0.000114
N49	N	0.673432	-0.165789	0.353173
C50	C	0.619815	0.275325	0.000115
C51	C	0.645850	0.368316	0.122437
C52	C	0.645870	0.368304	-0.122150
C53	C	0.700992	0.300165	0.122560
C54	C	0.701005	0.300143	-0.122136
C55	C	0.727080	0.393108	0.000215
N56	N	0.673449	-0.165743	-0.352908
C57	C	0.633356	-0.256846	0.450466
C58	C	0.684919	-0.280923	0.549889
C59	C	0.621891	-0.141722	0.549877
C60	C	0.725021	-0.189923	0.450407
C61	C	0.661959	-0.050673	0.450386
C62	C	0.713559	-0.074701	0.549764
H63	H	-0.045965	-0.159822	-0.245229
Cl64	Cl	0.106393	-0.163915	0.440603
Cl65	Cl	0.646934	0.099551	0.382846
H66	H	0.578296	-0.121387	0.593573
Cl67	Cl	0.736966	0.253772	0.282402
H68	H	0.500601	-0.174636	0.245452
H69	H	0.500610	-0.174587	-0.245254
H70	H	0.599496	-0.333918	0.406866
H71	H	0.768625	-0.210376	0.406898
H72	H	0.747494	0.002327	0.593090
H73	H	0.392826	-0.171677	-0.245262
Cl74	Cl	0.379682	-0.171349	0.305362
H75	H	0.694634	-0.378254	0.593595
H76	H	-0.153734	-0.156938	-0.245207
Cl77	Cl	0.240464	-0.167538	-0.440376
Cl78	Cl	0.106396	-0.163919	-0.440366
H79	H	0.227315	-0.167195	0.380710
H80	H	-0.045949	-0.159880	0.245499
Cl81	Cl	-0.166891	-0.156605	0.305388
Cl82	Cl	0.549846	0.196315	0.000280
H83	H	0.622524	0.398538	0.225841
Cl84	Cl	0.736988	0.253424	-0.281793
Cl85	Cl	0.797111	0.471776	0.000329
Cl86	Cl	0.609852	0.414941	-0.281803
