data_functionalizedCrystal
_audit_creation_method	'MofGen! by Chris Wilmer'
_symmetry_space_group_name_H-M	'P1'
_symmetry_Int_Tables_number	1
_symmetry_cell_setting	triclinic
loop_
_symmetry_equiv_pos_as_xyz
  x,y,z
_cell_length_a	16.109296
_cell_length_b	11.892095
_cell_length_c	16.109301
_cell_angle_alpha	86.113381
_cell_angle_beta	96.539615
_cell_angle_gamma	86.104202
loop_
_atom_site_label
_atom_site_type_symbol
_atom_site_fract_x
_atom_site_fract_y
_atom_site_fract_z
O1	O	-1.108449	0.093953	0.101532
O2	O	-0.608449	0.593953	0.601532
O3	O	-0.866387	0.093968	0.114835
O4	O	-0.366387	0.593968	0.614835
O5	O	-0.994067	0.093948	-0.012847
O6	O	-0.494067	0.593948	0.487153
O7	O	-0.980769	0.093972	0.229214
O8	O	-0.480769	0.593972	0.729214
O9	O	-0.983422	-0.094057	-0.002217
O10	O	-0.483422	0.405943	0.497783
O11	O	-0.855742	-0.094038	0.125465
O12	O	-0.355742	0.405962	0.625465
O13	O	-1.097803	-0.094053	0.112161
O14	O	-0.597803	0.405947	0.612161
Zn15	Zn	-0.975082	-0.123895	0.120501
Zn16	Zn	-0.475082	0.376105	0.620501
Zn17	Zn	-0.989109	0.123810	0.106496
Zn18	Zn	-0.489109	0.623810	0.606496
O19	O	-0.970124	-0.094034	0.239844
O20	O	-0.470124	0.405966	0.739844
C21	C	-0.830090	-0.000034	0.119612
C22	C	-0.330090	0.499966	0.619612
C23	C	-0.737794	-0.000029	0.117998
C24	C	-0.237794	0.499971	0.617998
C25	C	-0.428795	-0.000044	0.188488
C26	C	0.071205	0.499956	0.688488
C27	C	-0.515515	-0.000036	0.190011
C28	C	-0.015515	0.499964	0.690011
C29	C	-0.535389	-0.000036	0.038522
C30	C	-0.035389	0.499964	0.538522
C31	C	-0.448670	-0.000035	0.037000
C32	C	0.051330	0.499965	0.537000
C33	C	-0.395374	-0.000045	0.111985
C34	C	0.104626	0.499955	0.611985
C35	C	-0.568814	-0.000038	0.115031
C36	C	-0.068814	0.499962	0.615031
C37	C	-0.662841	-0.000030	0.116682
C38	C	-0.162841	0.499970	0.616682
C39	C	-0.301342	-0.000051	0.110334
C40	C	0.198658	0.499949	0.610334
N41	N	-0.965516	-0.292948	0.130058
N42	N	-0.465516	0.207052	0.630058
C43	C	-1.065249	-0.529611	0.030379
C44	C	-0.565249	-0.029611	0.530379
C45	C	-1.058568	-0.647952	0.037066
C46	C	-0.558568	-0.147952	0.537066
C47	C	-0.945470	-0.647973	0.150113
C48	C	-0.445470	-0.147973	0.650113
C49	C	-0.952151	-0.529632	0.143427
C50	C	-0.452151	-0.029632	0.643427
C51	C	-1.012043	-0.470455	0.083559
C52	C	-0.512043	0.029545	0.583559
C53	C	-1.018727	-0.352112	0.076877
C54	C	-0.518727	0.147888	0.576877
C55	C	-0.905626	-0.352135	0.189919
C56	C	-0.405626	0.147865	0.689919
C57	C	-0.898945	-0.470476	0.196606
C58	C	-0.398945	0.029524	0.696606
C59	C	-0.134101	-0.000051	0.107390
C60	C	0.365899	0.499949	0.607390
C61	C	-0.226394	-0.000055	0.109019
C62	C	0.273606	0.499945	0.609019
C63	C	-0.988206	-0.000055	-0.038507
C64	C	-0.488206	0.499945	0.461493
C65	C	-0.986590	-0.000057	-0.130802
C66	C	-0.486590	0.499943	0.369198
N67	N	-0.998682	0.292863	0.096932
N68	N	-0.498682	0.792863	0.596932
C69	C	-1.058599	-0.000043	-0.353077
C70	C	-0.558599	0.499957	0.146923
C71	C	-1.057076	-0.000033	-0.439798
C72	C	-0.557076	0.499967	0.060202
C73	C	-0.905587	-0.000029	-0.419921
C74	C	-0.405587	0.499971	0.080079
C75	C	-0.907112	-0.000030	-0.333202
C76	C	-0.407112	0.499970	0.166798
C77	C	-0.983620	-0.000043	-0.299782
C78	C	-0.483620	0.499957	0.200218
C79	C	-0.980572	-0.000032	-0.473222
C80	C	-0.480572	0.499968	0.026778
C81	C	-0.978919	-0.000022	-0.567248
C82	C	-0.478919	0.499978	-0.067248
C83	C	-0.985273	-0.000051	-0.205750
C84	C	-0.485273	0.499949	0.294250
C85	C	-0.975985	-0.000028	0.265503
C86	C	-0.475985	0.499972	0.765503
C87	C	-0.977601	-0.000019	0.357798
C88	C	-0.477601	0.499981	0.857798
H89	H	-1.114021	-0.481428	-0.018362
H90	H	-0.614021	0.018572	0.481638
N91	N	-0.848225	-0.288341	0.247279
N92	N	-0.348225	0.211659	0.747279
H93	H	-0.856621	-0.308934	0.307453
H94	H	-0.356621	0.191066	0.807453
H95	H	-0.861569	-0.204411	0.233894
H96	H	-0.361569	0.295589	0.733894
H97	H	-0.421460	-0.000033	-0.025302
H98	H	0.078540	0.499967	0.474698
N99	N	-0.551552	-0.000041	0.272531
N100	N	-0.051552	0.499959	0.772531
H101	H	-0.583147	-0.069732	0.280477
H102	H	-0.083147	0.430268	0.780477
H103	H	-0.590990	0.069702	0.272555
H104	H	-0.090990	0.569702	0.772555
N105	N	-0.371314	-0.000031	0.269362
N106	N	0.128686	0.499969	0.769362
H107	H	-0.311306	-0.000032	0.256792
H108	H	0.188694	0.499968	0.756792
H109	H	-0.378189	-0.069724	0.306644
H110	H	0.121811	0.430276	0.806644
H111	H	-1.067497	-0.303931	0.028131
H112	H	-0.567497	0.196069	0.528131
H113	H	-1.101893	-0.696113	-0.006239
H114	H	-0.601893	-0.196113	0.493761
H115	H	-0.578792	-0.000031	-0.022528
H116	H	-0.078792	0.499969	0.477472
H117	H	-0.896702	-0.696170	0.198851
H118	H	-0.396702	-0.196170	0.698851
N119	N	-0.823070	-0.000020	-0.455966
N120	N	-0.323070	0.499980	0.044034
H121	H	-0.833480	-0.000023	-0.518989
H122	H	-0.333480	0.499977	-0.018989
H123	H	-0.786317	-0.069716	-0.432530
H124	H	-0.286317	0.430284	0.067470
H125	H	-0.850180	-0.518672	0.245348
H126	H	-0.350180	-0.018672	0.745348
N127	N	-1.141114	-0.000055	-0.317029
N128	N	-0.641114	0.499945	0.182971
H129	H	-1.188382	-0.000052	-0.363953
H130	H	-0.688382	0.499948	0.136047
H131	H	-1.148992	0.069639	-0.285416
H132	H	-0.648992	0.569639	0.214584
N133	N	-1.137947	-0.000050	-0.497277
N134	N	-0.637947	0.499950	0.002723
H135	H	-1.125375	-0.000044	-0.557285
H136	H	-0.625375	0.499956	-0.057285
H137	H	-1.175237	0.069641	-0.490393
H138	H	-0.675237	0.569641	0.009607
N139	N	-0.826238	-0.000022	-0.275712
N140	N	-0.326238	0.499978	0.224288
H141	H	-0.777538	-0.000022	-0.310040
H142	H	-0.277538	0.499978	0.189960
H143	H	-0.819627	-0.069717	-0.235361
H144	H	-0.319627	0.430283	0.264639
