data_functionalizedCrystal
_audit_creation_method	'MofGen! by Chris Wilmer'
_symmetry_space_group_name_H-M	'P1'
_symmetry_Int_Tables_number	1
_symmetry_cell_setting	triclinic
loop_
_symmetry_equiv_pos_as_xyz
  x,y,z
_cell_length_a	14.908782
_cell_length_b	14.908178
_cell_length_c	13.032268
_cell_angle_alpha	86.549870
_cell_angle_beta	79.155564
_cell_angle_gamma	90.210875
loop_
_atom_site_label
_atom_site_type_symbol
_atom_site_fract_x
_atom_site_fract_y
_atom_site_fract_z
Zn1	Zn	1.299443	-0.485774	0.471334
Zn2	Zn	1.311988	-0.617176	0.286962
Zn3	Zn	1.168070	-0.460233	0.307116
Zn4	Zn	1.140258	-0.627547	0.472456
O5	O	1.229940	-0.547683	0.384467
O6	O	1.427956	-0.509554	0.437972
O7	O	1.309786	-0.581328	0.143280
O8	O	1.191886	-0.338608	0.336864
O9	O	1.437173	-0.606094	0.302516
O10	O	1.288405	-0.357373	0.457514
O11	O	1.204051	-0.466023	0.158087
O12	O	1.037532	-0.476079	0.337953
O13	O	1.144485	-0.623770	0.618663
O14	O	1.017099	-0.599004	0.459428
O15	O	1.261437	-0.519610	0.617838
O16	O	1.282819	-0.743565	0.303604
O17	O	1.156650	-0.751185	0.439886
C18	C	0.994424	-0.535896	0.400999
C19	C	0.893666	-0.530877	0.408096
C20	C	0.713958	-0.621797	0.280184
C21	C	0.619286	-0.617084	0.286848
C22	C	0.609649	-0.516745	0.428092
C23	C	0.704321	-0.521458	0.421428
C24	C	0.756472	-0.573984	0.347470
C25	C	0.851146	-0.578691	0.340802
C26	C	0.841506	-0.478358	0.482050
C27	C	0.746835	-0.473645	0.488714
C28	C	1.218100	-0.779793	0.369701
C29	C	1.213113	-0.879098	0.363413
C30	C	1.304144	-1.085105	0.477380
C31	C	1.299461	-1.178411	0.471475
C32	C	1.199061	-1.159021	0.345705
C33	C	1.203744	-1.065714	0.351609
C34	C	1.256288	-1.028760	0.417448
C35	C	1.260975	-0.935451	0.423347
C36	C	1.160570	-0.916063	0.297582
C37	C	1.155888	-1.009369	0.291678
C38	C	1.466375	-0.559516	0.367871
C39	C	1.567129	-0.564559	0.360798
C40	C	1.198459	-0.575696	0.657260
C41	C	1.185044	-0.587634	0.773508
C42	C	1.241848	-0.314670	0.399312
C43	C	1.246923	-0.215373	0.405638
C44	C	1.261353	-0.519717	0.112736
C45	C	1.274957	-0.507536	-0.003508
C46	C	1.236929	-0.541420	0.824927
C47	C	1.223065	-0.553757	0.945076
H48	H	0.584675	-0.656020	0.232058
H49	H	0.567170	-0.473989	0.488312
N50	N	0.907393	-0.635340	0.261033
H51	H	0.885812	-0.700028	0.274258
H52	H	0.973804	-0.630997	0.267054
H53	H	1.338426	-1.224285	0.520283
N54	N	0.770215	-0.678435	0.200412
H55	H	0.728917	-0.708006	0.158792
H56	H	0.802494	-0.726155	0.237503
N57	N	0.690584	-0.416997	0.568481
H58	H	0.624158	-0.421267	0.562495
H59	H	0.712240	-0.352337	0.555212
N60	N	1.347399	-0.443027	0.936989
H61	H	1.409285	-0.462076	0.950514
H62	H	1.334332	-0.380447	0.961025
H63	H	1.168371	-0.602453	0.990000
N64	N	1.108957	-0.855287	0.232932
H65	H	1.063958	-0.818850	0.280785
H66	H	1.075020	-0.892920	0.190335
H67	H	1.130354	-0.636326	0.818437
N68	N	1.142398	-1.198892	0.274697
H69	H	1.076562	-1.181133	0.296441
H70	H	1.146772	-1.266542	0.280089
N71	N	1.309382	-0.476931	0.765417
H72	H	1.279867	-0.429065	0.725303
H73	H	1.354689	-0.510811	0.714900
N74	N	0.887361	-0.426773	0.554618
H75	H	0.955250	-0.437722	0.539173
H76	H	0.861502	-0.447610	0.629564
N77	N	1.317647	-0.895587	0.494351
H78	H	1.347250	-0.945444	0.531423
H79	H	1.277072	-0.860008	0.547754
N80	N	1.360823	-1.045237	0.548374
H81	H	1.390434	-1.095091	0.585441
H82	H	1.320253	-1.009658	0.601781
N83	N	1.099222	-1.049230	0.220665
H84	H	1.103518	-1.116890	0.226015
H85	H	1.122834	-1.025972	0.146024
