data_functionalizedCrystal
_audit_creation_method	'MofGen! by Chris Wilmer'
_symmetry_space_group_name_H-M	'P1'
_symmetry_Int_Tables_number	1
_symmetry_cell_setting	triclinic
loop_
_symmetry_equiv_pos_as_xyz
  x,y,z
_cell_length_a	12.645331
_cell_length_b	12.645329
_cell_length_c	12.759393
_cell_angle_alpha	90.031426
_cell_angle_beta	90.022025
_cell_angle_gamma	90.018192
loop_
_atom_site_label
_atom_site_type_symbol
_atom_site_fract_x
_atom_site_fract_y
_atom_site_fract_z
Zn1	Zn	1.620721	-0.421971	0.594081
Zn2	Zn	1.620604	-0.599275	0.418402
Zn3	Zn	1.443438	-0.422026	0.418410
Zn4	Zn	1.443416	-0.599193	0.594032
O5	O	1.532045	-0.510616	0.506231
O6	O	1.769053	-0.445501	0.570794
O7	O	1.597063	-0.575820	0.271382
O8	O	1.467013	-0.273672	0.441737
O9	O	1.768967	-0.575766	0.441723
O10	O	1.597262	-0.273631	0.570802
O11	O	1.466900	-0.445596	0.271388
O12	O	1.295088	-0.445517	0.441690
O13	O	1.466976	-0.575627	0.741060
O14	O	1.295072	-0.575681	0.570719
O15	O	1.597241	-0.445422	0.741096
O16	O	1.597042	-0.747611	0.441676
O17	O	1.466863	-0.747551	0.570711
C18	C	1.256615	-0.510597	0.506200
C19	C	1.138785	-0.510614	0.506212
C20	C	1.093877	-0.428601	0.425172
C21	C	0.971318	-0.428298	0.425450
C22	C	0.970954	-0.480812	0.617120
C23	C	1.093552	-0.480199	0.616614
C24	C	1.093570	-0.622675	0.477391
C25	C	0.970962	-0.622090	0.474986
C26	C	1.531966	-0.786046	0.506210
C27	C	1.532029	-0.903876	0.506236
C28	C	1.450095	-0.948765	0.587365
C29	C	1.450435	-1.071324	0.587717
C30	C	1.643952	-1.071640	0.536074
C31	C	1.643380	-0.949042	0.536630
C32	C	1.503223	-0.949177	0.395136
C33	C	1.500856	-1.071785	0.395762
C34	C	1.808550	-0.510636	0.506263
C35	C	1.926380	-0.510645	0.506277
C36	C	1.532119	-0.510509	0.780265
C37	C	1.532151	-0.510464	0.897042
C38	C	1.532153	-0.234111	0.506276
C39	C	1.532199	-0.116281	0.506295
C40	C	1.532032	-0.510646	0.233264
C41	C	1.532206	-0.510393	0.116488
C42	C	1.599989	-0.442660	0.951924
C43	C	1.600014	-0.442621	1.061648
C44	C	1.464360	-0.578200	1.061598
C45	C	1.464330	-0.578232	0.951876
C46	C	1.678311	-0.364387	0.951954
C47	C	1.678336	-0.364349	1.061678
H48	H	0.941853	-0.538729	0.679178
N49	N	1.787076	-0.393495	1.101151
H50	H	1.816154	-0.333765	1.145151
H51	H	1.835509	-0.406553	1.039571
N52	N	1.391224	-0.651288	1.120756
H53	H	1.407647	-0.727042	1.101652
H54	H	1.315511	-0.634730	1.101635
H55	H	1.123266	-0.537361	0.679086
H56	H	1.423072	-0.918358	0.367960
H57	H	0.941175	-0.446912	0.343274
N58	N	0.930440	-0.707334	0.547424
H59	H	0.882398	-0.674773	0.601798
H60	H	0.992141	-0.742758	0.583376
N61	N	1.649207	-0.255649	0.912528
H62	H	1.649177	-0.255630	0.833371
H63	H	1.702479	-0.202425	0.938985
N64	N	1.582247	-0.910712	0.315057
H65	H	1.618853	-0.973342	0.281938
H66	H	1.636391	-0.864155	0.350578
H67	H	1.418612	-1.100977	0.373298
N68	N	1.475086	-0.907846	0.695783
H69	H	1.490006	-0.969347	0.744041
H70	H	1.412732	-0.866390	0.723294
N71	N	1.475776	-1.110063	0.696786
H72	H	1.547653	-1.082965	0.718543
H73	H	1.476039	-1.189928	0.697403
N74	N	1.574202	-1.112295	0.311468
H75	H	1.570582	-1.192044	0.308878
H76	H	1.648988	-1.089498	0.327712
N77	N	1.132038	-0.703615	0.555564
H78	H	1.178526	-0.667929	0.609391
H79	H	1.173911	-0.759988	0.517861
N80	N	0.930320	-0.373534	0.649979
H81	H	0.883050	-0.344106	0.593235
H82	H	0.992022	-0.324151	0.661549
N83	N	1.340683	-1.111325	0.563064
H84	H	1.291646	-1.049318	0.551871
H85	H	1.314091	-1.155567	0.623438
H86	H	1.648965	-0.286343	1.095724
N87	N	1.391122	-0.651323	0.892679
H88	H	1.348157	-0.694238	0.944068
H89	H	1.434206	-0.700414	0.847130
H90	H	1.706716	-1.100752	0.478817
N91	N	1.675676	-0.911038	0.644192
H92	H	1.690149	-0.973926	0.690802
H93	H	1.616770	-0.867236	0.675356
N94	N	0.932359	-0.651927	0.366940
H95	H	0.994944	-0.662695	0.318954
H96	H	0.886165	-0.593477	0.338454
H97	H	1.756278	-0.393819	0.917923
H98	H	1.123282	-0.447000	0.342718
N99	N	1.339934	-0.909843	0.562981
H100	H	1.338529	-0.830051	0.566255
H101	H	1.288648	-0.939628	0.615969
N102	N	1.134668	-0.319224	0.450209
H103	H	1.182114	-0.322568	0.513815
H104	H	1.073039	-0.270687	0.465016
H105	H	0.942009	-0.345271	0.444590
H106	H	1.706528	-0.919339	0.480095
N107	N	1.131467	-0.371711	0.648863
H108	H	1.211325	-0.370225	0.648852
H109	H	1.104542	-0.354987	0.721514
N110	N	1.134420	-0.658759	0.372095
H111	H	1.175025	-0.726960	0.380801
H112	H	1.182621	-0.602762	0.342058
N113	N	1.676888	-1.112192	0.642477
H114	H	1.623758	-1.088733	0.696801
H115	H	1.748911	-1.083013	0.660839
