data_functionalizedCrystal
_audit_creation_method	'MofGen! by Chris Wilmer'
_symmetry_space_group_name_H-M	'P1'
_symmetry_Int_Tables_number	1
_symmetry_cell_setting	triclinic
loop_
_symmetry_equiv_pos_as_xyz
  x,y,z
_cell_length_a	13.033293
_cell_length_b	18.101396
_cell_length_c	13.032268
_cell_angle_alpha	97.146132
_cell_angle_beta	90.920818
_cell_angle_gamma	82.793385
loop_
_atom_site_label
_atom_site_type_symbol
_atom_site_fract_x
_atom_site_fract_y
_atom_site_fract_z
Zn1	Zn	1.498354	0.230410	0.781469
Zn2	Zn	1.998354	0.730410	1.281469
Zn3	Zn	1.520046	0.336839	0.609490
Zn4	Zn	2.020046	0.836839	1.109490
Zn5	Zn	1.348216	0.226499	0.587645
Zn6	Zn	1.848216	0.726499	1.087645
Zn7	Zn	1.326283	0.367712	0.759529
Zn8	Zn	1.826283	0.867712	1.259529
O9	O	1.423225	0.290365	0.684533
O10	O	1.923225	0.790365	1.184533
O11	O	1.645155	0.233245	0.776981
O12	O	2.145155	0.733245	1.276981
O13	O	1.515510	0.307645	0.462685
O14	O	2.015510	0.807645	0.962685
O15	O	1.368233	0.123380	0.613397
O16	O	1.868233	0.623380	1.113397
O17	O	1.661093	0.311437	0.650628
O18	O	2.161093	0.811437	1.150628
O19	O	1.478538	0.126253	0.755798
O20	O	1.978538	0.626253	1.255798
O21	O	1.389267	0.226579	0.446635
O22	O	1.889267	0.726579	0.946635
O23	O	1.201382	0.256515	0.592121
O24	O	1.701382	0.756515	1.092121
O25	O	1.330851	0.364056	0.906347
O26	O	1.830851	0.864056	1.406347
O27	O	1.185268	0.360263	0.718403
O28	O	1.685268	0.860263	1.218403
O29	O	1.457271	0.263181	0.922467
O30	O	1.957271	0.763181	1.422467
O31	O	1.494243	0.444572	0.629353
O32	O	1.994243	0.944572	1.129353
O33	O	1.351885	0.467255	0.739586
O34	O	1.851885	0.967255	1.239586
C35	C	1.156007	0.311316	0.650512
C36	C	1.656007	0.811316	1.150512
C37	C	1.041687	0.320299	0.635981
C38	C	1.541687	0.820299	1.135981
C39	C	0.982822	0.285695	0.692117
C40	C	1.482822	0.785695	1.192117
C41	C	0.864666	0.294979	0.677100
C42	C	1.364666	0.794979	1.177100
C43	C	1.423063	0.482786	0.684485
C44	C	1.923063	0.982786	1.184485
C45	C	1.423083	0.565100	0.684511
C46	C	1.923083	1.065100	1.184511
C47	C	1.423259	0.864183	0.684594
C48	C	1.923259	1.364183	1.184594
C49	C	1.333855	0.847165	0.754170
C50	C	1.833855	1.347165	1.254170
C51	C	1.333522	0.761550	0.753873
C52	C	1.833522	1.261550	1.253873
C53	C	1.423172	0.715805	0.684554
C54	C	1.923172	1.215805	1.184554
C55	C	1.407597	0.738272	0.572442
C56	C	1.907597	1.238272	1.072442
C57	C	1.407013	0.824006	0.572853
C58	C	1.907013	1.324006	1.072853
C59	C	1.528536	0.826804	0.726198
C60	C	2.028536	1.326804	1.226198
C61	C	1.527607	0.741443	0.728493
C62	C	2.027607	1.241443	1.228493
C63	C	1.423125	0.631947	0.684524
C64	C	1.923125	1.131947	1.184524
C65	C	1.423304	0.948040	0.684616
C66	C	1.923304	1.448040	1.184616
C67	C	1.691485	0.269333	0.718689
C68	C	2.191485	0.769333	1.218689
C69	C	1.805802	0.260371	0.733244
C70	C	2.305802	0.760371	1.233244
C71	C	1.423376	1.097196	0.684607
C72	C	1.923376	1.597196	1.184607
C73	C	1.423347	1.014887	0.684637
C74	C	1.923347	1.514887	1.184637
C75	C	1.389194	0.317498	0.952764
C76	C	1.889194	0.817498	1.452764
C77	C	1.374693	0.329061	1.067067
C78	C	1.874693	0.829061	1.567067
C79	C	1.457182	0.263279	0.417354
C80	C	1.957182	0.763279	0.917354
C81	C	1.471883	0.251492	0.303077
C82	C	1.971883	0.751492	0.803077
C83	C	1.430777	0.284305	1.126003
C84	C	1.930777	0.784305	1.626003
C85	C	1.415790	0.296254	1.244142
C86	C	1.915790	0.796254	1.744142
H87	H	0.842874	0.223865	0.792419
H88	H	1.342874	0.723865	1.292419
O89	O	1.509079	0.221827	1.077001
O90	O	2.009079	0.721827	1.577001
H91	H	1.587195	0.230263	1.107838
H92	H	2.087195	0.730263	1.607838
H93	H	1.019899	0.249194	0.751290
H94	H	1.519899	0.749194	1.251290
H95	H	1.356668	0.343417	1.281142
H96	H	1.856668	0.843417	1.781142
O97	O	1.344312	0.742529	0.863415
O98	O	1.844312	1.242529	1.363415
H99	H	1.344087	0.681222	0.863313
H100	H	1.844087	1.181222	1.363313
O101	O	0.815574	0.343330	0.598705
O102	O	1.315574	0.843330	1.098705
H103	H	0.730474	0.343038	0.599216
H104	H	1.230474	0.843038	1.099216
H105	H	1.530993	0.204322	1.266077
H106	H	2.030993	0.704322	1.766077
H107	H	1.341782	0.874460	0.837104
H108	H	1.841782	1.374460	1.337104
O109	O	0.992591	0.368647	0.557590
O110	O	1.492591	0.868647	1.057590
H111	H	0.907490	0.368355	0.558101
H112	H	1.407490	0.868355	1.058101
O113	O	1.230723	0.881636	0.716610
O114	O	1.730723	1.381636	1.216610
H115	H	1.242864	0.910836	0.648602
H116	H	1.742864	1.410836	1.148602
O117	O	1.229810	0.740395	0.715900
O118	O	1.729810	1.240395	1.215900
H119	H	1.179700	0.791345	0.697668
H120	H	1.679700	1.291345	1.197668
H121	H	1.330466	0.847906	0.539218
H122	H	1.830466	1.347906	1.039218
O123	O	1.490497	0.837476	0.500847
O124	O	1.990497	1.337476	1.000847
H125	H	1.531102	0.782781	0.465879
H126	H	2.031102	1.282781	0.965879
H127	H	1.315575	0.376220	1.104071
H128	H	1.815575	0.876220	1.604071
H129	H	1.471279	0.707331	0.518584
H130	H	1.971279	1.207331	1.018584
H131	H	1.539601	0.727429	0.811069
H132	H	2.039601	1.227429	1.311069
H133	H	1.331952	0.720634	0.538492
H134	H	1.831952	1.220634	1.038492
H135	H	1.545414	0.854128	0.807284
H136	H	2.045414	1.354128	1.307284
O137	O	1.619043	0.699409	0.667685
O138	O	2.119043	1.199409	1.167685
H139	H	1.621220	0.638380	0.672013
H140	H	2.121220	1.138380	1.172013
O141	O	1.616582	0.839873	0.659478
O142	O	2.116582	1.339873	1.159478
H143	H	1.585574	0.872804	0.596973
H144	H	2.085574	1.372804	1.096973
