data_functionalizedCrystal
_audit_creation_method	'MofGen! by Chris Wilmer'
_symmetry_space_group_name_H-M	'P1'
_symmetry_Int_Tables_number	1
_symmetry_cell_setting	triclinic
loop_
_symmetry_equiv_pos_as_xyz
  x,y,z
_cell_length_a	16.959455
_cell_length_b	18.101395
_cell_length_c	16.959447
_cell_angle_alpha	89.970532
_cell_angle_beta	89.985678
_cell_angle_gamma	90.028051
loop_
_atom_site_label
_atom_site_type_symbol
_atom_site_fract_x
_atom_site_fract_y
_atom_site_fract_z
Zn1	Zn	1.208323	-0.294875	-0.446913
Zn2	Zn	1.541657	0.038458	-0.113580
Zn3	Zn	1.874990	0.371791	0.219753
Zn4	Zn	1.208220	-0.418728	-0.314737
Zn5	Zn	1.541554	-0.085395	0.018597
Zn6	Zn	1.874887	0.247938	0.351930
Zn7	Zn	1.076152	-0.294899	-0.314751
Zn8	Zn	1.409485	0.038435	0.018582
Zn9	Zn	1.742818	0.371768	0.351916
Zn10	Zn	1.076091	-0.418673	-0.446875
Zn11	Zn	1.409424	-0.085340	-0.113542
Zn12	Zn	1.742758	0.247994	0.219791
O13	O	1.142196	-0.356794	-0.380819
O14	O	1.475530	-0.023460	-0.047486
O15	O	1.808863	0.309873	0.285848
O16	O	1.318920	-0.311318	-0.429390
O17	O	1.652254	0.022015	-0.096057
O18	O	1.985587	0.355349	0.237277
O19	O	1.190683	-0.402335	-0.204128
O20	O	1.524017	-0.069002	0.129206
O21	O	1.857350	0.264332	0.462539
O22	O	1.093753	-0.191263	-0.332304
O23	O	1.427086	0.142071	0.001029
O24	O	1.760420	0.475404	0.334362
O25	O	1.318845	-0.402312	-0.332280
O26	O	1.652178	-0.068979	0.001053
O27	O	1.985511	0.264354	0.334386
O28	O	1.190859	-0.191246	-0.429404
O29	O	1.524192	0.142088	-0.096070
O30	O	1.857526	0.475421	0.237263
O31	O	1.093653	-0.311358	-0.204138
O32	O	1.426986	0.021976	0.129195
O33	O	1.760320	0.355309	0.462529
O34	O	0.965533	-0.311304	-0.332267
O35	O	1.298866	0.022029	0.001066
O36	O	1.632199	0.355363	0.334399
O37	O	1.093649	-0.402218	-0.557491
O38	O	1.426983	-0.068885	-0.224158
O39	O	1.760316	0.264449	0.109175
O40	O	0.965488	-0.402241	-0.429339
O41	O	1.298821	-0.068907	-0.096005
O42	O	1.632155	0.264426	0.237328
O43	O	1.190800	-0.311264	-0.557519
O44	O	1.524133	0.022069	-0.224186
O45	O	1.857467	0.355402	0.109147
O46	O	1.190624	-0.522354	-0.332243
O47	O	1.523958	-0.189021	0.001090
O48	O	1.857291	0.144313	0.334423
O49	O	1.093550	-0.522313	-0.429325
O50	O	1.426883	-0.188980	-0.095992
O51	O	1.760216	0.144353	0.237342
C52	C	0.936830	-0.356769	-0.380801
C53	C	1.270164	-0.023436	-0.047468
C54	C	1.603497	0.309897	0.285866
C55	C	0.848974	-0.356777	-0.380812
C56	C	1.182307	-0.023443	-0.047479
C57	C	1.515640	0.309890	0.285855
C58	C	0.477497	-0.309404	-0.330380
C59	C	0.810830	0.023929	0.002954
C60	C	1.144164	0.357262	0.336287
C61	C	0.477499	-0.404244	-0.431304
C62	C	0.810833	-0.070911	-0.097970
C63	C	1.144166	0.262422	0.235363
C64	C	0.560045	-0.404234	-0.431299
C65	C	0.893378	-0.070900	-0.097966
C66	C	1.226712	0.262433	0.235368
C67	C	0.601321	-0.356808	-0.380833
C68	C	0.934654	-0.023475	-0.047500
C69	C	1.267987	0.309858	0.285834
C70	C	0.560050	-0.309394	-0.330372
C71	C	0.893384	0.023939	0.002962
C72	C	1.226717	0.357273	0.336295
C73	C	0.601321	-0.451653	-0.481754
C74	C	0.934655	-0.118319	-0.148420
C75	C	1.267988	0.215014	0.184913
C76	C	0.683872	-0.451644	-0.481750
C77	C	1.017206	-0.118311	-0.148417
C78	C	1.350539	0.215022	0.184916
C79	C	0.725150	-0.404215	-0.431287
C80	C	1.058483	-0.070882	-0.097954
C81	C	1.391816	0.262452	0.235379
C82	C	0.683874	-0.356798	-0.380825
C83	C	1.017208	-0.023465	-0.047491
C84	C	1.350541	0.309869	0.285842
C85	C	0.725150	-0.309373	-0.330359
C86	C	1.058483	0.023961	0.002975
C87	C	1.391816	0.357294	0.336308
C88	C	0.683876	-0.261951	-0.279899
C89	C	1.017209	0.071382	0.053434
C90	C	1.350543	0.404715	0.386767
C91	C	0.601327	-0.261964	-0.279909
C92	C	0.934661	0.071369	0.053425
C93	C	1.267994	0.404702	0.386758
C94	C	0.807698	-0.404202	-0.431278
C95	C	1.141031	-0.070869	-0.097945
C96	C	1.474365	0.262465	0.235389
C97	C	0.807703	-0.309362	-0.330351
C98	C	1.141037	0.023971	0.002983
C99	C	1.474370	0.357304	0.336316
C100	C	1.142091	-0.549204	-0.380796
C101	C	1.475424	-0.215871	-0.047463
C102	C	1.808757	0.117462	0.285871
C103	C	1.142118	-0.631518	-0.380812
C104	C	1.475451	-0.298185	-0.047479
C105	C	1.808784	0.035148	0.285854
C106	C	1.142291	-0.930609	-0.380855
C107	C	1.475625	-0.597276	-0.047522
C108	C	1.808958	-0.263943	0.285812
C109	C	1.081356	-0.899289	-0.442088
C110	C	1.414689	-0.565956	-0.108754
C111	C	1.748023	-0.232623	0.224579
C112	C	1.081066	-0.813671	-0.441896
C113	C	1.414400	-0.480338	-0.108563
C114	C	1.747733	-0.147005	0.224771
C115	C	1.142205	-0.782227	-0.380834
C116	C	1.475538	-0.448894	-0.047501
C117	C	1.808872	-0.115560	0.285832
C118	C	1.119658	-0.813380	-0.297530
C119	C	1.452992	-0.480047	0.035803
C120	C	1.786325	-0.146713	0.369137
C121	C	1.119266	-0.899025	-0.297896
C122	C	1.452599	-0.565692	0.035437
C123	C	1.785932	-0.232359	0.368770
C124	C	1.225907	-0.898956	-0.402193
C125	C	1.559240	-0.565623	-0.068860
C126	C	1.892573	-0.232290	0.264473
C127	C	1.225415	-0.813305	-0.404020
C128	C	1.558748	-0.479972	-0.070687
C129	C	1.892082	-0.146639	0.262646
C130	C	1.142158	-0.698367	-0.380818
C131	C	1.475491	-0.365034	-0.047484
C132	C	1.808825	-0.031701	0.285849
C133	C	1.142337	-1.014469	-0.380866
C134	C	1.475670	-0.681135	-0.047533
C135	C	1.809003	-0.347802	0.285801
C136	C	1.348365	-0.356819	-0.380838
C137	C	1.681698	-0.023486	-0.047504
C138	C	2.015031	0.309848	0.285829
C139	C	1.436221	-0.356830	-0.380846
C140	C	1.769555	-0.023496	-0.047512
C141	C	2.102888	0.309837	0.285821
C142	C	1.142229	-0.356732	-0.586987
C143	C	1.475563	-0.023399	-0.253654
C144	C	1.808896	0.309934	0.079679
C145	C	1.142243	-0.356706	-0.674844
C146	C	1.475577	-0.023373	-0.341511
C147	C	1.808910	0.309960	-0.008177
C148	C	1.142324	-0.163632	-0.380860
C149	C	1.475658	0.169701	-0.047526
C150	C	1.808991	0.503035	0.285807
C151	C	1.142379	-0.081318	-0.380877
C152	C	1.475712	0.252016	-0.047544
C153	C	1.809045	0.585349	0.285790
C154	C	1.091756	-0.403984	-1.046308
C155	C	1.425089	-0.070650	-0.712974
C156	C	1.758423	0.262683	-0.379641
C157	C	1.192920	-0.309273	-1.046332
C158	C	1.526253	0.024060	-0.712999
C159	C	1.859586	0.357394	-0.379665
C160	C	1.192899	-0.309289	-0.963786
C161	C	1.526232	0.024045	-0.630453
C162	C	1.859565	0.357378	-0.297119
C163	C	1.142306	-0.356653	-0.922497
C164	C	1.475640	-0.023320	-0.589164
C165	C	1.808973	0.310013	-0.255830
C166	C	1.091735	-0.404002	-0.963754
C167	C	1.425068	-0.070669	-0.630421
C168	C	1.758402	0.262664	-0.297088
C169	C	1.243475	-0.261946	-0.922523
C170	C	1.576808	0.071387	-0.589189
C171	C	1.910141	0.404721	-0.255856
C172	C	1.243456	-0.261960	-0.839972
C173	C	1.576790	0.071373	-0.506638
C174	C	1.910123	0.404706	-0.173305
C175	C	1.192859	-0.309322	-0.798681
C176	C	1.526193	0.024012	-0.465348
C177	C	1.859526	0.357345	-0.132015
C178	C	1.142285	-0.356672	-0.839944
C179	C	1.475619	-0.023339	-0.506610
C180	C	1.808952	0.309995	-0.173277
C181	C	1.091693	-0.404037	-0.798655
C182	C	1.425026	-0.070703	-0.465321
C183	C	1.758360	0.262630	-0.131988
C184	C	1.041115	-0.451384	-0.839915
C185	C	1.374448	-0.118050	-0.506582
C186	C	1.707781	0.215283	-0.173249
C187	C	1.041138	-0.451364	-0.922464
C188	C	1.374471	-0.118030	-0.589131
C189	C	1.707805	0.215303	-0.255797
C190	C	1.192836	-0.309342	-0.716133
C191	C	1.526169	0.023992	-0.382800
C192	C	1.859502	0.357325	-0.049466
C193	C	1.091672	-0.404055	-0.716101
C194	C	1.425005	-0.070722	-0.382768
C195	C	1.758339	0.262611	-0.049434
C196	C	1.142209	-0.356801	-0.175453
C197	C	1.475543	-0.023468	0.157880
C198	C	1.808876	0.309865	0.491214
C199	C	1.142348	-0.356619	-0.087597
C200	C	1.475682	-0.023286	0.245737
C201	C	1.809015	0.310048	0.579070
H202	H	0.841304	-0.270738	-0.289259
H203	H	1.174637	0.062596	0.044074
H204	H	1.507971	0.395929	0.377407
H205	H	0.999926	-0.489951	-0.806287
H206	H	1.333259	-0.156618	-0.472954
H207	H	1.666592	0.176715	-0.139621
H208	H	1.284669	-0.223389	-0.956146
H209	H	1.618002	0.109945	-0.622813
H210	H	1.951336	0.443278	-0.289480
C211	C	0.555929	-0.209810	-0.224405
C212	C	0.889263	0.123524	0.108928
C213	C	1.222596	0.456857	0.442262
H214	H	0.592332	-0.181557	-0.194352
H215	H	0.925665	0.151776	0.138981
H216	H	1.258999	0.485109	0.472314
H217	H	0.523705	-0.238104	-0.189916
H218	H	0.857039	0.095229	0.143417
H219	H	1.190372	0.428562	0.476751
H220	H	0.523749	-0.177580	-0.254710
H221	H	0.857082	0.155753	0.078623
H222	H	1.190415	0.489087	0.411957
C223	C	0.985514	-0.503444	-0.967851
C224	C	1.318847	-0.170111	-0.634518
C225	C	1.652180	0.163222	-0.301185
H226	H	0.992780	-0.496655	-1.022927
H227	H	1.326114	-0.163321	-0.689594
H228	H	1.659447	0.170012	-0.356261
H229	H	0.932407	-0.492606	-0.954331
H230	H	1.265741	-0.159273	-0.620998
H231	H	1.599074	0.174061	-0.287664
H232	H	0.997052	-0.553209	-0.954307
H233	H	1.330385	-0.219876	-0.620973
H234	H	1.663719	0.113458	-0.287640
H235	H	1.050466	-0.442619	-0.682489
H236	H	1.383799	-0.109286	-0.349156
H237	H	1.717133	0.224047	-0.015823
C238	C	0.729281	-0.209784	-0.224391
C239	C	1.062614	0.123550	0.108943
C240	C	1.395947	0.456883	0.442276
H241	H	0.692882	-0.181545	-0.194337
H242	H	1.026215	0.151789	0.138996
H243	H	1.359548	0.485122	0.472330
H244	H	0.761510	-0.177554	-0.254688
H245	H	1.094843	0.155779	0.078646
H246	H	1.428176	0.489113	0.411979
H247	H	0.761457	-0.238075	-0.189890
H248	H	1.094790	0.095258	0.143443
H249	H	1.428123	0.428592	0.476776
C250	C	0.555919	-0.503815	-0.537261
C251	C	0.889252	-0.170481	-0.203927
C252	C	1.222586	0.162852	0.129406
H253	H	0.500845	-0.497022	-0.530045
H254	H	0.834179	-0.163688	-0.196711
H255	H	1.167512	0.169645	0.136622
H256	H	0.569419	-0.553559	-0.525600
H257	H	0.902753	-0.220226	-0.192266
H258	H	1.236086	0.113108	0.141067
H259	H	0.569472	-0.493033	-0.590391
H260	H	0.902805	-0.159699	-0.257058
H261	H	1.236138	0.173634	0.076275
C262	C	0.432101	-0.257247	-0.274876
C263	C	0.765434	0.076086	0.058457
C264	C	1.098768	0.409420	0.391790
H265	H	0.377026	-0.264045	-0.282103
H266	H	0.710359	0.069288	0.051230
H267	H	1.043692	0.402621	0.384564
H268	H	0.445656	-0.207501	-0.286533
H269	H	0.778989	0.125832	0.046800
H270	H	1.112322	0.459165	0.380133
H271	H	0.445607	-0.268029	-0.221744
H272	H	0.778940	0.065304	0.111590
H273	H	1.112274	0.398637	0.444923
H274	H	1.095172	-0.792606	-0.503666
H275	H	1.428505	-0.459273	-0.170332
H276	H	1.761839	-0.125939	0.163001
C277	C	1.248571	-0.257178	-1.091743
C278	C	1.581904	0.076155	-0.758410
C279	C	1.915238	0.409489	-0.425077
H280	H	1.278690	-0.228985	-1.055348
H281	H	1.612023	0.104348	-0.722015
H282	H	1.945356	0.437681	-0.388681
H283	H	1.218366	-0.224902	-1.123960
H284	H	1.551700	0.108431	-0.790627
H285	H	1.885033	0.441765	-0.457293
H286	H	1.283004	-0.285511	-1.123933
H287	H	1.616338	0.047822	-0.790599
H288	H	1.949671	0.381155	-0.457266
C289	C	1.100212	-0.927044	-0.525806
C290	C	1.433545	-0.593710	-0.192473
C291	C	1.766879	-0.260377	0.140861
H292	H	1.062766	-0.907517	-0.561873
H293	H	1.396100	-0.574184	-0.228539
H294	H	1.729433	-0.240850	0.104794
H295	H	1.097906	-0.979471	-0.526742
H296	H	1.431239	-0.646137	-0.193408
H297	H	1.764573	-0.312804	0.139925
H298	H	1.151598	-0.911255	-0.540460
H299	H	1.484932	-0.577921	-0.207126
H300	H	1.818265	-0.244588	0.126207
C301	C	1.248460	-0.257263	-0.670750
C302	C	1.581794	0.076070	-0.337416
C303	C	1.915127	0.409404	-0.004083
H304	H	1.278591	-0.229050	-0.707163
H305	H	1.611925	0.104284	-0.373829
H306	H	1.945258	0.437617	-0.040496
H307	H	1.282871	-0.285600	-0.638533
H308	H	1.616205	0.047733	-0.305200
H309	H	1.949538	0.381067	0.028133
H310	H	1.218229	-0.224995	-0.638563
H311	H	1.551562	0.108339	-0.305229
H312	H	1.884895	0.441672	0.028104
C313	C	0.997344	-0.786072	-0.422791
C314	C	1.330678	-0.452739	-0.089458
C315	C	1.664011	-0.119406	0.243875
H316	H	0.963379	-0.827204	-0.415110
H317	H	1.296713	-0.493871	-0.081776
H318	H	1.630046	-0.160537	0.251557
H319	H	0.978353	-0.756921	-0.465323
H320	H	1.311687	-0.423588	-0.131990
H321	H	1.645020	-0.090255	0.201343
H322	H	0.998648	-0.757074	-0.376137
H323	H	1.331982	-0.423740	-0.042803
H324	H	1.665315	-0.090407	0.290530
C325	C	0.729267	-0.503798	-0.537259
C326	C	1.062600	-0.170464	-0.203926
C327	C	1.395933	0.162869	0.129408
H328	H	0.692861	-0.532039	-0.567319
H329	H	1.026194	-0.198706	-0.233986
H330	H	1.359527	0.134628	0.099347
H331	H	0.761452	-0.536026	-0.506966
H332	H	1.094785	-0.202693	-0.173632
H333	H	1.428118	0.130641	0.159701
H334	H	0.761485	-0.475496	-0.571753
H335	H	1.094819	-0.142162	-0.238419
H336	H	1.428152	0.191171	0.094914
C337	C	1.177719	-0.785867	-0.234209
C338	C	1.511053	-0.452534	0.099124
C339	C	1.844386	-0.119201	0.432457
H340	H	1.162998	-0.805360	-0.184308
H341	H	1.496332	-0.472027	0.149026
H342	H	1.829665	-0.138694	0.482359
H343	H	1.176472	-0.733436	-0.232244
H344	H	1.509805	-0.400103	0.101089
H345	H	1.843138	-0.066769	0.434423
H346	H	1.229511	-0.801846	-0.247008
H347	H	1.562844	-0.468513	0.086325
H348	H	1.896178	-0.135179	0.419659
C349	C	1.037958	-0.784502	-0.272675
C350	C	1.371291	-0.451168	0.060658
C351	C	1.704624	-0.117835	0.393992
H352	H	1.017479	-0.753469	-0.312947
H353	H	1.350812	-0.420135	0.020386
H354	H	1.684146	-0.086802	0.353720
H355	H	1.042689	-0.757170	-0.225109
H356	H	1.376022	-0.423837	0.108224
H357	H	1.709356	-0.090504	0.441558
H358	H	1.003293	-0.825058	-0.264653
H359	H	1.336627	-0.491725	0.068680
H360	H	1.669960	-0.158392	0.402014
C361	C	1.299082	-0.209876	-0.794592
C362	C	1.632416	0.123458	-0.461259
C363	C	1.965749	0.456791	-0.127926
H364	H	1.329212	-0.181661	-0.831006
H365	H	1.662545	0.151672	-0.497673
H366	H	1.995878	0.485005	-0.164339
H367	H	1.333495	-0.238211	-0.762376
H368	H	1.666829	0.095123	-0.429043
H369	H	2.000162	0.428456	-0.095710
H370	H	1.268850	-0.177608	-0.762405
H371	H	1.602184	0.155725	-0.429072
H372	H	1.935517	0.489059	-0.095738
H373	H	0.841299	-0.442814	-0.472359
H374	H	1.174633	-0.109481	-0.139025
H375	H	1.507966	0.223853	0.194308
H376	H	0.443888	-0.442860	-0.472386
H377	H	0.777221	-0.109527	-0.139053
H378	H	1.110554	0.223807	0.194280
H379	H	1.058143	-0.919066	-0.279821
H380	H	1.391477	-0.585732	0.053513
H381	H	1.724810	-0.252399	0.386846
C382	C	1.036126	-0.456064	-1.091689
C383	C	1.369460	-0.122730	-0.758356
C384	C	1.702793	0.210603	-0.425022
H385	H	1.043384	-0.449274	-1.146766
H386	H	1.376718	-0.115941	-0.813433
H387	H	1.710051	0.217392	-0.480100
H388	H	0.983022	-0.445224	-1.078161
H389	H	1.316355	-0.111891	-0.744827
H390	H	1.649689	0.221442	-0.411494
H391	H	1.047666	-0.505829	-1.078146
H392	H	1.380999	-0.172495	-0.744813
H393	H	1.714332	0.160838	-0.411479
H394	H	1.019755	-0.920873	-0.428131
H395	H	1.353088	-0.587540	-0.094798
H396	H	1.686422	-0.254207	0.238535
C397	C	1.176614	-0.927026	-0.234163
C398	C	1.509947	-0.593692	0.099171
C399	C	1.843281	-0.260359	0.432504
H400	H	1.176767	-0.979509	-0.233959
H401	H	1.510100	-0.646176	0.099375
H402	H	1.843433	-0.312843	0.432708
H403	H	1.160234	-0.909432	-0.184007
H404	H	1.493567	-0.576099	0.149326
H405	H	1.826901	-0.242765	0.482659
H406	H	1.228227	-0.909416	-0.245213
H407	H	1.561560	-0.576083	0.088121
H408	H	1.894894	-0.242750	0.421454
C409	C	1.253678	-0.928058	-0.482858
C410	C	1.587011	-0.594724	-0.149524
C411	C	1.920344	-0.261391	0.183809
H412	H	1.214532	-0.959787	-0.504278
H413	H	1.547865	-0.626454	-0.170945
H414	H	1.881198	-0.293120	0.162388
H415	H	1.301498	-0.954695	-0.476459
H416	H	1.634831	-0.621362	-0.143126
H417	H	1.968165	-0.288028	0.190208
H418	H	1.262116	-0.887640	-0.517609
H419	H	1.595450	-0.554307	-0.184275
H420	H	1.928783	-0.220973	0.149058
C421	C	1.248389	-0.785805	-0.486843
C422	C	1.581722	-0.452472	-0.153509
C423	C	1.915055	-0.119138	0.179824
H424	H	1.298774	-0.804798	-0.500535
H425	H	1.632107	-0.471465	-0.167202
H426	H	1.965440	-0.138131	0.166131
H427	H	1.250136	-0.733352	-0.487030
H428	H	1.583469	-0.400018	-0.153696
H429	H	1.916803	-0.066685	0.179637
H430	H	1.210428	-0.802315	-0.524066
H431	H	1.543762	-0.468982	-0.190732
H432	H	1.877095	-0.135649	0.142601
C433	C	1.289996	-0.784390	-0.348167
C434	C	1.623329	-0.451056	-0.014834
C435	C	1.956663	-0.117723	0.318500
H436	H	1.339596	-0.804040	-0.363561
H437	H	1.672930	-0.470707	-0.030228
H438	H	2.006263	-0.137374	0.303105
H439	H	1.278451	-0.799295	-0.295705
H440	H	1.611784	-0.465962	0.037629
H441	H	1.945118	-0.132629	0.370962
H442	H	1.291791	-0.731990	-0.350785
H443	H	1.625124	-0.398656	-0.017452
H444	H	1.958457	-0.065323	0.315882
C445	C	1.287221	-0.926243	-0.341894
C446	C	1.620554	-0.592910	-0.008561
C447	C	1.953887	-0.259577	0.324773
H448	H	1.262031	-0.956787	-0.303904
H449	H	1.595364	-0.623453	0.029430
H450	H	1.928697	-0.290120	0.362763
H451	H	1.310522	-0.885013	-0.316254
H452	H	1.643855	-0.551680	0.017079
H453	H	1.977189	-0.218347	0.350412
H454	H	1.326922	-0.953759	-0.368308
H455	H	1.660255	-0.620425	-0.034975
H456	H	1.993588	-0.287092	0.298358
