data_functionalizedCrystal
_audit_creation_method	'MofGen! by Chris Wilmer'
_symmetry_space_group_name_H-M	'P1'
_symmetry_Int_Tables_number	1
_symmetry_cell_setting	triclinic
loop_
_symmetry_equiv_pos_as_xyz
  x,y,z
_cell_length_a	18.215407
_cell_length_b	19.077068
_cell_length_c	18.215399
_cell_angle_alpha	92.268164
_cell_angle_beta	89.980167
_cell_angle_gamma	92.327501
loop_
_atom_site_label
_atom_site_type_symbol
_atom_site_fract_x
_atom_site_fract_y
_atom_site_fract_z
Zn1	Zn	1.113288	-0.280200	-0.427869
Zn2	Zn	1.108246	-0.397902	-0.309739
Zn3	Zn	0.990220	-0.280223	-0.304817
Zn4	Zn	0.985238	-0.397863	-0.432763
O5	O	1.049248	-0.339047	-0.368797
O6	O	1.215603	-0.295821	-0.412210
O7	O	1.092565	-0.382318	-0.206103
O8	O	1.010740	-0.181729	-0.317032
O9	O	1.211899	-0.382295	-0.325421
O10	O	1.101157	-0.181712	-0.407437
O11	O	1.005851	-0.295860	-0.202487
O12	O	0.886575	-0.295822	-0.321777
O13	O	1.002249	-0.382229	-0.535097
O14	O	0.882915	-0.382251	-0.415778
O15	O	1.096327	-0.295783	-0.531501
O16	O	1.087734	-0.496388	-0.330167
O17	O	0.997361	-0.496359	-0.420551
C18	C	0.858042	-0.339035	-0.368775
C19	C	0.776243	-0.339047	-0.368784
C20	C	0.586159	-0.384121	-0.417674
C21	C	0.509301	-0.384124	-0.417684
C22	C	0.513088	-0.293986	-0.319936
C23	C	0.589945	-0.293980	-0.319931
C24	C	0.626479	-0.339052	-0.368799
C25	C	0.472763	-0.339060	-0.368814
C26	C	0.389429	-0.339062	-0.368823
C27	C	0.709818	-0.339050	-0.368791
C28	C	1.041480	-0.521911	-0.376440
C29	C	1.038224	-0.600141	-0.379735
C30	C	1.083783	-0.636886	-0.334263
C31	C	1.080725	-0.710391	-0.337366
C32	C	1.032104	-0.747151	-0.385937
C33	C	0.986542	-0.710401	-0.431414
C34	C	0.989604	-0.636897	-0.428314
C35	C	1.017899	-0.966985	-0.400254
C36	C	1.014839	-1.040495	-0.403348
C37	C	1.109023	-1.040479	-0.309301
C38	C	1.112078	-0.966974	-0.306202
C39	C	1.066520	-0.930231	-0.351682
N40	N	1.028975	-0.822285	-0.389109
N41	N	1.069652	-0.855098	-0.348514
C42	C	1.241200	-0.339060	-0.368819
C43	C	1.322999	-0.339065	-0.368828
C44	C	1.049295	-0.338999	-0.560748
C45	C	1.049315	-0.338978	-0.642546
C46	C	1.057067	-0.155469	-0.361140
C47	C	1.060398	-0.077239	-0.357877
C48	C	1.098320	-0.293923	-0.828867
C49	C	1.098329	-0.293903	-0.905725
C50	C	1.000366	-0.383924	-0.909458
C51	C	1.000354	-0.383940	-0.832601
C52	C	1.049335	-0.338941	-0.792308
C53	C	1.049357	-0.338904	-0.946023
C54	C	1.049367	-0.338882	-1.029355
C55	C	1.049324	-0.338962	-0.708970
C56	C	1.049246	-0.339045	-0.177591
C57	C	1.049377	-0.338867	-0.095785
H58	H	0.622775	-0.257275	-0.280130
H59	H	0.483333	-0.257291	-0.280148
C60	C	1.151479	-0.244912	-0.945317
C61	C	1.138428	-0.175280	-0.923696
C62	C	1.187382	-0.130128	-0.960143
H63	H	1.144525	-0.251245	-0.996869
H64	H	1.200499	-0.255177	-0.933142
H65	H	1.089420	-0.165019	-0.935875
H66	H	1.145387	-0.168925	-0.872150
H67	H	1.236403	-0.140393	-0.947969
H68	H	1.180424	-0.136467	-1.011693
H69	H	1.178539	-0.082878	-0.945474
H70	H	0.476476	-0.420822	-0.457484
H71	H	1.146116	-1.070403	-0.272275
H72	H	0.615903	-0.420820	-0.457468
H73	H	1.138201	-0.257280	-0.796062
H74	H	1.117824	-0.740305	-0.300338
C75	C	1.136648	-0.597105	-0.281502
C76	C	1.175905	-0.645021	-0.242359
C77	C	1.224619	-0.608403	-0.193756
H78	H	1.109789	-0.568473	-0.248138
H79	H	1.169933	-0.568401	-0.308456
H80	H	1.142625	-0.673713	-0.215407
H81	H	1.202779	-0.673654	-0.275704
H82	H	1.257904	-0.579700	-0.220710
H83	H	1.197755	-0.579773	-0.160397
H84	H	1.251266	-0.640908	-0.167197
C85	C	0.947114	-0.432811	-0.953076
C86	C	0.904199	-0.472226	-0.904605
C87	C	0.855129	-0.517264	-0.944756
H88	H	0.973883	-0.463534	-0.984344
H89	H	0.916159	-0.405897	-0.981916
H90	H	0.935150	-0.499138	-0.875777
H91	H	0.877414	-0.441522	-0.873335
H92	H	0.824174	-0.490351	-0.973597
H93	H	0.881904	-0.547983	-0.976024
H94	H	0.826001	-0.544008	-0.911875
H95	H	0.960459	-0.420598	-0.802834
H96	H	1.151670	-0.937045	-0.266652
H97	H	0.975254	-1.070422	-0.442914
C98	C	0.968338	-0.927226	-0.449650
C99	C	0.925084	-0.975154	-0.492829
C100	C	0.879407	-0.938551	-0.538332
H101	H	0.997576	-0.898503	-0.480601
H102	H	0.937443	-0.898615	-0.420272
H103	H	0.955975	-1.003754	-0.522204
H104	H	0.895831	-1.003879	-0.461897
H105	H	0.848512	-0.909939	-0.508954
H106	H	0.908651	-0.909829	-0.569279
H107	H	0.850049	-0.971064	-0.567629
H108	H	0.946956	-0.740337	-0.470965
H109	H	0.952506	-0.606981	-0.465343
