data_functionalizedCrystal
_audit_creation_method	'MofGen! by Chris Wilmer'
_symmetry_space_group_name_H-M	'P1'
_symmetry_Int_Tables_number	1
_symmetry_cell_setting	triclinic
loop_
_symmetry_equiv_pos_as_xyz
  x,y,z
_cell_length_a	12.827893
_cell_length_b	17.638166
_cell_length_c	12.827885
_cell_angle_alpha	101.173945
_cell_angle_beta	89.980538
_cell_angle_gamma	101.244113
loop_
_atom_site_label
_atom_site_type_symbol
_atom_site_fract_x
_atom_site_fract_y
_atom_site_fract_z
Zn1	Zn	1.513450	-0.314656	-0.674878
Zn2	Zn	2.013450	0.185344	-0.174878
Zn3	Zn	1.477957	-0.446860	-0.535444
Zn4	Zn	1.977957	0.053140	-0.035444
Zn5	Zn	1.338680	-0.314694	-0.500162
Zn6	Zn	1.838680	0.185306	-0.000162
Zn7	Zn	1.303306	-0.446801	-0.710128
Zn8	Zn	1.803306	0.053199	-0.210128
O9	O	1.408349	-0.380753	-0.605153
O10	O	1.908349	0.119247	-0.105153
O11	O	1.654976	-0.332201	-0.656395
O12	O	2.154976	0.167799	-0.156395
O13	O	1.459432	-0.429369	-0.384539
O14	O	1.959432	0.070631	0.115461
O15	O	1.391522	-0.204074	-0.493821
O16	O	1.891522	0.295926	0.006179
O17	O	1.628899	-0.429331	-0.553954
O18	O	2.128899	0.070669	-0.053954
O19	O	1.519924	-0.204046	-0.622184
O20	O	2.019924	0.295954	-0.122184
O21	O	1.357106	-0.332267	-0.358617
O22	O	1.857106	0.167733	0.141383
O23	O	1.187754	-0.332210	-0.528001
O24	O	1.687754	0.167790	-0.028001
O25	O	1.331232	-0.429231	-0.851678
O26	O	1.831232	0.070769	-0.351678
O27	O	1.161765	-0.429268	-0.682263
O28	O	1.661765	0.070732	-0.182263
O29	O	1.485623	-0.332144	-0.825780
O30	O	1.985623	0.167856	-0.325780
O31	O	1.425132	-0.557467	-0.588134
O32	O	1.925132	-0.057467	-0.088134
O33	O	1.296816	-0.557424	-0.716474
O34	O	1.796816	-0.057424	-0.216474
C35	C	1.136843	-0.380738	-0.605129
C36	C	1.636843	0.119262	-0.105129
C37	C	1.020686	-0.380750	-0.605149
C38	C	1.520686	0.119250	-0.105149
C39	C	0.956049	-0.428853	-0.681404
C40	C	1.456049	0.071147	-0.181404
C41	C	0.835995	-0.428867	-0.681426
C42	C	1.335995	0.071133	-0.181426
C43	C	1.353312	-0.586127	-0.659980
C44	C	1.853312	-0.086127	-0.159980
C45	C	1.329863	-0.673987	-0.683471
C46	C	1.829863	-0.173987	-0.183471
C47	C	1.229949	-0.797828	-0.783345
C48	C	1.729949	-0.297828	-0.283345
C49	C	1.251991	-0.715270	-0.761264
C50	C	1.751991	-0.215270	-0.261264
C51	C	1.385720	-0.715252	-0.627722
C52	C	1.885720	-0.215252	-0.127722
C53	C	1.363686	-0.797811	-0.649787
C54	C	1.863686	-0.297811	-0.149787
C55	C	1.285800	-0.839093	-0.727600
C56	C	1.785800	-0.339093	-0.227600
C57	C	1.419536	-0.839076	-0.594043
C58	C	1.919536	-0.339076	-0.094043
C59	C	1.397507	-0.921629	-0.616111
C60	C	1.897507	-0.421629	-0.116111
C61	C	1.319627	-0.962916	-0.693923
C62	C	1.819627	-0.462916	-0.193923
C63	C	1.263770	-0.921645	-0.749668
C64	C	1.763770	-0.421645	-0.249668
C65	C	1.497427	-0.797794	-0.516236
C66	C	1.997427	-0.297794	-0.016236
C67	C	1.553278	-0.839059	-0.460492
C68	C	2.053278	-0.339059	0.039508
C69	C	1.531244	-0.921612	-0.482554
C70	C	2.031244	-0.421612	0.017446
C71	C	1.453364	-0.962900	-0.560366
C72	C	1.953364	-0.462900	-0.060366
C73	C	1.587100	-0.962883	-0.426808
C74	C	2.087100	-0.462883	0.073192
C75	C	1.565071	-1.045436	-0.448876
C76	C	2.065071	-0.545436	0.051124
C77	C	1.431334	-1.045452	-0.582433
C78	C	1.931334	-0.545452	-0.082433
C79	C	1.680914	-0.380769	-0.605178
C80	C	2.180914	0.119231	-0.105178
C81	C	1.797066	-0.380775	-0.605189
C82	C	2.297066	0.119225	-0.105189
C83	C	1.408441	-0.380677	-0.877703
C84	C	1.908441	0.119323	-0.377703
C85	C	1.408480	-0.380645	-0.993848
C86	C	1.908480	0.119355	-0.493848
C87	C	1.463628	-0.174577	-0.550135
C88	C	1.963628	0.325423	-0.050135
C89	C	1.487185	-0.086717	-0.526689
C90	C	1.987185	0.413283	-0.026689
C91	C	1.459166	-0.428639	-1.178489
C92	C	1.959166	0.071361	-0.678489
C93	C	1.459127	-0.428674	-1.058448
C94	C	1.959127	0.071326	-0.558448
C95	C	1.408332	-0.380771	-0.333648
C96	C	1.908332	0.119229	0.166352
C97	C	1.408555	-0.380581	-0.217445
C98	C	1.908555	0.119419	0.282555
H99	H	0.780457	-0.470051	-0.746709
H100	H	1.280457	0.029949	-0.246709
H101	H	1.515363	-0.730574	-0.498273
H102	H	2.015363	-0.230574	0.001727
O103	O	1.516608	-0.483110	-1.252016
O104	O	2.016608	0.016890	-0.752016
H105	H	1.507632	-0.474531	-1.334761
H106	H	2.007632	0.025469	-0.834761
O107	O	1.351125	-0.326103	-1.143915
O108	O	1.851125	0.173897	-0.643915
H109	H	1.288495	-0.361522	-1.103626
H110	H	1.788495	0.138478	-0.603626
H111	H	0.852596	-0.339594	-0.539897
H112	H	1.352596	0.160406	-0.039897
H113	H	1.502462	-0.469815	-1.024897
H114	H	2.002462	0.030185	-0.524897
O115	O	1.000466	-0.483375	-0.767889
O116	O	1.500466	0.016625	-0.267889
H117	H	1.087793	-0.474802	-0.754307
H118	H	1.587793	0.025198	-0.254307
H119	H	1.365153	-0.339494	-1.027390
H120	H	1.865153	0.160506	-0.527390
H121	H	1.367917	-1.079065	-0.645801
H122	H	1.867917	-0.579065	-0.145801
O123	O	0.976257	-0.326224	-0.518679
O124	O	1.476257	0.173776	-0.018679
H125	H	0.937285	-0.286093	-0.554867
H126	H	1.437285	0.213907	-0.054867
H127	H	1.301696	-1.030135	-0.711893
H128	H	1.801696	-0.530135	-0.211893
H129	H	1.166531	-0.831441	-0.846713
H130	H	1.666531	-0.331441	-0.346713
O131	O	1.191742	-0.670758	-0.821385
O132	O	1.691742	-0.170758	-0.321385
H133	H	1.133879	-0.713336	-0.879192
H134	H	1.633879	-0.213336	-0.379192
O135	O	1.469739	-0.670718	-0.543817
O136	O	1.969739	-0.170718	-0.043817
H137	H	1.433027	-0.633163	-0.480566
H138	H	1.933027	-0.133163	0.019434
O139	O	1.179763	-0.966181	-0.833594
O140	O	1.679763	-0.466181	-0.333594
H141	H	1.144625	-0.923620	-0.868656
H142	H	1.644625	-0.423620	-0.368656
O143	O	1.637296	-0.794525	-0.376587
O144	O	2.137296	-0.294525	0.123413
H145	H	1.600585	-0.756970	-0.313336
H146	H	2.100585	-0.256970	0.186664
O147	O	1.671128	-0.918356	-0.342909
O148	O	2.171128	-0.418356	0.157091
H149	H	1.677070	-0.854020	-0.336936
H150	H	2.177070	-0.354020	0.163064
H151	H	1.610553	-1.079034	-0.403486
H152	H	2.110553	-0.579034	0.096514
