data_functionalizedCrystal
_audit_creation_method	'MofGen! by Chris Wilmer'
_symmetry_space_group_name_H-M	'P1'
_symmetry_Int_Tables_number	1
_symmetry_cell_setting	triclinic
loop_
_symmetry_equiv_pos_as_xyz
  x,y,z
_cell_length_a	19.902436
_cell_length_b	14.628931
_cell_length_c	14.628931
_cell_angle_alpha	60.000000
_cell_angle_beta	90.001278
_cell_angle_gamma	59.996936
loop_
_atom_site_label
_atom_site_type_symbol
_atom_site_fract_x
_atom_site_fract_y
_atom_site_fract_z
Zr1	Zr	0.647322	1.000474	-0.119891
O2	O	0.540030	1.191197	-0.265863
O3	O	0.680212	0.809764	-0.075142
O4	O	0.680213	1.000469	-0.265847
O5	O	0.540029	1.000492	0.075274
O6	O	0.790791	1.000451	-0.265835
O7	O	0.540029	1.000492	-0.075158
O8	O	0.790791	0.659314	0.075302
O9	O	0.540030	1.341629	-0.265863
O10	O	0.776764	0.888188	-0.056048
O11	O	0.694240	0.888202	0.056208
O12	O	0.694240	1.112732	-0.168323
O13	O	0.611716	1.112746	-0.056067
Zr14	Zr	0.823682	1.000447	0.120050
Zr15	Zr	0.823682	1.000446	-0.119871
Zr16	Zr	0.647321	1.000475	0.120031
Zr17	Zr	0.647322	1.240396	-0.119891
Zr18	Zr	0.823682	0.760525	0.120051
O19	O	0.790791	1.191158	0.075301
O20	O	0.790792	1.191157	-0.265836
O21	O	0.540029	1.191198	0.075274
O22	O	0.930974	0.809724	0.266023
O23	O	0.930974	0.809723	-0.075114
O24	O	0.680212	0.809765	0.265995
O25	O	0.930974	1.000429	-0.075114
O26	O	0.790791	1.000452	0.266007
O27	O	0.680212	1.000470	0.265995
O28	O	0.930974	1.000429	0.075317
O29	O	0.680213	1.341606	-0.265848
O30	O	0.790791	0.659315	0.266008
O31	O	0.930974	0.659292	0.266023
O32	O	0.930974	0.659292	0.075318
O33	O	0.540030	1.341629	-0.075158
O34	O	0.680213	1.341607	-0.075143
O35	O	0.776763	0.888189	0.168483
O36	O	0.859287	0.888175	0.056226
O37	O	0.776764	1.112719	-0.056049
O38	O	0.694240	1.112733	0.056208
C39	C	0.735501	0.700355	0.000080
C40	C	0.735501	0.598502	0.000080
C41	C	0.514902	1.000496	0.000055
C42	C	0.440032	1.000508	0.000047
C43	C	0.776439	0.553086	-0.055606
C44	C	0.776440	0.447816	-0.055607
C45	C	0.168030	1.000444	0.000091
C46	C	0.144463	1.142091	-0.070395
C47	C	0.222301	1.142180	-0.070787
C48	C	0.302973	1.000477	0.000069
C49	C	0.300562	0.930132	-0.051575
C50	C	0.222334	0.931037	-0.052096
C51	C	0.223322	0.928129	0.122252
C52	C	0.300243	0.930791	0.122065
C53	C	0.379240	1.000488	0.000058
C54	C	0.091765	1.000429	0.000098
C55	C	0.956102	1.000425	0.000104
C56	C	1.030971	1.000413	0.000112
C57	C	0.735502	1.000460	-0.300025
C58	C	0.735502	1.000459	-0.401878
C59	C	0.735502	1.300566	0.000079
C60	C	0.735502	1.402419	0.000079
C61	C	0.694565	1.111848	-0.502983
C62	C	0.694564	1.111851	-0.608254
C63	C	0.735501	1.000461	0.300185
C64	C	0.735501	1.000462	0.402037
C65	C	0.956101	0.700320	0.000105
C66	C	1.030971	0.598455	0.000113
C67	C	0.735501	0.700356	0.300185
C68	C	0.735501	0.598504	0.402038
C69	C	0.956101	0.700321	0.300209
C70	C	1.030971	0.598456	0.402071
C71	C	0.514902	1.300600	-0.300050
C72	C	0.440033	1.402465	-0.401911
C73	C	0.514902	1.300601	0.000055
C74	C	0.440033	1.402466	0.000047
C75	C	0.735502	1.300565	-0.300025
C76	C	0.735503	1.402418	-0.401878
C77	C	1.023054	0.550625	-0.058499
C78	C	1.093395	0.454925	-0.058514
C79	C	1.171652	0.407051	0.000091
C80	C	1.179568	0.454890	0.058705
C81	C	1.109227	0.550595	0.058713
C82	C	1.109214	0.550612	0.391309
C83	C	1.179569	0.454913	0.487009
C84	C	1.171678	0.407053	0.593470
C85	C	1.093426	0.454906	0.604230
C86	C	1.023073	0.550610	0.508530
C87	C	0.361790	1.450320	-0.391149
C88	C	0.291435	1.546049	-0.486850
C89	C	0.299326	1.593915	-0.593311
C90	C	0.377578	1.546055	-0.604070
C91	C	0.447930	1.450335	-0.508371
C92	C	0.447950	1.450306	0.058649
C93	C	0.377608	1.546032	0.058637
C94	C	0.299351	1.593910	0.000029
C95	C	0.291436	1.546066	-0.058581
C96	C	0.361776	1.450348	-0.058575
C97	C	0.776438	0.553088	0.503143
C98	C	0.776439	0.447818	0.608415
H99	H	0.811490	0.592132	-0.103277
H100	H	0.770552	0.905097	-0.393254
H101	H	0.811482	0.592145	0.511767
C102	C	0.937010	0.603214	0.520382
H103	H	0.942394	0.560986	0.597494
H104	H	0.907761	0.693571	0.485487
H105	H	0.907784	0.587508	0.485495
C106	C	0.823785	0.395067	0.725580
H107	H	0.817569	0.331242	0.780964
H108	H	0.880468	0.357683	0.734042
H109	H	0.802513	0.463739	0.734026
C110	C	0.205351	1.598731	-0.123035
H111	H	0.164599	1.662576	-0.114627
H112	H	0.199164	1.636072	-0.200138
H113	H	0.199175	1.530027	-0.094080
C114	C	0.386330	1.598631	0.123122
H115	H	0.443012	1.556386	0.158042
H116	H	0.360692	1.688984	0.072550
H117	H	0.360677	1.582945	0.178579
H118	H	0.700450	0.559456	0.393414
C119	C	1.265634	0.402279	0.475154
H120	H	1.260251	0.444478	0.398042
H121	H	1.294875	0.417965	0.510036
H122	H	1.294867	0.311917	0.510056
H123	H	0.700456	0.441465	0.511392
H124	H	0.220526	1.197704	-0.160899
C125	C	0.353093	1.397699	-0.274055
H126	H	0.296414	1.439935	-0.281368
H127	H	0.378737	1.307345	-0.234273
H128	H	0.378750	1.413390	-0.234293
H129	H	1.115654	0.589566	0.304632
H130	H	0.355318	1.411399	-0.106293
H131	H	0.700449	0.441475	0.047752
C132	C	1.265651	0.402203	0.123187
H133	H	1.260301	0.444391	0.158101
H134	H	1.294868	0.311847	0.178631
H135	H	1.294889	0.417883	0.072608
C136	C	0.647215	1.240685	-0.725420
H137	H	0.653431	1.223785	-0.780804
H138	H	0.590533	1.288882	-0.733879
H139	H	0.668485	1.288864	-0.733870
C140	C	0.782851	0.871619	-0.480803
H141	H	0.808529	0.801736	-0.488003
H142	H	0.823589	0.866804	-0.441054
H143	H	0.745637	0.866822	-0.441072
C144	C	1.117942	0.603201	0.123189
H145	H	1.064846	0.667065	0.114800
H146	H	1.147179	0.534485	0.200286
H147	H	1.147171	0.640534	0.094238
H148	H	0.511664	1.411331	0.106382
H149	H	1.228970	0.329124	0.671386
C150	C	1.084757	0.402239	0.721339
H151	H	1.137867	0.338379	0.776784
H152	H	1.055529	0.470927	0.729755
H153	H	1.055538	0.364887	0.729735
H154	H	0.811484	0.408765	-0.103288
H155	H	0.227726	1.585000	-0.478067
C156	C	0.302664	0.996111	-0.171854
H157	H	0.301189	0.952836	-0.202390
H158	H	0.256364	1.083877	-0.216528
H159	H	0.351752	0.992301	-0.170842
H160	H	0.242033	1.671856	-0.671226
H161	H	0.221023	1.197653	-0.036415
C162	C	0.688167	0.545739	0.064509
H163	H	0.662492	0.587871	0.099459
H164	H	0.647428	0.561409	0.013906
H165	H	0.725392	0.455374	0.119939
H166	H	0.105297	1.197688	-0.035932
H167	H	0.104552	1.197413	-0.159966
H168	H	0.383993	1.585040	-0.690762
H169	H	0.511638	1.411372	-0.517146
H170	H	0.242082	1.671850	0.000033
H171	H	0.659522	1.207211	-0.511607
C172	C	0.377308	0.789382	0.014431
H173	H	0.374590	0.748653	-0.018205
H174	H	0.425310	0.788532	0.012252
H175	H	0.379363	0.744120	0.089971
C176	C	0.936978	0.603277	-0.122972
H177	H	0.896212	0.667121	-0.114575
H178	H	0.930809	0.640618	-0.200070
H179	H	0.930809	0.534569	-0.094032
C180	C	0.172965	0.998557	-0.173528
H181	H	0.124820	0.999695	-0.174916
H182	H	0.157777	1.084723	-0.217975
H183	H	0.205845	0.952884	-0.202604
C184	C	0.248460	0.790655	0.012759
H185	H	0.200872	0.790257	0.012883
H186	H	0.278876	0.751558	-0.022242
H187	H	0.281741	0.743549	0.087654
C188	C	0.174278	0.989364	0.180534
H189	H	0.208769	0.944299	0.254129
H190	H	0.155241	1.077459	0.139150
H191	H	0.128566	0.984097	0.184287
C192	C	0.299748	1.000060	0.174197
H193	H	0.301204	1.071149	0.121845
H194	H	0.251163	1.030403	0.193123
H195	H	0.346593	0.941357	0.239780
H196	H	0.357702	0.827410	0.179002
C197	C	1.084674	0.402305	-0.122978
H198	H	1.027991	0.444512	-0.157859
H199	H	1.110312	0.417991	-0.178445
H200	H	1.110326	0.311944	-0.072386
C201	C	0.250232	0.787170	0.193536
H202	H	0.227898	0.772408	0.149126
H203	H	0.308586	0.730306	0.220064
H204	H	0.230791	0.771847	0.255385
H205	H	1.228921	0.329121	0.000077
