data_functionalizedCrystal
_audit_creation_method	'MofGen! by Chris Wilmer'
_symmetry_space_group_name_H-M	'P1'
_symmetry_Int_Tables_number	1
_symmetry_cell_setting	triclinic
loop_
_symmetry_equiv_pos_as_xyz
  x,y,z
_cell_length_a	12.759394
_cell_length_b	12.759395
_cell_length_c	12.759387
_cell_angle_alpha	90.022274
_cell_angle_beta	89.968340
_cell_angle_gamma	89.984599
loop_
_atom_site_label
_atom_site_type_symbol
_atom_site_fract_x
_atom_site_fract_y
_atom_site_fract_z
Zn1	Zn	-0.418195	-1.606268	-0.594048
Zn2	Zn	-0.593912	-1.606158	-0.418366
Zn3	Zn	-0.418250	-1.430566	-0.418380
Zn4	Zn	-0.593835	-1.430558	-0.594000
O5	O	-0.506048	-1.518387	-0.506198
O6	O	-0.441514	-1.753274	-0.570758
O7	O	-0.570665	-1.582823	-0.271347
O8	O	-0.271221	-1.453922	-0.441709
O9	O	-0.570613	-1.753194	-0.441685
O10	O	-0.271181	-1.583010	-0.570771
O11	O	-0.441607	-1.453816	-0.271357
O12	O	-0.441532	-1.283544	-0.441662
O13	O	-0.570480	-1.453909	-0.741027
O14	O	-0.570533	-1.283538	-0.570689
O15	O	-0.441439	-1.583002	-0.741063
O16	O	-0.740923	-1.582815	-0.441638
O17	O	-0.740866	-1.453802	-0.570676
C18	C	-0.506031	-1.245420	-0.506172
C19	C	-0.506048	-1.128643	-0.506186
C20	C	-0.779015	-1.518324	-0.506173
C21	C	-0.895792	-1.518393	-0.506197
C22	C	-0.640595	-1.128676	-0.640324
C23	C	-0.707876	-1.073831	-0.707395
C24	C	-0.707887	-0.964109	-0.707405
C25	C	-0.640607	-0.909230	-0.640338
C26	C	-0.573327	-0.964074	-0.573268
C27	C	-0.573325	-1.073799	-0.573263
C28	C	-0.438776	-0.964042	-0.439136
C29	C	-0.438769	-1.073764	-0.439119
C30	C	-0.371497	-0.909162	-0.372070
C31	C	-0.304220	-0.964007	-0.304992
C32	C	-0.304213	-1.073735	-0.304984
C33	C	-0.371489	-1.128608	-0.372049
C34	C	-0.895798	-1.652835	-0.371931
C35	C	-0.950662	-1.720083	-0.304811
C36	C	-1.060384	-1.720145	-0.304839
C37	C	-1.115244	-1.652953	-0.371998
C38	C	-1.060380	-1.585705	-0.439119
C39	C	-0.950656	-1.585649	-0.439080
C40	C	-1.060374	-1.451270	-0.573388
C41	C	-0.950652	-1.451202	-0.573356
C42	C	-1.115234	-1.384079	-0.640547
C43	C	-1.060370	-1.316823	-0.707664
C44	C	-0.950642	-1.316764	-0.707631
C45	C	-0.895789	-1.383954	-0.640476
C46	C	-0.232014	-1.518479	-0.506247
C47	C	-0.115238	-1.518518	-0.506268
C48	C	-0.505945	-1.518467	-0.780232
C49	C	-0.505901	-1.518500	-0.897009
C50	C	-0.506062	-0.792421	-0.506218
C51	C	-0.506057	-0.909197	-0.506206
C52	C	-0.371539	-1.652934	-0.897066
C53	C	-0.304342	-1.720166	-0.951955
C54	C	-0.304304	-1.720192	-1.061677
C55	C	-0.371467	-1.652976	-1.116512
C56	C	-0.438664	-1.585744	-1.061622
C57	C	-0.438697	-1.585728	-0.951898
C58	C	-0.573019	-1.451307	-1.061566
C59	C	-0.573065	-1.451285	-0.951844
C60	C	-0.640183	-1.384091	-1.116400
C61	C	-0.707386	-1.316863	-1.061511
C62	C	-0.707423	-1.316841	-0.951783
C63	C	-0.640261	-1.384053	-0.896955
C64	C	-0.506075	-1.518369	-0.233231
C65	C	-0.505823	-1.518538	-0.116455
H66	H	-0.640601	-1.218017	-0.640316
Cl67	Cl	-0.640135	-1.384123	-1.254337
H68	H	-1.105054	-1.774909	-0.250189
Cl69	Cl	-0.757852	-1.384190	-0.640736
H70	H	-0.249417	-1.118383	-0.250374
H71	H	-0.762651	-1.118526	-0.762001
H72	H	-0.762060	-1.262136	-1.106166
Cl73	Cl	-0.640608	-0.771293	-0.640367
H74	H	-0.762131	-1.262082	-0.907098
Cl75	Cl	-1.253170	-1.383712	-0.640138
H76	H	-0.640289	-1.384046	-0.807613
Cl77	Cl	-0.792462	-0.895159	-0.791728
H78	H	-0.806457	-1.652778	-0.371888
H79	H	-0.371506	-0.819821	-0.372087
H80	H	-0.249442	-0.919316	-0.250397
H81	H	-0.371492	-1.217949	-0.372046
Cl82	Cl	-1.253179	-1.652589	-0.371587
Cl83	Cl	-0.881690	-1.804553	-0.220392
H84	H	-1.105046	-1.262126	-0.762344
H85	H	-0.905978	-1.262006	-0.762293
H86	H	-0.371573	-1.652930	-0.807725
H87	H	-0.249657	-1.774890	-0.907296
Cl88	Cl	-0.219811	-1.804695	-1.130683
H89	H	-0.371421	-1.652994	-1.205853
