data_functionalizedCrystal
_audit_creation_method	'MofGen! by Chris Wilmer'
_symmetry_space_group_name_H-M	'P1'
_symmetry_Int_Tables_number	1
_symmetry_cell_setting	triclinic
loop_
_symmetry_equiv_pos_as_xyz
  x,y,z
_cell_length_a	14.519709
_cell_length_b	10.654550
_cell_length_c	9.730223
_cell_angle_alpha	89.998369
_cell_angle_beta	90.001178
_cell_angle_gamma	84.082524
loop_
_atom_site_label
_atom_site_type_symbol
_atom_site_fract_x
_atom_site_fract_y
_atom_site_fract_z
O1	O	-1.224721	-0.164619	0.114107
O2	O	-0.956345	-0.184006	0.114149
O3	O	-1.096704	0.008486	0.114122
O4	O	-1.084363	-0.357111	0.114134
O5	O	-1.096691	0.008485	-0.114458
O6	O	-0.956332	-0.184007	-0.114431
O7	O	-1.224709	-0.164621	-0.114473
Zn8	Zn	-1.090518	-0.174314	-0.150744
Zn9	Zn	-1.090535	-0.174313	0.150420
O10	O	-1.084350	-0.357112	-0.114446
C11	C	-0.921974	-0.183103	-0.000136
C12	C	-0.819579	-0.180396	-0.000120
C13	C	-1.095791	0.055275	-0.000166
C14	C	-1.093080	0.194692	-0.000161
C15	C	-1.259079	-0.165524	-0.000185
C16	C	-1.361475	-0.168231	-0.000192
C17	C	-0.444631	-0.170428	-0.000183
C18	C	-0.548954	-0.173196	-0.000165
C19	C	-0.632102	-0.175412	-0.000150
C20	C	-0.736431	-0.178180	-0.000135
C21	C	-1.085262	-0.403901	-0.000155
C22	C	-1.087973	-0.543318	-0.000151
N23	N	-1.090514	-0.174314	-0.356280
C24	C	-1.175721	0.274972	-0.000178
C25	C	-1.173168	0.405968	-0.000168
C26	C	-1.005326	0.376391	-0.000130
C27	C	-1.007880	0.245397	-0.000130
C28	C	-1.260921	0.224266	-0.000209
C29	C	-1.343569	0.304548	-0.000227
C30	C	-1.341016	0.435544	-0.000217
C31	C	-1.255815	0.486259	-0.000189
C32	C	-1.028355	-0.259512	-0.428230
C33	C	-1.028373	-0.259510	-0.572113
C34	C	-1.152713	-0.089101	-0.572084
C35	C	-1.152698	-0.089110	-0.428204
C36	C	-0.966171	-0.344716	-0.356306
C37	C	-0.904006	-0.429920	-0.428256
C38	C	-0.904024	-0.429918	-0.572139
C39	C	-0.966208	-0.344711	-0.644072
N40	N	-1.090547	-0.174302	0.355956
H41	H	-1.263009	0.117604	-0.000221
H42	H	-1.203339	-0.019728	-0.630662
H43	H	-1.203314	-0.019735	-0.369622
C44	C	-1.437284	0.248759	-0.000257
N45	N	-1.507873	0.206740	-0.000282
H46	H	-1.408312	0.500907	-0.000219
H47	H	-1.253743	0.592926	-0.000166
C48	C	-0.916970	0.157084	-0.000122
N49	N	-0.848495	0.090566	-0.000115
C50	C	-0.911612	0.432184	-0.000120
N51	N	-0.841025	0.474206	-0.000123
H52	H	-0.853383	-0.499299	-0.369680
C53	C	-0.966133	-0.344711	-0.198032
N54	N	-0.966101	-0.344700	-0.078820
H55	H	-0.853414	-0.499302	-0.630719
H56	H	-0.966224	-0.344725	-0.761231
