data_functionalizedCrystal
_audit_creation_method	'MofGen! by Chris Wilmer'
_symmetry_space_group_name_H-M	'P1'
_symmetry_Int_Tables_number	1
_symmetry_cell_setting	triclinic
loop_
_symmetry_equiv_pos_as_xyz
  x,y,z
_cell_length_a	10.723024
_cell_length_b	10.723024
_cell_length_c	9.798715
_cell_angle_alpha	90.003142
_cell_angle_beta	90.001967
_cell_angle_gamma	84.467869
loop_
_atom_site_label
_atom_site_type_symbol
_atom_site_fract_x
_atom_site_fract_y
_atom_site_fract_z
O1	O	0.175024	1.657187	0.113478
O2	O	0.508358	1.990520	0.446812
O3	O	0.841691	2.323854	0.780145
O4	O	0.191778	1.294035	0.113483
O5	O	0.525111	1.627368	0.446816
O6	O	0.858444	1.960701	0.780149
O7	O	0.001825	1.483987	0.113475
O8	O	0.335158	1.817321	0.446809
O9	O	0.668492	2.150654	0.780142
O10	O	0.364977	1.467234	0.113486
O11	O	0.698311	1.800567	0.446819
O12	O	1.031644	2.133901	0.780152
O13	O	0.001824	1.483974	-0.113507
O14	O	0.335158	1.817307	0.219827
O15	O	0.668491	2.150641	0.553160
O16	O	0.191777	1.294021	-0.113499
O17	O	0.525111	1.627355	0.219834
O18	O	0.858444	1.960688	0.553167
O19	O	0.175024	1.657174	-0.113504
O20	O	0.508357	1.990507	0.219830
O21	O	0.841691	2.323840	0.553163
Zn22	Zn	0.183401	1.475595	-0.149540
Zn23	Zn	0.516734	1.808929	0.183793
Zn24	Zn	0.850067	2.142262	0.517127
Zn25	Zn	0.183401	1.475613	0.149519
Zn26	Zn	0.516735	1.808946	0.482852
Zn27	Zn	0.850068	2.142279	0.816186
O28	O	0.364977	1.467221	-0.113496
O29	O	0.698310	1.800554	0.219837
O30	O	1.031643	2.133887	0.553170
C31	C	0.190558	1.247528	-0.000008
C32	C	0.523892	1.580862	0.333326
C33	C	0.857225	1.914195	0.666659
C34	C	0.186911	1.108974	-0.000006
C35	C	0.520244	1.442307	0.333327
C36	C	0.853577	1.775641	0.666661
C37	C	0.073603	0.917217	-0.000007
C38	C	0.406937	1.250550	0.333327
C39	C	0.740270	1.583883	0.666660
C40	C	0.077371	1.060420	-0.000009
C41	C	0.410704	1.393753	0.333325
C42	C	0.744038	1.727087	0.666658
C43	C	-0.044675	1.482762	-0.000014
C44	C	0.288658	1.816095	0.333319
C45	C	0.621992	2.149428	0.666653
C46	C	-0.183229	1.479114	-0.000009
C47	C	0.150104	1.812447	0.333324
C48	C	0.483437	2.145780	0.666657
C49	C	-0.374986	1.365807	-0.000001
C50	C	-0.041653	1.699140	0.333333
C51	C	0.291680	2.032473	0.666666
C52	C	-0.231783	1.369574	-0.000006
C53	C	0.101550	1.702908	0.333328
C54	C	0.434884	2.036241	0.666661
C55	C	0.411477	1.468447	-0.000004
C56	C	0.744810	1.801780	0.333329
C57	C	1.078143	2.135113	0.666663
C58	C	0.550031	1.472094	0.000000
C59	C	0.883364	1.805428	0.333333
C60	C	1.216698	2.138761	0.666667
C61	C	0.176243	1.703680	-0.000010
C62	C	0.509577	2.037013	0.333323
C63	C	0.842910	2.370346	0.666656
C64	C	0.179891	1.842234	-0.000003
C65	C	0.513224	2.175567	0.333330
C66	C	0.846558	2.508901	0.666664
N67	N	0.183399	1.475592	-0.353640
N68	N	0.516733	1.808926	-0.020306
N69	N	0.850066	2.142259	0.313027
C70	C	0.111036	1.402843	-0.421450
C71	C	0.444369	1.736177	-0.088117
C72	C	0.777702	2.069510	0.245217
C73	C	0.111031	1.402860	-0.578613
C74	C	0.444365	1.736194	-0.245279
C75	C	0.777698	2.069527	0.088054
N76	N	0.183393	1.475625	0.353619
N77	N	0.516726	1.808959	0.686952
N78	N	0.850059	2.142292	1.020285
H79	H	-0.013619	1.124853	-0.000003
H80	H	0.319714	1.458186	0.333330
H81	H	0.653047	1.791519	0.666663
H82	H	-0.020182	0.875395	-0.000030
H83	H	0.313151	1.208728	0.333303
H84	H	0.646484	1.542061	0.666637
H85	H	0.273677	0.884056	-0.000009
H86	H	0.607010	1.217390	0.333325
H87	H	0.940344	1.550723	0.666658
H88	H	-0.416809	1.272021	0.000010
H89	H	-0.083475	1.605354	0.333343
H90	H	0.249858	1.938687	0.666677
H91	H	0.245356	1.537881	-0.411937
H92	H	0.578689	1.871215	-0.078603
H93	H	0.912023	2.204548	0.254730
H94	H	0.277906	1.044549	0.000003
H95	H	0.611239	1.377882	0.333336
H96	H	0.944573	1.711216	0.666669
H97	H	-0.167350	1.278584	-0.000015
H98	H	0.165983	1.611917	0.333318
H99	H	0.499316	1.945250	0.666651
H100	H	-0.247654	1.570109	-0.000015
H101	H	0.085679	1.903443	0.333319
H102	H	0.419012	2.236776	0.666652
C103	C	0.027343	1.318679	-0.342715
C104	C	0.360677	1.652012	-0.009382
C105	C	0.694010	1.985346	0.323951
H106	H	-0.018051	1.273032	-0.405639
H107	H	0.315282	1.606366	-0.072306
H108	H	0.648616	1.939699	0.261027
H109	H	-0.029701	1.369214	-0.286960
H110	H	0.303632	1.702548	0.046373
H111	H	0.636965	2.035881	0.379706
H112	H	0.078160	1.261843	-0.286989
H113	H	0.411493	1.595176	0.046344
H114	H	0.744826	1.928510	0.379678
C115	C	-0.393490	1.598799	-0.000003
C116	C	-0.060157	1.932132	0.333330
C117	C	0.273177	2.265465	0.666663
H118	H	-0.459103	1.664994	0.000007
H119	H	-0.125770	1.998328	0.333340
H120	H	0.207563	2.331661	0.666673
H121	H	-0.343270	1.604786	-0.079156
H122	H	-0.009937	1.938120	0.254177
H123	H	0.323397	2.271453	0.587510
H124	H	-0.343269	1.604794	0.079161
H125	H	-0.009935	1.938127	0.412494
H126	H	0.323398	2.271460	0.745828
H127	H	0.049075	1.340581	-0.636928
H128	H	0.382408	1.673914	-0.303595
H129	H	0.715742	2.007247	0.029739
C130	C	0.267090	1.559778	-0.567629
C131	C	0.600423	1.893112	-0.234295
C132	C	0.933757	2.226445	0.099038
H133	H	0.312480	1.605439	-0.630534
H134	H	0.645813	1.938773	-0.297201
H135	H	0.979147	2.272106	0.036133
H136	H	0.324138	1.509233	-0.511889
H137	H	0.657472	1.842567	-0.178556
H138	H	0.990805	2.175900	0.154778
H139	H	0.216275	1.616602	-0.511884
H140	H	0.549608	1.949935	-0.178551
H141	H	0.882942	2.283268	0.154783
