data_functionalizedCrystal
_audit_creation_method	'MofGen! by Chris Wilmer'
_symmetry_space_group_name_H-M	'P1'
_symmetry_Int_Tables_number	1
_symmetry_cell_setting	triclinic
loop_
_symmetry_equiv_pos_as_xyz
  x,y,z
_cell_length_a	21.295419
_cell_length_b	21.295417
_cell_length_c	21.295411
_cell_angle_alpha	89.978356
_cell_angle_beta	90.024539
_cell_angle_gamma	89.954692
loop_
_atom_site_label
_atom_site_type_symbol
_atom_site_fract_x
_atom_site_fract_y
_atom_site_fract_z
Zn1	Zn	0.962356	0.250432	0.355911
Zn2	Zn	1.462356	0.750432	0.855911
Zn3	Zn	0.962258	0.355684	0.250637
Zn4	Zn	1.462258	0.855684	0.750637
Zn5	Zn	0.857079	0.250460	0.250656
Zn6	Zn	1.357079	0.750460	0.750656
Zn7	Zn	0.857048	0.355695	0.355868
Zn8	Zn	1.357048	0.855695	0.855868
O9	O	0.909685	0.303068	0.303268
O10	O	1.409685	0.803068	0.803268
O11	O	1.050432	0.264378	0.341956
O12	O	1.550432	0.764378	0.841956
O13	O	0.948278	0.341733	0.162550
O14	O	1.448278	0.841733	0.662550
O15	O	0.871098	0.162367	0.264645
O16	O	1.371098	0.662367	0.764645
O17	O	1.050360	0.341706	0.264611
O18	O	1.550360	0.841706	0.764611
O19	O	0.948444	0.162347	0.341975
O20	O	1.448444	0.662347	0.841975
O21	O	0.871003	0.264425	0.162564
O22	O	1.371003	0.764425	0.662564
O23	O	0.768985	0.264436	0.264603
O24	O	1.268985	0.764436	0.764603
O25	O	0.871045	0.341724	0.443963
O26	O	1.371045	0.841724	0.943963
O27	O	0.768963	0.341751	0.341902
O28	O	1.268963	0.841751	0.841902
O29	O	0.948414	0.264388	0.443995
O30	O	1.448414	0.764388	0.943995
O31	O	0.948248	0.443775	0.264570
O32	O	1.448248	0.943775	0.764570
O33	O	0.870951	0.443783	0.341883
O34	O	1.370951	0.943783	0.841883
C35	C	0.746133	0.303098	0.303250
C36	C	1.246133	0.803098	0.803250
C37	C	0.676165	0.303126	0.303258
C38	C	1.176165	0.803126	0.803258
C39	C	0.643358	0.262927	0.343593
C40	C	1.143358	0.762927	0.843593
C41	C	0.577616	0.262910	0.343596
C42	C	1.077616	0.762910	0.843596
C43	C	0.544683	0.303104	0.303269
C44	C	1.044683	0.803104	0.803269
C45	C	0.577498	0.343305	0.262926
C46	C	1.077498	0.843305	0.762926
C47	C	0.643239	0.343317	0.262920
C48	C	1.143239	0.843317	0.762920
N49	N	0.441407	0.358181	0.298349
N50	N	0.941407	0.858181	0.798349
N51	N	0.378956	0.358168	0.298359
N52	N	0.878956	0.858168	0.798359
C53	C	0.346608	0.303071	0.303283
C54	C	0.846608	0.803071	0.803283
N55	N	0.379071	0.247985	0.308210
N56	N	0.879071	0.747985	0.808210
N57	N	0.441528	0.247999	0.308205
N58	N	0.941528	0.747999	0.808205
C59	C	0.473397	0.303095	0.303271
C60	C	0.973397	0.803095	0.803271
C61	C	0.242516	0.262850	0.343624
C62	C	0.742516	0.762850	0.843624
C63	C	0.176772	0.262832	0.343622
C64	C	0.676772	0.762832	0.843622
C65	C	0.176655	0.343233	0.262955
C66	C	0.676655	0.843233	0.762955
C67	C	0.242397	0.343245	0.262953
C68	C	0.742397	0.843245	0.762953
C69	C	0.275324	0.303055	0.303291
C70	C	0.775324	0.803055	0.803291
C71	C	0.909603	0.466619	0.303233
C72	C	1.409603	0.966619	0.803233
C73	C	0.909625	0.536588	0.303239
C74	C	1.409625	1.036588	0.803239
C75	C	0.909737	0.303055	0.467458
C76	C	1.409737	0.803055	0.967458
C77	C	0.909760	0.303049	0.537426
C78	C	1.409760	0.803049	1.037426
C79	C	1.073875	0.303038	0.303286
C80	C	1.573875	0.803038	0.803286
C81	C	1.143843	0.303025	0.303294
C82	C	1.643843	0.803025	0.803294
C83	C	0.909785	0.138878	0.303317
C84	C	1.409785	0.638878	0.803317
C85	C	0.909828	0.068909	0.303338
C86	C	1.409828	0.568909	0.803338
C87	C	0.949909	0.569429	0.263024
C88	C	1.449909	1.069429	0.763024
C89	C	0.949939	0.635172	0.263038
C90	C	1.449939	1.135172	0.763038
C91	C	0.909673	0.668070	0.303261
C92	C	1.409673	1.168070	0.803261
C93	C	0.869385	0.635220	0.343485
C94	C	1.369385	1.135220	0.843485
C95	C	0.869361	0.569479	0.343474
C96	C	1.369361	1.069479	0.843474
N97	N	0.854606	0.771351	0.308054
N98	N	1.354606	1.271351	0.808054
N99	N	0.854630	0.833802	0.308061
N100	N	1.354630	1.333802	0.808061
C101	C	0.909743	0.866145	0.303297
C102	C	1.409743	1.366145	0.803297
N103	N	0.964832	0.833676	0.298514
N104	N	1.464832	1.333676	0.798514
N105	N	0.964807	0.771219	0.298504
N106	N	1.464807	1.271219	0.798504
C107	C	0.909694	0.739355	0.303278
C108	C	1.409694	1.239355	0.803278
C109	C	0.950063	0.970272	0.263095
C110	C	1.450063	1.470272	0.763095
C111	C	0.950093	1.036016	0.263113
C112	C	1.450093	1.536016	0.763113
C113	C	0.869534	1.036063	0.343557
C114	C	1.369534	1.536063	0.843557
C115	C	0.869510	0.970321	0.343541
C116	C	1.369510	1.470321	0.843541
C117	C	0.909773	0.937429	0.303307
C118	C	1.409773	1.437429	0.803307
C119	C	0.909669	0.303036	0.139716
C120	C	1.409669	0.803036	0.639716
C121	C	0.909769	0.302864	0.069749
C122	C	1.409769	0.802864	0.569749
C123	C	0.950044	0.262778	0.570311
C124	C	1.450044	0.762778	1.070311
C125	C	0.950043	0.262751	0.636053
C126	C	1.450043	0.762751	1.136053
C127	C	0.909764	0.303006	0.668909
C128	C	1.409764	0.803006	1.168909
C129	C	0.869472	0.343279	0.636017
C130	C	1.369472	0.843279	1.136017
C131	C	0.869470	0.343301	0.570276
C132	C	1.369470	0.843301	1.070276
N133	N	0.904908	0.358075	0.772124
N134	N	1.404908	0.858075	1.272124
N135	N	0.904914	0.358052	0.834576
N136	N	1.404914	0.858052	1.334576
C137	C	0.909768	0.302942	0.866984
C138	C	1.409768	0.802942	1.366984
N139	N	0.914629	0.247853	0.834581
N140	N	1.414629	0.747853	1.334581
N141	N	0.914626	0.247876	0.772124
N142	N	1.414626	0.747876	1.272124
C143	C	0.909762	0.302986	0.740194
C144	C	1.409762	0.802986	1.240194
C145	C	0.950054	0.262638	0.971154
C146	C	1.450054	0.762638	1.471154
C147	C	0.950049	0.262610	1.036897
C148	C	1.450049	0.762610	1.536897
C149	C	0.869481	0.343143	1.036860
C150	C	1.369481	0.843143	1.536860
C151	C	0.869483	0.343166	0.971118
C152	C	1.369483	0.843166	1.471118
C153	C	0.909773	0.302914	0.938268
C154	C	1.409773	0.802914	1.438268
H155	H	0.669950	0.376052	0.230073
H156	H	1.169950	0.876052	0.730073
O157	O	0.989238	0.223612	0.667908
O158	O	1.489238	0.723612	1.167908
C159	C	1.069132	0.143721	0.661012
C160	C	1.569132	0.643721	1.161012
C161	C	1.024786	0.188022	0.624861
C162	C	1.524786	0.688022	1.124861
H163	H	1.097874	0.114925	0.626224
H164	H	1.597874	0.614925	1.126224
H165	H	1.102068	0.172581	0.691784
H166	H	1.602068	0.672581	1.191784
H167	H	1.040245	0.110827	0.691800
H168	H	1.540245	0.610827	1.191800
H169	H	1.053622	0.220925	0.594039
H170	H	1.553622	0.720925	1.094039
H171	H	0.991847	0.159122	0.594130
H172	H	1.491847	0.659122	1.094130
H173	H	0.836602	0.662010	0.376236
H174	H	1.336602	1.162010	0.876236
O175	O	0.989098	0.223507	0.939168
O176	O	1.489098	0.723507	1.439168
C177	C	0.997620	0.138524	0.864971
C178	C	1.497620	0.638524	1.364971
C179	C	0.953331	0.182808	0.901143
C180	C	1.453331	0.682808	1.401143
H181	H	0.968719	0.105599	0.834230
H182	H	1.468719	0.605599	1.334230
H183	H	1.030506	0.167400	0.834166
H184	H	1.530506	0.667400	1.334166
H185	H	1.026425	0.109760	0.899780
H186	H	1.526425	0.609760	1.399780
H187	H	0.924485	0.211582	0.866380
H188	H	1.424485	0.711582	1.366380
H189	H	0.920487	0.153897	0.931958
H190	H	1.420487	0.653897	1.431958
O191	O	0.830487	1.067983	0.382722
O192	O	1.330487	1.567983	0.882722
C193	C	0.799860	1.088041	0.489774
C194	C	1.299860	1.588041	0.989774
C195	C	0.844129	1.051860	0.445488
C196	C	1.344129	1.551860	0.945488
H197	H	0.810865	1.075009	0.540529
H198	H	1.310865	1.575009	1.040529
H199	H	0.806799	1.140678	0.482932
H200	H	1.306799	1.640678	0.982932
H201	H	0.749106	1.075187	0.478638
H202	H	1.249106	1.575187	0.978638
H203	H	0.894900	1.064661	0.456597
H204	H	1.394900	1.564661	0.956597
H205	H	0.837136	0.999232	0.452338
H206	H	1.337136	1.499232	0.952338
O207	O	0.830385	0.382337	1.068696
O208	O	1.330385	0.882337	1.568696
C209	C	0.799789	0.489417	1.088814
C210	C	1.299789	0.989417	1.588814
C211	C	0.844099	0.445101	1.052709
C212	C	1.344099	0.945101	1.552709
H213	H	0.810871	0.540172	1.075912
H214	H	1.310871	1.040172	1.575912
H215	H	0.749027	0.478428	1.075853
H216	H	1.249027	0.978428	1.575853
H217	H	0.806695	0.482455	1.141448
H218	H	1.306695	0.982455	1.641448
H219	H	0.837249	0.452039	1.000066
H220	H	1.337249	0.952039	1.500066
H221	H	0.894845	0.456100	1.065722
H222	H	1.394845	0.956100	1.565722
O223	O	0.830461	0.938387	0.382669
O224	O	1.330461	1.438387	0.882669
C225	C	0.821918	0.864098	0.467612
C226	C	1.321918	1.364098	0.967612
C227	C	0.866213	0.900234	0.423345
C228	C	1.366213	1.400234	0.923345
H229	H	0.850805	0.833233	0.500501
H230	H	1.350805	1.333233	1.000501
H231	H	0.793154	0.898875	0.496410
H232	H	1.293154	1.398875	0.996410
H233	H	0.788993	0.833402	0.438662
H234	H	1.288993	1.333402	0.938662
H235	H	0.899175	0.930930	0.452247
H236	H	1.399175	1.430930	0.952247
H237	H	0.894933	0.865423	0.394546
H238	H	1.394933	1.365423	0.894546
H239	H	0.982902	1.062754	0.230366
H240	H	1.482902	1.562754	0.730366
O241	O	0.830443	0.382322	0.939102
O242	O	1.330443	0.882322	1.439102
C243	C	0.821921	0.467365	0.864903
C244	C	1.321921	0.967365	1.364903
C245	C	0.866209	0.423050	0.901108
C246	C	1.366209	0.923050	1.401108
H247	H	0.850821	0.500313	0.834186
H248	H	1.350821	1.000313	1.334186
H249	H	0.789032	0.438516	0.834070
H250	H	1.289032	0.938516	1.334070
H251	H	0.793119	0.496102	0.899690
H252	H	1.293119	0.996102	1.399690
H253	H	0.895053	0.394303	0.866367
H254	H	1.395053	0.894303	1.366367
H255	H	0.899057	0.451935	0.931950
H256	H	1.399057	0.951935	1.431950
H257	H	0.670163	0.230200	0.376439
H258	H	1.170163	0.730200	0.876439
H259	H	0.550899	0.230172	0.376441
H260	H	1.050899	0.730172	0.876441
O261	O	0.545578	0.382438	0.223785
O262	O	1.045578	0.882438	0.723785
C263	C	0.525317	0.489470	0.193058
C264	C	1.025317	0.989470	0.693058
C265	C	0.561515	0.445223	0.237417
C266	C	1.061515	0.945223	0.737417
H267	H	0.538178	0.540241	0.204072
H268	H	1.038178	1.040241	0.704072
H269	H	0.538238	0.478394	0.142307
H270	H	1.038238	0.978394	0.642307
H271	H	0.472698	0.482526	0.199981
H272	H	0.972698	0.982526	0.699981
H273	H	0.614143	0.452143	0.230550
H274	H	1.114143	0.952143	0.730550
H275	H	0.548542	0.456310	0.288151
H276	H	1.048542	0.956310	0.788151
O277	O	0.274408	0.223750	0.382823
O278	O	0.774408	0.723750	0.882823
C279	C	0.267587	0.144035	0.462864
C280	C	0.767587	0.644035	0.962864
C281	C	0.231394	0.188271	0.418491
C282	C	0.731394	0.688271	0.918491
H283	H	0.232826	0.115348	0.491722
H284	H	0.732826	0.615348	0.991722
H285	H	0.298370	0.111041	0.434056
H286	H	0.798370	0.611041	0.934056
H287	H	0.298367	0.173004	0.495696
H288	H	0.798367	0.673004	0.995696
H289	H	0.200580	0.159353	0.385649
H290	H	0.700580	0.659353	0.885649
H291	H	0.200651	0.221267	0.447338
H292	H	0.700651	0.721267	0.947338
O293	O	0.144833	0.223868	0.382838
O294	O	0.644833	0.723868	0.882838
C295	C	0.070690	0.215521	0.467875
C296	C	0.570690	0.715521	0.967875
C297	C	0.106810	0.259718	0.423491
C298	C	0.606810	0.759718	0.923491
H299	H	0.039950	0.244489	0.500763
H300	H	0.539950	0.744489	1.000763
H301	H	0.039888	0.182563	0.439076
H302	H	0.539888	0.682563	0.939076
H303	H	0.105532	0.186788	0.496673
H304	H	0.605532	0.686788	0.996673
H305	H	0.072014	0.288492	0.394682
H306	H	0.572014	0.788492	0.894682
H307	H	0.137622	0.292635	0.452325
H308	H	0.637622	0.792635	0.952325
O309	O	0.989090	0.666986	0.223908
O310	O	1.489090	1.166986	0.723908
C311	C	1.069006	0.660006	0.144135
C312	C	1.569006	1.160006	0.644135
C313	C	1.024690	0.623901	0.188407
C314	C	1.524690	1.123901	0.688407
H315	H	1.097809	0.625187	0.115430
H316	H	1.597809	1.125187	0.615430
H317	H	1.040156	0.690816	0.111160
H318	H	1.540156	1.190816	0.611160
H319	H	1.101892	0.690750	0.173078
H320	H	1.601892	1.190750	0.673078
H321	H	0.991795	0.593123	0.159515
H322	H	1.491795	1.093123	0.659515
H323	H	1.053579	0.593130	0.221383
H324	H	1.553579	1.093130	0.721383
O325	O	0.144575	0.382258	0.223841
O326	O	0.644575	0.882258	0.723841
C327	C	0.043245	0.417847	0.188073
C328	C	0.543245	0.917847	0.688073
C329	C	0.079501	0.373630	0.232414
C330	C	0.579501	0.873630	0.732414
H331	H	-0.009374	0.410878	0.194979
H332	H	0.490626	0.910878	0.694979
H333	H	0.056080	0.468638	0.199035
H334	H	0.556080	0.968638	0.699035
H335	H	0.056193	0.406730	0.137340
H336	H	0.556193	0.906730	0.637340
H337	H	0.066571	0.384691	0.283161
H338	H	0.566571	0.884691	0.783161
H339	H	0.066662	0.322853	0.221397
H340	H	0.566662	0.822853	0.721397
O341	O	0.989119	0.223504	1.068940
O342	O	1.489119	0.723504	1.568940
C343	C	1.024844	0.187795	1.170234
C344	C	1.524844	0.687795	1.670234
C345	C	0.980558	0.232107	1.134023
C346	C	1.480558	0.732107	1.634023
H347	H	1.017948	0.194744	1.222859
H348	H	1.517948	0.694744	1.722859
H349	H	1.013819	0.137030	1.157347
H350	H	1.513819	0.637030	1.657347
H351	H	1.075591	0.198837	1.157296
H352	H	1.575591	0.698837	1.657296
H353	H	0.929797	0.221122	1.146942
H354	H	1.429797	0.721122	1.646942
H355	H	0.991637	0.282858	1.146913
H356	H	1.491637	0.782858	1.646913
O357	O	0.274172	0.382359	0.223756
O358	O	0.774172	0.882359	0.723756
C359	C	0.267116	0.462076	0.143720
C360	C	0.767116	0.962076	0.643720
C361	C	0.231054	0.417822	0.188094
C362	C	0.731054	0.917822	0.688094
H363	H	0.232271	0.490749	0.114867
H364	H	0.732271	0.990749	0.614867
H365	H	0.297860	0.495081	0.172527
H366	H	0.797860	0.995081	0.672527
H367	H	0.297923	0.433122	0.110883
H368	H	0.797923	0.933122	0.610883
H369	H	0.200213	0.446725	0.220940
H370	H	0.700213	0.946725	0.720940
H371	H	0.200349	0.384815	0.159248
H372	H	0.700349	0.884815	0.659248
H373	H	0.982850	0.230001	0.543569
H374	H	1.482850	0.730001	1.043569
H375	H	0.836556	0.542739	0.376223
H376	H	1.336556	1.042739	0.876223
O377	O	0.830438	0.382451	0.667958
O378	O	1.330438	0.882451	1.167958
C379	C	0.821921	0.467395	0.742200
C380	C	1.321921	0.967395	1.242200
C381	C	0.866203	0.423082	0.706056
C382	C	1.366203	0.923082	1.206056
H383	H	0.850819	0.500248	0.773021
H384	H	1.350819	1.000248	1.273021
H385	H	0.793138	0.496229	0.707428
H386	H	1.293138	0.996229	1.207428
H387	H	0.789013	0.438478	0.772941
H388	H	1.289013	0.938478	1.272941
H389	H	0.899149	0.451951	0.675314
H390	H	1.399149	0.951951	1.175314
H391	H	0.894941	0.394246	0.740862
H392	H	1.394941	0.894246	1.240862
O393	O	0.989234	0.938414	0.223995
O394	O	1.489234	1.438414	0.723995
C395	C	1.069108	0.945304	0.144179
C396	C	1.569108	1.445304	0.644179
C397	C	1.024791	0.981458	0.188438
C398	C	1.524791	1.481458	0.688438
H399	H	1.097858	0.980089	0.115409
H400	H	1.597858	1.480089	0.615409
H401	H	1.102039	0.914484	0.173071
H402	H	1.602039	1.414484	0.673071
H403	H	1.040199	0.914564	0.111258
H404	H	1.540199	1.414564	0.611258
H405	H	1.053650	1.012232	0.221367
H406	H	1.553650	1.512232	0.721367
H407	H	0.991859	1.012238	0.159506
H408	H	1.491859	1.512238	0.659506
O409	O	0.830320	0.382485	0.538426
O410	O	1.330320	0.882485	1.038426
C411	C	0.750386	0.462336	0.545327
C412	C	1.250386	0.962336	1.045327
C413	C	0.794699	0.417999	0.581476
C414	C	1.294699	0.917999	1.081476
H415	H	0.721565	0.491051	0.580116
H416	H	1.221565	0.991051	1.080116
H417	H	0.779239	0.495298	0.514580
H418	H	1.279239	0.995298	1.014580
H419	H	0.717516	0.433443	0.514516
H420	H	1.217516	0.933443	1.014516
H421	H	0.827578	0.446841	0.612321
H422	H	1.327578	0.946841	1.112321
H423	H	0.765806	0.385035	0.612183
H424	H	1.265806	0.885035	1.112183
H425	H	0.982696	0.542651	0.230264
H426	H	1.482696	1.042651	0.730264
