data_functionalizedCrystal
_audit_creation_method	'MofGen! by Chris Wilmer'
_symmetry_space_group_name_H-M	'P1'
_symmetry_Int_Tables_number	1
_symmetry_cell_setting	triclinic
loop_
_symmetry_equiv_pos_as_xyz
  x,y,z
_cell_length_a	13.101039
_cell_length_b	14.044220
_cell_length_c	14.044220
_cell_angle_alpha	93.188878
_cell_angle_beta	93.667477
_cell_angle_gamma	86.340132
loop_
_atom_site_label
_atom_site_type_symbol
_atom_site_fract_x
_atom_site_fract_y
_atom_site_fract_z
O1	O	0.085109	-1.281968	-0.225348
O2	O	0.085135	-1.005298	-0.217041
O3	O	0.085112	-1.139480	-0.082860
O4	O	0.085132	-1.147787	-0.359530
O5	O	-0.085316	-1.129854	-0.092504
O6	O	-0.085293	-0.995673	-0.226686
O7	O	-0.085319	-1.272343	-0.234993
Zn8	Zn	-0.112365	-1.132479	-0.232371
Zn9	Zn	0.112181	-1.145162	-0.219663
O10	O	-0.085296	-1.138161	-0.369175
C11	C	-0.000076	-0.964864	-0.218228
C12	C	-0.000066	-0.858722	-0.207383
C13	C	-0.000102	-1.131031	-0.052060
C14	C	-0.000102	-1.120187	0.054083
N15	N	-0.265612	-1.123831	-0.241043
C16	C	-0.474653	-1.112065	-0.252851
C17	C	-0.525538	-1.165580	-0.199179
C18	C	-0.641855	-1.159034	-0.205749
C19	C	-0.358325	-1.118610	-0.246282
N20	N	0.265428	-1.153817	-0.210984
C21	C	-0.000106	-1.312777	-0.233806
C22	C	-0.000109	-1.418920	-0.244651
C23	C	-0.000088	-0.664383	-0.187558
C24	C	-0.000087	-0.613253	-0.264472
C25	C	-0.000099	-0.505116	-0.253441
C26	C	-0.000076	-0.772529	-0.198587
C27	C	-0.000080	-1.146610	-0.399974
C28	C	-0.000073	-1.157455	-0.506116
C29	C	-0.000086	-1.100362	0.248421
C30	C	-0.000090	-1.177276	0.299551
C31	C	-0.000080	-1.166245	0.407688
C32	C	-0.000095	-1.111391	0.140275
H33	H	-0.518442	-1.061336	-0.303733
C34	C	0.000120	-0.614429	-0.088725
C35	C	0.087812	-0.562356	-0.072982
C36	C	0.088051	-0.516325	0.018054
H37	H	-0.059244	-0.572263	-0.084492
H38	H	0.000181	-0.660700	-0.041878
H39	H	0.087742	-0.516090	-0.119816
H40	H	0.147191	-0.604500	-0.077196
H41	H	0.088111	-0.562596	0.064901
H42	H	0.028682	-0.474164	0.022279
H43	H	0.147552	-0.480996	0.028751
C44	C	0.000010	-0.663348	-0.363236
C45	C	0.000058	-0.762203	-0.354685
C46	C	0.000175	-0.808386	-0.445640
H47	H	-0.059394	-0.642180	-0.400404
H48	H	0.059477	-0.648798	-0.393564
H49	H	-0.059404	-0.776746	-0.324372
H50	H	0.059458	-0.783398	-0.317534
H51	H	0.059643	-0.793836	-0.475968
H52	H	-0.059230	-0.787211	-0.482801
H53	H	0.000218	-0.875464	-0.439850
H54	H	-0.000028	-1.251413	0.262115
C55	C	0.000078	-1.001585	0.298470
C56	C	0.087748	-0.995756	0.360475
C57	C	0.087922	-0.904783	0.406618
H58	H	0.000128	-0.954683	0.252283
H59	H	-0.059322	-0.990736	0.333915
H60	H	0.147133	-1.006593	0.325032
H61	H	0.087717	-1.042636	0.406681
H62	H	0.028522	-0.893935	0.442064
H63	H	0.087970	-0.857889	0.360424
H64	H	0.147400	-0.900819	0.448700
H65	H	-0.481744	-1.216314	-0.148295
