data_functionalizedCrystal
_audit_creation_method	'MofGen! by Chris Wilmer'
_symmetry_space_group_name_H-M	'P1'
_symmetry_Int_Tables_number	1
_symmetry_cell_setting	triclinic
loop_
_symmetry_equiv_pos_as_xyz
  x,y,z
_cell_length_a	17.699083
_cell_length_b	16.776229
_cell_length_c	17.699104
_cell_angle_alpha	90.007590
_cell_angle_beta	83.287266
_cell_angle_gamma	90.001114
loop_
_atom_site_label
_atom_site_type_symbol
_atom_site_fract_x
_atom_site_fract_y
_atom_site_fract_z
O1	O	1.004086	0.066178	0.095712
O2	O	1.337419	0.399511	0.429045
O3	O	1.670752	0.732845	0.762379
O4	O	0.783708	0.066204	0.108164
O5	O	1.117042	0.399538	0.441498
O6	O	1.450375	0.732871	0.774831
O7	O	0.900115	0.066183	-0.008250
O8	O	1.233448	0.399517	0.325083
O9	O	1.566782	0.732850	0.658417
O10	O	0.887679	0.066199	0.212126
O11	O	1.221012	0.399532	0.545460
O12	O	1.554346	0.732866	0.878793
O13	O	0.900099	-0.066393	-0.008257
O14	O	1.233433	0.266940	0.325076
O15	O	1.566766	0.600274	0.658410
O16	O	0.783693	-0.066372	0.108157
O17	O	1.117026	0.266961	0.441491
O18	O	1.450359	0.600295	0.774824
O19	O	1.004070	-0.066398	0.095705
O20	O	1.337404	0.266935	0.429038
O21	O	1.670737	0.600268	0.762372
Zn22	Zn	0.893879	-0.087435	0.101930
Zn23	Zn	1.227212	0.245899	0.435263
Zn24	Zn	1.560546	0.579232	0.768597
Zn25	Zn	0.893899	0.087241	0.101939
Zn26	Zn	1.227233	0.420574	0.435273
Zn27	Zn	1.560566	0.753907	0.768606
O28	O	0.887664	-0.066377	0.212119
O29	O	1.220997	0.266956	0.545453
O30	O	1.554330	0.600289	0.878786
C31	C	0.755503	-0.000081	0.107715
C32	C	1.088837	0.333253	0.441048
C33	C	1.422170	0.666586	0.774381
C34	C	0.671485	-0.000071	0.106376
C35	C	1.004819	0.333263	0.439709
C36	C	1.338152	0.666596	0.773043
C37	C	0.622869	-0.000066	0.174709
C38	C	0.956203	0.333267	0.508042
C39	C	1.289536	0.666601	0.841375
C40	C	0.543926	-0.000076	0.173446
C41	C	0.877259	0.333257	0.506780
C42	C	1.210593	0.666590	0.840113
C43	C	0.513600	-0.000086	0.103851
C44	C	0.846933	0.333248	0.437184
C45	C	1.180267	0.666581	0.770517
C46	C	0.562222	-0.000093	0.035513
C47	C	0.895555	0.333241	0.368846
C48	C	1.228889	0.666574	0.702179
C49	C	0.641164	-0.000088	0.036776
C50	C	0.974497	0.333245	0.370109
C51	C	1.307831	0.666579	0.703442
C52	C	0.243859	-0.000113	0.030418
C53	C	0.577192	0.333220	0.363751
C54	C	0.910525	0.666554	0.697084
C55	C	0.164911	-0.000115	0.029160
C56	C	0.498244	0.333218	0.362493
C57	C	0.831577	0.666551	0.695826
C58	C	0.146621	-0.000101	0.167088
C59	C	0.479954	0.333232	0.500422
C60	C	0.813287	0.666565	0.833755
C61	C	0.225563	-0.000097	0.168351
C62	C	0.558896	0.333237	0.501685
C63	C	0.892229	0.666570	0.835018
C64	C	0.274178	-0.000108	0.100014
C65	C	0.607511	0.333226	0.433347
C66	C	0.940844	0.666559	0.766680
C67	C	0.359777	-0.000098	0.101383
C68	C	0.693110	0.333235	0.434717
C69	C	1.026444	0.666569	0.768050
C70	C	0.428002	-0.000090	0.102480
C71	C	0.761336	0.333243	0.435814
C72	C	1.094669	0.666577	0.769147
N73	N	0.893871	-0.206646	0.101923
N74	N	1.227204	0.126688	0.435256
N75	N	1.560537	0.460021	0.768590
C76	C	0.945431	-0.248372	0.050396
C77	C	1.278765	0.084961	0.383729
C78	C	1.612098	0.418294	0.717063
C79	C	0.945435	-0.331824	0.050395
C80	C	1.278769	0.001509	0.383729
C81	C	1.612102	0.334842	0.717062
C82	C	0.893882	-0.373549	0.101926
C83	C	1.227215	-0.040215	0.435259
C84	C	1.560549	0.293118	0.768593
C85	C	0.842316	-0.331816	0.153456
C86	C	1.175649	0.001517	0.486789
C87	C	1.508983	0.334850	0.820122
C88	C	0.842309	-0.248366	0.153452
C89	C	1.175642	0.084968	0.486785
C90	C	1.508976	0.418301	0.820119
C91	C	0.842343	-0.668364	0.153470
C92	C	1.175677	-0.335030	0.486804
C93	C	1.509010	-0.001697	0.820137
C94	C	0.842356	-0.751820	0.153472
C95	C	1.175690	-0.418487	0.486805
C96	C	1.509023	-0.085154	0.820138
C97	C	0.945470	-0.751822	0.050414
C98	C	1.278803	-0.418489	0.383747
C99	C	1.612137	-0.085156	0.717080
C100	C	0.945463	-0.668372	0.050410
C101	C	1.278796	-0.335038	0.383743
C102	C	1.612129	-0.001705	0.717077
C103	C	0.893894	-0.626647	0.101937
C104	C	1.227228	-0.293313	0.435270
C105	C	1.560561	0.040020	0.768603
C106	C	0.893890	-0.536158	0.101936
C107	C	1.227223	-0.202825	0.435269
C108	C	1.560556	0.130508	0.768602
C109	C	0.893890	-0.464036	0.101931
C110	C	1.227223	-0.130702	0.435264
C111	C	1.560557	0.202631	0.768598
C112	C	1.032275	-0.000112	0.096155
C113	C	1.365608	0.333222	0.429488
C114	C	1.698942	0.666555	0.762821
C115	C	1.116293	-0.000116	0.097493
C116	C	1.449626	0.333217	0.430827
C117	C	1.782960	0.666550	0.764160
C118	C	0.899659	-0.000105	-0.036450
C119	C	1.232992	0.333228	0.296883
C120	C	1.566326	0.666562	0.630216
C121	C	0.898314	-0.000105	-0.120467
C122	C	1.231647	0.333228	0.212866
C123	C	1.564981	0.666562	0.546199
N124	N	0.893914	0.206452	0.101940
N125	N	1.227247	0.539785	0.435274
N126	N	1.560580	0.873119	0.768607
C127	C	0.959058	-0.000090	-0.645338
C128	C	1.292391	0.333244	-0.312005
C129	C	1.625725	0.666577	0.021328
C130	C	0.960317	-0.000097	-0.566395
C131	C	1.293650	0.333236	-0.233061
C132	C	1.626984	0.666570	0.100272
C133	C	0.891982	-0.000091	-0.517777
C134	C	1.225315	0.333243	-0.184444
C135	C	1.558648	0.666576	0.148890
C136	C	0.822383	-0.000085	-0.548107
C137	C	1.155716	0.333248	-0.214774
C138	C	1.489050	0.666582	0.118560
C139	C	0.821125	-0.000084	-0.627049
C140	C	1.154458	0.333250	-0.293716
C141	C	1.487791	0.666583	0.039617
C142	C	0.827456	-0.000092	-0.229741
C143	C	1.160789	0.333241	0.103592
C144	C	1.494123	0.666574	0.436926
C145	C	0.828720	-0.000092	-0.150794
C146	C	1.162053	0.333242	0.182540
C147	C	1.495386	0.666575	0.515873
C148	C	0.966648	-0.000106	-0.169086
C149	C	1.299982	0.333228	0.164247
C150	C	1.633315	0.666561	0.497580
C151	C	0.965390	-0.000104	-0.248029
C152	C	1.298723	0.333229	0.085305
C153	C	1.632057	0.666562	0.418638
C154	C	0.895792	-0.000103	-0.278352
C155	C	1.229125	0.333230	0.054982
C156	C	1.562458	0.666564	0.388315
C157	C	0.894427	-0.000097	-0.363951
C158	C	1.227761	0.333237	-0.030618
C159	C	1.561094	0.666570	0.302715
C160	C	0.893345	-0.000091	-0.432179
C161	C	1.226679	0.333242	-0.098845
C162	C	1.560012	0.666575	0.234488
C163	C	0.888120	-0.000087	0.240319
C164	C	1.221453	0.333246	0.573653
C165	C	1.554786	0.666579	0.906986
C166	C	0.889464	-0.000082	0.324337
C167	C	1.222798	0.333252	0.657670
C168	C	1.556131	0.666585	0.991003
H169	H	0.250249	-0.000085	0.225023
H170	H	0.583583	0.333248	0.558357
H171	H	0.916916	0.666581	0.891690
N172	N	0.786722	-0.623366	0.209039
N173	N	1.120056	-0.290033	0.542372
N174	N	1.453389	0.043300	0.875705
H175	H	0.754067	-0.662464	0.241683
H176	H	1.087400	-0.329130	0.575016
H177	H	1.420734	0.004203	0.908349
H178	H	0.815624	-0.588727	0.242465
H179	H	1.148958	-0.255394	0.575798
H180	H	1.482291	0.077940	0.909131
N181	N	0.132194	-0.000132	-0.045905
N182	N	0.465527	0.333202	0.287429
N183	N	0.798861	0.666535	0.620762
H184	H	0.149929	0.049008	-0.075841
H185	H	0.483262	0.382341	0.257492
H186	H	0.816596	0.715675	0.590825
H187	H	0.149936	-0.049317	-0.075773
H188	H	0.483269	0.284016	0.257560
H189	H	0.816602	0.617350	0.590893
N190	N	1.035380	-0.000083	-0.533689
N191	N	1.368713	0.333250	-0.200356
N192	N	1.702046	0.666583	0.132978
H193	H	1.025810	-0.000083	-0.476303
H194	H	1.359144	0.333251	-0.142969
H195	H	1.692477	0.666584	0.190364
H196	H	1.065283	-0.049227	-0.551486
H197	H	1.398616	0.284106	-0.218153
H198	H	1.731949	0.617440	0.115180
N199	N	0.752393	-0.000102	-0.262441
N200	N	1.085727	0.333231	0.070892
N201	N	1.419060	0.666564	0.404225
H202	H	0.709297	-0.000099	-0.219662
H203	H	1.042630	0.333234	0.113672
H204	H	1.375963	0.666567	0.447005
H205	H	0.748861	0.049041	-0.294795
H206	H	1.082195	0.382374	0.038538
H207	H	1.415528	0.715707	0.371871
N208	N	0.693606	-0.000088	-0.036924
N209	N	1.026939	0.333245	0.296409
N210	N	1.360273	0.666579	0.629743
H211	H	0.726766	-0.049234	-0.039474
H212	H	1.060099	0.284099	0.293859
H213	H	1.393433	0.617432	0.627192
H214	H	0.662366	-0.000063	-0.081163
H215	H	0.995699	0.333270	0.252170
H216	H	1.329033	0.666604	0.585503
N217	N	0.746059	-0.000072	-0.659753
N218	N	1.079393	0.333261	-0.326420
N219	N	1.412726	0.666595	0.006914
H220	H	0.742466	0.049073	-0.692094
H221	H	1.075799	0.382407	-0.358761
H222	H	1.409133	0.715740	-0.025427
H223	H	0.742503	-0.049252	-0.692065
H224	H	1.075836	0.284082	-0.358732
H225	H	1.409169	0.617415	-0.025398
H226	H	0.647554	-0.000058	0.231382
H227	H	0.980887	0.333275	0.564715
H228	H	1.314221	0.666609	0.898048
N229	N	1.001055	-0.376827	-0.005174
N230	N	1.334389	-0.043494	0.328159
N231	N	1.667722	0.289839	0.661493
H232	H	0.993237	-0.436024	0.002643
H233	H	1.326571	-0.102691	0.335977
H234	H	1.659904	0.230643	0.669310
H235	H	0.992415	-0.362250	-0.058858
H236	H	1.325748	-0.028917	0.274475
H237	H	1.659082	0.304416	0.607809
N238	N	1.001033	-0.203385	-0.005198
N239	N	1.334366	0.129948	0.328135
N240	N	1.667700	0.463281	0.661469
H241	H	0.972165	-0.168776	-0.038674
H242	H	1.305498	0.164557	0.294659
H243	H	1.638832	0.497890	0.627993
H244	H	1.034483	-0.168794	0.023723
H245	H	1.367816	0.164539	0.357056
H246	H	1.701149	0.497872	0.690389
H247	H	0.107028	-0.000096	0.222732
H248	H	0.440362	0.333237	0.556065
H249	H	0.773695	0.666570	0.889399
N250	N	0.491489	-0.000161	0.247148
N251	N	0.824823	0.333172	0.580481
N252	N	1.158156	0.666505	0.913814
H253	H	0.522680	-0.000179	0.291427
H254	H	0.856013	0.333154	0.624761
H255	H	1.189346	0.666487	0.958094
H256	H	0.458292	0.048954	0.249687
H257	H	0.791625	0.382287	0.583020
H258	H	1.124959	0.715621	0.916354
N259	N	0.296287	-0.000130	-0.043286
N260	N	0.629621	0.333203	0.290048
N261	N	0.962954	0.666536	0.623381
H262	H	0.265095	-0.000136	-0.087564
H263	H	0.598428	0.333198	0.245770
H264	H	0.931761	0.666531	0.579103
H265	H	0.329443	0.049016	-0.045770
H266	H	0.662776	0.382349	0.287563
H267	H	0.996109	0.715682	0.620896
N268	N	1.001069	-0.623369	-0.005166
N269	N	1.334403	-0.290035	0.328168
N270	N	1.667736	0.043298	0.661501
H271	H	1.033734	-0.662466	-0.037810
H272	H	1.367067	-0.329133	0.295523
H273	H	1.700400	0.004201	0.628857
H274	H	0.972152	-0.588755	-0.038590
H275	H	1.305485	-0.255422	0.294743
H276	H	1.638818	0.077912	0.628077
H277	H	0.537525	-0.000112	-0.021153
H278	H	0.870858	0.333221	0.312180
H279	H	1.204191	0.666555	0.645513
H280	H	0.987458	-0.785804	0.008455
H281	H	1.320791	-0.452470	0.341789
H282	H	1.654124	-0.119137	0.675122
H283	H	1.021036	-0.000105	-0.287610
H284	H	1.354369	0.333228	0.045723
H285	H	1.687702	0.666561	0.379057
N286	N	0.748678	-0.000071	-0.495671
N287	N	1.082012	0.333263	-0.162338
N288	N	1.415345	0.666596	0.170996
H289	H	0.704400	-0.000066	-0.526863
H290	H	1.037733	0.333267	-0.193530
H291	H	1.371067	0.666600	0.139804
H292	H	0.746189	-0.049217	-0.462522
H293	H	1.079522	0.284117	-0.129189
H294	H	1.412856	0.617450	0.204144
N295	N	0.786744	-0.796828	0.209046
N296	N	1.120077	-0.463495	0.542379
N297	N	1.453411	-0.130161	0.875713
H298	H	0.795350	-0.782295	0.262756
H299	H	1.128683	-0.448962	0.596089
H300	H	1.462016	-0.115628	0.929422
H301	H	0.733071	-0.782299	0.200320
H302	H	1.066404	-0.448965	0.533653
H303	H	1.399738	-0.115632	0.866987
N304	N	0.786706	-0.376814	0.209031
N305	N	1.120039	-0.043481	0.542365
N306	N	1.453372	0.289852	0.875698
H307	H	0.794534	-0.436012	0.201217
H308	H	1.127867	-0.102679	0.534550
H309	H	1.461201	0.230654	0.867884
H310	H	0.795347	-0.362215	0.262713
H311	H	1.128680	-0.028882	0.596046
H312	H	1.462013	0.304452	0.929380
N313	N	1.041718	-0.000119	-0.136382
N314	N	1.375052	0.333214	0.196952
N315	N	1.708385	0.666547	0.530285
H316	H	1.032151	-0.000125	-0.078995
H317	H	1.365484	0.333208	0.254338
H318	H	1.698817	0.666541	0.587672
H319	H	1.071605	-0.049271	-0.154186
H320	H	1.404938	0.284062	0.179148
H321	H	1.738272	0.617396	0.512481
H322	H	0.800322	-0.214393	0.195410
H323	H	1.133655	0.118940	0.528743
H324	H	1.466989	0.452274	0.862076
N325	N	1.032761	-0.000104	-0.697776
N326	N	1.366094	0.333230	-0.364443
N327	N	1.699428	0.666563	-0.031110
H328	H	1.035323	0.049042	-0.730932
H329	H	1.368656	0.382375	-0.397598
H330	H	1.701989	0.715709	-0.064265
H331	H	1.076998	-0.000144	-0.666533
H332	H	1.410331	0.333190	-0.333200
H333	H	1.743665	0.666523	0.000134
H334	H	0.773070	-0.000088	-0.111210
H335	H	1.106403	0.333245	0.222123
H336	H	1.439736	0.666579	0.555457
