data_functionalizedCrystal
_audit_creation_method	'MofGen! by Chris Wilmer'
_symmetry_space_group_name_H-M	'P1'
_symmetry_Int_Tables_number	1
_symmetry_cell_setting	triclinic
loop_
_symmetry_equiv_pos_as_xyz
  x,y,z
_cell_length_a	17.019372
_cell_length_b	16.098678
_cell_length_c	10.967829
_cell_angle_alpha	104.868202
_cell_angle_beta	84.882204
_cell_angle_gamma	83.409482
loop_
_atom_site_label
_atom_site_type_symbol
_atom_site_fract_x
_atom_site_fract_y
_atom_site_fract_z
O1	O	1.046657	0.017264	0.160321
O2	O	1.379990	0.350597	0.493655
O3	O	1.713323	0.683931	0.826988
O4	O	0.816113	0.036923	0.182187
O5	O	1.149446	0.370256	0.515520
O6	O	1.482779	0.703590	0.848854
O7	O	0.938033	0.000232	-0.012571
O8	O	1.271366	0.333566	0.320763
O9	O	1.604700	0.666899	0.654096
O10	O	0.924736	0.053955	0.355079
O11	O	1.258069	0.387288	0.688412
O12	O	1.591403	0.720621	1.021745
O13	O	0.945119	-0.140413	-0.023910
O14	O	1.278452	0.192920	0.309423
O15	O	1.611785	0.526254	0.642757
O16	O	0.823198	-0.103722	0.170848
O17	O	1.156531	0.229611	0.504181
O18	O	1.489865	0.562944	0.837514
O19	O	1.053742	-0.123381	0.148982
O20	O	1.387075	0.209952	0.482315
O21	O	1.720409	0.543285	0.815649
Zn22	Zn	0.939595	-0.135882	0.158115
Zn23	Zn	1.272928	0.197451	0.491448
Zn24	Zn	1.606262	0.530784	0.824781
Zn25	Zn	0.930260	0.049424	0.173054
Zn26	Zn	1.263593	0.382757	0.506388
Zn27	Zn	1.596926	0.716091	0.839721
O28	O	0.931822	-0.086691	0.343740
O29	O	1.265155	0.246643	0.677073
O30	O	1.598488	0.579976	1.010406
C31	C	0.790160	-0.031373	0.175913
C32	C	1.123493	0.301961	0.509247
C33	C	1.456827	0.635294	0.842580
C34	C	0.702274	-0.025335	0.174098
C35	C	1.035607	0.307998	0.507431
C36	C	1.368941	0.641331	0.840765
C37	C	0.205014	0.012708	0.164105
C38	C	0.538347	0.346041	0.497438
C39	C	0.871681	0.679375	0.830771
C40	C	0.287593	0.007024	0.165809
C41	C	0.620926	0.340357	0.499143
C42	C	0.954260	0.673690	0.832476
C43	C	0.332736	-0.072484	0.160490
C44	C	0.666070	0.260850	0.493823
C45	C	0.999403	0.594183	0.827157
C46	C	0.295297	-0.146313	0.153452
C47	C	0.628631	0.187020	0.486786
C48	C	0.961964	0.520353	0.820119
C49	C	0.212721	-0.140630	0.151739
C50	C	0.546054	0.192704	0.485072
C51	C	0.879387	0.526037	0.818405
C52	C	0.582258	-0.093481	0.165347
C53	C	0.915592	0.239852	0.498680
C54	C	1.248925	0.573185	0.832014
C55	C	0.664840	-0.099159	0.167065
C56	C	0.998174	0.234174	0.500398
C57	C	1.331507	0.567508	0.833732
C58	C	0.657130	0.054178	0.179419
C59	C	0.990464	0.387512	0.512753
C60	C	1.323797	0.720845	0.846086
C61	C	0.574552	0.059856	0.177713
C62	C	0.907885	0.393190	0.511046
C63	C	1.241218	0.726523	0.844379
C64	C	0.537121	-0.013974	0.170669
C65	C	0.870454	0.319359	0.504002
C66	C	1.203787	0.652692	0.837335
C67	C	0.417145	-0.078295	0.162236
C68	C	0.750478	0.255038	0.495570
C69	C	1.083812	0.588372	0.828903
C70	C	0.452714	-0.008163	0.168913
C71	C	0.786048	0.325170	0.502247
C72	C	1.119381	0.658503	0.835580
N73	N	0.945972	-0.262350	0.147918
N74	N	1.279305	0.070984	0.481251
N75	N	1.612639	0.404317	0.814584
C76	C	0.894214	-0.290386	0.230550
C77	C	1.227548	0.042948	0.563884
C78	C	1.560881	0.376281	0.897217
C79	C	0.898698	-0.378919	0.223411
C80	C	1.232032	-0.045586	0.556745
C81	C	1.565365	0.287748	0.890078
C82	C	0.954937	-0.439415	0.133633
C83	C	1.288270	-0.106082	0.466967
C84	C	1.621604	0.227252	0.800300
C85	C	1.006700	-0.411374	0.050997
C86	C	1.340034	-0.078040	0.384330
C87	C	1.673367	0.255293	0.717664
C88	C	1.002220	-0.322841	0.058143
C89	C	1.335553	0.010492	0.391476
C90	C	1.668886	0.343825	0.724809
C91	C	0.971171	-0.707537	0.107751
C92	C	1.304505	-0.374204	0.441084
C93	C	1.637838	-0.040870	0.774417
C94	C	0.975647	-0.796075	0.100609
C95	C	1.308980	-0.462741	0.433942
C96	C	1.642313	-0.129408	0.767275
C97	C	0.867645	-0.763613	0.273026
C98	C	1.200978	-0.430280	0.606359
C99	C	1.534312	-0.096947	0.939692
C100	C	0.863166	-0.675081	0.280158
C101	C	1.196499	-0.341748	0.613492
C102	C	1.529833	-0.008415	0.946825
C103	C	0.914932	-0.647047	0.197527
C104	C	1.248265	-0.313714	0.530860
C105	C	1.581599	0.019619	0.864193
C106	C	0.959520	-0.529911	0.126331
C107	C	1.292854	-0.196578	0.459665
C108	C	1.626187	0.136756	0.792998
C109	C	0.910352	-0.556552	0.204835
C110	C	1.243686	-0.223219	0.538169
C111	C	1.577019	0.110114	0.871502
C112	C	1.079694	-0.055084	0.155256
C113	C	1.413028	0.278250	0.488589
C114	C	1.746361	0.611583	0.821923
C115	C	1.167580	-0.061116	0.157071
C116	C	1.500914	0.272218	0.490405
C117	C	1.834247	0.605551	0.823738
C118	C	0.941144	-0.076808	-0.065270
C119	C	1.274477	0.256525	0.268063
C120	C	1.607810	0.589859	0.601397
C121	C	0.939847	-0.096823	-0.205404
C122	C	1.273180	0.236510	0.127930
C123	C	1.606513	0.569843	0.461263
N124	N	0.923889	0.175889	0.183241
N125	N	1.257222	0.509223	0.516575
N126	N	1.590556	0.842556	0.849908
C127	C	0.935598	-0.032887	-0.261999
C128	C	1.268931	0.300446	0.071334
C129	C	1.602264	0.633779	0.404667
C130	C	0.934257	-0.053573	-0.406835
C131	C	1.267590	0.279761	-0.073502
C132	C	1.600924	0.613094	0.259832
C133	C	0.928711	-0.009649	0.396439
C134	C	1.262044	0.323685	0.729772
C135	C	1.595378	0.657018	1.063106
C136	C	0.930008	0.010372	0.536573
C137	C	1.263341	0.343706	0.869907
C138	C	1.596674	0.677039	1.203240
H139	H	0.332060	-0.211051	0.149113
H140	H	0.665394	0.122282	0.482447
H141	H	0.998727	0.455615	0.815780
H142	H	0.453910	-0.143030	0.157908
H143	H	0.787243	0.190303	0.491241
H144	H	1.120576	0.523637	0.824574
H145	H	1.021446	-0.845329	0.027495
H146	H	1.354779	-0.511996	0.360828
H147	H	1.688112	-0.178663	0.694162
H148	H	0.182242	-0.200743	0.146025
H149	H	0.515576	0.132590	0.479358
H150	H	0.848909	0.465924	0.812691
H151	H	1.052495	-0.460635	-0.022099
H152	H	1.385829	-0.127301	0.311235
H153	H	1.719162	0.206032	0.644568
H154	H	0.537802	0.124599	0.182043
H155	H	0.871135	0.457933	0.515376
H156	H	1.204468	0.791266	0.848709
H157	H	0.551794	-0.153603	0.159593
H158	H	0.885127	0.179731	0.492926
H159	H	1.218460	0.513064	0.826259
H160	H	0.856554	-0.401744	0.290698
H161	H	1.189887	-0.068411	0.624032
H162	H	1.523220	0.264922	0.957365
H163	H	1.044367	-0.300017	-0.009144
H164	H	1.377701	0.033317	0.324189
H165	H	1.711034	0.366650	0.657523
H166	H	0.927353	0.080430	-0.404659
H167	H	1.260687	0.413763	-0.071325
H168	H	1.594020	0.747097	0.262008
H169	H	0.318068	0.067138	0.171529
H170	H	0.651402	0.400471	0.504862
H171	H	0.984735	0.733804	0.838195
H172	H	0.942486	-0.166874	-0.264175
H173	H	1.275820	0.166459	0.069159
H174	H	1.609153	0.499792	0.402492
H175	H	0.168263	0.077453	0.168445
H176	H	0.501597	0.410786	0.501779
H177	H	0.834930	0.744119	0.835112
H178	H	0.848415	-0.241134	0.303652
H179	H	1.181749	0.092199	0.636985
H180	H	1.515082	0.425532	0.970319
H181	H	0.687616	0.114287	0.185153
H182	H	1.020949	0.447620	0.518486
H183	H	1.354283	0.780953	0.851819
H184	H	0.817372	-0.625826	0.353263
H185	H	1.150705	-0.292493	0.686596
H186	H	1.484039	0.040841	1.019930
H187	H	0.825500	-0.786447	0.340302
H188	H	1.158834	-0.453114	0.673635
H189	H	1.492167	-0.119781	1.006969
H190	H	1.013320	-0.684719	0.040466
H191	H	1.346653	-0.351386	0.373799
H192	H	1.679987	-0.018053	0.707133
H193	H	0.864565	-0.507293	0.277937
H194	H	1.197899	-0.173960	0.611271
H195	H	1.531232	0.159373	0.944604
H196	H	0.701593	-0.163905	0.162742
H197	H	1.034927	0.169428	0.496075
H198	H	1.368260	0.502761	0.829408
H199	H	0.415956	0.056570	0.173239
H200	H	0.749289	0.389904	0.506573
H201	H	1.082622	0.723237	0.839906
H202	H	1.005310	-0.579175	0.053230
H203	H	1.338643	-0.245841	0.386563
H204	H	1.671976	0.087492	0.719897
H205	H	0.932949	0.037165	-0.203227
H206	H	1.266283	0.370498	0.130107
H207	H	1.599616	0.703831	0.463440
H208	H	0.936897	-0.123629	-0.465601
H209	H	1.270231	0.209705	-0.132268
H210	H	1.603564	0.543038	0.201065
