data_functionalizedCrystal
_audit_creation_method	'MofGen! by Chris Wilmer'
_symmetry_space_group_name_H-M	'P1'
_symmetry_Int_Tables_number	1
_symmetry_cell_setting	triclinic
loop_
_symmetry_equiv_pos_as_xyz
  x,y,z
_cell_length_a	8.559649
_cell_length_b	15.944551
_cell_length_c	7.681481
_cell_angle_alpha	84.256492
_cell_angle_beta	94.913240
_cell_angle_gamma	76.638701
loop_
_atom_site_label
_atom_site_type_symbol
_atom_site_fract_x
_atom_site_fract_y
_atom_site_fract_z
O1	O	2.105021	-0.019570	-0.146399
O2	O	1.639821	0.023810	-0.146411
O3	O	1.885126	-0.120976	-0.146389
O4	O	1.859716	0.125215	-0.146421
O5	O	1.915319	-0.138833	0.146471
O6	O	1.670014	0.005953	0.146450
O7	O	2.135214	-0.037427	0.146461
Zn8	Zn	1.907408	-0.018572	0.192953
Zn9	Zn	1.867627	0.004955	-0.192903
O10	O	1.889909	0.107359	0.146439
C11	C	1.595387	0.018169	0.000018
C12	C	1.418008	0.027954	0.000014
C13	C	1.899168	-0.161130	0.000042
C14	C	1.896006	-0.254172	0.000042
C15	C	1.736394	-0.458726	0.000014
C16	C	1.825398	-0.533331	0.144414
C17	C	1.890284	-0.424528	0.000029
C18	C	1.795667	-0.515712	-0.144323
C19	C	1.884744	-0.589082	0.000008
C20	C	1.979342	-0.497915	0.144548
C21	C	1.949576	-0.480280	-0.144319
C22	C	2.038696	-0.554877	0.000116
C23	C	1.893471	-0.329732	0.000042
C24	C	1.881571	-0.683878	0.000007
C25	C	2.179647	-0.031786	0.000028
C26	C	2.357025	-0.041570	0.000021
C27	C	1.875866	0.147513	0.000005
C28	C	1.879027	0.240556	-0.000008
N29	N	1.934569	-0.034630	0.456290
N30	N	1.840479	0.021005	-0.456240
H31	H	1.440515	-0.108579	0.000021
H32	H	1.744432	0.077792	0.468555
H33	H	2.002022	-0.456903	-0.266401
O34	O	1.318221	0.107874	-0.000236
C35	C	1.092205	0.217660	-0.152039
C36	C	1.205073	0.127134	-0.151953
H37	H	1.000718	0.233268	-0.274707
H38	H	1.025739	0.218352	-0.029567
H39	H	1.166688	0.268407	-0.151957
H40	H	1.130710	0.076336	-0.152097
H41	H	1.271545	0.126515	-0.274414
O42	O	2.191338	-0.604159	0.000304
C43	C	2.473894	-0.606366	0.001863
C44	C	2.301113	-0.550460	0.001671
H45	H	2.562691	-0.562971	0.002930
H46	H	2.505762	-0.656609	0.123888
H47	H	2.481123	-0.640907	-0.121228
H48	H	2.293755	-0.515862	0.124679
H49	H	2.269320	-0.500268	-0.120436
O50	O	2.049078	-0.102479	0.545815
C51	C	2.148067	-0.258002	0.602656
C52	C	2.018314	-0.181245	0.501128
H53	H	2.123220	-0.321703	0.566592
H54	H	2.272417	-0.253259	0.566453
H55	H	2.144559	-0.255864	0.750200
H56	H	2.021672	-0.183334	0.353561
H57	H	1.894021	-0.186015	0.537477
O58	O	1.583935	-0.409294	0.000254
C59	C	1.301565	-0.406900	0.002011
C60	C	1.474137	-0.462985	0.001772
H61	H	1.212742	-0.450284	0.003201
H62	H	1.295109	-0.371511	0.123993
H63	H	1.269078	-0.357367	-0.121122
H64	H	1.506735	-0.512565	0.124822
H65	H	1.480501	-0.498313	-0.120291
O66	O	1.763043	-0.561281	0.290174
C67	C	1.808336	-0.661794	0.555859
C68	C	1.879179	-0.630220	0.390894
H69	H	1.902186	-0.717548	0.637318
H70	H	1.774080	-0.606040	0.638160
H71	H	1.696231	-0.685208	0.514152
H72	H	1.991329	-0.606818	0.432445
H73	H	1.913320	-0.685999	0.308633
O74	O	2.071846	-0.487813	0.290298
C75	C	2.178678	-0.388246	0.453766
C76	C	2.073854	-0.399563	0.288653
H77	H	2.180364	-0.316903	0.452472
H78	H	2.126199	-0.410549	0.576730
H79	H	2.307180	-0.428928	0.454270
H80	H	1.945332	-0.358884	0.287978
H81	H	2.126465	-0.377288	0.165763
H82	H	1.717971	-0.524143	-0.266411
