data_functionalizedCrystal
_audit_creation_method	'MofGen! by Chris Wilmer'
_symmetry_space_group_name_H-M	'P1'
_symmetry_Int_Tables_number	1
_symmetry_cell_setting	triclinic
loop_
_symmetry_equiv_pos_as_xyz
  x,y,z
_cell_length_a	16.120484
_cell_length_b	11.169417
_cell_length_c	11.169409
_cell_angle_alpha	89.980176
_cell_angle_beta	87.139270
_cell_angle_gamma	87.073731
loop_
_atom_site_label
_atom_site_type_symbol
_atom_site_fract_x
_atom_site_fract_y
_atom_site_fract_z
Zn1	Zn	-0.331818	-1.810616	0.702705
Zn2	Zn	0.001515	-1.477282	1.036039
Zn3	Zn	0.334848	-1.143949	1.369372
Zn4	Zn	-0.471261	-1.800274	0.512176
Zn5	Zn	-0.137928	-1.466940	0.845510
Zn6	Zn	0.195405	-1.133607	1.178843
Zn7	Zn	-0.331869	-1.609898	0.502043
Zn8	Zn	0.001464	-1.276565	0.835377
Zn9	Zn	0.334798	-0.943231	1.168710
Zn10	Zn	-0.471193	-1.599683	0.712816
Zn11	Zn	-0.137860	-1.266349	1.046149
Zn12	Zn	0.195473	-0.933016	1.379483
O13	O	-0.401535	-1.705118	0.607435
O14	O	-0.068202	-1.371784	0.940769
O15	O	0.265131	-1.038451	1.274102
O16	O	-0.350323	-1.977193	0.677440
O17	O	-0.016989	-1.643860	1.010774
O18	O	0.316344	-1.310526	1.344107
O19	O	-0.452820	-1.774967	0.342886
O20	O	-0.119487	-1.441634	0.676219
O21	O	0.213846	-1.108300	1.009552
O22	O	-0.215197	-1.645127	0.520189
O23	O	0.118136	-1.311794	0.853523
O24	O	0.451469	-0.978460	1.186856
O25	O	-0.452771	-1.969595	0.537459
O26	O	-0.119438	-1.636262	0.870793
O27	O	0.213896	-1.302928	1.204126
O28	O	-0.215160	-1.792593	0.667615
O29	O	0.118173	-1.459260	1.000948
O30	O	0.451507	-1.125927	1.334282
O31	O	-0.350409	-1.635099	0.335441
O32	O	-0.017076	-1.301765	0.668775
O33	O	0.316257	-0.968432	1.002108
O34	O	-0.350344	-1.440594	0.529994
O35	O	-0.017010	-1.107260	0.863327
O36	O	0.316323	-0.773927	1.196660
O37	O	-0.452655	-1.627717	0.879421
O38	O	-0.119322	-1.294383	1.212754
O39	O	0.214011	-0.961050	1.546088
O40	O	-0.452705	-1.433089	0.684847
O41	O	-0.119371	-1.099755	1.018181
O42	O	0.213962	-0.766422	1.351514
O43	O	-0.350257	-1.782688	0.871993
O44	O	-0.016924	-1.449355	1.205326
O45	O	0.316410	-1.116021	1.538659
O46	O	-0.587917	-1.765062	0.547264
O47	O	-0.254584	-1.431728	0.880597
O48	O	0.078749	-1.098395	1.213930
O49	O	-0.587867	-1.617688	0.694673
O50	O	-0.254534	-1.284355	1.028006
O51	O	0.078799	-0.951022	1.361340
C52	C	-0.401523	-1.393294	0.607419
C53	C	-0.068189	-1.059960	0.940752
C54	C	0.265144	-0.726627	1.274086
C55	C	-0.401537	-1.259893	0.607442
C56	C	-0.068204	-0.926559	0.940775
C57	C	0.265129	-0.593226	1.274108
C58	C	-0.618142	-1.689177	0.623191
C59	C	-0.284809	-1.355844	0.956524
C60	C	0.048524	-1.022510	1.289858
C61	C	-0.710808	-1.682467	0.629972
C62	C	-0.377474	-1.349134	0.963305
C63	C	-0.044141	-1.015801	1.296638
C64	C	-0.401443	-1.705217	0.920471
C65	C	-0.068110	-1.371883	1.253804
C66	C	0.265224	-1.038550	1.587138
C67	C	-0.401403	-1.705259	1.053868
C68	C	-0.068070	-1.371925	1.387202
C69	C	0.265263	-1.038592	1.720535
C70	C	-0.880468	-1.670224	0.642376
C71	C	-0.547135	-1.336891	0.975709
C72	C	-0.213801	-1.003557	1.309042
C73	C	-0.921762	-1.740226	0.572514
C74	C	-0.588429	-1.406893	0.905848
C75	C	-0.255096	-1.073559	1.239181
C76	C	-1.016167	-1.733414	0.579416
C77	C	-0.682834	-1.400081	0.912749
C78	C	-0.349501	-1.066747	1.246083
C79	C	-0.786055	-1.677035	0.635476
C80	C	-0.452721	-1.343701	0.968809
C81	C	-0.119388	-1.010368	1.302142
C82	C	-0.184083	-1.721153	0.591644
C83	C	0.149250	-1.387820	0.924977
C84	C	0.482584	-1.054487	1.258311
C85	C	-0.091417	-1.727987	0.584915
C86	C	0.241916	-1.394653	0.918248
C87	C	0.575249	-1.061320	1.251582
C88	C	-0.401549	-2.018159	0.607452
C89	C	-0.068215	-1.684826	0.940786
C90	C	0.265118	-1.351492	1.274119
C91	C	-0.401554	-2.151558	0.607460
C92	C	-0.068221	-1.818225	0.940793
C93	C	0.265112	-1.484892	1.274126
C94	C	-0.401568	-1.705093	0.295613
C95	C	-0.068234	-1.371759	0.628946
C96	C	0.265099	-1.038426	0.962279
C97	C	-0.401372	-1.705300	0.162199
C98	C	-0.068039	-1.371967	0.495532
C99	C	0.265295	-1.038633	0.828866
H100	H	-0.916013	-1.605182	0.707363
H101	H	-0.582680	-1.271848	1.040697
H102	H	-0.249347	-0.938515	1.374030
H103	H	-0.886215	-1.805272	0.507520
H104	H	-0.552881	-1.471939	0.840853
H105	H	-0.219548	-1.138605	1.174187
