data_functionalizedCrystal
_audit_creation_method	'MofGen! by Chris Wilmer'
_symmetry_space_group_name_H-M	'P1'
_symmetry_Int_Tables_number	1
_symmetry_cell_setting	triclinic
loop_
_symmetry_equiv_pos_as_xyz
  x,y,z
_cell_length_a	14.519731
_cell_length_b	14.519709
_cell_length_c	9.198806
_cell_angle_alpha	89.995869
_cell_angle_beta	89.995963
_cell_angle_gamma	83.684499
loop_
_atom_site_label
_atom_site_type_symbol
_atom_site_fract_x
_atom_site_fract_y
_atom_site_fract_z
O1	O	1.223855	0.120983	-0.120899
O2	O	1.557188	0.454316	0.212435
O3	O	1.890522	0.787649	0.545768
O4	O	0.955381	0.135199	-0.120901
O5	O	1.288714	0.468532	0.212432
O6	O	1.622047	0.801865	0.545765
O7	O	1.096736	-0.006147	-0.120887
O8	O	1.430069	0.327186	0.212446
O9	O	1.763403	0.660520	0.545780
O10	O	1.082500	0.262329	-0.120913
O11	O	1.415833	0.595662	0.212420
O12	O	1.749166	0.928995	0.545753
O13	O	1.096725	-0.006147	0.120898
O14	O	1.430058	0.327186	0.454231
O15	O	1.763391	0.660519	0.787565
O16	O	0.955369	0.135198	0.120884
O17	O	1.288703	0.468532	0.454217
O18	O	1.622036	0.801865	0.787550
O19	O	1.223844	0.120982	0.120886
O20	O	1.557177	0.454316	0.454220
O21	O	1.890510	0.787649	0.787553
Cu22	Cu	1.089606	0.128090	0.142962
Cu23	Cu	1.422939	0.461424	0.476295
Cu24	Cu	1.756272	0.794757	0.809629
Cu25	Cu	1.089619	0.128091	-0.142977
Cu26	Cu	1.422952	0.461424	0.190356
Cu27	Cu	1.756285	0.794757	0.523690
O28	O	1.082488	0.262328	0.120872
O29	O	1.415822	0.595662	0.454205
O30	O	1.749155	0.928995	0.787539
C31	C	0.921016	0.134532	-0.000009
C32	C	1.254349	0.467866	0.333324
C33	C	1.587682	0.801199	0.666658
C34	C	0.818635	0.132536	-0.000010
C35	C	1.151969	0.465870	0.333324
C36	C	1.485302	0.799203	0.666657
C37	C	1.096067	-0.040507	0.000006
C38	C	1.429400	0.292826	0.333339
C39	C	1.762734	0.626160	0.666673
C40	C	1.094079	-0.142889	0.000007
C41	C	1.427412	0.190445	0.333340
C42	C	1.760745	0.523778	0.666673
C43	C	0.735491	0.130915	-0.000015
C44	C	1.068825	0.464248	0.333318
C45	C	1.402158	0.797581	0.666651
C46	C	0.631182	0.128888	-0.000016
C47	C	0.964516	0.462221	0.333318
C48	C	1.297849	0.795555	0.666651
C49	C	0.548043	0.127280	-0.000015
C50	C	0.881377	0.460613	0.333318
C51	C	1.214710	0.793946	0.666651
C52	C	0.443728	0.125253	-0.000018
C53	C	0.777061	0.458586	0.333315
C54	C	1.110395	0.791920	0.666648
C55	C	1.086759	-0.517785	-0.000031
C56	C	1.420093	-0.184452	0.333302
C57	C	1.753426	0.148882	0.666635
C58	C	1.088792	-0.413477	-0.000020
C59	C	1.422125	-0.080143	0.333313
C60	C	1.755459	0.253190	0.666646
C61	C	1.090419	-0.330340	-0.000011
C62	C	1.423752	0.002993	0.333322
C63	C	1.757085	0.336327	0.666656
C64	C	1.092452	-0.226025	-0.000003
C65	C	1.425785	0.107308	0.333331
C66	C	1.759118	0.440641	0.666664
C67	C	1.258209	0.121649	-0.000009
C68	C	1.591542	0.454982	0.333324
C69	C	1.924875	0.788315	0.666657
C70	C	1.360589	0.123645	-0.000018
C71	C	1.693922	0.456978	0.333315
C72	C	2.027256	0.790311	0.666648
C73	C	1.083157	0.296688	-0.000024
C74	C	1.416491	0.630022	0.333309
C75	C	1.749824	0.963355	0.666643
C76	C	1.085146	0.399070	-0.000034
C77	C	1.418479	0.732403	0.333299
C78	C	1.751812	1.065736	0.666632
N79	N	1.089603	0.128090	0.344076
N80	N	1.422936	0.461423	0.677409
N81	N	1.756270	0.794756	1.010743
N82	N	1.089629	0.128084	-0.344091
N83	N	1.422962	0.461418	-0.010758
N84	N	1.756295	0.794751	0.322576
C85	C	1.148956	0.068483	0.416279
C86	C	1.482289	0.401816	0.749612
C87	C	1.815622	0.735149	1.082946
C88	C	1.148970	0.068479	0.583691
C89	C	1.482303	0.401813	0.917025
C90	C	1.815637	0.735146	1.250358
H91	H	1.199757	0.017449	0.354158
H92	H	1.533090	0.350782	0.687491
H93	H	1.866423	0.684116	1.020825
H94	H	1.038815	0.179122	0.593827
H95	H	1.372148	0.512456	0.927160
H96	H	1.705482	0.845789	1.260494
H97	H	1.038796	0.179116	0.406199
H98	H	1.372129	0.512449	0.739532
H99	H	1.705462	0.845782	1.072865
F100	F	1.215395	0.001779	0.664846
F101	F	1.548728	0.335112	0.998179
F102	F	1.882062	0.668446	1.331513
