data_functionalizedCrystal
_audit_creation_method	'MofGen! by Chris Wilmer'
_symmetry_space_group_name_H-M	'P1'
_symmetry_Int_Tables_number	1
_symmetry_cell_setting	triclinic
loop_
_symmetry_equiv_pos_as_xyz
  x,y,z
_cell_length_a	21.295418
_cell_length_b	25.639239
_cell_length_c	21.295411
_cell_angle_alpha	90.019526
_cell_angle_beta	90.043738
_cell_angle_gamma	90.054499
loop_
_atom_site_label
_atom_site_type_symbol
_atom_site_fract_x
_atom_site_fract_y
_atom_site_fract_z
Zn1	Zn	0.962320	-0.207990	0.356243
Zn2	Zn	0.962207	-0.295410	0.250972
Zn3	Zn	0.857043	-0.208014	0.250953
Zn4	Zn	0.856998	-0.295420	0.356169
O5	O	0.909642	-0.251708	0.303584
O6	O	1.050395	-0.219572	0.342318
O7	O	0.948229	-0.283822	0.162880
O8	O	0.871075	-0.134846	0.264943
O9	O	1.050312	-0.283799	0.264976
O10	O	0.948421	-0.134828	0.342299
O11	O	0.870965	-0.219613	0.162866
O12	O	0.768948	-0.219623	0.264871
O13	O	0.870997	-0.283816	0.444268
O14	O	0.768914	-0.283840	0.342172
O15	O	0.948377	-0.219582	0.444322
O16	O	0.948185	-0.368576	0.264904
O17	O	0.870888	-0.368584	0.342191
C18	C	0.746090	-0.251736	0.303512
C19	C	0.676122	-0.251760	0.303496
C20	C	0.643255	-0.285242	0.343686
C21	C	0.577512	-0.285229	0.343715
C22	C	0.544640	-0.251740	0.303541
C23	C	0.577515	-0.218252	0.263347
C24	C	0.643257	-0.218262	0.263325
N25	N	0.441365	-0.247648	0.248483
N26	N	0.378913	-0.247641	0.248506
C27	C	0.346565	-0.251707	0.303608
N28	N	0.379028	-0.255789	0.358686
N29	N	0.441485	-0.255799	0.358662
C30	C	0.473354	-0.251725	0.303561
C31	C	0.242412	-0.285176	0.343832
C32	C	0.176668	-0.285160	0.343862
C33	C	0.176673	-0.218185	0.263489
C34	C	0.242415	-0.218199	0.263465
C35	C	0.275281	-0.251697	0.303636
C36	C	0.909536	-0.387551	0.303555
C37	C	0.909548	-0.445665	0.303564
C38	C	0.949996	-0.806011	0.263409
C39	C	0.950020	-0.860616	0.263418
O40	O	0.984300	-0.888838	0.229245
N41	N	0.909753	-0.887947	0.303626
C42	C	0.869463	-0.860672	0.343833
O43	O	0.835215	-0.888934	0.378034
C44	C	0.869442	-0.806069	0.343827
C45	C	0.909708	-0.778740	0.303612
C46	C	0.990259	-0.778683	0.223198
C47	C	0.990233	-0.724082	0.223188
C48	C	0.949945	-0.696810	0.263391
C49	C	0.909682	-0.724139	0.303603
C50	C	0.829156	-0.778794	0.384037
C51	C	0.829139	-0.724187	0.384028
C52	C	0.869404	-0.696858	0.343812
C53	C	0.869369	-0.642267	0.343796
N54	N	0.909636	-0.614935	0.303588
C55	C	0.949924	-0.642207	0.263385
C56	C	0.869510	-0.975343	0.343842
C57	C	0.869527	-1.029945	0.343845
C58	C	0.950086	-1.029885	0.263431
C59	C	0.950065	-0.975282	0.263425
C60	C	0.909778	-0.948011	0.303634
C61	C	0.949868	-0.527542	0.263369
C62	C	0.949837	-0.472937	0.263361
C63	C	0.869281	-0.473001	0.343778
C64	C	0.869309	-0.527602	0.343783
C65	C	0.909607	-0.554871	0.303577
O66	O	0.835108	-0.614010	0.377953
O67	O	0.984172	-0.613939	0.229195
C68	C	1.073832	-0.251681	0.303657
C69	C	1.143801	-0.251670	0.303688
C70	C	0.909694	-0.251697	0.467774
C71	C	0.909717	-0.251693	0.537743
C72	C	0.909766	-0.115335	0.303627
C73	C	0.909818	-0.057221	0.303645
C74	C	0.909626	-0.251682	0.140032
C75	C	0.909726	-0.251539	0.070065
C76	C	0.950007	-0.218244	0.570639
C77	C	0.950006	-0.218221	0.636381
C78	C	0.909721	-0.251657	0.669225
C79	C	0.869424	-0.285108	0.636321
C80	C	0.869421	-0.285126	0.570580
N81	N	0.904857	-0.297396	0.772441
N82	N	0.904863	-0.297377	0.834892
C83	C	0.909725	-0.251604	0.867300
N84	N	0.914594	-0.205848	0.834897
N85	N	0.914591	-0.205867	0.772440
C86	C	0.909719	-0.251641	0.740511
C87	C	0.950017	-0.218128	0.971482
C88	C	0.950011	-0.218104	1.037225
C89	C	0.869433	-0.284995	1.037164
C90	C	0.869435	-0.285014	0.971422
C91	C	0.909730	-0.251581	0.938584
H92	H	0.982684	-0.549738	0.230630
H93	H	0.670010	-0.312519	0.376398
H94	H	0.982853	-0.953034	0.230679
H95	H	0.550746	-0.312494	0.376445
H96	H	0.836698	-0.953141	0.376584
H97	H	0.982893	-1.052099	0.230698
H98	H	1.023023	-0.701834	0.190444
C99	C	1.034124	-0.808293	0.179671
C100	C	1.074483	-0.839553	0.215390
C101	C	1.114924	-0.866819	0.175320
H102	H	1.010183	-0.829684	0.152178
H103	H	1.058132	-0.784189	0.155760
H104	H	1.050478	-0.863654	0.239291
H105	H	1.098437	-0.818175	0.242882
H106	H	1.138932	-0.842715	0.151409
H107	H	1.090979	-0.888206	0.147829
H108	H	1.142316	-0.888028	0.199550
H109	H	0.670017	-0.190995	0.230596
C110	C	0.825781	-1.059518	0.387572
C111	C	0.790507	-1.023941	0.422785
C112	C	0.750209	-1.051162	0.463083
H113	H	0.798317	-1.080861	0.363534
H114	H	0.849841	-1.080770	0.415070
H115	H	0.766448	-1.002698	0.395291
H116	H	0.817954	-1.002597	0.446837
H117	H	0.774269	-1.072414	0.490581
H118	H	0.722749	-1.072504	0.439040
H119	H	0.726274	-1.027028	0.486984
H120	H	0.796364	-0.801036	0.416781
C121	C	0.825802	-0.321366	1.072844
C122	C	0.861419	-0.354870	1.110597
C123	C	0.821247	-0.388389	1.143470
H124	H	0.798377	-0.301429	1.098523
H125	H	0.801821	-0.341322	1.043851
H126	H	0.885389	-0.334916	1.139588
H127	H	0.888842	-0.374819	1.084934
H128	H	0.797266	-0.408345	1.114476
H129	H	0.793823	-0.368447	1.169145
H130	H	0.845407	-0.411128	1.169085
C131	C	0.825771	-0.321422	0.935736
C132	C	0.839442	-0.373147	0.951725
C133	C	0.799233	-0.406700	0.918859
H134	H	0.783461	-0.313842	0.946453
H135	H	0.831543	-0.316680	0.891873
H136	H	0.833665	-0.377886	0.995578
H137	H	0.881744	-0.380742	0.941006
H138	H	0.805005	-0.401958	0.874996
H139	H	0.756926	-0.399116	0.929578
H140	H	0.808507	-0.441799	0.929698
C141	C	0.277986	-0.321558	0.387521
C142	C	0.235127	-0.350864	0.422743
C143	C	0.267873	-0.384379	0.463002
H144	H	0.303576	-0.344362	0.363454
H145	H	0.303677	-0.301605	0.415015
H146	H	0.209447	-0.370816	0.395253
H147	H	0.209537	-0.328074	0.446822
H148	H	0.293564	-0.364426	0.490496
H149	H	0.293461	-0.407179	0.438930
H150	H	0.238799	-0.404264	0.486909
H151	H	0.550747	-0.190983	0.230639
H152	H	0.149909	-0.312424	0.376594
H153	H	0.149909	-0.190915	0.230781
H154	H	0.269176	-0.190937	0.230734
H155	H	0.982626	-0.450687	0.230611
C156	C	0.785329	-0.694674	0.427711
C157	C	0.750066	-0.730299	0.462917
C158	C	0.709697	-0.703132	0.503158
H159	H	0.809319	-0.673336	0.455220
H160	H	0.757866	-0.673423	0.403612
H161	H	0.777525	-0.751541	0.487014
H162	H	0.726063	-0.751639	0.435424
H163	H	0.682234	-0.681882	0.479059
H164	H	0.733692	-0.681795	0.530663
H165	H	0.685762	-0.727300	0.527046
C166	C	0.825568	-0.557182	0.387512
C167	C	0.790290	-0.521609	0.422727
C168	C	0.750000	-0.548835	0.463029
H169	H	0.798106	-0.578529	0.363477
H170	H	0.849634	-0.578430	0.415009
H171	H	0.766225	-0.500370	0.395234
H172	H	0.817735	-0.500261	0.446776
H173	H	0.774066	-0.570082	0.490525
H174	H	0.722542	-0.570180	0.438988
H175	H	0.726063	-0.524702	0.486931
C176	C	0.825611	-0.443291	0.387403
C177	C	0.834227	-0.389624	0.378797
C178	C	0.794019	-0.362237	0.418982
H179	H	0.783296	-0.452222	0.378184
H180	H	0.834817	-0.452182	0.429724
H181	H	0.825016	-0.380737	0.336485
H182	H	0.876533	-0.380677	0.388020
H183	H	0.803225	-0.371128	0.461304
H184	H	0.751706	-0.371173	0.409761
H185	H	0.799863	-0.325822	0.413153
C186	C	0.993650	-0.181843	0.672141
C187	C	0.958045	-0.148317	0.709849
C188	C	0.998229	-0.114795	0.742792
H189	H	1.021069	-0.201777	0.697856
H190	H	1.017637	-0.161904	0.643189
H191	H	0.934069	-0.168254	0.738798
H192	H	0.930628	-0.128371	0.684150
H193	H	1.022216	-0.094855	0.713840
H194	H	1.025646	-0.134733	0.768503
H195	H	0.974076	-0.092040	0.768376
C196	C	0.993650	-0.181716	1.072974
C197	C	0.958037	-0.148187	1.110671
C198	C	0.998214	-0.114653	1.143604
H199	H	1.021072	-0.201641	1.098695
H200	H	1.017633	-0.161779	1.044016
H201	H	0.934064	-0.168122	1.139626
H202	H	0.930616	-0.128251	1.084966
H203	H	1.022197	-0.094716	1.114647
H204	H	1.025634	-0.134582	1.169322
H205	H	0.974056	-0.091896	1.169182
C206	C	0.993773	-0.181885	0.535101
C207	C	1.029046	-0.152577	0.577987
C208	C	1.069363	-0.119072	0.545272
H209	H	1.021238	-0.201828	0.509471
H210	H	0.969726	-0.159086	0.509453
H211	H	1.053091	-0.175373	0.603624
H212	H	1.001598	-0.132623	0.603618
H213	H	1.045316	-0.096272	0.519624
H214	H	1.096823	-0.139019	0.519643
H215	H	1.093296	-0.099179	0.574364
H216	H	0.836622	-0.312329	0.663067
H217	H	0.836609	-0.312363	0.543796
H218	H	0.982824	-0.190902	0.944744
