data_functionalizedCrystal
_audit_creation_method	'MofGen! by Chris Wilmer'
_symmetry_space_group_name_H-M	'P1'
_symmetry_Int_Tables_number	1
_symmetry_cell_setting	triclinic
loop_
_symmetry_equiv_pos_as_xyz
  x,y,z
_cell_length_a	17.699083
_cell_length_b	14.750779
_cell_length_c	17.699092
_cell_angle_alpha	102.615064
_cell_angle_beta	83.284691
_cell_angle_gamma	77.378405
loop_
_atom_site_label
_atom_site_type_symbol
_atom_site_fract_x
_atom_site_fract_y
_atom_site_fract_z
O1	O	0.987647	0.079690	0.112134
O2	O	0.767263	0.079721	0.124593
O3	O	0.883679	0.079702	0.008174
O4	O	0.871232	0.079708	0.228553
O5	O	0.916588	-0.079954	-0.024733
O6	O	0.800172	-0.079935	0.091686
O7	O	1.020557	-0.079966	0.079227
Zn8	Zn	0.915590	-0.105299	0.080232
Zn9	Zn	0.872230	0.105054	0.123588
O10	O	0.904141	-0.079947	0.195646
C11	C	0.755520	-0.000103	0.107694
C12	C	0.671499	-0.000091	0.106358
N13	N	0.945187	-0.248860	0.050642
C14	C	0.622880	-0.000090	0.174691
C15	C	0.543939	-0.000102	0.173426
C16	C	0.513618	-0.000109	0.103829
C17	C	0.562244	-0.000114	0.035489
C18	C	0.641185	-0.000108	0.036754
C19	C	0.243886	-0.000138	0.030389
C20	C	0.164938	-0.000140	0.029131
C21	C	0.146640	-0.000132	0.167062
C22	C	0.225581	-0.000126	0.168326
C23	C	0.274201	-0.000136	0.099986
C24	C	0.359798	-0.000124	0.101358
C25	C	0.428021	-0.000114	0.102458
C26	C	0.759978	-0.600648	0.235778
C27	C	0.780724	-0.701151	0.215048
C28	C	0.883831	-0.701130	0.111997
C29	C	0.863092	-0.600625	0.132716
C30	C	0.801165	-0.550393	0.194607
C31	C	0.904279	-0.550370	0.091545
C32	C	0.883544	-0.449874	0.112265
C33	C	0.821621	-0.399634	0.174155
C34	C	0.780430	-0.449897	0.215327
C35	C	0.966209	-0.600604	0.029658
C36	C	1.007396	-0.550349	-0.011513
C37	C	0.986657	-0.449851	0.009203
C38	C	0.924735	-0.399611	0.071093
C39	C	1.027848	-0.399588	-0.031969
C40	C	1.007113	-0.299093	-0.011249
C41	C	0.904000	-0.299115	0.091813
C42	C	1.032300	-0.000140	0.096126
C43	C	1.116319	-0.000146	0.097464
C44	C	0.899686	-0.000124	-0.036476
C45	C	0.898344	-0.000120	-0.120493
N46	N	0.842639	0.248614	0.153172
C47	C	0.879777	0.086910	-0.142023
C48	C	0.878512	0.086911	-0.220965
C49	C	0.895819	-0.000118	-0.278378
C50	C	0.914386	-0.087154	-0.256843
C51	C	0.915646	-0.087154	-0.177901
C52	C	0.909306	-0.087155	-0.575209
C53	C	0.908047	-0.087148	-0.654155
C54	C	0.872172	0.086911	-0.618273
C55	C	0.873431	0.086910	-0.539330
C56	C	0.891994	-0.000125	-0.517802
C57	C	0.893364	-0.000125	-0.432203
C58	C	0.894455	-0.000119	-0.363976
C59	C	0.888133	-0.000119	0.240296
C60	C	0.889474	-0.000117	0.324314
H61	H	0.647561	-0.000083	0.231366
H62	H	0.729998	-0.408995	0.265720
C63	C	1.095968	-0.454858	-0.100045
N64	N	1.147277	-0.496487	-0.151322
C65	C	1.075511	-0.605616	-0.079595
N66	N	1.126814	-0.647243	-0.130877
H67	H	0.709546	-0.559747	0.286171
H68	H	0.283463	-0.000146	-0.025258
H69	H	0.928474	-0.158015	-0.303595
C70	C	0.858156	0.182650	-0.244652
N71	N	0.842847	0.254766	-0.262495
H72	H	0.537553	-0.000133	-0.021181
C73	C	0.131590	-0.000160	-0.047438
N74	N	0.106472	-0.000177	-0.105107
H75	H	0.504356	-0.000100	0.229071
C76	C	0.258931	-0.000124	0.244888
N77	N	0.284050	-0.000129	0.302554
C78	C	0.854391	0.182649	-0.476180
N79	N	0.840046	0.254762	-0.428615
C80	C	0.851743	0.182653	-0.641959
N81	N	0.836357	0.254764	-0.659798
C82	C	1.052419	-0.243808	-0.056541
N83	N	1.086546	-0.202168	-0.090655
C84	C	0.860736	0.182650	-0.078874
N85	N	0.846391	0.254765	-0.031312
C86	C	0.735407	-0.756429	0.260343
N87	N	0.701276	-0.798064	0.294459
H88	H	0.934254	-0.742041	0.061607
C89	C	0.093153	-0.000134	0.242236
N90	N	0.052868	-0.000135	0.298855
H91	H	0.680770	-0.000109	-0.018890
C92	C	0.989016	-0.711153	0.006867
N93	N	1.006193	-0.794419	-0.010300
C94	C	0.835847	-0.243854	0.159866
N95	N	0.784507	-0.202230	0.211113
C96	C	0.927080	-0.182891	-0.717309
N97	N	0.941414	-0.255002	-0.764875
C98	C	0.929728	-0.182897	-0.551539
N99	N	0.945112	-0.255014	-0.533710
H100	H	0.804742	-0.317804	0.191027
C101	C	0.936073	-0.182894	-0.154221
N102	N	0.951458	-0.255008	-0.136386
