data_functionalizedCrystal
_audit_creation_method	'MofGen! by Chris Wilmer'
_symmetry_space_group_name_H-M	'P1'
_symmetry_Int_Tables_number	1
_symmetry_cell_setting	triclinic
loop_
_symmetry_equiv_pos_as_xyz
  x,y,z
_cell_length_a	27.732048
_cell_length_b	10.723024
_cell_length_c	9.198806
_cell_angle_alpha	89.996339
_cell_angle_beta	90.008385
_cell_angle_gamma	96.444738
loop_
_atom_site_label
_atom_site_type_symbol
_atom_site_fract_x
_atom_site_fract_y
_atom_site_fract_z
O1	O	0.067789	-1.654382	0.120901
O2	O	0.074278	-1.290961	0.120907
O3	O	0.000707	-1.483959	0.120876
O4	O	0.141360	-1.461385	0.120932
O5	O	0.000706	-1.483944	-0.120909
O6	O	0.074277	-1.290946	-0.120878
O7	O	0.067789	-1.654367	-0.120884
Cu8	Cu	0.071033	-1.472655	-0.142958
Cu9	Cu	0.071034	-1.472673	0.142981
O10	O	0.141360	-1.461370	-0.120853
C11	C	0.073806	-1.244474	0.000015
C12	C	0.072393	-1.105978	0.000017
C13	C	-0.017303	-1.483478	-0.000020
C14	C	-0.070967	-1.482051	-0.000032
N15	N	0.071032	-1.472652	-0.344072
C16	C	-0.409130	-1.587117	0.000040
C17	C	-0.610822	-1.581823	0.000061
O18	O	-0.641481	-1.677898	0.000123
N19	N	-0.630656	-1.467383	0.000061
C20	C	-0.600064	-1.354259	0.000067
O21	O	-0.621562	-1.256800	0.000083
C22	C	-0.398373	-1.359554	0.000057
C23	C	-0.378541	-1.474001	0.000041
C24	C	-0.389298	-1.701554	0.000026
C25	C	-0.338877	-1.702877	0.000013
C26	C	-0.308289	-1.589761	0.000014
C27	C	-0.328121	-1.475324	0.000028
C28	C	-0.367781	-1.246432	0.000072
C29	C	-0.317356	-1.247766	0.000073
C30	C	-0.297524	-1.362213	0.000058
C31	C	-0.247113	-1.363531	0.000016
N32	N	-0.227278	-1.477970	0.000015
C33	C	-0.257867	-1.591085	0.000014
C34	C	-0.705956	-1.351487	0.000069
C35	C	-0.756378	-1.350163	0.000069
C36	C	-0.767133	-1.577727	0.000066
C37	C	-0.716709	-1.579050	0.000055
C38	C	-0.686121	-1.465926	0.000068
C39	C	-0.151980	-1.593854	-0.000014
C40	C	-0.101555	-1.595166	-0.000033
C41	C	-0.090805	-1.367603	-0.000022
C42	C	-0.141226	-1.366290	-0.000011
C43	C	-0.171813	-1.479425	-0.000002
O44	O	-0.216425	-1.267507	-0.000030
O45	O	-0.236359	-1.688531	0.000031
C46	C	-0.459550	-1.585794	0.000053
C47	C	-0.479382	-1.471357	0.000067
C48	C	-0.448793	-1.358241	0.000068
C49	C	-0.529804	-1.470033	0.000067
C50	C	-0.560392	-1.583148	0.000066
C51	C	-0.540558	-1.697587	0.000066
C52	C	-0.490138	-1.698910	0.000053
C53	C	-0.468628	-1.243802	0.000069
C54	C	-0.519048	-1.242489	0.000080
C55	C	-0.549637	-1.355604	0.000079
C56	C	0.159370	-1.461851	0.000047
C57	C	0.213034	-1.463278	0.000068
C58	C	0.068261	-1.700855	0.000011
C59	C	0.069674	-1.839351	0.000019
C60	C	0.113559	-1.029292	0.000034
C61	C	0.112100	-0.886149	0.000035
C62	C	0.099059	-1.544257	-0.416260
C63	C	0.099058	-1.544276	-0.583672
N64	N	0.071031	-1.472687	0.344095
H65	H	-0.085411	-1.688366	-0.000050
H66	H	-0.176879	-1.685980	-0.000001
C67	C	0.038589	-1.389924	-0.572052
N68	N	0.014145	-1.327610	-0.508883
H69	H	0.147342	-0.820258	0.000056
H70	H	-0.414198	-1.793672	0.000031
H71	H	0.047036	-1.411366	-0.406210
H72	H	0.123051	-1.605551	-0.354122
H73	H	0.034430	-0.905234	0.000013
C74	C	0.162634	-1.083754	0.000047
N75	N	0.199598	-1.124773	0.000058
H76	H	-0.322736	-1.796071	0.000007
C77	C	-0.694899	-1.704949	0.000051
N78	N	-0.678475	-1.799781	0.000053
H79	H	-0.792046	-1.669830	0.000064
H80	H	0.123055	-1.605573	-0.645752
C81	C	-0.672315	-1.227034	0.000082
N82	N	-0.646978	-1.133294	0.000088
C83	C	-0.389584	-1.120529	0.000099
N84	N	-0.406005	-1.025691	0.000125
H85	H	0.036068	-1.065659	0.000039
H86	H	-0.292453	-1.155645	0.000086
C87	C	-0.163041	-1.240393	-0.000003
N88	N	-0.179469	-1.145565	0.000018
C89	C	-0.057149	-1.243182	-0.000011
N90	N	-0.031797	-1.149467	0.000011
H91	H	-0.772520	-1.256969	0.000056
C92	C	-0.468330	-1.824811	0.000045
N93	N	-0.451909	-1.919647	0.000043
C94	C	-0.540856	-1.116579	0.000096
N95	N	-0.557280	-1.021746	0.000121
C96	C	-0.574215	-1.822015	0.000067
N97	N	-0.599567	-1.915727	0.000077
H98	H	-0.443727	-1.151687	0.000073
