data_functionalizedCrystal
_audit_creation_method	'MofGen! by Chris Wilmer'
_symmetry_space_group_name_H-M	'P1'
_symmetry_Int_Tables_number	1
_symmetry_cell_setting	triclinic
loop_
_symmetry_equiv_pos_as_xyz
  x,y,z
_cell_length_a	22.610064
_cell_length_b	10.723024
_cell_length_c	10.723024
_cell_angle_alpha	84.467869
_cell_angle_beta	90.005286
_cell_angle_gamma	89.991998
loop_
_atom_site_label
_atom_site_type_symbol
_atom_site_fract_x
_atom_site_fract_y
_atom_site_fract_z
O1	O	0.049179	-1.657197	-0.175010
O2	O	0.049181	-1.294045	-0.191764
O3	O	0.049178	-1.483997	-0.001811
O4	O	0.049182	-1.467244	-0.364963
O5	O	-0.049191	-1.483964	-0.001839
O6	O	-0.049188	-1.294011	-0.191791
O7	O	-0.049190	-1.657163	-0.175038
Zn8	Zn	-0.064807	-1.475582	-0.183419
Zn9	Zn	0.064798	-1.475626	-0.183383
O10	O	-0.049187	-1.467211	-0.364991
C11	C	-0.000003	-1.247528	-0.190558
C12	C	-0.000003	-1.108974	-0.186911
C13	C	-0.000006	-1.482762	0.044675
C14	C	-0.000004	-1.479114	0.183229
N15	N	-0.153260	-1.475561	-0.183443
C16	C	-0.561903	-1.559741	-0.099285
C17	C	-0.623823	-1.559747	-0.099276
O18	O	-0.655842	-1.631268	-0.027739
N19	N	-0.654797	-1.475625	-0.183357
C20	C	-0.623848	-1.391482	-0.267444
O21	O	-0.655880	-1.319929	-0.338960
C22	C	-0.561930	-1.391471	-0.267446
C23	C	-0.530958	-1.475607	-0.183368
C24	C	-0.530931	-1.643870	-0.015212
C25	C	-0.469016	-1.643865	-0.015223
C26	C	-0.438071	-1.559731	-0.099306
C27	C	-0.469043	-1.475602	-0.183379
C28	C	-0.530982	-1.307323	-0.351526
C29	C	-0.469059	-1.307318	-0.351520
C30	C	-0.438088	-1.391455	-0.267442
C31	C	-0.376183	-1.391463	-0.267473
N32	N	-0.345208	-1.475586	-0.183391
C33	C	-0.376153	-1.559720	-0.099308
C34	C	-0.753882	-1.391511	-0.267432
C35	C	-0.815800	-1.391527	-0.267437
C36	C	-0.815770	-1.559791	-0.099267
C37	C	-0.753851	-1.559780	-0.099269
C38	C	-0.722907	-1.475633	-0.183351
C39	C	-0.246125	-1.559704	-0.099338
C40	C	-0.184204	-1.559695	-0.099360
C41	C	-0.184240	-1.391427	-0.267525
C42	C	-0.246155	-1.391439	-0.267508
C43	C	-0.277097	-1.475583	-0.183405
O44	O	-0.344123	-1.319976	-0.338969
O45	O	-0.344113	-1.631250	-0.027793
N46	N	0.153251	-1.475657	-0.183349
C47	C	-0.000004	-1.703680	-0.176243
C48	C	-0.000001	-1.842234	-0.179891
C49	C	-0.000001	-1.033991	-0.293198
C50	C	-0.000000	-0.890788	-0.289431
C51	C	-0.000002	-1.468447	-0.411477
C52	C	0.000000	-1.472094	-0.550031
C53	C	-0.000004	-1.585401	0.258212
C54	C	-0.000002	-1.581634	0.401415
H55	H	-0.158989	-1.628213	-0.030894
H56	H	-0.000004	-1.381099	0.385544
O57	O	-0.276084	-1.641558	-0.017594
C58	C	-0.235460	-1.715778	0.056621
H59	H	-0.191329	-1.717608	0.005423
H60	H	-0.228868	-1.674469	0.149693
C61	C	-0.313807	-1.847935	0.144006
C62	C	-0.259606	-1.850191	0.081119
H63	H	-0.328702	-1.930846	0.159123
H64	H	-0.341177	-1.797929	0.094010
H65	H	-0.308306	-1.813504	0.221559
H66	H	-0.265109	-1.884607	0.003562
H67	H	-0.232238	-1.900206	0.131103
H68	H	-0.728638	-1.628290	-0.030804
O69	O	0.000103	-1.083934	-0.405058
C70	C	0.051040	-1.158474	-0.413712
H71	H	0.086650	-1.127054	-0.348282
H72	H	0.039519	-1.260844	-0.385670
C73	C	0.030404	-1.182645	-0.629793
C74	C	0.074142	-1.144048	-0.549438
H75	H	0.044653	-1.173752	-0.713515
H76	H	-0.003915	-1.132430	-0.623962
H77	H	0.020807	-1.267950	-0.606409
H78	H	0.083733	-1.058740	-0.572812
H79	H	0.108463	-1.194248	-0.555275
O80	O	0.000102	-1.697323	0.208388
C81	C	0.051041	-1.765640	0.248608
H82	H	0.086649	-1.698310	0.276365
H83	H	0.039523	-1.834558	0.332757
C84	C	0.030410	-1.920816	0.107282
C85	C	0.074146	-1.838119	0.141364
H86	H	0.044661	-1.965529	0.041132
H87	H	-0.003910	-1.874793	0.080188
H88	H	0.020816	-1.978236	0.177416
H89	H	0.083734	-1.780691	0.071235
H90	H	0.108468	-1.884134	0.168444
H91	H	-0.841012	-1.323029	-0.335914
H92	H	-0.443803	-1.712373	0.053244
H93	H	0.000011	-1.067152	-0.093125
O94	O	0.000076	-0.919212	-0.071412
C95	C	0.051031	-0.995337	-0.066666
H96	H	0.068017	-1.002648	-0.165790
H97	H	0.086704	-0.952114	-0.009234
C98	C	0.014692	-1.118025	0.116583
C99	C	0.035552	-1.127013	-0.005164
H100	H	0.005146	-1.199247	0.154526
H101	H	-0.019636	-1.066735	0.113390
H102	H	0.044423	-1.082000	0.164427
H103	H	0.005818	-1.163022	-0.053010
H104	H	0.069875	-1.178312	-0.001977
H105	H	-0.000004	-1.672624	0.465848
H106	H	0.000000	-1.385328	0.225051
H107	H	-0.840976	-1.628296	-0.030800
O108	O	-0.560893	-1.725728	0.066516
C109	C	-0.520267	-1.799945	0.140730
H110	H	-0.476134	-1.801757	0.089538
H111	H	-0.513681	-1.758644	0.233808
C112	C	-0.598609	-1.932131	0.228089
C113	C	-0.544405	-1.934366	0.165209
H114	H	-0.613499	-2.015047	0.243195
H115	H	-0.625980	-1.882128	0.178094
H116	H	-0.593113	-1.897708	0.305647
H117	H	-0.549903	-1.968773	0.087646
H118	H	-0.517036	-1.984378	0.215193
H119	H	-0.556190	-1.238811	-0.419989
O120	O	-0.723918	-1.309732	-0.349248
C121	C	-0.764540	-1.235475	-0.423431
H122	H	-0.808671	-1.286664	-0.425291
H123	H	-0.771134	-1.142431	-0.382067
C124	C	-0.686190	-1.148028	-0.555545
C125	C	-0.740391	-1.210904	-0.557838
H126	H	-0.671294	-1.132866	-0.638452
H127	H	-0.658822	-1.198052	-0.505564
H128	H	-0.691692	-1.070498	-0.521069
H129	H	-0.734887	-1.288439	-0.592298
H130	H	-0.767759	-1.160892	-0.607827
O131	O	-0.439093	-1.225532	-0.433324
C132	C	-0.479712	-1.151261	-0.507501
H133	H	-0.523845	-1.202442	-0.509369
H134	H	-0.486303	-1.058221	-0.466127
C135	C	-0.401359	-1.063815	-0.639604
C136	C	-0.455562	-1.126681	-0.641906
H137	H	-0.386461	-1.048647	-0.722509
H138	H	-0.373992	-1.113849	-0.589627
H139	H	-0.406858	-0.986288	-0.605119
H140	H	-0.450060	-1.204212	-0.676375
H141	H	-0.482927	-1.076660	-0.691892
H142	H	-0.271373	-1.322940	-0.335985
H143	H	-0.159035	-1.322929	-0.335989
H144	H	0.000004	-0.826355	-0.380421
