data_functionalizedCrystal
_audit_creation_method	'MofGen! by Chris Wilmer'
_symmetry_space_group_name_H-M	'P1'
_symmetry_Int_Tables_number	1
_symmetry_cell_setting	triclinic
loop_
_symmetry_equiv_pos_as_xyz
  x,y,z
_cell_length_a	11.792241
_cell_length_b	10.654558
_cell_length_c	9.130313
_cell_angle_alpha	90.000369
_cell_angle_beta	89.996286
_cell_angle_gamma	95.659134
loop_
_atom_site_label
_atom_site_type_symbol
_atom_site_fract_x
_atom_site_fract_y
_atom_site_fract_z
O1	O	-0.159460	1.667377	-0.121761
O2	O	-0.174638	1.301857	-0.121767
O3	O	-0.001899	1.493487	-0.121773
O4	O	-0.332199	1.475747	-0.121755
O5	O	-0.001904	1.493485	0.121826
O6	O	-0.174643	1.301854	0.121832
O7	O	-0.159464	1.667375	0.121838
Cu8	Cu	-0.167054	1.484614	0.144077
Cu9	Cu	-0.167049	1.484617	-0.144007
O10	O	-0.332204	1.475744	0.121843
C11	C	-0.173524	1.255061	0.000032
C12	C	-0.170184	1.115628	0.000029
C13	C	-0.165486	0.919104	-0.132758
C14	C	-0.168614	1.050118	-0.132759
C15	C	-0.168613	1.050119	0.132826
C16	C	-0.165477	0.919109	0.132826
C17	C	-0.163928	0.853599	-0.265554
C18	C	-0.165496	0.919099	-0.398352
C19	C	-0.168625	1.050113	-0.398353
C20	C	-0.170185	1.115626	-0.265556
C21	C	-0.374495	1.476860	0.000046
C22	C	-0.500516	1.480195	0.000053
C23	C	-0.731243	1.486329	0.000016
C24	C	-0.602850	1.482921	0.000036
C25	C	0.040392	1.492372	0.000021
C26	C	0.166413	1.489036	0.000005
C27	C	-0.160579	1.714170	0.000036
C28	C	-0.163919	1.853604	0.000029
N29	N	-0.167057	1.484621	0.346700
N30	N	-0.167036	1.484620	-0.346629
C31	C	-0.090595	1.569497	0.423349
C32	C	-0.090581	1.569494	0.576686
C33	C	-0.243503	1.399735	0.576711
C34	C	-0.243510	1.399733	0.423377
C35	C	-0.014142	1.654385	0.346673
C36	C	0.062326	1.739269	0.423322
C37	C	0.062340	1.739265	0.576659
C38	C	-0.014115	1.654379	0.653346
H39	H	-0.172726	1.222308	-0.265568
H40	H	0.124579	1.808374	0.360876
H41	H	-0.014090	1.654375	0.778204
H42	H	-0.164218	0.865750	-0.506470
H43	H	-0.305772	1.330619	0.360968
H44	H	-0.169886	1.103470	0.240943
H45	H	-0.014148	1.654398	0.221818
H46	H	0.124610	1.808372	0.639066
H47	H	-0.305750	1.330625	0.639159
H48	H	-0.161384	0.746920	-0.265568
H49	H	-0.169891	1.103441	-0.506483
H50	H	-0.164222	0.865774	0.240953
