data_functionalizedCrystal
_audit_creation_method	'MofGen! by Chris Wilmer'
_symmetry_space_group_name_H-M	'P1'
_symmetry_Int_Tables_number	1
_symmetry_cell_setting	triclinic
loop_
_symmetry_equiv_pos_as_xyz
  x,y,z
_cell_length_a	10.540539
_cell_length_b	19.288865
_cell_length_c	17.766277
_cell_angle_alpha	90.011603
_cell_angle_beta	90.007287
_cell_angle_gamma	83.830870
loop_
_atom_site_label
_atom_site_type_symbol
_atom_site_fract_x
_atom_site_fract_y
_atom_site_fract_z
O1	O	-1.683715	-0.097883	-0.062568
O2	O	-1.314096	-0.107106	-0.062579
O3	O	-1.509585	-0.001436	-0.062558
O4	O	-1.488225	-0.203554	-0.062589
O5	O	-1.509551	-0.001430	0.062630
O6	O	-1.314062	-0.107100	0.062610
O7	O	-1.683680	-0.097878	0.062620
Cu8	Cu	-1.498868	-0.102489	0.074046
Cu9	Cu	-1.498908	-0.102495	-0.074004
O10	O	-1.488191	-0.203548	0.062600
C11	C	-1.266791	-0.106411	0.000014
C12	C	-1.125889	-0.104342	0.000011
C13	C	-1.508881	0.024448	0.000038
C14	C	-1.506818	0.101566	0.000045
C15	C	-1.730985	-0.098572	0.000025
C16	C	-1.871887	-0.100641	0.000023
C17	C	-0.944230	-0.025053	0.000315
C18	C	-1.090801	-0.027151	0.000025
C19	C	-1.063408	-0.141493	-0.071480
C20	C	-0.916923	-0.138859	-0.071532
C21	C	-0.916360	-0.140423	0.070830
C22	C	-1.063326	-0.141134	0.071767
C23	C	-1.488895	-0.229432	0.000002
C24	C	-1.490958	-0.306549	-0.000010
N25	N	-1.498849	-0.102483	0.178176
C26	C	-1.621522	0.145496	0.000052
C27	C	-1.619584	0.217956	0.000040
C28	C	-1.502935	0.246482	0.000036
C29	C	-1.388215	0.202542	0.000025
C30	C	-1.390157	0.130083	0.000029
C31	C	-1.411223	0.355384	0.043884
C32	C	-1.409286	0.427841	0.043884
C33	C	-1.496941	0.469968	0.000019
C34	C	-1.586555	0.439630	-0.043837
C35	C	-1.588497	0.367172	-0.043833
C36	C	-1.500816	0.325051	0.000031
C37	C	-1.609552	0.592469	0.000012
C38	C	-1.607609	0.664930	-0.000005
C39	C	-1.376237	0.649513	-0.000012
C40	C	-1.378183	0.577054	-0.000003
C41	C	-1.494844	0.548536	0.000012
N42	N	-1.498938	-0.102495	-0.178135
C43	C	-1.585439	-0.055716	0.217572
C44	C	-1.585447	-0.055713	0.296374
C45	C	-1.498875	-0.102489	0.335777
C46	C	-1.412269	-0.149260	0.296371
C47	C	-1.412255	-0.149257	0.217571
C48	C	-1.481882	-0.165663	0.460605
C49	C	-1.481905	-0.165667	0.539404
C50	C	-1.498909	-0.102498	0.578823
C51	C	-1.515919	-0.039322	0.539434
C52	C	-1.515905	-0.039319	0.460633
C53	C	-1.498880	-0.102497	0.421222
C54	C	-1.585513	-0.055723	0.703665
C55	C	-1.585511	-0.055719	0.782468
C56	C	-1.412339	-0.149272	0.782464
C57	C	-1.412335	-0.149270	0.703662
C58	C	-1.498928	-0.102496	0.664267
H59	H	-1.134052	0.002081	0.051274
H60	H	-1.086297	-0.197411	0.076075
H61	H	-1.341846	-0.187356	0.814545
H62	H	-1.296748	0.094314	0.000024
H63	H	-1.655961	-0.017628	0.328456
H64	H	-1.133216	0.002282	-0.051303
Br65	Br	-1.294818	-0.212745	0.650190
Br66	Br	-0.835580	-0.233351	0.071622
H67	H	-1.656019	-0.017635	0.671588
Br68	Br	-1.763293	0.724553	-0.000004
Br69	Br	-1.539014	0.046414	0.592921
Br70	Br	-0.864692	-0.098780	0.161152
H71	H	-0.889339	-0.111406	-0.124964
H72	H	-1.468063	-0.217109	0.571468
Br73	Br	-1.710103	0.325999	-0.103352
Br74	Br	-1.458930	-0.251404	0.407115
Br75	Br	-1.294768	-0.212738	0.349843
H76	H	-1.704544	0.569249	0.000021
H77	H	-1.341741	-0.187342	0.185494
H78	H	-0.916310	0.005444	0.051587
Br79	Br	-0.834903	-0.231384	-0.076954
H80	H	-1.084499	-0.198181	-0.074149
H81	H	-0.914713	0.005310	-0.050661
H82	H	-1.106586	-0.115690	-0.124678
Br83	Br	-1.132406	-0.095820	0.159920
Br84	Br	-1.292251	0.298218	0.103422
Br85	Br	-1.222504	0.517429	-0.000012
H86	H	-1.716517	0.122282	0.000062
H87	H	-1.712993	0.253732	0.000042
Br88	Br	-1.217924	0.688219	-0.000025
Br89	Br	-1.703025	0.007762	0.835938
H90	H	-1.336312	0.452536	0.079590
Br91	Br	-1.229904	0.241253	0.000010
Br92	Br	-1.705527	0.496793	-0.103373
Br93	Br	-1.702951	0.007763	0.164107
H94	H	-1.529751	0.012121	0.428566
