data_functionalizedCrystal
_audit_creation_method	'MofGen! by Chris Wilmer'
_symmetry_space_group_name_H-M	'P1'
_symmetry_Int_Tables_number	1
_symmetry_cell_setting	triclinic
loop_
_symmetry_equiv_pos_as_xyz
  x,y,z
_cell_length_a	12.645331
_cell_length_b	18.101395
_cell_length_c	12.645323
_cell_angle_alpha	89.971733
_cell_angle_beta	89.977178
_cell_angle_gamma	90.031318
loop_
_atom_site_label
_atom_site_type_symbol
_atom_site_fract_x
_atom_site_fract_y
_atom_site_fract_z
Zn1	Zn	1.620632	-0.294820	-0.599425
Zn2	Zn	1.620473	-0.418670	-0.422155
Zn3	Zn	1.443347	-0.294847	-0.422169
Zn4	Zn	1.443287	-0.418624	-0.599370
O5	O	1.531935	-0.356740	-0.510780
O6	O	1.768959	-0.311256	-0.575927
O7	O	1.596935	-0.402275	-0.273809
O8	O	1.466956	-0.191211	-0.445712
O9	O	1.768841	-0.402248	-0.445687
O10	O	1.597207	-0.191190	-0.575941
O11	O	1.466801	-0.311303	-0.273820
O12	O	1.294992	-0.311259	-0.445658
O13	O	1.466854	-0.402171	-0.747725
O14	O	1.294948	-0.402197	-0.575847
O15	O	1.597149	-0.311212	-0.747765
O16	O	1.596877	-0.522297	-0.445634
O17	O	1.466699	-0.522263	-0.575833
C18	C	1.256505	-0.356727	-0.510749
C19	C	1.138675	-0.356739	-0.510760
C20	C	1.093785	-0.299440	-0.428992
C21	C	0.971226	-0.299229	-0.429272
C22	C	0.970853	-0.335926	-0.622670
C23	C	1.093451	-0.335498	-0.622159
C24	C	1.093434	-0.435021	-0.481675
C25	C	0.970826	-0.434612	-0.479249
C26	C	1.531793	-0.549151	-0.510749
C27	C	1.531829	-0.631465	-0.510771
C28	C	1.532062	-0.930556	-0.510828
C29	C	1.450348	-0.899240	-0.592949
C30	C	1.449960	-0.813622	-0.592692
C31	C	1.531946	-0.782173	-0.510800
C32	C	1.501694	-0.813326	-0.399075
C33	C	1.501167	-0.898971	-0.399566
C34	C	1.644207	-0.898899	-0.539449
C35	C	1.643548	-0.813248	-0.541899
C36	C	1.531883	-0.698314	-0.510778
C37	C	1.532123	-1.014415	-0.510843
C38	C	1.808440	-0.356754	-0.510812
C39	C	1.926270	-0.356760	-0.510826
C40	C	1.532013	-0.356683	-0.787285
C41	C	1.532046	-0.356659	-0.905115
C42	C	1.532106	-0.163578	-0.510834
C43	C	1.532179	-0.081264	-0.510858
C44	C	1.449825	-0.413611	-1.072654
C45	C	1.450040	-0.413893	-0.950094
C46	C	1.643739	-0.377838	-0.949634
C47	C	1.643288	-0.378195	-1.072232
C48	C	1.503631	-0.278208	-1.072320
C49	C	1.501139	-0.278678	-0.949713
C50	C	1.531918	-0.356744	-0.235350
C51	C	1.532090	-0.356560	-0.117521
H52	H	1.124631	-0.241763	-0.448055
N53	N	1.727240	-0.325557	-1.111558
H54	H	1.798727	-0.341901	-1.084744
H55	H	1.727509	-0.325403	-1.191425
N56	N	1.339786	-0.396230	-1.111695
H57	H	1.288232	-0.433491	-1.081989
H58	H	1.319050	-0.345022	-1.087766
H59	H	1.556682	-0.233924	-0.919096
N60	N	0.932205	-0.455431	-0.370224
H61	H	0.889906	-0.502684	-0.374424
H62	H	0.994833	-0.462908	-0.321856
N63	N	1.474480	-0.490079	-1.113430
H64	H	1.538703	-0.487924	-1.160844
H65	H	1.489109	-0.524067	-1.051793
H66	H	1.468825	-0.471979	-0.920775
H67	H	1.367216	-0.400639	-0.919993
H68	H	1.668278	-0.434515	-0.918940
H69	H	1.423605	-0.258902	-1.103225
H70	H	1.706675	-0.337599	-0.920502
H71	H	1.559338	-0.792956	-0.336220
H72	H	1.420584	-0.791942	-0.374395
N73	N	1.673773	-0.786257	-0.650804
H74	H	1.741367	-0.756676	-0.646324
H75	H	1.684718	-0.830005	-0.699117
N76	N	1.392266	-0.257511	-0.911170
H77	H	1.363077	-0.298259	-0.865010
H78	H	1.396921	-0.210281	-0.868936
N79	N	1.675244	-0.454062	-1.110135
H80	H	1.689489	-0.486959	-1.047203
H81	H	1.616272	-0.475912	-1.153971
H82	H	1.367728	-0.920827	-0.574229
N83	N	0.930263	-0.260983	-0.655839
H84	H	0.850470	-0.262051	-0.658991
H85	H	0.953803	-0.222648	-0.602819
N86	N	1.680765	-0.927438	-0.645518
H87	H	1.628903	-0.911865	-0.702001
H88	H	1.752874	-0.906428	-0.662209
N89	N	1.724859	-0.925723	-0.460234
H90	H	1.758182	-0.881949	-0.423606
H91	H	1.688918	-0.958232	-0.406129
H92	H	1.563549	-0.235702	-1.101337
H93	H	1.124293	-0.454044	-0.401474
H94	H	1.123184	-0.312289	-0.345794
N95	N	0.931280	-0.316443	-0.319442
H96	H	0.993313	-0.324237	-0.270409
H97	H	0.887027	-0.273856	-0.292976
H98	H	0.940214	-0.479568	-0.534429
H99	H	1.122088	-0.278286	-0.646744
N100	N	0.932428	-0.222399	-0.454851
H101	H	0.959487	-0.207166	-0.526792
H102	H	0.852563	-0.221990	-0.455077
N103	N	1.132805	-0.388399	-0.705645
H104	H	1.106038	-0.372315	-0.777285
H105	H	1.212672	-0.388509	-0.705866
N106	N	0.932297	-0.389521	-0.705621
H107	H	0.885446	-0.427913	-0.671415
H108	H	0.890785	-0.361866	-0.761182
H109	H	1.468888	-0.792557	-0.675535
N110	N	1.131884	-0.491569	-0.560551
H111	H	1.178381	-0.466643	-0.614865
H112	H	1.173744	-0.530948	-0.522505
H113	H	1.469088	-0.919787	-0.676061
N114	N	1.339857	-0.786561	-0.567572
H115	H	1.291387	-0.830268	-0.556617
H116	H	1.341758	-0.755707	-0.501076
N117	N	1.392584	-0.925529	-0.367448
H118	H	1.345510	-0.881600	-0.353106
H119	H	1.361261	-0.956155	-0.426383
H120	H	1.707650	-0.791836	-0.486446
H121	H	1.558102	-0.919689	-0.336293
