data_functionalizedCrystal
_audit_creation_method	'MofGen! by Chris Wilmer'
_symmetry_space_group_name_H-M	'P1'
_symmetry_Int_Tables_number	1
_symmetry_cell_setting	triclinic
loop_
_symmetry_equiv_pos_as_xyz
  x,y,z
_cell_length_a	15.625950
_cell_length_b	15.538191
_cell_length_c	9.130313
_cell_angle_alpha	90.001197
_cell_angle_beta	71.927344
_cell_angle_gamma	66.741480
loop_
_atom_site_label
_atom_site_type_symbol
_atom_site_fract_x
_atom_site_fract_y
_atom_site_fract_z
O1	O	1.155840	0.123005	-0.491906
O2	O	0.888604	0.137633	-0.350017
O3	O	1.074242	-0.006739	-0.448575
O4	O	0.970202	0.267377	-0.393348
O5	O	1.074242	-0.006747	-0.692174
O6	O	0.888605	0.137626	-0.593616
O7	O	1.155841	0.122997	-0.735505
Cu8	Cu	1.022223	0.130311	-0.686803
Cu9	Cu	1.022222	0.130320	-0.398719
O10	O	0.970203	0.267370	-0.636947
C11	C	0.855238	0.136964	-0.454100
C12	C	0.755819	0.134970	-0.401313
C13	C	0.428737	0.128442	-0.891443
C14	C	0.335310	0.126586	-0.841770
C15	C	0.335355	0.126595	-0.576233
C16	C	0.428782	0.128455	-0.625883
C17	C	0.475466	0.129377	-0.783490
C18	C	0.475511	0.129391	-0.517929
C19	C	0.568932	0.131246	-0.567577
C20	C	0.615624	0.132165	-0.725179
C21	C	0.568887	0.131232	-0.833138
C22	C	0.428829	0.128462	-0.360324
C23	C	0.475558	0.129398	-0.252371
C24	C	0.568978	0.131260	-0.302017
C25	C	0.615669	0.132179	-0.459618
C26	C	0.615715	0.132193	-0.194057
C27	C	0.709135	0.134048	-0.243705
C28	C	0.709090	0.134034	-0.509266
C29	C	1.085127	-0.041824	-0.576149
C30	C	1.117551	-0.146353	-0.593350
C31	C	0.795431	-0.434584	-0.422350
C32	C	0.825920	-0.532808	-0.438542
C33	C	0.997418	-0.555017	-0.529599
C34	C	0.966942	-0.456792	-0.513407
C35	C	0.865948	-0.396583	-0.459784
C36	C	1.037459	-0.418792	-0.550841
C37	C	1.006986	-0.320576	-0.534658
C38	C	0.905996	-0.260361	-0.481042
C39	C	0.835474	-0.298368	-0.443602
C40	C	1.138453	-0.479002	-0.604474
C41	C	1.208970	-0.441002	-0.641908
C42	C	1.178497	-0.342784	-0.625715
C43	C	1.077507	-0.282569	-0.572099
C44	C	1.249019	-0.304778	-0.663155
C45	C	1.218546	-0.206562	-0.646973
C46	C	1.047034	-0.184354	-0.555916
C47	C	1.189207	0.123666	-0.631419
C48	C	1.288625	0.125661	-0.684196
C49	C	0.959317	0.302454	-0.509370
C50	C	0.926894	0.406983	-0.492160
N51	N	1.022224	0.130319	-0.196097
N52	N	1.022230	0.130304	-0.889430
C53	C	1.104497	0.066515	-0.163125
C54	C	1.104502	0.066509	-0.009791
C55	C	0.939952	0.194115	0.077590
C56	C	0.939951	0.194124	-0.075743
C57	C	1.199497	-0.007160	-0.213572
C58	C	1.199502	-0.007166	-0.060238
H59	H	0.352757	0.126957	-0.319905
H60	H	1.263452	0.008572	-0.289132
Cl61	Cl	0.737258	-0.580576	-0.391486
H62	H	1.163261	-0.558975	-0.617635
H63	H	0.691694	0.133675	-0.765600
H64	H	0.747181	0.134814	-0.155797
H65	H	0.872963	0.246087	-0.102587
H66	H	1.079648	-0.604052	-0.573264
H67	H	0.437537	0.128643	-0.124047
H68	H	1.208496	-0.079470	-0.023412
H69	H	0.872967	0.246064	0.175598
Cl70	Cl	1.335930	-0.516701	-0.709328
H71	H	1.331249	-0.353814	-0.706830
Cl72	Cl	1.307196	-0.158785	-0.694060
Cl73	Cl	1.288780	0.027664	-0.034191
H74	H	0.747096	0.134799	-0.637602
Cl75	Cl	1.201230	-0.112559	-0.287955
Cl76	Cl	0.627577	0.132403	-1.031275
Cl77	Cl	0.276574	0.125393	-0.977506
H78	H	0.964794	-0.135328	-0.512240
Cl79	Cl	0.708507	-0.222669	-0.376173
Cl80	Cl	0.276672	0.125405	-0.378112
Cl81	Cl	0.557033	0.130995	0.004060
Cl82	Cl	0.668463	-0.358885	-0.354922
H83	H	0.466743	0.129207	-1.019780
Cl84	Cl	0.867684	-0.136888	-0.460710
