data_functionalizedCrystal
_audit_creation_method	'MofGen! by Chris Wilmer'
_symmetry_space_group_name_H-M	'P1'
_symmetry_Int_Tables_number	1
_symmetry_cell_setting	triclinic
loop_
_symmetry_equiv_pos_as_xyz
  x,y,z
_cell_length_a	13.262390
_cell_length_b	13.262508
_cell_length_c	16.776229
_cell_angle_alpha	105.911687
_cell_angle_beta	74.075576
_cell_angle_gamma	88.760843
loop_
_atom_site_label
_atom_site_type_symbol
_atom_site_fract_x
_atom_site_fract_y
_atom_site_fract_z
O1	O	1.393336	0.141389	-0.337717
O2	O	1.087809	0.156758	-0.268146
O3	O	1.248263	-0.003680	-0.337714
O4	O	1.232881	0.301826	-0.268149
O5	O	1.248242	-0.003690	-0.205135
O6	O	1.087787	0.156748	-0.135567
O7	O	1.393314	0.141379	-0.205138
Zn8	Zn	1.240547	0.149062	-0.149303
Zn9	Zn	1.240576	0.149075	-0.323981
O10	O	1.232860	0.301816	-0.135570
C11	C	1.048689	0.155891	-0.193564
C12	C	0.932156	0.153310	-0.168859
C13	C	1.247392	-0.042791	-0.279717
C14	C	1.244816	-0.159316	-0.304425
C15	C	0.603725	0.146043	-0.388310
C16	C	0.713214	0.148462	-0.411525
C17	C	0.767955	0.149675	-0.350860
C18	C	0.713196	0.148466	-0.266978
C19	C	0.603697	0.146038	-0.243763
C20	C	0.767927	0.149670	-0.206313
C21	C	0.713169	0.148462	-0.122431
C22	C	0.603681	0.146035	-0.099220
C23	C	0.548940	0.144822	-0.159885
C24	C	0.877426	0.152099	-0.229528
C25	C	0.877398	0.152094	-0.084980
C26	C	0.767909	0.149674	-0.061766
C27	C	1.237502	-0.487815	-0.084987
C28	C	1.239914	-0.378333	-0.061770
C29	C	1.241140	-0.323574	-0.122432
C30	C	1.239953	-0.378307	-0.206314
C31	C	1.237532	-0.487798	-0.229532
C32	C	1.241170	-0.323557	-0.266977
C33	C	1.239983	-0.378290	-0.350859
C34	C	1.237563	-0.487771	-0.374073
C35	C	1.236337	-0.542530	-0.313411
C36	C	1.243591	-0.214065	-0.243759
C37	C	1.243621	-0.214048	-0.388304
C38	C	1.241209	-0.323530	-0.411521
C39	C	1.432434	0.142246	-0.279721
C40	C	1.548967	0.144827	-0.304432
C41	C	1.233731	0.340928	-0.193568
C42	C	1.236307	0.457453	-0.168866
N43	N	1.240536	0.149052	-0.030091
N44	N	1.240596	0.149076	-0.443196
C45	C	1.311607	0.078040	-0.019177
C46	C	1.311613	0.078039	0.064274
C47	C	1.240552	0.149056	0.136809
C48	C	1.169473	0.220072	0.125892
C49	C	1.169463	0.220067	0.042442
C50	C	1.169511	0.220093	0.462435
C51	C	1.169529	0.220094	0.545888
C52	C	1.311661	0.078065	0.484267
C53	C	1.311651	0.078060	0.400817
C54	C	1.240569	0.149071	0.389907
C55	C	1.240562	0.149070	0.299420
C56	C	1.240563	0.149063	0.227295
H57	H	0.921999	0.153084	-0.297825
H58	H	1.111588	0.277891	0.033560
H59	H	0.757791	0.149440	-0.479823
H60	H	1.243103	-0.234428	-0.103523
H61	H	0.723310	0.148690	0.006532
O62	O	0.544681	0.144720	-0.453734
H63	H	0.601149	0.145961	-0.515965
H64	H	1.369477	0.020214	-0.078234
H65	H	1.244612	-0.169462	-0.437699
O66	O	1.244891	-0.155043	-0.153296
H67	H	1.172970	-0.167029	-0.105643
O68	O	0.886043	0.152310	-0.375886
H69	H	0.914923	0.152963	-0.444401
H70	H	1.369484	0.020215	0.073157
O71	O	1.236230	-0.546804	-0.464531
H72	H	1.237481	-0.490336	-0.502812
O73	O	1.092837	0.296680	0.204125
H74	H	1.010952	0.282901	0.202899
H75	H	1.236496	-0.532410	-0.035603
H76	H	0.559101	0.145032	-0.030922
O77	O	1.241215	-0.319301	0.028691
H78	H	1.239972	-0.375771	0.066970
H79	H	1.234379	-0.631680	-0.332311
H80	H	1.240241	-0.368109	-0.479820
O81	O	1.388288	0.001458	0.322580
H82	H	1.437703	-0.047931	0.344190
H83	H	1.369537	0.020240	0.493157
H84	H	1.111658	0.277927	0.604950
O85	O	0.430847	0.142186	-0.134888
H86	H	0.392886	0.212991	-0.080128
O87	O	1.092858	0.296689	0.450669
H88	H	1.043459	0.346079	0.515129
H89	H	0.921968	0.153080	-0.035583
