data_functionalizedCrystal
_audit_creation_method	'MofGen! by Chris Wilmer'
_symmetry_space_group_name_H-M	'P1'
_symmetry_Int_Tables_number	1
_symmetry_cell_setting	triclinic
loop_
_symmetry_equiv_pos_as_xyz
  x,y,z
_cell_length_a	19.288864
_cell_length_b	11.792241
_cell_length_c	17.766277
_cell_angle_alpha	89.993523
_cell_angle_beta	89.976791
_cell_angle_gamma	83.664831
loop_
_atom_site_label
_atom_site_type_symbol
_atom_site_fract_x
_atom_site_fract_y
_atom_site_fract_z
O1	O	0.922157	0.141582	-0.062836
O2	O	0.720005	0.160681	-0.062785
O3	O	0.825987	-0.014113	-0.062806
O4	O	0.816176	0.316377	-0.062814
O5	O	0.825968	-0.014122	0.062382
O6	O	0.719986	0.160673	0.062404
O7	O	0.922139	0.141573	0.062352
Cu8	Cu	0.821061	0.151122	0.073809
Cu9	Cu	0.821083	0.151133	-0.074241
O10	O	0.816157	0.316368	0.062374
C11	C	0.694116	0.160063	-0.000184
C12	C	0.617002	0.158218	-0.000164
C13	C	0.572888	0.260779	-0.000178
C14	C	0.500431	0.259046	-0.000187
C15	C	0.472091	0.154746	-0.000196
C16	C	0.516215	0.052171	-0.000177
C17	C	0.588670	0.053907	-0.000161
C18	C	0.363370	0.072757	-0.044078
C19	C	0.290916	0.071025	-0.044099
C20	C	0.248615	0.149387	-0.000241
C21	C	0.278776	0.229499	0.043627
C22	C	0.351232	0.231235	0.043643
C23	C	0.393526	0.152852	-0.000212
C24	C	0.125935	0.250076	-0.000263
C25	C	0.053477	0.248339	-0.000267
C26	C	0.069262	0.041460	-0.000265
C27	C	0.141718	0.043201	-0.000254
C28	C	0.170050	0.147512	-0.000257
C29	C	0.825361	-0.056399	-0.000212
C30	C	0.823517	-0.182385	-0.000212
C31	C	0.820125	-0.413045	-0.000224
C32	C	0.822009	-0.284689	-0.000218
C33	C	0.948028	0.142192	-0.000250
C34	C	1.025142	0.144037	-0.000275
C35	C	0.816783	0.358654	-0.000222
C36	C	0.818627	0.484640	-0.000226
N37	N	0.821050	0.151114	0.177939
N38	N	0.821099	0.151132	-0.178371
C39	C	0.867994	0.073753	0.217316
C40	C	0.867998	0.073748	0.296118
C41	C	0.821065	0.151123	0.335540
C42	C	0.774112	0.228490	0.296153
C43	C	0.774105	0.228486	0.217353
C44	C	0.812354	0.254534	0.460377
C45	C	0.812366	0.254540	0.539175
C46	C	0.821084	0.151137	0.578586
C47	C	0.829804	0.047723	0.539188
C48	C	0.829797	0.047719	0.460388
C49	C	0.821067	0.151136	0.420985
C50	C	0.868035	0.073764	0.703409
C51	C	0.868034	0.073757	0.782213
C52	C	0.774151	0.228509	0.782246
C53	C	0.774148	0.228506	0.703444
C54	C	0.821094	0.151135	0.664030
H55	H	0.595951	0.345717	-0.000182
N56	N	0.802955	0.366074	0.581663
H57	H	0.804287	0.350389	0.637562
H58	H	0.841740	0.413188	0.567861
H59	H	0.493136	-0.032752	-0.000195
N60	N	0.918663	-0.009684	0.660892
H61	H	0.948400	-0.058702	0.697798
H62	H	0.891885	-0.059749	0.628214
H63	H	0.906259	0.010754	0.814274
N64	N	0.452843	0.369673	-0.000205
H65	H	0.462029	0.415189	-0.046615
H66	H	0.402664	0.352651	-0.000188
H67	H	0.397806	0.008943	-0.079797
H68	H	0.836895	-0.036484	0.428313
N69	N	0.636255	-0.056717	-0.000142
H70	H	0.607311	-0.123058	-0.000146
H71	H	0.666686	-0.060503	-0.046545
N72	N	0.802957	0.366071	0.417876
H73	H	0.804274	0.350379	0.361978
H74	H	0.756555	0.409283	0.431670
N75	N	0.723494	0.311949	0.338669
H76	H	0.693752	0.360958	0.301763
H77	H	0.692633	0.268625	0.371387
H78	H	0.836902	-0.036478	0.571275
N79	N	0.723523	0.311958	0.824753
H80	H	0.730648	0.300221	0.880648
H81	H	0.731843	0.392441	0.810968
N82	N	0.918622	-0.009704	0.174809
H83	H	0.911497	0.002031	0.118913
H84	H	0.967942	0.003212	0.188556
N85	N	0.723467	0.311931	0.174882
H86	H	0.731764	0.392452	0.188584
H87	H	0.730608	0.300093	0.118995
N88	N	0.383765	0.317629	0.090957
H89	H	0.345979	0.367012	0.118740
H90	H	0.416992	0.276576	0.128424
N91	N	0.233163	0.314032	0.090931
H92	H	0.182687	0.300777	0.084269
H93	H	0.246610	0.303724	0.145640
H94	H	0.149004	0.335012	-0.000255
N95	N	0.918632	-0.009688	0.338608
H96	H	0.910339	-0.090214	0.324912
H97	H	0.967951	0.003284	0.324852
N98	N	0.005893	0.358964	-0.000222
H99	H	0.034839	0.425303	-0.000205
H100	H	-0.024514	0.362803	-0.046618
N101	N	0.038706	-0.071038	-0.000266
H102	H	-0.013888	-0.056577	-0.000276
H103	H	0.054841	-0.115903	-0.046671
N104	N	0.189304	-0.067420	-0.000238
H105	H	0.160358	-0.133759	-0.000244
H106	H	0.219737	-0.071206	-0.046639
H107	H	0.735925	0.291505	0.671381
N108	N	0.258385	-0.015376	-0.091409
H109	H	0.270221	-0.004512	-0.146135
H110	H	0.277089	-0.094885	-0.074961
