data_functionalizedCrystal
_audit_creation_method	'MofGen! by Chris Wilmer'
_symmetry_space_group_name_H-M	'P1'
_symmetry_Int_Tables_number	1
_symmetry_cell_setting	triclinic
loop_
_symmetry_equiv_pos_as_xyz
  x,y,z
_cell_length_a	10.654545
_cell_length_b	10.654550
_cell_length_c	9.130313
_cell_angle_alpha	89.995631
_cell_angle_beta	89.996934
_cell_angle_gamma	84.484005
loop_
_atom_site_label
_atom_site_type_symbol
_atom_site_fract_x
_atom_site_fract_y
_atom_site_fract_z
O1	O	1.667843	0.176372	-0.121784
O2	O	1.302364	0.193184	-0.121790
O3	O	1.493506	0.002038	-0.121778
O4	O	1.476700	0.367517	-0.121797
O5	O	1.493493	0.002033	0.121821
O6	O	1.302350	0.193178	0.121808
O7	O	1.667830	0.176366	0.121814
Cu8	Cu	1.485089	0.184772	0.144054
Cu9	Cu	1.485104	0.184778	-0.144030
O10	O	1.476687	0.367511	0.121802
C11	C	1.255559	0.191948	0.000008
C12	C	1.116115	0.188258	0.000006
C13	C	1.050604	0.186518	0.132793
C14	C	0.919584	0.183030	0.132793
C15	C	0.919599	0.183028	-0.132792
C16	C	1.050617	0.186507	-0.132791
C17	C	1.492266	-0.044762	0.000021
C18	C	1.488574	-0.184206	0.000018
C19	C	1.601115	-0.263693	0.000020
C20	C	1.597639	-0.394714	0.000002
C21	C	1.369069	-0.366747	-0.000013
C22	C	1.372547	-0.235729	-0.000005
C23	C	1.714634	0.177602	0.000013
C24	C	1.854078	0.181292	0.000005
C25	C	1.477927	0.414312	0.000000
C26	C	1.481619	0.553755	-0.000007
N27	N	1.485087	0.184766	0.346677
N28	N	1.485116	0.184774	-0.346653
C29	C	1.569754	0.100163	0.423334
C30	C	1.569766	0.100163	0.576671
C31	C	1.400440	0.269381	0.576679
C32	C	1.400423	0.269374	0.423345
H33	H	1.103959	0.187920	-0.240928
C34	C	0.847538	0.181112	-0.278860
N35	N	0.793262	0.179673	-0.388882
H36	H	1.638690	0.031269	0.360914
H37	H	1.695592	-0.221748	0.000036
C38	C	1.241446	-0.423435	-0.000010
N39	N	1.145318	-0.466132	0.000003
H40	H	1.331471	0.338268	0.360927
C41	C	1.122649	0.188430	0.278873
N42	N	1.176910	0.189863	0.388905
H43	H	1.331510	0.338268	0.639118
C44	C	1.662896	0.007083	0.660987
N45	N	1.733041	-0.063035	0.724493
H46	H	1.280896	-0.171006	-0.000011
H47	H	0.866250	0.181614	0.240921
H48	H	1.689282	-0.459428	-0.000000
