data_functionalizedCrystal
_audit_creation_method	'MofGen! by Chris Wilmer'
_symmetry_space_group_name_H-M	'P1'
_symmetry_Int_Tables_number	1
_symmetry_cell_setting	triclinic
loop_
_symmetry_equiv_pos_as_xyz
  x,y,z
_cell_length_a	19.288867
_cell_length_b	16.053789
_cell_length_c	19.288865
_cell_angle_alpha	87.098675
_cell_angle_beta	96.863342
_cell_angle_gamma	92.894766
loop_
_atom_site_label
_atom_site_type_symbol
_atom_site_fract_x
_atom_site_fract_y
_atom_site_fract_z
O1	O	0.923951	0.069410	-0.089257
O2	O	1.257284	0.402744	0.244076
O3	O	1.590617	0.736077	0.577409
O4	O	0.721691	0.069420	-0.100945
O5	O	1.055024	0.402753	0.232388
O6	O	1.388357	0.736086	0.565722
O7	O	0.828664	0.069398	0.006030
O8	O	1.161998	0.402731	0.339363
O9	O	1.495331	0.736065	0.672697
O10	O	0.816977	0.069432	-0.196232
O11	O	1.150310	0.402765	0.137101
O12	O	1.483644	0.736098	0.470435
O13	O	0.823447	-0.069462	0.011240
O14	O	1.156780	0.263871	0.344574
O15	O	1.490114	0.597205	0.677907
O16	O	0.716473	-0.069440	-0.095734
O17	O	1.049807	0.263893	0.237599
O18	O	1.383140	0.597226	0.570932
O19	O	0.918733	-0.069450	-0.084047
O20	O	1.252067	0.263884	0.249287
O21	O	1.585400	0.597217	0.582620
Zn22	Zn	0.816775	-0.091492	-0.089063
Zn23	Zn	1.150108	0.241841	0.244270
Zn24	Zn	1.483442	0.575175	0.577603
Zn25	Zn	0.823649	0.091462	-0.095928
Zn26	Zn	1.156982	0.424795	0.237405
Zn27	Zn	1.490316	0.758129	0.570738
O28	O	0.811760	-0.069428	-0.191021
O29	O	1.145093	0.263905	0.142312
O30	O	1.478426	0.597238	0.475645
C31	C	0.693206	-0.000009	-0.097963
C32	C	1.026539	0.333324	0.235370
C33	C	1.359872	0.666657	0.568703
C34	C	0.616102	-0.000007	-0.096834
C35	C	0.949435	0.333327	0.236499
C36	C	1.282769	0.666660	0.569833
C37	C	0.063380	0.075675	-0.091537
C38	C	0.396714	0.409008	0.241796
C39	C	0.730047	0.742342	0.575129
C40	C	0.135828	0.075678	-0.092595
C41	C	0.469161	0.409012	0.240739
C42	C	0.802495	0.742345	0.574072
C43	C	0.169213	-0.000014	-0.090286
C44	C	0.502546	0.333319	0.243047
C45	C	0.835879	0.666653	0.576380
C46	C	0.130146	-0.075715	-0.086902
C47	C	0.463479	0.257618	0.246431
C48	C	0.796812	0.590951	0.579764
C49	C	0.057700	-0.075716	-0.085838
C50	C	0.391034	0.257617	0.247495
C51	C	0.724367	0.590950	0.580828
C52	C	0.276361	-0.057997	-0.130478
C53	C	0.609695	0.275336	0.202855
C54	C	0.943028	0.608669	0.536188
C55	C	0.348805	-0.057993	-0.131547
C56	C	0.682138	0.275340	0.201787
C57	C	1.015471	0.608674	0.535120
C58	C	0.392658	-0.000014	-0.093565
C59	C	0.725992	0.333320	0.239768
C60	C	1.059325	0.666653	0.573101
C61	C	0.364059	0.057975	-0.054525
C62	C	0.697392	0.391309	0.278808
C63	C	1.030725	0.724642	0.612142
C64	C	0.291613	0.057974	-0.053461
C65	C	0.624947	0.391308	0.279873
C66	C	0.958280	0.724641	0.613206
C67	C	0.247767	-0.000021	-0.091440
C68	C	0.581100	0.333312	0.241894
C69	C	0.914434	0.666645	0.575227
C70	C	0.510273	0.075686	-0.098091
C71	C	0.843606	0.409020	0.235243
C72	C	1.176940	0.742353	0.568576
C73	C	0.582722	0.075686	-0.099144
C74	C	0.916056	0.409020	0.234190
C75	C	1.249389	0.742353	0.567523
C76	C	0.577038	-0.075709	-0.093458
C77	C	0.910371	0.257624	0.239875
C78	C	1.243704	0.590957	0.573209
C79	C	0.504591	-0.075707	-0.092398
C80	C	0.837924	0.257626	0.240935
C81	C	1.171257	0.590959	0.574268
C82	C	0.471212	-0.000007	-0.094718
C83	C	0.804546	0.333326	0.238615
C84	C	1.137879	0.666660	0.571949
N85	N	0.812089	-0.216353	-0.084377
N86	N	1.145422	0.116980	0.248956
N87	N	1.478755	0.450313	0.582289
C88	C	0.852442	-0.260039	-0.124761
C89	C	1.185775	0.073295	0.208573
C90	C	1.519109	0.406628	0.541906
C91	C	0.849173	-0.347446	-0.121478
C92	C	1.182507	-0.014113	0.211855
C93	C	1.515840	0.319220	0.545188
C94	C	0.805547	-0.391167	-0.077816
C95	C	1.138880	-0.057833	0.255517
C96	C	1.472213	0.275500	0.588851
C97	C	0.765192	-0.347475	-0.037428
C98	C	1.098525	-0.014142	0.295905
C99	C	1.431859	0.319191	0.629238
C100	C	0.768465	-0.260069	-0.040707
C101	C	1.101798	0.073264	0.292626
C102	C	1.435131	0.406597	0.625959
C103	C	0.791259	-0.652579	-0.063500
C104	C	1.124592	-0.319246	0.269834
C105	C	1.457926	0.014087	0.603167
C106	C	0.787987	-0.739991	-0.060225
C107	C	1.121321	-0.406658	0.273108
C108	C	1.454654	-0.073325	0.606441
C109	C	0.871970	-0.739956	-0.144275
C110	C	1.205304	-0.406623	0.189059
C111	C	1.538637	-0.073290	0.522392
C112	C	0.875236	-0.652549	-0.147553
C113	C	1.208569	-0.319215	0.185780
C114	C	1.541903	0.014118	0.519114
C115	C	0.834884	-0.608865	-0.107163
C116	C	1.168217	-0.275532	0.226171
C117	C	1.501551	0.057802	0.559504
N118	N	0.802203	-0.480511	-0.074462
N119	N	1.135536	-0.147178	0.258872
N120	N	1.468870	0.186155	0.592205
N121	N	0.838232	-0.519522	-0.110514
N122	N	1.171565	-0.186189	0.222820
N123	N	1.504899	0.147145	0.556153
C124	C	0.947218	-0.000019	-0.087028
C125	C	1.280552	0.333314	0.246305
C126	C	1.613885	0.666648	0.579638
C127	C	1.024322	-0.000016	-0.088158
C128	C	1.357655	0.333317	0.245175
C129	C	1.690989	0.666650	0.578509
C130	C	0.825679	-0.000034	0.034512
C131	C	1.159013	0.333299	0.367845
C132	C	1.492346	0.666632	0.701178
C133	C	0.824550	-0.000042	0.111616
C134	C	1.157884	0.333292	0.444949
C135	C	1.491217	0.666625	0.778282
N136	N	0.828341	0.216323	-0.100608
N137	N	1.161674	0.549657	0.232725
N138	N	1.495008	0.882990	0.566058
C139	C	0.814744	0.000006	-0.219503
C140	C	1.148078	0.333339	0.113830
C141	C	1.481411	0.666673	0.447163
C142	C	0.815874	0.000019	-0.296607
C143	C	1.149207	0.333352	0.036726
C144	C	1.482541	0.666685	0.370059
C145	C	0.887318	-0.000049	0.156312
C146	C	1.220651	0.333285	0.489645
C147	C	1.553984	0.666618	0.822978
C148	C	0.886258	-0.000035	0.228758
C149	C	1.219591	0.333298	0.562092
C150	C	1.552924	0.666631	0.895425
C151	C	0.822426	-0.000032	0.256506
C152	C	1.155759	0.333301	0.589839
C153	C	1.489092	0.666635	0.923173
C154	C	0.759650	-0.000020	0.211800
C155	C	1.092983	0.333313	0.545133
C156	C	1.426317	0.666646	0.878467
C157	C	0.760712	-0.000025	0.139355
C158	C	1.094046	0.333308	0.472688
C159	C	1.427379	0.666642	0.806021
C160	C	0.770419	-0.048669	0.366619
C161	C	1.103752	0.284664	0.699952
C162	C	1.437085	0.617997	1.033286
C163	C	0.769359	-0.048670	0.439063
C164	C	1.102692	0.284664	0.772397
C165	C	1.436026	0.617997	1.105730
C166	C	0.819147	-0.000013	0.479951
C167	C	1.152480	0.333320	0.813284
C168	C	1.485813	0.666654	1.146618
C169	C	0.870006	0.048633	0.448387
C170	C	1.203339	0.381966	0.781721
C171	C	1.536673	0.715300	1.115054
C172	C	0.871068	0.048628	0.375942
C173	C	1.204401	0.381961	0.709275
C174	C	1.537735	0.715295	1.042609
C175	C	0.821267	-0.000026	0.335060
C176	C	1.154600	0.333307	0.668393
C177	C	1.487933	0.666641	1.001727
C178	C	0.880769	-0.000004	0.603203
C179	C	1.214102	0.333329	0.936536
C180	C	1.547436	0.666662	1.269869
C181	C	0.879706	0.000014	0.675650
C182	C	1.213040	0.333347	1.008983
C183	C	1.546373	0.666681	1.342317
C184	C	0.753097	0.000021	0.658690
C185	C	1.086430	0.333354	0.992024
C186	C	1.419763	0.666687	1.325357
C187	C	0.754161	0.000011	0.586244
C188	C	1.087495	0.333344	0.919578
C189	C	1.420828	0.666677	1.252911
C190	C	0.817999	-0.000006	0.558505
C191	C	1.151333	0.333327	0.891838
C192	C	1.484666	0.666661	1.225172
H193	H	0.472788	-0.137343	-0.089649
H194	H	0.806122	0.195990	0.243684
H195	H	1.139455	0.529323	0.577018
N196	N	0.923714	0.101113	0.492477
N197	N	1.257047	0.434446	0.825810
N198	N	1.590380	0.767780	1.159144
H199	H	0.899332	0.142725	0.517548
H200	H	1.232665	0.476058	0.850881
H201	H	1.565998	0.809391	1.184214
H202	H	0.956075	0.131869	0.461444
H203	H	1.289409	0.465203	0.794777
H204	H	1.622742	0.798536	1.128110
H205	H	0.483095	0.137326	-0.099977
H206	H	0.816428	0.470659	0.233356
H207	H	1.149762	0.803993	0.566689
H208	H	0.910763	-0.616957	-0.183105
H209	H	1.244097	-0.283624	0.150228
H210	H	1.577430	0.049709	0.483561
N211	N	0.686457	0.000004	0.538037
N212	N	1.019791	0.333338	0.871370
N213	N	1.353124	0.666671	1.204704
H214	H	0.682143	-0.051474	0.509542
H215	H	1.015477	0.281860	0.842875
H216	H	1.348810	0.615193	1.176209
H217	H	0.686049	0.051511	0.505705
H218	H	1.019383	0.384845	0.839038
H219	H	1.352716	0.718178	1.172372
N220	N	0.915499	-0.787064	-0.187834
N221	N	1.248832	-0.453730	0.145499
N222	N	1.582166	-0.120397	0.478833
H223	H	0.883798	-0.823328	-0.220551
H224	H	1.217131	-0.489994	0.112783
H225	H	1.550464	-0.156661	0.446116
H226	H	0.948231	-0.823279	-0.156099
H227	H	1.281564	-0.489946	0.177234
H228	H	1.614898	-0.156612	0.510568
H229	H	0.752458	-0.775586	-0.024670
H230	H	1.085791	-0.442253	0.308663
H231	H	1.419124	-0.108920	0.641996
N232	N	0.949620	-0.000021	0.573279
N233	N	1.282953	0.333312	0.906613
N234	N	1.616286	0.666646	1.239946
H235	H	0.940768	-0.000034	0.520603
H236	H	1.274102	0.333299	0.853937
H237	H	1.607435	0.666633	1.187270
H238	H	0.975135	-0.051502	0.591592
H239	H	1.308469	0.281832	0.924925
H240	H	1.641802	0.615165	1.258258
N241	N	0.379649	-0.120528	-0.173658
N242	N	0.712982	0.212805	0.159675
N243	N	1.046315	0.546139	0.493008
H244	H	0.340877	-0.157264	-0.197552
H245	H	0.674211	0.176069	0.135782
H246	H	1.007544	0.509403	0.469115
H247	H	0.412553	-0.156141	-0.141556
H248	H	0.745886	0.177192	0.191778
H249	H	1.079220	0.510525	0.525111
H250	H	0.729873	-0.088296	0.333334
H251	H	1.063207	0.245038	0.666667
H252	H	1.396540	0.578371	1.000000
H253	H	0.157332	-0.137344	-0.085022
H254	H	0.490666	0.195989	0.248312
H255	H	0.823999	0.529322	0.581645
H256	H	0.930822	0.000013	0.712041
H257	H	1.264155	0.333346	1.045375
H258	H	1.597488	0.666680	1.378708
H259	H	0.758401	-0.617023	-0.030611
H260	H	1.091735	-0.283689	0.302723
H261	H	1.425068	0.049644	0.636056
N262	N	0.718142	-0.394626	0.009671
N263	N	1.051475	-0.061293	0.343004
N264	N	1.384809	0.272040	0.676337
H265	H	0.722190	-0.456627	0.005620
H266	H	1.055523	-0.123294	0.338953
H267	H	1.388856	0.210040	0.672286
H268	H	0.668156	-0.379352	-0.004752
H269	H	1.001489	-0.046019	0.328581
H270	H	1.334823	0.287315	0.661915
H271	H	0.887963	-0.224448	-0.160319
H272	H	1.221297	0.108886	0.173014
H273	H	1.554630	0.442219	0.506347
N274	N	0.693008	-0.000037	0.091144
N275	N	1.026342	0.333296	0.424478
N276	N	1.359675	0.666630	0.757811
H277	H	0.703367	-0.000047	0.041041
H278	H	1.036701	0.333287	0.374374
H279	H	1.370034	0.666620	0.707708
H280	H	0.667109	0.051441	0.098159
H281	H	1.000442	0.384774	0.431492
H282	H	1.333776	0.718108	0.764825
N283	N	0.724945	-0.212947	0.002852
N284	N	1.058278	0.120386	0.336185
N285	N	1.391611	0.453719	0.669518
H286	H	0.696810	-0.253905	0.031009
H287	H	1.030143	0.079428	0.364342
H288	H	1.363477	0.412761	0.697676
H289	H	0.692252	-0.176678	-0.028878
H290	H	1.025585	0.156655	0.304456
H291	H	1.358919	0.489988	0.637789
N292	N	0.714502	-0.101128	0.473101
N293	N	1.047835	0.232205	0.806435
N294	N	1.381168	0.565538	1.139768
H295	H	0.721384	-0.093746	0.525199
H296	H	1.054718	0.239587	0.858532
H297	H	1.388051	0.572921	1.191866
H298	H	0.718893	-0.161812	0.463593
H299	H	1.052226	0.171521	0.796926
H300	H	1.385560	0.504855	1.130260
H301	H	0.939300	-0.000059	0.133731
H302	H	1.272633	0.333274	0.467065
H303	H	1.605966	0.666607	0.800398
H304	H	0.937372	-0.000038	0.265157
H305	H	1.270706	0.333296	0.598490
H306	H	1.604039	0.666629	0.931823
H307	H	0.912478	0.088239	0.350246
H308	H	1.245811	0.421572	0.683579
H309	H	1.579145	0.754905	1.016912
N310	N	0.684248	0.000034	0.688607
N311	N	1.017581	0.333367	1.021940
N312	N	1.350915	0.666701	1.355274
H313	H	0.693098	0.000039	0.741284
H314	H	1.026432	0.333372	1.074617
H315	H	1.359765	0.666705	1.407950
H316	H	0.654854	-0.051442	0.674183
H317	H	0.988188	0.281892	1.007516
H318	H	1.321521	0.615225	1.340850
N319	N	0.624855	0.157329	-0.102777
N320	N	0.958188	0.490662	0.230556
N321	N	1.291522	0.823996	0.563889
H322	H	0.592714	0.205280	-0.104085
H323	H	0.926047	0.538614	0.229248
H324	H	1.259381	0.871947	0.562582
H325	H	0.649276	0.160632	-0.146389
H326	H	0.982609	0.493965	0.186944
H327	H	1.315943	0.827298	0.520278
H328	H	0.707678	-0.000016	0.234397
H329	H	1.041011	0.333318	0.567730
H330	H	1.374344	0.666651	0.901063
H331	H	0.036209	0.137316	-0.093423
H332	H	0.369542	0.470649	0.239910
H333	H	0.702875	0.803983	0.573243
H334	H	0.167635	0.137317	-0.095351
H335	H	0.500968	0.470650	0.237983
H336	H	0.834302	0.803984	0.571316
N337	N	0.613036	-0.157351	-0.090960
N338	N	0.946369	0.175982	0.242373
N339	N	1.279702	0.509315	0.575706
H340	H	0.664857	-0.145867	-0.092145
H341	H	0.998190	0.187467	0.241188
H342	H	1.331524	0.520800	0.574522
H343	H	0.593367	-0.190403	-0.132582
H344	H	0.926700	0.142930	0.200751
H345	H	1.260034	0.476263	0.534085
H346	H	0.268331	0.105189	-0.021671
H347	H	0.601664	0.438523	0.311662
H348	H	0.934998	0.771856	0.644995
H349	H	0.399763	0.105190	-0.023599
H350	H	0.733096	0.438523	0.309734
H351	H	1.066430	0.771857	0.643068
H352	H	0.240661	-0.105220	-0.161404
H353	H	0.573994	0.228113	0.171930
H354	H	0.907328	0.561447	0.505263
H355	H	0.025899	-0.137355	-0.083089
H356	H	0.359232	0.195978	0.250245
H357	H	0.692566	0.529311	0.583578
N358	N	0.892731	-0.394565	-0.165000
N359	N	1.226065	-0.061232	0.168333
N360	N	1.559398	0.272102	0.501667
H361	H	0.920873	-0.353605	-0.193149
H362	H	1.254206	-0.020272	0.140184
H363	H	1.587539	0.313062	0.473517
H364	H	0.861012	-0.430852	-0.197679
H365	H	1.194345	-0.097518	0.135654
H366	H	1.527679	0.235815	0.468988
