data_functionalizedCrystal
_audit_creation_method	'MofGen! by Chris Wilmer'
_symmetry_space_group_name_H-M	'P1'
_symmetry_Int_Tables_number	1
_symmetry_cell_setting	triclinic
loop_
_symmetry_equiv_pos_as_xyz
  x,y,z
_cell_length_a	10.489741
_cell_length_b	15.995300
_cell_length_c	15.072220
_cell_angle_alpha	89.985917
_cell_angle_beta	89.997495
_cell_angle_gamma	95.994509
loop_
_atom_site_label
_atom_site_type_symbol
_atom_site_fract_x
_atom_site_fract_y
_atom_site_fract_z
O1	O	-0.164094	1.112012	-0.073808
O2	O	-0.184463	0.868353	-0.073802
O3	O	0.011399	0.995727	-0.073807
O4	O	-0.359955	0.984638	-0.073803
O5	O	0.011388	0.995695	0.073758
O6	O	-0.184474	0.868322	0.073763
O7	O	-0.164105	1.111980	0.073757
Zn8	Zn	-0.174291	0.990146	0.097189
Zn9	Zn	-0.174277	0.990188	-0.097234
O10	O	-0.359966	0.984606	0.073762
C11	C	-0.183638	0.837137	-0.000019
C12	C	-0.181147	0.744169	-0.000017
C13	C	-0.176547	0.573959	-0.000023
C14	C	-0.316005	0.527334	-0.000020
C15	C	-0.313461	0.430631	-0.000357
C16	C	-0.172020	0.406375	-0.000029
C17	C	-0.102824	0.447108	-0.084131
C18	C	-0.106353	0.543763	-0.084199
C19	C	-0.104301	0.543994	0.083616
C20	C	-0.104314	0.447049	0.084719
C21	C	-0.169454	0.311664	-0.000035
C22	C	-0.179109	0.668670	-0.000023
C23	C	-0.407480	0.985460	-0.000020
C24	C	-0.549074	0.987965	-0.000018
C25	C	-0.616058	1.069009	-0.000027
C26	C	-0.708730	1.030709	0.072730
C27	C	-0.708698	1.030721	-0.072757
C28	C	-0.639882	0.949632	0.072799
C29	C	-0.639839	0.949655	-0.072754
C30	C	-0.732485	0.911296	0.000022
C31	C	0.058913	0.994873	-0.000027
C32	C	0.200507	0.992368	-0.000034
C33	C	-0.164930	1.143196	-0.000028
C34	C	-0.167421	1.236164	-0.000036
N35	N	-0.174300	0.990123	0.229878
N36	N	-0.174257	0.990216	-0.229923
C37	C	-0.174272	0.990186	0.589080
C38	C	-0.278722	0.921798	0.551476
C39	C	-0.279103	0.921958	0.448650
C40	C	-0.174286	0.990154	0.410876
C41	C	-0.203329	1.077696	0.448165
C42	C	-0.204072	1.077314	0.551023
C43	C	-0.040468	0.971809	0.551179
C44	C	-0.041361	0.969810	0.448316
C45	C	-0.174291	0.990142	0.310162
C46	C	-0.174269	0.990204	0.689793
H47	H	-0.367589	0.403122	-0.060995
C48	C	-0.391727	0.552749	0.081446
N49	N	-0.448761	0.571897	0.142810
C50	C	-0.412111	0.937548	0.586381
N51	N	-0.512579	0.949414	0.612674
C52	C	-0.749961	1.077015	0.155832
N53	N	-0.781008	1.111896	0.218423
C54	C	0.034995	0.425480	0.091921
N55	N	0.139927	0.409233	0.097340
H56	H	-0.609282	0.915406	-0.134267
C57	C	-0.166340	0.572038	0.169760
N58	N	-0.213082	0.593160	0.234639
C59	C	-0.386960	0.392598	0.081051
N60	N	-0.442344	0.363953	0.142360
C61	C	-0.390586	0.554286	-0.081374
N62	N	-0.446756	0.574587	-0.142652
H63	H	-0.150254	0.419022	-0.146953
H64	H	-0.156213	0.562396	-0.147303
C65	C	-0.105236	1.148202	0.584628
N66	N	-0.030811	1.201603	0.609935
C67	C	-0.598897	0.903331	0.155995
N68	N	-0.568024	0.868462	0.218659
C69	C	-0.002757	0.887365	0.586259
N70	N	0.025631	0.823758	0.612682
H71	H	-0.019319	0.905409	0.423945
H72	H	-0.782860	0.844602	0.000063
H73	H	-0.003948	0.575419	-0.087794
C74	C	-0.749881	1.077083	-0.155857
N75	N	-0.780894	1.112008	-0.218445
H76	H	0.001103	0.432383	-0.087023
H77	H	-0.261802	0.856912	0.423440
C78	C	-0.413244	0.937929	0.415395
N79	N	-0.514283	0.949964	0.390348
H80	H	0.040006	1.016323	0.422605
C81	C	-0.255759	0.833642	0.584949
N82	N	-0.238467	0.767243	0.610173
C83	C	-0.172568	0.410501	0.168777
N84	N	-0.223977	0.382966	0.232088
H85	H	-0.301653	1.093385	0.575005
H86	H	-0.001481	0.575154	0.084424
C87	C	-0.103291	1.148136	0.415105
N88	N	-0.027940	1.201191	0.390201
H89	H	-0.565459	1.135644	0.000043
C90	C	-0.333664	1.099894	0.413366
N91	N	-0.431839	1.116607	0.387159
C92	C	0.064542	1.039167	0.584035
N93	N	0.143625	1.089902	0.608789
