data_functionalizedCrystal
_audit_creation_method	'MofGen! by Chris Wilmer'
_symmetry_space_group_name_H-M	'P1'
_symmetry_Int_Tables_number	1
_symmetry_cell_setting	triclinic
loop_
_symmetry_equiv_pos_as_xyz
  x,y,z
_cell_length_a	14.519709
_cell_length_b	14.853566
_cell_length_c	13.930277
_cell_angle_alpha	90.004369
_cell_angle_beta	90.001645
_cell_angle_gamma	96.342721
loop_
_atom_site_label
_atom_site_type_symbol
_atom_site_fract_x
_atom_site_fract_y
_atom_site_fract_z
O1	O	-0.120399	1.196416	0.079754
O2	O	-0.134743	0.933962	0.079768
O3	O	0.006670	1.072147	0.079769
O4	O	-0.261813	1.058230	0.079753
O5	O	0.006673	1.072128	-0.079892
O6	O	-0.134740	0.933943	-0.079894
O7	O	-0.120396	1.196397	-0.079908
Zn8	Zn	-0.127568	1.065166	-0.105251
Zn9	Zn	-0.127572	1.065192	0.105111
O10	O	-0.261810	1.058211	-0.079909
C11	C	-0.134092	0.900363	-0.000061
C12	C	-0.132145	0.800279	-0.000055
C13	C	-0.123911	0.377101	0.086961
C14	C	-0.123909	0.377101	-0.087109
C15	C	-0.125737	0.471136	-0.087106
C16	C	-0.126654	0.518158	-0.000068
C17	C	-0.125743	0.471144	0.086966
C18	C	-0.126658	0.518156	-0.174139
C19	C	-0.128488	0.612196	-0.174140
C20	C	-0.129398	0.659220	-0.087101
C21	C	-0.128485	0.612201	-0.000063
C22	C	-0.129402	0.659222	0.086975
C23	C	-0.128483	0.612206	0.174014
C24	C	-0.126653	0.518168	0.174005
C25	C	-0.131228	0.753257	-0.087092
C26	C	-0.131234	0.753265	0.086980
C27	C	-0.296171	1.058869	-0.000081
C28	C	-0.398551	1.060813	-0.000087
C29	C	-0.773444	1.067968	-0.000049
C30	C	-0.669137	1.065981	-0.000060
C31	C	-0.586001	1.064391	-0.000069
C32	C	-0.481687	1.062403	-0.000078
C33	C	0.041031	1.071489	-0.000057
C34	C	0.143412	1.069546	-0.000044
C35	C	-0.121047	1.229995	-0.000077
C36	C	-0.122994	1.330080	-0.000077
N37	N	-0.127564	1.065156	-0.248817
C38	C	-0.190165	1.004001	-0.701087
C39	C	-0.064971	1.126408	-0.701055
C40	C	-0.064968	1.126397	-0.600559
C41	C	-0.127566	1.065188	-0.550322
C42	C	-0.190166	1.003990	-0.600582
C43	C	-0.002376	1.187600	-0.550293
C44	C	-0.002371	1.187592	-0.449791
C45	C	-0.064965	1.126379	-0.399552
C46	C	-0.127567	1.065177	-0.449817
C47	C	-0.190164	1.003969	-0.399581
C48	C	-0.252762	0.942762	-0.449844
C49	C	-0.252760	0.942776	-0.550343
C50	C	-0.064967	1.126365	-0.299053
C51	C	-0.190165	1.003958	-0.299076
N52	N	-0.127568	1.065210	0.248677
H53	H	-0.123159	0.338816	0.157826
H54	H	-0.241136	0.954111	-0.258179
H55	H	-0.303733	0.892929	-0.408930
H56	H	-0.303726	0.892945	-0.591274
H57	H	-0.129234	0.650469	-0.245012
H58	H	-0.014005	1.176202	-0.258133
H59	H	-0.129236	0.650502	0.244880
H60	H	-0.131986	0.791533	-0.157958
H61	H	-0.125917	0.479863	-0.245000
H62	H	-0.123168	0.338810	-0.157971
H63	H	-0.241129	0.954165	-0.742014
H64	H	-0.014011	1.176247	-0.741961
H65	H	0.048585	1.237439	-0.591198
H66	H	0.048600	1.237429	-0.408872
H67	H	-0.131977	0.791544	0.157858
H68	H	-0.125904	0.479879	0.244867
