data_functionalizedCrystal
_audit_creation_method	'MofGen! by Chris Wilmer'
_symmetry_space_group_name_H-M	'P1'
_symmetry_Int_Tables_number	1
_symmetry_cell_setting	triclinic
loop_
_symmetry_equiv_pos_as_xyz
  x,y,z
_cell_length_a	12.645331
_cell_length_b	14.908520
_cell_length_c	14.908794
_cell_angle_alpha	96.379588
_cell_angle_beta	86.708850
_cell_angle_gamma	86.679048
loop_
_atom_site_label
_atom_site_type_symbol
_atom_site_fract_x
_atom_site_fract_y
_atom_site_fract_z
Zn1	Zn	1.557936	0.390057	0.532592
Zn2	Zn	1.557859	0.532652	0.389960
Zn3	Zn	1.391563	0.381307	0.381246
Zn4	Zn	1.369765	0.541378	0.541270
O5	O	1.469281	0.461348	0.461267
O6	O	1.706271	0.408982	0.513687
O7	O	1.544889	0.505262	0.262141
O8	O	1.422787	0.255800	0.394043
O9	O	1.706214	0.513747	0.408895
O10	O	1.545020	0.262229	0.505237
O11	O	1.422712	0.394069	0.255738
O12	O	1.240326	0.402530	0.402458
O13	O	1.385636	0.528619	0.666782
O14	O	1.224311	0.520134	0.520027
O15	O	1.523884	0.417443	0.660407
O16	O	1.523753	0.660477	0.417310
O17	O	1.385562	0.666888	0.528477
C18	C	1.193854	0.461330	0.461239
C19	C	1.076022	0.461346	0.461250
C20	C	1.452311	0.696527	0.474801
C21	C	1.445147	0.797139	0.480621
C22	C	1.452338	0.474980	0.697355
C23	C	1.445118	0.480790	0.797962
C24	C	1.041179	0.387259	0.387395
C25	C	0.918620	0.387014	0.387619
C26	C	0.903129	0.441453	0.555336
C27	C	1.025796	0.440904	0.554870
C28	C	1.025725	0.555587	0.441933
C29	C	0.903302	0.554967	0.439833
C30	C	1.745783	0.461367	0.461295
C31	C	1.863611	0.461375	0.461307
C32	C	1.486344	0.225253	0.447700
C33	C	1.493615	0.124643	0.441919
C34	C	1.575715	0.979469	0.375892
C35	C	1.568987	1.074003	0.381358
C36	C	1.424968	1.080743	0.497021
C37	C	1.431696	0.986209	0.491556
C38	C	1.507071	0.935575	0.430988
C39	C	1.513793	0.841039	0.425519
C40	C	1.369780	0.847781	0.541186
C41	C	1.363052	0.942315	0.546652
C42	C	1.362966	0.546849	0.943082
C43	C	1.369748	0.541398	0.848554
C44	C	1.513709	0.425627	0.841904
C45	C	1.506927	0.431079	0.936433
C46	C	1.431555	0.491693	0.987019
C47	C	1.424779	0.497148	1.081549
C48	C	1.568734	0.381374	1.074898
C49	C	1.575516	0.375922	0.980370
C50	C	1.486149	0.447791	1.226098
C51	C	1.493370	0.441986	1.125492
H52	H	0.892441	0.398793	0.317737
H53	H	1.301601	0.596209	0.984270
H54	H	1.074577	0.398840	0.317262
C55	C	0.868916	0.575415	0.346389
H56	H	0.830525	0.527125	0.320566
H57	H	0.929985	0.581794	0.308028
H58	H	0.824999	0.629937	0.352931
H59	H	1.575165	0.799814	0.376199
C60	C	1.088071	0.293297	0.403888
H61	H	1.128787	0.299021	0.455590
H62	H	1.132259	0.267935	0.352586
H63	H	1.032088	0.254971	0.413681
H64	H	1.313890	0.586306	0.812784
H65	H	1.636880	0.326570	0.939170
C66	C	1.280147	0.998013	0.613272
H67	H	1.240233	0.958329	0.645306
H68	H	1.233854	1.032940	0.580746
H69	H	1.315212	1.037120	0.654880
C70	C	1.341870	0.563817	1.137192
H71	H	1.301986	0.595878	1.097482
H72	H	1.376920	0.605388	1.176342
H73	H	1.295536	0.531306	1.172069
C74	C	1.596608	0.358959	0.786250
H75	H	1.590823	0.363617	0.723661
H76	H	1.584383	0.299032	0.798242
H77	H	1.665771	0.373111	0.802505
H78	H	1.059858	0.574864	0.374794
C79	C	1.644199	0.320712	1.123231
H80	H	1.629369	0.332639	1.186774
H81	H	1.715573	0.333082	1.108498
H82	H	1.634199	0.258991	1.104247
H83	H	1.047349	0.610713	0.495793
C84	C	1.294272	0.799497	0.601797
H85	H	1.309076	0.735944	0.589873
H86	H	1.222907	0.814282	0.589392
H87	H	1.304268	0.818467	0.663523
H88	H	1.624885	1.109737	0.336494
C89	C	0.884290	0.292541	0.404382
H90	H	0.945279	0.254165	0.411090
H91	H	0.847617	0.267805	0.354510
H92	H	0.838806	0.297369	0.457906
H93	H	1.057924	0.372193	0.571830
C94	C	1.055970	0.511042	0.631392
H95	H	1.131074	0.511179	0.631628
H96	H	1.027945	0.495842	0.687830
H97	H	1.027516	0.569372	0.621922
C98	C	0.853819	0.512452	0.631421
H99	H	0.878782	0.499128	0.687673
H100	H	0.778698	0.511215	0.633615
H101	H	0.873576	0.570822	0.619920
C102	C	0.866324	0.349707	0.578816
H103	H	0.826887	0.323427	0.531445
H104	H	0.822876	0.358529	0.633595
H105	H	0.926516	0.310553	0.585874
H106	H	0.865360	0.612651	0.490116
C107	C	1.342073	1.136446	0.563648
H108	H	1.302158	1.096768	0.595687
H109	H	1.295780	1.171379	0.531127
H110	H	1.377151	1.175550	0.605250
C111	C	1.658617	0.923769	0.309270
H112	H	1.698539	0.963451	0.277240
H113	H	1.623557	0.884655	0.267672
H114	H	1.704918	0.888848	0.341803
