data_functionalizedCrystal
_audit_creation_method	'MofGen! by Chris Wilmer'
_symmetry_space_group_name_H-M	'P1'
_symmetry_Int_Tables_number	1
_symmetry_cell_setting	triclinic
loop_
_symmetry_equiv_pos_as_xyz
  x,y,z
_cell_length_a	6.817900
_cell_length_b	11.168129
_cell_length_c	11.168136
_cell_angle_alpha	92.020277
_cell_angle_beta	108.508683
_cell_angle_gamma	108.508637
loop_
_atom_site_label
_atom_site_type_symbol
_atom_site_fract_x
_atom_site_fract_y
_atom_site_fract_z
V1	V	-4.109883	-0.174724	-0.393710
O2	O	-4.069466	0.008377	-0.386204
O3	O	-4.086171	-0.346429	-0.391028
O4	O	-4.086173	-0.172045	-0.565416
O5	O	-4.069464	-0.167215	-0.210610
V6	V	-4.587112	-0.152822	-0.371809
O7	O	-4.384946	-0.222767	-0.441753
O8	O	-4.762246	-0.104778	-0.323766
O9	O	-4.387617	0.018883	-0.374490
O10	O	-4.744926	-0.335922	-0.379315
O11	O	-4.744928	-0.160331	-0.554909
O12	O	-4.387615	-0.155501	-0.200103
C13	C	-3.936379	-0.388287	-0.384820
C14	C	-3.998444	-0.528658	-0.383772
C15	C	-3.936380	-0.165841	-0.607267
C16	C	-3.998442	-0.164786	-0.747637
C17	C	-4.147070	-0.753455	-0.492112
C18	C	-4.082924	-0.608374	-0.493198
C19	C	-4.200950	-0.170305	-0.816330
C20	C	-4.265098	-0.169216	-0.961410
C21	C	-4.200752	0.060735	-0.380695
C22	C	-4.117927	0.201105	-0.381751
C23	C	-4.200750	-0.161709	-0.158245
C24	C	-4.117926	-0.162757	-0.017873
H25	H	-4.219521	-0.821959	-0.585792
C26	C	-3.895539	-0.265668	-0.879000
C27	C	-3.883730	-0.156412	-0.938195
H28	H	-3.750955	-0.261754	-0.829804
H29	H	-3.964110	-0.339493	-0.942275
H30	H	-3.979535	-0.269839	-0.824759
H31	H	-3.799747	-0.152246	-0.992444
H32	H	-3.815127	-0.082567	-0.874912
H33	H	-3.872554	-0.159246	-0.796233
C34	C	-4.340255	-0.604337	-0.696527
C35	C	-4.116478	-0.555550	-0.620761
H36	H	-4.360963	-0.571730	-0.775285
H37	H	-4.423814	-0.579470	-0.653177
H38	H	-4.387738	-0.694903	-0.712519
H39	H	-4.068998	-0.464984	-0.604761
H40	H	-4.032890	-0.580409	-0.664120
C41	C	-4.168342	-0.662287	-0.254619
C42	C	-3.964903	-0.581472	-0.256203
H43	H	-4.147638	-0.694889	-0.175858
H44	H	-4.229628	-0.731102	-0.323116
H45	H	-4.265719	-0.615667	-0.263787
H46	H	-3.867531	-0.628095	-0.247044
H47	H	-3.903586	-0.512647	-0.187687
C48	C	-4.274465	-0.177410	-0.619713
C49	C	-4.370909	-0.177775	-0.750739
H50	H	-4.379404	-0.182030	-0.579227
H51	H	-4.151072	-0.101008	-0.583984
H52	H	-4.227545	-0.248962	-0.607071
H53	H	-4.417815	-0.106218	-0.763382
H54	H	-4.494343	-0.254186	-0.786480
C55	C	-4.600280	-0.284455	-1.134366
C56	C	-4.499298	-0.175594	-1.041122
H57	H	-4.744865	-0.288387	-1.183583
H58	H	-4.608236	-0.358545	-1.094182
H59	H	-4.516237	-0.280248	-1.188585
H60	H	-4.583334	-0.179806	-0.986897
H61	H	-4.491354	-0.101486	-1.081308
H62	H	-4.045497	-0.730392	-0.288072
