data_functionalizedCrystal
_audit_creation_method	'MofGen! by Chris Wilmer'
_symmetry_space_group_name_H-M	'P1'
_symmetry_Int_Tables_number	1
_symmetry_cell_setting	triclinic
loop_
_symmetry_equiv_pos_as_xyz
  x,y,z
_cell_length_a	13.635800
_cell_length_b	23.752963
_cell_length_c	17.078481
_cell_angle_alpha	82.996960
_cell_angle_beta	99.306161
_cell_angle_gamma	79.933268
loop_
_atom_site_label
_atom_site_type_symbol
_atom_site_fract_x
_atom_site_fract_y
_atom_site_fract_z
V1	V	1.981406	-0.079028	0.247826
O2	O	1.984441	0.003935	0.242630
O3	O	1.949044	-0.156832	0.246592
O4	O	1.947065	-0.077752	0.355702
O5	O	1.986435	-0.075692	0.132765
V6	V	2.225592	-0.069112	0.234008
O7	O	2.106718	-0.100781	0.278138
O8	O	2.325378	-0.047360	0.203697
O9	O	2.146350	0.008692	0.235242
O10	O	2.281254	-0.152076	0.239205
O11	O	2.279261	-0.072448	0.349070
O12	O	2.148330	-0.070388	0.126133
V13	V	2.481406	-0.079028	0.247826
O14	O	2.484441	0.003935	0.242630
O15	O	2.449044	-0.156832	0.246592
O16	O	2.447065	-0.077752	0.355702
O17	O	2.486435	-0.075692	0.132765
V18	V	2.725592	-0.069112	0.234008
O19	O	2.606718	-0.100781	0.278138
O20	O	2.825378	-0.047360	0.203697
O21	O	2.646350	0.008692	0.235242
O22	O	2.781254	-0.152076	0.239205
O23	O	2.779261	-0.072448	0.349070
O24	O	2.648330	-0.070388	0.126133
C25	C	1.869888	-0.175801	0.242801
C26	C	1.884004	-0.239406	0.242511
C27	C	1.959292	-0.625688	0.167926
C28	C	1.972569	-0.685451	0.167642
O29	O	1.968978	-0.709447	0.105670
N30	N	1.991540	-0.723472	0.240203
C31	C	1.997246	-0.701728	0.313052
O32	O	2.014603	-0.739555	0.374745
C33	C	1.983976	-0.641966	0.313335
C34	C	1.964994	-0.603947	0.240769
C35	C	1.940312	-0.587670	0.095366
C36	C	1.927035	-0.527911	0.095650
C37	C	1.932737	-0.506170	0.168493
C38	C	1.951717	-0.544188	0.241053
C39	C	1.989689	-0.620223	0.386184
C40	C	1.976418	-0.560456	0.386461
C41	C	1.957436	-0.522437	0.313895
C42	C	1.944141	-0.462688	0.314180
N43	N	1.925170	-0.424667	0.241620
C44	C	1.919467	-0.446408	0.168776
C45	C	2.025113	-0.827231	0.312452
C46	C	2.038376	-0.886992	0.312170
C47	C	2.013699	-0.870711	0.166760
C48	C	2.000430	-0.810949	0.167043
C49	C	2.006142	-0.789210	0.239892
C50	C	1.891584	-0.320911	0.169378
C51	C	1.878302	-0.261147	0.169668
C52	C	1.902984	-0.277433	0.315078
C53	C	1.916260	-0.337191	0.314788
C54	C	1.910561	-0.358928	0.241932
O55	O	1.947723	-0.438651	0.376122
O56	O	1.902124	-0.408575	0.107095
C57	C	1.867362	-0.074926	0.381981
C58	C	1.879872	-0.074398	0.470172
C59	C	2.057178	0.027657	0.239031
C60	C	2.032680	0.091262	0.239326
C61	C	2.059704	-0.073216	0.099850
C62	C	2.036813	-0.073742	0.011657
C63	C	2.369888	-0.175801	0.242801
C64	C	2.384004	-0.239406	0.242511
C65	C	2.367362	-0.074926	0.381981
C66	C	2.379872	-0.074398	0.470172
C67	C	1.976115	-0.077006	0.515664
C68	C	1.987864	-0.076509	0.598529
C69	C	1.903368	-0.073408	0.635902
C70	C	1.807117	-0.070798	0.590405
C71	C	1.795368	-0.071291	0.507540
C72	C	1.928813	-0.071625	0.883295
C73	C	1.940570	-0.071134	0.966166
C74	C	2.121316	-0.076843	0.974284
C75	C	2.109560	-0.077339	0.891418
C76	C	2.013309	-0.074726	0.845927
N77	N	1.915375	-0.072902	0.720604
N78	N	2.001303	-0.075228	0.761226
C79	C	2.557178	0.027657	0.239031
C80	C	2.532680	0.091262	0.239326
C81	C	2.559704	-0.073216	0.099850
C82	C	2.536813	-0.073742	0.011657
C83	C	2.481012	-0.272191	0.246356
C84	C	2.494292	-0.331957	0.246096
C85	C	2.410562	-0.358936	0.241985
C86	C	2.313547	-0.326147	0.238142
C87	C	2.300269	-0.266383	0.238408
C88	C	2.476122	-0.077000	0.515649
C89	C	2.487888	-0.076496	0.598513
C90	C	2.403405	-0.073394	0.635901
C91	C	2.307146	-0.070790	0.590418
C92	C	2.295380	-0.071290	0.507554
C93	C	2.608166	0.124047	0.235483
C94	C	2.585157	0.183812	0.235748
C95	C	2.486664	0.210791	0.239860
C96	C	2.411172	0.178002	0.243701
C97	C	2.434179	0.118239	0.243431
C98	C	2.439066	-0.076837	-0.025710
C99	C	2.417541	-0.077324	-0.108577
C100	C	2.493767	-0.074720	-0.154075
C101	C	2.591522	-0.071622	-0.116703
C102	C	2.613044	-0.071131	-0.033838
H103	H	1.886942	-0.338601	0.110051
O104	O	2.461863	0.275251	0.240156
H105	H	2.380692	0.288508	0.243656
O106	O	2.598928	-0.367315	0.250226
H107	H	2.654910	-0.338508	0.253111
O108	O	2.195630	-0.231027	0.234256
H109	H	2.200450	-0.184936	0.235136
H110	H	2.245379	-0.348122	0.234795
O111	O	2.567249	-0.080337	0.475330
H112	H	2.636145	-0.082053	0.520883
O113	O	2.718479	-0.067794	0.006457
H114	H	2.749773	-0.106605	0.052716
O115	O	2.200700	-0.080685	0.851115
H116	H	2.176363	-0.080596	0.785852
O117	O	1.979964	-0.769947	0.088775
H118	H	1.905753	-0.740159	0.082449
H119	H	1.716994	-0.069153	0.470499
O120	O	2.225124	-0.079651	1.023345
H121	H	2.219102	-0.078782	1.087243
H122	H	2.029762	-0.809536	0.371778
H123	H	2.330977	0.199978	0.247049
H124	H	2.372706	0.091549	0.246567
O125	O	2.356861	-0.079689	0.023364
H126	H	2.285284	-0.081933	-0.016550
H127	H	1.871758	-0.068607	0.996592
O128	O	1.825008	-0.068815	0.834235
H129	H	1.768233	-0.066584	0.874149
O130	O	2.714397	0.094958	0.231029
H131	H	2.745567	0.061790	0.285072
O132	O	1.715978	-0.067457	0.630709
H133	H	1.740316	-0.067560	0.695975
H134	H	2.646639	0.210500	0.232621
H135	H	1.907620	-0.259721	0.374385
O136	O	1.857819	-0.220139	0.091398
H137	H	1.856092	-0.245302	0.040700
O138	O	2.571331	-0.243101	0.250807
H139	H	2.641013	-0.275948	0.253451
O140	O	2.007558	-0.894165	0.088188
H141	H	2.019986	-0.942108	0.100190
H142	H	2.337939	-0.079847	-0.138993
H143	H	2.476233	-0.075127	-0.221547
O144	O	2.416111	-0.072860	0.725278
H145	H	2.341197	-0.070263	0.743642
O146	O	2.673737	-0.068818	-0.165778
H147	H	2.642341	-0.069687	-0.229673
H148	H	1.911586	-0.496961	0.036560
O149	O	1.934147	-0.611114	0.016793
H150	H	1.918709	-0.574629	-0.033607
H151	H	2.566274	-0.078619	0.635535
O152	O	2.424881	-0.423392	0.241660
H153	H	2.506405	-0.441650	0.245005
H154	H	2.005145	-0.651168	0.445275
O155	O	2.058847	-0.927993	0.390438
H156	H	1.994651	-0.918250	0.422387
O157	O	1.982602	-0.536973	0.465010
H158	H	1.923506	-0.550145	0.496881
O159	O	1.936730	-0.378203	0.393051
H160	H	1.938468	-0.353042	0.443751
H161	H	2.238364	-0.068264	0.620871
H162	H	2.044924	-0.079534	0.485241
H163	H	2.066233	-0.078629	0.635564
H164	H	2.217001	-0.069172	0.470533
