data_functionalizedCrystal
_audit_creation_method	'MofGen! by Chris Wilmer'
_symmetry_space_group_name_H-M	'P1'
_symmetry_Int_Tables_number	1
_symmetry_cell_setting	triclinic
loop_
_symmetry_equiv_pos_as_xyz
  x,y,z
_cell_length_a	25.639239
_cell_length_b	18.215407
_cell_length_c	25.639234
_cell_angle_alpha	89.990915
_cell_angle_beta	90.021106
_cell_angle_gamma	89.965694
loop_
_atom_site_label
_atom_site_type_symbol
_atom_site_fract_x
_atom_site_fract_y
_atom_site_fract_z
Zn1	Zn	-0.208263	-1.124938	0.295593
Zn2	Zn	0.291737	-0.624938	0.795593
Zn3	Zn	-0.295686	-1.124836	0.208158
Zn4	Zn	0.204314	-0.624836	0.708158
Zn5	Zn	-0.208259	-1.001889	0.208174
Zn6	Zn	0.291741	-0.501889	0.708174
Zn7	Zn	-0.295663	-1.001807	0.295564
Zn8	Zn	0.204337	-0.501807	0.795564
O9	O	-0.251968	-1.063368	0.251872
O10	O	0.248032	-0.563368	0.751872
O11	O	-0.219871	-1.227909	0.284000
O12	O	0.280129	-0.727909	0.784000
O13	O	-0.284096	-1.108518	0.134995
O14	O	0.215904	-0.608518	0.634995
O15	O	-0.135095	-1.018289	0.219789
O16	O	0.364905	-0.518289	0.719789
O17	O	-0.284100	-1.227833	0.219762
O18	O	0.215900	-0.727833	0.719762
O19	O	-0.135098	-1.108693	0.284016
O20	O	0.364902	-0.608693	0.784016
O21	O	-0.219865	-1.018190	0.135006
O22	O	0.280135	-0.518190	0.635006
O23	O	-0.219843	-0.898894	0.219761
O24	O	0.280157	-0.398894	0.719761
O25	O	-0.284061	-1.018149	0.368733
O26	O	0.215939	-0.518149	0.868733
O27	O	-0.284057	-0.898834	0.283966
O28	O	0.215943	-0.398834	0.783966
O29	O	-0.219849	-1.108613	0.368755
O30	O	0.280151	-0.608613	0.868755
O31	O	-0.368848	-1.108438	0.219733
O32	O	0.131152	-0.608438	0.719733
O33	O	-0.368831	-1.018050	0.283950
O34	O	0.131169	-0.518050	0.783950
C35	C	-0.251947	-0.872161	0.251862
C36	C	0.248053	-0.372161	0.751862
C37	C	-0.251951	-0.790362	0.251870
C38	C	0.248049	-0.290362	0.751870
C39	C	-0.218572	-0.602207	0.285371
C40	C	0.281428	-0.102207	0.785371
C41	C	-0.218575	-0.525348	0.285372
C42	C	0.281425	-0.025348	0.785372
C43	C	-0.285356	-0.525280	0.218377
C44	C	0.214644	-0.025280	0.718377
C45	C	-0.285350	-0.602138	0.218374
C46	C	0.214650	-0.102138	0.718374
C47	C	-0.251959	-0.640599	0.251874
C48	C	0.248041	-0.140599	0.751874
C49	C	-0.251967	-0.486883	0.251878
C50	C	0.248033	0.013117	0.751878
C51	C	-0.251971	-0.403549	0.251880
C52	C	0.248029	0.096451	0.751880
C53	C	-0.251955	-0.723938	0.251872
C54	C	0.248045	-0.223938	0.751872
C55	C	-0.387810	-1.063244	0.251848
C56	C	0.112190	-0.563244	0.751848
C57	C	-0.445924	-1.063258	0.251855
C58	C	0.054076	-0.563258	0.751855
C59	C	-0.806284	-1.110556	0.218491
C60	C	-0.306284	-0.610556	0.718491
C61	C	-0.860888	-1.110584	0.218498
C62	C	-0.360888	-0.610584	0.718498
O63	O	-0.889121	-1.150670	0.190105
O64	O	-0.389121	-0.650670	0.690105
N65	N	-0.888207	-1.063497	0.251907
N66	N	-0.388207	-0.563497	0.751907
C67	C	-0.860919	-1.016383	0.285314
C68	C	-0.360919	-0.516383	0.785314
O69	O	-0.889170	-0.976335	0.313732
O70	O	-0.389170	-0.476335	0.813732
C71	C	-0.806315	-1.016359	0.285309
C72	C	-0.306315	-0.516359	0.785309
C73	C	-0.778999	-1.063444	0.251895
C74	C	-0.278999	-0.563444	0.751895
C75	C	-0.778968	-1.157638	0.185080
C76	C	-0.278968	-0.657638	0.685080
C77	C	-0.724367	-1.157608	0.185073
C78	C	-0.224367	-0.657608	0.685073
C79	C	-0.697083	-1.110496	0.218476
C80	C	-0.197083	-0.610496	0.718476
C81	C	-0.724399	-1.063414	0.251887
C82	C	-0.224399	-0.563414	0.751887
C83	C	-0.779028	-0.969250	0.318719
C84	C	-0.279028	-0.469250	0.818719
C85	C	-0.724421	-0.969230	0.318712
C86	C	-0.224421	-0.469230	0.818712
C87	C	-0.697105	-1.016315	0.285297
C88	C	-0.197105	-0.516315	0.785297
C89	C	-0.642514	-1.016273	0.285284
C90	C	-0.142514	-0.516273	0.785284
N91	N	-0.615195	-1.063360	0.251875
N92	N	-0.115195	-0.563360	0.751875
C93	C	-0.642479	-1.110472	0.218471
C94	C	-0.142479	-0.610472	0.718471
C95	C	-0.975589	-1.016439	0.285322
C96	C	-0.475589	-0.516439	0.785322
C97	C	-1.030192	-1.016459	0.285325
C98	C	-0.530192	-0.516459	0.785325
C99	C	-1.030157	-1.110661	0.218509
C100	C	-0.530157	-0.610661	0.718509
C101	C	-0.975554	-1.110637	0.218505
C102	C	-0.475554	-0.610637	0.718505
C103	C	-0.948270	-1.063526	0.251914
C104	C	-0.448270	-0.563526	0.751914
C105	C	-0.527814	-1.110406	0.218458
C106	C	-0.027814	-0.610406	0.718458
C107	C	-0.473209	-1.110370	0.218452
C108	C	0.026791	-0.610370	0.718452
C109	C	-0.473248	-1.016171	0.285269
C110	C	0.026752	-0.516171	0.785269
C111	C	-0.527849	-1.016204	0.285273
C112	C	-0.027849	-0.516204	0.785273
C113	C	-0.555130	-1.063327	0.251866
C114	C	-0.055130	-0.563327	0.751866
O115	O	-0.614246	-0.976210	0.313664
O116	O	-0.114246	-0.476210	0.813664
O117	O	-0.614222	-1.150520	0.190064
O118	O	-0.114222	-0.650520	0.690064
C119	C	-0.115595	-1.063512	0.251908
C120	C	0.384405	-0.563512	0.751908
C121	C	-0.057481	-1.063573	0.251923
C122	C	0.442519	-0.563573	0.751923
C123	C	-0.251953	-1.063383	0.388245
C124	C	0.248047	-0.563383	0.888245
C125	C	-0.251947	-1.063390	0.446359
C126	C	0.248053	-0.563390	0.946359
C127	C	-0.251983	-0.255320	0.251881
C128	C	0.248017	0.244680	0.751881
C129	C	-0.251975	-0.337119	0.251882
C130	C	0.248025	0.162881	0.751882
C131	C	-0.251945	-1.063394	0.116030
C132	C	0.248055	-0.563394	0.616030
C133	C	-0.251804	-1.063530	0.057916
C134	C	0.248196	-0.563530	0.557916
C135	C	-0.285316	-1.016334	0.697536
C136	C	0.214684	-0.516334	1.197536
C137	C	-0.285328	-1.016322	0.642931
C138	C	0.214672	-0.516322	1.142931
O139	O	-0.313752	-0.976243	0.614680
O140	O	0.186248	-0.476243	1.114680
N141	N	-0.251905	-1.063418	0.615633
N142	N	0.248095	-0.563418	1.115633
C143	C	-0.218463	-1.110525	0.642942
C144	C	0.281537	-0.610525	1.142942
O145	O	-0.190035	-1.150583	0.614709
O146	O	0.309965	-0.650583	1.114709
C147	C	-0.218449	-1.110534	0.697545
C148	C	0.281551	-0.610534	1.197545
C149	C	-0.251879	-1.063439	0.724841
C150	C	0.248121	-0.563439	1.224841
C151	C	-0.318743	-0.969243	0.724831
C152	C	0.181257	-0.469243	1.224831
C153	C	-0.318731	-0.969258	0.779432
C154	C	0.181269	-0.469258	1.279432
C155	C	-0.285294	-1.016363	0.806737
C156	C	0.214706	-0.516363	1.306737
C157	C	-0.251868	-1.063454	0.779441
C158	C	0.248132	-0.563454	1.279441
C159	C	-0.185006	-1.157637	0.724853
C160	C	0.314994	-0.657637	1.224853
C161	C	-0.184994	-1.157641	0.779460
C162	C	0.315006	-0.657641	1.279460
C163	C	-0.218424	-1.110547	0.806756
C164	C	0.281576	-0.610547	1.306756
C165	C	-0.218419	-1.110573	0.861347
C166	C	0.281581	-0.610573	1.361347
N167	N	-0.251842	-1.063476	0.888645
N168	N	0.248158	-0.563476	1.388645
C169	C	-0.285280	-1.016371	0.861340
C170	C	0.214720	-0.516371	1.361340
C171	C	-0.218495	-1.110502	0.528271
C172	C	0.281505	-0.610502	1.028271
C173	C	-0.218511	-1.110498	0.473669
C174	C	0.281489	-0.610498	0.973669
C175	C	-0.285375	-1.016293	0.473662
C176	C	0.214625	-0.516293	0.973662
C177	C	-0.285361	-1.016302	0.528266
C178	C	0.214639	-0.516302	1.028266
C179	C	-0.251918	-1.063406	0.555570
C180	C	0.248082	-0.563406	1.055570
C181	C	-0.285254	-1.016405	0.976005
C182	C	0.214746	-0.516405	1.476005
C183	C	-0.285241	-1.016425	1.030611
C184	C	0.214759	-0.516425	1.530611
C185	C	-0.218376	-1.110627	1.030613
C186	C	0.281624	-0.610627	1.530613
C187	C	-0.218390	-1.110609	0.976012
C188	C	0.281610	-0.610609	1.476012
C189	C	-0.251831	-1.063492	0.948710
C190	C	0.248169	-0.563492	1.448710
O191	O	-0.190008	-1.150629	0.889633
O192	O	0.309992	-0.650629	1.389633
O193	O	-0.313699	-0.976314	0.889580
O194	O	0.186301	-0.476314	1.389580
H195	H	-0.550021	-1.148780	0.191256
H196	H	-0.050021	-0.648780	0.691256
C197	C	-0.945871	-1.161639	0.182164
C198	C	-0.445871	-0.661639	0.682164
C199	C	-0.914575	-1.119993	0.148613
C200	C	-0.414575	-0.619993	0.648613
C201	C	-0.887232	-1.166954	0.115124
C202	C	-0.387232	-0.666954	0.615124
H203	H	-0.924499	-1.193692	0.202121
H204	H	-0.424499	-0.693692	0.702121
H205	H	-0.969929	-1.189684	0.162241
H206	H	-0.469929	-0.689684	0.662241
H207	H	-0.890519	-1.091961	0.168535
H208	H	-0.390519	-0.591961	0.668535
H209	H	-0.935934	-1.087942	0.128645
H210	H	-0.435934	-0.587942	0.628645
H211	H	-0.911290	-1.194999	0.095201
H212	H	-0.411290	-0.694999	0.595201
H213	H	-0.865863	-1.199005	0.135085
H214	H	-0.365863	-0.699005	0.635085
H215	H	-0.865998	-1.138704	0.092353
H216	H	-0.365998	-0.638704	0.592353
C217	C	-0.443458	-1.161415	0.182192
C218	C	0.056542	-0.661415	0.682192
C219	C	-0.389798	-1.151296	0.189321
C220	C	0.110202	-0.651296	0.689321
C221	C	-0.362377	-1.198298	0.155925
C222	C	0.137623	-0.698298	0.655925
H223	H	-0.452306	-1.210888	0.189844
H224	H	0.047694	-0.710888	0.689844
H225	H	-0.452403	-1.150677	0.147046
H226	H	0.047597	-0.650677	0.647046
H227	H	-0.380856	-1.162039	0.224459
H228	H	0.119144	-0.662039	0.724459
H229	H	-0.380934	-1.101833	0.181666
H230	H	0.119066	-0.601833	0.681666
H231	H	-0.371323	-1.187560	0.120779
H232	H	0.128677	-0.687560	0.620779
H233	H	-0.371230	-1.247768	0.163579
H234	H	0.128770	-0.747768	0.663579
H235	H	-0.325966	-1.191434	0.160754
H236	H	0.174034	-0.691434	0.660754
H237	H	-0.702129	-1.195951	0.157865
H238	H	-0.202129	-0.695951	0.657865
C239	C	-0.321569	-0.965126	0.557966
C240	C	0.178431	-0.465126	1.057966
C241	C	-0.291955	-0.918001	0.589324
C242	C	0.208045	-0.418001	1.089324
C243	C	-0.325293	-0.870852	0.616694
C244	C	0.174707	-0.370852	1.116694
H245	H	-0.341497	-0.937004	0.533939
H246	H	0.158503	-0.437004	1.033939
H247	H	-0.344340	-0.993236	0.579295
H248	H	0.155660	-0.493236	1.079295
H249	H	-0.269193	-0.889894	0.567996
H250	H	0.230807	-0.389894	1.067996
H251	H	-0.272028	-0.946102	0.613360
H252	H	0.227972	-0.446102	1.113360
H253	H	-0.348064	-0.898962	0.638023
H254	H	0.151936	-0.398962	1.138023
H255	H	-0.345219	-0.842735	0.592664
H256	H	0.154781	-0.342735	1.092664
H257	H	-0.305205	-0.838877	0.637977
H258	H	0.194795	-0.338877	1.137977
C259	C	-0.321676	-0.483481	0.182099
C260	C	0.178324	0.016519	0.682099
C261	C	-0.355241	-0.439360	0.211648
C262	C	0.144759	0.060640	0.711648
C263	C	-0.388713	-0.400853	0.178248
C264	C	0.111287	0.099147	0.678248
H265	H	-0.301708	-0.453444	0.159345
H266	H	0.198292	0.046556	0.659345
H267	H	-0.341590	-0.517332	0.162157
H268	H	0.158410	-0.017332	0.662157
H269	H	-0.335330	-0.405513	0.231582
H270	H	0.164670	0.094487	0.731582
H271	H	-0.375221	-0.469379	0.234401
H272	H	0.124779	0.030621	0.734401
H273	H	-0.408627	-0.434704	0.158306
H274	H	0.091373	0.065296	0.658306
H275	H	-0.368741	-0.370820	0.155495
H276	H	0.131259	0.129180	0.655495
H277	H	-0.411494	-0.370917	0.198292
H278	H	0.088506	0.129083	0.698292
H279	H	-0.801177	-1.196005	0.157879
H280	H	-0.301177	-0.696005	0.657879
H281	H	-0.953378	-0.978070	0.312526
H282	H	-0.453378	-0.478070	0.812526
H283	H	-0.191262	-1.148866	0.550499
H284	H	0.308738	-0.648866	1.050499
H285	H	-0.345971	-0.930880	0.702605
H286	H	0.154029	-0.430880	1.202605
H287	H	-0.312538	-0.633398	0.191093
H288	H	0.187462	-0.133398	0.691093
C289	C	-0.694894	-0.918001	0.355007
C290	C	-0.194894	-0.418001	0.855007
C291	C	-0.730508	-0.876765	0.384260
C292	C	-0.230508	-0.376765	0.884260
C293	C	-0.703329	-0.829559	0.417695
C294	C	-0.203329	-0.329559	0.917695
H295	H	-0.673562	-0.946039	0.377849
H296	H	-0.173562	-0.446039	0.877849
H297	H	-0.673636	-0.885900	0.335000
H298	H	-0.173636	-0.385900	0.835000
H299	H	-0.751758	-0.908861	0.404266
H300	H	-0.251758	-0.408861	0.904266
H301	H	-0.751842	-0.848712	0.361432
H302	H	-0.251842	-0.348712	0.861432
H303	H	-0.682070	-0.797459	0.397687
H304	H	-0.182070	-0.297459	0.897687
H305	H	-0.681998	-0.857603	0.440533
H306	H	-0.181998	-0.357603	0.940533
H307	H	-0.727489	-0.801571	0.437543
H308	H	-0.227489	-0.301571	0.937543
C309	C	-0.182347	-0.643872	0.321822
C310	C	0.317653	-0.143872	0.821822
C311	C	-0.193796	-0.625169	0.373533
C312	C	0.306204	-0.125169	0.873533
C313	C	-0.160431	-0.663527	0.407126
C314	C	0.339569	-0.163527	0.907126
H315	H	-0.187093	-0.695156	0.317096
H316	H	0.312907	-0.195156	0.817096
H317	H	-0.147199	-0.631283	0.314264
H318	H	0.352801	-0.131283	0.814264
H319	H	-0.228936	-0.637763	0.381089
H320	H	0.271064	-0.137763	0.881089
H321	H	-0.189048	-0.573892	0.378276
H322	H	0.310952	-0.073892	0.878276
H323	H	-0.125283	-0.650938	0.399567
H324	H	0.374717	-0.150938	0.899567
H325	H	-0.165179	-0.714809	0.402394
H326	H	0.334821	-0.214809	0.902394
H327	H	-0.168191	-0.650838	0.442215
H328	H	0.331809	-0.150838	0.942215
H329	H	-0.157784	-1.195986	0.702639
H330	H	0.342216	-0.695986	1.202639
H331	H	-0.157758	-1.195996	0.801689
H332	H	0.342242	-0.695996	1.301689
C333	C	-0.182412	-0.483572	0.321774
C334	C	0.317588	0.016428	0.821774
C335	C	-0.212067	-0.439422	0.355225
C336	C	0.287933	0.060578	0.855225
C337	C	-0.178770	-0.400920	0.388762
C338	C	0.321230	0.099080	0.888762
H339	H	-0.162515	-0.517403	0.341773
H340	H	0.337485	-0.017403	0.841773
H341	H	-0.159611	-0.453558	0.301831
H342	H	0.340389	0.046442	0.801831
H343	H	-0.234858	-0.469433	0.375165
H344	H	0.265142	0.030567	0.875165
H345	H	-0.231963	-0.405576	0.335240
H346	H	0.268037	0.094424	0.835240
H347	H	-0.155969	-0.370907	0.368819
H348	H	0.344031	0.129093	0.868819
H349	H	-0.158874	-0.434758	0.408757
H350	H	0.341126	0.065242	0.908757
H351	H	-0.198885	-0.370955	0.411458
H352	H	0.301115	0.129045	0.911458
H353	H	-0.191173	-1.148963	0.953787
H354	H	0.308827	-0.648963	1.453787
H355	H	-1.052382	-1.149024	0.191312
H356	H	-0.552382	-0.649024	0.691312
H357	H	-0.191153	-1.148981	1.052855
H358	H	0.308847	-0.648981	1.552855
C359	C	-0.557535	-0.964987	0.321461
C360	C	-0.057535	-0.464987	0.821461
C361	C	-0.588924	-0.917852	0.291835
C362	C	-0.088924	-0.417852	0.791835
C363	C	-0.616269	-0.870658	0.325157
C364	C	-0.116269	-0.370658	0.825157
H365	H	-0.578845	-0.993041	0.344275
H366	H	-0.078845	-0.493041	0.844275
H367	H	-0.533478	-0.936881	0.341342
H368	H	-0.033478	-0.436881	0.841342
H369	H	-0.612979	-0.945954	0.271963
H370	H	-0.112979	-0.445954	0.771963
H371	H	-0.567628	-0.889781	0.269022
H372	H	-0.067628	-0.389781	0.769022
H373	H	-0.592212	-0.842553	0.345038
H374	H	-0.092212	-0.342553	0.845038
H375	H	-0.637576	-0.898719	0.347970
H376	H	-0.137576	-0.398719	0.847970
H377	H	-0.637566	-0.838667	0.305061
H378	H	-0.137566	-0.338667	0.805061
H379	H	-0.451025	-0.977811	0.312464
H380	H	0.048975	-0.477811	0.812464
H381	H	-1.052428	-0.978110	0.312529
H382	H	-0.552428	-0.478110	0.812529
H383	H	-0.312466	-0.978075	1.052832
H384	H	0.187534	-0.478075	1.552832
C385	C	-0.321627	-0.965234	0.946462
C386	C	0.178373	-0.465234	1.446462
C387	C	-0.350907	-0.924020	0.982063
C388	C	0.149093	-0.424020	1.482063
C389	C	-0.384428	-0.876889	0.954867
C390	C	0.115572	-0.376889	1.454867
H391	H	-0.301696	-0.933111	0.925159
H392	H	0.198304	-0.433111	1.425159
H393	H	-0.344443	-0.993348	0.925174
H394	H	0.155557	-0.493348	1.425174
H395	H	-0.328093	-0.895908	1.003342
H396	H	0.171907	-0.395908	1.503342
H397	H	-0.370848	-0.956123	1.003367
H398	H	0.129152	-0.456123	1.503367
H399	H	-0.407245	-0.905003	0.933579
H400	H	0.092755	-0.405003	1.433579
H401	H	-0.364494	-0.844771	0.933565
H402	H	0.135506	-0.344771	1.433565
H403	H	-0.404302	-0.848925	0.979018
H404	H	0.095698	-0.348925	1.479018
C405	C	-0.321620	-0.965172	0.443916
C406	C	0.178380	-0.465172	0.943916
C407	C	-0.314462	-0.975234	0.390255
C408	C	0.185538	-0.475234	0.890255
C409	C	-0.347834	-0.928151	0.362836
C410	C	0.152166	-0.428151	0.862836
H411	H	-0.356771	-0.975855	0.452793
H412	H	0.143229	-0.475855	0.952793
H413	H	-0.313953	-0.915719	0.452833
H414	H	0.186047	-0.415719	0.952833
H415	H	-0.322132	-1.024676	0.381342
H416	H	0.177868	-0.524676	0.881342
H417	H	-0.279317	-0.964546	0.381363
H418	H	0.220683	-0.464546	0.881363
H419	H	-0.340168	-0.878698	0.371753
H420	H	0.159832	-0.378698	0.871753
H421	H	-0.382984	-0.938838	0.371717
H422	H	0.117016	-0.438838	0.871717
H423	H	-0.342979	-0.934966	0.326425
H424	H	0.157021	-0.434966	0.826425
H425	H	-0.801260	-0.930904	0.345926
H426	H	-0.301260	-0.430904	0.845926
H427	H	-0.345952	-0.930907	0.801651
H428	H	0.154048	-0.430907	1.301651
C429	C	-0.182163	-1.161664	0.444132
C430	C	0.317837	-0.661664	0.944132
C431	C	-0.152871	-1.202903	0.479738
C432	C	0.347129	-0.702903	0.979738
C433	C	-0.119374	-1.250036	0.452550
C434	C	0.380626	-0.750036	0.952550
H435	H	-0.202111	-1.193770	0.422826
H436	H	0.297889	-0.693770	0.922826
H437	H	-0.159353	-1.133550	0.422847
H438	H	0.340647	-0.633550	0.922847
H439	H	-0.175678	-1.231015	0.501014
H440	H	0.324322	-0.731015	1.001014
H441	H	-0.132912	-1.170816	0.501046
H442	H	0.367088	-0.670816	1.001046
H443	H	-0.096564	-1.221922	0.431265
H444	H	0.403436	-0.721922	0.931265
H445	H	-0.139326	-1.282137	0.431245
H446	H	0.360674	-0.782137	0.931245
H447	H	-0.099492	-1.278017	0.476705
H448	H	0.400508	-0.778017	0.976705
