data_functionalizedCrystal
_audit_creation_method	'MofGen! by Chris Wilmer'
_symmetry_space_group_name_H-M	'P1'
_symmetry_Int_Tables_number	1
_symmetry_cell_setting	triclinic
loop_
_symmetry_equiv_pos_as_xyz
  x,y,z
_cell_length_a	10.654550
_cell_length_b	9.130313
_cell_length_c	10.654551
_cell_angle_alpha	89.998448
_cell_angle_beta	84.485132
_cell_angle_gamma	90.003780
loop_
_atom_site_label
_atom_site_type_symbol
_atom_site_fract_x
_atom_site_fract_y
_atom_site_fract_z
O1	O	1.667835	0.121910	0.176393
O2	O	1.302356	0.121885	0.193199
O3	O	1.493498	0.121899	0.002057
O4	O	1.476693	0.121896	0.367535
O5	O	1.493496	-0.121700	0.002062
O6	O	1.302354	-0.121713	0.193204
O7	O	1.667832	-0.121689	0.176398
Cu8	Cu	1.485093	-0.143944	0.184802
Cu9	Cu	1.485096	0.144140	0.184796
O10	O	1.476691	-0.121703	0.367540
C11	C	1.255557	0.000083	0.191968
C12	C	1.116114	0.000074	0.188276
C13	C	1.036629	0.000095	0.300817
C14	C	0.905608	0.000120	0.297341
C15	C	0.933570	0.000110	0.068771
C16	C	1.064589	0.000074	0.072249
C17	C	1.088154	0.000094	0.416844
C18	C	1.008667	0.000116	0.529395
C19	C	0.877647	0.000142	0.525918
C20	C	0.826112	0.000145	0.409891
N21	N	1.485100	-0.346566	0.184805
C22	C	1.569760	-0.423212	0.100196
C23	C	1.569756	-0.576549	0.100181
C24	C	1.400430	-0.576581	0.269395
C25	C	1.400428	-0.423246	0.269403
C26	C	1.654431	-0.346532	0.015599
C27	C	1.739099	-0.423178	-0.069016
C28	C	1.739095	-0.576515	-0.069031
C29	C	1.654425	-0.653206	0.015569
C30	C	1.714632	0.000117	0.177629
C31	C	1.854075	0.000135	0.181321
C32	C	1.492263	0.000103	-0.044739
C33	C	1.488570	0.000112	-0.184182
N34	N	1.485098	0.346763	0.184782
C35	C	1.486839	0.132895	-0.249696
C36	C	1.483359	0.132888	-0.380717
C37	C	1.483346	-0.132696	-0.380697
C38	C	1.486817	-0.132688	-0.249678
C39	C	1.488592	0.265696	-0.184201
C40	C	1.486863	0.398490	-0.249716
C41	C	1.483382	0.398483	-0.380736
C42	C	1.481632	0.265682	-0.446241
C43	C	1.477926	0.000097	0.414336
C44	C	1.481619	0.000097	0.553779
H45	H	1.129308	0.000062	-0.019392
O46	O	1.491745	0.265782	-0.056901
C47	C	1.384353	0.338664	0.000147
H48	H	1.306458	0.336321	-0.066071
H49	H	1.350229	0.281458	0.092263
H50	H	1.409531	0.457142	0.020380
O51	O	0.883305	0.000191	-0.043822
C52	C	0.750620	0.000194	-0.022758
H53	H	0.720726	0.046315	0.074984
H54	H	0.709773	0.070935	-0.097065
H55	H	0.714069	-0.116661	-0.029160
H56	H	1.194836	0.000080	0.419687
O57	O	0.800379	-0.000099	0.635207
C58	C	0.723702	-0.126222	0.640036
H59	H	0.771097	-0.214421	0.576242
H60	H	0.709840	-0.168557	0.741078
H61	H	0.628169	-0.097678	0.606694
O62	O	0.698831	0.000425	0.406575
C63	C	0.647413	0.126578	0.468125
H64	H	0.723182	0.214741	0.468115
H65	H	0.565795	0.168947	0.416556
H66	H	0.611683	0.098057	0.569473
O67	O	1.488276	-0.261626	-0.185934
C68	C	1.381717	-0.269526	-0.096851
H69	H	1.304789	-0.194180	-0.127079
H70	H	1.345299	-0.386969	-0.090878
H71	H	1.408894	-0.233820	-0.000564
O72	O	1.821145	-0.348555	-0.151291
C73	C	1.753183	-0.259918	-0.229410
H74	H	1.655366	-0.236930	-0.180264
H75	H	1.805431	-0.152100	-0.248849
H76	H	1.743797	-0.319047	-0.322286
O77	O	1.821452	-0.650744	-0.151271
C78	C	1.896156	-0.550178	-0.225955
H79	H	1.898017	-0.440884	-0.174438
H80	H	1.996284	-0.594471	-0.244180
H81	H	1.854577	-0.533857	-0.319635
H82	H	1.050636	0.000101	0.623860
O83	O	1.318141	-0.651237	0.351402
C84	C	1.240065	-0.739907	0.283414
H85	H	1.289234	-0.762858	0.185599
H86	H	1.220658	-0.847741	0.335643
H87	H	1.147171	-0.680825	0.274023
H88	H	1.654420	-0.778063	0.015541
H89	H	1.478779	0.265687	-0.552925
H90	H	1.654444	-0.221678	0.015606
O91	O	1.318150	-0.349010	0.351716
C92	C	1.243404	-0.449566	0.426369
H93	H	1.294902	-0.558866	0.428267
H94	H	1.225113	-0.405269	0.526492
H95	H	1.149759	-0.465874	0.384719
H96	H	1.488276	0.506611	-0.196371
O97	O	1.481472	0.527431	-0.444408
C98	C	1.370898	0.535361	-0.506938
H99	H	1.296050	0.460011	-0.458166
H100	H	1.334422	0.652808	-0.503974
H101	H	1.392808	0.499681	-0.609235
H102	H	1.481921	-0.240816	-0.434042
