data_functionalizedCrystal
_audit_creation_method	'MofGen! by Chris Wilmer'
_symmetry_space_group_name_H-M	'P1'
_symmetry_Int_Tables_number	1
_symmetry_cell_setting	triclinic
loop_
_symmetry_equiv_pos_as_xyz
  x,y,z
_cell_length_a	14.044191
_cell_length_b	14.044220
_cell_length_c	12.503572
_cell_angle_alpha	93.843168
_cell_angle_beta	86.162165
_cell_angle_gamma	93.190327
loop_
_atom_site_label
_atom_site_type_symbol
_atom_site_fract_x
_atom_site_fract_y
_atom_site_fract_z
O1	O	1.282208	0.225145	-0.089273
O2	O	1.782208	0.725145	0.410727
O3	O	1.005536	0.216832	-0.089287
O4	O	1.505536	0.716832	0.410713
O5	O	1.139719	0.082653	-0.089269
O6	O	1.639719	0.582653	0.410731
O7	O	1.148026	0.359324	-0.089290
O8	O	1.648026	0.859324	0.410710
O9	O	1.129629	0.092762	0.089371
O10	O	1.629629	0.592762	0.589371
O11	O	0.995447	0.226941	0.089354
O12	O	1.495447	0.726941	0.589354
O13	O	1.272118	0.235254	0.089368
O14	O	1.772118	0.735254	0.589368
Cu15	Cu	1.132861	0.232021	0.105672
Cu16	Cu	1.632861	0.732021	0.605672
Cu17	Cu	1.144794	0.220065	-0.105591
Cu18	Cu	1.644794	0.720065	0.394409
O19	O	1.137936	0.369433	0.089350
O20	O	1.637936	0.869433	0.589350
C21	C	0.964870	0.218250	0.000032
C22	C	1.464870	0.718250	0.500032
C23	C	0.858727	0.207402	0.000027
C24	C	1.358727	0.707402	0.500027
C25	C	0.613268	0.264503	0.000034
C26	C	1.113268	0.764503	0.500034
C27	C	0.664393	0.187587	0.000038
C28	C	1.164393	0.687587	0.500038
C29	C	0.772531	0.198615	0.000032
C30	C	1.272531	0.698615	0.500032
C31	C	0.505121	0.253477	0.000040
C32	C	1.005121	0.753477	0.500040
C33	C	1.131038	0.052086	0.000051
C34	C	1.631038	0.552086	0.500051
C35	C	1.120194	-0.054057	0.000052
C36	C	1.620194	0.445943	0.500052
C37	C	1.100368	-0.248396	0.000036
C38	C	1.600368	0.251604	0.500036
C39	C	1.177283	-0.299524	0.000036
C40	C	1.677283	0.200476	0.500036
C41	C	1.166252	-0.407661	0.000027
C42	C	1.666252	0.092339	0.500027
C43	C	1.111398	-0.140249	0.000045
C44	C	1.611398	0.359751	0.500045
C45	C	1.312785	0.233836	0.000046
C46	C	1.812785	0.733836	0.500046
C47	C	1.418929	0.244683	0.000044
C48	C	1.918929	0.744683	0.500044
C49	C	1.146617	0.400000	0.000027
C50	C	1.646617	0.900000	0.500027
C51	C	1.157462	0.506143	0.000020
C52	C	1.657462	1.006143	0.500020
N53	N	1.124476	0.240429	0.254263
N54	N	1.624476	0.740429	0.754263
N55	N	1.153186	0.211650	-0.254182
N56	N	1.653186	0.711650	0.245818
C57	C	1.112141	0.252807	0.473377
C58	C	1.612141	0.752807	0.973377
C59	C	1.165518	0.199275	0.526711
C60	C	1.665518	0.699275	1.026711
C61	C	1.158655	0.206162	0.648633
C62	C	1.658655	0.706162	1.148633
C63	C	1.119003	0.245921	0.351444
C64	C	1.619003	0.745921	0.851444
H65	H	0.626954	0.113450	-0.000032
H66	H	1.126954	0.613450	0.499968
C67	C	1.227448	0.136515	0.354210
C68	C	1.727448	0.636515	0.854210
C69	C	1.233947	0.130200	0.464748
C70	C	1.733947	0.630200	0.964748
H71	H	1.269630	0.093810	0.315957
H72	H	1.769630	0.593810	0.815957
H73	H	1.163785	0.120018	0.335987
H74	H	1.663785	0.620018	0.835987
H75	H	1.244540	0.200001	0.335721
H76	H	1.744540	0.700001	0.835721
H77	H	1.216849	0.066716	0.483239
H78	H	1.716849	0.566716	0.983239
H79	H	1.297625	0.146691	0.482979
H80	H	1.797625	0.646691	0.982979
C81	C	1.321829	-0.270270	0.091894
C82	C	1.821829	0.229730	0.591894
C83	C	1.277363	-0.248988	0.000057
C84	C	1.777363	0.251012	0.500057
H85	H	1.383613	-0.239071	0.091904
H86	H	1.883613	0.260929	0.591904
H87	H	1.284603	-0.248807	0.154173
H88	H	1.784603	0.251193	0.654173
H89	H	1.327441	-0.337366	0.091875
H90	H	1.827441	0.162634	0.591875
H91	H	1.271745	-0.181892	0.000079
H92	H	1.771745	0.318108	0.500079
H93	H	1.314598	-0.270446	-0.062239
H94	H	1.814598	0.229554	0.437761
C95	C	1.008601	-0.397827	0.000040
C96	C	1.508601	0.102173	0.500040
C97	C	1.000294	-0.298933	0.000040
C98	C	1.500294	0.201067	0.500040
H99	H	0.946819	-0.429031	0.000053
H100	H	1.446819	0.070969	0.500053
H101	H	1.045809	-0.419281	-0.062256
H102	H	1.545809	0.080719	0.437744
H103	H	1.038795	-0.412236	0.062336
H104	H	1.538795	0.087764	0.562336
H105	H	0.970106	-0.284523	-0.062260
H106	H	1.470106	0.215477	0.437740
H107	H	0.963072	-0.277470	0.062343
H108	H	1.463072	0.222530	0.562343
H109	H	1.061292	0.303807	0.519278
H110	H	1.561292	0.803807	1.019278
H111	H	0.650710	0.338629	0.000025
H112	H	1.150710	0.838629	0.500025
