data_functionalizedCrystal
_audit_creation_method	'MofGen! by Chris Wilmer'
_symmetry_space_group_name_H-M	'P1'
_symmetry_Int_Tables_number	1
_symmetry_cell_setting	triclinic
loop_
_symmetry_equiv_pos_as_xyz
  x,y,z
_cell_length_a	18.101395
_cell_length_b	18.101398
_cell_length_c	14.908308
_cell_angle_alpha	86.729425
_cell_angle_beta	93.266316
_cell_angle_gamma	89.976925
loop_
_atom_site_label
_atom_site_type_symbol
_atom_site_fract_x
_atom_site_fract_y
_atom_site_fract_z
Zn1	Zn	-0.319144	-1.107938	-0.510280
Zn2	Zn	-0.435852	-1.114983	-0.359427
Zn3	Zn	-0.312011	-0.991246	-0.359419
Zn4	Zn	-0.442928	-0.984051	-0.510213
O5	O	-0.377484	-1.049554	-0.434835
O6	O	-0.334650	-1.212504	-0.490300
O7	O	-0.413477	-1.104529	-0.233185
O8	O	-0.209325	-1.006789	-0.379456
O9	O	-0.420394	-1.217680	-0.379469
O10	O	-0.214566	-1.092521	-0.490293
O11	O	-0.322492	-1.013620	-0.233180
O12	O	-0.329353	-0.886660	-0.379391
O13	O	-0.432455	-0.994525	-0.636462
O14	O	-0.425538	-0.881374	-0.490178
O15	O	-0.341511	-1.085544	-0.636511
O16	O	-0.540422	-1.097551	-0.379404
O17	O	-0.545621	-1.001356	-0.490186
C18	C	-0.377440	-0.857147	-0.434777
C19	C	-0.377440	-0.774833	-0.434774
C20	C	-0.377472	-0.475739	-0.434833
C21	C	-0.316687	-0.510349	-0.365470
C22	C	-0.316833	-0.595981	-0.365179
C23	C	-0.377455	-0.624123	-0.434804
C24	C	-0.454236	-0.594236	-0.408828
C25	C	-0.453888	-0.508614	-0.408341
C26	C	-0.362164	-0.502827	-0.530336
C27	C	-0.360407	-0.588503	-0.529820
C28	C	-0.377451	-0.707983	-0.434788
C29	C	-0.377481	-0.391879	-0.434846
C30	C	-0.569893	-1.049457	-0.434808
C31	C	-0.652208	-1.049481	-0.434827
C32	C	-0.951301	-1.049641	-0.434876
C33	C	-0.923286	-0.989242	-0.504750
C34	C	-0.837658	-0.988981	-0.504531
C35	C	-0.802918	-1.049562	-0.434852
C36	C	-0.829565	-1.032939	-0.339773
C37	C	-0.915230	-1.032551	-0.340191
C38	C	-0.920809	-1.126828	-0.459244
C39	C	-0.835257	-1.126269	-0.461329
C40	C	-0.719057	-1.049518	-0.434833
C41	C	-1.035161	-1.049683	-0.434888
C42	C	-0.184324	-1.049672	-0.434881
C43	C	-0.102011	-1.049722	-0.434901
C44	C	-0.388568	-1.038446	-0.670135
C45	C	-0.393292	-1.033712	-0.770406
C46	C	-0.377513	-0.242714	-0.434879
C47	C	-0.377487	-0.325029	-0.434863
C48	C	-0.307451	-1.119593	-0.958878
C49	C	-0.311886	-1.115148	-1.053092
C50	C	-0.406594	-1.020372	-1.053048
C51	C	-0.402158	-1.024818	-0.958834
C52	C	-0.352586	-1.074431	-0.911753
C53	C	-0.348155	-1.078879	-0.817538
C54	C	-0.442858	-0.984101	-0.817495
C55	C	-0.447294	-0.979655	-0.911709
C56	C	-0.366389	-1.060662	-0.200450
C57	C	-0.361457	-1.065540	-0.100180
H58	H	-0.467400	-0.491911	-0.338524
F59	F	-0.490904	-0.936039	-0.767334
F60	F	-0.940142	-0.958977	-0.313212
F61	F	-0.286589	-0.613889	-0.555430
H62	H	-0.487652	-0.939261	-0.950055
F63	F	-0.950518	-0.914792	-0.483931
H64	H	-0.933405	-1.074879	-0.286353
H65	H	-0.259756	-0.616250	-0.381461
H66	H	-0.500546	-0.612281	-0.457770
F67	F	-0.241836	-0.482466	-0.386512
F68	F	-0.809950	-0.914080	-0.483435
H69	H	-0.938656	-1.171772	-0.408352
H70	H	-0.326317	-0.492134	-0.295115
F71	F	-0.812974	-1.142763	-0.552790
F72	F	-0.295398	-1.131683	-0.767431
F73	F	-0.290562	-0.473171	-0.561202
H74	H	-0.275131	-1.151922	-1.091458
F75	F	-0.459343	-0.967571	-1.103170
F76	F	-0.954523	-1.001964	-0.597199
F77	F	-0.799640	-1.088889	-0.269866
H78	H	-0.811617	-1.173288	-0.414147
H79	H	-0.945586	-1.142862	-0.527395
F80	F	-0.800308	-0.960179	-0.312309
F81	F	-0.254700	-1.172401	-0.908769
H82	H	-0.326594	-0.619789	-0.294414
H83	H	-0.500469	-0.485602	-0.456659
H84	H	-0.468077	-0.618923	-0.339767
H85	H	-0.401816	-0.607327	-0.584272
H86	H	-0.406492	-0.480122	-0.582018
H87	H	-0.819933	-0.998860	-0.575031
