data_functionalizedCrystal
_audit_creation_method	'MofGen! by Chris Wilmer'
_symmetry_space_group_name_H-M	'P1'
_symmetry_Int_Tables_number	1
_symmetry_cell_setting	triclinic
loop_
_symmetry_equiv_pos_as_xyz
  x,y,z
_cell_length_a	10.723024
_cell_length_b	15.995350
_cell_length_c	9.198806
_cell_angle_alpha	89.999047
_cell_angle_beta	89.996352
_cell_angle_gamma	83.980122
loop_
_atom_site_label
_atom_site_type_symbol
_atom_site_fract_x
_atom_site_fract_y
_atom_site_fract_z
O1	O	1.655690	0.117435	-0.120875
O2	O	1.292394	0.128675	-0.120879
O3	O	1.483973	0.001224	-0.120876
O4	O	1.464111	0.244886	-0.120879
O5	O	1.483957	0.001224	0.120909
O6	O	1.292379	0.128675	0.120906
O7	O	1.655674	0.117434	0.120910
Cu8	Cu	1.474025	0.123055	0.142985
Cu9	Cu	1.474043	0.123055	-0.142954
O10	O	1.464096	0.244885	0.120906
C11	C	1.245897	0.127857	0.000013
C12	C	1.107374	0.125410	0.000011
C13	C	1.031482	0.196725	0.000009
C14	C	0.888310	0.194197	0.000007
C15	C	1.483144	-0.029975	0.000014
C16	C	1.480682	-0.122940	0.000006
C17	C	1.471842	-0.460738	0.000011
C18	C	1.335403	-0.414088	-0.000533
C19	C	1.337865	-0.317383	0.000012
C20	C	1.476227	-0.293152	0.000007
C21	C	1.543515	-0.333843	0.138077
C22	C	1.540087	-0.430499	0.138192
C23	C	1.542923	-0.430840	-0.136763
C24	C	1.542891	-0.333895	-0.138587
C25	C	1.478712	-0.198441	0.000010
C26	C	1.469360	-0.555450	0.000017
C27	C	1.702171	0.118252	0.000015
C28	C	1.840694	0.120700	0.000007
C29	C	1.464924	0.276085	0.000013
C30	C	1.467386	0.369049	0.000012
N31	N	1.474022	0.123054	0.344099
N32	N	1.474056	0.123049	-0.344068
C33	C	1.554463	0.069305	0.416297
C34	C	1.554482	0.069302	0.583709
H35	H	0.823099	0.255248	-0.000000
H36	H	1.623356	0.023288	0.645797
N37	N	0.922465	0.044095	-0.000003
N38	N	0.917986	-0.007190	-0.101919
H39	H	0.975743	-0.061293	-0.101927
N40	N	1.669109	-0.469974	-0.137951
N41	N	1.707460	-0.515705	-0.242300
H42	H	1.796574	-0.543348	-0.243128
H43	H	1.281105	-0.433994	0.097926
H44	H	1.072501	0.259651	0.000016
N45	N	1.055931	0.046464	0.000044
N46	N	0.986578	0.028244	0.101970
H47	H	0.950249	-0.027514	0.101998
N48	N	1.271048	-0.282817	0.124388
N49	N	1.222459	-0.330125	0.211067
H50	H	1.175269	-0.305714	0.298916
H51	H	1.284972	-0.289265	-0.098962
H52	H	1.491008	-0.449082	0.241404
N53	N	1.387671	0.180796	0.578066
N54	N	1.427550	0.232880	0.493102
H55	H	1.366541	0.273665	0.438100
N56	N	1.669478	-0.313913	-0.149032
N57	N	1.757883	-0.371441	-0.149389
H58	H	1.847292	-0.357330	-0.156752
N59	N	1.387620	0.180769	0.422023
N60	N	1.310113	0.153829	0.506996
H61	H	1.249087	0.194590	0.562028
N62	N	1.267011	-0.437725	-0.124756
N63	N	1.318020	-0.489233	-0.214337
H64	H	1.269720	-0.505930	-0.302078
N65	N	1.665751	-0.470225	0.146067
N66	N	1.755702	-0.426540	0.151470
H67	H	1.844452	-0.454593	0.157042
H68	H	1.645165	-0.319134	0.143208
N69	N	1.640791	0.011495	0.338464
N70	N	1.756199	0.013019	0.355318
H71	H	1.817145	-0.027846	0.300385
H72	H	1.496767	-0.305731	0.240826
N73	N	1.487000	-0.456922	-0.268064
N74	N	1.550316	-0.503797	-0.355448
H75	H	1.510813	-0.522216	-0.448176
N76	N	1.481244	-0.300001	-0.266717
N77	N	1.388557	-0.246037	-0.256114
H78	H	1.345015	-0.222094	-0.346602
