data_functionalizedCrystal
_audit_creation_method	'MofGen! by Chris Wilmer'
_symmetry_space_group_name_H-M	'P1'
_symmetry_Int_Tables_number	1
_symmetry_cell_setting	triclinic
loop_
_symmetry_equiv_pos_as_xyz
  x,y,z
_cell_length_a	14.853558
_cell_length_b	19.188924
_cell_length_c	13.330367
_cell_angle_alpha	89.993282
_cell_angle_beta	89.992972
_cell_angle_gamma	83.386549
loop_
_atom_site_label
_atom_site_type_symbol
_atom_site_fract_x
_atom_site_fract_y
_atom_site_fract_z
O1	O	1.195864	0.091125	-0.083416
O2	O	1.695864	0.591125	0.416584
O3	O	0.933343	0.101990	-0.083421
O4	O	1.433343	0.601990	0.416579
O5	O	1.072183	-0.005074	-0.083407
O6	O	1.572183	0.494926	0.416593
O7	O	1.057025	0.198188	-0.083431
O8	O	1.557025	0.698188	0.416569
O9	O	1.072163	-0.005076	0.083441
O10	O	1.572163	0.494924	0.583441
O11	O	0.933323	0.101988	0.083426
O12	O	1.433323	0.601988	0.583426
O13	O	1.195844	0.091122	0.083431
O14	O	1.695844	0.591122	0.583431
Cu15	Cu	1.064582	0.096555	0.098663
Cu16	Cu	1.564582	0.596555	0.598663
Cu17	Cu	1.064606	0.096558	-0.098653
Cu18	Cu	1.564606	0.596558	0.401347
O19	O	1.057005	0.198186	0.083417
O20	O	1.557005	0.698186	0.583417
C21	C	0.899747	0.101498	0.000002
C22	C	1.399747	0.601498	0.500002
C23	C	0.799671	0.100026	0.000000
C24	C	1.299671	0.600026	0.500000
C25	C	0.752666	0.099337	-0.090952
C26	C	1.252666	0.599337	0.409048
C27	C	0.752642	0.099326	0.090951
C28	C	1.252642	0.599326	0.590951
C29	C	0.658616	0.097939	0.090953
C30	C	1.158616	0.597939	0.590953
C31	C	0.611611	0.097251	0.000001
C32	C	1.111611	0.597251	0.500001
C33	C	0.658631	0.097948	-0.090953
C34	C	1.158631	0.597948	0.409047
C35	C	0.611590	0.097235	0.181905
C36	C	1.111590	0.597235	0.681905
C37	C	0.517558	0.095847	0.181911
C38	C	1.017558	0.595847	0.681911
C39	C	0.470550	0.095163	0.090958
C40	C	0.970550	0.595163	0.590958
C41	C	0.517577	0.095862	0.000000
C42	C	1.017577	0.595862	0.500000
C43	C	0.470571	0.095173	-0.090952
C44	C	0.970571	0.595173	0.409048
C45	C	0.517595	0.095876	-0.181911
C46	C	1.017595	0.595876	0.318089
C47	C	0.611623	0.097264	-0.181906
C48	C	1.111623	0.597264	0.318094
C49	C	0.376522	0.093775	0.090953
C50	C	0.876522	0.593775	0.590953
C51	C	0.376537	0.093784	-0.090953
C52	C	0.876537	0.593784	0.409047
C53	C	1.071683	-0.031087	0.000018
C54	C	1.571683	0.468913	0.500018
C55	C	1.070212	-0.108597	0.000021
C56	C	1.570212	0.391403	0.500021
C57	C	1.069537	-0.144997	-0.090928
C58	C	1.569537	0.355003	0.409072
C59	C	1.068143	-0.217824	-0.090936
C60	C	1.568143	0.282176	0.409064
C61	C	1.067442	-0.254251	0.000010
C62	C	1.567442	0.245749	0.500010
C63	C	1.068112	-0.217842	0.090971
C64	C	1.568112	0.282158	0.590971
C65	C	1.069497	-0.145015	0.090976
C66	C	1.569497	0.354985	0.590976
N67	N	1.116562	-0.373752	0.067700
N68	N	1.616562	0.126248	0.567700
N69	N	1.115248	-0.442935	0.067689
N70	N	1.615248	0.057065	0.567689
C71	C	1.063266	-0.473674	0.000001
C72	C	1.563266	0.026326	0.500001
N73	N	1.012659	-0.432617	-0.067692
N74	N	1.512659	0.067383	0.432308
N75	N	1.013977	-0.363429	-0.067684
N76	N	1.513977	0.136571	0.432316
C77	C	1.065939	-0.333219	0.000015
C78	C	1.565939	0.166781	0.500015
C79	C	1.061077	-0.589041	-0.090963
C80	C	1.561077	-0.089041	0.409037
C81	C	1.059677	-0.661869	-0.090966
C82	C	1.559677	-0.161869	0.409034
C83	C	1.059656	-0.661886	0.090943
C84	C	1.559656	-0.161886	0.590943
C85	C	1.061047	-0.589059	0.090944
C86	C	1.561047	-0.089059	0.590944
C87	C	1.061762	-0.552641	-0.000011
C88	C	1.561762	-0.052641	0.499989
C89	C	1.229440	0.091614	0.000006
C90	C	1.729440	0.591614	0.500006
C91	C	1.329516	0.093086	0.000001
C92	C	1.829516	0.593086	0.500001
C93	C	1.057504	0.224200	-0.000010
C94	C	1.557504	0.724200	0.499990
C95	C	1.058975	0.301709	-0.000019
C96	C	1.558975	0.801709	0.499981
N97	N	1.064572	0.096552	0.237445
N98	N	1.564572	0.596552	0.737445
N99	N	1.064623	0.096554	-0.237435
N100	N	1.564623	0.596554	0.262565
C101	C	1.003125	0.143947	0.710061
C102	C	1.503125	0.643947	1.210061
C103	C	1.126111	0.049163	0.710042
C104	C	1.626111	0.549163	1.210042
C105	C	1.126100	0.049161	0.605024
C106	C	1.626100	0.549161	1.105024
C107	C	1.064602	0.096553	0.552519
C108	C	1.564602	0.596553	1.052519
C109	C	1.003114	0.143947	0.605033
C110	C	1.503114	0.643947	1.105033
C111	C	1.187593	0.001772	0.552502
C112	C	1.687593	0.501772	1.052502
C113	C	1.187586	0.001768	0.447477
C114	C	1.687586	0.501768	0.947477
C115	C	1.126083	0.049158	0.394971
C116	C	1.626083	0.549158	0.894971
C117	C	1.064592	0.096554	0.447491
C118	C	1.564592	0.596554	0.947491
C119	C	1.003094	0.143946	0.394986
C120	C	1.503094	0.643946	0.894986
C121	C	0.941598	0.191339	0.447505
C122	C	1.441598	0.691339	0.947505
C123	C	0.941611	0.191337	0.552526
C124	C	1.441611	0.691337	1.052526
C125	C	1.126070	0.049160	0.289949
C126	C	1.626070	0.549160	0.789949
C127	C	1.003084	0.143947	0.289958
C128	C	1.503084	0.643947	0.789958
H129	H	0.649870	0.097789	0.255954
H130	H	1.149870	0.597789	0.755954
H131	H	1.061604	-0.559422	0.165005
H132	H	1.561604	-0.059422	0.665005
H133	H	0.479311	0.095311	-0.255964
H134	H	0.979311	0.595311	0.244036
H135	H	0.338238	0.093209	0.165010
H136	H	0.838238	0.593209	0.665010
H137	H	1.061654	-0.559388	-0.165024
H138	H	1.561654	-0.059388	0.334976
H139	H	1.176143	0.010576	0.247193
H140	H	1.676143	0.510576	0.747193
H141	H	0.953053	0.182532	0.752824
H142	H	1.453053	0.682532	1.252824
H143	H	1.237668	-0.036810	0.595254
H144	H	1.737668	0.463190	1.095254
H145	H	1.176185	0.010581	0.752794
H146	H	1.676185	0.510581	1.252794
H147	H	1.070117	-0.115350	-0.164991
H148	H	1.570117	0.384650	0.335009
H149	H	1.237658	-0.036822	0.404723
H150	H	1.737658	0.463178	0.904723
H151	H	0.891544	0.229923	0.595293
H152	H	1.391544	0.729923	1.095293
H153	H	0.649919	0.097836	-0.255960
H154	H	1.149919	0.597836	0.244040
H155	H	1.059123	-0.691504	-0.165031
H156	H	1.559123	-0.191504	0.334969
H157	H	0.790956	0.099913	-0.165008
H158	H	1.290956	0.599913	0.334992
H159	H	1.059078	-0.691543	0.164993
H160	H	1.559078	-0.191543	0.664993
H161	H	1.067539	-0.247505	0.165020
H162	H	1.567539	0.252495	0.665020
H163	H	0.338271	0.093227	-0.165018
H164	H	0.838271	0.593227	0.334982
H165	H	0.790920	0.099882	0.165000
H166	H	1.290920	0.599882	0.665000
H167	H	0.479280	0.095274	0.255975
H168	H	0.979280	0.595274	0.755975
H169	H	0.953001	0.182537	0.247215
H170	H	1.453001	0.682537	0.747215
H171	H	1.070044	-0.115378	0.165040
H172	H	1.570044	0.384622	0.665040
H173	H	1.067587	-0.247466	-0.164999
H174	H	1.567587	0.252534	0.335001
H175	H	0.891529	0.229929	0.404744
H176	H	1.391529	0.729929	0.904744
