data_functionalizedCrystal
_audit_creation_method	'MofGen! by Chris Wilmer'
_symmetry_space_group_name_H-M	'P1'
_symmetry_Int_Tables_number	1
_symmetry_cell_setting	triclinic
loop_
_symmetry_equiv_pos_as_xyz
  x,y,z
_cell_length_a	16.959454
_cell_length_b	14.908783
_cell_length_c	16.959447
_cell_angle_alpha	86.681167
_cell_angle_beta	89.976829
_cell_angle_gamma	93.311155
loop_
_atom_site_label
_atom_site_type_symbol
_atom_site_fract_x
_atom_site_fract_y
_atom_site_fract_z
Zn1	Zn	-0.245059	1.379244	-0.516780
Zn2	Zn	0.254941	1.879244	-0.016780
Zn3	Zn	-0.377248	1.379147	-0.384605
Zn4	Zn	0.122752	1.879147	0.115395
Zn5	Zn	-0.252699	1.228379	-0.376977
Zn6	Zn	0.247301	1.728379	0.123023
Zn7	Zn	-0.384817	1.228347	-0.509106
Zn8	Zn	0.115183	1.728347	-0.009106
O9	O	-0.314956	1.303779	-0.446867
O10	O	0.185044	1.803779	0.053133
O11	O	-0.256228	1.505479	-0.505651
O12	O	0.243772	2.005479	-0.005651
O13	O	-0.360756	1.359120	-0.272981
O14	O	0.139244	1.859120	0.227019
O15	O	-0.141072	1.248445	-0.395542
O16	O	0.358928	1.748445	0.104458
O17	O	-0.353347	1.505408	-0.408542
O18	O	0.146653	2.005408	0.091458
O19	O	-0.135458	1.359285	-0.498254
O20	O	0.364542	1.859285	0.001746
O21	O	-0.269250	1.248351	-0.267377
O22	O	0.230750	1.748351	0.232623
O23	O	-0.276590	1.102126	-0.388101
O24	O	0.223410	1.602126	0.111899
O25	O	-0.366249	1.248391	-0.620737
O26	O	0.133751	1.748391	-0.120737
O27	O	-0.373657	1.102103	-0.485175
O28	O	0.126343	1.602103	0.014825
O29	O	-0.263568	1.359254	-0.626375
O30	O	0.236432	1.859254	-0.126375
O31	O	-0.488865	1.359089	-0.401101
O32	O	0.011135	1.859089	0.098899
O33	O	-0.494427	1.248297	-0.492572
O34	O	0.005573	1.748297	0.007428
C35	C	-0.326775	1.069380	-0.434978
C36	C	0.173225	1.569380	0.065022
C37	C	-0.331850	0.969103	-0.429910
C38	C	0.168150	1.469103	0.070090
C39	C	-0.240396	0.780744	-0.521662
C40	C	0.259604	1.280744	-0.021662
C41	C	-0.245162	0.686524	-0.516903
C42	C	0.254838	1.186524	-0.016903
C43	C	-0.346144	0.686443	-0.415631
C44	C	0.153856	1.186443	0.084369
C45	C	-0.341378	0.780662	-0.420389
C46	C	0.158622	1.280662	0.079611
C47	C	-0.288503	0.827809	-0.473407
C48	C	0.211497	1.327809	0.026593
C49	C	-0.283741	0.922030	-0.478170
C50	C	0.216259	1.422030	0.021830
C51	C	-0.384719	0.921947	-0.376894
C52	C	0.115281	1.421947	0.123106
C53	C	-0.389485	0.827728	-0.372135
C54	C	0.110515	1.327728	0.127865
C55	C	-0.520326	1.303704	-0.446850
C56	C	-0.020326	1.803704	0.053150
C57	C	-0.608180	1.303754	-0.446873
C58	C	-0.108180	1.803754	0.053127
C59	C	-0.982576	1.246173	-0.494495
C60	C	-0.482576	1.746173	0.005505
C61	C	-0.976720	1.361636	-0.399333
C62	C	-0.476720	1.861636	0.100667
C63	C	-0.894175	1.361605	-0.399324
C64	C	-0.394175	1.861605	0.100676
C65	C	-0.855828	1.303856	-0.446900
C66	C	-0.355828	1.803856	0.053100
C67	C	-0.900024	1.246138	-0.494486
C68	C	-0.400024	1.746138	0.005514
C69	C	-0.849973	1.419315	-0.351734
C70	C	-0.349973	1.919315	0.148266
C71	C	-0.767424	1.419285	-0.351722
C72	C	-0.267424	1.919285	0.148278
C73	C	-0.729074	1.361540	-0.399303
C74	C	-0.229074	1.861540	0.100697
C75	C	-0.773276	1.303820	-0.446891
C76	C	-0.273276	1.803820	0.053109
C77	C	-0.734928	1.246071	-0.494468
C78	C	-0.234928	1.746071	0.005532
C79	C	-0.779128	1.188356	-0.542060
C80	C	-0.279128	1.688356	-0.042060
C81	C	-0.861674	1.188393	-0.542067
C82	C	-0.361674	1.688393	-0.042067
C83	C	-0.646528	1.361503	-0.399297
C84	C	-0.146528	1.861503	0.100703
C85	C	-0.652376	1.246036	-0.494458
C86	C	-0.152376	1.746036	0.005542
C87	C	-0.108782	1.303880	-0.446903
C88	C	0.391218	1.803880	0.053097
C89	C	-0.020924	1.303922	-0.446918
C90	C	0.479076	1.803922	0.053082
C91	C	-0.314900	1.303830	-0.653038
C92	C	0.185100	1.803830	-0.153038
C93	C	-0.314877	1.303851	-0.740896
C94	C	0.185123	1.803851	-0.240896
C95	C	-0.303091	1.539094	-0.458803
C96	C	0.196909	2.039094	0.041197
C97	C	-0.298035	1.639371	-0.463890
C98	C	0.201965	2.139371	0.036110
C99	C	-0.368328	1.246141	-0.779236
C100	C	0.131672	1.746141	-0.279236
C101	C	-0.261400	1.361577	-0.785110
C102	C	0.238600	1.861577	-0.285110
C103	C	-0.261373	1.361595	-0.867656
C104	C	0.238627	1.861595	-0.367656
C105	C	-0.314823	1.303885	-0.905997
C106	C	0.185177	1.803885	-0.405997
C107	C	-0.368301	1.246156	-0.861791
C108	C	0.131699	1.746156	-0.361791
C109	C	-0.207891	1.419317	-0.911868
C110	C	0.292109	1.919317	-0.411868
C111	C	-0.207861	1.419337	-0.994420
C112	C	0.292139	1.919337	-0.494420
C113	C	-0.261316	1.361631	-1.032763
C114	C	0.238684	1.861631	-0.532763
C115	C	-0.314797	1.303900	-0.988551
C116	C	0.185203	1.803900	-0.488551
C117	C	-0.368247	1.246190	-1.026892
C118	C	0.131753	1.746190	-0.526892
C119	C	-0.421732	1.188463	-0.982682
C120	C	0.078268	1.688463	-0.482682
C121	C	-0.421756	1.188449	-0.900133
C122	C	0.078244	1.688449	-0.400133
C123	C	-0.261292	1.361644	-1.115312
C124	C	0.238708	1.861644	-0.615312
C125	C	-0.368220	1.246205	-1.109446
C126	C	0.131780	1.746205	-0.609446
C127	C	-0.314951	1.303781	-0.241501
C128	C	0.185049	1.803781	0.258499
C129	C	-0.314743	1.303934	-0.153653
C130	C	0.185257	1.803934	0.346347
H131	H	-0.197347	0.819131	-0.564834
H132	H	0.302653	1.319131	-0.064834
H133	H	-0.217879	1.408558	-0.753887
H134	H	0.282121	1.908558	-0.253887
N135	N	-0.403154	0.635585	-0.358437
N136	N	0.096846	1.135585	0.141563
H137	H	-0.398866	0.568756	-0.362742
H138	H	0.101134	1.068756	0.137258
H139	H	-0.458794	0.652032	-0.371468
H140	H	0.041206	1.152032	0.128532
H141	H	-0.465247	1.141470	-1.013910
H142	H	0.034753	1.641470	-0.513910
N143	N	-0.479431	1.126189	-0.852446
N144	N	0.020569	1.626189	-0.352446
H145	H	-0.470405	1.061737	-0.863543
H146	H	0.029595	1.561737	-0.363543
H147	H	-0.535173	1.140256	-0.867534
H148	H	-0.035173	1.640256	-0.367534
N149	N	-0.446517	0.776881	-0.314957
N150	N	0.053483	1.276881	0.185043
H151	H	-0.433346	0.793254	-0.259328
H152	H	0.066654	1.293254	0.240672
H153	H	-0.442215	0.710066	-0.319328
H154	H	0.057785	1.210066	0.180672
H155	H	-0.164372	1.466298	-0.880645
H156	H	0.335628	1.966298	-0.380645
N157	N	-0.436616	0.972710	-0.324850
N158	N	0.063384	1.472710	0.175150
H159	H	-0.425578	1.039552	-0.335910
H160	H	0.074422	1.539552	0.164090
H161	H	-0.425082	0.956219	-0.267583
H162	H	0.074918	1.456219	0.232417
H163	H	-0.610544	1.408490	-0.360544
H164	H	-0.110544	1.908490	0.139456
H165	H	-1.007948	1.408648	-0.360593
H166	H	-0.507948	1.908648	0.139407
H167	H	-0.621158	1.199013	-0.533204
H168	H	-0.121158	1.699013	-0.033204
H169	H	-0.164312	1.466343	-1.030409
H170	H	0.335688	1.966343	-0.530409
H171	H	-0.411875	1.199144	-0.743238
H172	H	0.088125	1.699144	-0.243238
N173	N	-0.203608	1.423891	-1.162995
N174	N	0.296392	1.923891	-0.662995
H175	H	-0.169748	1.460443	-1.126180
H176	H	0.330252	1.960443	-0.626180
H177	H	-0.233661	1.465639	-1.199362
H178	H	0.266339	1.965639	-0.699362
N179	N	-0.193269	0.635758	-0.568941
N180	N	0.306731	1.135758	-0.068941
H181	H	-0.159050	0.679926	-0.603245
H182	H	0.340950	1.179926	-0.103245
H183	H	-0.227461	0.596673	-0.603496
H184	H	0.272539	1.096673	-0.103496
H185	H	-0.240689	0.960416	-0.521341
H186	H	0.259311	1.460416	-0.021341
H187	H	-0.747896	1.141332	-0.580793
H188	H	-0.247896	1.641332	-0.080793
N189	N	-0.425876	1.183965	-1.150798
N190	N	0.074124	1.683965	-0.650798
H191	H	-0.459759	1.147397	-1.110264
H192	H	0.040241	1.647397	-0.610264
H193	H	-0.395798	1.142230	-1.182930
H194	H	0.104202	1.642230	-0.682930
H195	H	-1.018567	1.199185	-0.533246
H196	H	-0.518567	1.699185	-0.033246
H197	H	-0.897669	1.141403	-0.580813
H198	H	-0.397669	1.641403	-0.080813
H199	H	-0.881203	1.466324	-0.312993
H200	H	-0.381203	1.966324	0.187007
H201	H	-0.731441	1.466280	-0.312971
H202	H	-0.231441	1.966280	0.187029
