data_functionalizedCrystal
_audit_creation_method	'MofGen! by Chris Wilmer'
_symmetry_space_group_name_H-M	'P1'
_symmetry_Int_Tables_number	1
_symmetry_cell_setting	triclinic
loop_
_symmetry_equiv_pos_as_xyz
  x,y,z
_cell_length_a	6.817900
_cell_length_b	17.982783
_cell_length_c	13.212919
_cell_angle_alpha	89.771088
_cell_angle_beta	106.298290
_cell_angle_gamma	102.448572
loop_
_atom_site_label
_atom_site_type_symbol
_atom_site_fract_x
_atom_site_fract_y
_atom_site_fract_z
V1	V	-4.038697	-0.082963	-0.325868
O2	O	-4.031226	0.027056	-0.319218
O3	O	-3.985090	-0.186689	-0.324068
O4	O	-3.997802	-0.071564	-0.467794
O5	O	-4.018426	-0.088866	-0.174497
V6	V	-4.522027	-0.071000	-0.307710
O7	O	-4.300379	-0.109206	-0.365697
O8	O	-4.710543	-0.044757	-0.267881
O9	O	-4.352428	0.032727	-0.309510
O10	O	-4.646895	-0.181019	-0.314359
O11	O	-4.659695	-0.065097	-0.459081
O12	O	-4.339715	-0.082398	-0.165784
C13	C	-3.828581	-0.212292	-0.319038
C14	C	-3.866088	-0.297024	-0.318512
C15	C	-3.838985	-0.332539	-0.222637
C16	C	-3.874247	-0.412154	-0.222147
C17	C	-3.936597	-0.456254	-0.317532
C18	C	-3.963707	-0.420734	-0.413415
C19	C	-3.928460	-0.341120	-0.413904
C20	C	-4.105858	-0.741808	-0.411443
C21	C	-4.141098	-0.821427	-0.410946
C22	C	-4.051645	-0.812842	-0.219685
C23	C	-4.016398	-0.733228	-0.220174
C24	C	-4.043521	-0.697716	-0.316057
C25	C	-4.005290	-0.611387	-0.316587
C26	C	-3.974814	-0.542580	-0.317002
C27	C	-3.844796	-0.065438	-0.502373
C28	C	-3.892609	-0.056804	-0.618402
C29	C	-4.057720	-0.178045	-0.866827
C30	C	-4.102647	-0.169937	-0.975846
C31	C	-4.027405	-0.032481	-0.945464
C32	C	-3.982478	-0.040589	-0.836444
C33	C	-3.997636	-0.113374	-0.797130
C34	C	-3.952693	-0.121481	-0.688107
C35	C	-3.877467	0.015975	-0.657728
C36	C	-3.922394	0.024083	-0.766747
C37	C	-4.172278	0.058325	-0.314537
C38	C	-4.114010	0.143057	-0.315070
C39	C	-4.156063	-0.088528	-0.131199
C40	C	-4.087489	-0.097157	-0.015169
H41	H	-3.950552	-0.312206	-0.491976
H42	H	-4.014490	-0.456646	-0.491080
H43	H	-3.965027	-0.180745	-0.656100
H44	H	-4.151569	-0.222600	-1.032591
H45	H	-4.015092	0.026777	-0.977494
H46	H	-4.029571	-0.841766	-0.141613
F47	F	-3.906271	0.101541	-0.808601
H48	H	-3.828517	0.068636	-0.600967
F49	F	-3.772613	-0.285612	-0.121112
F50	F	-3.950030	-0.686299	-0.118652
F51	F	-3.845416	-0.449949	-0.120103
F52	F	-4.207456	-0.868359	-0.512473
F53	F	-4.134714	-0.704022	-0.513489
F54	F	-4.073817	-0.255506	-0.824982
