data_functionalizedCrystal
_audit_creation_method	'MofGen! by Chris Wilmer'
_symmetry_space_group_name_H-M	'P1'
_symmetry_Int_Tables_number	1
_symmetry_cell_setting	triclinic
loop_
_symmetry_equiv_pos_as_xyz
  x,y,z
_cell_length_a	21.395364
_cell_length_b	8.497374
_cell_length_c	21.395355
_cell_angle_alpha	90.006094
_cell_angle_beta	89.974323
_cell_angle_gamma	90.010555
loop_
_atom_site_label
_atom_site_type_symbol
_atom_site_fract_x
_atom_site_fract_y
_atom_site_fract_z
Zn1	Zn	-0.958013	-0.628490	0.354334
Zn2	Zn	-0.957980	-0.892262	0.249580
Zn3	Zn	-0.853228	-0.628463	0.249569
Zn4	Zn	-0.853261	-0.892194	0.354318
O5	O	-0.905620	-0.760352	0.301950
O6	O	-1.045686	-0.663520	0.340450
O7	O	-0.944056	-0.857286	0.161900
O8	O	-0.867127	-0.407704	0.263469
O9	O	-1.045662	-0.857312	0.263487
O10	O	-0.944113	-0.407724	0.340440
O11	O	-0.867095	-0.663473	0.161893
O12	O	-0.765554	-0.663407	0.263453
O13	O	-0.867185	-0.857196	0.441998
O14	O	-0.765579	-0.857170	0.340411
O15	O	-0.944145	-0.663454	0.442010
O16	O	-0.944089	-1.113016	0.263471
O17	O	-0.867153	-1.112966	0.340421
C18	C	-0.742833	-0.760279	0.301929
C19	C	-0.673192	-0.760286	0.301935
C20	C	-0.171407	-0.659627	0.342084
C21	C	-0.236843	-0.659620	0.342085
C22	C	-0.269553	-0.760352	0.301951
C23	C	-0.236823	-0.861127	0.261825
C24	C	-0.171389	-0.861142	0.261829
C25	C	-0.373193	-0.772576	0.245487
C26	C	-0.438626	-0.772550	0.245482
C27	C	-0.471374	-0.760315	0.301938
C28	C	-0.438681	-0.748073	0.358402
C29	C	-0.373247	-0.748088	0.358406
C30	C	-0.340506	-0.760348	0.301942
C31	C	-0.575049	-0.659547	0.342067
C32	C	-0.640486	-0.659551	0.342069
C33	C	-0.640464	-0.861050	0.261803
C34	C	-0.575029	-0.861054	0.261806
C35	C	-0.542325	-0.760294	0.301937
C36	C	-0.069044	-0.760408	0.301966
C37	C	-0.138685	-0.760382	0.301960
C38	C	-0.905615	-0.348872	0.301953
C39	C	-0.905615	-0.170228	0.301955
C40	C	-0.905672	-0.760320	0.465374
C41	C	-0.905695	-0.760307	0.535015
C42	C	-0.905605	-0.760270	0.139163
C43	C	-0.905704	-0.759840	0.069522
C44	C	-0.945766	-0.659421	0.567735
C45	C	-0.945765	-0.659353	0.633171
C46	C	-0.905699	-0.760199	0.665883
C47	C	-0.865620	-0.861092	0.633155
C48	C	-0.865618	-0.861146	0.567721
C49	C	-0.900758	-0.902245	0.769561
C50	C	-0.900765	-0.902194	0.834994
C51	C	-0.905703	-0.760033	0.867704
C52	C	-0.910648	-0.617918	0.834973
C53	C	-0.910645	-0.617972	0.769539
C54	C	-0.905697	-0.760152	0.736836
C55	C	-0.945776	-0.659065	0.971377
C56	C	-0.945771	-0.658994	1.036814
C57	C	-0.865629	-0.860748	1.036797
C58	C	-0.865631	-0.860804	0.971361
C59	C	-0.905708	-0.759965	0.938655
H60	H	-0.548420	-0.577502	0.374744
N61	N	-0.915964	-0.464573	0.870245
H62	H	-0.919094	-0.374559	0.839582
H63	H	-0.954567	-0.466825	0.897415
H64	H	-0.667127	-0.577509	0.374747
H65	H	-0.667097	-0.943081	0.229130
N66	N	-0.895438	-1.055590	0.734286
H67	H	-0.896186	-1.034063	0.687867
H68	H	-0.854892	-1.109180	0.745710
H69	H	-0.978395	-0.577191	0.659817
N70	N	-0.915980	-0.464707	0.734235
H71	H	-0.919111	-0.374634	0.764881
H72	H	-0.877804	-0.450064	0.707068
N73	N	-0.473994	-0.734899	0.419299
H74	H	-0.443355	-0.727150	0.455067
H75	H	-0.501136	-0.637693	0.418460
H76	H	-0.833000	-0.942843	1.063430
H77	H	-0.832996	-0.943197	0.659793
N78	N	-0.988973	-0.550635	0.532453
H79	H	-1.018008	-0.614769	0.505317
H80	H	-1.014317	-0.486719	0.563149
H81	H	-0.978406	-0.576946	0.944747
H82	H	-0.978401	-0.576831	1.063454
N83	N	-0.272141	-0.550953	0.385371
H84	H	-0.299306	-0.615175	0.414367
H85	H	-0.241449	-0.487166	0.410753
N86	N	-0.822401	-0.969592	0.936065
H87	H	-0.797014	-1.033460	0.966715
H88	H	-0.847891	-1.042644	0.908925
N89	N	-0.895435	-1.055462	0.870296
H90	H	-0.931660	-1.126097	0.858926
H91	H	-0.854861	-1.108993	0.858884
H92	H	-0.832984	-0.943298	0.541080
H93	H	-0.346631	-0.738124	0.404381
H94	H	-0.144784	-0.577587	0.374765
H95	H	-0.548386	-0.943093	0.229130
H96	H	-0.465239	-0.782509	0.199506
N97	N	-0.337874	-0.785786	0.184592
H98	H	-0.368512	-0.793526	0.148823
H99	H	-0.310711	-0.689652	0.178834
H100	H	-0.263460	-0.943148	0.229149
H101	H	-0.144746	-0.943193	0.229155
