data_functionalizedCrystal
_audit_creation_method	'MofGen! by Chris Wilmer'
_symmetry_space_group_name_H-M	'P1'
_symmetry_Int_Tables_number	1
_symmetry_cell_setting	triclinic
loop_
_symmetry_equiv_pos_as_xyz
  x,y,z
_cell_length_a	6.817900
_cell_length_b	19.453103
_cell_length_c	17.982651
_cell_angle_alpha	96.122937
_cell_angle_beta	102.445951
_cell_angle_gamma	101.709178
loop_
_atom_site_label
_atom_site_type_symbol
_atom_site_fract_x
_atom_site_fract_y
_atom_site_fract_z
V1	V	-4.006174	-0.097822	-0.237901
V2	V	-3.506174	0.402178	0.262099
O3	O	-4.003107	0.004042	-0.233008
O4	O	-3.503107	0.504042	0.266992
O5	O	-3.949150	-0.193331	-0.236624
O6	O	-3.449150	0.306669	0.263376
O7	O	-3.952756	-0.096606	-0.341497
O8	O	-3.452756	0.403394	0.158503
O9	O	-3.999476	-0.093352	-0.127408
O10	O	-3.499476	0.406648	0.372592
V11	V	-4.491570	-0.085604	-0.224642
V12	V	-3.991570	0.414396	0.275358
O13	O	-4.263325	-0.124624	-0.266984
O14	O	-3.763325	0.375376	0.233016
O15	O	-4.684617	-0.058802	-0.195559
O16	O	-4.184617	0.441198	0.304441
O17	O	-4.325388	0.009906	-0.225919
O18	O	-3.825388	0.509906	0.274081
O19	O	-4.612034	-0.187468	-0.229535
O20	O	-4.112034	0.312532	0.270465
O21	O	-4.615665	-0.090073	-0.335135
O22	O	-4.115665	0.409927	0.164865
O23	O	-4.321782	-0.086820	-0.121045
O24	O	-3.821782	0.413180	0.378955
C25	C	-3.792215	-0.216605	-0.232961
C26	C	-3.292215	0.283395	0.267039
C27	C	-3.826844	-0.294688	-0.232608
C28	C	-3.326844	0.205312	0.267392
C29	C	-3.796814	-0.093222	-0.366737
C30	C	-3.296814	0.406778	0.133263
C31	C	-3.834365	-0.092860	-0.451430
C32	C	-3.334365	0.407140	0.048570
C33	C	-4.098951	-0.155082	-0.982425
C34	C	-3.598951	0.344918	-0.482425
C35	C	-4.063623	-0.155409	-0.902844
C36	C	-3.563623	0.344591	-0.402844
C37	C	-4.012112	-0.091218	-0.851947
C38	C	-3.512112	0.408782	-0.351947
C39	C	-3.995909	-0.026696	-0.880635
C40	C	-3.495909	0.473304	-0.380635
C41	C	-4.031222	-0.026369	-0.960215
C42	C	-3.531222	0.473631	-0.460215
C43	C	-3.853490	-0.028011	-0.559699
C44	C	-3.353490	0.471989	-0.059699
C45	C	-3.818183	-0.028342	-0.480115
C46	C	-3.318183	0.471658	0.019885
C47	C	-3.885891	-0.157050	-0.502328
C48	C	-3.385891	0.342950	-0.002328
C49	C	-3.921204	-0.156724	-0.581908
C50	C	-3.421204	0.343276	-0.081908
C51	C	-3.904987	-0.092202	-0.610588
C52	C	-3.404987	0.407798	-0.110588
C53	C	-3.943291	-0.091848	-0.696879
C54	C	-3.443291	0.408152	-0.196879
C55	C	-3.973823	-0.091571	-0.765658
C56	C	-3.473823	0.408429	-0.265658
C57	C	-4.024702	-0.334953	-0.236252
C58	C	-3.524702	0.165047	0.263748
C59	C	-4.057245	-0.408320	-0.235928
C60	C	-3.557245	0.091680	0.264072
C61	C	-3.891909	-0.441417	-0.231944
C62	C	-3.391909	0.058583	0.268056
C63	C	-3.694025	-0.401143	-0.228304
C64	C	-3.194025	0.098857	0.271696
C65	C	-3.661493	-0.327778	-0.228636
C66	C	-3.161493	0.172222	0.271364
N67	N	-3.785416	-0.547555	-0.184993
N68	N	-3.285416	-0.047555	0.315007
N69	N	-3.816332	-0.617249	-0.184677
N70	N	-3.316332	-0.117249	0.315323
C71	C	-3.989917	-0.662462	-0.230946
C72	C	-3.489917	-0.162462	0.269054
N73	N	-4.131445	-0.635347	-0.277534
N74	N	-3.631445	-0.135347	0.222466
N75	N	-4.100530	-0.565647	-0.277848
N76	N	-3.600530	-0.065647	0.222152
C77	C	-3.927165	-0.520969	-0.231584
C78	C	-3.427165	-0.020969	0.268416
C79	C	-4.223075	-0.782281	-0.234239
C80	C	-3.723075	-0.282281	0.265761
C81	C	-4.255612	-0.855650	-0.233920
C82	C	-3.755612	-0.355650	0.266080
C83	C	-3.892383	-0.848471	-0.226288
C84	C	-3.392383	-0.348471	0.273712
C85	C	-3.859855	-0.775104	-0.226616
C86	C	-3.359855	-0.275104	0.273384
C87	C	-4.025207	-0.742013	-0.230588
C88	C	-3.525207	-0.242013	0.269412
C89	C	-4.145665	0.033176	-0.229579
C90	C	-3.645665	0.533176	0.270421
C91	C	-4.090273	0.111257	-0.229937
C92	C	-3.590273	0.611257	0.270063
C93	C	-4.141066	-0.090206	-0.095802
C94	C	-3.641066	0.409794	0.404198
C95	C	-4.082754	-0.090565	-0.011108
C96	C	-3.582754	0.409435	0.488892
H97	H	-4.140900	-0.207354	-1.023860
H98	H	-3.640900	0.292646	-0.523860
C99	C	-3.642187	-0.730809	-0.222595
C100	C	-3.142187	-0.230809	0.277405
N101	N	-3.478230	-0.697445	-0.219567
N102	N	-2.978230	-0.197445	0.280433
H103	H	-3.840258	0.024528	-0.583040
H104	H	-3.340258	0.524528	-0.083040
H105	H	-3.963155	-0.208995	-0.623345
H106	H	-3.463155	0.291005	-0.123345
C107	C	-4.473283	-0.899943	-0.237930
C108	C	-3.973283	-0.399943	0.262070
N109	N	-4.637235	-0.933304	-0.240950
N110	N	-4.137235	-0.433304	0.259050
H111	H	-3.899081	-0.209587	-0.478967
H112	H	-3.399081	0.290413	0.021033
H113	H	-3.953954	0.025570	-0.839188
H114	H	-3.453954	0.525570	-0.339188
H115	H	-3.559411	-0.428096	-0.225063
H116	H	-3.059411	0.071904	0.274937
H117	H	-4.076819	-0.207945	-0.879494
H118	H	-3.576819	0.292055	-0.379494
H119	H	-3.776234	0.023933	-0.438675
H120	H	-3.276234	0.523933	0.061325
H121	H	-3.757765	-0.875418	-0.223050
H122	H	-3.257765	-0.375418	0.276950
C123	C	-4.206620	-0.298564	-0.240666
C124	C	-3.706620	0.201436	0.259334
N125	N	-4.343650	-0.271157	-0.244007
N126	N	-3.843650	0.228843	0.255993
C127	C	-4.274911	-0.452620	-0.239930
C128	C	-3.774911	0.047380	0.260070
N129	N	-4.438856	-0.485984	-0.242942
N130	N	-3.938856	0.014016	0.257058
H131	H	-4.018046	0.026167	-0.983567
H132	H	-3.518046	0.526167	-0.483567
H133	H	-3.500371	-0.294994	-0.225670
H134	H	-3.000371	0.205006	0.274330
H135	H	-4.357713	-0.755337	-0.237472
H136	H	-3.857713	-0.255337	0.262528
