data_functionalizedCrystal
_audit_creation_method	'MofGen! by Chris Wilmer'
_symmetry_space_group_name_H-M	'P1'
_symmetry_Int_Tables_number	1
_symmetry_cell_setting	triclinic
loop_
_symmetry_equiv_pos_as_xyz
  x,y,z
_cell_length_a	12.759401
_cell_length_b	16.120484
_cell_length_c	12.759393
_cell_angle_alpha	87.135992
_cell_angle_beta	90.019676
_cell_angle_gamma	92.925831
loop_
_atom_site_label
_atom_site_type_symbol
_atom_site_fract_x
_atom_site_fract_y
_atom_site_fract_z
Zn1	Zn	1.584983	-0.331856	0.615149
Zn2	Zn	1.575931	-0.471292	0.448362
Zn3	Zn	1.409279	-0.331898	0.439491
Zn4	Zn	1.400335	-0.471231	0.623999
O5	O	1.492632	-0.401569	0.531750
O6	O	1.730803	-0.350361	0.593033
O7	O	1.553780	-0.452844	0.300167
O8	O	1.440118	-0.215227	0.455376
O9	O	1.724153	-0.452803	0.470496
O10	O	1.569207	-0.215196	0.584432
O11	O	1.431341	-0.350432	0.293649
O12	O	1.261072	-0.350373	0.463958
O13	O	1.424874	-0.452699	0.769844
O14	O	1.254501	-0.452740	0.599515
O15	O	1.560534	-0.350302	0.763342
O16	O	1.545107	-0.587949	0.479077
O17	O	1.416097	-0.587904	0.608117
C18	C	1.219666	-0.401555	0.531735
C19	C	1.102888	-0.401569	0.531754
C20	C	1.051483	-0.348323	0.595669
C21	C	0.941759	-0.348332	0.595677
C22	C	0.934853	-0.454838	0.467851
C23	C	1.044576	-0.454825	0.467839
C24	C	0.798141	-0.250063	0.627178
C25	C	0.746733	-0.196825	0.691110
C26	C	0.783206	-0.184119	0.792838
C27	C	0.871086	-0.224662	0.830656
C28	C	0.922489	-0.277907	0.766730
C29	C	0.886018	-0.290597	0.664986
C30	C	1.188195	-0.553095	0.436349
C31	C	1.239599	-0.606344	0.372427
C32	C	1.203128	-0.619059	0.270698
C33	C	1.115243	-0.578530	0.232885
C34	C	1.063839	-0.525281	0.296806
C35	C	1.100318	-0.512564	0.398535
C36	C	1.478678	-0.618176	0.545543
C37	C	1.472804	-0.710842	0.551478
C38	C	1.462086	-0.880503	0.562337
C39	C	1.523366	-0.921795	0.501181
C40	C	1.517403	-1.016200	0.507223
C41	C	1.468048	-0.786089	0.556297
C42	C	1.766664	-0.401584	0.531767
C43	C	1.883441	-0.401591	0.531774
C44	C	1.492716	-0.401489	0.805779
C45	C	1.492751	-0.401455	0.922553
C46	C	1.506670	-0.184116	0.517927
C47	C	1.512652	-0.091450	0.512036
C48	C	1.492613	-0.401589	0.258784
C49	C	1.492796	-0.401388	0.141995
C50	C	1.563395	-0.348128	0.974031
C51	C	1.563415	-0.348092	1.083753
C52	C	1.422144	-0.454717	1.090510
C53	C	1.422120	-0.454748	0.980790
C54	C	1.607336	-0.249730	1.227457
C55	C	1.677996	-0.196410	1.278938
C56	C	1.781328	-0.183627	1.242530
C57	C	1.814021	-0.224176	1.154642
C58	C	1.743367	-0.277502	1.103166
C59	C	1.640020	-0.290269	1.139572
C60	C	1.378210	-0.553112	0.837084
C61	C	1.307560	-0.606443	0.785607
C62	C	1.204225	-0.619234	0.822014
C63	C	1.171535	-0.578699	0.909907
C64	C	1.242185	-0.525369	0.961384
C65	C	1.345519	-0.512576	0.924969
H66	H	1.085543	-0.588887	0.150051
C67	C	1.019153	-0.322496	0.808314
H68	H	1.033518	-0.307303	0.878057
H69	H	1.005583	-0.380959	0.807667
H70	H	1.078007	-0.306717	0.764876
C71	C	1.336261	-0.650939	0.414022
H72	H	1.361641	-0.684482	0.361389
H73	H	1.389608	-0.610822	0.431764
H74	H	1.317155	-0.685042	0.474570
C75	C	1.057869	-0.592765	0.949965
H76	H	1.048523	-0.560991	1.009688
H77	H	1.010753	-0.575911	0.896272
H78	H	1.044215	-0.650079	0.968667
C79	C	0.726662	-0.125554	0.863158
H80	H	0.669107	-0.103226	0.826066
H81	H	0.701778	-0.155760	0.924787
H82	H	0.774219	-0.081532	0.881985
H83	H	1.838860	-0.140212	1.284454
H84	H	0.887362	-0.498198	0.415815
C85	C	1.641073	-0.289498	0.909973
H86	H	1.683140	-0.257727	0.956349
H87	H	1.684785	-0.321398	0.869201
H88	H	1.603208	-0.253180	0.864861
C89	C	1.126513	-0.677900	0.765391
H90	H	1.160777	-0.700212	0.707831
H91	H	1.102133	-0.721918	0.812901
H92	H	1.068688	-0.647752	0.740493
C93	C	1.385159	-0.928521	0.639182
H94	H	1.391188	-0.986592	0.633199
H95	H	1.401368	-0.914250	0.708895
H96	H	1.315451	-0.914362	0.622840
C97	C	1.642040	-0.151805	1.375607
H98	H	1.698925	-0.118227	1.401059
H99	H	1.585802	-0.117752	1.356507
H100	H	1.619232	-0.191927	1.428908
H101	H	1.523193	-0.260126	1.257104
H102	H	0.992278	-0.492280	0.266010
H103	H	1.580307	-0.886245	0.444286
H104	H	1.769986	-0.310520	1.031612
H105	H	1.898169	-0.213770	1.125010
C106	C	1.344466	-0.513343	1.154574
H107	H	1.354604	-0.505694	1.227293
H108	H	1.274658	-0.501145	1.135810
H109	H	1.356229	-0.569366	1.140152
C110	C	1.206232	-0.480775	1.058062
H111	H	1.263110	-0.447187	1.083508
H112	H	1.149981	-0.446732	1.038968
H113	H	1.183440	-0.520901	1.111364
H114	H	1.334189	-0.639456	0.714047
C115	C	1.115624	-0.289738	0.665964
H116	H	1.069290	-0.258023	0.704022
H117	H	1.156396	-0.321665	0.713704
H118	H	1.160744	-0.253366	0.623521
H119	H	1.244970	-0.662442	0.218668
C120	C	1.491881	-0.539042	0.797033
H121	H	1.501235	-0.570832	0.737325
H122	H	1.505545	-0.481734	0.778329
H123	H	1.538992	-0.555901	0.850736
H124	H	0.900769	-0.214319	0.913498
H125	H	0.768445	-0.260395	0.544338
C126	C	0.650078	-0.152223	0.649509
H127	H	0.635727	-0.167402	0.579757
H128	H	0.591218	-0.167987	0.692937
H129	H	0.663670	-0.093758	0.650157
H130	H	1.217905	-0.542739	0.519183
