data_functionalizedCrystal
_audit_creation_method	'MofGen! by Chris Wilmer'
_symmetry_space_group_name_H-M	'P1'
_symmetry_Int_Tables_number	1
_symmetry_cell_setting	triclinic
loop_
_symmetry_equiv_pos_as_xyz
  x,y,z
_cell_length_a	6.817900
_cell_length_b	9.582860
_cell_length_c	10.992410
_cell_angle_alpha	90.912681
_cell_angle_beta	108.764651
_cell_angle_gamma	111.206767
loop_
_atom_site_label
_atom_site_type_symbol
_atom_site_fract_x
_atom_site_fract_y
_atom_site_fract_z
V1	V	-4.127214	-0.207056	-0.400358
O2	O	-4.071753	0.009950	-0.392979
O3	O	-4.117537	-0.410556	-0.397386
O4	O	-4.104607	-0.203871	-0.575074
O5	O	-4.084772	-0.198167	-0.214061
V6	V	-4.602483	-0.181099	-0.378103
O7	O	-4.406580	-0.263993	-0.449174
O8	O	-4.773314	-0.124162	-0.329287
O9	O	-4.388954	0.022402	-0.381075
O10	O	-4.775341	-0.398105	-0.385482
O11	O	-4.762322	-0.189988	-0.564400
O12	O	-4.401883	-0.184284	-0.203387
C13	C	-3.971123	-0.460166	-0.391011
C14	C	-4.044670	-0.626530	-0.389746
C15	C	-3.954628	-0.196515	-0.617667
C16	C	-4.017684	-0.195258	-0.760496
C17	C	-3.884090	-0.183800	-0.955633
C18	C	-3.818660	-0.185728	-0.807147
C19	C	-4.224941	-0.342815	-0.837433
C20	C	-4.289172	-0.341510	-0.986001
C21	C	-4.149046	-0.055786	-0.948294
C22	C	-4.078293	-0.055087	-0.799282
C23	C	-4.198710	0.072003	-0.387447
C24	C	-4.104404	0.238366	-0.388720
C25	C	-4.215204	-0.191644	-0.160788
C26	C	-4.131385	-0.192894	-0.017957
H27	H	-3.663561	-0.079628	-0.753927
H28	H	-4.280111	-0.445326	-1.032153
O29	O	-3.719949	-0.042298	-0.980728
H30	H	-3.628126	-0.074139	-1.036045
O31	O	-4.531306	-0.358485	-1.042454
H32	H	-4.578947	-0.357669	-1.148886
O33	O	-4.425162	-0.359139	-0.799263
H34	H	-4.378962	-0.262025	-0.724870
O35	O	-4.172977	-0.480680	-0.803384
H36	H	-3.999749	-0.444470	-0.731730
H37	H	-4.328365	-0.061149	-0.989128
O38	O	-4.003422	0.092648	-0.975411
H39	H	-3.916825	0.070349	-1.038851
H40	H	-4.220297	-0.053354	-0.766772
O41	O	-3.879490	0.089516	-0.730112
H42	H	-3.738097	0.061687	-0.668356
O43	O	-3.859200	-0.314285	-1.019046
H44	H	-3.976902	-0.422730	-1.004715
O45	O	-3.751206	-0.318032	-0.774108
H46	H	-3.765269	-0.380894	-0.864249
