data_functionalizedCrystal
_audit_creation_method	'MofGen! by Chris Wilmer'
_symmetry_space_group_name_H-M	'P1'
_symmetry_Int_Tables_number	1
_symmetry_cell_setting	triclinic
loop_
_symmetry_equiv_pos_as_xyz
  x,y,z
_cell_length_a	14.044220
_cell_length_b	17.699083
_cell_length_c	16.776229
_cell_angle_alpha	89.998886
_cell_angle_beta	89.992645
_cell_angle_gamma	88.235946
loop_
_atom_site_label
_atom_site_type_symbol
_atom_site_fract_x
_atom_site_fract_y
_atom_site_fract_z
O1	O	0.119850	1.012346	-0.066178
O2	O	0.619850	1.512346	0.433822
O3	O	0.135443	0.793043	-0.066204
O4	O	0.635443	1.293043	0.433796
O5	O	-0.010330	0.899403	-0.066183
O6	O	0.489670	1.399403	0.433817
O7	O	0.265624	0.905986	-0.066198
O8	O	0.765624	1.405986	0.433802
O9	O	-0.010339	0.899387	0.066393
O10	O	0.489661	1.399387	0.566393
O11	O	0.135434	0.793027	0.066372
O12	O	0.635434	1.293027	0.566372
O13	O	0.119841	1.012330	0.066399
O14	O	0.619841	1.512330	0.566399
Zn15	Zn	0.127636	0.902676	0.087435
Zn16	Zn	0.627636	1.402676	0.587435
Zn17	Zn	0.127648	0.902697	-0.087240
Zn18	Zn	0.627648	1.402697	0.412760
O19	O	0.265615	0.905970	0.066378
O20	O	0.765615	1.405970	0.566378
C21	C	0.134880	0.764800	0.000081
C22	C	0.634880	1.264800	0.500081
C23	C	0.133204	0.680666	0.000071
C24	C	0.633204	1.180666	0.500071
C25	C	-0.045643	0.896513	0.000105
C26	C	0.454357	1.396513	0.500105
C27	C	-0.150849	0.887917	0.000105
C28	C	0.349151	1.387917	0.500105
C29	C	0.218769	0.637948	0.000067
C30	C	0.718769	1.137948	0.500067
C31	C	0.217189	0.558895	0.000077
C32	C	0.717189	1.058895	0.500077
C33	C	0.130041	0.522563	0.000086
C34	C	0.630041	1.022563	0.500086
C35	C	0.044469	0.565287	0.000093
C36	C	0.544469	1.065287	0.500093
C37	C	0.046050	0.644338	0.000088
C38	C	0.546050	1.144338	0.500088
C39	C	0.038089	0.246484	0.000113
C40	C	0.538089	0.746484	0.500113
C41	C	0.036514	0.167427	0.000115
C42	C	0.536514	0.667427	0.500115
C43	C	0.209227	0.161041	0.000102
C44	C	0.709227	0.661041	0.500102
C45	C	0.210809	0.240092	0.000097
C46	C	0.710809	0.740092	0.500097
C47	C	0.125237	0.282809	0.000108
C48	C	0.625237	0.782809	0.500108
C49	C	0.126952	0.368527	0.000098
C50	C	0.626952	0.868527	0.500098
C51	C	0.128325	0.436847	0.000090
C52	C	0.628325	0.936847	0.500090
C53	C	-0.343474	0.872202	0.000091
C54	C	0.156526	1.372202	0.500091
C55	C	-0.401248	0.933168	0.000096
C56	C	0.098752	1.433168	0.500096
C57	C	-0.508431	0.924424	0.000089
C58	C	-0.008431	1.424424	0.500089
C59	C	-0.236281	0.880945	0.000099
C60	C	0.263719	1.380945	0.500099
C61	C	0.300927	0.908860	0.000088
C62	C	0.800927	1.408860	0.500088
C63	C	0.406133	0.917456	0.000083
C64	C	0.906133	1.417456	0.500083
C65	C	0.120404	1.040574	0.000112
C66	C	0.620404	1.540574	0.500112
C67	C	0.122081	1.124707	0.000117
C68	C	0.622081	1.624707	0.500117
N69	N	0.127628	0.902667	0.206646
N70	N	0.627628	1.402667	0.706646
N71	N	0.127649	0.902712	-0.206452
N72	N	0.627649	1.402712	0.293548
C73	C	0.063106	0.949781	0.248372
C74	C	0.563106	1.449781	0.748372
C75	C	0.063105	0.949785	0.331825
C76	C	0.563105	1.449785	0.831825
C77	C	0.127631	0.902679	0.373549
C78	C	0.627631	1.402679	0.873549
C79	C	0.192156	0.855560	0.331817
C80	C	0.692156	1.355560	0.831817
C81	C	0.192152	0.855552	0.248366
C82	C	0.692152	1.355552	0.748366
C83	C	0.192175	0.855589	0.668364
C84	C	0.692175	1.355589	1.168364
C85	C	0.192176	0.855601	0.751821
C86	C	0.692176	1.355601	1.251821
C87	C	0.063128	0.949821	0.751822
C88	C	0.563128	1.449821	1.251822
C89	C	0.063123	0.949813	0.668372
C90	C	0.563123	1.449813	1.168372
C91	C	0.127645	0.902692	0.626647
C92	C	0.627645	1.402692	1.126647
C93	C	0.127644	0.902687	0.536159
C94	C	0.627644	1.402687	1.036159
C95	C	0.127638	0.902687	0.464036
C96	C	0.627638	1.402687	0.964036
H97	H	0.289735	0.667523	0.000059
H98	H	0.789735	1.167523	0.500059
H99	H	-0.374508	0.813445	0.000082
H100	H	0.125492	1.313445	0.500082
H101	H	0.010565	0.988143	0.214406
H102	H	0.510565	1.488143	0.714406
F103	F	-0.005568	0.999927	0.376233
F104	F	0.494432	1.499927	0.876233
F105	F	0.300301	0.115572	0.000093
F106	F	0.800301	0.615572	0.500093
H107	H	0.244712	0.817222	0.634398
H108	H	0.744712	1.317222	1.134398
H109	H	0.010583	0.988174	0.634402
H110	H	0.510583	1.488174	1.134402
H111	H	0.244692	0.817201	0.365794
H112	H	0.744692	1.317201	0.865794
H113	H	0.010588	0.988187	0.785804
H114	H	0.510588	1.488187	1.285804
F115	F	0.260857	0.805462	0.796226
F116	F	0.760857	1.305462	1.296226
F117	F	0.260823	0.805405	0.203959
F118	F	0.760823	1.305405	0.703959
H119	H	0.286865	0.524117	0.000073
H120	H	0.786865	1.024117	0.500073
H121	H	0.281773	0.269670	0.000086
H122	H	0.781773	0.769670	0.500086
H123	H	-0.034456	0.137848	0.000124
H124	H	0.465544	0.637848	0.500124
F125	F	-0.048280	0.526617	0.000108
F126	F	0.451720	1.026617	0.500108
F127	F	-0.052985	0.291937	0.000125
F128	F	0.447015	0.791937	0.500125
F129	F	-0.045021	0.689802	0.000096
F130	F	0.454979	1.189802	0.500096
H131	H	-0.370212	0.991930	0.000050
H132	H	0.129788	1.491930	0.500050
