data_functionalizedCrystal
_audit_creation_method	'MofGen! by Chris Wilmer'
_symmetry_space_group_name_H-M	'P1'
_symmetry_Int_Tables_number	1
_symmetry_cell_setting	triclinic
loop_
_symmetry_equiv_pos_as_xyz
  x,y,z
_cell_length_a	14.908571
_cell_length_b	14.908178
_cell_length_c	14.908308
_cell_angle_alpha	90.221621
_cell_angle_beta	89.824947
_cell_angle_gamma	89.820760
loop_
_atom_site_label
_atom_site_type_symbol
_atom_site_fract_x
_atom_site_fract_y
_atom_site_fract_z
Zn1	Zn	1.319970	-0.467728	0.559107
Zn2	Zn	1.819970	0.032272	1.059107
Zn3	Zn	1.320875	-0.609493	0.400117
Zn4	Zn	1.820875	-0.109493	0.900117
Zn5	Zn	1.179218	-0.450513	0.401153
Zn6	Zn	1.679218	0.049487	0.901153
Zn7	Zn	1.161960	-0.608428	0.541833
Zn8	Zn	1.661960	-0.108428	1.041833
O9	O	1.245506	-0.534041	0.475552
O10	O	1.745506	-0.034041	0.975552
O11	O	1.445502	-0.494184	0.544812
O12	O	1.945502	0.005816	1.044812
O13	O	1.309684	-0.581645	0.274841
O14	O	1.809684	-0.081645	0.774841
O15	O	1.204733	-0.327380	0.429768
O16	O	1.704733	0.172620	0.929768
O17	O	1.446167	-0.598338	0.428003
O18	O	1.946167	-0.098338	0.928003
O19	O	1.308143	-0.340028	0.545817
O20	O	1.808143	0.159972	1.045817
O21	O	1.205610	-0.464843	0.275602
O22	O	1.705610	0.035157	0.775602
O23	O	1.051517	-0.463811	0.413019
O24	O	1.551517	0.036189	0.913019
O25	O	1.175320	-0.596523	0.669538
O26	O	1.675320	-0.096523	1.169538
O27	O	1.038838	-0.579830	0.516376
O28	O	1.538838	-0.079830	1.016376
O29	O	1.291409	-0.493151	0.682229
O30	O	1.791409	0.006849	1.182229
O31	O	1.292951	-0.734769	0.411253
O32	O	1.792951	-0.234769	0.911253
O33	O	1.176197	-0.733987	0.515371
O34	O	1.676197	-0.233987	1.015371
C35	C	1.012659	-0.519838	0.462936
C36	C	1.512659	-0.019838	0.962936
C37	C	0.913044	-0.513784	0.457558
C38	C	1.413044	-0.013784	0.957558
C39	C	0.712702	-0.623390	0.554915
C40	C	1.212702	-0.123390	1.054915
C41	C	0.619104	-0.617705	0.549865
C42	C	1.119104	-0.117705	1.049865
C43	C	0.632249	-0.496726	0.442415
C44	C	1.132249	0.003274	0.942415
C45	C	0.725847	-0.502411	0.447465
C46	C	1.225847	-0.002411	0.947465
C47	C	0.766070	-0.565746	0.503715
C48	C	1.266070	-0.065746	1.003715
C49	C	0.859669	-0.571434	0.508760
C50	C	1.359669	-0.071434	1.008760
C51	C	0.872812	-0.450452	0.401315
C52	C	1.372812	0.049548	0.901315
C53	C	0.779214	-0.444767	0.396265
C54	C	1.279214	0.055233	0.896265
C55	C	1.232822	-0.766900	0.461346
C56	C	1.732822	-0.266900	0.961346
C57	C	1.227476	-0.866524	0.455303
C58	C	1.727476	-0.366524	0.955303
C59	C	1.325018	-1.066751	0.564907
C60	C	1.825018	-0.566751	1.064907
C61	C	1.319998	-1.160358	0.559232
C62	C	1.819998	-0.660358	1.059232
C63	C	1.212412	-1.147346	0.438283
C64	C	1.712412	-0.647346	0.938283
C65	C	1.217432	-1.053739	0.443958
C66	C	1.717432	-0.553739	0.943958
C67	C	1.273738	-1.013445	0.507271
C68	C	1.773738	-0.513445	1.007271
C69	C	1.278762	-0.919837	0.512941
C70	C	1.778762	-0.419837	1.012941
C71	C	1.171172	-0.906827	0.391998
C72	C	1.671172	-0.406827	0.891998
C73	C	1.166152	-1.000433	0.386323
C74	C	1.666152	-0.500433	0.886323
C75	C	1.479261	-0.548300	0.488219
C76	C	1.979261	-0.048300	0.988219
C77	C	1.578874	-0.554376	0.493616
C78	C	2.078874	-0.054376	0.993616
C79	C	1.231338	-0.546639	0.709311
C80	C	1.731338	-0.046639	1.209311
C81	C	1.225301	-0.552007	0.808925
C82	C	1.725301	-0.052007	1.308925
C83	C	1.258262	-0.300275	0.489835
C84	C	1.758262	0.199725	0.989835
C85	C	1.263698	-0.200658	0.495921
C86	C	1.763698	0.299342	0.995921
C87	C	1.259673	-0.521430	0.242710
C88	C	1.759673	-0.021430	0.742710
C89	C	1.265897	-0.515820	0.143122
C90	C	1.765897	-0.015820	0.643122
C91	C	1.334839	-0.454433	1.009328
C92	C	1.834839	0.045567	1.509328
C93	C	1.329169	-0.459475	1.102924
C94	C	1.829169	0.040525	1.602924
C95	C	1.208289	-0.567126	1.089716
C96	C	1.708289	-0.067126	1.589716
C97	C	1.213958	-0.562085	0.996119
C98	C	1.713958	-0.062085	1.496119
C99	C	1.277237	-0.505737	0.955929
C100	C	1.777237	-0.005737	1.455929
C101	C	1.282910	-0.500701	0.862330
C102	C	1.782910	-0.000701	1.362330
C103	C	1.162026	-0.608347	0.849124
C104	C	1.662026	-0.108347	1.349124
C105	C	1.156356	-0.613389	0.942720
C106	C	1.656356	-0.113389	1.442720
H107	H	0.746452	-0.393200	0.350470
H108	H	1.246452	0.106800	0.850470
H109	H	1.370871	-1.033943	0.616453
H110	H	1.870871	-0.533943	1.116453
H111	H	1.376073	-0.417695	1.146398
H112	H	1.876073	0.082305	1.646398
H113	H	1.120308	-1.033254	0.334777
H114	H	1.620308	-0.533254	0.834777
N115	N	0.930373	-0.388279	0.346081
N116	N	1.430373	0.111721	0.846081
H117	H	0.995771	-0.401491	0.357811
H118	H	1.495771	0.098509	0.857811
H119	H	0.916645	-0.324052	0.363148
H120	H	1.416645	0.175948	0.863148
H121	H	1.129419	-0.863414	0.345064
H122	H	1.629419	-0.363414	0.845064
H123	H	1.104835	-0.659263	0.975457
H124	H	1.604835	-0.159263	1.475457
H125	H	0.892417	-0.623006	0.554560
H126	H	1.392417	-0.123006	1.054560
N127	N	0.588858	-0.428450	0.381716
N128	N	1.088858	0.071550	0.881716
H129	H	0.521466	-0.433609	0.386278
H130	H	1.021466	0.066391	0.886278
H131	H	0.608343	-0.439887	0.317735
H132	H	1.108343	0.060113	0.817735
H133	H	1.334435	-0.454822	0.829609
H134	H	1.834435	0.045178	1.329609
H135	H	1.361750	-1.203756	0.606169
H136	H	1.861750	-0.703756	1.106169
N137	N	0.756093	-0.691705	0.615570
N138	N	1.256093	-0.191705	1.115570
H139	H	0.708081	-0.727364	0.647236
H140	H	1.208081	-0.227364	1.147236
H141	H	0.794400	-0.659887	0.661422
H142	H	1.294400	-0.159887	1.161422
H143	H	1.324611	-0.887031	0.564491
H144	H	1.824611	-0.387031	1.064491
N145	N	1.099866	-0.663673	0.791544
N146	N	1.599866	-0.163673	1.291544
H147	H	1.109296	-0.729437	0.804677
H148	H	1.609296	-0.229437	1.304677
H149	H	1.113074	-0.651864	0.726170
H150	H	1.613074	-0.151864	1.226170
H151	H	0.575655	-0.664643	0.591559
H152	H	1.075655	-0.164643	1.091559
H153	H	1.156771	-0.613000	1.122455
H154	H	1.656771	-0.113000	1.622455
N155	N	1.403103	-0.393679	0.965980
N156	N	1.903103	0.106321	1.465980
H157	H	1.444996	-0.430559	0.927182
H158	H	1.944996	0.069441	1.427182
H159	H	1.438673	-0.361968	1.014072
H160	H	1.938673	0.138032	1.514072
N161	N	1.151692	-1.190813	0.369997
N162	N	1.651692	-0.690813	0.869997
H163	H	1.156297	-1.258201	0.375150
H164	H	1.656297	-0.758201	0.875150
H165	H	1.170462	-1.171871	0.307756
H166	H	1.670462	-0.671871	0.807756
