data_functionalizedCrystal
_audit_creation_method	'MofGen! by Chris Wilmer'
_symmetry_space_group_name_H-M	'P1'
_symmetry_Int_Tables_number	1
_symmetry_cell_setting	triclinic
loop_
_symmetry_equiv_pos_as_xyz
  x,y,z
_cell_length_a	12.827893
_cell_length_b	12.594516
_cell_length_c	12.827885
_cell_angle_alpha	89.971598
_cell_angle_beta	90.019272
_cell_angle_gamma	89.973108
loop_
_atom_site_label
_atom_site_type_symbol
_atom_site_fract_x
_atom_site_fract_y
_atom_site_fract_z
Zn1	Zn	1.597587	0.423686	0.590859
Zn2	Zn	1.930921	0.757019	0.924192
Zn3	Zn	2.264254	1.090353	1.257525
Zn4	Zn	1.597447	0.601702	0.416123
Zn5	Zn	1.930780	0.935035	0.749457
Zn6	Zn	2.264113	1.268369	1.082790
Zn7	Zn	1.422829	0.423738	0.416132
Zn8	Zn	1.756162	0.757072	0.749466
Zn9	Zn	2.089495	1.090405	1.082799
Zn10	Zn	1.422779	0.601623	0.590823
Zn11	Zn	1.756113	0.934957	0.924157
Zn12	Zn	2.089446	1.268290	1.257490
O13	O	1.510161	0.512687	0.503484
O14	O	1.843494	0.846021	0.836818
O15	O	2.176827	1.179354	1.170151
O16	O	1.743805	0.447311	0.567691
O17	O	2.077138	0.780645	0.901024
O18	O	2.410471	1.113978	1.234357
O19	O	1.574245	0.578150	0.269888
O20	O	1.907578	0.911483	0.603222
O21	O	2.240912	1.244816	0.936555
O22	O	1.446090	0.274786	0.439329
O23	O	1.779424	0.608119	0.772662
O24	O	2.112757	0.941452	1.105996
O25	O	1.743701	0.578099	0.439313
O26	O	2.077035	0.911432	0.772647
O27	O	2.410368	1.244765	1.105980
O28	O	1.574485	0.274747	0.567700
O29	O	1.907818	0.608081	0.901033
O30	O	2.241151	0.941414	1.234366
O31	O	1.445954	0.447401	0.269895
O32	O	1.779287	0.780734	0.603228
O33	O	2.112621	1.114067	0.936562
O34	O	1.276586	0.447324	0.439294
O35	O	1.609919	0.780658	0.772628
O36	O	1.943253	1.113991	1.105961
O37	O	1.446006	0.577965	0.737064
O38	O	1.779340	0.911298	1.070397
O39	O	2.112673	1.244631	1.403731
O40	O	1.276550	0.578016	0.567639
O41	O	1.609883	0.911349	0.900972
O42	O	1.943217	1.244682	1.234306
O43	O	1.574437	0.447235	0.737090
O44	O	1.907770	0.780568	1.070423
O45	O	2.241103	1.113902	1.403757
O46	O	1.574197	0.750637	0.439279
O47	O	1.907531	1.083971	0.772612
O48	O	2.240864	1.417304	1.105946
O49	O	1.445870	0.750580	0.567630
O50	O	1.779203	1.083913	0.900963
O51	O	2.112537	1.417246	1.234297
C52	C	1.238651	0.512668	0.503464
C53	C	1.571984	0.846001	0.836798
C54	C	1.905317	1.179335	1.170131
C55	C	1.122497	0.512685	0.503481
C56	C	1.455831	0.846018	0.836814
C57	C	1.789164	1.179352	1.170147
C58	C	1.510041	0.789229	0.503472
C59	C	1.843375	1.122562	0.836806
C60	C	2.176708	1.455895	1.170139
C61	C	1.510086	0.907534	0.503502
C62	C	1.843419	1.240867	0.836836
C63	C	2.176753	1.574201	1.170169
C64	C	1.070764	0.448082	0.567105
C65	C	1.404097	0.781415	0.900438
C66	C	1.737430	1.114749	1.233772
C67	C	0.950713	0.448098	0.567123
C68	C	1.284047	0.781432	0.900457
C69	C	1.617380	1.114765	1.233790
C70	C	1.440269	0.976794	0.573263
C71	C	1.773603	1.310128	0.906596
C72	C	2.106936	1.643461	1.239930
C73	C	1.414794	1.047663	0.477907
C74	C	1.748128	1.380996	0.811241
C75	C	2.081461	1.714330	1.144574
C76	C	1.535618	1.047464	0.598873
C77	C	1.868951	1.380798	0.932206
C78	C	2.202284	1.714131	1.265540
C79	C	1.484561	0.976844	0.408096
C80	C	1.817894	1.310178	0.741430
C81	C	2.151228	1.643511	1.074763
C82	C	1.605429	0.976639	0.529126
C83	C	1.938762	1.309973	0.862459
C84	C	2.272095	1.643306	1.195793
C85	C	1.579990	1.047476	0.433705
C86	C	1.913323	1.380809	0.767038
C87	C	2.246657	1.714143	1.100371
C88	C	1.782731	0.512708	0.503505
C89	C	2.116064	0.846041	0.836838
C90	C	2.449397	1.179375	1.170172
C91	C	1.898884	0.512717	0.503514
C92	C	2.232217	0.846050	0.836847
C93	C	2.565550	1.179383	1.170180
C94	C	1.510232	0.512585	0.776055
C95	C	1.843565	0.845919	1.109388
C96	C	2.176898	1.179252	1.442721
C97	C	1.510262	0.512542	0.892208
C98	C	1.843595	0.845875	1.225541
C99	C	2.176929	1.179208	1.558875
C100	C	1.510263	1.235067	0.503518
C101	C	1.843596	1.568400	0.836851
C102	C	2.176929	1.901733	1.170184
C103	C	1.510189	1.116761	0.503528
C104	C	1.843522	1.450095	0.836861
C105	C	2.176855	1.783428	1.170195
C106	C	1.510150	0.512712	0.231974
C107	C	1.843483	0.846046	0.565308
C108	C	2.176816	1.179379	0.898641
C109	C	1.510322	0.512456	0.115822
C110	C	1.843655	0.845790	0.449155
C111	C	2.176989	1.179123	0.782488
C112	C	1.573820	0.447840	0.944006
C113	C	1.907154	0.781173	1.277339
C114	C	2.240487	1.114506	1.610672
C115	C	1.573853	0.447793	1.064056
C116	C	1.907187	0.781127	1.397389
C117	C	2.240520	1.114460	1.730723
H118	H	1.115349	0.392757	0.621559
H119	H	1.448682	0.726090	0.954892
H120	H	1.782016	1.059424	1.288225
H121	H	1.557172	1.078485	0.679517
H122	H	1.890505	1.411819	1.012850
H123	H	2.223838	1.745152	1.346183
F124	F	1.439198	0.584871	1.057609
F125	F	1.772531	0.918204	1.390943
F126	F	2.105864	1.251538	1.724276
F127	F	1.439162	0.584898	0.950408
F128	F	1.772495	0.918231	1.283741
F129	F	2.105828	1.251564	1.617074
H130	H	1.685991	0.945422	0.550823
H131	H	2.019324	1.278756	0.884156
H132	H	2.352657	1.612089	1.217490
F133	F	1.362985	0.936225	0.650263
F134	F	1.696318	1.269559	0.983596
F135	F	2.029651	1.602892	1.316930
F136	F	0.892565	0.375808	0.638329
F137	F	1.225899	0.709141	0.971662
F138	F	1.559232	1.042475	1.304996
H139	H	1.628207	0.392477	0.899475
H140	H	1.961540	0.725810	1.232808
H141	H	2.294874	1.059143	1.566141
F142	F	1.657222	1.087787	0.356524
F143	F	1.990555	1.421120	0.689857
F144	F	2.323889	1.754453	1.023190
H145	H	0.943367	0.568035	0.449046
H146	H	1.276700	0.901368	0.782379
H147	H	1.610034	1.234701	1.115712
F148	F	1.064227	0.584991	0.432293
F149	F	1.397560	0.918325	0.765626
F150	F	1.730893	1.251658	1.098960
F151	F	1.644985	0.375392	1.122275
F152	F	1.978319	0.708725	1.455609
F153	F	2.311652	1.042059	1.788942
H154	H	1.334214	1.078883	0.456256
H155	H	1.667548	1.412216	0.789590
H156	H	2.000881	1.745550	1.122923
F157	F	1.456269	0.936470	0.302658
F158	F	1.789603	1.269803	0.635992
F159	F	2.122936	1.603136	0.969325
