data_functionalizedCrystal
_audit_creation_method	'MofGen! by Chris Wilmer'
_symmetry_space_group_name_H-M	'P1'
_symmetry_Int_Tables_number	1
_symmetry_cell_setting	triclinic
loop_
_symmetry_equiv_pos_as_xyz
  x,y,z
_cell_length_a	19.288864
_cell_length_b	15.944551
_cell_length_c	17.766277
_cell_angle_alpha	89.992686
_cell_angle_beta	89.976791
_cell_angle_gamma	83.317492
loop_
_atom_site_label
_atom_site_type_symbol
_atom_site_fract_x
_atom_site_fract_y
_atom_site_fract_z
O1	O	0.921629	0.104784	-0.062837
O2	O	0.719406	0.118919	-0.062786
O3	O	0.826040	-0.010445	-0.062806
O4	O	0.814995	0.234147	-0.062817
O5	O	0.826021	-0.010451	0.062382
O6	O	0.719387	0.118912	0.062403
O7	O	0.921610	0.104777	0.062351
Cu8	Cu	0.820497	0.111844	0.073808
Cu9	Cu	0.820519	0.111852	-0.074242
O10	O	0.814976	0.234141	0.062372
C11	C	0.693519	0.118461	-0.000185
C12	C	0.616411	0.117095	-0.000165
C13	C	0.571915	0.193000	-0.000181
C14	C	0.499465	0.191717	-0.000189
C15	C	0.471514	0.114526	-0.000197
C16	C	0.516020	0.038611	-0.000178
C17	C	0.588469	0.039896	-0.000162
C18	C	0.363099	0.053847	-0.044079
C19	C	0.290651	0.052565	-0.044099
C20	C	0.248058	0.110560	-0.000242
C21	C	0.277920	0.169850	0.043625
C22	C	0.350369	0.171135	0.043641
C23	C	0.392956	0.113124	-0.000214
C24	C	0.125002	0.185079	-0.000265
C25	C	0.052550	0.183793	-0.000269
C26	C	0.069107	0.030684	-0.000265
C27	C	0.141557	0.031972	-0.000254
C28	C	0.169500	0.109172	-0.000258
C29	C	0.825572	-0.041740	-0.000212
C30	C	0.824197	-0.134981	-0.000211
C31	C	0.754815	-0.349571	-0.000204
C32	C	0.787024	-0.410715	0.061514
C33	C	0.821710	-0.305697	-0.000216
C34	C	0.787059	-0.410692	-0.061912
C35	C	0.819303	-0.470601	-0.000224
C36	C	0.853938	-0.365614	0.061552
C37	C	0.853963	-0.365585	-0.061929
C38	C	0.886222	-0.426712	-0.000197
C39	C	0.823095	-0.210700	-0.000211
C40	C	0.817924	-0.565597	-0.000224
C41	C	0.947497	0.105235	-0.000251
C42	C	1.024605	0.106600	-0.000276
C43	C	0.815444	0.265436	-0.000225
C44	C	0.816819	0.358677	-0.000230
N45	N	0.820486	0.111838	0.177938
N46	N	0.820535	0.111851	-0.178373
C47	C	0.867719	0.054584	0.217316
C48	C	0.867723	0.054580	0.296118
C49	C	0.820501	0.111845	0.335539
C50	C	0.773259	0.169103	0.296151
C51	C	0.773252	0.169100	0.217351
C52	C	0.811404	0.188378	0.460375
C53	C	0.811416	0.188382	0.539173
C54	C	0.820520	0.111855	0.578585
C55	C	0.829626	0.035319	0.539188
C56	C	0.829618	0.035316	0.460387
C57	C	0.820503	0.111854	0.420984
C58	C	0.867759	0.054592	0.703409
C59	C	0.867759	0.054587	0.782212
C60	C	0.773298	0.169117	0.782244
C61	C	0.773295	0.169115	0.703442
C62	C	0.820530	0.111853	0.664029
H63	H	0.594661	0.255862	-0.000185
H64	H	0.397773	0.006619	-0.079797
H65	H	0.906187	0.007955	0.328185
H66	H	0.493258	-0.024239	-0.000195
C67	C	0.637420	-0.043601	-0.000151
H68	H	0.684570	-0.031779	-0.000138
H69	H	0.628970	-0.075265	-0.043807
H70	H	0.628926	-0.075265	0.043511
C71	C	0.892162	-0.338523	-0.132436
H72	H	0.868332	-0.353772	-0.176247
H73	H	0.938581	-0.365997	-0.132892
H74	H	0.893121	-0.279094	-0.131677
H75	H	0.758764	-0.430657	-0.114093
C76	C	0.383220	0.236341	0.091895
H77	H	0.432466	0.228801	0.085617
H78	H	0.372118	0.228747	0.143359
H79	H	0.365349	0.291709	0.076467
C80	C	0.155746	0.269990	-0.000260
H81	H	0.205267	0.259885	-0.000259
H82	H	0.140450	0.301231	0.043393
H83	H	0.140493	0.301235	-0.043924
H84	H	0.804006	0.250702	0.571244
C85	C	0.919667	-0.008410	0.173966
H86	H	0.947794	-0.042515	0.208709
H87	H	0.948577	0.021711	0.143202
H88	H	0.894674	-0.043306	0.143250
H89	H	0.837031	-0.027001	0.428314
H90	H	0.906219	0.007963	0.671318
C91	C	0.721346	0.232105	0.660124
H92	H	0.693226	0.266215	0.694886
H93	H	0.692431	0.201979	0.629403
H94	H	0.746335	0.266995	0.629368
C95	C	0.231081	0.233648	0.091873
H96	H	0.259241	0.269144	0.117995
H97	H	0.205941	0.204106	0.127137
H98	H	0.199167	0.267067	0.060243
C99	C	0.748797	-0.437745	0.132018
H100	H	0.779754	-0.475539	0.161072
H101	H	0.709762	-0.465052	0.117192
H102	H	0.733298	-0.389311	0.161293
C103	C	0.801385	0.272561	0.417026
H104	H	0.802676	0.261599	0.364454
H105	H	0.837708	0.305368	0.429913
H106	H	0.757576	0.302645	0.429961
H107	H	0.734788	0.215724	0.185289
H108	H	0.837039	-0.026997	0.571275
H109	H	0.734846	0.215740	0.814340
H110	H	0.882201	-0.345735	0.113786
C111	C	0.003604	0.267293	-0.000286
H112	H	0.030625	0.313450	-0.000293
H113	H	-0.025027	0.269978	0.043364
H114	H	-0.024979	0.269970	-0.043953
H115	H	0.906219	0.007959	0.814274
H116	H	0.734809	0.215728	0.328251
C117	C	0.190505	-0.051524	-0.000249
H118	H	0.163484	-0.097682	-0.000261
H119	H	0.219090	-0.054210	0.043411
H120	H	0.219133	-0.054199	-0.043906
H121	H	0.463229	0.253530	-0.000199
C122	C	0.038370	-0.054225	-0.000279
H123	H	-0.011151	-0.044121	-0.000296
H124	H	0.053620	-0.085476	0.043378
H125	H	0.053669	-0.085460	-0.043940
H126	H	0.266342	0.004291	-0.079822
H127	H	0.699288	-0.316049	-0.000128
H128	H	0.941797	-0.460084	-0.000176
