data_functionalizedCrystal
_audit_creation_method	'MofGen! by Chris Wilmer'
_symmetry_space_group_name_H-M	'P1'
_symmetry_Int_Tables_number	1
_symmetry_cell_setting	triclinic
loop_
_symmetry_equiv_pos_as_xyz
  x,y,z
_cell_length_a	13.033293
_cell_length_b	25.639240
_cell_length_c	13.033352
_cell_angle_alpha	82.842620
_cell_angle_beta	90.908427
_cell_angle_gamma	97.200942
loop_
_atom_site_label
_atom_site_type_symbol
_atom_site_fract_x
_atom_site_fract_y
_atom_site_fract_z
Zn1	Zn	1.498176	-0.162832	0.781381
Zn2	Zn	1.998176	0.337168	1.281381
Zn3	Zn	1.519930	-0.237931	0.609380
Zn4	Zn	2.019930	0.262069	1.109380
Zn5	Zn	1.348090	-0.160029	0.587565
Zn6	Zn	1.848090	0.339971	1.087565
Zn7	Zn	1.326130	-0.259759	0.759405
Zn8	Zn	1.826130	0.240241	1.259405
O9	O	1.423081	-0.205138	0.684433
O10	O	1.923081	0.294862	1.184433
O11	O	1.644979	-0.164832	0.776892
O12	O	2.144979	0.335168	1.276892
O13	O	1.515429	-0.217289	0.462588
O14	O	2.015429	0.282711	0.962588
O15	O	1.368085	-0.087235	0.613342
O16	O	1.868085	0.412765	1.113342
O17	O	1.660962	-0.220007	0.650523
O18	O	2.160962	0.279993	1.150523
O19	O	1.478353	-0.089294	0.755738
O20	O	1.978353	0.410706	1.255738
O21	O	1.389179	-0.160055	0.446560
O22	O	1.889179	0.339945	0.946560
O23	O	1.201259	-0.181221	0.592033
O24	O	1.701259	0.318779	1.092033
O25	O	1.330658	-0.257209	0.906219
O26	O	1.830658	0.242791	1.406219
O27	O	1.185125	-0.254492	0.718283
O28	O	1.685125	0.245508	1.218283
O29	O	1.457060	-0.185997	0.922365
O30	O	1.957060	0.314003	1.422365
O31	O	1.494135	-0.313993	0.629214
O32	O	1.994135	0.186007	1.129214
O33	O	1.351752	-0.330030	0.739437
O34	O	1.851752	0.169970	1.239437
C35	C	1.155876	-0.219921	0.650407
C36	C	1.655876	0.280079	1.150407
C37	C	1.041561	-0.226260	0.635875
C38	C	1.541561	0.273740	1.135875
C39	C	0.982676	-0.201843	0.692017
C40	C	1.482676	0.298157	1.192017
C41	C	0.864525	-0.208394	0.676999
C42	C	1.364525	0.291606	1.176999
C43	C	1.422946	-0.340983	0.684334
C44	C	1.922946	0.159017	1.184334
C45	C	1.422978	-0.399095	0.684338
C46	C	1.922978	0.100905	1.184338
C47	C	1.480515	-0.760498	0.758701
C48	C	1.980515	-0.260498	1.258701
C49	C	1.480543	-0.815102	0.758726
C50	C	1.980543	-0.315102	1.258726
O51	O	1.529301	-0.844227	0.821848
O52	O	2.029301	-0.344227	1.321848
N53	N	1.423211	-0.841376	0.684550
N54	N	1.923211	-0.341376	1.184550
C55	C	1.365840	-0.813044	0.610352
C56	C	1.865840	-0.313044	1.110352
O57	O	1.317077	-0.840406	0.547262
O58	O	1.817077	-0.340406	1.047262
C59	C	1.365807	-0.758442	0.610332
C60	C	1.865807	-0.258442	1.110332
C61	C	1.423151	-0.732170	0.684506
C62	C	1.923151	-0.232170	1.184506
C63	C	1.537853	-0.734226	0.832870
C64	C	2.037853	-0.234226	1.332870
C65	C	1.537827	-0.679625	0.832844
C66	C	2.037827	-0.179625	1.332844
C67	C	1.480463	-0.651297	0.758649
C68	C	1.980463	-0.151297	1.258649
C69	C	1.423124	-0.677569	0.684480
C70	C	1.923124	-0.177569	1.184480
C71	C	1.308431	-0.730111	0.536139
C72	C	1.808431	-0.230111	1.036139
C73	C	1.308402	-0.675505	0.536126
C74	C	1.808402	-0.175505	1.036126
C75	C	1.365746	-0.649233	0.610300
C76	C	1.865746	-0.149233	1.110300
C77	C	1.365734	-0.594640	0.610259
C78	C	1.865734	-0.094640	1.110259
N79	N	1.423065	-0.568366	0.684435
N80	N	1.923065	-0.068366	1.184435
C81	C	1.480430	-0.596694	0.758630
C82	C	1.980430	-0.096694	1.258630
C83	C	1.365912	-0.927713	0.610399
C84	C	1.865912	-0.427713	1.110399
C85	C	1.365950	-0.982314	0.610413
C86	C	1.865950	-0.482314	1.110413
C87	C	1.480652	-0.984368	0.758789
C88	C	1.980652	-0.484368	1.258789
C89	C	1.480619	-0.929766	0.758770
C90	C	1.980619	-0.429766	1.258770
C91	C	1.423244	-0.901439	0.684575
C92	C	1.923244	-0.401439	1.184575
C93	C	1.480371	-0.482029	0.758568
C94	C	1.980371	0.017971	1.258568
C95	C	1.480343	-0.427423	0.758533
C96	C	1.980343	0.072577	1.258533
C97	C	1.365637	-0.425374	0.610161
C98	C	1.865637	0.074626	1.110161
C99	C	1.365669	-0.479975	0.610192
C100	C	1.865669	0.020025	1.110192
C101	C	1.423038	-0.508301	0.684405
C102	C	1.923038	-0.008301	1.184405
O103	O	1.316997	-0.565482	0.547172
O104	O	1.816997	-0.065482	1.047172
O105	O	1.529174	-0.569327	0.821717
O106	O	2.029174	-0.069327	1.321717
C107	C	1.691330	-0.190297	0.718592
C108	C	2.191330	0.309703	1.218592
C109	C	1.805642	-0.183973	0.733149
C110	C	2.305642	0.316027	1.233149
C111	C	1.388983	-0.224351	0.952647
C112	C	1.888983	0.275649	1.452647
C113	C	1.374452	-0.232538	1.066943
C114	C	1.874452	0.267462	1.566943
C115	C	1.423242	-0.068763	0.684558
C116	C	1.923242	0.431237	1.184558
C117	C	1.423311	-0.010648	0.684612
C118	C	1.923311	0.489352	1.184612
C119	C	1.430515	-0.200954	1.125889
C120	C	1.930515	0.299046	1.625889
C121	C	1.415498	-0.209416	1.244021
C122	C	1.915498	0.290584	1.744021
C123	C	1.457039	-0.186013	1.417261
C124	C	1.957039	0.313987	1.917261
C125	C	1.471568	-0.177827	1.302965
C126	C	1.971568	0.322173	1.802965
H127	H	1.004505	-0.252013	0.576689
H128	H	1.504505	0.247987	1.076689
N129	N	1.542196	-0.399087	0.838536
N130	N	2.042196	0.100913	1.338536
H131	H	1.578535	-0.425322	0.885543
H132	H	2.078535	0.074678	1.385543
H133	H	1.494237	-0.382162	0.880745
H134	H	1.994237	0.117838	1.380745
N135	N	0.854709	-0.149860	0.811559
N136	N	1.354709	0.350140	1.311559
H137	H	0.799178	-0.134466	0.846963
H138	H	1.299178	0.365534	1.346963
H139	H	0.904605	-0.120183	0.775423
H140	H	1.404605	0.379817	1.275423
N141	N	1.337193	-0.253537	1.293005
N142	N	1.837193	0.246463	1.793005
H143	H	1.301844	-0.273453	1.237438
H144	H	1.801844	0.226547	1.737438
H145	H	1.283999	-0.238057	1.331532
H146	H	1.783999	0.261943	1.831532
N147	N	1.304107	-1.010642	0.530400
N148	N	1.804107	-0.510642	1.030400
H149	H	1.251113	-1.038936	0.566081
H150	H	1.751113	-0.538936	1.066081
H151	H	1.352074	-1.027531	0.488136
H152	H	1.852074	-0.527531	0.988136
N153	N	1.599700	-0.764778	0.912924
N154	N	2.099700	-0.264778	1.412924
H155	H	1.636003	-0.739842	0.959907
H156	H	2.136003	-0.239842	1.459907
H157	H	1.652669	-0.781797	0.877208
H158	H	2.152669	-0.281797	1.377208
N159	N	1.303766	-0.394810	0.530149
N160	N	1.803766	0.105190	1.030149
H161	H	1.228253	-0.409547	0.536710
H162	H	1.728253	0.090453	1.036710
H163	H	1.329216	-0.398180	0.458767
H164	H	1.829216	0.101820	0.958767
H165	H	1.530682	-0.144518	1.265979
H166	H	2.030682	0.355482	1.765979
H167	H	1.527078	-0.505087	0.819005
H168	H	2.027078	-0.005087	1.319005
N169	N	1.599665	-0.651298	0.912860
N170	N	2.099665	-0.151298	1.412860
H171	H	1.551762	-0.634378	0.955144
H172	H	2.051762	-0.134378	1.455144
H173	H	1.652658	-0.623027	0.877114
H174	H	2.152658	-0.123027	1.377114
N175	N	1.542466	-0.901431	0.838771
N176	N	2.042466	-0.401431	1.338771
H177	H	1.578809	-0.927668	0.885771
H178	H	2.078809	-0.427668	1.385771
H179	H	1.494506	-0.884511	0.880986
H180	H	1.994506	-0.384511	1.380986
N181	N	1.304040	-0.897165	0.530352
N182	N	1.804040	-0.397165	1.030352
H183	H	1.351916	-0.868778	0.488050
H184	H	1.851916	-0.368778	0.988050
H185	H	1.251021	-0.880185	0.566081
H186	H	1.751021	-0.380185	1.066081
H187	H	1.019732	-0.176086	0.751197
H188	H	1.519732	0.323914	1.251197
N189	N	1.303836	-0.508312	0.530180
N190	N	1.803836	-0.008312	1.030180
H191	H	1.250843	-0.536606	0.565864
H192	H	1.750843	-0.036606	1.065864
H193	H	1.351811	-0.525203	0.487928
H194	H	1.851811	-0.025203	0.987928
H195	H	1.527359	-1.007443	0.819204
H196	H	2.027359	-0.507443	1.319204
N197	N	1.246583	-0.758439	0.456134
N198	N	1.746583	-0.258439	0.956134
H199	H	1.210239	-0.732200	0.409140
H200	H	1.710239	-0.232200	0.909140
H201	H	1.193647	-0.786735	0.491896
H202	H	1.693647	-0.286735	0.991896
H203	H	1.315330	-0.265840	1.103933
H204	H	1.815330	0.234160	1.603933
H205	H	1.489626	-0.167648	1.088898
H206	H	1.989626	0.332352	1.588898
N207	N	0.815463	-0.242514	0.598597
N208	N	1.315463	0.257486	1.098597
H209	H	0.843434	-0.228049	0.527508
H210	H	1.343434	0.271951	1.027508
H211	H	0.738023	-0.242347	0.599069
H212	H	1.238023	0.257653	1.099069
H213	H	1.261677	-0.652445	0.475709
H214	H	1.761677	-0.152445	0.975709
