data_functionalizedCrystal
_audit_creation_method	'MofGen! by Chris Wilmer'
_symmetry_space_group_name_H-M	'P1'
_symmetry_Int_Tables_number	1
_symmetry_cell_setting	triclinic
loop_
_symmetry_equiv_pos_as_xyz
  x,y,z
_cell_length_a	10.654545
_cell_length_b	6.394989
_cell_length_c	9.130313
_cell_angle_alpha	90.001550
_cell_angle_beta	89.996934
_cell_angle_gamma	94.509605
loop_
_atom_site_label
_atom_site_type_symbol
_atom_site_fract_x
_atom_site_fract_y
_atom_site_fract_z
O1	O	1.670950	-0.293397	-0.121774
O2	O	1.305767	-0.321364	-0.121780
O3	O	1.493542	-0.003391	-0.121778
O4	O	1.483175	-0.611369	-0.121776
O5	O	1.493529	-0.003381	0.121821
O6	O	1.305754	-0.321354	0.121819
O7	O	1.670937	-0.293387	0.121824
Cu8	Cu	1.488344	-0.307370	0.144064
Cu9	Cu	1.488360	-0.307381	-0.144020
O10	O	1.483162	-0.611360	0.121823
C11	C	1.258941	-0.319307	0.000019
C12	C	1.119432	-0.313170	0.000017
C13	C	1.053890	-0.310275	0.132803
C14	C	0.922809	-0.304474	0.132803
C15	C	0.922824	-0.304470	-0.132782
C16	C	1.053903	-0.310256	-0.132780
C17	C	1.717763	-0.295443	0.000023
C18	C	1.857272	-0.301581	0.000015
C19	C	1.491486	0.074465	0.000016
C20	C	1.485221	0.310790	0.000014
N21	N	1.488342	-0.307361	0.346687
N22	N	1.488371	-0.307374	-0.346642
C23	C	1.571518	-0.166622	0.423340
C24	C	1.571531	-0.166623	0.576676
C25	C	1.405186	-0.448119	0.576695
C26	C	1.405169	-0.448107	0.423361
H27	H	0.869454	-0.302100	-0.240900
O28	O	1.661242	-0.014830	0.659358
H29	H	1.723671	-0.103737	0.729210
H30	H	1.337470	-0.562714	0.639137
O31	O	1.661194	-0.014795	0.340623
H32	H	1.759543	-0.042891	0.370023
O33	O	1.315458	-0.599916	0.340668
H34	H	1.257639	-0.697811	0.419741
H35	H	1.107240	-0.312647	0.240935
O36	O	0.852217	-0.301785	0.276111
H37	H	0.783650	-0.441443	0.282328
O38	O	1.124614	-0.313370	-0.276003
H39	H	1.090527	-0.454413	-0.339684
