data_functionalizedCrystal
_audit_creation_method	'MofGen! by Chris Wilmer'
_symmetry_space_group_name_H-M	'P1'
_symmetry_Int_Tables_number	1
_symmetry_cell_setting	triclinic
loop_
_symmetry_equiv_pos_as_xyz
  x,y,z
_cell_length_a	23.096457
_cell_length_b	23.196402
_cell_length_c	23.196401
_cell_angle_alpha	60.008520
_cell_angle_beta	90.011648
_cell_angle_gamma	59.998263
loop_
_atom_site_label
_atom_site_type_symbol
_atom_site_fract_x
_atom_site_fract_y
_atom_site_fract_z
Zr1	Zr	0.557733	0.631030	-0.075662
O2	O	0.465260	0.751300	-0.167707
O3	O	0.586083	0.510761	-0.047446
O4	O	0.586052	0.631032	-0.167714
O5	O	0.465315	0.631027	0.047432
O6	O	0.681332	0.631034	-0.167718
O7	O	0.465292	0.631028	-0.047439
O8	O	0.681388	0.415890	0.047420
O9	O	0.465258	0.846170	-0.167705
O10	O	0.669279	0.560231	-0.035413
O11	O	0.598189	0.560228	0.035391
O12	O	0.598152	0.701832	-0.106209
O13	O	0.527062	0.701830	-0.035405
Zr14	Zr	0.709731	0.631031	0.075642
Zr15	Zr	0.709695	0.631033	-0.075667
Zr16	Zr	0.557770	0.631028	0.075647
Zr17	Zr	0.557730	0.782338	-0.075658
Zr18	Zr	0.709734	0.479723	0.075639
O19	O	0.681381	0.751300	0.047427
O20	O	0.681330	0.751303	-0.167715
O21	O	0.465312	0.751296	0.047434
O22	O	0.802204	0.510761	0.167688
O23	O	0.802152	0.510765	-0.047454
O24	O	0.586135	0.510758	0.167695
O25	O	0.802150	0.631034	-0.047452
O26	O	0.681413	0.631029	0.167694
O27	O	0.586132	0.631027	0.167698
O28	O	0.802173	0.631033	0.047420
O29	O	0.586047	0.846172	-0.167710
O30	O	0.681417	0.415889	0.167690
O31	O	0.802206	0.415891	0.167686
O32	O	0.802177	0.415893	0.047415
O33	O	0.465287	0.846169	-0.047435
O34	O	0.586076	0.846171	-0.047439
O35	O	0.669313	0.560229	0.106189
O36	O	0.740402	0.560231	0.035385
O37	O	0.669276	0.701833	-0.035410
O38	O	0.598186	0.701830	0.035394
C39	C	0.633736	0.441768	-0.000014
C40	C	0.633737	0.377534	-0.000015
C41	C	0.670842	-0.085308	-0.036956
C42	C	0.670840	-0.024950	-0.036963
C43	C	0.633733	0.005231	-0.000004
C44	C	0.596610	-0.024937	0.036950
C45	C	0.596607	-0.085289	0.036949
C46	C	0.639051	0.067258	0.061901
C47	C	0.639059	0.127605	0.061904
C48	C	0.633738	0.191379	-0.000003
C49	C	0.628423	0.194792	-0.061912
C50	C	0.628420	0.134440	-0.061913
C51	C	0.633732	0.070673	0.000001
C52	C	0.670853	0.286992	-0.036965
C53	C	0.670846	0.347356	-0.036974
C54	C	0.596621	0.347362	0.036946
C55	C	0.596623	0.287005	0.036947
C56	C	0.633743	0.256821	-0.000007
C57	C	0.443652	0.631027	-0.000003
C58	C	0.379140	0.631026	-0.000001
C59	C	0.385962	0.557114	0.036947
C60	C	0.325347	0.557113	0.036950
C61	C	0.257910	0.631028	-0.000008
C62	C	0.251091	0.704950	-0.036958
C63	C	0.311706	0.704949	-0.036954
N64	N	0.135099	0.686048	-0.060158
N65	N	0.077519	0.686044	-0.060160
C66	C	0.075277	0.631035	-0.000021
N67	N	0.132796	0.576019	0.060120
N68	N	0.190382	0.576021	0.060121
C69	C	0.192179	0.631037	-0.000016
C70	C	0.016375	0.557117	0.036934
C71	C	-0.044243	0.557119	0.036939
C72	C	-0.118499	0.704958	-0.036976
C73	C	-0.057881	0.704954	-0.036975
C74	C	0.009554	0.631031	-0.000021
C75	C	0.823813	0.631034	-0.000017
C76	C	0.888324	0.631035	-0.000019
C77	C	0.633687	0.631033	-0.189274
C78	C	0.633671	0.631034	-0.253509
C79	C	0.633728	0.820293	-0.000006
C80	C	0.633727	0.884527	-0.000005
C81	C	0.596548	0.704947	-0.320637
C82	C	0.596565	0.704948	-0.380992
C83	C	0.633698	0.631032	-0.374215
C84	C	0.670830	0.557110	-0.307075
C85	C	0.670817	0.557111	-0.246722
C86	C	0.628426	0.574402	-0.441533
C87	C	0.628434	0.574404	-0.501887
C88	C	0.633743	0.631026	-0.560363
C89	C	0.639028	0.687660	-0.558485
C90	C	0.639015	0.687661	-0.498132
C91	C	0.633717	0.631023	-0.439654
C92	C	0.596636	0.704945	-0.692937
C93	C	0.596660	0.704943	-0.753292
C94	C	0.670919	0.557103	-0.679373
C95	C	0.670901	0.557107	-0.619021
C96	C	0.633756	0.631030	-0.625807
C97	C	0.633778	0.631028	0.189254
C98	C	0.633793	0.631027	0.253489
C99	C	0.823816	0.441771	-0.000021
C100	C	0.888329	0.377538	-0.000025
C101	C	0.633782	0.441765	0.189250
C102	C	0.633798	0.377530	0.253484
C103	C	0.823862	0.441768	0.189244
C104	C	0.888390	0.377534	0.253474
C105	C	0.443603	0.820293	-0.189263
C106	C	0.379074	0.884527	-0.253494
C107	C	0.443648	0.820290	0.000001
C108	C	0.379135	0.884523	0.000005
C109	C	0.633683	0.820296	-0.189270
C110	C	0.633666	0.884531	-0.253504
C111	C	0.881499	0.347373	-0.036989
C112	C	0.942110	0.287028	-0.037006
C113	C	1.009550	0.256844	-0.000055
C114	C	1.016379	0.287015	0.036910
C115	C	0.955769	0.347363	0.036923
C116	C	0.670932	0.347364	0.320611
C117	C	0.670945	0.287017	0.380971
C118	C	0.633828	0.256832	0.374202
C119	C	0.596690	0.287003	0.307067
C120	C	0.596673	0.347354	0.246709
C121	C	0.955808	0.347370	0.246679
C122	C	1.016445	0.287024	0.307025
C123	C	1.009663	0.256838	0.374166
C124	C	0.942238	0.287008	0.380960
C125	C	0.881602	0.347357	0.320615
C126	C	0.311657	0.914698	-0.246699
C127	C	0.251020	0.975063	-0.307045
C128	C	0.257802	1.005252	-0.374186
C129	C	0.325227	0.975078	-0.380980
C130	C	0.385862	0.914719	-0.320634
C131	C	0.385965	0.914694	0.036963
C132	C	0.325354	0.975056	0.036964
C133	C	0.257914	1.005242	0.000010
C134	C	0.251086	0.975069	-0.036952
C135	C	0.311696	0.914712	-0.036957
C136	C	0.670790	0.914697	-0.246712
C137	C	0.670788	0.975045	-0.307060
C138	C	0.633658	1.005230	-0.374199
C139	C	0.596533	0.975058	-0.380990
C140	C	0.596539	0.914707	-0.320642
H141	H	0.566403	0.262442	0.067041
H142	H	0.936726	0.262422	0.435634
Br143	Br	0.633655	1.087137	-0.456093
H144	H	0.826710	0.371909	0.326157
H145	H	1.071297	0.262430	0.066995
Br146	Br	-0.210015	0.805274	-0.087128
H147	H	0.633848	0.207691	0.423355
H148	H	0.306121	0.890122	-0.192035
Br149	Br	0.789981	0.388326	-0.087145
H150	H	1.058897	0.207704	-0.000071
Br151	Br	0.546275	0.388282	0.155610
Br152	Br	0.721352	0.246082	0.472072
H153	H	0.701075	0.262418	-0.067058
Br154	Br	0.477355	0.873775	-0.329870
Br155	Br	0.175664	1.087156	0.000024
H156	H	0.208423	1.054400	-0.423317
H157	H	0.566391	0.765137	-0.698464
H158	H	-0.063439	0.765142	-0.067067
Br159	Br	0.159524	1.015999	-0.297808
Br160	Br	0.965051	0.388289	0.087099
Br161	Br	0.334638	1.015991	0.087133
H162	H	0.701066	0.371920	-0.067069
Br163	Br	0.546320	0.246029	0.297893
Br164	Br	0.334419	1.016056	-0.472105
Br165	Br	0.477483	0.873743	0.087117
H166	H	0.701019	0.999604	-0.301518
H167	H	0.196180	0.765133	-0.067050
H168	H	0.566305	0.890153	-0.326182
Br169	Br	0.721229	0.456795	-0.297876
Br170	Br	0.159554	1.016042	-0.087098
H171	H	0.701154	0.496920	-0.673854
H172	H	0.701157	0.371934	0.326136
Br173	Br	0.302414	0.873769	-0.087116
H174	H	0.701026	0.890130	-0.192049
Br175	Br	0.546137	1.016039	-0.472113
Br176	Br	0.965032	0.388327	0.155567
Br177	Br	1.107940	0.246090	0.297788
H178	H	0.936536	0.262470	-0.067108
H179	H	0.701065	-0.109880	-0.067049
Br180	Br	0.621251	0.497554	-0.504434
Br181	Br	0.721214	0.015996	-0.087115
H182	H	0.624091	0.137223	-0.112321
Br183	Br	0.621213	0.281331	-0.145933
H184	H	0.566404	0.371938	0.067035
Br185	Br	0.646290	0.122957	0.145926
H186	H	0.643381	0.015334	0.112316
Br187	Br	1.091962	0.174935	0.456057
Br188	Br	0.546244	0.016027	0.087104
Br189	Br	0.546118	0.805270	-0.329849
Br190	Br	0.477477	0.456790	0.087102
Br191	Br	0.546232	-0.126228	0.087102
H192	H	0.071284	0.496924	0.067038
H193	H	0.701128	0.496920	-0.564361
H194	H	0.330901	0.496922	0.067038
H195	H	0.306146	0.765140	-0.067040
H196	H	0.566333	0.765138	-0.435658
Br197	Br	0.646187	0.764516	-0.495582
Br198	Br	0.646230	0.764511	-0.637841
Br199	Br	-0.034982	0.456800	0.087098
H200	H	0.566431	0.765134	-0.807952
H201	H	0.624099	0.528294	-0.393924
H202	H	0.701048	0.496921	-0.192062
