data_functionalizedCrystal
_audit_creation_method	'MofGen! by Chris Wilmer'
_symmetry_space_group_name_H-M	'P1'
_symmetry_Int_Tables_number	1
_symmetry_cell_setting	triclinic
loop_
_symmetry_equiv_pos_as_xyz
  x,y,z
_cell_length_a	11.792254
_cell_length_b	10.540539
_cell_length_c	10.868271
_cell_angle_alpha	89.997005
_cell_angle_beta	89.995741
_cell_angle_gamma	84.362045
loop_
_atom_site_label
_atom_site_type_symbol
_atom_site_fract_x
_atom_site_fract_y
_atom_site_fract_z
O1	O	1.507353	0.174069	-0.102315
O2	O	1.177060	0.191983	-0.102317
O3	O	1.349742	-0.001705	-0.102314
O4	O	1.334671	0.367757	-0.102318
O5	O	1.349728	-0.001712	0.102330
O6	O	1.177046	0.191976	0.102328
O7	O	1.507339	0.174061	0.102330
Zn8	Zn	1.342190	0.183017	0.134820
Zn9	Zn	1.342209	0.183027	-0.134808
O10	O	1.334657	0.367749	0.102327
C11	C	1.134760	0.190851	0.000005
C12	C	1.008738	0.187473	0.000004
C13	C	0.906394	0.184729	-0.000001
C14	C	0.777999	0.181297	-0.000002
C15	C	1.348605	-0.049008	0.000006
C16	C	1.345223	-0.189945	-0.000001
C17	C	1.215653	-0.372957	-0.000461
C18	C	1.219081	-0.226349	-0.000000
C19	C	1.405921	-0.251802	0.116862
C20	C	1.401616	-0.398332	0.116960
C21	C	1.404198	-0.398850	-0.115759
C22	C	1.405359	-0.251872	-0.117304
C23	C	1.549639	0.175193	0.000005
C24	C	1.675661	0.178571	-0.000002
C25	C	1.335794	0.415052	0.000004
C26	C	1.339176	0.555989	0.000003
N27	N	1.342185	0.183009	0.318834
N28	N	1.342223	0.183025	-0.318822
C29	C	1.342203	0.183024	0.569840
C30	C	1.342190	0.183020	0.430163
H31	H	1.171320	-0.183590	-0.083772
H32	H	1.363745	-0.209070	0.203826
H33	H	1.495310	-0.446368	-0.116545
C34	C	1.345419	-0.196405	-0.234102
N35	N	1.300261	-0.154630	-0.322071
C36	C	1.340985	-0.436240	0.234967
N37	N	1.295312	-0.464785	0.323851
H38	H	1.497328	-0.227945	-0.124361
C39	C	1.349048	-0.441289	-0.235420
N40	N	1.307496	-0.473251	-0.325543
C41	C	1.148613	-0.413514	0.112145
N42	N	1.098127	-0.444052	0.196971
C43	C	1.148333	-0.411387	-0.113668
N44	N	1.097626	-0.440345	-0.198937
H45	H	1.170974	-0.184442	0.083910
H46	H	1.498556	-0.229745	0.121207
C47	C	1.524171	-0.463532	0.124142
N48	N	1.616478	-0.512635	0.129560
