data_functionalizedCrystal
_audit_creation_method	'MofGen! by Chris Wilmer'
_symmetry_space_group_name_H-M	'P1'
_symmetry_Int_Tables_number	1
_symmetry_cell_setting	triclinic
loop_
_symmetry_equiv_pos_as_xyz
  x,y,z
_cell_length_a	18.215405
_cell_length_b	12.759401
_cell_length_c	12.759393
_cell_angle_alpha	89.982549
_cell_angle_beta	89.963358
_cell_angle_gamma	90.022864
loop_
_atom_site_label
_atom_site_type_symbol
_atom_site_fract_x
_atom_site_fract_y
_atom_site_fract_z
Zn1	Zn	-0.292958	1.606177	-0.593948
Zn2	Zn	-0.416045	1.606047	-0.418253
Zn3	Zn	-0.292995	1.430483	-0.418287
Zn4	Zn	-0.415985	1.430440	-0.593894
O5	O	-0.354496	1.518287	-0.506095
O6	O	-0.309295	1.753181	-0.570650
O7	O	-0.399762	1.582721	-0.271236
O8	O	-0.190006	1.453861	-0.441625
O9	O	-0.399727	1.753085	-0.441567
O10	O	-0.189979	1.582943	-0.570683
O11	O	-0.309358	1.453735	-0.271261
O12	O	-0.309300	1.283456	-0.441573
O13	O	-0.399625	1.453788	-0.740922
O14	O	-0.399661	1.283425	-0.570591
O15	O	-0.309238	1.582902	-0.740962
O16	O	-0.519021	1.582680	-0.441515
O17	O	-0.518978	1.453662	-0.570558
C18	C	-0.354479	1.245319	-0.506081
C19	C	-0.354489	1.128543	-0.506100
C20	C	-0.307490	1.073723	-0.573417
C21	C	-0.307504	0.963999	-0.573423
C22	C	-0.401522	0.963923	-0.438793
C23	C	-0.401504	1.073645	-0.438781
C24	C	-0.253212	1.073766	-0.651148
C25	C	-0.253226	0.964042	-0.651155
C26	C	-0.545702	1.518181	-0.506050
C27	C	-0.627501	1.518232	-0.506066
C28	C	-0.892557	1.585608	-0.439015
C29	C	-0.815698	1.585565	-0.438991
C30	C	-0.815694	1.451095	-0.573247
C31	C	-0.892551	1.451134	-0.573265
C32	C	-0.930981	1.518396	-0.506150
C33	C	-0.777264	1.518314	-0.506108
C34	C	-0.693931	1.518267	-0.506083
C35	C	-1.014319	1.518443	-0.506174
C36	C	-0.162543	1.518422	-0.506164
C37	C	-0.080744	1.518479	-0.506193
C38	C	-0.354514	1.792320	-0.506111
C39	C	-0.354521	1.909097	-0.506117
C40	C	-0.354421	1.518355	-0.780129
C41	C	-0.354389	1.518384	-0.896906
C42	C	-0.307307	1.451249	-0.951787
C43	C	-0.307285	1.451281	-1.061511
C44	C	-0.401429	1.585591	-1.061463
C45	C	-0.401455	1.585553	-0.951741
C46	C	-0.252951	1.373709	-0.951815
C47	C	-0.252929	1.373741	-1.061539
C48	C	-0.354517	1.518279	-0.233128
C49	C	-0.354342	1.518454	-0.116352
H50	H	-0.439768	1.118275	-0.383955
H51	H	-0.784416	1.640293	-0.384322
H52	H	-0.195923	1.395571	-1.091344
Br53	Br	-0.162952	0.907314	-0.602824
H54	H	-0.923844	1.640377	-0.384366
Br55	Br	-0.763534	1.359823	-0.664333
Br56	Br	-0.465323	0.889414	-0.347434
Br57	Br	-0.944702	1.359906	-0.664378
Br58	Br	-0.465366	1.676652	-0.877262
Br59	Br	-0.465303	1.676742	-1.135889
H60	H	-0.268563	0.934292	-0.732489
Br61	Br	-0.278388	1.238055	-0.902170
H62	H	-0.273329	1.296439	-1.095563
Br63	Br	-0.158176	1.123413	-0.615076
Br64	Br	-0.287344	1.130545	-0.779873
Br65	Br	-0.162732	1.422341	-0.895119
