data_functionalizedCrystal
_audit_creation_method	'MofGen! by Chris Wilmer'
_symmetry_space_group_name_H-M	'P1'
_symmetry_Int_Tables_number	1
_symmetry_cell_setting	triclinic
loop_
_symmetry_equiv_pos_as_xyz
  x,y,z
_cell_length_a	18.215407
_cell_length_b	13.897447
_cell_length_c	18.215407
_cell_angle_alpha	90.009321
_cell_angle_beta	90.010236
_cell_angle_gamma	90.019978
loop_
_atom_site_label
_atom_site_type_symbol
_atom_site_fract_x
_atom_site_fract_y
_atom_site_fract_z
Zn1	Zn	1.125030	-0.384163	0.416130
Zn2	Zn	1.124970	-0.545428	0.293070
Zn3	Zn	1.001983	-0.384150	0.293078
Zn4	Zn	1.001940	-0.545419	0.416095
O5	O	1.063481	-0.464790	0.354593
O6	O	1.228006	-0.405565	0.399818
O7	O	1.108649	-0.524033	0.190087
O8	O	1.018348	-0.249170	0.309419
O9	O	1.227962	-0.524046	0.309406
O10	O	1.108750	-0.249180	0.399825
O11	O	1.018291	-0.405543	0.190093
O12	O	0.898993	-0.405534	0.309385
O13	O	1.018275	-0.524029	0.519084
O14	O	0.898961	-0.524017	0.399765
O15	O	1.108708	-0.405555	0.519110
O16	O	1.108607	-0.680409	0.309372
O17	O	1.018217	-0.680402	0.399758
C18	C	0.872274	-0.464774	0.354572
C19	C	0.790475	-0.464790	0.354581
C20	C	1.063421	-0.715405	0.354576
C21	C	1.063462	-0.822618	0.354594
C22	C	0.602284	-0.526581	0.401583
C23	C	0.525425	-0.526584	0.401592
C24	C	0.525429	-0.403017	0.307620
C25	C	0.602286	-0.403010	0.307615
C26	C	0.640712	-0.464797	0.354596
C27	C	0.486996	-0.464807	0.354610
C28	C	0.403662	-0.464810	0.354619
C29	C	0.724051	-0.464793	0.354587
C30	C	1.063498	-0.909688	0.354611
C31	C	1.063550	-1.018921	0.354629
C32	C	1.255433	-0.464807	0.354615
C33	C	1.337232	-0.464815	0.354624
C34	C	1.063493	-0.464793	0.546546
C35	C	1.063499	-0.464794	0.628345
C36	C	1.063561	-0.213197	0.354627
C37	C	1.063595	-0.105983	0.354641
C38	C	1.110573	-0.403115	0.816554
C39	C	1.110569	-0.403114	0.893413
C40	C	1.016400	-0.526487	0.893374
C41	C	1.016401	-0.526482	0.816517
C42	C	1.063492	-0.464797	0.778109
C43	C	1.063487	-0.464802	0.931825
C44	C	1.063482	-0.464802	1.015159
C45	C	1.063496	-0.464796	0.694770
C46	C	1.063468	-0.464808	1.163387
C47	C	1.063480	-0.464805	1.081588
H48	H	0.494141	-0.576893	0.439855
H49	H	0.494133	-0.352713	0.269370
N50	N	0.643740	-0.336356	0.256943
H51	H	0.607736	-0.297217	0.227181
H52	H	0.675617	-0.375540	0.222833
N53	N	1.161359	-0.336585	0.775126
H54	H	1.191183	-0.297509	0.811146
H55	H	1.131417	-0.291944	0.743238
N56	N	1.161340	-0.336574	0.934879
H57	H	1.191167	-0.297496	0.898883
H58	H	1.195387	-0.375832	0.966774
H59	H	0.978057	-0.576711	0.785214
H60	H	0.633568	-0.576890	0.439839
H61	H	0.978063	-0.576711	0.924656
