data_functionalizedCrystal
_audit_creation_method	'MofGen! by Chris Wilmer'
_symmetry_space_group_name_H-M	'P1'
_symmetry_Int_Tables_number	1
_symmetry_cell_setting	triclinic
loop_
_symmetry_equiv_pos_as_xyz
  x,y,z
_cell_length_a	11.792241
_cell_length_b	19.188930
_cell_length_c	10.868271
_cell_angle_alpha	89.989749
_cell_angle_beta	89.999893
_cell_angle_gamma	83.669099
loop_
_atom_site_label
_atom_site_type_symbol
_atom_site_fract_x
_atom_site_fract_y
_atom_site_fract_z
O1	O	1.505476	0.095695	-0.102218
O2	O	2.005476	0.595695	0.397782
O3	O	1.174987	0.105557	-0.102248
O4	O	1.674987	0.605557	0.397752
O5	O	1.349769	-0.000975	-0.102208
O6	O	1.849769	0.499025	0.397792
O7	O	1.330695	0.202228	-0.102258
O8	O	1.830695	0.702228	0.397742
O9	O	1.349755	-0.000980	0.102437
O10	O	1.849755	0.499020	0.602437
O11	O	1.174973	0.105553	0.102396
O12	O	1.674973	0.605553	0.602396
O13	O	1.505462	0.095691	0.102427
O14	O	2.005462	0.595691	0.602427
Zn15	Zn	1.340215	0.100621	0.134903
Zn16	Zn	1.840215	0.600621	0.634903
Zn17	Zn	1.340234	0.100627	-0.134725
Zn18	Zn	1.840234	0.600627	0.365275
O19	O	1.330680	0.202224	0.102387
O20	O	1.830680	0.702224	0.602387
C21	C	1.132699	0.104936	0.000071
C22	C	1.632699	0.604936	0.500071
C23	C	1.006713	0.103082	0.000060
C24	C	1.506713	0.603082	0.500060
C25	C	0.776051	0.099672	0.000096
C26	C	1.276051	0.599672	0.500096
C27	C	0.904408	0.101566	0.000076
C28	C	1.404408	0.601566	0.500076
C29	C	1.349144	-0.026992	0.000118
C30	C	1.849144	0.473008	0.500118
C31	C	1.347290	-0.104507	0.000128
C32	C	1.847290	0.395493	0.500128
C33	C	1.449846	-0.148850	0.000143
C34	C	1.949846	0.351150	0.500143
C35	C	1.448104	-0.221684	0.000123
C36	C	1.948104	0.278316	0.500123
C37	C	1.343800	-0.250171	0.000113
C38	C	1.843800	0.249829	0.500113
C39	C	1.241230	-0.205818	0.000091
C40	C	1.741230	0.294182	0.500091
C41	C	1.242975	-0.132986	0.000098
C42	C	1.742975	0.367014	0.500098
N43	N	1.264067	-0.358629	0.069750
N44	N	1.764067	0.141371	0.569750
N45	N	1.262417	-0.427817	0.069746
N46	N	1.762417	0.072183	0.569746
C47	C	1.338536	-0.469609	0.000088
C48	C	1.838536	0.030391	0.500088
N49	N	1.416386	-0.439602	-0.069550
N50	N	1.916386	0.060398	0.430450
N51	N	1.418040	-0.370408	-0.069540
N52	N	1.918040	0.129592	0.430460
C53	C	1.341896	-0.329144	0.000104
C54	C	1.841896	0.170856	0.500104
C55	C	1.439211	-0.592928	0.000080
C56	C	1.939211	-0.092928	0.500080
C57	C	1.437464	-0.665762	0.000052
C58	C	1.937464	-0.165762	0.500052
C59	C	1.230588	-0.649895	0.000032
C60	C	1.730588	-0.149895	0.500032
C61	C	1.232337	-0.577062	0.000047
C62	C	1.732337	-0.077062	0.500047
C63	C	1.336652	-0.548583	0.000077
C64	C	1.836652	-0.048583	0.500077
C65	C	1.547751	0.096313	0.000105
C66	C	2.047751	0.596313	0.500105
C67	C	1.673737	0.098167	0.000108
C68	C	2.173737	0.598167	0.500108
C69	C	1.331305	0.228240	0.000058
C70	C	1.831305	0.728240	0.500058
C71	C	1.333159	0.305755	0.000040
C72	C	1.833159	0.805755	0.500040
N73	N	1.340211	0.100617	0.318917
N74	N	1.840211	0.600617	0.818917
N75	N	1.340248	0.100626	-0.318739
N76	N	1.840248	0.600626	0.181261
C77	C	1.340228	0.100625	0.569923
C78	C	1.840228	0.600625	1.069923
C79	C	1.340215	0.100623	0.430246
C80	C	1.840215	0.600623	0.930246
H81	H	1.534787	-0.125667	0.000163
H82	H	2.034787	0.374333	0.500163
C83	C	1.131535	-0.084920	-0.000101
C84	C	1.631535	0.415080	0.499899
C85	C	1.068703	-0.097846	-0.105381
C86	C	1.568703	0.402154	0.394619
C87	C	0.966032	-0.053586	-0.105596
C88	C	1.466032	0.446414	0.394404
H89	H	1.147351	-0.037442	-0.000154
H90	H	1.647351	0.462558	0.499846
H91	H	1.088681	-0.093619	0.071219
H92	H	1.588681	0.406381	0.571219
H93	H	1.111548	-0.089142	-0.176683
H94	H	1.611548	0.410858	0.323317
H95	H	1.052857	-0.145316	-0.105351
H96	H	1.552857	0.354684	0.394649
H97	H	0.923178	-0.062285	-0.034276
H98	H	1.423178	0.437715	0.465724
H99	H	0.981859	-0.006111	-0.105645
H100	H	1.481859	0.493889	0.394355
H101	H	0.923383	-0.062355	-0.177021
H102	H	1.423383	0.437645	0.322979
H103	H	1.531620	-0.257795	0.000131
H104	H	2.031620	0.242205	0.500131
H105	H	1.156305	-0.229017	0.000080
H106	H	1.656305	0.270983	0.500080
C107	C	1.552577	-0.562136	0.000024
C108	C	2.052577	-0.062136	0.500024
C109	C	1.642022	-0.616563	-0.000017
C110	C	2.142022	-0.116563	0.499983
C111	C	1.746471	-0.588227	-0.000090
C112	C	2.246471	-0.088227	0.499910
H113	H	1.557724	-0.534074	0.071371
H114	H	2.057724	-0.034074	0.571371
H115	H	1.557615	-0.534064	-0.071366
H116	H	2.057615	-0.034064	0.428634
H117	H	1.636986	-0.644624	0.071366
H118	H	2.136986	-0.144624	0.571366
H119	H	1.636913	-0.644630	-0.071359
H120	H	2.136913	-0.144630	0.428641
H121	H	1.751509	-0.560155	-0.071480
H122	H	2.251509	-0.060155	0.428520
H123	H	1.751605	-0.560165	0.071258
H124	H	2.251605	-0.060165	0.571258
H125	H	1.807172	-0.625151	-0.000129
H126	H	2.307172	-0.125151	0.499871
H127	H	1.520981	-0.701866	0.000058
H128	H	2.020981	-0.201866	0.500058
H129	H	1.145661	-0.673089	0.000017
H130	H	1.645661	-0.173089	0.500017
C131	C	1.120865	-0.529030	0.000111
C132	C	1.620865	-0.029030	0.500111
C133	C	1.029144	-0.569563	0.000130
C134	C	1.529144	-0.069563	0.500130
C135	C	0.926435	-0.525340	0.000202
C136	C	1.426435	-0.025340	0.500202
H137	H	1.117087	-0.500263	-0.071230
H138	H	1.617087	-0.000263	0.428770
H139	H	1.117181	-0.500309	0.071508
H140	H	1.617181	-0.000309	0.571508
H141	H	1.032826	-0.598272	-0.071260
H142	H	1.532826	-0.098272	0.428740
H143	H	1.032885	-0.598329	0.071465
H144	H	1.532885	-0.098329	0.571465
H145	H	0.922751	-0.496620	0.071598
H146	H	1.422751	0.003380	0.571598
H147	H	0.922668	-0.496575	-0.071140
H148	H	1.422668	0.003425	0.428860
H149	H	0.864190	-0.552836	0.000226
H150	H	1.364190	-0.052836	0.500226
