data_functionalizedCrystal
_audit_creation_method	'MofGen! by Chris Wilmer'
_symmetry_space_group_name_H-M	'P1'
_symmetry_Int_Tables_number	1
_symmetry_cell_setting	triclinic
loop_
_symmetry_equiv_pos_as_xyz
  x,y,z
_cell_length_a	17.699104
_cell_length_b	17.699083
_cell_length_c	16.776229
_cell_angle_alpha	89.992455
_cell_angle_beta	89.991971
_cell_angle_gamma	83.287266
loop_
_atom_site_label
_atom_site_type_symbol
_atom_site_fract_x
_atom_site_fract_y
_atom_site_fract_z
O1	O	1.004069	0.095788	-0.066306
O2	O	0.783692	0.108224	-0.066304
O3	O	0.900107	-0.008183	-0.066298
O4	O	0.887654	0.212195	-0.066312
O5	O	0.900091	-0.008190	0.066278
O6	O	0.783677	0.108217	0.066272
O7	O	1.004053	0.095781	0.066271
Zn8	Zn	0.893863	0.101998	0.087321
Zn9	Zn	0.893883	0.102007	-0.087354
O10	O	0.887639	0.212188	0.066264
C11	C	0.755488	0.107772	-0.000016
C12	C	0.671471	0.106427	-0.000015
C13	C	0.146600	0.167171	-0.000027
C14	C	0.225543	0.168430	-0.000029
C15	C	0.274161	0.100095	-0.000025
C16	C	0.243831	0.030496	-0.000026
C17	C	0.164889	0.029238	-0.000029
C18	C	0.562197	0.035569	-0.000014
C19	C	0.641144	0.036833	-0.000008
C20	C	0.622852	0.174762	-0.000014
C21	C	0.543909	0.173503	-0.000017
C22	C	0.513587	0.103905	-0.000022
C23	C	0.427987	0.102541	-0.000021
C24	C	0.359759	0.101459	-0.000020
C25	C	1.032258	0.096233	-0.000020
C26	C	1.116275	0.097578	-0.000026
C27	C	0.899653	-0.036383	-0.000010
C28	C	0.898314	-0.120402	-0.000009
C29	C	0.966647	-0.169017	-0.000009
C30	C	0.965385	-0.247961	-0.000016
C31	C	0.895789	-0.278287	-0.000018
C32	C	0.827451	-0.229665	-0.000021
C33	C	0.828714	-0.150723	-0.000019
C34	C	0.822356	-0.548028	-0.000027
C35	C	0.821098	-0.626976	-0.000026
C36	C	0.959026	-0.645266	-0.000024
C37	C	0.960289	-0.566324	-0.000022
C38	C	0.891952	-0.517709	-0.000029
C39	C	0.893321	-0.432110	-0.000023
C40	C	0.894419	-0.363885	-0.000018
C41	C	0.888093	0.240388	-0.000026
C42	C	0.889431	0.324406	-0.000031
N43	N	0.893854	0.101991	0.206532
N44	N	0.893897	0.102008	-0.206566
C45	C	0.945418	0.050467	0.248252
C46	C	0.945422	0.050466	0.331704
C47	C	0.893866	0.101994	0.373435
C48	C	0.842296	0.153520	0.331709
C49	C	0.842289	0.153516	0.248259
C50	C	0.842324	0.153535	0.668257
C51	C	0.842336	0.153536	0.751713
C52	C	0.945457	0.050485	0.751702
C53	C	0.945450	0.050481	0.668251
C54	C	0.893878	0.102004	0.626533
C55	C	0.893873	0.102004	0.536045
C56	C	0.893874	0.101999	0.463922
H57	H	0.647550	0.231432	-0.000013
C58	C	1.034200	-0.698741	-0.000025
H59	H	1.075828	-0.669373	-0.000014
H60	H	1.036585	-0.729911	-0.046258
H61	H	1.036567	-0.729922	0.046213
C62	C	0.694623	-0.038339	-0.000014
H63	H	0.665258	-0.079970	-0.000027
H64	H	0.725793	-0.040723	0.046219
H65	H	0.725804	-0.040702	-0.046252
H66	H	1.021028	-0.287541	-0.000014
C67	C	0.093124	0.242339	-0.000031
H68	H	0.041765	0.231625	-0.000026
H69	H	0.102312	0.270885	-0.046264
H70	H	0.102298	0.270878	0.046206
C71	C	0.785561	0.210178	0.377607
H72	H	0.754839	0.240852	0.340806
H73	H	0.812705	0.241664	0.410161
H74	H	0.754119	0.182962	0.410161
H75	H	0.766711	-0.508455	-0.000033
C76	C	1.036844	-0.532969	-0.000024
H77	H	1.077361	-0.573231	-0.000032
H78	H	1.040201	-0.502558	0.046207
H79	H	1.040205	-0.502551	-0.046263
C80	C	0.744539	-0.660333	-0.000039
H81	H	0.704020	-0.620074	-0.000052
H82	H	0.741168	-0.690754	0.046192
H83	H	0.741196	-0.690743	-0.046278
H84	H	0.504328	0.229149	-0.000017
C85	C	0.528851	-0.040985	-0.000006
H86	H	0.569114	-0.081500	0.000008
H87	H	0.498443	-0.044348	-0.046238
H88	H	0.498431	-0.044343	0.046233
C89	C	0.750897	-0.263021	-0.000021
H90	H	0.759930	-0.316999	-0.000012
H91	H	0.722770	-0.246321	-0.046252
H92	H	0.722765	-0.246329	0.046219
C93	C	1.002150	-0.006203	0.377593
H94	H	1.032861	-0.036883	0.340787
H95	H	0.974996	-0.037681	0.410162
H96	H	1.033603	0.021000	0.410131
C97	C	0.753550	-0.097242	-0.000020
H98	H	0.764269	-0.045884	-0.000028
H99	H	0.724997	-0.106424	0.046210
H100	H	0.725017	-0.106418	-0.046261
H101	H	0.283422	-0.025143	-0.000027
H102	H	0.800300	0.195471	0.214291
C103	C	0.258902	0.244981	-0.000033
H104	H	0.312879	0.235946	-0.000042
H105	H	0.242203	0.273111	0.046197
H106	H	0.242210	0.273111	-0.046274
H107	H	0.140200	-0.027432	-0.000030
C108	C	0.785608	0.210205	0.797616
H109	H	0.754884	0.240882	0.760819
H110	H	0.812764	0.241687	0.830162
H111	H	0.754165	0.182997	0.830178
H112	H	1.023320	-0.144333	-0.000002
H113	H	0.987405	0.008511	0.214280
C114	C	1.002159	-0.006201	0.622351
H115	H	1.032865	-0.036893	0.659151
H116	H	1.033609	0.020985	0.589781
H117	H	0.974983	-0.037678	0.589814
C118	C	1.002178	-0.006198	0.797594
H119	H	0.994795	0.001175	0.853271
H120	H	1.052671	0.001962	0.783905
H121	H	0.994049	-0.056705	0.783926
H122	H	0.800334	0.195488	0.634296
