data_functionalizedCrystal
_audit_creation_method	'MofGen! by Chris Wilmer'
_symmetry_space_group_name_H-M	'P1'
_symmetry_Int_Tables_number	1
_symmetry_cell_setting	triclinic
loop_
_symmetry_equiv_pos_as_xyz
  x,y,z
_cell_length_a	18.215407
_cell_length_b	10.686285
_cell_length_c	18.215399
_cell_angle_alpha	94.390852
_cell_angle_beta	90.019833
_cell_angle_gamma	85.632014
loop_
_atom_site_label
_atom_site_type_symbol
_atom_site_fract_x
_atom_site_fract_y
_atom_site_fract_z
Zn1	Zn	1.147639	-0.502344	0.393704
Zn2	Zn	1.157027	-0.713359	0.261223
Zn3	Zn	1.024574	-0.502385	0.270649
Zn4	Zn	1.034014	-0.713289	0.384251
O5	O	1.090813	-0.607844	0.327457
O6	O	1.251869	-0.530347	0.376141
O7	O	1.139435	-0.685420	0.159487
O8	O	1.033019	-0.325804	0.294874
O9	O	1.258767	-0.685380	0.278808
O10	O	1.123434	-0.325774	0.385281
O11	O	1.042122	-0.530418	0.166413
O12	O	0.922841	-0.530350	0.285708
O13	O	1.049109	-0.685260	0.488492
O14	O	0.929777	-0.685300	0.369171
O15	O	1.132588	-0.530279	0.495436
O16	O	1.148589	-0.889925	0.269642
O17	O	1.058212	-0.889873	0.360030
C18	C	0.899606	-0.607823	0.327437
C19	C	0.817808	-0.607844	0.327444
C20	C	1.105463	-0.935683	0.312804
C21	C	1.111798	-1.075934	0.306560
C22	C	0.633251	-0.688653	0.370839
C23	C	0.556392	-0.688657	0.370848
C24	C	0.549129	-0.527058	0.284090
C25	C	0.625986	-0.527049	0.284086
C26	C	0.668045	-0.607853	0.327459
C27	C	0.514330	-0.607867	0.327472
C28	C	0.430996	-0.607870	0.327482
C29	C	0.751384	-0.607848	0.327450
C30	C	1.282767	-0.607867	0.327478
C31	C	1.364567	-0.607876	0.327486
C32	C	1.090854	-0.607757	0.519414
C33	C	1.090872	-0.607720	0.601214
C34	C	1.076126	-0.278725	0.342183
C35	C	1.069867	-0.138474	0.348459
C36	C	1.090811	-0.607840	0.136251
C37	C	1.090920	-0.607521	0.054467
C38	C	1.134353	-0.526946	0.793029
C39	C	1.134360	-0.526909	0.869890
C40	C	1.047434	-0.688299	0.862646
C41	C	1.047423	-0.688328	0.785788
C42	C	1.090887	-0.607654	0.750981
C43	C	1.090905	-0.607588	0.904700
C44	C	1.090912	-0.607548	0.988036
C45	C	1.090879	-0.607691	0.667640
H46	H	0.528066	-0.754451	0.406173
C47	C	1.021113	-0.902010	0.752540
C48	C	0.999645	-0.777052	0.739560
H49	H	0.991619	-0.956777	0.723996
H50	H	1.014895	-0.913535	0.803288
H51	H	1.071384	-0.920465	0.739125
H52	H	0.949375	-0.758594	0.752980
H53	H	1.005857	-0.765521	0.688800
H54	H	1.169754	-0.461187	0.904122
C55	C	0.611093	-0.367319	0.198320
C56	C	0.664238	-0.438230	0.236396
H57	H	0.634710	-0.312494	0.168878
H58	H	0.578976	-0.319125	0.232583
H59	H	0.583559	-0.422251	0.167666
H60	H	0.691769	-0.383298	0.267055
H61	H	0.696368	-0.486428	0.202129
H62	H	1.029123	-1.084722	0.389109
C63	C	0.632707	-0.848373	0.456603
C64	C	0.679482	-0.777458	0.418522
H65	H	0.661248	-0.903189	0.486047
H66	H	0.604874	-0.896576	0.422343
H67	H	0.600283	-0.793442	0.487257
H68	H	0.711903	-0.832389	0.387865
H69	H	0.707327	-0.729251	0.452786
C70	C	1.160650	-0.313291	0.778939
C71	C	1.182120	-0.438257	0.754770
H72	H	1.190136	-0.258535	0.755317
H73	H	1.166879	-0.301734	0.830725
H74	H	1.110376	-0.294848	0.767154
H75	H	1.232393	-0.456702	0.766559
H76	H	1.175897	-0.449819	0.702972
H77	H	0.514875	-0.461271	0.248777
C78	C	1.162682	-1.278049	0.255938
C79	C	1.166831	-1.148495	0.251703
H80	H	1.196668	-1.322842	0.222084
H81	H	1.114222	-1.299682	0.244140
H82	H	1.174354	-1.299486	0.304463
H83	H	1.155153	-1.127057	0.203180
H84	H	1.215302	-1.126853	0.263496
C85	C	1.008856	-0.759922	0.977250
C86	C	0.999666	-0.776983	0.900908
H87	H	0.979369	-0.814681	1.000868
H88	H	0.994301	-0.675146	0.993635
H89	H	1.059132	-0.778388	0.989019
H90	H	0.949390	-0.758508	0.889138
H91	H	1.014217	-0.861778	0.884517
