data_functionalizedCrystal
_audit_creation_method	'MofGen! by Chris Wilmer'
_symmetry_space_group_name_H-M	'P1'
_symmetry_Int_Tables_number	1
_symmetry_cell_setting	triclinic
loop_
_symmetry_equiv_pos_as_xyz
  x,y,z
_cell_length_a	18.050591
_cell_length_b	13.032268
_cell_length_c	13.032721
_cell_angle_alpha	103.289627
_cell_angle_beta	97.201340
_cell_angle_gamma	97.156847
loop_
_atom_site_label
_atom_site_type_symbol
_atom_site_fract_x
_atom_site_fract_y
_atom_site_fract_z
Zn1	Zn	1.031220	-0.654387	-0.499207
Zn2	Zn	1.031139	-0.499335	-0.654292
Zn3	Zn	0.925098	-0.476788	-0.476689
Zn4	Zn	0.888950	-0.676851	-0.676748
O5	O	0.969102	-0.576840	-0.576734
O6	O	1.135128	-0.633854	-0.519805
O7	O	1.032166	-0.347727	-0.611910
O8	O	0.954337	-0.481509	-0.331048
O9	O	1.135069	-0.519938	-0.633745
O10	O	1.032304	-0.611991	-0.347592
O11	O	0.954258	-0.331161	-0.481427
O12	O	0.816383	-0.503292	-0.503202
O13	O	0.892729	-0.822488	-0.672019
O14	O	0.789826	-0.650278	-0.650184
O15	O	0.997254	-0.805984	-0.541581
O16	O	0.997115	-0.541720	-0.805899
O17	O	0.892650	-0.672141	-0.822398
C18	C	0.776159	-0.576776	-0.576687
C19	C	0.693613	-0.576778	-0.576696
C20	C	0.940968	-0.853849	-0.611817
C21	C	0.928979	-0.971893	-0.626767
C22	C	0.940969	-0.611838	-0.852689
C23	C	0.928998	-0.626846	-0.970749
C24	C	0.508574	-0.497000	-0.496705
C25	C	0.451966	-0.483163	-0.590267
C26	C	0.542474	-0.576830	-0.576734
C27	C	0.451997	-0.590668	-0.483206
C28	C	0.396482	-0.576877	-0.576762
C29	C	0.486954	-0.562949	-0.670340
C30	C	0.486991	-0.670491	-0.563220
C31	C	0.430395	-0.656699	-0.656853
C32	C	0.626577	-0.576800	-0.576716
C33	C	0.312380	-0.576909	-0.576791
C34	C	1.162797	-0.576905	-0.576782
C35	C	1.245338	-0.576932	-0.576803
C36	C	0.975351	-1.016355	-0.568893
C37	C	0.962961	-1.138360	-0.584344
C38	C	0.997176	-0.300900	-0.541712
C39	C	1.009339	-0.182818	-0.526462
C40	C	0.975384	-0.569055	-1.015191
C41	C	0.963013	-0.584565	-1.137212
C42	C	0.997362	-0.541729	-0.299704
C43	C	1.009405	-0.526767	-0.181651
H44	H	0.542427	-0.429433	-0.429084
H45	H	0.914141	-0.645532	-1.189495
H46	H	0.502638	-0.749648	-0.551736
H47	H	1.024222	-0.964096	-0.507904
C48	C	0.897856	-1.208213	-0.665657
C49	C	0.898527	-1.315340	-0.664845
C50	C	0.838573	-1.379720	-0.739746
H51	H	0.851322	-1.188242	-0.647912
H52	H	0.903276	-1.199200	-0.734773
H53	H	0.893101	-1.324347	-0.595745
H54	H	0.945048	-1.335343	-0.682602
H55	H	0.843993	-1.370708	-0.808862
H56	H	0.792043	-1.359740	-0.721994
H57	H	0.839024	-1.452413	-0.739212
H58	H	1.058213	-1.130564	-0.465466
H59	H	0.880102	-1.024150	-0.687745
H60	H	0.880130	-0.687809	-1.023035
C61	C	1.040445	-0.487631	-0.945410
C62	C	1.011754	-0.411458	-0.873189
C63	C	1.071666	-0.336424	-0.808901
H64	H	1.073047	-0.522702	-0.907134
H65	H	1.067940	-0.453316	-0.989072
H66	H	0.984271	-0.445769	-0.829532
H67	H	0.979159	-0.376360	-0.911435
H68	H	1.099162	-0.302109	-0.852563
H69	H	1.104265	-0.371505	-0.770632
H70	H	1.052208	-0.284727	-0.759898
C71	C	1.074471	-0.445336	-1.111879
C72	C	1.045783	-0.369159	-1.039658
C73	C	1.105696	-0.294122	-0.975379
H74	H	1.107075	-0.480404	-1.073603
H75	H	1.101963	-0.411025	-1.155547
H76	H	1.018303	-0.403467	-0.995995
H77	H	1.013185	-0.334064	-1.077905
H78	H	1.133189	-0.259811	-1.019047
H79	H	1.138297	-0.329200	-0.937110
H80	H	1.086240	-0.242422	-0.926376
H81	H	0.502460	-0.551175	-0.749460
C82	C	0.431045	-0.377550	-0.605309
C83	C	0.399684	-0.328267	-0.517404
C84	C	0.380401	-0.230969	-0.531196
H85	H	0.475076	-0.332393	-0.611057
H86	H	0.395190	-0.390142	-0.668545
H87	H	0.435536	-0.315670	-0.454186
H88	H	0.355646	-0.373393	-0.511641
H89	H	0.344546	-0.243561	-0.594431
H90	H	0.424436	-0.185821	-0.536945
H91	H	0.359114	-0.197523	-0.471561
C92	C	0.385453	-0.746635	-0.747347
C93	C	0.403113	-0.731654	-0.845012
C94	C	0.361719	-0.814467	-0.928400
H95	H	0.397938	-0.813078	-0.738444
H96	H	0.332904	-0.746516	-0.746574
H97	H	0.455651	-0.731783	-0.845784
H98	H	0.390626	-0.665227	-0.853949
H99	H	0.309169	-0.814349	-0.927628
H100	H	0.374207	-0.880905	-0.919488
H101	H	0.373690	-0.804309	-0.994676
H102	H	0.436371	-0.602319	-0.404105
