data_functionalizedCrystal
_audit_creation_method	'MofGen! by Chris Wilmer'
_symmetry_space_group_name_H-M	'P1'
_symmetry_Int_Tables_number	1
_symmetry_cell_setting	triclinic
loop_
_symmetry_equiv_pos_as_xyz
  x,y,z
_cell_length_a	17.077404
_cell_length_b	12.759394
_cell_length_c	17.077396
_cell_angle_alpha	90.024622
_cell_angle_beta	90.019501
_cell_angle_gamma	90.014081
loop_
_atom_site_label
_atom_site_type_symbol
_atom_site_fract_x
_atom_site_fract_y
_atom_site_fract_z
Zn1	Zn	1.200104	-0.418260	0.443864
Zn2	Zn	1.200032	-0.593961	0.312607
Zn3	Zn	1.068836	-0.418297	0.312612
Zn4	Zn	1.068824	-0.593898	0.443830
O5	O	1.134449	-0.506104	0.378228
O6	O	1.309941	-0.441578	0.426464
O7	O	1.182603	-0.570700	0.202760
O8	O	1.086284	-0.271271	0.330039
O9	O	1.309888	-0.570664	0.330030
O10	O	1.182726	-0.271244	0.426469
O11	O	1.086214	-0.441641	0.202764
O12	O	0.958987	-0.441580	0.330006
O13	O	1.086264	-0.570558	0.553682
O14	O	0.958979	-0.570594	0.426412
O15	O	1.182715	-0.441517	0.553706
O16	O	1.182592	-0.740974	0.329998
O17	O	1.086194	-0.740928	0.426407
C18	C	0.930501	-0.506085	0.378206
C19	C	0.843251	-0.506102	0.378216
C20	C	0.802277	-0.573381	0.428334
C21	C	0.720297	-0.573383	0.428346
C22	C	0.679292	-0.506111	0.378236
C23	C	0.720272	-0.438825	0.328116
C24	C	0.802250	-0.438818	0.328108
C25	C	0.549401	-0.438846	0.328135
C26	C	0.467417	-0.438854	0.328142
C27	C	0.467448	-0.573411	0.428373
C28	C	0.549427	-0.573404	0.428365
C29	C	0.590401	-0.506119	0.378244
C30	C	1.134405	-0.779072	0.378215
C31	C	1.134458	-0.895848	0.378236
C32	C	1.234809	-0.895662	0.478724
C33	C	1.285008	-0.950429	0.528974
C34	C	1.285055	-1.060151	0.528991
C35	C	1.234895	-1.115108	0.478754
C36	C	1.184695	-1.060340	0.428504
C37	C	1.184655	-0.950616	0.428491
C38	C	1.084342	-1.060526	0.328021
C39	C	1.084298	-0.950805	0.327999
C40	C	1.034182	-1.115483	0.277784
C41	C	0.983985	-1.060715	0.227529
C42	C	0.983941	-0.950987	0.227514
C43	C	1.034098	-0.896037	0.277749
C44	C	1.339193	-0.506124	0.378250
C45	C	1.426443	-0.506132	0.378260
C46	C	1.134496	-0.506027	0.582972
C47	C	1.134517	-0.505994	0.670222
C48	C	1.134514	-0.232071	0.378258
C49	C	1.134542	-0.115294	0.378271
C50	C	1.134447	-0.506105	0.174280
C51	C	1.134579	-0.505842	0.087031
C52	C	1.184740	-0.438797	0.711227
C53	C	1.184750	-0.438762	0.793207
C54	C	1.134539	-0.505930	0.834182
C55	C	1.084310	-0.573130	0.793172
C56	C	1.084297	-0.573159	0.711193
C57	C	1.084341	-0.573067	0.964042
C58	C	1.084355	-0.573039	1.046027
C59	C	1.184794	-0.438670	1.046056
C60	C	1.184781	-0.438698	0.964077
C61	C	1.134553	-0.505900	0.923073
H62	H	0.582760	-0.384046	0.287328
C63	C	1.323229	-1.093798	0.661950
C64	C	1.340227	-1.120363	0.584230
H65	H	1.357291	-1.130968	0.696052
H66	H	1.270492	-1.111822	0.673384
H67	H	1.330390	-1.020587	0.669125
H68	H	1.333060	-1.193573	0.577054
H69	H	1.392976	-1.102345	0.572793
H70	H	0.582811	-0.628188	0.469165
H71	H	1.234783	-0.806321	0.478708
C72	C	0.851095	-1.094670	0.189191
C73	C	0.928852	-1.121125	0.172317
H74	H	0.817060	-1.131973	0.155107
H75	H	0.843891	-1.021495	0.181980
H76	H	0.839598	-1.112616	0.241929
H77	H	0.940351	-1.103171	0.119580
H78	H	0.936059	-1.194315	0.179521
H79	H	0.686879	-0.384047	0.287319
C80	C	1.290343	-0.424123	0.871883
C81	C	1.239958	-0.364856	0.919027
H82	H	1.324403	-0.378529	0.844072
H83	H	1.260427	-0.464151	0.835742
H84	H	1.320378	-0.469873	0.903866
H85	H	1.209917	-0.319112	0.887043
H86	H	1.269877	-0.324810	0.955171
C87	C	0.985041	-0.706003	0.719393
C88	C	1.029103	-0.647042	0.666118
H89	H	0.950971	-0.751622	0.691564
H90	H	0.955023	-0.660219	0.751361
H91	H	1.019249	-0.746168	0.751375
H92	H	0.994895	-0.606871	0.634139
H93	H	1.059124	-0.692832	0.634136
H94	H	1.034220	-1.204824	0.277805
H95	H	1.043428	-0.627773	0.930659
C96	C	1.289594	-1.272181	0.533492
C97	C	1.234942	-1.235715	0.478776
H98	H	1.289624	-1.346639	0.533500
H99	H	1.275980	-1.247332	0.584125
H100	H	1.340244	-1.247313	0.519951
H101	H	1.184291	-1.260576	0.492320
H102	H	1.248552	-1.260575	0.428132
C103	C	1.329512	-0.782147	0.573564
C104	C	1.340146	-0.890020	0.584190
H105	H	1.363555	-0.744858	0.607649
H106	H	1.276764	-0.764216	0.585010
H107	H	1.341017	-0.764209	0.520826
H108	H	1.328635	-0.907959	0.636927
H109	H	1.392905	-0.907959	0.572749
C110	C	0.878303	-0.827719	0.216504
C111	C	0.928756	-0.890790	0.172278
H112	H	0.844231	-0.790565	0.182402
H113	H	0.908168	-0.779289	0.246408
H114	H	0.848283	-0.870536	0.250687
H115	H	0.958781	-0.847972	0.138099
H116	H	0.898888	-0.939226	0.142361
H117	H	0.835610	-0.384028	0.287301
H118	H	1.043467	-0.627731	1.079386
C119	C	1.054081	-0.738894	0.203075
C120	C	1.034052	-0.775430	0.277734
H121	H	1.054057	-0.664435	0.203072
H122	H	1.017025	-0.763776	0.165974
H123	H	1.104754	-0.763679	0.189551
H124	H	0.983376	-0.750650	0.291255
H125	H	1.071110	-0.750536	0.314847
H126	H	0.434083	-0.628194	0.469186
C127	C	1.284014	-0.305967	0.719499
C128	C	1.239933	-0.364959	0.666191
H129	H	1.318082	-0.260376	0.691696
H130	H	1.314034	-0.351733	0.751471
H131	H	1.249817	-0.265770	0.751474
H132	H	1.274129	-0.405162	0.634219
H133	H	1.209911	-0.319188	0.634206
H134	H	1.225649	-0.384046	0.826589
C135	C	1.229394	-0.378924	1.171733
C136	C	1.239993	-0.364781	1.091125
H137	H	1.263467	-0.333303	1.199558
H138	H	1.240876	-0.449498	1.185165
H139	H	1.176653	-0.363543	1.185146
H140	H	1.292733	-0.380169	1.077712
H141	H	1.228517	-0.294191	1.077688
H142	H	0.835658	-0.628165	0.469136
C143	C	0.728562	-0.706414	0.527395
C144	C	0.675258	-0.647355	0.483425
H145	H	0.700755	-0.752090	0.561394
H146	H	0.760551	-0.660695	0.557485
H147	H	0.760521	-0.746523	0.493125
H148	H	0.643303	-0.607240	0.517695
H149	H	0.643256	-0.693080	0.453333
H150	H	0.434033	-0.384062	0.287347
C151	C	1.073383	-0.714422	0.885341
C152	C	1.029116	-0.646964	0.838209
H153	H	1.039308	-0.760009	0.913139
H154	H	1.103289	-0.674397	0.921492
H155	H	1.107565	-0.754620	0.853351
H156	H	0.994938	-0.606760	0.870199
H157	H	0.999197	-0.686993	0.802053
