data_functionalizedCrystal
_audit_creation_method	'MofGen! by Chris Wilmer'
_symmetry_space_group_name_H-M	'P1'
_symmetry_Int_Tables_number	1
_symmetry_cell_setting	triclinic
loop_
_symmetry_equiv_pos_as_xyz
  x,y,z
_cell_length_a	15.298709
_cell_length_b	16.120444
_cell_length_c	15.296720
_cell_angle_alpha	78.012939
_cell_angle_beta	72.673665
_cell_angle_gamma	102.068437
loop_
_atom_site_label
_atom_site_type_symbol
_atom_site_fract_x
_atom_site_fract_y
_atom_site_fract_z
Zn1	Zn	1.319513	-0.167162	0.291264
Zn2	Zn	1.819513	0.332838	0.791264
Zn3	Zn	1.338849	-0.279822	0.143250
Zn4	Zn	1.838849	0.220178	0.643250
Zn5	Zn	1.190925	-0.167218	0.162648
Zn6	Zn	1.690925	0.332782	0.662648
Zn7	Zn	1.152536	-0.339392	0.329506
Zn8	Zn	1.652536	0.160608	0.829506
O9	O	1.250456	-0.238399	0.231667
O10	O	1.750456	0.261601	0.731667
O11	O	1.453865	-0.157152	0.247507
O12	O	1.953865	0.342848	0.747507
O13	O	1.343384	-0.239978	0.014048
O14	O	1.843384	0.260022	0.514048
O15	O	1.215957	-0.048006	0.171823
O16	O	1.715957	0.451994	0.671823
O17	O	1.468071	-0.239924	0.138762
O18	O	1.968071	0.260076	0.638762
O19	O	1.310430	-0.047965	0.266317
O20	O	1.810430	0.452035	0.766317
O21	O	1.234706	-0.157249	0.028299
O22	O	1.734706	0.342751	0.528299
O23	O	1.054046	-0.215011	0.208904
O24	O	1.554046	0.284989	0.708904
O25	O	1.150527	-0.341452	0.456208
O26	O	1.650527	0.158548	0.956208
O27	O	1.025841	-0.341507	0.331494
O28	O	1.525841	0.158493	0.831494
O29	O	1.273205	-0.214915	0.428112
O30	O	1.773205	0.285085	0.928112
O31	O	1.306159	-0.406929	0.175843
O32	O	1.806159	0.093071	0.675843
O33	O	1.169276	-0.450695	0.312685
O34	O	1.669276	0.049305	0.812685
C35	C	1.005772	-0.284730	0.276455
C36	C	1.505772	0.215270	0.776455
C37	C	0.901090	-0.304576	0.295639
C38	C	1.401090	0.195424	0.795639
C39	C	0.837266	-0.379823	0.368386
C40	C	1.337266	0.120177	0.868386
C41	C	0.738911	-0.398466	0.386419
C42	C	1.238911	0.101534	0.886419
C43	C	0.704371	-0.341868	0.331702
C44	C	1.204371	0.158132	0.831702
C45	C	0.768196	-0.266623	0.258949
C46	C	1.268196	0.233377	0.758949
C47	C	0.866560	-0.247974	0.240919
C48	C	1.366560	0.252026	0.740919
C49	C	0.733665	-0.210019	0.204235
C50	C	1.233665	0.289981	0.704235
C51	C	0.797490	-0.134774	0.131482
C52	C	1.297490	0.365226	0.631482
C53	C	0.895845	-0.116129	0.113455
C54	C	1.395845	0.383871	0.613455
C55	C	0.930385	-0.172727	0.168172
C56	C	1.430385	0.327273	0.668172
C57	C	0.635301	-0.228668	0.222265
C58	C	1.135301	0.271332	0.722265
C59	C	0.664595	-0.096819	0.094798
C60	C	1.164595	0.403181	0.594798
C61	C	0.762950	-0.078176	0.076765
C62	C	1.262950	0.421824	0.576765
C63	C	1.235672	-0.459719	0.246324
C64	C	1.735672	0.040281	0.746324
C65	C	1.229428	-0.554390	0.252611
C66	C	1.729428	-0.054390	0.752611
C67	C	1.283041	-0.748208	0.199217
C68	C	1.783041	-0.248208	0.699217
C69	C	1.218043	-0.727707	0.264095
C70	C	1.718043	-0.227707	0.764095
C71	C	1.224379	-0.631264	0.257703
C72	C	1.724379	-0.131264	0.757703
C73	C	1.276706	-0.844659	0.205607
C74	C	1.776706	-0.344659	0.705607
C75	C	1.496094	-0.191887	0.186705
C76	C	1.996094	0.308113	0.686705
C77	C	1.600771	-0.172066	0.167545
C78	C	2.100771	0.327934	0.667545
C79	C	1.205427	-0.284822	0.477284
C80	C	1.705427	0.215178	0.977284
C81	C	1.186239	-0.304605	0.581951
C82	C	1.686239	0.195395	1.081951
C83	C	1.265319	-0.016213	0.216968
C84	C	1.765319	0.483787	0.716968
C85	C	1.271653	0.078469	0.210704
C86	C	1.771653	0.578469	0.710704
C87	C	1.295367	-0.192084	-0.013008
C88	C	1.795367	0.307916	0.486992
C89	C	1.314754	-0.172026	-0.117724
C90	C	1.814754	0.327974	0.382276
C91	C	1.387644	-0.096851	0.818477
C92	C	1.887644	0.403149	1.318477
C93	C	1.405678	-0.078264	0.720136
C94	C	1.905678	0.421736	1.220136
C95	C	1.350820	-0.134847	0.685585
C96	C	1.850820	0.365153	1.185585
C97	C	1.277924	-0.210021	0.749385
C98	C	1.777924	0.289979	1.249385
C99	C	1.259893	-0.228614	0.847735
C100	C	1.759893	0.271386	1.347735
C101	C	1.223069	-0.266610	0.714842
C102	C	1.723069	0.233390	1.214842
C103	C	1.150173	-0.341784	0.778642
C104	C	1.650173	0.158216	1.278642
C105	C	1.132145	-0.360373	0.876982
C106	C	1.632145	0.139627	1.376982
C107	C	1.187003	-0.303789	0.911533
C108	C	1.687003	0.196211	1.411533
C109	C	1.241100	-0.248018	0.616492
C110	C	1.741100	0.251982	1.116492
C111	C	1.113349	-0.379781	0.645750
C112	C	1.613349	0.120219	1.145750
C113	C	1.095315	-0.398368	0.744091
C114	C	1.595315	0.101632	1.244091
H115	H	0.583343	-0.289933	0.281502
H116	H	1.083343	0.210067	0.781502
H117	H	1.465032	-0.017059	0.668197
H118	H	1.965032	0.482941	1.168197
C119	C	1.370653	-0.114393	0.577407
C120	C	1.870653	0.385607	1.077407
N121	N	1.385591	-0.098980	0.495923
N122	N	1.885591	0.401020	0.995923
C123	C	1.051961	-0.443069	0.947159
C124	C	1.551961	0.056931	1.447159
N125	N	0.991565	-0.505356	1.000015
N126	N	1.491565	-0.005356	1.500015
C127	C	0.833169	0.004600	-0.003252
C128	C	1.333169	0.504600	0.496748
N129	N	0.886058	0.066948	-0.063518
N130	N	1.386058	0.566948	0.436482
C131	C	1.136431	-0.801845	0.345611
C132	C	1.636431	-0.301845	0.845611
N133	N	1.074961	-0.857689	0.407004
N134	N	1.574961	-0.357689	0.907004
H135	H	1.035962	-0.459575	0.796050
H136	H	1.535962	0.040425	1.296050
H137	H	1.343442	-0.693333	0.138877
H138	H	1.843442	-0.193333	0.638877
H139	H	1.300452	-0.186810	0.564556
H140	H	1.800452	0.313190	1.064556
H141	H	0.624284	-0.357052	0.346389
H142	H	1.124284	0.142948	0.846389
H143	H	0.686951	-0.459731	0.445654
H144	H	1.186951	0.040269	0.945654
H145	H	1.432307	-0.050792	0.846619
H146	H	1.932307	0.449208	1.346619
C147	C	1.167181	-0.324241	1.019712
C148	C	1.667181	0.175759	1.519712
N149	N	1.152259	-0.339646	1.101193
N150	N	1.652259	0.160354	1.601193
C151	C	1.038588	-0.152263	0.148285
C152	C	1.538588	0.347737	0.648285
N153	N	1.120090	-0.136867	0.133290
N154	N	1.620090	0.363133	0.633290
H155	H	1.068680	-0.425857	0.617619
H156	H	1.568680	0.074143	1.117619
H157	H	0.865398	-0.425893	0.412933
H158	H	1.365398	0.074107	0.912933
H159	H	0.947809	-0.054855	0.054219
H160	H	1.447809	0.445145	0.554219
C161	C	0.626606	-0.034558	0.034603
C162	C	1.126606	0.465442	0.534603
N163	N	0.597986	0.012333	-0.010730
N164	N	1.097986	0.512333	0.489270
