data_functionalizedCrystal
_audit_creation_method	'MofGen! by Chris Wilmer'
_symmetry_space_group_name_H-M	'P1'
_symmetry_Int_Tables_number	1
_symmetry_cell_setting	triclinic
loop_
_symmetry_equiv_pos_as_xyz
  x,y,z
_cell_length_a	16.109301
_cell_length_b	15.995292
_cell_length_c	14.586319
_cell_angle_alpha	89.999401
_cell_angle_beta	89.998857
_cell_angle_gamma	83.465100
loop_
_atom_site_label
_atom_site_type_symbol
_atom_site_fract_x
_atom_site_fract_y
_atom_site_fract_z
O1	O	1.103137	0.107628	-0.076183
O2	O	0.861076	0.121022	-0.076195
O3	O	0.988749	-0.007568	-0.076190
O4	O	0.975465	0.236218	-0.076188
O5	O	0.988740	-0.007570	0.076290
O6	O	0.861067	0.121020	0.076285
O7	O	1.103128	0.107626	0.076297
Cu8	Cu	0.982097	0.114323	0.090214
Cu9	Cu	0.982108	0.114325	-0.090112
O10	O	0.975456	0.236216	0.076292
C11	C	0.830097	0.120478	0.000043
C12	C	0.737802	0.118852	0.000038
C13	C	0.428808	0.189837	0.000055
C14	C	0.515528	0.191373	0.000050
C15	C	0.535392	0.038805	0.000036
C16	C	0.448673	0.037270	0.000035
C17	C	0.395383	0.112788	0.000049
C18	C	0.568822	0.115860	0.000045
C19	C	0.662848	0.117525	0.000039
C20	C	0.301351	0.111123	0.000053
C21	C	0.988204	-0.038764	0.000048
C22	C	0.986583	-0.131717	0.000041
C23	C	0.980624	-0.469454	0.000049
C24	C	1.072775	-0.446166	0.000394
C25	C	1.074526	-0.349491	0.000047
C26	C	0.983581	-0.301898	0.000045
C27	C	0.937515	-0.330986	-0.087028
C28	C	0.936406	-0.427776	-0.087098
C29	C	0.934514	-0.427635	0.086301
C30	C	0.937929	-0.331143	0.087449
C31	C	0.985247	-0.207203	0.000040
C32	C	0.978955	-0.564149	0.000048
C33	C	1.134108	0.108170	0.000057
C34	C	1.226403	0.109796	0.000056
C35	C	0.976001	0.267412	0.000052
C36	C	0.977622	0.360365	0.000053
N37	N	0.982096	0.114321	0.217046
N38	N	0.982116	0.114321	-0.216944
C39	C	1.038648	0.057400	0.452054
C40	C	1.038650	0.057398	0.548036
C41	C	0.925557	0.171244	0.548041
C42	C	0.925552	0.171241	0.452061
C43	C	0.982102	0.114320	0.404071
C44	C	0.982110	0.114321	0.596031
C45	C	0.982112	0.114319	0.700099
C46	C	0.982099	0.114321	0.299997
H47	H	0.542738	0.254113	0.000054
H48	H	0.385421	0.251328	0.000066
H49	H	0.578791	-0.022679	0.000027
H50	H	0.421459	-0.025476	0.000027
C51	C	1.100849	-0.005225	0.600814
N52	N	1.147697	-0.052399	0.640565
H53	H	1.110604	-0.330477	0.062463
C54	C	1.120760	-0.484009	0.084751
N55	N	1.156903	-0.512518	0.148290
C56	C	0.983223	-0.306047	0.174475
N57	N	1.017335	-0.287130	0.240022
C58	C	0.842883	-0.446524	0.087102
N59	N	0.773871	-0.460759	0.087700
H60	H	1.108100	-0.475193	-0.061696
C61	C	1.123559	-0.324636	-0.084423
N62	N	1.160491	-0.305915	-0.148051
C63	C	0.979528	-0.464018	-0.175021
N64	N	1.012014	-0.491312	-0.241244
H65	H	1.084693	0.011051	0.412983
H66	H	0.868840	-0.442308	-0.091044
C67	C	0.847106	-0.287904	-0.091412
N68	N	0.779010	-0.255451	-0.094712
C69	C	0.980745	-0.303905	-0.174569
N70	N	1.013312	-0.283512	-0.240503
C71	C	0.863354	0.233852	0.600839
N72	N	0.816501	0.281009	0.640607
C73	C	0.973511	-0.465816	0.175462
N74	N	1.002894	-0.494575	0.242614
H75	H	0.871547	-0.298156	0.092706
H76	H	0.879501	0.217593	0.412990
