data_functionalizedCrystal
_audit_creation_method	'MofGen! by Chris Wilmer'
_symmetry_space_group_name_H-M	'P1'
_symmetry_Int_Tables_number	1
_symmetry_cell_setting	triclinic
loop_
_symmetry_equiv_pos_as_xyz
  x,y,z
_cell_length_a	14.519709
_cell_length_b	16.109301
_cell_length_c	15.186229
_cell_angle_alpha	90.000894
_cell_angle_beta	89.997218
_cell_angle_gamma	96.429188
loop_
_atom_site_label
_atom_site_type_symbol
_atom_site_fract_x
_atom_site_fract_y
_atom_site_fract_z
O1	O	-1.223634	0.108984	-0.073094
O2	O	-0.955130	0.121819	-0.073122
O3	O	-1.096758	-0.005617	-0.073112
O4	O	-1.082006	0.236420	-0.073104
O5	O	-1.096748	-0.005618	0.073346
O6	O	-0.955120	0.121817	0.073335
O7	O	-1.223625	0.108983	0.073363
Zn8	Zn	-1.089371	0.115400	0.096603
Zn9	Zn	-1.089383	0.115402	-0.096361
O10	O	-1.081996	0.236418	0.073353
C11	C	-0.920766	0.121220	0.000103
C12	C	-0.818389	0.119427	0.000092
N13	N	-1.089369	0.115397	0.228295
C14	C	-1.096156	-0.036593	0.000114
C15	C	-1.094364	-0.128892	0.000105
C16	C	-0.443507	0.112829	0.000128
C17	C	-0.547811	0.114661	0.000118
C18	C	-0.630945	0.116128	0.000109
C19	C	-0.735256	0.117961	0.000100
C20	C	-0.257988	0.109582	0.000134
C21	C	-0.360365	0.111374	0.000133
C22	C	-1.082599	0.267395	0.000126
C23	C	-1.084390	0.359693	0.000129
C24	C	-1.004517	0.581827	0.000108
C25	C	-1.006207	0.668551	0.000101
C26	C	-1.174244	0.648967	0.000123
C27	C	-1.172553	0.562246	0.000123
C28	C	-1.087686	0.528678	0.000120
C29	C	-1.091068	0.702123	0.000113
C30	C	-1.092902	0.796152	0.000106
C31	C	-1.085852	0.434643	0.000126
N32	N	-1.089392	0.115397	-0.228054
C33	C	-1.152103	0.058988	0.454023
C34	C	-1.152106	0.058986	0.546212
C35	C	-1.026651	0.171810	0.546212
C36	C	-1.026645	0.171807	0.454024
C37	C	-1.089376	0.115397	0.407932
C38	C	-1.089386	0.115398	0.592310
C39	C	-1.089388	0.115396	0.692266
C40	C	-1.089372	0.115397	0.307969
H41	H	-0.938482	0.711822	0.000090
O42	O	-1.213086	0.004286	0.409189
C43	C	-1.269953	0.048889	0.355816
H44	H	-1.271554	0.114454	0.383594
H45	H	-1.241049	0.053206	0.285963
C46	C	-1.366987	-0.077320	0.320233
C47	C	-1.368960	0.003207	0.354355
H48	H	-1.428059	-0.105499	0.319327
H49	H	-1.328673	-0.107370	0.356188
H50	H	-1.342896	-0.073710	0.262025
H51	H	-1.393040	-0.000404	0.412565
H52	H	-1.407280	0.033256	0.318409
O53	O	-0.965595	0.226522	0.590951
C54	C	-0.874310	0.212837	0.568412
H55	H	-0.873880	0.146270	0.543069
H56	H	-0.847202	0.258866	0.514902
C57	C	-0.812322	0.307389	0.681435
C58	C	-0.811793	0.225628	0.650315
H59	H	-0.773756	0.315282	0.731955
H60	H	-0.873822	0.316612	0.696618
H61	H	-0.789734	0.345737	0.636836
H62	H	-0.834391	0.187282	0.694910
H63	H	-0.750295	0.216398	0.635141
O64	O	-1.256701	0.681539	-0.000025
C65	C	-1.307416	0.654374	-0.075860
H66	H	-1.257797	0.636261	-0.128881
H67	H	-1.358822	0.597933	-0.058705
C68	C	-1.421344	0.747660	-0.045125
C69	C	-1.360400	0.725420	-0.110250
H70	H	-1.454031	0.791482	-0.066337
H71	H	-1.387179	0.765960	0.005969
H72	H	-1.464174	0.700619	-0.030835
H73	H	-1.317565	0.772457	-0.124530
H74	H	-1.394560	0.707130	-0.161346
O75	O	-1.253325	0.510577	-0.000022
C76	C	-1.257366	0.459814	-0.075863
H77	H	-1.210203	0.491507	-0.128883
H78	H	-1.233508	0.396721	-0.058719
C79	C	-1.415645	0.407855	-0.045128
C80	C	-1.357724	0.446784	-0.110250
H81	H	-1.477551	0.399813	-0.066338
H82	H	-1.412922	0.442052	0.005970
H83	H	-1.395752	0.355281	-0.030847
H84	H	-1.377610	0.499361	-0.124522
H85	H	-1.360453	0.412595	-0.161352
O86	O	-0.965800	0.226723	0.409287
C87	C	-0.980750	0.309057	0.431825
H88	H	-1.054583	0.309612	0.457167
H89	H	-0.929631	0.333379	0.485336
C90	C	-0.875713	0.364709	0.318804
C91	C	-0.966400	0.365391	0.349922
H92	H	-0.866857	0.399460	0.268284
H93	H	-0.865638	0.309239	0.303621
H94	H	-0.833124	0.384975	0.363404
H95	H	-1.008986	0.345116	0.305327
H96	H	-0.976482	0.420859	0.365096
O97	O	-1.213080	0.004306	0.591082
C98	C	-1.269974	0.048946	0.644392
H99	H	-1.233224	0.113930	0.658205
H100	H	-1.338126	0.054732	0.608863
C101	C	-1.334844	-0.077709	0.714994
C102	C	-1.289702	0.002105	0.731965
H103	H	-1.347017	-0.106603	0.769012
H104	H	-1.296516	-0.107784	0.679076
H105	H	-1.391631	-0.072875	0.685384
H106	H	-1.232911	-0.002730	0.761564
H107	H	-1.328021	0.032178	0.767890
H108	H	-0.935413	0.554500	0.000109
