data_functionalizedCrystal
_audit_creation_method	'MofGen! by Chris Wilmer'
_symmetry_space_group_name_H-M	'P1'
_symmetry_Int_Tables_number	1
_symmetry_cell_setting	triclinic
loop_
_symmetry_equiv_pos_as_xyz
  x,y,z
_cell_length_a	16.109302
_cell_length_b	11.792241
_cell_length_c	14.586319
_cell_angle_alpha	89.996059
_cell_angle_beta	89.994552
_cell_angle_gamma	83.827598
loop_
_atom_site_label
_atom_site_type_symbol
_atom_site_fract_x
_atom_site_fract_y
_atom_site_fract_z
O1	O	1.103817	0.145889	-0.076282
O2	O	1.437150	0.479223	0.257051
O3	O	1.770484	0.812556	0.590385
O4	O	0.861841	0.164044	-0.076275
O5	O	1.195174	0.497377	0.257059
O6	O	1.528507	0.830710	0.590392
O7	O	0.988701	-0.010256	-0.076272
O8	O	1.322034	0.323078	0.257061
O9	O	1.655368	0.656411	0.590395
O10	O	0.976957	0.320188	-0.076285
O11	O	1.310290	0.653522	0.257049
O12	O	1.643623	0.986855	0.590382
O13	O	0.988692	-0.010258	0.076209
O14	O	1.322025	0.323075	0.409542
O15	O	1.655359	0.656408	0.742875
O16	O	0.861832	0.164041	0.076206
O17	O	1.195165	0.497374	0.409539
O18	O	1.528498	0.830708	0.742873
O19	O	1.103808	0.145887	0.076199
O20	O	1.437141	0.479220	0.409532
O21	O	1.770475	0.812553	0.742866
Cu22	Cu	0.982819	0.154964	0.090125
Cu23	Cu	1.316152	0.488297	0.423459
Cu24	Cu	1.649486	0.821630	0.756792
Cu25	Cu	0.982830	0.154967	-0.090201
Cu26	Cu	1.316163	0.488300	0.243132
Cu27	Cu	1.649496	0.821633	0.576466
O28	O	0.976948	0.320186	0.076196
O29	O	1.310281	0.653519	0.409530
O30	O	1.643614	0.986852	0.742863
C31	C	0.830858	0.163307	-0.000033
C32	C	1.164191	0.496640	0.333300
C33	C	1.497524	0.829973	0.666633
C34	C	0.738552	0.161102	-0.000030
C35	C	1.071885	0.494435	0.333303
C36	C	1.405219	0.827768	0.666636
C37	C	0.526182	0.156001	0.083078
C38	C	0.859516	0.489335	0.416411
C39	C	1.192849	0.822668	0.749745
C40	C	0.439453	0.153917	0.083075
C41	C	0.772786	0.487250	0.416408
C42	C	1.106119	0.820584	0.749741
C43	C	0.439473	0.153926	-0.083168
C44	C	0.772806	0.487259	0.250165
C45	C	1.106139	0.820592	0.583499
C46	C	0.526202	0.156002	-0.083164
C47	C	0.859535	0.489335	0.250169
C48	C	1.192868	0.822668	0.583503
C49	C	0.569554	0.157045	-0.000038
C50	C	0.902887	0.490378	0.333295
C51	C	1.236220	0.823712	0.666628
C52	C	0.396095	0.152885	-0.000046
C53	C	0.729428	0.486218	0.333288
C54	C	1.062762	0.819552	0.666621
C55	C	0.302059	0.150625	-0.000050
C56	C	0.635392	0.483959	0.333284
C57	C	0.968725	0.817292	0.666617
C58	C	0.663596	0.159303	-0.000034
C59	C	0.996930	0.492636	0.333299
C60	C	1.330263	0.825970	0.666633
C61	C	0.987959	-0.052541	-0.000032
C62	C	1.321292	0.280792	0.333301
C63	C	1.654625	0.614125	0.666635
C64	C	0.985751	-0.178536	-0.000033
C65	C	1.319084	0.154798	0.333301
C66	C	1.652417	0.488131	0.666634
C67	C	0.981690	-0.409212	-0.000048
C68	C	1.315024	-0.075879	0.333285
C69	C	1.648357	0.257454	0.666619
C70	C	0.983946	-0.280847	-0.000040
C71	C	1.317280	0.052486	0.333294
C72	C	1.650613	0.385820	0.666627
C73	C	1.134791	0.146623	-0.000044
C74	C	1.468124	0.479957	0.333289
C75	C	1.801458	0.813290	0.666622
C76	C	1.227097	0.148829	-0.000053
C77	C	1.560430	0.482162	0.333280
C78	C	1.893763	0.815495	0.666613
C79	C	0.977690	0.362472	-0.000046
C80	C	1.311023	0.695805	0.333287
C81	C	1.644357	1.029138	0.666621
C82	C	0.979898	0.488466	-0.000051
C83	C	1.313231	0.821799	0.333282
C84	C	1.646565	1.155133	0.666616
N85	N	0.982818	0.154961	0.216957
N86	N	1.316151	0.488294	0.550290
N87	N	1.649484	0.821627	0.883624
N88	N	0.982837	0.154960	-0.217033
N89	N	1.316171	0.488294	0.116301
N90	N	1.649504	0.821627	0.449634
C91	C	1.039010	0.077807	0.451965
C92	C	1.372344	0.411140	0.785298
C93	C	1.705677	0.744474	1.118631
C94	C	1.039013	0.077804	0.547946
C95	C	1.372346	0.411137	0.881279
C96	C	1.705679	0.744471	1.214613
C97	C	0.926639	0.232118	0.547953
C98	C	1.259972	0.565451	0.881286
C99	C	1.593306	0.898785	1.214620
C100	C	0.926633	0.232114	0.451973
C101	C	1.259966	0.565448	0.785307
C102	C	1.593300	0.898781	1.118640
C103	C	0.982824	0.154960	0.403982
C104	C	1.316157	0.488293	0.737315
C105	C	1.649490	0.821627	1.070648
C106	C	0.982832	0.154961	0.595942
C107	C	1.316165	0.488294	0.929276
C108	C	1.649498	0.821628	1.262609
C109	C	0.982834	0.154959	0.700010
C110	C	1.316167	0.488292	1.033343
C111	C	1.649501	0.821625	1.366676
C112	C	0.982821	0.154961	0.299908
C113	C	1.316154	0.488294	0.633241
C114	C	1.649487	0.821627	0.966575
H115	H	0.404165	0.153077	-0.150846
H116	H	0.737498	0.486411	0.182487
H117	H	1.070831	0.819744	0.515821
C118	C	0.864858	0.317045	0.399189
C119	C	1.198191	0.650378	0.732522
C120	C	1.531525	0.983712	1.065856
N121	N	0.818343	0.381029	0.359432
N122	N	1.151677	0.714362	0.692765
N123	N	1.485010	1.047696	1.026099
H124	H	0.561516	0.156849	-0.150851
H125	H	0.894849	0.490182	0.182482
H126	H	1.228183	0.823515	0.515815
H127	H	0.561477	0.156851	0.150764
H128	H	0.894810	0.490184	0.484098
H129	H	1.228144	0.823518	0.817431
C130	C	1.100815	-0.007074	0.399177
C131	C	1.434148	0.326259	0.732510
C132	C	1.767481	0.659593	1.065844
N133	N	1.147365	-0.071012	0.359420
N134	N	1.480698	0.262321	0.692754
N135	N	1.814032	0.595654	1.026087
C136	C	1.100816	-0.007080	0.600723
C137	C	1.434149	0.326253	0.934056
C138	C	1.767483	0.659587	1.267389
N139	N	1.147366	-0.071022	0.640474
N140	N	1.480699	0.262311	0.973807
N141	N	1.814033	0.595644	1.307140
H142	H	0.880891	0.294937	0.587037
H143	H	1.214224	0.628270	0.920371
H144	H	1.547558	0.961603	1.253704
H145	H	0.404143	0.153067	0.150756
H146	H	0.737477	0.486401	0.484090
H147	H	1.070810	0.819734	0.817423
