data_functionalizedCrystal
_audit_creation_method	'MofGen! by Chris Wilmer'
_symmetry_space_group_name_H-M	'P1'
_symmetry_Int_Tables_number	1
_symmetry_cell_setting	triclinic
loop_
_symmetry_equiv_pos_as_xyz
  x,y,z
_cell_length_a	8.597340
_cell_length_b	8.634740
_cell_length_c	17.766277
_cell_angle_alpha	89.996989
_cell_angle_beta	97.692772
_cell_angle_gamma	92.880176
loop_
_atom_site_label
_atom_site_type_symbol
_atom_site_fract_x
_atom_site_fract_y
_atom_site_fract_z
O1	O	2.117269	0.230676	0.074725
O2	O	1.663025	0.248375	0.045264
O3	O	1.868644	0.014725	0.058601
O4	O	1.911649	0.464325	0.061388
O5	O	1.868600	0.014712	0.183787
O6	O	1.662980	0.248362	0.170449
O7	O	2.117224	0.230663	0.199911
Cu8	Cu	1.890098	0.239511	0.196610
Cu9	Cu	1.890151	0.239526	0.048564
O10	O	1.911605	0.464312	0.186573
C11	C	1.604245	0.246468	0.104046
C12	C	1.429165	0.240787	0.092690
C13	C	1.858880	-0.042878	0.120561
C14	C	1.829833	-0.214499	0.118673
C15	C	2.176004	0.232569	0.141127
C16	C	2.351084	0.238250	0.152477
C17	C	1.921369	0.521916	0.124612
C18	C	1.950416	0.693537	0.126495
N19	N	1.890073	0.239500	0.300739
N20	N	1.890187	0.239526	-0.055564
C21	C	1.981164	0.136092	0.346035
C22	C	1.981172	0.136085	0.424837
C23	C	1.890108	0.239513	0.458342
C24	C	1.798998	0.342928	0.413036
C25	C	1.798981	0.342922	0.334234
C26	C	1.890782	0.379961	0.583223
C27	C	1.890811	0.379970	0.662024
C28	C	1.890153	0.239532	0.701391
C29	C	1.889498	0.099080	0.661951
C30	C	1.889480	0.099073	0.583149
C31	C	1.890116	0.239530	0.543788
C32	C	1.981257	0.136108	0.832133
C33	C	1.981254	0.136099	0.910936
C34	C	1.799090	0.342955	0.899135
C35	C	1.799083	0.342951	0.820332
C36	C	1.890175	0.239529	0.786837
H37	H	1.418178	0.240413	0.212354
H38	H	1.724802	0.427130	0.297353
Cl39	Cl	2.095767	0.006080	0.967882
Cl40	Cl	1.684510	0.472946	0.455154
H41	H	1.704374	-0.267060	0.110533
Cl42	Cl	1.325575	0.237425	0.000238
Cl43	Cl	2.144131	-0.225314	0.139052
H44	H	1.891355	0.494334	0.694131
H45	H	2.055424	0.051890	0.804860
Cl46	Cl	2.095667	0.006071	0.303926
H47	H	2.055351	0.051874	0.461723
Cl48	Cl	1.684596	0.472968	0.941249
Cl49	Cl	1.888639	-0.077486	0.533568
Cl50	Cl	1.888682	-0.077483	0.711433
Cl51	Cl	1.684573	0.472964	0.763385
H52	H	1.891292	0.494330	0.551175
