data_functionalizedCrystal
_audit_creation_method	'MofGen! by Chris Wilmer'
_symmetry_space_group_name_H-M	'P1'
_symmetry_Int_Tables_number	1
_symmetry_cell_setting	triclinic
loop_
_symmetry_equiv_pos_as_xyz
  x,y,z
_cell_length_a	31.640172
_cell_length_b	20.016444
_cell_length_c	20.016444
_cell_angle_alpha	90.002879
_cell_angle_beta	60.008954
_cell_angle_gamma	60.000783
loop_
_atom_site_label
_atom_site_type_symbol
_atom_site_fract_x
_atom_site_fract_y
_atom_site_fract_z
Zr1	Zr	0.462603	-0.087663	0.643680
O2	O	0.550763	-0.194334	0.537027
O3	O	0.374438	-0.054964	0.676362
O4	O	0.462601	-0.194336	0.676381
O5	O	0.462604	0.054977	0.537009
O6	O	0.462604	-0.194336	0.786321
O7	O	0.462601	-0.054962	0.537008
O8	O	0.304897	0.054974	0.786287
O9	O	0.620311	-0.194333	0.537042
O10	O	0.410706	-0.041017	0.772363
O11	O	0.410706	0.041030	0.690317
O12	O	0.514506	-0.123062	0.690339
O13	O	0.514506	-0.041015	0.608292
Zr14	Zr	0.462614	0.087678	0.819022
Zr15	Zr	0.462608	-0.087664	0.819022
Zr16	Zr	0.462608	0.087678	0.643681
Zr17	Zr	0.573523	-0.087661	0.643704
Zr18	Zr	0.351693	0.087676	0.818998
O19	O	0.550778	0.054979	0.786341
O20	O	0.550771	-0.194334	0.786340
O21	O	0.550771	0.054979	0.537028
O22	O	0.374453	0.194348	0.925676
O23	O	0.374446	-0.054964	0.925675
O24	O	0.374446	0.194349	0.676363
O25	O	0.462612	-0.054963	0.925694
O26	O	0.462616	0.194350	0.786322
O27	O	0.462612	0.194350	0.676382
O28	O	0.462616	0.054977	0.925694
O29	O	0.620315	-0.194333	0.676415
O30	O	0.304902	0.194347	0.786288
O31	O	0.304906	0.194347	0.925661
O32	O	0.304902	0.054974	0.925660
O33	O	0.620315	-0.054960	0.537042
O34	O	0.620319	-0.054960	0.676415
O35	O	0.410711	0.123077	0.772364
O36	O	0.410711	0.041030	0.854411
O37	O	0.514511	-0.041015	0.772386
O38	O	0.514511	0.041032	0.690339
C39	C	0.323864	0.000005	0.731321
C40	C	0.276775	0.000004	0.731311
C41	C	0.462602	0.000008	0.512026
C42	C	0.462599	0.000008	0.437589
C43	C	0.462615	0.219333	0.731352
C44	C	0.462617	0.293770	0.731352
C45	C	-0.015266	-0.042813	0.774195
C46	C	-0.192262	-0.042812	0.774212
O47	O	-0.215167	-0.079206	0.810665
N48	N	-0.214391	0.000014	0.731384
C49	C	-0.192272	0.042847	0.688552
O50	O	-0.215159	0.079280	0.652131
C51	C	-0.015280	0.042851	0.688541
C52	C	0.006851	0.000015	0.731365
C53	C	0.006864	-0.085644	0.817017
C54	C	0.051113	-0.085648	0.817009
C55	C	0.073231	-0.042820	0.774179
C56	C	0.051100	0.000012	0.731357
C57	C	0.006836	0.085688	0.645715
C58	C	0.051086	0.085687	0.645717
C59	C	0.073217	0.042852	0.688542
C60	C	0.117467	0.042837	0.688519
N61	N	0.139596	0.000011	0.731347
C62	C	0.117478	-0.042817	0.774177
C63	C	-0.285194	0.042841	0.688560
C64	C	-0.329441	0.042839	0.688562
C65	C	-0.329429	-0.042820	0.774223
C66	C	-0.285179	-0.042822	0.774216
C67	C	-0.263065	0.000015	0.731389
C68	C	0.210403	-0.042822	0.774156
C69	C	0.254658	-0.042824	0.774141
C70	C	0.254640	0.042837	0.688484
C71	C	0.210392	0.042837	0.688495
C72	C	0.188273	0.000005	0.731337
O73	O	0.140394	0.079219	0.652092
O74	O	0.140364	-0.079230	0.810607
C75	C	-0.059515	-0.042810	0.774204
C76	C	-0.081646	0.000022	0.731382
C77	C	-0.059528	0.042850	0.688552
C78	C	-0.125893	0.000020	0.731383
C79	C	-0.148011	-0.042808	0.774213
C80	C	-0.125882	-0.085634	0.817042
C81	C	-0.081633	-0.085638	0.817034
C82	C	-0.081657	0.085676	0.645723
C83	C	-0.125905	0.085675	0.645734
C84	C	-0.148023	0.042847	0.688564
C85	C	0.601353	0.000010	0.731381
C86	C	0.648441	0.000011	0.731392
C87	C	0.462602	-0.219318	0.731350
C88	C	0.462599	-0.293755	0.731350
C89	C	0.516793	0.422210	0.688533
C90	C	0.516790	0.492155	0.688531
C91	C	0.408420	0.577803	0.774171
C92	C	0.408423	0.507858	0.774168
C93	C	0.462611	0.430063	0.731351
C94	C	0.462605	0.569952	0.731351
C95	C	0.462602	0.645790	0.731349
C96	C	0.462614	0.354220	0.731352
C97	C	0.408424	0.042836	0.309138
C98	C	0.408426	0.042838	0.239193
C99	C	0.516797	-0.042823	0.153566
C100	C	0.516794	-0.042820	0.223511
C101	C	0.462605	0.000008	0.301296
C102	C	0.462611	0.000007	0.161407
C103	C	0.462614	0.000009	0.085569
C104	C	0.462602	0.000007	0.377139
C105	C	0.462615	0.000007	0.950677
C106	C	0.462617	0.000007	1.025114
C107	C	0.323871	0.000005	0.950647
C108	C	0.276784	0.000004	1.025073
C109	C	0.323871	0.219330	0.731322
C110	C	0.276784	0.293766	0.731312
C111	C	0.323877	0.219330	0.950647
C112	C	0.276793	0.293766	1.025074
C113	C	0.601339	-0.219315	0.512055
C114	C	0.648423	-0.293751	0.437628
C115	C	0.601346	0.000010	0.512056
C116	C	0.648432	0.000011	0.437629
C117	C	0.601346	-0.219316	0.731381
C118	C	0.648432	-0.293752	0.731391
C119	C	0.254670	-0.042832	1.017197
C120	C	0.210433	-0.042849	1.087122
C121	C	0.188309	-0.000026	1.164923
C122	C	0.210428	0.042811	1.172798
C123	C	0.254667	0.042823	1.102873
C124	C	0.254675	0.371557	0.774135
C125	C	0.210438	0.441505	0.774123
C126	C	0.188309	0.433659	0.731292
C127	C	0.210423	0.355860	0.688463
C128	C	0.254662	0.285915	0.688471
C129	C	0.254682	0.285894	1.102861
C130	C	0.210448	0.355828	1.172800
C131	C	0.188322	0.433633	1.164950
C132	C	0.210438	0.441503	1.087156
C133	C	0.254674	0.371570	1.017219
C134	C	0.670540	-0.285880	0.359842
C135	C	0.714788	-0.355814	0.289903
C136	C	0.736916	-0.433618	0.297752
C137	C	0.714797	-0.441489	0.375547
C138	C	0.670553	-0.371555	0.445484
C139	C	0.670552	0.042839	0.445505
C140	C	0.714800	0.042837	0.375580
C141	C	0.736926	0.000011	0.297780
C142	C	0.714804	-0.042822	0.289905
C143	C	0.670560	-0.042824	0.359830
C144	C	0.670547	-0.285880	0.774230
C145	C	0.714784	-0.355814	0.774255
C146	C	0.736908	-0.433619	0.731436
C147	C	0.714789	-0.441489	0.688595
C148	C	0.670550	-0.371556	0.688575
H149	H	0.272676	-0.077709	0.809013
H150	H	0.652546	-0.377974	0.508820
H151	H	0.152302	0.490570	1.221904
H152	H	0.192446	0.349406	1.236137
H153	H	0.560918	-0.077694	0.217120
H154	H	0.192417	0.504861	1.080777
H155	H	0.560915	-0.077692	0.090227
H156	H	0.652551	-0.077698	0.353405
H157	H	0.272687	0.377961	0.809014
H158	H	0.732809	-0.504847	0.653732
H159	H	0.192438	0.504845	0.809002
H160	H	0.364306	0.077714	0.245585
H161	H	0.272682	-0.077714	0.953854
H162	H	0.152288	0.490620	0.731291
H163	H	0.069090	0.120570	0.610840
H164	H	0.364299	0.514258	0.809035
H165	H	0.732789	-0.349390	0.809140
H166	H	0.192429	-0.077732	1.080695
H167	H	0.364301	0.641151	0.809032
H168	H	0.772953	0.000020	0.240849
H169	H	0.732819	-0.504846	0.381929
H170	H	0.732826	-0.077690	0.226551
H171	H	0.652541	-0.222534	0.809099
H172	H	0.272667	0.077709	1.109298
H173	H	0.652540	0.077718	0.508848
H174	H	0.272672	0.377991	0.953884
H175	H	-0.267162	-0.077702	0.809088
H176	H	0.192399	0.349485	0.653591
H177	H	0.364300	0.077718	0.372471
H178	H	0.772930	-0.490556	0.731459
H179	H	0.272658	0.222576	0.653602
H180	H	0.732804	0.077720	0.382008
H181	H	-0.347444	-0.077694	0.809095
H182	H	0.272690	0.222548	1.109268
H183	H	0.652526	-0.222533	0.353435
H184	H	0.652549	-0.377976	0.653686
H185	H	0.192399	-0.077698	0.809043
H186	H	0.069128	-0.120525	0.851883
H187	H	0.772942	-0.490556	0.240798
H188	H	-0.347450	0.077709	0.653679
H189	H	-0.011142	-0.120519	0.851898
H190	H	0.152287	-0.000041	1.221853
H191	H	0.192409	0.077676	1.236152
H192	H	0.732789	-0.349390	0.226566
H193	H	-0.267193	0.077726	0.653683
H194	H	-0.011176	0.120571	0.610843
H195	H	0.192379	0.077706	0.653613
H196	H	-0.063654	0.120555	0.610847
H197	H	-0.063617	-0.120518	0.851905
H198	H	-0.143895	-0.120510	0.851913
H199	H	0.272658	0.077704	0.653610
H200	H	0.560917	0.358868	0.653667
H201	H	0.560911	0.485755	0.653663
H202	H	-0.143917	0.120554	0.610853
