data_functionalizedCrystal
_audit_creation_method	'MofGen! by Chris Wilmer'
_symmetry_space_group_name_H-M	'P1'
_symmetry_Int_Tables_number	1
_symmetry_cell_setting	triclinic
loop_
_symmetry_equiv_pos_as_xyz
  x,y,z
_cell_length_a	33.592126
_cell_length_b	33.591377
_cell_length_c	33.588093
_cell_angle_alpha	60.004089
_cell_angle_beta	60.008299
_cell_angle_gamma	59.994549
loop_
_atom_site_label
_atom_site_type_symbol
_atom_site_fract_x
_atom_site_fract_y
_atom_site_fract_z
O1	O	0.055297	-0.581666	0.486338
O2	O	0.388631	-0.248332	0.819672
O3	O	0.721964	0.085001	1.153005
O4	O	0.020882	-0.452873	0.391864
O5	O	0.354215	-0.119540	0.725197
O6	O	0.687549	0.213793	1.058531
O7	O	0.102445	-0.534352	0.391775
O8	O	0.435779	-0.201018	0.725109
O9	O	0.769112	0.132315	1.058442
O10	O	-0.026266	-0.500187	0.486427
O11	O	0.307067	-0.166854	0.819760
O12	O	0.640401	0.166479	1.153094
O13	O	0.129510	-0.507292	0.418747
O14	O	0.462843	-0.173959	0.752080
O15	O	0.796177	0.159375	1.085413
O16	O	0.047947	-0.425814	0.418835
O17	O	0.381280	-0.092481	0.752169
O18	O	0.714614	0.240853	1.085502
O19	O	0.082362	-0.554606	0.513309
O20	O	0.415695	-0.221273	0.846643
O21	O	0.749029	0.112060	1.179976
Cu22	Cu	0.067626	-0.487739	0.468535
Cu23	Cu	0.400959	-0.154406	0.801868
Cu24	Cu	0.734292	0.178927	1.135202
Cu25	Cu	0.035618	-0.519740	0.436638
Cu26	Cu	0.368952	-0.186407	0.769972
Cu27	Cu	0.702285	0.146926	1.103305
O28	O	0.000799	-0.473128	0.513398
O29	O	0.334132	-0.139795	0.846731
O30	O	0.667466	0.193539	1.180065
N31	N	0.090139	-0.465235	0.490972
N32	N	0.423472	-0.131902	0.824305
N33	N	0.756806	0.201432	1.157638
N34	N	0.013110	-0.542249	0.414202
N35	N	0.346443	-0.208916	0.747535
N36	N	0.679776	0.124418	1.080868
C37	C	0.124394	-0.431229	0.734914
C38	C	0.457728	-0.097895	1.068247
C39	C	0.791061	0.235438	1.401581
C40	C	0.334265	-0.431145	0.524799
C41	C	0.667598	-0.097812	0.858132
C42	C	1.000932	0.235522	1.191466
C43	C	0.124204	-0.431200	0.524965
C44	C	0.457538	-0.097867	0.858298
C45	C	0.790871	0.235466	1.191631
C46	C	0.124184	-0.221175	0.524955
C47	C	0.457517	0.112159	0.858289
C48	C	0.790850	0.445492	1.191622
C49	C	0.158017	-0.322536	0.558710
C50	C	0.491350	0.010797	0.892044
C51	C	0.824684	0.344130	1.225377
C52	C	0.158027	-0.397406	0.558711
C53	C	0.491360	-0.064073	0.892045
C54	C	0.824694	0.269260	1.225378
C55	C	0.176763	-0.378688	0.577408
C56	C	0.510096	-0.045354	0.910741
C57	C	0.843429	0.287979	1.244074
C58	C	0.258412	-0.364594	0.534386
C59	C	0.591745	-0.031261	0.867719
C60	C	0.925078	0.302072	1.201053
C61	C	0.309454	-0.381596	0.517340
C62	C	0.642788	-0.048263	0.850673
C63	C	0.976121	0.285071	1.184007
C64	C	0.309485	-0.464188	0.548836
C65	C	0.642818	-0.130855	0.882169
C66	C	0.976152	0.202478	1.215502
C67	C	0.258444	-0.447186	0.565883
C68	C	0.591777	-0.113852	0.899216
C69	C	0.925110	0.219481	1.232550
C70	C	0.170304	-0.297002	0.508532
C71	C	0.503637	0.036332	0.841866
C72	C	0.836970	0.369665	1.175199
C73	C	0.153260	-0.245956	0.491537
C74	C	0.486593	0.087377	0.824871
C75	C	0.819927	0.420710	1.158204
C76	C	0.111648	-0.245983	0.574901
C77	C	0.444981	0.087350	0.908234
C78	C	0.778314	0.420683	1.241567
C79	C	0.128691	-0.297029	0.591896
C80	C	0.462025	0.036304	0.925229
C81	C	0.795358	0.369638	1.258562
C82	C	0.107841	-0.385091	0.571080
C83	C	0.441174	-0.051757	0.904413
C84	C	0.774508	0.281576	1.237747
C85	C	0.090813	-0.402108	0.554078
C86	C	0.424147	-0.068774	0.887411
C87	C	0.757480	0.264559	1.220745
C88	C	0.174153	-0.443755	0.512351
C89	C	0.507487	-0.110422	0.845684
C90	C	0.840820	0.222911	1.179017
C91	C	0.191183	-0.426739	0.529347
C92	C	0.524516	-0.093405	0.862680
C93	C	0.857850	0.239928	1.196013
C94	C	0.107923	-0.385106	0.659111
C95	C	0.441256	-0.051773	0.992445
C96	C	0.774590	0.281561	1.325778
C97	C	0.090955	-0.402138	0.710156
C98	C	0.424288	-0.068804	1.043489
C99	C	0.757622	0.264529	1.376822
C100	C	0.174335	-0.443795	0.710087
C101	C	0.507669	-0.110462	1.043420
C102	C	0.841002	0.222872	1.376753
C103	C	0.191302	-0.426764	0.659041
C104	C	0.524635	-0.093431	0.992375
C105	C	0.857969	0.239902	1.325708
C106	C	0.158095	-0.397418	0.633555
C107	C	0.491428	-0.064085	0.966889
C108	C	0.824762	0.269248	1.300222
C109	C	0.232909	-0.397388	0.558656
C110	C	0.566242	-0.064055	0.891989
C111	C	0.899576	0.269279	1.225322
C112	C	0.105069	-0.449619	0.791057
C113	C	0.438403	-0.116286	1.124391
C114	C	0.771736	0.217047	1.457724
C115	C	0.390406	-0.449193	0.505789
C116	C	0.723740	-0.115859	0.839122
C117	C	1.057073	0.217474	1.172455
C118	C	0.104813	-0.449599	0.506607
C119	C	0.438147	-0.116266	0.839940
C120	C	0.771480	0.217068	1.173274
C121	C	0.105125	-0.165028	0.506915
C122	C	0.438458	0.168306	0.840248
C123	C	0.771792	0.501639	1.173581
C124	C	-0.020560	-0.576246	0.169890
C125	C	0.312774	-0.242913	0.503223
C126	C	0.646107	0.090420	0.836556
C127	C	-0.020889	-0.786183	0.379970
C128	C	0.312445	-0.452850	0.713303
C129	C	0.645778	-0.119517	1.046636
C130	C	-0.020859	-0.576235	0.380063
C131	C	0.312475	-0.242902	0.713397
C132	C	0.645808	0.090432	1.046730
C133	C	-0.230772	-0.576015	0.379658
C134	C	0.102561	-0.242682	0.712992
C135	C	0.435894	0.090652	1.046325
C136	C	-0.129417	-0.609898	0.346025
C137	C	0.203916	-0.276564	0.679359
C138	C	0.537249	0.056769	1.012692
C139	C	-0.054587	-0.609979	0.346172
C140	C	0.278746	-0.276645	0.679505
C141	C	0.612080	0.056688	1.012839
C142	C	-0.073269	-0.628671	0.327396
C143	C	0.260064	-0.295337	0.660729
C144	C	0.593397	0.037996	0.994062
C145	C	-0.087401	-0.710299	0.370335
C146	C	0.245933	-0.376966	0.703668
C147	C	0.579266	-0.043633	1.037001
C148	C	-0.070424	-0.761345	0.387369
C149	C	0.262909	-0.428012	0.720703
C150	C	0.596243	-0.094679	1.054036
C151	C	0.012165	-0.761428	0.356003
C152	C	0.345498	-0.428094	0.689336
C153	C	0.678831	-0.094761	1.022670
C154	C	-0.004813	-0.710383	0.338967
C155	C	0.328520	-0.377050	0.672300
C156	C	0.661854	-0.043716	1.005634
C157	C	-0.155001	-0.622196	0.396191
C158	C	0.178332	-0.288863	0.729525
C159	C	0.511665	0.044471	1.062858
C160	C	-0.206043	-0.605128	0.413125
C161	C	0.127290	-0.271794	0.746458
C162	C	0.460623	0.061539	1.079792
C163	C	-0.205914	-0.563467	0.329724
C164	C	0.127420	-0.230134	0.663057
C165	C	0.460753	0.103200	0.996391
C166	C	-0.154872	-0.580535	0.312790
C167	C	0.178462	-0.247202	0.646124
C168	C	0.511795	0.086131	0.979457
C169	C	-0.066886	-0.559797	0.333828
C170	C	0.266447	-0.226464	0.667161
C171	C	0.599780	0.106869	1.000495
C172	C	-0.049903	-0.542809	0.350903
C173	C	0.283431	-0.209476	0.684236
C174	C	0.616764	0.123857	1.017569
C175	C	-0.008321	-0.626180	0.392654
C176	C	0.325013	-0.292846	0.725987
C177	C	0.658346	0.040487	1.059321
C178	C	-0.025304	-0.643170	0.375585
C179	C	0.308029	-0.309837	0.708918
C180	C	0.641362	0.023497	1.042252
C181	C	-0.066758	-0.559805	0.245702
C182	C	0.266576	-0.226471	0.579036
C183	C	0.599909	0.106862	0.912369
C184	C	-0.049671	-0.542819	0.194658
C185	C	0.283662	-0.209485	0.527992
C186	C	0.616995	0.123848	0.861325
C187	C	-0.008026	-0.626194	0.194706
C188	C	0.325307	-0.292860	0.528040
C189	C	0.658640	0.040473	0.861373
C190	C	-0.025111	-0.643179	0.245752
C191	C	0.308222	-0.309845	0.579085
C192	C	0.641555	0.023488	0.912418
C193	C	-0.054479	-0.609983	0.271248
C194	C	0.278855	-0.276650	0.604582
C195	C	0.612188	0.056684	0.937915
C196	C	-0.054597	-0.684821	0.346135
C197	C	0.278737	-0.351487	0.679469
C198	C	0.612070	-0.018154	1.012802
C199	C	-0.002109	-0.556901	0.113746
C200	C	0.331224	-0.223568	0.447080
C201	C	0.664557	0.109765	0.780413
C202	C	-0.002869	-0.842328	0.398966
C203	C	0.330465	-0.508995	0.732300
C204	C	0.663798	-0.175661	1.065633
C205	C	-0.002496	-0.556887	0.398501
C206	C	0.330837	-0.223554	0.731834
C207	C	0.664171	0.109779	1.065167
C208	C	-0.286914	-0.556929	0.397631
C209	C	0.046419	-0.223595	0.730964
C210	C	0.379752	0.109738	1.064298
N211	N	0.436349	-0.465146	0.490703
N212	N	0.769682	-0.131813	0.824036
N213	N	1.103015	0.201520	1.157370
O214	O	0.592194	-0.469605	0.374236
O215	O	0.925527	-0.136272	0.707570
O216	O	1.258860	0.197061	1.040903
O217	O	0.592389	-0.564393	0.502890
O218	O	0.925722	-0.231060	0.836223
O219	O	1.259056	0.102274	1.169556
O220	O	0.592305	-0.564176	0.421300
O221	O	0.925639	-0.230843	0.754634
O222	O	1.258972	0.102490	1.087967
O223	O	0.592277	-0.469822	0.455826
O224	O	0.925611	-0.136489	0.789159
O225	O	1.258944	0.196845	1.122492
O226	O	0.511216	-0.537214	0.448415
O227	O	0.844549	-0.203881	0.781748
O228	O	1.177883	0.129452	1.115081
O229	O	0.511300	-0.537431	0.530004
O230	O	0.844633	-0.204098	0.863337
O231	O	1.177966	0.129236	1.196671
O232	O	0.511104	-0.442643	0.401350
O233	O	0.844438	-0.109310	0.734684
O234	O	1.177771	0.224023	1.068017
Cu235	Cu	0.503798	-0.487575	0.468153
Cu236	Cu	0.837131	-0.154242	0.801486
Cu237	Cu	1.170465	0.179091	1.134820
Cu238	Cu	0.599695	-0.519461	0.436087
Cu239	Cu	0.933029	-0.186128	0.769421
Cu240	Cu	1.266362	0.147206	1.102754
O241	O	0.511188	-0.442860	0.482940
O242	O	0.844521	-0.109527	0.816273
O243	O	1.177855	0.223807	1.149606
N244	N	0.667145	-0.541890	0.413532
N245	N	1.000478	-0.208557	0.746866
N246	N	1.333811	0.124777	1.080199
N247	N	0.090108	-0.119085	0.490958
N248	N	0.423442	0.214249	0.824291
N249	N	0.756775	0.547582	1.157625
O250	O	-0.026275	0.036848	0.486394
O251	O	0.307059	0.370182	0.819728
O252	O	0.640392	0.703515	1.153061
O253	O	0.102381	0.036888	0.391584
O254	O	0.435715	0.370221	0.724917
O255	O	0.769048	0.703555	1.058250
O256	O	0.020751	0.036852	0.391854
O257	O	0.354084	0.370186	0.725188
O258	O	0.687417	0.703519	1.058521
O259	O	0.055356	0.036884	0.486124
O260	O	0.388689	0.370217	0.819457
O261	O	0.722022	0.703551	1.152790
O262	O	0.047821	-0.044242	0.418876
O263	O	0.381155	0.289091	0.752210
O264	O	0.714488	0.622424	1.085543
O265	O	0.129452	-0.044207	0.418606
O266	O	0.462785	0.289127	0.751939
O267	O	0.796118	0.622460	1.085272
O268	O	0.000796	-0.044246	0.513417
O269	O	0.334129	0.289087	0.846750
O270	O	0.667463	0.622420	1.180083
Cu271	Cu	0.067596	-0.051631	0.468479
Cu272	Cu	0.400929	0.281702	0.801812
Cu273	Cu	0.734262	0.615036	1.135145
Cu274	Cu	0.035582	0.044273	0.436522
Cu275	Cu	0.368915	0.377606	0.769855
Cu276	Cu	0.702248	0.710939	1.103188
O277	O	0.082426	-0.044211	0.513146
O278	O	0.415760	0.289123	0.846479
O279	O	0.749093	0.622456	1.179813
N280	N	0.013063	0.111726	0.414043
N281	N	0.346396	0.445060	0.747376
N282	N	0.679729	0.778393	1.080710
N283	N	0.090453	-0.465282	0.837001
N284	N	0.423786	-0.131948	1.170334
N285	N	0.757119	0.201385	1.503668
O286	O	0.085913	-0.581648	0.992925
O287	O	0.419246	-0.248314	1.326259
O288	O	0.752580	0.085019	1.659592
O289	O	-0.008857	-0.452947	0.992970
O290	O	0.324477	-0.119614	1.326303
O291	O	0.657810	0.213719	1.659636
O292	O	-0.008635	-0.534562	0.992946
O293	O	0.324699	-0.201228	1.326280
O294	O	0.658032	0.132105	1.659613
O295	O	0.085691	-0.500033	0.992949
O296	O	0.419025	-0.166700	1.326282
O297	O	0.752358	0.166633	1.659615
O298	O	0.018365	-0.507512	0.911855
O299	O	0.351698	-0.174178	1.245188
O300	O	0.685031	0.159155	1.578522
O301	O	0.018143	-0.425898	0.911878
O302	O	0.351476	-0.092564	1.245212
O303	O	0.684810	0.240769	1.578545
O304	O	0.112912	-0.554598	0.911834
O305	O	0.446246	-0.221264	1.245167
O306	O	0.779579	0.112069	1.578501
Cu307	Cu	0.067993	-0.487778	0.904452
Cu308	Cu	0.401326	-0.154444	1.237785
Cu309	Cu	0.734660	0.178889	1.571119
Cu310	Cu	0.036063	-0.519767	1.000352
Cu311	Cu	0.369396	-0.186434	1.333685
Cu312	Cu	0.702730	0.146899	1.667018
O313	O	0.112691	-0.472984	0.911857
O314	O	0.446024	-0.139650	1.245191
O315	O	0.779357	0.193683	1.578524
N316	N	0.013602	-0.542269	1.067803
N317	N	0.346936	-0.208935	1.401136
N318	N	0.680269	0.124398	1.734469
C319	C	0.031188	-0.423114	0.392334
C320	C	0.364521	-0.089781	0.725667
C321	C	0.697855	0.243552	1.059000
C322	C	0.132194	-0.524016	0.392223
C323	C	0.465527	-0.190682	0.725557
C324	C	0.798860	0.142651	1.058890
C325	C	0.072056	-0.584366	0.512840
C326	C	0.405389	-0.251032	0.846173
C327	C	0.738723	0.082301	1.179506
C328	C	-0.028950	-0.483464	0.512950
C329	C	0.304384	-0.150131	0.846283
C330	C	0.637717	0.183202	1.179616
C331	C	0.551868	-0.563965	0.532655
C332	C	0.885201	-0.230632	0.865989
C333	C	1.218535	0.102702	1.199322
C334	C	0.551766	-0.563697	0.431617
C335	C	0.885099	-0.230364	0.764950
C336	C	1.218432	0.102970	1.098283
C337	C	0.551623	-0.443070	0.371586
C338	C	0.884956	-0.109737	0.704919
C339	C	1.218290	0.223596	1.038252
C340	C	0.551728	-0.443339	0.472623
C341	C	0.885062	-0.110006	0.805957
C342	C	1.218395	0.223327	1.139290
C343	C	0.132090	-0.003555	0.392006
C344	C	0.465424	0.329779	0.725339
C345	C	0.798757	0.663112	1.058672
C346	C	0.031035	-0.003698	0.392374
C347	C	0.364368	0.329635	0.725707
C348	C	0.697701	0.662968	1.059041
C349	C	-0.028947	-0.003703	0.512961
C350	C	0.304386	0.329630	0.846295
C351	C	0.637720	0.662963	1.179628
C352	C	0.072143	-0.003661	0.512626
C353	C	0.405476	0.329673	0.845960
C354	C	0.738809	0.663006	1.179293
C355	C	-0.008408	-0.423209	0.952430
C356	C	0.324925	-0.089875	1.285763
C357	C	0.658259	0.243458	1.619096
C358	C	-0.008128	-0.524272	0.952385
C359	C	0.325206	-0.190939	1.285718
C360	C	0.658539	0.142394	1.619052
C361	C	0.112464	-0.584336	0.952374
C362	C	0.445797	-0.251003	1.285707
C363	C	0.779130	0.082330	1.619041
C364	C	0.112190	-0.483267	0.952401
C365	C	0.445523	-0.149933	1.285734
C366	C	0.778856	0.183400	1.619067
H367	H	0.080878	-0.361206	0.638363
H368	H	0.414211	-0.027873	0.971696
H369	H	0.747545	0.305461	1.305029
O370	O	-0.141096	-0.682732	0.378066
O371	O	0.192238	-0.349398	0.711400
O372	O	0.525571	-0.016065	1.044733
H373	H	-0.155072	-0.659472	0.399925
H374	H	0.178261	-0.326139	0.733258
H375	H	0.511594	0.007194	1.066592
H376	H	0.168963	-0.003318	0.362168
H377	H	0.502296	0.330015	0.695501
H378	H	0.835629	0.663348	1.028834
H379	H	0.023621	-0.003702	0.362756
H380	H	0.356955	0.329631	0.696090
H381	H	0.690288	0.662964	1.029423
O382	O	0.081954	-0.003651	0.551862
O383	O	0.415288	0.329682	0.885195
O384	O	0.748621	0.663016	1.218528
H385	H	0.077720	-0.036706	0.584246
H386	H	0.411053	0.296627	0.917580
H387	H	0.744387	0.629960	1.250913
H388	H	-0.065895	-0.003715	0.542725
H389	H	0.267439	0.329618	0.876058
H390	H	0.600772	0.662951	1.209392
H391	H	0.141823	-0.475877	0.952395
H392	H	0.475157	-0.142543	1.285729
H393	H	0.808490	0.190790	1.619062
H394	H	0.551918	-0.593721	0.569607
H395	H	0.885252	-0.260388	0.902940
H396	H	1.218585	0.072946	1.236273
O397	O	-0.047824	-0.374251	0.952450
O398	O	0.285509	-0.040918	1.285784
O399	O	0.618842	0.292415	1.619117
H400	H	-0.034042	-0.350338	0.952460
H401	H	0.299291	-0.017005	1.285794
H402	H	0.632625	0.316328	1.619127
O403	O	0.021448	-0.374108	0.353027
O404	O	0.354781	-0.040774	0.686361
O405	O	0.688115	0.292559	1.019694
H406	H	0.047765	-0.357022	0.342658
H407	H	0.381098	-0.023689	0.675991
H408	H	0.714432	0.309644	1.009325
O409	O	0.336961	-0.346224	0.491163
O410	O	0.670294	-0.012891	0.824496
O411	O	1.003628	0.320443	1.157829
H412	H	0.376744	-0.366414	0.480528
H413	H	0.710077	-0.033081	0.813861
H414	H	1.043410	0.300252	1.147195
O415	O	0.081793	-0.633372	0.552147
O416	O	0.415127	-0.300038	0.885480
O417	O	0.748460	0.033295	1.218814
H418	H	0.077540	-0.628398	0.584505
H419	H	0.410873	-0.295064	0.917838
H420	H	0.744206	0.038269	1.251171
H421	H	0.330277	-0.504737	0.554712
H422	H	0.663610	-0.171404	0.888045
H423	H	0.996943	0.161930	1.221379
O424	O	-0.047365	-0.534034	0.952331
O425	O	0.285968	-0.200700	1.285664
O426	O	0.619301	0.132633	1.618998
H427	H	-0.033408	-0.571755	0.952302
H428	H	0.299925	-0.238422	1.285635
H429	H	0.633259	0.094912	1.618968
O430	O	0.151876	-0.633298	0.952366
O431	O	0.485209	-0.299965	1.285700
O432	O	0.818543	0.033368	1.619033
H433	H	0.138090	-0.657215	0.952367
H434	H	0.471423	-0.323882	1.285701
H435	H	0.804757	0.009452	1.619034
O436	O	0.551553	-0.403650	0.322643
O437	O	0.884887	-0.070316	0.655976
O438	O	1.218220	0.263017	0.989309
H439	H	0.551544	-0.417441	0.298733
H440	H	0.884877	-0.084107	0.632066
H441	H	1.218211	0.249226	0.965399
H442	H	0.201378	-0.467681	0.730833
H443	H	0.534711	-0.134347	1.064166
H444	H	0.868045	0.198986	1.397499
O445	O	0.036838	-0.388844	0.737717
O446	O	0.370171	-0.055511	1.071050
O447	O	0.703504	0.277822	1.404384
H448	H	0.016600	-0.365572	0.711417
H449	H	0.349934	-0.032238	1.044750
H450	H	0.683267	0.301095	1.378083
O451	O	0.245419	-0.440043	0.631476
O452	O	0.578753	-0.106709	0.964810
O453	O	0.912086	0.226624	1.298143
H454	H	0.265657	-0.463304	0.657776
H455	H	0.598991	-0.129970	0.991109
H456	H	0.932324	0.203363	1.324442
H457	H	0.080840	-0.361208	0.594989
H458	H	0.414174	-0.027874	0.928322
H459	H	0.747507	0.305459	1.261655
O460	O	0.181159	-0.533654	0.352850
O461	O	0.514492	-0.200321	0.686183
O462	O	0.847826	0.133012	1.019516
H463	H	0.198202	-0.507303	0.342484
H464	H	0.531536	-0.173970	0.675817
H465	H	0.864869	0.159364	1.009150
H466	H	0.551779	-0.593338	0.424228
H467	H	0.885112	-0.260005	0.757561
H468	H	1.218445	0.073329	1.090894
O469	O	-0.077914	-0.473827	0.552325
O470	O	0.255419	-0.140494	0.885658
O471	O	0.588752	0.192840	1.218992
H472	H	-0.101799	-0.436116	0.538490
H473	H	0.231535	-0.102783	0.871823
H474	H	0.564868	0.230550	1.205157
O475	O	0.551713	-0.404072	0.482403
O476	O	0.885046	-0.070739	0.815736
O477	O	1.218379	0.262594	1.149069
H478	H	0.551757	-0.418024	0.520118
H479	H	0.885091	-0.084691	0.853452
H480	H	1.218424	0.248643	1.186785
H481	H	0.049948	-0.392069	0.564138
H482	H	0.383281	-0.058735	0.897471
H483	H	0.716615	0.274598	1.230804
H484	H	0.232048	-0.436761	0.519270
H485	H	0.565382	-0.103428	0.852604
H486	H	0.898715	0.229906	1.185937
O487	O	0.209906	-0.475386	0.480673
O488	O	0.543239	-0.142052	0.814006
O489	O	0.876573	0.191281	1.147339
H490	H	0.233191	-0.509102	0.500899
H491	H	0.566525	-0.175769	0.834232
H492	H	0.899858	0.157564	1.167565
O493	O	0.230933	-0.482556	0.592055
O494	O	0.564267	-0.149222	0.925388
O495	O	0.897600	0.184111	1.258721
H496	H	0.257266	-0.520038	0.594207
H497	H	0.590600	-0.186705	0.927541
H498	H	0.923933	0.146629	1.260874
H499	H	0.237625	-0.324046	0.528499
H500	H	0.570959	0.009287	0.861833
H501	H	0.904292	0.342621	1.195166
H502	H	0.163263	-0.225165	0.450676
H503	H	0.496596	0.108168	0.784009
H504	H	0.829929	0.441502	1.117343
O505	O	0.201930	-0.324517	0.472744
O506	O	0.535263	0.008817	0.806077
O507	O	0.868597	0.342150	1.139410
H508	H	0.207602	-0.298183	0.434995
H509	H	0.540936	0.035150	0.768329
H510	H	0.874269	0.368483	1.101662
H511	H	0.118680	-0.317820	0.632757
H512	H	0.452013	0.015513	0.966090
H513	H	0.785346	0.348847	1.299424
O514	O	0.080025	-0.218461	0.610685
O515	O	0.413358	0.114873	0.944018
O516	O	0.746691	0.448206	1.277352
H517	H	0.046324	-0.228267	0.633960
H518	H	0.379657	0.105066	0.967293
H519	H	0.712990	0.438399	1.300627
O520	O	-0.062924	-0.488694	0.167108
O521	O	0.270409	-0.155361	0.500442
O522	O	0.603743	0.177973	0.833775
H523	H	-0.086219	-0.468468	0.193416
H524	H	0.247114	-0.135135	0.526749
H525	H	0.580448	0.198199	0.860082
H526	H	-0.090673	-0.532769	0.266460
H527	H	0.242661	-0.199436	0.599793
H528	H	0.575994	0.133897	0.933126
H529	H	0.015877	-0.653227	0.173952
H530	H	0.349210	-0.319894	0.507285
H531	H	0.682544	0.013439	0.840619
O532	O	-0.011867	-0.697303	0.273306
O533	O	0.321467	-0.363970	0.606639
O534	O	0.654800	-0.030636	0.939972
H535	H	0.011419	-0.717530	0.246999
H536	H	0.344752	-0.384197	0.580332
H537	H	0.678085	-0.050863	0.913666
H538	H	-0.059919	-0.501948	0.340854
H539	H	0.273415	-0.168615	0.674187
H540	H	0.606748	0.164719	1.007520
O541	O	-0.098473	-0.524000	0.302110
O542	O	0.234860	-0.190667	0.635443
O543	O	0.568193	0.142667	0.968776
H544	H	-0.104178	-0.486252	0.296403
H545	H	0.229156	-0.152919	0.629736
H546	H	0.562489	0.180415	0.963069
H547	H	0.015526	-0.653210	0.416597
H548	H	0.348860	-0.319877	0.749931
H549	H	0.682193	0.013457	1.083264
O550	O	-0.012036	-0.697293	0.388884
O551	O	0.321297	-0.363960	0.722217
O552	O	0.654630	-0.030627	1.055551
H553	H	-0.025815	-0.714002	0.429125
H554	H	0.307519	-0.380668	0.762458
H555	H	0.640852	-0.047335	1.095792
O556	O	0.030570	-0.682900	0.312872
O557	O	0.363903	-0.349567	0.646205
O558	O	0.697237	-0.016234	0.979538
H559	H	0.057901	-0.692726	0.279758
H560	H	0.391235	-0.359392	0.613091
H561	H	0.724568	-0.026059	0.946425
O562	O	0.065859	-0.789007	0.348280
O563	O	0.399193	-0.455673	0.681613
O564	O	0.732526	-0.122340	1.014946
H565	H	0.086670	-0.779240	0.308625
H566	H	0.420004	-0.445907	0.641958
H567	H	0.753337	-0.112574	0.975291
O568	O	-0.105804	-0.788830	0.413474
O569	O	0.227529	-0.455497	0.746808
O570	O	0.560862	-0.122163	1.080141
H571	H	-0.143275	-0.762479	0.415602
H572	H	0.190058	-0.429145	0.748935
H573	H	0.523392	-0.095812	1.082268
O574	O	-0.127273	-0.567268	0.258679
O575	O	0.206060	-0.233935	0.592013
O576	O	0.539393	0.099398	0.925346
H577	H	-0.104016	-0.601024	0.248954
H578	H	0.229317	-0.267690	0.582287
H579	H	0.562651	0.065643	0.915620
H580	H	-0.134277	-0.646110	0.423254
H581	H	0.199056	-0.312777	0.756587
H582	H	0.532389	0.020557	1.089921
H583	H	-0.226875	-0.615140	0.453976
H584	H	0.106459	-0.281806	0.787310
H585	H	0.439792	0.051527	1.120643
H586	H	-0.226640	-0.539563	0.302661
H587	H	0.106694	-0.206230	0.635994
H588	H	0.440027	0.127103	0.969328
