data_functionalizedCrystal
_audit_creation_method	'MofGen! by Chris Wilmer'
_symmetry_space_group_name_H-M	'P1'
_symmetry_Int_Tables_number	1
_symmetry_cell_setting	triclinic
loop_
_symmetry_equiv_pos_as_xyz
  x,y,z
_cell_length_a	19.121224
_cell_length_b	12.759399
_cell_length_c	12.759393
_cell_angle_alpha	89.973195
_cell_angle_beta	87.529719
_cell_angle_gamma	92.446835
loop_
_atom_site_label
_atom_site_type_symbol
_atom_site_fract_x
_atom_site_fract_y
_atom_site_fract_z
Zn1	Zn	-1.073826	0.349881	0.662852
Zn2	Zn	-1.073754	0.525601	0.487179
Zn3	Zn	-0.956366	0.357407	0.479661
Zn4	Zn	-0.956362	0.532993	0.655294
O5	O	-1.015077	0.441470	0.571246
O6	O	-1.172104	0.366947	0.645858
O7	O	-1.058154	0.503345	0.339159
O8	O	-0.971979	0.209385	0.503978
O9	O	-1.172051	0.496048	0.516791
O10	O	-1.058277	0.203856	0.638568
O11	O	-0.971910	0.379774	0.333635
O12	O	-0.858079	0.386942	0.496650
O13	O	-0.971972	0.508647	0.803320
O14	O	-0.858076	0.515945	0.625687
O15	O	-1.058273	0.374115	0.808872
O16	O	-1.058150	0.673605	0.509463
O17	O	-0.971902	0.679036	0.632977
C18	C	-0.832593	0.453063	0.559533
C19	C	-0.754525	0.458048	0.554547
C20	C	-0.312988	0.489606	0.523005
C21	C	-0.386341	0.484917	0.527682
C22	C	-0.423047	0.415466	0.597328
C23	C	-0.386396	0.350693	0.662293
C24	C	-0.313044	0.355377	0.657610
C25	C	-0.644522	0.397959	0.614830
C26	C	-0.717879	0.393282	0.619510
C27	C	-0.717819	0.527505	0.484896
C28	C	-0.644466	0.532188	0.480224
C29	C	-0.607822	0.467411	0.545186
C30	C	-0.498025	0.410673	0.602112
C31	C	-0.532844	0.472199	0.540395
C32	C	-1.015037	0.714440	0.571240
C33	C	-1.015084	0.831214	0.571276
C34	C	-0.198274	0.429825	0.582994
C35	C	-0.276342	0.424840	0.587968
C36	C	-1.060045	0.883210	0.507046
C37	C	-1.060091	0.992931	0.507092
C38	C	-0.970209	0.998651	0.635600
C39	C	-0.970167	0.888932	0.635559
C40	C	-1.015130	0.441366	0.845283
C41	C	-1.015152	0.441322	0.962061
C42	C	-1.015139	1.167433	0.571296
C43	C	-1.015172	1.050654	0.571363
C44	C	-1.015065	0.441496	0.298278
C45	C	-1.015179	0.441236	0.181509
C46	C	-1.060092	0.371260	1.019817
C47	C	-1.060104	0.371214	1.129542
C48	C	-0.970234	0.511301	1.123746
C49	C	-0.970219	0.511341	1.014023
H50	H	-0.502955	0.528742	0.483687
H51	H	-1.096620	0.836218	0.454704
H52	H	-1.096704	1.035260	0.454791
H53	H	-0.933554	0.846594	0.687868
H54	H	-0.527919	0.354129	0.658821
C55	C	-1.109544	0.294143	1.193068
N56	N	-1.146784	0.236089	1.240915
H57	H	-0.933652	0.568310	1.166067
C58	C	-0.758133	0.598743	0.413432
N59	N	-0.788499	0.652398	0.359597
H60	H	-0.933618	0.568393	0.966997
H61	H	-0.747763	0.336719	0.676222
C62	C	-0.272618	0.566006	0.446387
N63	N	-0.242213	0.623550	0.388672
H64	H	-0.933638	1.045658	0.687936
H65	H	-0.416174	0.537654	0.474780
H66	H	-0.283208	0.302634	0.710507
C67	C	-1.109514	0.294228	0.962662
N68	N	-1.146737	0.236202	0.919617
H69	H	-0.614585	0.588740	0.423510
C70	C	-0.604223	0.326709	0.686298
N71	N	-0.573867	0.273043	0.740133
H72	H	-0.416288	0.294140	0.718996
