data_functionalizedCrystal
_audit_creation_method	'MofGen! by Chris Wilmer'
_symmetry_space_group_name_H-M	'P1'
_symmetry_Int_Tables_number	1
_symmetry_cell_setting	triclinic
loop_
_symmetry_equiv_pos_as_xyz
  x,y,z
_cell_length_a	16.109302
_cell_length_b	17.038272
_cell_length_c	15.500346
_cell_angle_alpha	87.025623
_cell_angle_beta	86.815375
_cell_angle_gamma	87.286668
loop_
_atom_site_label
_atom_site_type_symbol
_atom_site_fract_x
_atom_site_fract_y
_atom_site_fract_z
O1	O	1.113947	0.103726	-0.071983
O2	O	0.872773	0.116232	-0.071977
O3	O	0.991926	-0.003837	-0.071973
O4	O	0.994794	0.223795	-0.071987
O5	O	0.984562	-0.010292	0.071914
O6	O	0.865409	0.109776	0.071910
O7	O	1.106583	0.097271	0.071903
Cu8	Cu	0.985324	0.102934	0.085045
Cu9	Cu	0.994033	0.110569	-0.085118
O10	O	0.987430	0.217339	0.071900
C11	C	0.838080	0.112497	-0.000032
C12	C	0.745677	0.110978	-0.000030
C13	C	0.529073	0.103947	0.078395
C14	C	0.442251	0.102512	0.078392
C15	C	0.450290	0.109554	-0.078482
C16	C	0.537111	0.110984	-0.078478
C17	C	0.576500	0.108184	-0.000037
C18	C	0.402857	0.105319	-0.000044
C19	C	0.308721	0.103762	-0.000048
C20	C	0.670642	0.109739	-0.000033
C21	C	0.985637	-0.036193	-0.000030
C22	C	0.977858	-0.122985	-0.000030
C23	C	1.049279	-0.173100	-0.000031
C24	C	1.041965	-0.254650	-0.000039
C25	C	0.963229	-0.286084	-0.000040
C26	C	0.891804	-0.235963	-0.000041
C27	C	0.899118	-0.154414	-0.000039
C28	C	0.937388	-0.531842	-0.000051
C29	C	0.930078	-0.613397	-0.000050
C30	C	1.080240	-0.632078	-0.000049
C31	C	1.087548	-0.550527	-0.000042
C32	C	1.016122	-0.500413	-0.000048
C33	C	0.955752	-0.369442	-0.000045
C34	C	1.023601	-0.417057	-0.000049
C35	C	1.141276	0.101005	-0.000043
C36	C	1.233680	0.102525	-0.000051
C37	C	0.993719	0.249695	-0.000045
C38	C	1.001499	0.336488	-0.000051
N39	N	0.979205	0.097564	0.204728
N40	N	1.000158	0.115933	-0.204801
C41	C	0.948697	0.070544	0.749909
C42	C	0.953322	0.074636	0.659337
C43	C	1.009404	0.124120	0.614057
C44	C	1.060870	0.169511	0.659353
C45	C	1.056249	0.165414	0.749923
C46	C	1.026050	0.138858	0.340594
C47	C	1.030665	0.142953	0.250018
C48	C	0.923117	0.048076	0.250008
C49	C	0.918498	0.043988	0.340580
C50	C	0.969967	0.089375	0.385868
C51	C	1.014130	0.128306	0.521478
C52	C	0.965244	0.085185	0.478445
H53	H	0.403640	0.099062	0.142259
H54	H	0.881215	0.011124	0.213125
H55	H	0.903025	0.030252	0.786770
H56	H	1.100124	-0.295451	-0.000038
H57	H	0.561140	0.101668	0.142266
H58	H	0.911419	0.037673	0.622466
H59	H	1.151663	-0.524940	-0.000042
H60	H	1.087708	-0.391459	-0.000068
H61	H	0.872831	0.003691	0.377441
H62	H	0.891644	-0.395045	-0.000044
H63	H	1.076333	0.183255	0.213153
H64	H	1.106537	0.209799	0.622478
H65	H	0.840960	-0.113611	-0.000039
H66	H	1.067960	0.175816	0.377457
H67	H	1.098155	0.202374	0.786797
H68	H	0.919585	0.044892	0.515316
H69	H	0.418209	0.111834	-0.142345
H70	H	1.059792	0.168597	0.484601
H71	H	1.138391	-0.672889	-0.000046
H72	H	0.575728	0.114432	-0.142350
H73	H	1.113393	-0.147513	-0.000025
H74	H	0.865958	-0.638988	-0.000037
H75	H	0.879227	-0.491048	-0.000056
H76	H	0.827695	-0.261563	-0.000047
