data_functionalizedCrystal
_audit_creation_method	'MofGen! by Chris Wilmer'
_symmetry_space_group_name_H-M	'P1'
_symmetry_Int_Tables_number	1
_symmetry_cell_setting	triclinic
loop_
_symmetry_equiv_pos_as_xyz
  x,y,z
_cell_length_a	17.699083
_cell_length_b	16.053802
_cell_length_c	17.699103
_cell_angle_alpha	87.444451
_cell_angle_beta	83.287038
_cell_angle_gamma	92.569971
loop_
_atom_site_label
_atom_site_type_symbol
_atom_site_fract_x
_atom_site_fract_y
_atom_site_fract_z
O1	O	1.007276	0.069321	0.092523
O2	O	0.786900	0.069349	0.104974
O3	O	0.903306	0.069318	-0.011439
O4	O	0.890870	0.069352	0.208936
O5	O	0.896899	-0.069539	-0.005058
O6	O	0.780493	-0.069508	0.111355
O7	O	1.000869	-0.069537	0.098904
Zn8	Zn	0.889664	-0.091569	0.106143
Zn9	Zn	0.898105	0.091382	0.097735
O10	O	0.884463	-0.069505	0.215317
C11	C	0.755500	-0.000076	0.107718
C12	C	0.671482	-0.000066	0.106379
N13	N	0.883908	-0.216428	0.111880
C14	C	0.622866	-0.000056	0.174711
C15	C	0.543922	-0.000067	0.173450
C16	C	0.513596	-0.000082	0.103855
C17	C	0.562218	-0.000094	0.035517
C18	C	0.641160	-0.000089	0.036780
C19	C	0.243853	-0.000116	0.030423
C20	C	0.164905	-0.000118	0.029165
C21	C	0.146616	-0.000093	0.167093
C22	C	0.225558	-0.000088	0.168355
C23	C	0.274172	-0.000105	0.100019
C24	C	0.359772	-0.000095	0.101388
C25	C	0.427998	-0.000086	0.102484
C26	C	0.933457	-0.260135	0.062364
C27	C	0.929437	-0.347540	0.066385
C28	C	0.875872	-0.391237	0.119926
C29	C	0.826318	-0.347524	0.169444
C30	C	0.830335	-0.260120	0.165420
C31	C	0.858329	-0.652642	0.137485
C32	C	0.854318	-0.740053	0.141508
C33	C	0.957437	-0.740063	0.038447
C34	C	0.961451	-0.652657	0.034430
C35	C	0.911895	-0.608951	0.083946
N36	N	0.871764	-0.480580	0.124038
N37	N	0.916000	-0.519610	0.079829
C38	C	1.032270	-0.000110	0.096160
C39	C	1.116288	-0.000114	0.097499
C40	C	0.899654	-0.000113	-0.036445
C41	C	0.898309	-0.000119	-0.120462
N42	N	0.903867	0.216240	0.091992
C43	C	0.893580	0.075627	-0.639654
C44	C	0.894842	0.075620	-0.560711
C45	C	0.891979	-0.000076	-0.517774
C46	C	0.887861	-0.075770	-0.553785
C47	C	0.886605	-0.075762	-0.632728
C48	C	0.892929	-0.075806	-0.235417
C49	C	0.894184	-0.075808	-0.156469
C50	C	0.901167	0.075576	-0.163400
C51	C	0.899910	0.075584	-0.242343
C52	C	0.895797	-0.000109	-0.278348
C53	C	0.894430	-0.000100	-0.363948
C54	C	0.893340	-0.000086	-0.432174
C55	C	0.888115	-0.000073	0.240323
C56	C	0.889460	-0.000061	0.324340
H57	H	0.504342	-0.000057	0.229093
H58	H	0.140217	-0.000132	-0.027511
H59	H	0.810697	-0.775627	0.185111
O60	O	0.985513	-0.217821	0.010287
C61	C	1.028396	-0.275145	-0.032543
H62	H	0.994504	-0.337454	-0.030489
H63	H	1.084146	-0.284427	-0.007611
C64	C	1.087336	-0.164528	-0.118305
C65	C	1.045707	-0.241054	-0.115788
H66	H	1.098018	-0.143499	-0.169654
H67	H	1.058448	-0.125907	-0.089449
H68	H	1.133790	-0.172274	-0.097524
H69	H	0.999250	-0.233306	-0.136559
H70	H	1.074588	-0.279674	-0.144649
H71	H	0.283426	-0.000130	-0.025221
O72	O	0.652194	-0.000077	0.242385
C73	C	0.592353	-0.000051	0.302425
H74	H	0.537554	-0.026346	0.282513
H75	H	0.584208	0.066569	0.320434
C76	C	0.679320	-0.022196	0.395033
C77	C	0.612015	-0.054500	0.370579
H78	H	0.691448	-0.055780	0.437076
H79	H	0.719636	-0.022211	0.354584
H80	H	0.672523	0.033319	0.410036
H81	H	0.618816	-0.110010	0.355569
H82	H	0.571700	-0.054496	0.411028
H83	H	0.817980	-0.617064	0.177804
H84	H	0.898198	0.137252	-0.531399
H85	H	0.537519	-0.000119	-0.021148
O86	O	0.099427	0.000063	0.233491
C87	C	0.116474	0.071979	0.272454
H88	H	0.145836	0.122237	0.230135
H89	H	0.155848	0.055734	0.316934
C90	C	0.006179	0.042864	0.364071
C91	C	0.042237	0.104594	0.312093
H92	H	-0.039612	0.062981	0.388526
H93	H	-0.005304	-0.005590	0.337824
H94	H	0.038999	0.029332	0.401131
H95	H	0.009422	0.118117	0.275029
H96	H	0.053714	0.153050	0.338336
H97	H	0.680743	-0.000097	-0.018863
H98	H	0.969783	-0.383126	0.026064
H99	H	0.782701	-0.383107	0.213036
H100	H	0.902238	0.137224	-0.277298
O101	O	0.884944	-0.149277	-0.512022
C102	C	0.819946	-0.153783	-0.457456
H103	H	0.775756	-0.110821	-0.477149
H104	H	0.836647	-0.133448	-0.400523
C105	C	0.840352	-0.296977	-0.423972
C106	C	0.786074	-0.244215	-0.448162
H107	H	0.819460	-0.352759	-0.418235
H108	H	0.884144	-0.293941	-0.460732
H109	H	0.854265	-0.280021	-0.376529
H110	H	0.772169	-0.261165	-0.495608
H111	H	0.742279	-0.247256	-0.411410
O112	O	1.013505	-0.610342	-0.017650
C113	C	1.056390	-0.667663	-0.060481
H114	H	1.022501	-0.729972	-0.058430
H115	H	1.112141	-0.676944	-0.035548
C116	C	1.115329	-0.557040	-0.146239
C117	C	1.073703	-0.633568	-0.143725
H118	H	1.126011	-0.536008	-0.197586
H119	H	1.086439	-0.518421	-0.117381
H120	H	1.161783	-0.564785	-0.125457
H121	H	1.027246	-0.625820	-0.164497
H122	H	1.102586	-0.672185	-0.172587
H123	H	0.997783	-0.775656	-0.001867
H124	H	0.250245	-0.000072	0.225027
O125	O	0.782170	-0.217789	0.213601
C126	C	0.734019	-0.275098	0.261709
H127	H	0.762184	-0.337398	0.265396
H128	H	0.677415	-0.284409	0.237631
C129	C	0.685244	-0.164445	0.337277
C130	C	0.719840	-0.240961	0.341811
H131	H	0.676494	-0.143387	0.386687
H132	H	0.717682	-0.125834	0.304864
H133	H	0.638078	-0.172214	0.317209
H134	H	0.767009	-0.233189	0.361869
H135	H	0.687409	-0.279569	0.374229
O136	O	0.891274	-0.149321	-0.114706
C137	C	0.826277	-0.153838	-0.060139
H138	H	0.782080	-0.110884	-0.079829
H139	H	0.842978	-0.133501	-0.003205
C140	C	0.846705	-0.297027	-0.026657
C141	C	0.792419	-0.244275	-0.050845
H142	H	0.825820	-0.352813	-0.020921
H143	H	0.890496	-0.293984	-0.063418
H144	H	0.860617	-0.280069	0.020785
H145	H	0.778514	-0.261227	-0.098291
H146	H	0.748624	-0.247323	-0.014092
O147	O	0.896383	0.149235	-0.681249
C148	C	0.900263	0.216036	-0.632533
H149	H	0.924103	0.193842	-0.578427
H150	H	0.840770	0.239299	-0.617144
C151	C	0.923385	0.314821	-0.739651
C152	C	0.952671	0.287564	-0.673199
H153	H	0.955709	0.358945	-0.764736
H154	H	0.920768	0.269817	-0.772472
H155	H	0.873808	0.334201	-0.726817
H156	H	1.002243	0.268175	-0.686035
H157	H	0.955297	0.332567	-0.640381
H158	H	0.904519	0.137209	-0.134075
H159	H	0.889581	-0.137440	-0.264723
O160	O	0.882733	-0.149263	-0.667759
C161	C	0.947312	-0.153787	-0.721915
H162	H	0.995469	-0.110843	-0.706160
H163	H	0.932484	-0.133441	-0.780711
C164	C	0.913681	-0.296968	-0.742281
C165	C	0.972831	-0.244229	-0.722927
H166	H	0.929421	-0.352757	-0.742909
H167	H	0.870172	-0.293920	-0.705798
H168	H	0.901330	-0.280003	-0.791276
H169	H	0.985174	-0.261188	-0.673929
H170	H	1.016343	-0.247282	-0.759402
