data_functionalizedCrystal
_audit_creation_method	'MofGen! by Chris Wilmer'
_symmetry_space_group_name_H-M	'P1'
_symmetry_Int_Tables_number	1
_symmetry_cell_setting	triclinic
loop_
_symmetry_equiv_pos_as_xyz
  x,y,z
_cell_length_a	10.654541
_cell_length_b	16.992695
_cell_length_c	15.455313
_cell_angle_alpha	92.847427
_cell_angle_beta	92.705766
_cell_angle_gamma	92.423924
loop_
_atom_site_label
_atom_site_type_symbol
_atom_site_fract_x
_atom_site_fract_y
_atom_site_fract_z
O1	O	1.682527	-0.106780	0.072105
O2	O	2.182527	0.393220	0.572105
O3	O	1.317956	-0.117280	0.072113
O4	O	1.817956	0.382720	0.572113
O5	O	1.498779	0.002120	0.072102
O6	O	1.998779	0.502120	0.572102
O7	O	1.501703	-0.226181	0.072116
O8	O	2.001703	0.273819	0.572116
O9	O	1.488436	-0.004680	-0.072159
O10	O	1.988436	0.495320	0.427841
O11	O	1.307612	-0.124080	-0.072149
O12	O	1.807612	0.375920	0.427851
O13	O	1.672183	-0.113580	-0.072156
O14	O	2.172183	0.386420	0.427844
Cu15	Cu	1.488954	-0.119451	-0.085325
Cu16	Cu	1.988954	0.380549	0.414675
Cu17	Cu	1.501185	-0.111410	0.085281
Cu18	Cu	2.001185	0.388590	0.585281
O19	O	1.491360	-0.232980	-0.072146
O20	O	1.991360	0.267020	0.427854
C21	C	1.265919	-0.119909	-0.000017
C22	C	1.765919	0.380091	0.499983
C23	C	1.126277	-0.117604	-0.000014
C24	C	1.626277	0.382396	0.499986
C25	C	1.489847	0.027953	-0.000029
C26	C	1.989847	0.527953	0.499971
C27	C	1.478628	0.115058	-0.000028
C28	C	1.978628	0.615058	0.499972
N29	N	1.480359	-0.125106	-0.205320
N30	N	1.980359	0.374894	0.294680
C31	C	1.110646	-0.260379	0.000005
C32	C	1.610646	0.239621	0.500005
C33	C	1.037228	-0.330680	0.000018
C34	C	1.537228	0.169320	0.500018
C35	C	0.906022	-0.328509	0.000019
C36	C	1.406022	0.171491	0.500019
C37	C	0.848232	-0.256029	0.000004
C38	C	1.348232	0.243971	0.500004
C39	C	0.921650	-0.185728	-0.000009
C40	C	1.421650	0.314272	0.499991
C41	C	1.052858	-0.187907	-0.000007
C42	C	1.552858	0.312093	0.499993
C43	C	0.937281	-0.042955	-0.000035
C44	C	1.437281	0.457045	0.499965
C45	C	1.068487	-0.045124	-0.000029
C46	C	1.568487	0.454876	0.499971
C47	C	0.879491	0.029525	-0.000050
C48	C	1.379491	0.529525	0.499950
C49	C	0.952910	0.099828	-0.000057
C50	C	1.452910	0.599828	0.499943
C51	C	1.084123	0.097653	-0.000057
C52	C	1.584123	0.597653	0.499943
C53	C	1.141905	0.025177	-0.000043
C54	C	1.641905	0.525177	0.499957
C55	C	1.724220	-0.110951	-0.000025
C56	C	2.224220	0.389049	0.499975
C57	C	1.863863	-0.113256	-0.000022
C58	C	2.363863	0.386744	0.499978
C59	C	1.500292	-0.258813	-0.000013
C60	C	2.000292	0.241187	0.499987
C61	C	1.511512	-0.345918	-0.000008
C62	C	2.011512	0.154082	0.499992
C63	C	1.586879	0.164711	-0.000031
C64	C	2.086879	0.664711	0.499969
C65	C	1.576330	0.246555	-0.000023
C66	C	2.076330	0.746555	0.499977
C67	C	1.457529	0.278745	-0.000017
C68	C	1.957529	0.778745	0.499983
C69	C	1.349271	0.229087	-0.000012
C70	C	1.849271	0.729087	0.499988
C71	C	1.359821	0.147244	-0.000014
C72	C	1.859821	0.647244	0.499986
C73	C	1.413803	0.522581	-0.000005
C74	C	1.913803	1.022581	0.499995
C75	C	1.403261	0.604430	-0.000005
C76	C	1.903261	1.104430	0.499995
C77	C	1.630322	0.621892	-0.000014
C78	C	2.130322	1.121892	0.499986
C79	C	1.640861	0.540047	-0.000022
C80	C	2.140861	1.040047	0.499978
C81	C	1.532603	0.490396	-0.000012
C82	C	2.032603	0.990396	0.499988
N83	N	1.446744	0.362403	-0.000011
N84	N	1.946744	0.862403	0.499989
N85	N	1.543390	0.406740	-0.000011
N86	N	2.043390	0.906740	0.499989
C87	C	1.557210	-0.074400	-0.250719
C88	C	2.057210	0.425600	0.249281
C89	C	1.550723	-0.078684	-0.341526
C90	C	2.050723	0.421316	0.158474
C91	C	1.467391	-0.133679	-0.386933
C92	C	1.967391	0.366321	0.113067
C93	C	1.390532	-0.184387	-0.341528
C94	C	1.890532	0.315613	0.158472
C95	C	1.397013	-0.180099	-0.250722
C96	C	1.897013	0.319901	0.249278
C97	C	1.439412	-0.152168	-0.658513
C98	C	1.939412	0.347832	-0.158513
C99	C	1.432938	-0.156455	-0.749325
C100	C	1.932938	0.343545	-0.249325
C101	C	1.593129	-0.050749	-0.749317
C102	C	2.093129	0.449251	-0.249317
C103	C	1.599608	-0.046469	-0.658509
C104	C	2.099608	0.453531	-0.158509
C105	C	1.522745	-0.097175	-0.613112
C106	C	2.022745	0.402825	-0.113112
N107	N	1.460761	-0.138061	-0.479753
N108	N	1.960761	0.361939	0.020247
N109	N	1.529369	-0.092788	-0.520294
N110	N	2.029369	0.407212	-0.020294
N111	N	1.509789	-0.105748	0.205276
N112	N	2.009789	0.394252	0.705276
H113	H	1.084294	-0.389692	0.000028
H114	H	1.584294	0.110308	0.500028
H115	H	1.306513	0.630635	-0.000014
H116	H	1.806513	1.130635	0.499986
O117	O	1.633615	-0.023991	-0.390488
O118	O	2.133615	0.476009	0.109512
H119	H	1.615099	-0.036202	-0.461259
H120	H	2.115099	0.463798	0.038741
H121	H	0.741396	-0.254268	-0.000006
H122	H	1.241396	0.245732	0.499994
H123	H	1.655706	-0.009466	-0.786287
H124	H	2.155706	0.490534	-0.286287
H125	H	1.325651	0.482164	0.000004
H126	H	1.825651	0.982164	0.500004
O127	O	1.314106	-0.234789	-0.201765
O128	O	1.814106	0.265211	0.298235
H129	H	1.252670	-0.199448	-0.160423
H130	H	1.752670	0.300552	0.339577
H131	H	1.365076	-0.201241	-0.786292
H132	H	1.865076	0.298759	-0.286292
H133	H	1.376828	-0.193456	-0.621558
H134	H	1.876828	0.306544	-0.121558
H135	H	0.772656	0.031287	-0.000054
H136	H	1.272656	0.531287	0.499946
H137	H	0.905846	0.158835	-0.000068
H138	H	1.405846	0.658835	0.499932
H139	H	1.248739	0.023400	-0.000032
H140	H	1.748739	0.523400	0.499968
H141	H	1.252541	0.255302	-0.000002
H142	H	1.752541	0.755302	0.499998
H143	H	0.846244	-0.385754	0.000023
H144	H	1.346244	0.114246	0.500023
H145	H	1.271671	0.106817	-0.000011
H146	H	1.771671	0.606817	0.499989
O147	O	1.163310	0.173479	-0.000072
O148	O	1.663310	0.673479	0.499928
H149	H	1.101078	0.224238	-0.000077
H150	H	1.601078	0.724238	0.499923
H151	H	1.625073	-0.029620	-0.213754
H152	H	2.125073	0.470380	0.286246
O153	O	1.715015	0.129992	-0.000029
O154	O	2.215015	0.629992	0.499971
H155	H	1.788516	0.178272	-0.000018
H156	H	2.288516	0.678272	0.499982
H157	H	1.322674	-0.229163	-0.378504
H158	H	1.822674	0.270837	0.121496
H159	H	1.737601	0.513845	-0.000026
H160	H	2.237601	1.013845	0.499974
O161	O	1.252160	-0.262720	-0.000002
O162	O	1.752160	0.237280	0.499998
H163	H	1.294349	-0.229701	0.058790
H164	H	1.794349	0.270299	0.558790
O165	O	1.693084	0.300111	-0.000041
O166	O	2.193084	0.800111	0.499959
H167	H	1.777464	0.263976	-0.000061
H168	H	2.277464	0.763976	0.499939
O169	O	1.747082	0.675443	-0.000024
O170	O	2.247082	1.175443	0.499976
H171	H	1.751935	0.715912	0.058778
H172	H	2.251935	1.215912	0.558778
H173	H	1.667464	-0.001688	-0.621540
H174	H	2.167464	0.498312	-0.121540
