data_functionalizedCrystal
_audit_creation_method	'MofGen! by Chris Wilmer'
_symmetry_space_group_name_H-M	'P1'
_symmetry_Int_Tables_number	1
_symmetry_cell_setting	triclinic
loop_
_symmetry_equiv_pos_as_xyz
  x,y,z
_cell_length_a	22.010155
_cell_length_b	23.532407
_cell_length_c	23.532409
_cell_angle_alpha	97.150881
_cell_angle_beta	89.995165
_cell_angle_gamma	89.990960
loop_
_atom_site_label
_atom_site_type_symbol
_atom_site_fract_x
_atom_site_fract_y
_atom_site_fract_z
O1	O	0.050445	-0.755269	0.069128
O2	O	0.050463	-0.589406	0.079131
O3	O	0.050454	-0.677338	-0.008802
O4	O	0.050454	-0.667336	0.157061
O5	O	-0.050596	-0.677313	-0.008791
O6	O	-0.050588	-0.589380	0.079142
O7	O	-0.050605	-0.755244	0.069139
Cu8	Cu	-0.059823	-0.672310	0.074141
Cu9	Cu	0.059681	-0.672340	0.074129
O10	O	-0.050596	-0.667311	0.157072
C11	C	-0.000060	-0.568177	0.078882
C12	C	-0.000053	-0.504960	0.078116
N13	N	-0.143875	-0.672293	0.074149
C14	C	-0.000069	-0.677071	-0.030013
C15	C	-0.000065	-0.676304	-0.093230
C16	C	-0.436476	-0.637983	0.039758
C17	C	-0.372869	-0.637978	0.039760
O18	O	-0.339968	-0.608785	0.010521
N19	N	-0.341060	-0.672315	0.074132
C20	C	-0.372861	-0.706664	0.108498
O21	O	-0.339964	-0.735870	0.137733
C22	C	-0.436468	-0.706672	0.108492
C23	C	-0.468274	-0.672328	0.074123
C24	C	-0.468282	-0.603642	0.005391
C25	C	-0.531886	-0.603647	0.005389
C26	C	-0.563683	-0.637992	0.039754
C27	C	-0.531877	-0.672332	0.074121
C28	C	-0.468268	-0.741023	0.142855
C29	C	-0.531879	-0.741028	0.142846
C30	C	-0.563685	-0.706684	0.108476
C31	C	-0.627277	-0.706681	0.108485
N32	N	-0.659087	-0.672344	0.074113
C33	C	-0.627289	-0.637999	0.039748
C34	C	-0.239283	-0.706646	0.108507
C35	C	-0.175678	-0.706635	0.108517
C36	C	-0.175690	-0.637950	0.039778
C37	C	-0.239297	-0.637958	0.039772
C38	C	-0.271093	-0.672309	0.074136
C39	C	-0.760861	-0.638011	0.039748
C40	C	-0.824469	-0.638016	0.039751
C41	C	-0.824452	-0.706704	0.108487
C42	C	-0.760849	-0.706696	0.108486
C43	C	-0.729055	-0.672348	0.074112
O44	O	-0.660218	-0.735861	0.137708
O45	O	-0.660194	-0.608803	0.010512
N46	N	0.143733	-0.672361	0.074116
C47	C	-0.000081	-0.776472	0.069388
C48	C	-0.000083	-0.839689	0.070154
C49	C	-0.000081	-0.105857	0.125349
C50	C	-0.000085	-0.046457	0.124638
O51	O	-0.000107	-0.009713	0.168424
N52	N	-0.000084	-0.023830	0.072362
C53	C	-0.000085	-0.060608	0.020794
O54	O	-0.000085	-0.035908	-0.023737
C55	C	-0.000086	-0.120007	0.021506
C56	C	-0.000081	-0.142630	0.073785
C57	C	-0.000077	-0.128481	0.177625
C58	C	-0.000072	-0.187877	0.178336
C59	C	-0.000071	-0.224649	0.126772
C60	C	-0.000076	-0.202026	0.074496
C61	C	-0.000091	-0.156783	-0.030062
C62	C	-0.000092	-0.216185	-0.029345
C63	C	-0.000087	-0.238808	0.022934
C64	C	-0.000070	-0.298195	0.023643
N65	N	-0.000071	-0.320821	0.075920
C66	C	-0.000072	-0.284049	0.127484
C67	C	-0.000085	0.064135	0.019302
C68	C	-0.000080	0.123533	0.018589
C69	C	-0.000081	0.137679	0.122434
C70	C	-0.000081	0.078280	0.123146
C71	C	-0.000086	0.041508	0.071578
C72	C	-0.000061	-0.408785	0.128974
C73	C	-0.000054	-0.468187	0.129680
C74	C	-0.000056	-0.482329	0.025836
C75	C	-0.000060	-0.422932	0.025129
C76	C	-0.000065	-0.386161	0.076702
O77	O	-0.000051	-0.334973	-0.020119
O78	O	-0.000080	-0.308757	0.172007
C79	C	0.055021	-0.673059	-0.366480
C80	C	0.055021	-0.673771	-0.307080
O81	O	0.101865	-0.674171	-0.276360
N82	N	-0.000063	-0.674109	-0.277372
C83	C	-0.055150	-0.673742	-0.307069
O84	O	-0.102003	-0.674095	-0.276346
C85	C	-0.055149	-0.673034	-0.366468
C86	C	-0.000062	-0.672690	-0.396172
C87	C	0.110103	-0.672716	-0.396184
C88	C	0.110103	-0.672003	-0.455580
C89	C	0.055020	-0.671634	-0.485272
C90	C	-0.000062	-0.671977	-0.455568
C91	C	-0.110236	-0.672671	-0.396164
C92	C	-0.110230	-0.671964	-0.455568
C93	C	-0.055143	-0.671619	-0.485272
C94	C	-0.055146	-0.670896	-0.544656
N95	N	-0.000062	-0.670557	-0.574364
C96	C	0.055021	-0.670926	-0.544672
C97	C	-0.055147	-0.675229	-0.182325
C98	C	-0.055148	-0.675932	-0.122926
C99	C	0.055023	-0.675962	-0.122942
C100	C	0.055023	-0.675255	-0.182342
C101	C	-0.000063	-0.674890	-0.212033
C102	C	0.055016	-0.669429	-0.669408
C103	C	0.055011	-0.668714	-0.728808
C104	C	-0.055160	-0.668687	-0.728788
C105	C	-0.055155	-0.669399	-0.669392
C106	C	-0.000062	-0.669772	-0.639703
O107	O	-0.101965	-0.670498	-0.575414
O108	O	0.101866	-0.670580	-0.575403
C109	C	-0.000071	-0.667579	0.178283
C110	C	-0.000072	-0.668345	0.241500
H111	H	-0.850363	-0.610047	0.011764
H112	H	-0.000074	0.141947	-0.023982
H113	H	-0.000096	-0.246123	-0.071339
H114	H	-0.000053	-0.512279	-0.016146
C115	C	0.118941	-0.621267	-0.595962
C116	C	0.115576	-0.669825	-0.636781
H117	H	0.156328	-0.621508	-0.575820
H118	H	0.116641	-0.587784	-0.614614
H119	H	0.086141	-0.621584	-0.569764
H120	H	0.148374	-0.669506	-0.662982
H121	H	0.117883	-0.703316	-0.618129
C122	C	0.163928	-0.675923	-0.128910
C123	C	0.115573	-0.676372	-0.090298
H124	H	0.201306	-0.676172	-0.108754
H125	H	0.161635	-0.708858	-0.156601
H126	H	0.161641	-0.642428	-0.147553
H127	H	0.117857	-0.709870	-0.071658
H128	H	0.117868	-0.643434	-0.062596
H129	H	0.154961	-0.671727	-0.479760
C130	C	-0.767279	-0.570111	-0.028190
C131	C	-0.725919	-0.600250	0.001968
H132	H	-0.745706	-0.546795	-0.051508
H133	H	-0.792075	-0.596455	-0.051661
H134	H	-0.792099	-0.546634	-0.001853
H135	H	-0.701101	-0.623731	-0.024369
H136	H	-0.701113	-0.573903	0.025441
C137	C	-0.000055	-0.442885	-0.077445
C138	C	-0.000059	-0.398061	-0.032337
H139	H	-0.000061	-0.427532	-0.112922
H140	H	0.035185	-0.465757	-0.075011
H141	H	-0.035292	-0.465758	-0.075000
H142	H	0.035181	-0.375190	-0.034780
H143	H	-0.035303	-0.375179	-0.034773
C144	C	-0.164047	-0.675260	-0.176333
C145	C	-0.115704	-0.674816	-0.214958
H146	H	-0.201431	-0.675002	-0.196477
H147	H	-0.161759	-0.708751	-0.157692
H148	H	-0.161740	-0.642320	-0.148639
H149	H	-0.118008	-0.707758	-0.242650
H150	H	-0.117993	-0.641322	-0.233608
C151	C	-0.119064	-0.627746	-0.049455
C152	C	-0.115702	-0.676302	-0.090279
H153	H	-0.156451	-0.627976	-0.029305
H154	H	-0.086267	-0.628074	-0.023269
H155	H	-0.116766	-0.594258	-0.068108
H156	H	-0.117995	-0.709790	-0.071625
H157	H	-0.148508	-0.675980	-0.116468
C158	C	-0.052023	0.019701	0.184201
C159	C	-0.000078	0.053413	0.180611
H160	H	-0.052018	0.004348	0.219678
H161	H	-0.087255	0.042586	0.181772
H162	H	-0.052019	-0.010702	0.153592
H163	H	-0.000085	0.083818	0.211218
H164	H	0.035162	0.030527	0.183046
C165	C	0.159040	-0.673737	-0.305130
C166	C	0.170657	-0.673067	-0.363545
H167	H	0.196427	-0.673938	-0.284982
H168	H	0.136378	-0.640651	-0.290891
H169	H	0.136444	-0.707082	-0.299899
H170	H	0.193250	-0.639720	-0.368776
H171	H	0.193329	-0.706156	-0.377788
C172	C	0.118938	-0.618963	-0.788938
C173	C	0.115566	-0.668336	-0.761459
H174	H	0.156322	-0.618729	-0.809090
H175	H	0.086138	-0.618644	-0.815122
H176	H	0.116650	-0.586029	-0.761233
H177	H	0.117850	-0.701269	-0.789165
H178	H	0.148376	-0.668660	-0.735272
H179	H	-0.265189	-0.609992	0.011786
H180	H	-0.100011	-0.669657	-0.645203
H181	H	-0.442383	-0.768991	0.170841
C182	C	-0.219130	-0.672603	-0.402145
C183	C	-0.170791	-0.673065	-0.363526
H184	H	-0.256516	-0.672854	-0.381996
H185	H	-0.216843	-0.639109	-0.420780
H186	H	-0.216820	-0.705539	-0.429844
H187	H	-0.173098	-0.640127	-0.335829
H188	H	-0.173079	-0.706563	-0.344882
C189	C	0.051878	-0.098158	0.265906
C190	C	-0.000072	-0.088066	0.234311
H191	H	0.051886	-0.073208	0.300902
H192	H	0.051872	-0.136770	0.273801
H193	H	0.087110	-0.091332	0.244444
H194	H	-0.035304	-0.094896	0.255771
H195	H	-0.000071	-0.049445	0.226418
H196	H	0.099880	-0.674973	-0.206522
C197	C	-0.174146	-0.622186	-0.515685
C198	C	-0.170785	-0.671559	-0.488204
H199	H	-0.211528	-0.621938	-0.535835
H200	H	-0.171854	-0.589256	-0.487987
H201	H	-0.141340	-0.621886	-0.541879
H202	H	-0.203589	-0.671857	-0.462007
H203	H	-0.173083	-0.704498	-0.515905
C204	C	-0.104065	-0.667601	-0.819844
C205	C	-0.115705	-0.668291	-0.761435
H206	H	-0.141444	-0.667365	-0.839999
H207	H	-0.081440	-0.634273	-0.825053
H208	H	-0.081425	-0.700704	-0.834093
H209	H	-0.138342	-0.635186	-0.747184
H210	H	-0.138340	-0.701622	-0.756222
C211	C	-0.310783	-0.783238	0.111685
C212	C	-0.274230	-0.744403	0.146290
H213	H	-0.332351	-0.806549	0.135010
H214	H	-0.338833	-0.762791	0.091223
H215	H	-0.285952	-0.806716	0.085359
H216	H	-0.299061	-0.720921	0.172613
H217	H	-0.246177	-0.764851	0.166761
H218	H	-0.734951	-0.734653	0.136481
C219	C	-0.525495	-0.535762	-0.062561
C220	C	-0.566844	-0.565903	-0.032397
H221	H	-0.547076	-0.512465	-0.085893
H222	H	-0.500701	-0.512273	-0.036231
H223	H	-0.500672	-0.562110	-0.086023
H224	H	-0.591664	-0.539555	-0.008932
H225	H	-0.591649	-0.589394	-0.058730
H226	H	-0.149789	-0.609985	0.011796
C227	C	-0.396793	-0.527046	0.002235
C228	C	-0.433340	-0.565877	-0.032380
H229	H	-0.375223	-0.503728	-0.021082
H230	H	-0.421623	-0.503579	0.028563
H231	H	-0.368738	-0.547500	0.022694
H232	H	-0.461398	-0.545423	-0.052836
H233	H	-0.408508	-0.589347	-0.058718
H234	H	-0.000068	-0.206291	0.220907
H235	H	-0.149787	-0.734595	0.136511
C236	C	-0.525473	-0.808925	0.210788
C237	C	-0.566828	-0.778787	0.180623
H238	H	-0.547050	-0.832231	0.234112
H239	H	-0.500657	-0.832406	0.184458
H240	H	-0.500673	-0.782575	0.234258
H241	H	-0.591626	-0.805137	0.157149
H242	H	-0.591655	-0.755304	0.206955
C243	C	-0.000113	-0.176757	-0.132632
C244	C	-0.000106	-0.131926	-0.087530
H245	H	-0.000128	-0.161412	-0.168112
H246	H	0.035126	-0.199631	-0.130200
H247	H	-0.035351	-0.199627	-0.130174
H248	H	0.035135	-0.109059	-0.089985
H249	H	-0.035349	-0.109043	-0.089963
C250	C	-0.844021	-0.801977	0.130358
C251	C	-0.859411	-0.744457	0.146258
H252	H	-0.865602	-0.825286	0.153677
H253	H	-0.854434	-0.812771	0.091339
H254	H	-0.801587	-0.806884	0.135286
H255	H	-0.901844	-0.739550	0.141326
H256	H	-0.849002	-0.733660	0.185286
H257	H	-0.000067	-0.378853	0.170970
C258	C	-0.000059	-0.448228	0.232257
C259	C	-0.000053	-0.493053	0.187150
H260	H	-0.000063	-0.463579	0.267735
H261	H	0.035176	-0.425360	0.229816
H262	H	-0.035301	-0.425351	0.229816
H263	H	0.035192	-0.515928	0.189588
H264	H	-0.035291	-0.515931	0.189592
C265	C	0.051857	0.212689	0.181869
C266	C	-0.000086	0.178108	0.179116
H267	H	0.051852	0.237650	0.216859
H268	H	0.087090	0.189219	0.179992
H269	H	0.051851	0.234657	0.150627
H270	H	-0.000077	0.156136	0.210356
H271	H	-0.035328	0.201581	0.180999
H272	H	-0.000083	0.034198	-0.022693
