data_functionalizedCrystal
_audit_creation_method	'MofGen! by Chris Wilmer'
_symmetry_space_group_name_H-M	'P1'
_symmetry_Int_Tables_number	1
_symmetry_cell_setting	triclinic
loop_
_symmetry_equiv_pos_as_xyz
  x,y,z
_cell_length_a	16.992694
_cell_length_b	27.731996
_cell_length_c	15.455313
_cell_angle_alpha	92.636264
_cell_angle_beta	87.142206
_cell_angle_gamma	86.644806
loop_
_atom_site_label
_atom_site_type_symbol
_atom_site_fract_x
_atom_site_fract_y
_atom_site_fract_z
O1	O	1.042576	0.100468	-0.072041
O2	O	0.814306	0.099344	-0.072066
O3	O	0.935551	0.029815	-0.072034
O4	O	0.921331	0.169996	-0.072073
O5	O	0.928618	0.033774	0.072226
O6	O	0.807373	0.103302	0.072194
O7	O	1.035643	0.104427	0.072219
Cu8	Cu	0.920875	0.104226	0.085379
Cu9	Cu	0.929074	0.099544	-0.085226
O10	O	0.914398	0.173955	0.072187
C11	C	0.781645	0.099877	0.000061
C12	C	0.694655	0.095563	0.000052
C13	C	0.643898	0.137186	0.000041
C14	C	0.562161	0.133130	0.000054
C15	C	0.531183	0.087450	0.000072
C16	C	0.581946	0.045824	0.000086
C17	C	0.663681	0.049880	0.000079
C18	C	0.287793	0.070637	0.000100
C19	C	0.206051	0.066584	0.000104
C20	C	0.186272	0.153891	0.000075
C21	C	0.268009	0.157943	0.000063
C22	C	0.318765	0.116317	0.000081
N23	N	0.447635	0.083303	0.000083
N24	N	0.402311	0.120464	0.000076
C25	C	0.931792	0.013775	0.000099
C26	C	0.930912	-0.039919	0.000108
C27	C	0.929157	-0.375034	-0.078571
C28	C	0.925816	-0.576837	-0.078587
O29	O	0.928564	-0.604763	-0.145465
N30	N	0.921622	-0.599915	0.000048
C31	C	0.918257	-0.572538	0.078693
O32	O	0.914605	-0.596796	0.145577
C33	C	0.921592	-0.370735	0.078708
C34	C	0.925795	-0.347661	0.000068
C35	C	0.933358	-0.351960	-0.157206
C36	C	0.934197	-0.301512	-0.157201
C37	C	0.930835	-0.274139	-0.078562
C38	C	0.926634	-0.297213	0.000072
C39	C	0.918222	-0.343359	0.157352
C40	C	0.919055	-0.292905	0.157349
C41	C	0.923257	-0.269831	0.078708
C42	C	0.924112	-0.219393	0.078716
N43	N	0.928306	-0.196315	0.000080
C44	C	0.931668	-0.223688	-0.078559
C45	C	0.916508	-0.678487	0.078680
C46	C	0.915676	-0.728937	0.078677
C47	C	0.923233	-0.733234	-0.078604
C48	C	0.924071	-0.682782	-0.078600
C49	C	0.920702	-0.655410	0.000045
C50	C	0.933431	-0.117745	-0.078543
C51	C	0.934273	-0.067293	-0.078531
C52	C	0.926712	-0.063001	0.078749
C53	C	0.925874	-0.113449	0.078738
C54	C	0.929231	-0.140819	0.000085
O55	O	0.921357	-0.191436	0.145558
O56	O	0.935302	-0.199420	-0.145433
C57	C	0.928317	-0.425482	-0.078576
C58	C	0.924116	-0.448556	0.000058
C59	C	0.920754	-0.421183	0.078697
C60	C	0.923284	-0.499007	0.000055
C61	C	0.926645	-0.526380	-0.078584
C62	C	0.930840	-0.503302	-0.157220
C63	C	0.931679	-0.452855	-0.157215
C64	C	0.916560	-0.444260	0.157333
C65	C	0.915722	-0.494708	0.157321
C66	C	0.919084	-0.522081	0.078682
C67	C	1.068304	0.103893	0.000090
C68	C	1.155294	0.108207	0.000093
C69	C	0.918157	0.189996	0.000052
C70	C	0.919037	0.243689	0.000038
N71	N	0.915114	0.107518	0.205373
N72	N	0.934841	0.096248	-0.205220
C73	C	0.966640	0.077992	0.250781
C74	C	0.962291	0.080487	0.341587
C75	C	0.906417	0.112511	0.386985
C76	C	0.854885	0.142037	0.341571
C77	C	0.859232	0.139540	0.250765
C78	C	0.887656	0.123278	0.658561
C79	C	0.883315	0.125774	0.749373
C80	C	0.990720	0.064223	0.749383
C81	C	0.995065	0.061730	0.658576
C82	C	0.943530	0.091255	0.613170
N83	N	0.901971	0.115062	0.479804
N84	N	0.947972	0.088701	0.520353
H85	H	0.329109	0.036742	0.000116
H86	H	0.937616	-0.282729	-0.221238
H87	H	0.914802	-0.362137	0.221390
H88	H	0.705007	0.015986	0.000087
C89	C	0.140700	0.229094	0.074210
C90	C	0.130482	0.199646	0.000062
H91	H	0.106260	0.257343	0.074199
H92	H	0.128953	0.211874	0.124513
H93	H	0.193815	0.238041	0.074194
H94	H	0.077368	0.190696	0.000081
H95	H	0.142223	0.216869	-0.050254
H96	H	1.032676	0.040184	0.786361
H97	H	0.925971	-0.755529	-0.142635
H98	H	0.293225	0.195140	0.000038
C99	C	0.233809	-0.019312	0.000142
C100	C	0.171999	0.016369	0.000126
H101	H	0.212783	-0.050310	0.000158
H102	H	0.267689	-0.017298	-0.050161
H103	H	0.262864	-0.014531	0.050452
H104	H	0.142947	0.011589	-0.050188
H105	H	0.138105	0.014352	0.050435
H106	H	0.556717	0.008630	0.000113
C107	C	0.911477	-0.293729	0.312816
C108	C	0.915345	-0.262818	0.243800
H109	H	0.909190	-0.275154	0.366185
H110	H	0.865595	-0.311574	0.309525
H111	H	0.957033	-0.315419	0.309549
H112	H	0.869786	-0.241131	0.247063
H113	H	0.961232	-0.244965	0.247092
H114	H	0.669113	0.174384	0.000026
H115	H	0.937698	-0.048508	-0.142573
C116	C	0.940968	-0.116909	-0.234008
C117	C	0.937109	-0.147825	-0.164999
H118	H	0.943241	-0.135480	-0.287381
H119	H	0.895426	-0.095217	-0.230726
H120	H	0.986865	-0.099069	-0.230726
H121	H	0.891209	-0.165663	-0.168277
H122	H	0.982656	-0.169526	-0.168283
C123	C	1.100786	0.001135	0.667712
C124	C	1.056478	0.026526	0.608678
H125	H	1.138697	-0.020600	0.636905
H126	H	1.127029	0.023319	0.703112
H127	H	1.066678	-0.016541	0.703145
H128	H	1.090586	0.044205	0.573249
H129	H	1.030234	0.004340	0.573263
C130	C	0.781063	0.184372	0.667685
C131	C	0.831015	0.155736	0.608658
H132	H	0.746098	0.204414	0.636872
H133	H	0.751432	0.164136	0.703115
H134	H	0.811784	0.203995	0.703089
H135	H	0.800295	0.136110	0.573258
H136	H	0.860649	0.175974	0.573213
H137	H	0.936093	-0.374242	-0.221246
H138	H	0.520837	0.167025	0.000044
H139	H	0.837813	0.151853	0.786331
C140	C	0.800538	0.173200	0.480762
C141	C	0.793469	0.177240	0.391469
H142	H	0.762625	0.194936	0.511564
H143	H	0.791714	0.141037	0.495658
H144	H	0.852066	0.180896	0.495621
H145	H	0.741942	0.169540	0.376609
H146	H	0.802287	0.209410	0.376567
H147	H	0.817272	0.163582	0.213795
H148	H	0.912266	-0.747721	0.142714
C149	C	0.931456	-0.692108	-0.234062
C150	C	0.928681	-0.657421	-0.165043
H151	H	0.934295	-0.676452	-0.287429
H152	H	0.976692	-0.713614	-0.230783
H153	H	0.885253	-0.709776	-0.230785
H154	H	0.974887	-0.639755	-0.168316
H155	H	0.883440	-0.635906	-0.168323
H156	H	0.913768	-0.656205	0.142726
C157	C	0.918487	-0.104132	0.234203
C158	C	0.921258	-0.138815	0.165180
H159	H	0.915627	-0.119790	0.287568
H160	H	0.964691	-0.086472	0.230941
H161	H	0.873253	-0.082616	0.230918
H162	H	0.966495	-0.160329	0.168461
H163	H	0.875049	-0.156483	0.168444
C164	C	0.924628	0.016248	0.148574
C165	C	0.923011	-0.032905	0.165187
H166	H	0.922334	0.034828	0.201938
H167	H	0.972037	0.021706	0.116280
H168	H	0.880599	0.025547	0.116247
H169	H	0.967043	-0.042205	0.197508
H170	H	0.875597	-0.038366	0.197494
H171	H	0.935101	-0.434072	-0.221252
C172	C	0.841608	-0.503723	0.291364
C173	C	0.911095	-0.520064	0.243775
H174	H	0.838745	-0.519377	0.344733
H175	H	0.841638	-0.469763	0.302604
H176	H	0.797315	-0.510956	0.259031
H177	H	0.955389	-0.512829	0.276106
H178	H	0.911073	-0.554032	0.232537
C179	C	0.866874	-0.559700	-0.248449
C180	C	0.934527	-0.533400	-0.243659
H181	H	0.869145	-0.578281	-0.301811
H182	H	0.864263	-0.580654	-0.201612
H183	H	0.821333	-0.537999	-0.245186
H184	H	0.980068	-0.555102	-0.246915
H185	H	0.937145	-0.512444	-0.290509
C186	C	0.845725	-0.382203	0.248599
C187	C	0.912869	-0.414178	0.243782
H188	H	0.843449	-0.363636	0.301976
H189	H	0.848349	-0.361236	0.201782
H190	H	0.799840	-0.400053	0.245319
H191	H	0.958755	-0.396328	0.247055
H192	H	0.910252	-0.435148	0.290612
C193	C	1.008047	-0.000586	0.369564
C194	C	1.018943	0.048035	0.391493
H195	H	1.043030	-0.020620	0.400368
H196	H	0.955109	-0.007466	0.384467
H197	H	1.018628	-0.006647	0.308984
H198	H	1.008356	0.054097	0.452072
H199	H	1.071893	0.054919	0.376595
H200	H	1.012142	0.051918	0.213824
