data_functionalizedCrystal
_audit_creation_method	'MofGen! by Chris Wilmer'
_symmetry_space_group_name_H-M	'P1'
_symmetry_Int_Tables_number	1
_symmetry_cell_setting	triclinic
loop_
_symmetry_equiv_pos_as_xyz
  x,y,z
_cell_length_a	16.109301
_cell_length_b	12.811415
_cell_length_c	14.586319
_cell_angle_alpha	84.565349
_cell_angle_beta	89.999213
_cell_angle_gamma	83.754001
loop_
_atom_site_label
_atom_site_type_symbol
_atom_site_fract_x
_atom_site_fract_y
_atom_site_fract_z
O1	O	1.103627	0.134912	-0.087397
O2	O	0.861626	0.151702	-0.088808
O3	O	0.988715	-0.009488	-0.075395
O4	O	0.976539	0.296102	-0.100810
O5	O	0.988706	-0.009490	0.077086
O6	O	0.861618	0.151699	0.063673
O7	O	1.103618	0.134910	0.065084
Cu8	Cu	0.982617	0.143304	0.078301
Cu9	Cu	0.982627	0.143307	-0.102025
O10	O	0.976530	0.296099	0.051671
C11	C	0.830645	0.151021	-0.012512
C12	C	0.738342	0.148982	-0.012348
C13	C	0.988028	-0.048593	0.004096
C14	C	0.985984	-0.165110	0.013781
C15	C	0.516404	0.239887	-0.019898
C16	C	0.429676	0.237963	-0.019732
C17	C	0.448847	0.046717	-0.003830
C18	C	0.535573	0.048642	-0.003990
C19	C	0.569349	0.145230	-0.012029
C20	C	0.395895	0.141381	-0.011703
C21	C	0.301862	0.139294	-0.011523
C22	C	0.663388	0.147318	-0.012207
C23	C	0.982139	-0.384045	-0.134275
C24	C	0.980219	-0.493523	-0.125180
C25	C	0.980218	-0.493547	0.041065
C26	C	0.982138	-0.384068	0.031970
C27	C	0.983100	-0.329321	-0.055703
C28	C	0.985026	-0.219842	-0.064797
C29	C	0.985019	-0.219866	0.101447
C30	C	0.983099	-0.329345	0.110542
C31	C	1.134600	0.135591	-0.011214
C32	C	1.226902	0.137630	-0.011384
C33	C	0.977217	0.335204	-0.027822
C34	C	0.979260	0.451722	-0.037513
N35	N	0.982616	0.143302	0.205133
N36	N	0.982635	0.143302	-0.228856
C37	C	1.038909	0.071951	0.446077
C38	C	1.038911	0.071948	0.542058
C39	C	0.926336	0.214656	0.530193
C40	C	0.926330	0.214652	0.434214
C41	C	0.982621	0.143301	0.392158
C42	C	0.982629	0.143302	0.584119
C43	C	0.982632	0.143300	0.688186
C44	C	0.982618	0.143302	0.288084
H45	H	0.543900	0.318535	-0.026437
H46	H	0.982313	-0.373934	0.181923
H47	H	0.421337	-0.031921	0.002720
H48	H	0.985805	-0.175299	0.165426
O49	O	1.093499	0.002472	0.405299
C50	C	1.079616	-0.101417	0.437447
H51	H	1.013047	-0.101921	0.463865
H52	H	1.088998	-0.154123	0.378732
H53	H	1.125577	-0.132216	0.495738
H54	H	1.084745	0.013848	0.585957
O55	O	0.986093	-0.166624	-0.149933
C56	C	1.059105	-0.115173	-0.159187
H57	H	1.108809	-0.156498	-0.108604
H58	H	1.083249	-0.117902	-0.232482
H59	H	1.044297	-0.029517	-0.143958
O60	O	0.983039	-0.331014	-0.219504
C61	C	0.981807	-0.402797	-0.286905
H62	H	0.954146	-0.476487	-0.256421
H63	H	0.942051	-0.364478	-0.348226
H64	H	1.048225	-0.425469	-0.310572
O65	O	0.979138	-0.546710	-0.201476
C66	C	0.906118	-0.598146	-0.202160
H67	H	0.856431	-0.556830	-0.158424
H68	H	0.881953	-0.595385	-0.275903
H69	H	0.920923	-0.683812	-0.172706
O70	O	0.378162	0.329844	-0.027499
C71	C	0.327437	0.334466	-0.106865
H72	H	0.322763	0.251156	-0.126262
H73	H	0.262395	0.373586	-0.092358
H74	H	0.356132	0.382392	-0.166152
H75	H	0.880506	0.272750	0.564444
H76	H	0.880490	0.272755	0.390309
H77	H	0.578684	-0.028443	0.002422
H78	H	0.979429	-0.538140	0.112444
