data_functionalizedCrystal
_audit_creation_method	'MofGen! by Chris Wilmer'
_symmetry_space_group_name_H-M	'P1'
_symmetry_Int_Tables_number	1
_symmetry_cell_setting	triclinic
loop_
_symmetry_equiv_pos_as_xyz
  x,y,z
_cell_length_a	16.109301
_cell_length_b	17.699083
_cell_length_c	15.186229
_cell_angle_alpha	89.995368
_cell_angle_beta	89.999362
_cell_angle_gamma	83.372248
loop_
_atom_site_label
_atom_site_type_symbol
_atom_site_fract_x
_atom_site_fract_y
_atom_site_fract_z
O1	O	1.102963	0.097285	-0.073175
O2	O	0.860880	0.109391	-0.073189
O3	O	0.988761	-0.006841	-0.073174
O4	O	0.975082	0.213517	-0.073190
O5	O	0.988753	-0.006843	0.073284
O6	O	0.860872	0.109390	0.073268
O7	O	1.102955	0.097283	0.073283
Zn8	Zn	0.981912	0.103336	0.096529
Zn9	Zn	0.981923	0.103338	-0.096435
O10	O	0.975074	0.213516	0.073267
C11	C	0.829902	0.108900	0.000038
C12	C	0.737609	0.107430	0.000033
C13	C	0.515224	0.172981	0.000038
C14	C	0.428506	0.171594	0.000044
C15	C	0.448618	0.033688	0.000050
C16	C	0.535334	0.035076	0.000051
C17	C	0.568635	0.104725	0.000040
C18	C	0.395200	0.101949	0.000046
C19	C	0.301177	0.100445	0.000052
C20	C	0.662664	0.106230	0.000036
C21	C	0.988267	-0.035040	0.000055
C22	C	0.986796	-0.119060	0.000055
C23	C	1.061860	-0.167574	0.000061
C24	C	1.060473	-0.246519	0.000053
C25	C	0.984022	-0.276949	0.000046
C26	C	0.908953	-0.228429	0.000038
C27	C	0.910341	-0.149485	0.000039
C28	C	0.903356	-0.546800	0.000030
C29	C	0.901974	-0.625750	0.000031
C30	C	1.053488	-0.643834	0.000044
C31	C	1.054876	-0.564890	0.000046
C32	C	0.979807	-0.516377	0.000033
C33	C	0.981312	-0.430776	0.000040
C34	C	0.982517	-0.362549	0.000045
C35	C	1.133933	0.097774	0.000054
C36	C	1.226226	0.099244	0.000053
C37	C	0.975568	0.241714	0.000037
C38	C	0.977039	0.325734	0.000031
N39	N	0.981910	0.103334	0.228221
N40	N	0.981931	0.103334	-0.228128
C41	C	1.038555	0.051884	0.453951
C42	C	1.038558	0.051882	0.546141
C43	C	0.925280	0.154787	0.546136
C44	C	0.925274	0.154785	0.453948
C45	C	0.981916	0.103334	0.407858
C46	C	0.981925	0.103334	0.592236
C47	C	0.981927	0.103333	0.692192
C48	C	0.981913	0.103334	0.307896
H49	H	0.578824	-0.020510	0.000055
C50	C	0.828779	-0.096899	-0.000103
C51	C	0.782734	-0.110655	-0.075446
C52	C	0.707588	-0.062234	-0.075606
H53	H	0.840436	-0.045499	-0.000149
H54	H	0.797372	-0.106132	0.050940
H55	H	0.814134	-0.101415	-0.126476
H56	H	0.771054	-0.162045	-0.075415
H57	H	0.676182	-0.071468	-0.024563
H58	H	0.719254	-0.010838	-0.075650
H59	H	0.676334	-0.071566	-0.126720
C60	C	0.370420	0.245645	-0.000102
C61	C	0.320033	0.248869	-0.075438
C62	C	0.266507	0.317071	-0.075596
H63	H	0.402571	0.287383	-0.000153
H64	H	0.336125	0.247978	0.050946
H65	H	0.354324	0.246543	-0.126472
H66	H	0.287864	0.207147	-0.075403
H67	H	0.232213	0.319404	-0.024549
H68	H	0.298666	0.358804	-0.075646
H69	H	0.232309	0.319265	-0.126707
C70	C	0.863885	0.210618	0.596338
C71	C	0.876028	0.199625	0.686939
C72	C	0.819495	0.251052	0.733210
H73	H	0.808378	0.202435	0.581345
H74	H	0.872819	0.261149	0.581271
H75	H	0.867087	0.149106	0.702000
H76	H	0.931524	0.207814	0.701959
H77	H	0.828428	0.301583	0.718143
H78	H	0.763991	0.242865	0.718209
H79	H	0.827731	0.243605	0.794687
C80	C	0.863912	0.210689	0.403786
C81	C	0.908102	0.257016	0.350834
C82	C	0.851605	0.308513	0.304604
H83	H	0.830160	0.241409	0.444338
H84	H	0.829369	0.183473	0.367779
H85	H	0.942630	0.284230	0.386838
H86	H	0.941851	0.226317	0.310266
H87	H	0.817062	0.281296	0.268597
H88	H	0.817856	0.339227	0.345162
H89	H	0.881580	0.339947	0.268665
H90	H	1.084675	0.009988	0.416427
H91	H	0.839715	-0.650523	0.000027
C92	C	0.551264	0.248653	-0.000102
C93	C	0.524084	0.289928	-0.075439
C94	C	0.557255	0.359646	-0.075589
H95	H	0.610556	0.239816	-0.000148
H96	H	0.532896	0.276794	0.050945
H97	H	0.542457	0.261794	-0.126473
H98	H	0.464797	0.298785	-0.075409
H99	H	0.538886	0.387786	-0.024542
H100	H	0.616546	0.350801	-0.075633
H101	H	0.538812	0.387662	-0.126700
C102	C	0.412299	-0.041851	0.000009
C103	C	0.324924	-0.028460	-0.000018
C104	C	0.291442	-0.098030	-0.000071
H105	H	0.430548	-0.070016	0.051069
H106	H	0.430598	-0.069959	-0.051084
H107	H	0.306634	-0.000364	0.051069
H108	H	0.306652	-0.000307	-0.051074
H109	H	0.309740	-0.126137	-0.051163
H110	H	0.309697	-0.126189	0.050990
H111	H	0.232155	-0.088953	-0.000097
C112	C	1.144781	-0.134393	0.000113
C113	C	1.129934	-0.054873	0.000136
C114	C	1.206303	-0.024284	0.000192
H115	H	1.175747	-0.150960	-0.050945
H116	H	1.175687	-0.151009	0.051207
H117	H	1.099042	-0.038264	-0.050953
H118	H	1.098981	-0.038286	0.051191
H119	H	1.237209	-0.040900	0.051287
H120	H	1.237264	-0.040856	-0.050866
H121	H	1.196240	0.029673	0.000217
H122	H	1.121597	-0.286017	0.000060
H123	H	1.084677	0.009985	0.583667
H124	H	1.117130	-0.540119	0.000056
H125	H	1.114613	-0.683343	0.000050
C126	C	0.821765	-0.494262	0.000075
C127	C	0.754520	-0.537811	0.000098
C128	C	0.679343	-0.489435	0.000155
H129	H	0.819034	-0.463067	-0.050983
H130	H	0.819110	-0.463106	0.051169
H131	H	0.757174	-0.568954	-0.050991
H132	H	0.757224	-0.569004	0.051152
H133	H	0.676688	-0.458279	0.051249
H134	H	0.676620	-0.458243	-0.050904
H135	H	0.633708	-0.518976	0.000179
H136	H	0.846705	-0.253211	0.000026
