data_functionalizedCrystal
_audit_creation_method	'MofGen! by Chris Wilmer'
_symmetry_space_group_name_H-M	'P1'
_symmetry_Int_Tables_number	1
_symmetry_cell_setting	triclinic
loop_
_symmetry_equiv_pos_as_xyz
  x,y,z
_cell_length_a	12.827893
_cell_length_b	18.101397
_cell_length_c	18.101389
_cell_angle_alpha	89.978953
_cell_angle_beta	89.983171
_cell_angle_gamma	90.020627
loop_
_atom_site_label
_atom_site_type_symbol
_atom_site_fract_x
_atom_site_fract_y
_atom_site_fract_z
Zn1	Zn	1.597609	-0.294904	-0.418677
Zn2	Zn	2.097609	0.205096	0.081323
Zn3	Zn	1.597495	-0.418730	-0.294830
Zn4	Zn	2.097495	0.081270	0.205170
Zn5	Zn	1.422858	-0.294907	-0.294854
Zn6	Zn	1.922858	0.205093	0.205146
Zn7	Zn	1.422821	-0.418709	-0.418635
Zn8	Zn	1.922821	0.081291	0.081365
O9	O	1.510196	-0.356812	-0.356749
O10	O	2.010196	0.143188	0.143251
O11	O	1.743830	-0.311337	-0.402256
O12	O	2.243830	0.188663	0.097744
O13	O	1.574297	-0.402314	-0.191200
O14	O	2.074297	0.097686	0.308800
O15	O	1.446102	-0.191274	-0.311308
O16	O	1.946102	0.308726	0.188692
O17	O	1.743746	-0.402312	-0.311266
O18	O	2.243746	0.097688	0.188734
O19	O	1.574492	-0.191272	-0.402280
O20	O	2.074492	0.308728	0.097720
O21	O	1.445991	-0.311342	-0.191218
O22	O	1.945991	0.188658	0.308782
O23	O	1.276617	-0.311322	-0.311267
O24	O	1.776617	0.188678	0.188733
O25	O	1.446039	-0.402276	-0.522273
O26	O	1.946039	0.097724	-0.022273
O27	O	1.276590	-0.402278	-0.402207
O28	O	1.776590	0.097722	0.097793
O29	O	1.574456	-0.311317	-0.522304
O30	O	2.074456	0.188683	-0.022304
O31	O	1.574261	-0.522360	-0.311225
O32	O	2.074261	-0.022360	0.188775
O33	O	1.445928	-0.522344	-0.402184
O34	O	1.945928	-0.022344	0.097816
C35	C	1.238686	-0.356799	-0.356736
C36	C	1.738686	0.143201	0.143264
C37	C	1.122533	-0.356811	-0.356747
C38	C	1.622533	0.143189	0.143253
C39	C	1.510106	-0.549223	-0.356713
C40	C	2.010106	-0.049223	0.143287
C41	C	1.510164	-0.631537	-0.356723
C42	C	2.010164	-0.131537	0.143277
C43	C	1.070734	-0.311743	-0.311827
C44	C	1.570734	0.188257	0.188173
C45	C	0.950684	-0.311754	-0.311838
C46	C	1.450684	0.188246	0.188162
C47	C	1.510297	-0.930628	-0.356790
C48	C	2.010297	-0.430628	0.143210
C49	C	1.590815	-0.899282	-0.299408
C50	C	2.090815	-0.399282	0.200592
C51	C	1.591094	-0.813663	-0.299557
C52	C	2.091094	-0.313663	0.200443
C53	C	1.510231	-0.782245	-0.356756
C54	C	2.010231	-0.282245	0.143244
C55	C	1.540084	-0.813266	-0.434816
C56	C	2.040084	-0.313266	0.065184
C57	C	1.540707	-0.898910	-0.434503
C58	C	2.040707	-0.398910	0.065497
C59	C	1.399711	-0.899134	-0.336788
C60	C	1.899711	-0.399134	0.163212
C61	C	1.400257	-0.813484	-0.335045
C62	C	1.900257	-0.313484	0.164955
C63	C	1.510192	-0.698386	-0.356741
C64	C	2.010192	-0.198386	0.143259
C65	C	1.510339	-1.014487	-0.356810
C66	C	2.010339	-0.514487	0.143190
C67	C	1.782766	-0.356827	-0.356763
C68	C	2.282766	0.143173	0.143237
C69	C	1.898919	-0.356833	-0.356769
C70	C	2.398919	0.143167	0.143231
C71	C	1.510256	-0.356794	-0.549911
C72	C	2.010256	0.143206	-0.049911
C73	C	1.510282	-0.356786	-0.632225
C74	C	2.010282	0.143214	-0.132225
C75	C	1.510314	-0.163650	-0.356801
C76	C	2.010314	0.336350	0.143199
C77	C	1.510364	-0.081336	-0.356824
C78	C	2.010364	0.418664	0.143176
C79	C	1.510343	-0.356647	-0.931316
C80	C	2.010343	0.143353	-0.431316
C81	C	1.429268	-0.413694	-0.899971
C82	C	1.929268	0.086306	-0.399971
C83	C	1.429487	-0.413958	-0.814353
C84	C	1.929487	0.086042	-0.314353
C85	C	1.510312	-0.356716	-0.782934
C86	C	2.010312	0.143284	-0.282934
C87	C	1.620418	-0.377900	-0.814028
C88	C	2.120418	0.122100	-0.314028
C89	C	1.619967	-0.378274	-0.899673
C90	C	2.119967	0.121726	-0.399673
C91	C	1.482268	-0.278289	-0.899747
C92	C	1.982268	0.221711	-0.399747
C93	C	1.479818	-0.278742	-0.814096
C94	C	1.979818	0.221258	-0.314096
C95	C	1.510301	-0.356753	-0.699074
C96	C	2.010301	0.143247	-0.199074
C97	C	1.510361	-0.356611	-1.015176
C98	C	2.010361	0.143389	-0.515176
C99	C	1.510196	-0.356778	-0.164338
C100	C	2.010196	0.143222	0.335662
C101	C	1.510372	-0.356577	-0.082025
C102	C	2.010372	0.143423	0.417975
H103	H	1.115264	-0.273153	-0.273357
H104	H	1.615264	0.226847	0.226643
Cl105	Cl	1.354709	-0.254079	-0.782728
Cl106	Cl	1.854709	0.245921	-0.282728
Cl107	Cl	1.365494	-0.782187	-0.246356
Cl108	Cl	1.865494	-0.282187	0.253644
Cl109	Cl	1.303430	-0.393489	-0.781890
Cl110	Cl	1.803430	0.106511	-0.281890
H111	H	1.682422	-0.338527	-0.920410
H112	H	2.182422	0.161473	-0.420410
H113	H	1.337038	-0.792105	-0.373779
H114	H	1.837038	-0.292105	0.126221
H115	H	1.078003	-0.395405	-0.395212
H116	H	1.578003	0.104595	0.104788
Cl117	Cl	1.307087	-0.930435	-0.401311
Cl118	Cl	1.807087	-0.430435	0.098689
Cl119	Cl	1.716193	-0.315767	-0.782613
Cl120	Cl	2.216193	0.184233	-0.282613
Cl121	Cl	1.716599	-0.932425	-0.319604
Cl122	Cl	2.216599	-0.432425	0.180396
Cl123	Cl	1.717565	-0.781943	-0.319994
Cl124	Cl	2.217565	-0.281943	0.180006
H125	H	1.621540	-0.918832	-0.451447
H126	H	2.121540	-0.418832	0.048553
H127	H	1.572417	-0.792692	-0.241676
H128	H	2.072417	-0.292692	0.258324
Cl129	Cl	1.302823	-0.393435	-0.931759
Cl130	Cl	1.802823	0.106565	-0.431759
H131	H	1.447621	-0.471420	-0.921493
H132	H	1.947621	0.028580	-0.421493
Cl133	Cl	1.458167	-0.503622	-0.782718
Cl134	Cl	1.958167	-0.003622	-0.282718
H135	H	1.484630	-0.919645	-0.478731
H136	H	1.984630	-0.419645	0.021269
H137	H	0.906138	-0.273167	-0.273383
H138	H	1.406138	0.226833	0.226617
Cl139	Cl	0.967681	-0.416405	-0.416155
Cl140	Cl	1.467681	0.083595	0.083845
H141	H	1.572364	-0.919915	-0.241354
H142	H	2.072364	-0.419915	0.258646
Cl143	Cl	1.360456	-0.248492	-0.933082
Cl144	Cl	1.860456	0.251508	-0.433082
H145	H	1.643765	-0.435554	-0.919652
H146	H	2.143765	0.064446	-0.419652
H147	H	1.483232	-0.792914	-0.478720
H148	H	1.983232	-0.292914	0.021280
H149	H	1.620012	-0.791761	-0.452046
H150	H	2.120012	-0.291761	0.047954
Cl151	Cl	1.357779	-0.932561	-0.250430
Cl152	Cl	1.857779	-0.432561	0.249570
Cl153	Cl	1.657800	-0.465396	-0.780919
Cl154	Cl	2.157800	0.034604	-0.280919
H155	H	1.534558	-0.233983	-0.792709
H156	H	2.034558	0.266017	-0.292709
Cl157	Cl	1.573436	-0.212668	-0.931045
Cl158	Cl	2.073436	0.287332	-0.431045
