data_functionalizedCrystal
_audit_creation_method	'MofGen! by Chris Wilmer'
_symmetry_space_group_name_H-M	'P1'
_symmetry_Int_Tables_number	1
_symmetry_cell_setting	triclinic
loop_
_symmetry_equiv_pos_as_xyz
  x,y,z
_cell_length_a	15.995300
_cell_length_b	16.098524
_cell_length_c	17.019448
_cell_angle_alpha	89.196975
_cell_angle_beta	83.437365
_cell_angle_gamma	93.066695
loop_
_atom_site_label
_atom_site_type_symbol
_atom_site_fract_x
_atom_site_fract_y
_atom_site_fract_z
O1	O	1.113878	0.061817	0.104297
O2	O	0.870039	0.060913	0.116853
O3	O	0.999146	0.069558	-0.003883
O4	O	0.984771	0.053172	0.225033
O5	O	0.992479	-0.068506	-0.010162
O6	O	0.863372	-0.077152	0.110574
O7	O	1.107211	-0.076247	0.098018
Zn8	Zn	0.984233	-0.098620	0.103299
Zn9	Zn	0.993017	0.083285	0.111572
O10	O	0.978104	-0.084892	0.218754
C11	C	0.835513	-0.008084	0.113202
C12	C	0.742567	-0.007976	0.111666
N13	N	0.978244	-0.222766	0.097653
C14	C	0.572397	-0.007766	0.108831
C15	C	0.524538	-0.013922	0.194798
C16	C	0.427872	-0.013494	0.193244
C17	C	0.404853	-0.007561	0.106041
C18	C	0.449981	0.074178	0.066968
C19	C	0.546608	0.074086	0.069146
C20	C	0.539311	-0.082833	0.060733
C21	C	0.442316	-0.083866	0.060694
C22	C	0.310166	-0.007442	0.104459
C23	C	0.667086	-0.007880	0.110410
C24	C	1.026711	-0.269620	0.143386
C25	C	1.022533	-0.356526	0.139431
C26	C	0.969883	-0.396577	0.089747
C27	C	0.921414	-0.349716	0.044009
C28	C	0.925597	-0.262811	0.047960
C29	C	0.954727	-0.658803	0.075425
C30	C	0.950545	-0.745715	0.071479
C31	C	1.051667	-0.752518	0.166901
C32	C	1.055841	-0.665611	0.170851
C33	C	1.007376	-0.618758	0.125110
C34	C	0.965609	-0.485409	0.085705
C35	C	1.011655	-0.529927	0.129149
C36	C	1.141738	-0.007249	0.101670
C37	C	1.234684	-0.007352	0.103206
C38	C	0.995396	0.002624	-0.036315
C39	C	0.994144	0.008877	-0.123598
N40	N	0.999013	0.207431	0.117212
C41	C	0.987325	0.048108	-0.617087
C42	C	0.988493	0.042215	-0.535075
C43	C	0.985436	-0.035990	-0.497507
C44	C	0.981219	-0.108307	-0.541957
C45	C	0.980058	-0.102414	-0.623968
C46	C	0.988766	-0.057547	-0.250059
C47	C	0.989925	-0.063435	-0.168041
C48	C	0.997200	0.087088	-0.161165
C49	C	0.996033	0.092974	-0.243178
C50	C	0.991822	0.020657	-0.287621
C51	C	0.986626	-0.042014	-0.413677
C52	C	0.990637	0.026682	-0.371450
C53	C	0.981854	-0.017957	0.251186
C54	C	0.983107	-0.024204	0.338470
H55	H	0.396532	-0.072285	0.224192
Cl56	Cl	0.991162	0.146428	-0.664306
H57	H	0.436305	0.081469	0.003027
Cl58	Cl	0.999879	0.191293	-0.290400
Cl59	Cl	0.977381	-0.206623	-0.494729
H60	H	0.878549	-0.382332	0.003551
Cl61	Cl	1.077845	-0.479576	0.191604
H62	H	1.098718	-0.633008	0.211307
Cl63	Cl	1.112593	-0.811423	0.224398
H64	H	0.907667	-0.778321	0.031021
H65	H	0.579332	0.081967	0.006173
H66	H	0.412023	-0.144308	0.089193
Cl67	Cl	0.974759	-0.193325	-0.679841
Cl68	Cl	1.083465	-0.415425	0.196928
Cl69	Cl	0.549177	-0.104494	0.244408
H70	H	0.424300	0.130863	0.098882
Cl71	Cl	0.566312	-0.178070	0.100241
H72	H	0.915263	-0.620666	0.038179
Cl73	Cl	0.418709	-0.084542	-0.037799
Cl74	Cl	0.588785	-0.077010	-0.037171
H75	H	0.546711	0.039984	0.231393
Cl76	Cl	1.002513	0.177995	-0.105292
Cl77	Cl	0.982779	-0.140326	-0.366442
H78	H	0.886129	-0.224664	0.010720
H79	H	0.991929	0.101100	-0.498892
Cl80	Cl	0.899414	-0.535767	0.023253
Cl81	Cl	1.092903	-0.219279	0.205850
H82	H	0.987411	-0.127122	-0.137454
H83	H	0.985338	-0.116434	-0.286235
Cl84	Cl	0.994486	0.124994	-0.418680
Cl85	Cl	0.388866	0.070414	0.248744
H86	H	0.567637	0.130927	0.102570
