data_functionalizedCrystal
_audit_creation_method	'MofGen! by Chris Wilmer'
_symmetry_space_group_name_H-M	'P1'
_symmetry_Int_Tables_number	1
_symmetry_cell_setting	triclinic
loop_
_symmetry_equiv_pos_as_xyz
  x,y,z
_cell_length_a	16.992694
_cell_length_b	16.974885
_cell_length_c	16.053802
_cell_angle_alpha	96.211606
_cell_angle_beta	87.249047
_cell_angle_gamma	87.024242
loop_
_atom_site_label
_atom_site_type_symbol
_atom_site_fract_x
_atom_site_fract_y
_atom_site_fract_z
O1	O	1.042985	0.165033	-0.058179
O2	O	1.376318	0.498366	0.275155
O3	O	1.709652	0.831699	0.608488
O4	O	0.814709	0.163187	-0.058328
O5	O	1.148042	0.496520	0.275005
O6	O	1.481375	0.829853	0.608339
O7	O	0.935581	0.049061	-0.066017
O8	O	1.268915	0.382394	0.267316
O9	O	1.602248	0.715728	0.600649
O10	O	0.922112	0.279158	-0.050489
O11	O	1.255446	0.612491	0.282844
O12	O	1.588779	0.945825	0.616177
O13	O	0.928928	0.055315	0.073263
O14	O	1.262262	0.388649	0.406596
O15	O	1.595595	0.721982	0.739930
O16	O	0.808056	0.169441	0.080952
O17	O	1.141389	0.502774	0.414286
O18	O	1.474722	0.836107	0.747619
O19	O	1.036332	0.171287	0.081102
O20	O	1.369665	0.504620	0.414435
O21	O	1.702998	0.837953	0.747768
Zn22	Zn	0.921137	0.171357	0.103141
Zn23	Zn	1.254471	0.504690	0.436474
Zn24	Zn	1.587804	0.838023	0.769808
Zn25	Zn	0.929903	0.163117	-0.080367
Zn26	Zn	1.263236	0.496450	0.252966
Zn27	Zn	1.596570	0.829783	0.586300
O28	O	0.915459	0.285412	0.088791
O29	O	1.248792	0.618745	0.422124
O30	O	1.582126	0.952079	0.755458
C31	C	0.782180	0.163940	0.011149
C32	C	1.115513	0.497274	0.344482
C33	C	1.448847	0.830607	0.677816
C34	C	0.695167	0.156859	0.010661
C35	C	1.028500	0.490192	0.343995
C36	C	1.361833	0.823526	0.677328
C37	C	0.644633	0.225181	0.015273
C38	C	0.977966	0.558514	0.348606
C39	C	1.311299	0.891847	0.681939
C40	C	0.562874	0.218523	0.014835
C41	C	0.896207	0.551856	0.348168
C42	C	1.229541	0.885190	0.681502
C43	C	0.531651	0.143543	0.009780
C44	C	0.864985	0.476876	0.343113
C45	C	1.198318	0.810209	0.676447
C46	C	0.582192	0.075216	0.005171
C47	C	0.915525	0.408549	0.338504
C48	C	1.248858	0.741883	0.671837
C49	C	0.663948	0.081874	0.005615
C50	C	0.997282	0.415208	0.338948
C51	C	1.330615	0.748541	0.672281
C52	C	0.288171	0.115946	0.007940
C53	C	0.621505	0.449279	0.341273
C54	C	0.954838	0.782612	0.674606
C55	C	0.206408	0.109292	0.007494
C56	C	0.539741	0.442626	0.340827
C57	C	0.873075	0.775959	0.674160
C58	C	0.187096	0.252600	0.017160
C59	C	0.520429	0.585934	0.350493
C60	C	0.853763	0.919267	0.683826
C61	C	0.268855	0.259252	0.017598
C62	C	0.602189	0.592585	0.350931
C63	C	0.935522	0.925919	0.684265
C64	C	0.319388	0.190925	0.012993
C65	C	0.652722	0.524259	0.346327
C66	C	0.986055	0.857592	0.679660
N67	N	0.448081	0.136736	0.009330
N68	N	0.781415	0.470069	0.342663
N69	N	1.114748	0.803403	0.675996
N70	N	0.402956	0.197733	0.013450
N71	N	0.736290	0.531067	0.346783
N72	N	1.069623	0.864400	0.680116
C73	C	0.931866	0.022610	0.001625
C74	C	1.265199	0.355943	0.334958
C75	C	1.598533	0.689276	0.668292
C76	C	0.930698	-0.065525	-0.004329
C77	C	1.264031	0.267808	0.329005
C78	C	1.597365	0.601142	0.662338
C79	C	0.926521	-0.103529	0.068792
C80	C	1.259854	0.229804	0.402125
C81	C	1.593188	0.563138	0.735459
C82	C	0.925429	-0.186342	0.063191
C83	C	1.258762	0.146992	0.396524
C84	C	1.592096	0.480325	0.729857
C85	C	0.928508	-0.231149	-0.015533
C86	C	1.261842	0.102185	0.317801
C87	C	1.595175	0.435518	0.651134
C88	C	0.932688	-0.193139	-0.088659
C89	C	1.266021	0.140194	0.244674
C90	C	1.599355	0.473528	0.578008
C91	C	0.933786	-0.110328	-0.083057
C92	C	1.267119	0.223005	0.250277
C93	C	1.600452	0.556338	0.583610
C94	C	0.925620	-0.479182	-0.040429
C95	C	1.258953	-0.145848	0.292905
C96	C	1.592287	0.187485	0.626238
C97	C	0.924520	-0.561998	-0.046026
C98	C	1.257853	-0.228665	0.287308
C99	C	1.591186	0.104669	0.620641
C100	C	0.917262	-0.555195	0.105825
C101	C	1.250596	-0.221862	0.439158
C102	C	1.583929	0.111472	0.772491
C103	C	0.918355	-0.472383	0.111420
C104	C	1.251689	-0.139049	0.444753
C105	C	1.585022	0.194284	0.778087
C106	C	0.922539	-0.434381	0.038294
C107	C	1.255872	-0.101047	0.371627
C108	C	1.589206	0.232286	0.704960
N109	N	0.927390	-0.315796	-0.021260
N110	N	1.260723	0.017537	0.312073
N111	N	1.594057	0.350870	0.645407
N112	N	0.923663	-0.349735	0.044022
N113	N	1.256997	-0.016401	0.377355
N114	N	1.590330	0.316932	0.710689
C115	C	1.068861	0.170533	0.011623
C116	C	1.402194	0.503866	0.344956
C117	C	1.735527	0.837200	0.678290
C118	C	1.155874	0.177614	0.012105
C119	C	1.489208	0.510947	0.345438
C120	C	1.822541	0.844281	0.678772
C121	C	0.919175	0.311863	0.021147
C122	C	1.252508	0.645197	0.354480
C123	C	1.585841	0.978530	0.687814
C124	C	0.920343	0.399998	0.027095
C125	C	1.253676	0.733331	0.360429
C126	C	1.587009	1.066665	0.693762
N127	N	0.915161	0.176980	0.228380
N128	N	1.248494	0.510314	0.561713
N129	N	1.581827	0.843647	0.895047
N130	N	0.935886	0.157487	-0.205607
N131	N	1.269219	0.490820	0.127727
N132	N	1.602553	0.824154	0.461060
C133	C	0.966611	0.128439	0.268803
C134	C	1.299944	0.461773	0.602137
C135	C	1.633278	0.795106	0.935470
C136	C	0.962437	0.132381	0.356476
C137	C	1.295771	0.465714	0.689809
C138	C	1.629104	0.799048	1.023142
C139	C	0.906817	0.184868	0.403723
C140	C	1.240150	0.518202	0.737057
C141	C	1.573484	0.851535	1.070390
C142	C	0.855362	0.233411	0.363294
C143	C	1.188695	0.566744	0.696627
C144	C	1.522028	0.900078	1.029961
C145	C	0.859532	0.229465	0.275623
C146	C	1.192865	0.562798	0.608956
C147	C	1.526198	0.896132	0.942290
C148	C	0.888601	0.202084	0.666293
C149	C	1.221934	0.535417	0.999626
C150	C	1.555267	0.868750	1.332960
C151	C	0.884436	0.206028	0.753970
C152	C	1.217769	0.539361	1.087303
C153	C	1.551102	0.872695	1.420637
C154	C	0.991511	0.104996	0.747146
C155	C	1.324845	0.438330	1.080479
C156	C	1.658178	0.771663	1.413812
C157	C	0.995680	0.101058	0.659473
C158	C	1.329013	0.434391	0.992807
C159	C	1.662346	0.767725	1.326140
C160	C	0.944222	0.149598	0.619051
C161	C	1.277555	0.482931	0.952385
C162	C	1.610888	0.816265	1.285718
N163	N	0.902551	0.188900	0.493339
N164	N	1.235885	0.522234	0.826672
N165	N	1.569218	0.855567	1.160006
N166	N	0.948484	0.145561	0.529437
N167	N	1.281817	0.478895	0.862771
N168	N	1.615151	0.812228	1.196104
H169	H	0.180991	0.048231	0.003376
H170	H	0.514324	0.381565	0.336710
H171	H	0.847657	0.714898	0.670043
Cl172	Cl	0.683875	0.319446	0.021623
Cl173	Cl	1.017209	0.652780	0.354956
Cl174	Cl	1.350542	0.986113	0.688289
Cl175	Cl	1.036541	0.062455	0.209416
Cl176	Cl	1.369875	0.395789	0.542749
Cl177	Cl	1.703208	0.729122	0.876082
Cl178	Cl	0.785434	0.299392	0.422689
Cl179	Cl	1.118767	0.632726	0.756022
Cl180	Cl	1.452100	0.966059	1.089356
Cl181	Cl	0.912005	-0.602974	0.197749
Cl182	Cl	1.245338	-0.269641	0.531082
Cl183	Cl	1.578672	0.063693	0.864416
Cl184	Cl	0.499349	0.304418	0.020627
Cl185	Cl	0.832682	0.637751	0.353960
Cl186	Cl	1.166015	0.971085	0.687294
Cl187	Cl	1.027118	0.071356	0.407295
Cl188	Cl	1.360451	0.404690	0.740629
Cl189	Cl	1.693785	0.738023	1.073962
H190	H	0.935200	-0.229628	-0.152757
H191	H	1.268534	0.103706	0.180576
H192	H	1.601867	0.437039	0.513909
Cl193	Cl	0.922646	-0.047208	0.167764
Cl194	Cl	1.255979	0.286125	0.501097
Cl195	Cl	1.589313	0.619458	0.834430
Cl196	Cl	1.065604	0.035075	0.600076
Cl197	Cl	1.398937	0.368408	0.933410
Cl198	Cl	1.732271	0.701741	1.266743
Cl199	Cl	0.308101	0.353517	0.023948
Cl200	Cl	0.641434	0.686850	0.357281
Cl201	Cl	0.974767	1.020183	0.690614
Cl202	Cl	0.542940	-0.019046	-0.001179
Cl203	Cl	0.876273	0.314288	0.332154
Cl204	Cl	1.209607	0.647621	0.665488
H205	H	0.922031	-0.217281	0.122734
H206	H	1.255365	0.116052	0.456067
H207	H	1.588698	0.449386	0.789400
H208	H	0.929025	-0.448251	-0.099974
H209	H	1.262359	-0.114917	0.233360
H210	H	1.595692	0.218416	0.566693
H211	H	0.927020	-0.598477	-0.110135
H212	H	1.260353	-0.265144	0.223199
H213	H	1.593686	0.068189	0.556532
Cl214	Cl	0.939041	-0.062552	-0.174984
Cl215	Cl	1.272374	0.270781	0.158349
Cl216	Cl	1.605708	0.604115	0.491682
Cl217	Cl	0.727477	-0.004020	-0.000179
Cl218	Cl	1.060811	0.329314	0.333154
Cl219	Cl	1.394144	0.662647	0.666488
Cl220	Cl	0.914463	-0.416059	0.210391
Cl221	Cl	1.247797	-0.082725	0.543724
Cl222	Cl	1.581130	0.250608	0.877057
Cl223	Cl	1.056195	0.043975	0.797966
Cl224	Cl	1.389528	0.377309	1.131299
Cl225	Cl	1.722862	0.710642	1.464632
Cl226	Cl	0.351688	0.030048	0.002150
Cl227	Cl	0.685021	0.363381	0.335483
Cl228	Cl	1.018354	0.696715	0.668817
H229	H	0.145944	0.308228	0.020910
H230	H	0.479277	0.641561	0.354244
H231	H	0.812610	0.974894	0.687577
Cl232	Cl	0.814507	0.272020	0.813362
Cl233	Cl	1.147841	0.605353	1.146695
Cl234	Cl	1.481174	0.938687	1.480029
H235	H	0.846703	0.241608	0.633388
H236	H	1.180036	0.574942	0.966722
H237	H	1.513369	0.908275	1.300055
Cl238	Cl	0.794846	0.290488	0.224806
Cl239	Cl	1.128179	0.623821	0.558139
Cl240	Cl	1.461512	0.957155	0.891472
