data_functionalizedCrystal
_audit_creation_method	'MofGen! by Chris Wilmer'
_symmetry_space_group_name_H-M	'P1'
_symmetry_Int_Tables_number	1
_symmetry_cell_setting	triclinic
loop_
_symmetry_equiv_pos_as_xyz
  x,y,z
_cell_length_a	19.121424
_cell_length_b	19.120786
_cell_length_c	13.897441
_cell_angle_alpha	92.474365
_cell_angle_beta	87.588321
_cell_angle_gamma	95.008527
loop_
_atom_site_label
_atom_site_type_symbol
_atom_site_fract_x
_atom_site_fract_y
_atom_site_fract_z
Zn1	Zn	1.063733	-0.234191	0.469555
Zn2	Zn	1.397066	0.099143	0.802889
Zn3	Zn	1.730400	0.432476	1.136222
Zn4	Zn	1.058619	-0.351880	0.301648
Zn5	Zn	1.391953	-0.018547	0.634982
Zn6	Zn	1.725286	0.314787	0.968315
Zn7	Zn	0.946064	-0.239246	0.314844
Zn8	Zn	1.279397	0.094088	0.648178
Zn9	Zn	1.612730	0.427421	0.981511
Zn10	Zn	0.941017	-0.356852	0.469473
Zn11	Zn	1.274351	-0.023519	0.802806
Zn12	Zn	1.607684	0.309814	1.136139
O13	O	1.002358	-0.295542	0.388880
O14	O	1.335692	0.037791	0.722214
O15	O	1.669025	0.371125	1.055547
O16	O	1.161517	-0.245606	0.441794
O17	O	1.494850	0.087728	0.775127
O18	O	1.828183	0.421061	1.108461
O19	O	1.043660	-0.336973	0.168417
O20	O	1.376994	-0.003640	0.501750
O21	O	1.710327	0.329693	0.835083
O22	O	0.965925	-0.140103	0.340924
O23	O	1.299258	0.193231	0.674258
O24	O	1.632591	0.526564	1.007591
O25	O	1.157759	-0.332072	0.318434
O26	O	1.491093	0.001262	0.651767
O27	O	1.824426	0.334595	0.985100
O28	O	1.052376	-0.136389	0.454590
O29	O	1.385709	0.196944	0.787923
O30	O	1.719043	0.530278	1.121256
O31	O	0.960966	-0.254221	0.178112
O32	O	1.294299	0.079112	0.511445
O33	O	1.627633	0.412445	0.844779
O34	O	0.846932	-0.259043	0.340844
O35	O	1.180266	0.074290	0.674178
O36	O	1.513599	0.407624	1.007511
O37	O	0.957324	-0.340546	0.604466
O38	O	1.290657	-0.007213	0.937799
O39	O	1.623991	0.326120	1.271132
O40	O	0.843225	-0.345448	0.454449
O41	O	1.176558	-0.012115	0.787782
O42	O	1.509891	0.321219	1.121116
O43	O	1.047483	-0.250427	0.604526
O44	O	1.380816	0.082906	0.937860
O45	O	1.714149	0.416239	1.271193
O46	O	1.038767	-0.451012	0.318353
O47	O	1.372100	-0.117678	0.651687
O48	O	1.705434	0.215655	0.985020
O49	O	0.952365	-0.454665	0.441653
O50	O	1.285699	-0.121332	0.774987
O51	O	1.619032	0.212002	1.108320
C52	C	0.819548	-0.303334	0.399070
C53	C	1.152882	0.029999	0.732404
C54	C	1.486215	0.363333	1.065737
C55	C	0.741341	-0.306684	0.403451
C56	C	1.074674	0.026649	0.736785
C57	C	1.408007	0.359982	1.070118
C58	C	0.298919	-0.327871	0.431270
C59	C	0.632253	0.005463	0.764604
C60	C	0.965586	0.338796	1.097937
C61	C	0.372403	-0.324728	0.427136
C62	C	0.705737	0.008605	0.760469
C63	C	1.039070	0.341939	1.093802
C64	C	0.411056	-0.278098	0.366027
C65	C	0.744389	0.055236	0.699360
C66	C	1.077722	0.388569	1.032693
C67	C	0.376220	-0.234612	0.309042
C68	C	0.709554	0.098721	0.642375
C69	C	1.042887	0.432054	0.975708
C70	C	0.302737	-0.237759	0.313172
C71	C	0.636071	0.095574	0.646506
C72	C	0.969404	0.428908	0.979839
C73	C	0.633022	-0.266346	0.350597
C74	C	0.966356	0.066988	0.683930
C75	C	1.299689	0.400321	1.017264
C76	C	0.706510	-0.263201	0.346473
C77	C	1.039844	0.070132	0.679806
C78	C	1.373177	0.403466	1.013140
C79	C	0.702688	-0.353318	0.464566
C80	C	1.036022	-0.019984	0.797899
C81	C	1.369355	0.313349	1.131233
C82	C	0.629204	-0.356457	0.468695
C83	C	0.962538	-0.023124	0.802028
C84	C	1.295871	0.310209	1.135362
C85	C	0.594375	-0.312975	0.411707
C86	C	0.927708	0.020359	0.745040
C87	C	1.261042	0.353692	1.078373
C88	C	0.486168	-0.274883	0.361801
C89	C	0.819502	0.058451	0.695134
C90	C	1.152835	0.391784	1.028468
C91	C	0.519263	-0.316194	0.415928
C92	C	0.852597	0.017140	0.749261
C93	C	1.185930	0.350473	1.082595
C94	C	0.994483	-0.478370	0.378582
C95	C	1.327816	-0.145037	0.711916
C96	C	1.661149	0.188296	1.045249
C97	C	0.991178	-0.556582	0.374206
C98	C	1.324511	-0.223249	0.707539
C99	C	1.657845	0.110085	1.040872
C100	C	1.034602	-0.591334	0.431381
C101	C	1.367936	-0.258000	0.764714
C102	C	1.701269	0.075333	1.098047
C103	C	1.031494	-0.664822	0.427270
C104	C	1.364828	-0.331489	0.760603
C105	C	1.698161	0.001845	1.093937
C106	C	0.984965	-0.703558	0.365979
C107	C	1.318298	-0.370224	0.699312
C108	C	1.651632	-0.036891	1.032645
C109	C	0.941536	-0.668801	0.308801
C110	C	1.274869	-0.335468	0.642135
C111	C	1.608203	-0.002134	0.975468
C112	C	0.944641	-0.595314	0.312918
C113	C	1.277974	-0.261981	0.646251
C114	C	1.611308	0.071353	0.979584
C115	C	0.973337	-0.925541	0.350591
C116	C	1.306670	-0.592207	0.683925
C117	C	1.640003	-0.258874	1.017258
C118	C	0.970236	-0.999033	0.346477
C119	C	1.303570	-0.665699	0.679810
C120	C	1.636903	-0.332366	1.013144
C121	C	1.060194	-0.995049	0.464948
C122	C	1.393528	-0.661715	0.798281
C123	C	1.726861	-0.328382	1.131615
C124	C	1.063298	-0.921560	0.469055
C125	C	1.396632	-0.588227	0.802388
C126	C	1.729965	-0.254894	1.135721
C127	C	1.019867	-0.886810	0.411881
C128	C	1.353200	-0.553477	0.745214
C129	C	1.686533	-0.220144	1.078548
C130	C	0.981789	-0.778675	0.361773
C131	C	1.315122	-0.445341	0.695107
C132	C	1.648455	-0.112008	1.028440
C133	C	1.023040	-0.811695	0.416092
C134	C	1.356373	-0.478361	0.749425
C135	C	1.689707	-0.145028	1.082759
C136	C	1.185882	-0.287720	0.378651
C137	C	1.519215	0.045613	0.711984
C138	C	1.852549	0.378946	1.045318
C139	C	1.264089	-0.284387	0.374292
C140	C	1.597422	0.048946	0.707625
C141	C	1.930755	0.382280	1.040959
C142	C	1.002411	-0.295478	0.640474
C143	C	1.335744	0.037856	0.973807
C144	C	1.669077	0.371189	1.307141
C145	C	1.002433	-0.295450	0.747688
C146	C	1.335767	0.037883	1.081022
C147	C	1.669100	0.371216	1.414355
C148	C	1.010284	-0.111999	0.399238
C149	C	1.343617	0.221334	0.732572
C150	C	1.676950	0.554667	1.065905
C151	C	1.013661	-0.033784	0.403652
C152	C	1.346994	0.299549	0.736986
C153	C	1.680328	0.632882	1.070319
C154	C	1.002349	-0.295554	0.138266
C155	C	1.335682	0.037780	0.471599
C156	C	1.669015	0.371113	0.804932
C157	C	1.002471	-0.295377	0.031056
C158	C	1.335804	0.037956	0.364389
C159	C	1.669138	0.371290	0.697722
C160	C	1.002454	-0.295402	0.943985
C161	C	1.335788	0.037931	1.277319
C162	C	1.669121	0.371265	1.610652
C163	C	1.002440	-0.295431	0.834752
C164	C	1.335774	0.037902	1.168085
C165	C	1.669107	0.371236	1.501418
H166	H	0.597738	-0.394430	0.518454
H167	H	0.931071	-0.061097	0.851788
H168	H	1.264405	0.272236	1.185121
H169	H	0.909279	-0.567020	0.266361
H170	H	1.242613	-0.233687	0.599694
H171	H	1.575946	0.099646	0.933027
F172	F	1.077705	-0.701804	0.488135
F173	F	1.411039	-0.368471	0.821468
F174	F	1.744372	-0.035138	1.154802
H175	H	1.101186	-0.890023	0.518963
H176	H	1.434519	-0.556690	0.852296
H177	H	1.767853	-0.223356	1.185630
F178	F	0.527312	-0.225254	0.296770
F179	F	0.860645	0.108079	0.630103
F180	F	1.193978	0.441413	0.963437
H181	H	0.400759	-0.360138	0.473531
H182	H	0.734092	-0.026805	0.806864
H183	H	1.067425	0.306528	1.140198
H184	H	0.932343	-1.030570	0.296566
H185	H	1.265677	-0.697236	0.629899
H186	H	1.599010	-0.363903	0.963232
F187	F	1.106412	-1.032037	0.525794
F188	F	1.439746	-0.698704	0.859128
F189	F	1.773079	-0.365371	1.192461
F190	F	0.927107	-0.888567	0.289749
F191	F	1.260440	-0.555234	0.623082
F192	F	1.593774	-0.221900	0.956416
H193	H	1.060922	-0.780154	0.466000
H194	H	1.394255	-0.446821	0.799333
H195	H	1.727588	-0.113488	1.132666
H196	H	0.903648	-0.700346	0.258900
H197	H	1.236981	-0.367012	0.592234
H198	H	1.570314	-0.033679	0.925567
F199	F	0.595964	-0.220061	0.289952
F200	F	0.929297	0.113272	0.623286
F201	F	1.262631	0.446605	0.956619
H202	H	0.943906	-0.810221	0.311867
H203	H	1.277240	-0.476888	0.645200
H204	H	1.610573	-0.143554	0.978533
H205	H	0.267454	-0.365838	0.481037
H206	H	0.600787	-0.032505	0.814371
H207	H	0.934120	0.300829	1.147704
H208	H	0.737980	-0.225220	0.296718
H209	H	1.071313	0.108113	0.630052
H210	H	1.404646	0.441447	0.963385
F211	F	0.417359	-0.184987	0.244001
F212	F	0.750692	0.148346	0.577334
F213	F	1.084026	0.481679	0.910668
F214	F	0.265669	-0.191481	0.252524
F215	F	0.599002	0.141853	0.585857
F216	F	0.932335	0.475186	0.919190
F217	F	0.478125	-0.365824	0.480956
F218	F	0.811459	-0.032491	0.814289
F219	F	1.144792	0.300843	1.147622
F220	F	1.084129	-0.550115	0.496611
F221	F	1.417463	-0.216781	0.829944
F222	F	1.750796	0.116552	1.163278
F223	F	0.739761	-0.399596	0.525206
F224	F	1.073094	-0.066263	0.858540
F225	F	1.406428	0.267070	1.191873
