data_functionalizedCrystal
_audit_creation_method	'MofGen! by Chris Wilmer'
_symmetry_space_group_name_H-M	'P1'
_symmetry_Int_Tables_number	1
_symmetry_cell_setting	triclinic
loop_
_symmetry_equiv_pos_as_xyz
  x,y,z
_cell_length_a	19.188925
_cell_length_b	18.266242
_cell_length_c	16.109301
_cell_angle_alpha	90.007769
_cell_angle_beta	83.302015
_cell_angle_gamma	90.009988
loop_
_atom_site_label
_atom_site_type_symbol
_atom_site_fract_x
_atom_site_fract_y
_atom_site_fract_z
O1	O	0.926394	0.060899	0.103777
O2	O	1.426394	0.560899	0.603777
O3	O	0.723115	0.060897	0.117755
O4	O	1.223115	0.560897	0.617755
O5	O	0.830339	0.060891	-0.010284
O6	O	1.330339	0.560891	0.489716
O7	O	0.819170	0.060906	0.231816
O8	O	1.319170	0.560906	0.731816
O9	O	0.830321	-0.060871	-0.010290
O10	O	1.330321	0.439129	0.489710
O11	O	0.723097	-0.060865	0.117748
O12	O	1.223097	0.439135	0.617748
O13	O	0.926376	-0.060863	0.103771
O14	O	1.426376	0.439137	0.603771
Zn15	Zn	0.824734	-0.080196	0.110758
Zn16	Zn	1.324734	0.419804	0.610758
Zn17	Zn	0.824757	0.080231	0.110767
Zn18	Zn	1.324757	0.580231	0.610767
O19	O	0.819152	-0.060856	0.231809
O20	O	1.319152	0.439144	0.731809
C21	C	0.697094	0.000016	0.117300
C22	C	1.197094	0.500016	0.617300
C23	C	0.619586	0.000015	0.115943
C24	C	1.119586	0.500015	0.615943
C25	C	0.057970	0.000021	0.181988
C26	C	0.557970	0.500021	0.681988
C27	C	0.130796	0.000025	0.183270
C28	C	0.630796	0.500025	0.683270
C29	C	0.175555	0.000019	0.108142
C30	C	0.675555	0.500019	0.608142
C31	C	0.147482	0.000028	0.031725
C32	C	0.647482	0.500028	0.531725
C33	C	0.074657	0.000031	0.030445
C34	C	0.574657	0.500031	0.530445
N35	N	0.296099	-0.041433	0.053749
N36	N	0.796099	0.458567	0.553749
N37	N	0.365279	-0.041438	0.054970
N38	N	0.865279	0.458562	0.554970
C39	C	0.394973	0.000011	0.111993
C40	C	0.894973	0.500011	0.611993
N41	N	0.352872	0.041455	0.167761
N42	N	0.852872	0.541455	0.667761
N43	N	0.283686	0.041456	0.166543
N44	N	0.783686	0.541456	0.666543
C45	C	0.254523	0.000016	0.109521
C46	C	0.754523	0.500016	0.609521
C47	C	0.502004	0.000011	0.189794
C48	C	1.002004	0.500011	0.689794
C49	C	0.574832	0.000020	0.191073
C50	C	1.074832	0.500020	0.691073
C51	C	0.591517	0.000015	0.039525
C52	C	1.091517	0.500015	0.539525
C53	C	0.518690	0.000014	0.038249
C54	C	1.018690	0.500014	0.538249
C55	C	0.473938	0.000009	0.113386
C56	C	0.973938	0.500009	0.613386
N57	N	0.824722	-0.189683	0.110752
N58	N	1.324722	0.310317	0.610752
C59	C	0.872217	-0.227995	0.054084
C60	C	1.372217	0.272005	0.554084
C61	C	0.872221	-0.304640	0.054080
C62	C	1.372221	0.195360	0.554080
C63	C	0.824738	-0.342970	0.110759
C64	C	1.324738	0.157030	0.610759
C65	C	0.777235	-0.304649	0.167431
C66	C	1.277235	0.195351	0.667431
C67	C	0.777227	-0.228006	0.167427
C68	C	1.277227	0.271994	0.667427
N69	N	0.815834	-0.463298	0.184358
N70	N	1.315834	0.036702	0.684358
N71	N	0.815846	-0.536106	0.184358
N72	N	1.315846	-0.036106	0.684358
C73	C	0.824757	-0.573892	0.110771
C74	C	1.324757	-0.073892	0.610771
N75	N	0.833671	-0.536120	0.037180
N76	N	1.333671	-0.036120	0.537180
N77	N	0.833663	-0.463305	0.037180
N78	N	1.333663	0.036695	0.537180
C79	C	0.824741	-0.426077	0.110768
C80	C	1.324741	0.073923	0.610768
C81	C	0.872259	-0.695311	0.054094
C82	C	1.372259	-0.195311	0.554094
C83	C	0.872259	-0.771958	0.054089
C84	C	1.372259	-0.271958	0.554089
C85	C	0.777276	-0.771965	0.167446
C86	C	1.277276	-0.271965	0.667446
C87	C	0.777273	-0.695321	0.167444
C88	C	1.277273	-0.195321	0.667444
C89	C	0.824768	-0.656998	0.110769
C90	C	1.324768	-0.156998	0.610769
C91	C	0.952397	0.000020	0.104226
C92	C	1.452397	0.500020	0.604226
C93	C	1.029905	0.000026	0.105582
C94	C	1.529905	0.500026	0.605582
C95	C	0.829877	0.000009	-0.041260
C96	C	1.329877	0.500009	0.458740
C97	C	0.828521	0.000008	-0.133551
C98	C	1.328521	0.500008	0.366449
N99	N	0.824774	0.189717	0.110767
N100	N	1.324774	0.689717	0.610767
C101	C	0.888992	0.000020	-0.356025
C102	C	1.388992	0.500020	0.143975
C103	C	0.887712	0.000026	-0.442741
C104	C	1.387712	0.500026	0.057259
C105	C	0.760494	0.000023	-0.422443
C106	C	1.260494	0.500023	0.077557
C107	C	0.761775	0.000022	-0.335728
C108	C	1.261775	0.500022	0.164272
C109	C	0.826026	0.000017	-0.302522
C110	C	1.326026	0.500017	0.197478
C111	C	0.823465	0.000024	-0.475953
C112	C	1.323465	0.500024	0.024047
C113	C	0.822077	0.000030	-0.569974
C114	C	1.322077	0.500030	-0.069974
C115	C	0.827414	0.000012	-0.208495
C116	C	1.327414	0.500012	0.291505
C117	C	0.819614	0.000027	0.262786
C118	C	1.319614	0.500027	0.762786
C119	C	0.820970	0.000032	0.355076
C120	C	1.320970	0.500032	0.855076
H121	H	0.183930	0.000025	-0.029445
H122	H	0.683930	0.500025	0.470555
H123	H	0.941309	0.000018	-0.328992
H124	H	1.441309	0.500018	0.171008
O125	O	0.458555	0.000146	0.262799
O126	O	0.958555	0.500146	0.762799
C127	C	0.471296	0.063202	0.309219
C128	C	0.971296	0.563202	0.809219
H129	H	0.496205	0.107275	0.265238
H130	H	0.996205	0.607275	0.765238
H131	H	0.419621	0.084372	0.342746
H132	H	0.919621	0.584372	0.842746
H133	H	0.508361	0.048948	0.357208
H134	H	1.008361	0.548948	0.857208
H135	H	0.938985	0.000031	-0.486301
H136	H	1.438985	0.500031	0.013699
O137	O	0.602124	0.000156	0.265281
O138	O	1.102124	0.500156	0.765281
C139	C	0.643766	0.063214	0.270553
C140	C	1.143766	0.563214	0.770553
H141	H	0.626561	0.107284	0.227166
H142	H	1.126561	0.607284	0.727166
H143	H	0.637207	0.084388	0.337583
H144	H	1.137207	0.584388	0.837583
H145	H	0.701201	0.048962	0.251175
H146	H	1.201201	0.548962	0.751175
O147	O	0.698145	-0.000012	-0.454839
O148	O	1.198145	0.499988	0.045161
C149	C	0.710515	0.000005	-0.542849
C150	C	1.210515	0.500005	-0.042849
H151	H	0.765004	-0.023044	-0.563418
H152	H	1.265004	0.476956	-0.063418
H153	H	0.669402	-0.035349	-0.569327
H154	H	1.169402	0.464651	-0.069327
H155	H	0.707142	0.058420	-0.566969
H156	H	1.207142	0.558420	-0.066969
O157	O	0.014469	-0.000103	0.254950
O158	O	0.514469	0.499897	0.754950
C159	C	-0.028185	-0.063149	0.258732
C160	C	0.471815	0.436851	0.758732
H161	H	-0.001516	-0.107232	0.216119
H162	H	0.498484	0.392768	0.716119
H163	H	-0.036398	-0.084311	0.325732
H164	H	0.463602	0.415689	0.825732
H165	H	-0.081132	-0.048887	0.237405
H166	H	0.418868	0.451113	0.737405
H167	H	0.495840	0.000014	-0.023970
H168	H	0.995840	0.500014	0.476030
O169	O	0.157952	-0.000016	0.257568
O170	O	0.657952	0.499984	0.757568
C171	C	0.102836	0.000001	0.323609
C172	C	0.602836	0.500001	0.823609
H173	H	0.053363	-0.023045	0.300483
H174	H	0.553363	0.476955	0.800483
H175	H	0.118038	-0.035356	0.376962
H176	H	0.618038	0.464644	0.876962
H177	H	0.092540	0.058415	0.346786
H178	H	0.592540	0.558415	0.846786
O179	O	0.047508	-0.000001	-0.043852
O180	O	0.547508	0.499999	0.456148
C181	C	0.102626	0.000018	-0.109891
C182	C	0.602626	0.500018	0.390109
H183	H	0.152090	-0.023033	-0.086771
H184	H	0.652090	0.476967	0.413229
H185	H	0.087413	-0.035334	-0.163259
H186	H	0.587413	0.464666	0.336741
H187	H	0.112944	0.058433	-0.133046
H188	H	0.612944	0.558433	0.366954
H189	H	0.627959	0.000016	-0.021646
H190	H	1.127959	0.500016	0.478354
H191	H	0.910932	-0.803152	0.007939
H192	H	1.410932	-0.303152	0.507939
H193	H	0.910898	-0.335839	0.007933
H194	H	1.410898	0.164161	0.507933
H195	H	0.738601	-0.664125	0.213592
H196	H	1.238601	-0.164125	0.713592
O197	O	0.918373	-0.190883	-0.001055
O198	O	1.418373	0.309117	0.498945
C199	C	0.960306	-0.241140	-0.051059
C200	C	1.460306	0.258860	0.448941
H201	H	0.931688	-0.295784	-0.051908
H202	H	1.431688	0.204216	0.448092
H203	H	0.970973	-0.219006	-0.117491
H204	H	1.470973	0.280994	0.382509
H205	H	1.012163	-0.249270	-0.024215
H206	H	1.512163	0.250730	0.475785
O207	O	0.700560	0.000115	-0.283834
O208	O	1.200560	0.500115	0.216166
C209	C	0.661566	0.063185	-0.298824
C210	C	1.161566	0.563185	0.201176
H211	H	0.678723	0.084209	-0.364669
H212	H	1.178723	0.584209	0.135331
H213	H	0.603331	0.049001	-0.292505
H214	H	1.103331	0.549001	0.207495
H215	H	0.671113	0.107344	-0.251423
H216	H	1.171113	0.607344	0.248577
O217	O	0.731082	-0.341961	0.222374
O218	O	1.231082	0.158039	0.722374
C219	C	0.688018	-0.386303	0.177976
C220	C	1.188018	0.113697	0.677976
H221	H	0.715846	-0.397787	0.112835
H222	H	1.215846	0.102213	0.612835
H223	H	0.676971	-0.440197	0.212713
H224	H	1.176971	0.059803	0.712713
H225	H	0.636417	-0.356784	0.172476
H226	H	1.136417	0.143216	0.672476
H227	H	0.738550	-0.196811	0.213574
H228	H	1.238550	0.303189	0.713574
O229	O	0.918414	-0.658193	-0.001044
O230	O	1.418414	-0.158193	0.498956
C231	C	0.960344	-0.708448	-0.051056
C232	C	1.460344	-0.208448	0.448944
H233	H	0.931723	-0.763090	-0.051909
H234	H	1.431723	-0.263090	0.448091
H235	H	0.971010	-0.686309	-0.117485
H236	H	1.471010	-0.186309	0.382515
H237	H	1.012201	-0.716582	-0.024215
H238	H	1.512201	-0.216582	0.475785
H239	H	0.738611	-0.803173	0.213592
H240	H	1.238611	-0.303173	0.713592
