data_functionalizedCrystal
_audit_creation_method	'MofGen! by Chris Wilmer'
_symmetry_space_group_name_H-M	'P1'
_symmetry_Int_Tables_number	1
_symmetry_cell_setting	triclinic
loop_
_symmetry_equiv_pos_as_xyz
  x,y,z
_cell_length_a	19.188925
_cell_length_b	19.188930
_cell_length_c	13.101039
_cell_angle_alpha	93.345801
_cell_angle_beta	86.652915
_cell_angle_gamma	83.143665
loop_
_atom_site_label
_atom_site_type_symbol
_atom_site_fract_x
_atom_site_fract_y
_atom_site_fract_z
O1	O	0.930001	0.083283	-0.085248
O2	O	1.430001	0.583283	0.414752
O3	O	0.726690	0.095021	-0.085246
O4	O	1.226690	0.595021	0.414754
O5	O	0.834212	-0.012503	-0.085227
O6	O	1.334212	0.487497	0.414773
O7	O	0.822479	0.190807	-0.085267
O8	O	1.322479	0.690807	0.414733
O9	O	0.826497	-0.004776	0.085201
O10	O	1.326497	0.495224	0.585201
O11	O	0.718975	0.102748	0.085182
O12	O	1.218975	0.602748	0.585182
O13	O	0.922287	0.091010	0.085181
O14	O	1.422287	0.591010	0.585181
Zn15	Zn	0.819406	0.098106	0.112241
Zn16	Zn	1.319406	0.598106	0.612241
Zn17	Zn	0.829570	0.087925	-0.112306
Zn18	Zn	1.329570	0.587925	0.387694
O19	O	0.814765	0.198534	0.085161
O20	O	1.314765	0.698534	0.585161
C21	C	0.696821	0.098505	-0.000032
C22	C	1.196821	0.598505	0.499968
C23	C	0.619316	0.097366	-0.000030
C24	C	1.119316	0.597366	0.499970
C25	C	0.057547	0.152829	-0.000044
C26	C	0.557547	0.652829	0.499956
C27	C	0.130370	0.153906	-0.000049
C28	C	0.630370	0.653906	0.499951
C29	C	0.175304	0.090814	-0.000035
C30	C	0.675304	0.590814	0.499965
C31	C	0.147410	0.026640	-0.000042
C32	C	0.647410	0.526640	0.499958
C33	C	0.074588	0.025566	-0.000046
C34	C	0.574588	0.525566	0.499954
N35	N	0.293355	0.047769	0.057989
N36	N	0.793355	0.547769	0.557989
N37	N	0.362532	0.048794	0.057995
N38	N	0.862532	0.548794	0.557995
C39	C	0.394713	0.094049	-0.000024
C40	C	0.894713	0.594049	0.499976
N41	N	0.355101	0.138250	-0.058037
N42	N	0.855101	0.638250	0.441963
N43	N	0.285917	0.137227	-0.058039
N44	N	0.785917	0.637227	0.441961
C45	C	0.254268	0.091973	-0.000031
C46	C	0.754268	0.591973	0.499969
C47	C	0.501562	0.159385	-0.000031
C48	C	1.001562	0.659385	0.499969
C49	C	0.574387	0.160458	-0.000043
C50	C	1.074387	0.660458	0.499957
C51	C	0.591426	0.033192	-0.000025
C52	C	1.091426	0.533192	0.499975
C53	C	0.518602	0.032120	-0.000023
C54	C	1.018602	0.532120	0.499977
C55	C	0.473674	0.095219	-0.000021
C56	C	0.973674	0.595219	0.499979
C57	C	0.829974	-0.034650	-0.000010
C58	C	1.329974	0.465350	0.499990
C59	C	0.828833	-0.112154	-0.000001
C60	C	1.328833	0.387846	0.499999
C61	C	0.891924	-0.157079	0.000003
C62	C	1.391924	0.342921	0.500003
C63	C	0.890853	-0.229904	-0.000013
C64	C	1.390853	0.270096	0.499987
C65	C	0.826687	-0.257799	-0.000013
C66	C	1.326687	0.242201	0.499987
C67	C	0.763588	-0.212865	-0.000024
C68	C	1.263588	0.287135	0.499976
C69	C	0.764661	-0.140042	-0.000017
C70	C	1.264661	0.359958	0.499983
N71	N	0.775014	-0.363173	0.057987
N72	N	1.275014	0.136827	0.557987
N73	N	0.773999	-0.432352	0.057983
N74	N	1.273999	0.067648	0.557983
C75	C	0.823450	-0.477209	-0.000034
C76	C	1.323450	0.022791	0.499966
N77	N	0.873964	-0.450274	-0.058035
N78	N	1.373964	0.049726	0.441965
N79	N	0.874981	-0.381089	-0.058027
N80	N	1.374981	0.118911	0.441973
C81	C	0.825516	-0.336762	-0.000021
C82	C	1.325516	0.163238	0.499979
C83	C	0.885384	-0.601099	-0.000049
C84	C	1.385384	-0.101099	0.499951
C85	C	0.884310	-0.673925	-0.000072
C86	C	1.384310	-0.173925	0.499928
C87	C	0.757043	-0.656883	-0.000072
C88	C	1.257043	-0.156883	0.499928
C89	C	0.758119	-0.584060	-0.000059
C90	C	1.258119	-0.084060	0.499941
C91	C	0.822291	-0.556172	-0.000043
C92	C	1.322291	-0.056172	0.499957
C93	C	0.952155	0.087526	-0.000036
C94	C	1.452155	0.587526	0.499964
C95	C	1.029660	0.088664	-0.000044
C96	C	1.529660	0.588664	0.499956
C97	C	0.819002	0.220681	-0.000058
C98	C	1.319002	0.720681	0.499942
C99	C	0.820144	0.298185	-0.000074
C100	C	1.320144	0.798185	0.499926
N101	N	0.812474	0.105054	0.265488
N102	N	1.312474	0.605054	0.765488
N103	N	0.836508	0.080971	-0.265554
N104	N	1.336508	0.580971	0.234446
C105	C	0.803043	0.114513	0.474529
C106	C	1.303043	0.614513	0.974529
C107	C	0.845936	0.071514	0.525412
C108	C	1.345936	0.571514	1.025412
C109	C	0.840689	0.076777	0.641730
C110	C	1.340689	0.576777	1.141730
C111	C	0.808290	0.109251	0.358201
C112	C	1.308290	0.609251	0.858201
H113	H	0.153079	0.206158	-0.000039
H114	H	0.653079	0.706158	0.499961
H115	H	0.942231	-0.266489	-0.000013
H116	H	1.442231	0.233511	0.499987
Br117	Br	0.208390	-0.058985	-0.000031
Br118	Br	0.708390	0.441015	0.499969
H119	H	0.051885	-0.026687	-0.000047
H120	H	0.551885	0.473313	0.499953
H121	H	0.628011	-0.018179	-0.000021
H122	H	1.128011	0.481821	0.499979
H123	H	0.886600	0.030749	0.481617
H124	H	1.386600	0.530749	0.981617
H125	H	0.464980	0.210764	-0.000031
H126	H	0.964980	0.710764	0.499969
H127	H	0.762383	0.155277	0.518319
H128	H	1.262383	0.655277	1.018319
H129	H	0.944178	-0.134378	0.000013
H130	H	1.444178	0.365622	0.500013
Br131	Br	-0.003423	0.238462	-0.000053
Br132	Br	0.496577	0.738462	0.499947
H133	H	0.495897	-0.020130	-0.000017
H134	H	0.995897	0.479870	0.499983
H135	H	0.597090	0.212711	-0.000051
H136	H	1.097090	0.712711	0.499949
Br137	Br	0.676505	-0.250721	-0.000037
Br138	Br	1.176505	0.249279	0.499963
H139	H	0.713283	-0.103463	-0.000021
H140	H	1.213283	0.396537	0.499979
H141	H	0.937636	-0.578392	-0.000040
H142	H	1.437636	-0.078392	0.499960
H143	H	0.935689	-0.710503	-0.000074
H144	H	1.435689	-0.210503	0.499926
H145	H	0.704798	-0.679595	-0.000077
H146	H	1.204798	-0.179595	0.499923
Br147	Br	0.672490	-0.523086	-0.000064
Br148	Br	1.172490	-0.023086	0.499936
