data_functionalizedCrystal
_audit_creation_method	'MofGen! by Chris Wilmer'
_symmetry_space_group_name_H-M	'P1'
_symmetry_Int_Tables_number	1
_symmetry_cell_setting	triclinic
loop_
_symmetry_equiv_pos_as_xyz
  x,y,z
_cell_length_a	14.519709
_cell_length_b	9.565339
_cell_length_c	14.519709
_cell_angle_alpha	89.999284
_cell_angle_beta	96.319855
_cell_angle_gamma	89.997945
loop_
_atom_site_label
_atom_site_type_symbol
_atom_site_fract_x
_atom_site_fract_y
_atom_site_fract_z
O1	O	1.223867	0.116081	-0.120885
O2	O	1.723867	0.616081	0.379115
O3	O	0.955390	0.116124	-0.135121
O4	O	1.455390	0.616124	0.364879
O5	O	1.096747	0.116089	0.006236
O6	O	1.596747	0.616089	0.506236
O7	O	1.082510	0.116116	-0.262241
O8	O	1.582510	0.616116	0.237759
O9	O	1.096736	-0.116431	0.006227
O10	O	1.596736	0.383569	0.506227
O11	O	0.955379	-0.116396	-0.135130
O12	O	1.455379	0.383604	0.364870
O13	O	1.223856	-0.116439	-0.120893
O14	O	1.723856	0.383561	0.379107
Zn15	Zn	1.089616	-0.153335	-0.128013
Zn16	Zn	1.589616	0.346665	0.371987
Zn17	Zn	1.089630	0.153020	-0.128001
Zn18	Zn	1.589630	0.653020	0.371999
O19	O	1.082499	-0.116404	-0.262250
O20	O	1.582499	0.383596	0.237750
C21	C	0.921025	-0.000131	-0.134462
C22	C	1.421025	0.499869	0.365538
C23	C	0.818643	-0.000115	-0.132474
C24	C	1.318643	0.499885	0.367526
N25	N	1.089612	-0.362415	-0.128020
N26	N	1.589612	0.137585	0.371980
C27	C	0.443748	-0.000179	-0.125154
C28	C	0.943748	0.499821	0.374846
C29	C	0.548056	-0.000161	-0.127187
C30	C	1.048056	0.499839	0.372813
C31	C	0.631192	-0.000145	-0.128814
C32	C	1.131192	0.499855	0.371186
C33	C	0.735507	-0.000130	-0.130847
C34	C	1.235507	0.499870	0.369153
C35	C	1.024220	-0.453601	-0.193372
C36	C	1.524220	0.046399	0.306628
C37	C	1.107587	-0.546792	-0.211404
C38	C	1.607587	-0.046792	0.288596
C39	C	1.006281	-0.546780	-0.109995
C40	C	1.506281	-0.046780	0.390005
C41	C	1.173021	-0.453553	-0.146094
C42	C	1.673021	0.046447	0.353906
C43	C	1.071661	-0.453533	-0.044649
C44	C	1.571661	0.046467	0.455351
C45	C	1.155088	-0.546681	-0.062646
C46	C	1.655088	-0.046681	0.437354
C47	C	1.258221	-0.000181	-0.121553
C48	C	1.758221	0.499819	0.378447
C49	C	1.360602	-0.000188	-0.123541
C50	C	1.860602	0.499812	0.376459
C51	C	1.096078	-0.000171	0.040591
C52	C	1.596078	0.499829	0.540591
C53	C	1.094090	-0.000172	0.142972
C54	C	1.594090	0.499828	0.642972
N55	N	1.089641	0.362099	-0.127987
N56	N	1.589641	0.862099	0.372013
C57	C	1.083168	-0.000141	-0.296606
C58	C	1.583168	0.499859	0.203394
C59	C	1.085156	-0.000131	-0.398987
C60	C	1.585156	0.499869	0.101013
C61	C	1.086770	-0.000134	0.517868
C62	C	1.586770	0.499866	1.017868
C63	C	1.088803	-0.000145	0.413560
C64	C	1.588803	0.499855	0.913560
C65	C	1.090430	-0.000154	0.330423
C66	C	1.590430	0.499846	0.830423
C67	C	1.092463	-0.000163	0.226109
C68	C	1.592463	0.499837	0.726109
H69	H	0.968970	-0.412733	-0.248688
H70	H	1.468970	0.087267	0.251312
N71	N	1.228425	-0.600499	0.010583
N72	N	1.728425	-0.100499	0.510583
H73	H	1.261934	-0.518956	0.043314
H74	H	1.761934	-0.018956	0.543314
H75	H	1.274129	-0.659988	-0.019586
H76	H	1.774129	-0.159988	0.480414
H77	H	1.122789	-0.587755	-0.281894
H78	H	1.622789	-0.087755	0.218106
N79	N	1.051499	-0.399227	0.048696
N80	N	1.551499	0.100773	0.548696
H81	H	0.988493	-0.433079	0.062243
H82	H	1.488493	0.066921	0.562243
H83	H	1.052295	-0.293654	0.048104
H84	H	1.552295	0.206346	0.548104
H85	H	1.243520	-0.412775	-0.161410
H86	H	1.743520	0.087225	0.338590
H87	H	0.935798	-0.587734	-0.094764
H88	H	1.435798	-0.087734	0.405236
