data_functionalizedCrystal
_audit_creation_method	'MofGen! by Chris Wilmer'
_symmetry_space_group_name_H-M	'P1'
_symmetry_Int_Tables_number	1
_symmetry_cell_setting	triclinic
loop_
_symmetry_equiv_pos_as_xyz
  x,y,z
_cell_length_a	19.288864
_cell_length_b	15.995350
_cell_length_c	18.366186
_cell_angle_alpha	89.995992
_cell_angle_beta	89.977106
_cell_angle_gamma	83.314311
loop_
_atom_site_label
_atom_site_type_symbol
_atom_site_fract_x
_atom_site_fract_y
_atom_site_fract_z
O1	O	0.921624	0.104451	-0.060780
O2	O	1.254957	0.437785	0.272554
O3	O	1.588291	0.771118	0.605887
O4	O	0.719400	0.118542	-0.060729
O5	O	1.052733	0.451875	0.272604
O6	O	1.386066	0.785208	0.605937
O7	O	0.826040	-0.010412	-0.060755
O8	O	1.159373	0.322921	0.272578
O9	O	1.492706	0.656255	0.605911
O10	O	0.814984	0.233405	-0.060754
O11	O	1.148317	0.566738	0.272579
O12	O	1.481651	0.900072	0.605913
O13	O	0.826022	-0.010418	0.060344
O14	O	1.159355	0.322915	0.393677
O15	O	1.492688	0.656248	0.727011
O16	O	0.719382	0.118535	0.060370
O17	O	1.052715	0.451869	0.393703
O18	O	1.386048	0.785202	0.727037
O19	O	0.921606	0.104445	0.060320
O20	O	1.254939	0.437778	0.393653
O21	O	1.588272	0.771112	0.726986
Zn22	Zn	0.820491	0.111489	0.079572
Zn23	Zn	1.153824	0.444823	0.412905
Zn24	Zn	1.487158	0.778156	0.746239
Zn25	Zn	0.820515	0.111498	-0.079982
Zn26	Zn	1.153848	0.444831	0.253352
Zn27	Zn	1.487181	0.778164	0.586685
O28	O	0.814966	0.233399	0.060346
O29	O	1.148299	0.566732	0.393679
O30	O	1.481632	0.900065	0.727012
C31	C	0.693513	0.118085	-0.000173
C32	C	1.026846	0.451419	0.333160
C33	C	1.360180	0.784752	0.666493
C34	C	0.616406	0.116724	-0.000154
C35	C	0.949739	0.450058	0.333179
C36	C	1.283073	0.783391	0.666512
C37	C	0.571906	0.192388	-0.000165
C38	C	0.905239	0.525722	0.333168
C39	C	1.238573	0.859055	0.666501
C40	C	0.499456	0.191110	-0.000173
C41	C	0.832789	0.524443	0.333160
C42	C	1.166122	0.857776	0.666493
C43	C	0.471508	0.114163	-0.000185
C44	C	0.804842	0.447496	0.333148
C45	C	1.138175	0.780829	0.666482
C46	C	0.516018	0.038489	-0.000170
C47	C	0.849351	0.371822	0.333163
C48	C	1.182685	0.705155	0.666497
C49	C	0.588467	0.039769	-0.000155
C50	C	0.921800	0.373103	0.333179
C51	C	1.255134	0.706436	0.666512
C52	C	0.363096	0.053676	-0.042636
C53	C	0.696429	0.387009	0.290697
C54	C	1.029762	0.720343	0.624030
C55	C	0.290648	0.052398	-0.042656
C56	C	0.623981	0.385732	0.290677
C57	C	0.957315	0.719065	0.624011
C58	C	0.248053	0.110209	-0.000229
C59	C	0.581386	0.443543	0.333104
C60	C	0.914719	0.776876	0.666438
C61	C	0.277912	0.169312	0.042208
C62	C	0.611246	0.502645	0.375542
C63	C	0.944579	0.835979	0.708875
C64	C	0.350361	0.170593	0.042224
C65	C	0.683695	0.503926	0.375557
C66	C	1.017028	0.837259	0.708890
C67	C	0.392951	0.112765	-0.000201
C68	C	0.726284	0.446099	0.333132
C69	C	1.059617	0.779432	0.666465
C70	C	0.124993	0.184492	-0.000248
C71	C	0.458327	0.517826	0.333086
C72	C	0.791660	0.851159	0.666419
C73	C	0.052542	0.183210	-0.000251
C74	C	0.385875	0.516544	0.333082
C75	C	0.719208	0.849877	0.666415
C76	C	0.069106	0.030587	-0.000255
C77	C	0.402439	0.363920	0.333078
C78	C	0.735773	0.697254	0.666411
C79	C	0.141556	0.031871	-0.000244
C80	C	0.474889	0.365204	0.333089
C81	C	0.808222	0.698538	0.666422
C82	C	0.169495	0.108826	-0.000244
C83	C	0.502828	0.442159	0.333089
C84	C	0.836161	0.775493	0.666423
C85	C	0.825574	-0.041608	-0.000207
C86	C	1.158907	0.291725	0.333127
C87	C	1.492240	0.625059	0.666460
C88	C	0.824203	-0.134553	-0.000211
C89	C	1.157537	0.198780	0.333123
C90	C	1.490870	0.532113	0.666456
C91	C	0.819282	-0.472282	-0.000207
C92	C	1.152616	-0.138949	0.333126
C93	C	1.485949	0.194384	0.666460
C94	C	0.743335	-0.424562	-0.000460
C95	C	1.076669	-0.091228	0.332874
C96	C	1.410002	0.242105	0.666207
C97	C	0.744706	-0.327877	-0.000187
C98	C	1.078039	0.005457	0.333146
C99	C	1.411373	0.338790	0.666480
C100	C	0.821723	-0.304731	-0.000209
C101	C	1.155057	0.028602	0.333124
C102	C	1.488390	0.361936	0.666458
C103	C	0.859173	-0.345953	0.068934
C104	C	1.192506	-0.012620	0.402267
C105	C	1.525839	0.320713	0.735601
C106	C	0.857265	-0.442582	0.068992
C107	C	1.190598	-0.109249	0.402326
C108	C	1.523931	0.224085	0.735659
C109	C	0.858854	-0.442939	-0.068721
C110	C	1.192188	-0.109605	0.264613
C111	C	1.525521	0.223728	0.597946
C112	C	0.858836	-0.345993	-0.069635
C113	C	1.192170	-0.012660	0.263699
C114	C	1.525503	0.320673	0.597032
C115	C	0.823107	-0.210039	-0.000208
C116	C	1.156440	0.123295	0.333125
C117	C	1.489774	0.456628	0.666459
C118	C	0.817901	-0.566975	-0.000203
C119	C	1.151234	-0.233642	0.333130
C120	C	1.484568	0.099692	0.666463
C121	C	0.947492	0.104902	-0.000238
C122	C	1.280826	0.438235	0.333095
C123	C	1.614159	0.771568	0.666429
C124	C	1.024600	0.106263	-0.000262
C125	C	1.357933	0.439596	0.333072
C126	C	1.691266	0.772929	0.666405
C127	C	0.815432	0.264595	-0.000204
C128	C	1.148765	0.597928	0.333129
C129	C	1.482099	0.931262	0.666462
C130	C	0.816802	0.357540	-0.000206
C131	C	1.150136	0.690873	0.333128
C132	C	1.483469	1.024207	0.666461
N133	N	0.820480	0.111483	0.188463
N134	N	1.153813	0.444816	0.521796
N135	N	1.487146	0.778150	0.855130
N136	N	0.820531	0.111497	-0.188873
N137	N	1.153865	0.444830	0.144461
N138	N	1.487198	0.778164	0.477794
C139	C	0.867715	0.054410	0.226552
C140	C	1.201049	0.387744	0.559885
C141	C	1.534382	0.721077	0.893219
C142	C	0.867720	0.054407	0.302780
C143	C	1.201053	0.387740	0.636113
C144	C	1.534386	0.721073	0.969447
C145	C	0.820495	0.111490	0.340916
C146	C	1.153828	0.444823	0.674249
C147	C	1.487162	0.778157	1.007583
C148	C	0.773250	0.168567	0.302818
C149	C	1.106584	0.501900	0.636151
C150	C	1.439917	0.835234	0.969484
C151	C	0.773243	0.168564	0.226591
C152	C	1.106576	0.501897	0.559925
C153	C	1.439909	0.835230	0.893258
C154	C	0.811395	0.187781	0.461678
C155	C	1.144728	0.521114	0.795011
C156	C	1.478062	0.854448	1.128345
C157	C	0.811407	0.187785	0.537903
C158	C	1.144741	0.521119	0.871236
C159	C	1.478074	0.854452	1.204570
C160	C	0.820515	0.111500	0.576023
C161	C	1.153848	0.444834	0.909357
C162	C	1.487181	0.778167	1.242690
C163	C	0.829624	0.035208	0.537909
C164	C	1.162958	0.368541	0.871243
C165	C	1.496291	0.701874	1.204576
C166	C	0.829617	0.035204	0.461683
C167	C	1.162950	0.368537	0.795016
C168	C	1.496283	0.701871	1.128350
C169	C	0.820498	0.111500	0.423571
C170	C	1.153831	0.444833	0.756904
C171	C	1.487165	0.778166	1.090237
C172	C	0.867758	0.054419	0.696767
C173	C	1.201091	0.387752	1.030101
C174	C	1.534425	0.721086	1.363434
C175	C	0.867757	0.054414	0.772996
C176	C	1.201091	0.387747	1.106330
C177	C	1.534424	0.721081	1.439663
C178	C	0.773292	0.168582	0.773033
C179	C	1.106625	0.501915	1.106366
C180	C	1.439958	0.835248	1.439699
C181	C	0.773289	0.168579	0.696805
C182	C	1.106622	0.501913	1.030138
C183	C	1.439955	0.835246	1.363472
C184	C	0.820525	0.111499	0.658677
C185	C	1.153859	0.444832	0.992010
C186	C	1.487192	0.778166	1.325344
H187	H	0.624700	-0.021848	-0.000146
H188	H	0.958033	0.311486	0.333187
H189	H	1.291366	0.644819	0.666521
H190	H	0.833147	-0.317476	0.120403
H191	H	1.166481	0.015857	0.453737
H192	H	1.499814	0.349190	0.787070
H193	H	0.915001	-0.330843	-0.073826
H194	H	1.248335	0.002490	0.259507
H195	H	1.581668	0.335824	0.592841
H196	H	0.463217	0.252727	-0.000180
H197	H	0.796550	0.586060	0.333153
H198	H	1.129884	0.919393	0.666486
H199	H	0.829941	-0.460783	0.120694
H200	H	1.163275	-0.127450	0.454027
H201	H	1.496608	0.205884	0.787360
Cl202	Cl	0.416637	-0.019008	-0.095978
Cl203	Cl	0.749971	0.314325	0.237355
Cl204	Cl	1.083304	0.647658	0.570688
Cl205	Cl	0.816911	-0.303272	-0.148620
Cl206	Cl	1.150244	0.030062	0.184713
Cl207	Cl	1.483577	0.363395	0.518046
H208	H	0.837040	-0.026911	0.568945
H209	H	1.170373	0.306422	0.902279
H210	H	1.503707	0.639756	1.235612
H211	H	0.915755	-0.332041	0.071489
H212	H	1.249088	0.001292	0.404823
H213	H	1.582422	0.334626	0.738156
H214	H	0.715055	-0.299903	0.049476
H215	H	1.048388	0.033431	0.382809
H216	H	1.381721	0.366764	0.716143
Cl217	Cl	0.927108	-0.017348	0.350671
Cl218	Cl	1.260441	0.315986	0.684005
Cl219	Cl	1.593774	0.649319	1.017338
Cl220	Cl	0.945306	-0.492302	-0.069466
Cl221	Cl	1.278639	-0.158969	0.263868
Cl222	Cl	1.611972	0.174364	0.597201
Cl223	Cl	0.927137	-0.017343	0.648833
Cl224	Cl	1.260470	0.315990	0.982167
Cl225	Cl	1.593804	0.649323	1.315500
H226	H	0.734777	0.215040	0.195579
H227	H	1.068110	0.548373	0.528912
H228	H	1.401444	0.881707	0.862245
Cl229	Cl	0.927140	-0.017345	0.820883
Cl230	Cl	1.260474	0.315988	1.154216
Cl231	Cl	1.593807	0.649321	1.487549
H232	H	0.594649	0.255051	-0.000166
H233	H	0.927982	0.588384	0.333167
H234	H	1.261316	0.921718	0.666500
H235	H	0.147742	0.247153	-0.000237
H236	H	0.481076	0.580487	0.333096
H237	H	0.814409	0.913820	0.666430
Cl238	Cl	0.927094	-0.017350	0.178620
Cl239	Cl	1.260427	0.315983	0.511953
Cl240	Cl	1.593760	0.649316	0.845287
Cl241	Cl	0.699254	-0.283816	-0.076709
Cl242	Cl	1.032587	0.049518	0.256624
Cl243	Cl	1.365921	0.382851	0.589958
H244	H	0.046352	-0.032065	-0.000310
H245	H	0.379685	0.301269	0.333023
H246	H	0.713019	0.634602	0.666357
Cl247	Cl	0.197502	-0.063255	-0.000235
Cl248	Cl	0.530835	0.270078	0.333098
Cl249	Cl	0.864168	0.603411	0.666432
H250	H	0.734828	0.215057	0.665791
H251	H	1.068161	0.548390	0.999124
H252	H	1.401494	0.881723	1.332458
Cl253	Cl	0.841060	-0.060702	0.413771
Cl254	Cl	1.174393	0.272631	0.747104
Cl255	Cl	1.507727	0.605965	1.080438
Cl256	Cl	0.713918	0.240338	0.820970
Cl257	Cl	1.047251	0.573671	1.154303
Cl258	Cl	1.380585	0.907004	1.487636
H259	H	0.374670	0.218714	0.076780
H260	H	0.708003	0.552047	0.410114
H261	H	1.041337	0.885380	0.743447
H262	H	0.803994	0.249907	0.568929
H263	H	1.137328	0.583241	0.902263
H264	H	1.470661	0.916574	1.235596
H265	H	0.243232	0.216387	0.076757
H266	H	0.576566	0.549720	0.410091
H267	H	0.909899	0.883053	0.743424
H268	H	0.712987	-0.442976	-0.050043
H269	H	1.046321	-0.109643	0.283291
H270	H	1.379654	0.223690	0.616624
H271	H	0.803966	0.249905	0.430647
H272	H	1.137300	0.583239	0.763980
H273	H	1.470633	0.916572	1.097313
H274	H	0.734798	0.215044	0.333872
H275	H	1.068132	0.548377	0.667205
H276	H	1.401465	0.881711	1.000538
Cl277	Cl	0.696535	-0.454998	0.075464
Cl278	Cl	1.029868	-0.121664	0.408798
Cl279	Cl	1.363202	0.211669	0.742131
H280	H	0.016310	0.244828	-0.000256
H281	H	0.349643	0.578161	0.333077
H282	H	0.682977	0.911495	0.666411
H283	H	0.834031	-0.463382	-0.121128
H284	H	1.167365	-0.130049	0.212205
H285	H	1.500698	0.203285	0.545539
Cl286	Cl	0.253117	-0.021893	-0.096013
Cl287	Cl	0.586450	0.311440	0.237320
Cl288	Cl	0.919783	0.644773	0.570654
H289	H	0.493259	-0.024162	-0.000189
H290	H	0.826592	0.309171	0.333144
H291	H	1.159926	0.642504	0.666477
Cl292	Cl	0.943349	-0.492699	0.073822
Cl293	Cl	1.276682	-0.159366	0.407156
Cl294	Cl	1.610015	0.173968	0.740489
