data_functionalizedCrystal
_audit_creation_method	'MofGen! by Chris Wilmer'
_symmetry_space_group_name_H-M	'P1'
_symmetry_Int_Tables_number	1
_symmetry_cell_setting	triclinic
loop_
_symmetry_equiv_pos_as_xyz
  x,y,z
_cell_length_a	19.805407
_cell_length_b	19.121063
_cell_length_c	19.805399
_cell_angle_alpha	92.409585
_cell_angle_beta	89.983114
_cell_angle_gamma	92.469032
loop_
_atom_site_label
_atom_site_type_symbol
_atom_site_fract_x
_atom_site_fract_y
_atom_site_fract_z
Zn1	Zn	1.023216	-0.279621	-0.394202
Zn2	Zn	1.523216	0.220379	0.105798
Zn3	Zn	1.018304	-0.397076	-0.285838
Zn4	Zn	1.518304	0.102924	0.214162
Zn5	Zn	0.910035	-0.279643	-0.281028
Zn6	Zn	1.410035	0.220357	0.218972
Zn7	Zn	0.905164	-0.397036	-0.398983
Zn8	Zn	1.405164	0.102964	0.101017
O9	O	0.964180	-0.338344	-0.340013
O10	O	1.464180	0.161656	0.159987
O11	O	1.117280	-0.295209	-0.379840
O12	O	1.617280	0.204791	0.120160
O13	O	1.003925	-0.381524	-0.190484
O14	O	1.503925	0.118476	0.309516
O15	O	0.929142	-0.181355	-0.292027
O16	O	1.429142	0.318645	0.207973
O17	O	1.113672	-0.381503	-0.300225
O18	O	1.613672	0.118497	0.199775
O19	O	1.012296	-0.181339	-0.375176
O20	O	1.512296	0.318661	0.124824
O21	O	0.924380	-0.295247	-0.186950
O22	O	1.424380	0.204753	0.313050
O23	O	0.814672	-0.295208	-0.296663
O24	O	1.314672	0.204792	0.203337
O25	O	0.920841	-0.381434	-0.493064
O26	O	1.420841	0.118566	0.006936
O27	O	0.811094	-0.381456	-0.383323
O28	O	1.311094	0.118544	0.116677
O29	O	1.007573	-0.295170	-0.489552
O30	O	1.507573	0.204830	0.010448
O31	O	0.999202	-0.495355	-0.304860
O32	O	1.499202	0.004645	0.195140
O33	O	0.916079	-0.495326	-0.387987
O34	O	1.416079	0.004674	0.112013
C35	C	0.788324	-0.338330	-0.339990
C36	C	1.288324	0.161670	0.160010
C37	C	0.713092	-0.338341	-0.339997
C38	C	1.213092	0.161659	0.160003
C39	C	0.675899	-0.383318	-0.385054
C40	C	1.175899	0.116682	0.114946
C41	C	0.605211	-0.383320	-0.385064
C42	C	1.105211	0.116680	0.114936
C43	C	0.571716	-0.338347	-0.340013
C44	C	1.071716	0.161653	0.159987
C45	C	0.608914	-0.293365	-0.294954
C46	C	1.108914	0.206635	0.205046
C47	C	0.679601	-0.293361	-0.294948
C48	C	1.179601	0.206639	0.205052
C49	C	0.323840	-0.293381	-0.294977
C50	C	0.823840	0.206619	0.205023
C51	C	0.253147	-0.293390	-0.294985
C52	C	0.753147	0.206610	0.205015
C53	C	0.249449	-0.383339	-0.385093
C54	C	0.749449	0.116661	0.114907
C55	C	0.320137	-0.383335	-0.385087
C56	C	0.820137	0.116665	0.114913
C57	C	0.357328	-0.338351	-0.340031
C58	C	0.857328	0.161649	0.159969
C59	C	0.433977	-0.338349	-0.340022
C60	C	0.933977	0.161651	0.159978
C61	C	0.495069	-0.338352	-0.340018
C62	C	0.995069	0.161648	0.159982
C63	C	0.956597	-0.520824	-0.347479
C64	C	1.456597	-0.020824	0.152521
C65	C	0.953415	-0.598890	-0.350696
C66	C	1.453415	-0.098890	0.149304
C67	C	0.995232	-0.635558	-0.308963
C68	C	1.495232	-0.135558	0.191037
C69	C	0.992244	-0.708909	-0.311992
C70	C	1.492244	-0.208909	0.188008
C71	C	0.947434	-0.745592	-0.356751
C72	C	1.447434	-0.245592	0.143249
C73	C	0.905616	-0.708919	-0.398489
C74	C	1.405616	-0.208919	0.101511
C75	C	0.908608	-0.635569	-0.395462
C76	C	1.408608	-0.135569	0.104538
C77	C	0.936236	-0.967062	-0.368055
C78	C	1.436236	-0.467062	0.131945
C79	C	0.933245	-1.040417	-0.371077
C80	C	1.433245	-0.540417	0.128923
C81	C	1.019874	-1.040402	-0.284581
C82	C	1.519874	-0.540402	0.215419
C83	C	1.022860	-0.967051	-0.281556
C84	C	1.522860	-0.467051	0.218444
C85	C	0.981044	-0.930384	-0.323296
C86	C	1.481044	-0.430384	0.176704
C87	C	0.944377	-0.820569	-0.359847
C88	C	1.444377	-0.320569	0.140153
C89	C	0.984105	-0.855409	-0.320203
C90	C	1.484105	-0.355409	0.179797
C91	C	1.140722	-0.338358	-0.340036
C92	C	1.640722	0.161642	0.159964
C93	C	1.215954	-0.338364	-0.340045
C94	C	1.715954	0.161636	0.159955
C95	C	0.964211	-0.338295	-0.516553
C96	C	1.464211	0.161705	-0.016553
C97	C	0.964225	-0.338274	-0.591785
C98	C	1.464225	0.161726	-0.091785
C99	C	0.971810	-0.155150	-0.332532
C100	C	1.471810	0.344850	0.167468
C101	C	0.975062	-0.077084	-0.329344
C102	C	1.475062	0.422916	0.170656
C103	C	0.922818	-0.293345	-0.625288
C104	C	1.422818	0.206655	-0.125288
C105	C	0.922828	-0.293332	-0.695976
C106	C	1.422828	0.206668	-0.195976
C107	C	0.964249	-0.338244	-0.733159
C108	C	1.464249	0.161756	-0.233159
C109	C	1.005657	-0.383178	-0.699651
C110	C	1.505657	0.116822	-0.199651
C111	C	1.005643	-0.383194	-0.628964
C112	C	1.505643	0.116806	-0.128964
C113	C	1.005713	-0.383112	-0.984721
C114	C	1.505713	0.116888	-0.484721
C115	C	1.005726	-0.383090	-1.055413
C116	C	1.505726	0.116910	-0.555413
C117	C	0.922898	-0.293249	-1.051733
C118	C	1.422898	0.206751	-0.551733
C119	C	0.922884	-0.293266	-0.981047
C120	C	1.422884	0.206734	-0.481047
C121	C	0.964290	-0.338202	-0.947545
C122	C	1.464290	0.161798	-0.447545
C123	C	0.964278	-0.338217	-0.870897
C124	C	1.464278	0.161783	-0.370897
C125	C	0.964265	-0.338226	-0.809805
C126	C	1.464265	0.161774	-0.309805
C127	C	0.964189	-0.338342	-0.164157
C128	C	1.464189	0.161658	0.335843
C129	C	0.964315	-0.338164	-0.088918
C130	C	1.464315	0.161836	0.411082
H131	H	1.026295	-0.738761	-0.278008
H132	H	1.526295	-0.238761	0.221992
C133	C	0.877771	-0.244557	-0.585042
C134	C	1.377771	0.255443	-0.085042
C135	C	0.841497	-0.205222	-0.629517
C136	C	1.341497	0.294778	-0.129517
C137	C	0.799983	-0.160279	-0.592470
C138	C	1.299983	0.339721	-0.092470
H139	H	0.904856	-0.213899	-0.556216
H140	H	1.404856	0.286101	-0.056216
H141	H	0.847120	-0.271415	-0.558575
H142	H	1.347120	0.228585	-0.058575
H143	H	0.872144	-0.178366	-0.655973
H144	H	1.372144	0.321634	-0.155973
H145	H	0.814399	-0.235861	-0.658345
H146	H	1.314399	0.264139	-0.158345
H147	H	0.769332	-0.187137	-0.566003
H148	H	1.269332	0.312863	-0.066003
H149	H	0.827073	-0.129627	-0.563645
H150	H	1.327073	0.370373	-0.063645
H151	H	0.775361	-0.133590	-0.622641
H152	H	1.275361	0.366410	-0.122641
C153	C	0.564804	-0.432041	-0.434061
C154	C	1.064804	0.067959	0.065939
C155	C	0.525902	-0.392341	-0.475905
C156	C	1.025902	0.107659	0.024095
C157	C	0.488679	-0.437201	-0.521059
C158	C	0.988679	0.062799	-0.021059
H159	H	0.535893	-0.462624	-0.409453
H160	H	1.035893	0.037376	0.090547
H161	H	0.594858	-0.458813	-0.460925
H162	H	1.094858	0.041187	0.039075
H163	H	0.495850	-0.365581	-0.449045
H164	H	0.995850	0.134419	0.050955
H165	H	0.554795	-0.361760	-0.500528
H166	H	1.054795	0.138240	-0.000528
H167	H	0.518734	-0.463973	-0.547922
H168	H	1.018734	0.036027	-0.047922
H169	H	0.459773	-0.467781	-0.496445
H170	H	0.959773	0.032219	0.003555
H171	H	0.462285	-0.410271	-0.549459
H172	H	0.962285	0.089729	-0.049459
C173	C	0.877824	-0.244506	-1.088023
C174	C	1.377824	0.255494	-0.588023
C175	C	0.810217	-0.259784	-1.071426
C176	C	1.310217	0.240216	-0.571426
C177	C	0.768679	-0.214890	-1.104834
C178	C	1.268679	0.285110	-0.604834
H179	H	0.883669	-0.250882	-1.135455
H180	H	1.383669	0.249118	-0.635455
H181	H	0.889656	-0.197308	-1.074499
H182	H	1.389656	0.302692	-0.574499
H183	H	0.798389	-0.306971	-1.084954
H184	H	1.298389	0.193029	-0.584954
H185	H	0.804351	-0.253403	-1.024000
H186	H	1.304351	0.246597	-0.524000
H187	H	0.780511	-0.167692	-1.091310
H188	H	1.280511	0.332308	-0.591310
H189	H	0.774530	-0.221270	-1.152264
H190	H	1.274530	0.278730	-0.652264
H191	H	0.722804	-0.225246	-1.093573
H192	H	1.222804	0.274754	-0.593573
H193	H	1.059347	-0.937185	-0.245109
H194	H	1.559347	-0.437185	0.254891
H195	H	0.896764	-1.070281	-0.407537
H196	H	1.396764	-0.570281	0.092463
H197	H	0.907892	-0.850443	-0.396289
H198	H	1.407892	-0.350443	0.103711
C199	C	1.065251	-1.080339	-0.239355
C200	C	1.565251	-0.580339	0.260645
C201	C	1.053058	-1.152427	-0.251598
C202	C	1.553058	-0.652427	0.248402
C203	C	1.094860	-1.189237	-0.209957
C204	C	1.594860	-0.689237	0.290043
H205	H	1.055910	-1.068447	-0.193349
H206	H	1.555910	-0.568447	0.306651
H207	H	1.111225	-1.068308	-0.248822
H208	H	1.611225	-0.568308	0.251178
H209	H	1.007095	-1.164453	-0.242126
H210	H	1.507095	-0.664453	0.257874
H211	H	1.062403	-1.164340	-0.297596
H212	H	1.562403	-0.664340	0.202404
H213	H	1.140833	-1.177207	-0.219424
H214	H	1.640833	-0.677207	0.280576
H215	H	1.085515	-1.177340	-0.163953
H216	H	1.585515	-0.677340	0.336047
H217	H	1.086597	-1.238153	-0.218262
H218	H	1.586597	-0.738153	0.281738
C219	C	0.857071	-0.748834	-0.447128
C220	C	1.357071	-0.248834	0.052872
C221	C	0.893650	-0.790896	-0.492269
C222	C	1.393650	-0.290896	0.007731
C223	C	0.848951	-0.827681	-0.537078
C224	C	1.348951	-0.327681	-0.037078
H225	H	0.832576	-0.716570	-0.471618
H226	H	1.332576	-0.216570	0.028382
H227	H	0.826436	-0.777531	-0.422409
H228	H	1.326436	-0.277531	0.077591
H229	H	0.924273	-0.762202	-0.516985
H230	H	1.424273	-0.262202	-0.016985
H231	H	0.918143	-0.823173	-0.467797
H232	H	1.418143	-0.323173	0.032203
H233	H	0.818316	-0.856378	-0.512359
H234	H	1.318316	-0.356378	-0.012359
H235	H	0.824458	-0.795412	-0.561563
H236	H	1.324458	-0.295412	-0.061563
H237	H	0.873762	-0.856229	-0.567707
H238	H	1.373762	-0.356229	-0.067707
C239	C	0.863130	-0.595882	-0.440806
C240	C	1.363130	-0.095882	0.059194
C241	C	0.823236	-0.643704	-0.480641
C242	C	1.323236	-0.143704	0.019359
C243	C	0.781330	-0.607172	-0.522419
C244	C	1.281330	-0.107172	-0.022419
H245	H	0.890101	-0.567225	-0.469197
H246	H	1.390101	-0.067225	0.030803
H247	H	0.834783	-0.567324	-0.413728
H248	H	1.334783	-0.067324	0.086272
H249	H	0.851580	-0.672250	-0.507717
H250	H	1.351580	-0.172250	-0.007717
H251	H	0.796251	-0.672363	-0.452268
H252	H	1.296251	-0.172363	0.047732
H253	H	0.752982	-0.578614	-0.495341
H254	H	1.252982	-0.078614	0.004659
H255	H	0.808306	-0.578516	-0.550806
H256	H	1.308306	-0.078516	-0.050806
H257	H	0.754252	-0.639613	-0.549447
H258	H	1.254252	-0.139613	-0.049447
H259	H	0.347404	-0.419959	-0.421770
H260	H	0.847404	0.080041	0.078230
H261	H	0.219160	-0.419965	-0.421782
H262	H	0.719160	0.080035	0.078218
C263	C	0.877773	-0.244672	-0.732385
C264	C	1.377773	0.255328	-0.232385
C265	C	0.832725	-0.284433	-0.774560
C266	C	1.332725	0.215567	-0.274560
C267	C	0.791196	-0.239634	-0.808100
C268	C	1.291196	0.260366	-0.308100
H269	H	0.904855	-0.214047	-0.758775
H270	H	1.404855	0.285953	-0.258775
H271	H	0.853066	-0.217943	-0.700132
H272	H	1.353066	0.282057	-0.200132
H273	H	0.857430	-0.311151	-0.806809
H274	H	1.357430	0.188849	-0.306809
H275	H	0.805628	-0.315056	-0.748187
H276	H	1.305628	0.184944	-0.248187
H277	H	0.766489	-0.212905	-0.775847
H278	H	1.266489	0.287095	-0.275847
H279	H	0.818284	-0.209012	-0.834486
H280	H	1.318284	0.290988	-0.334486
H281	H	0.760622	-0.266606	-0.836715
H282	H	1.260622	0.233394	-0.336715
C283	C	1.050554	-0.432089	-0.592676
C284	C	1.550554	0.067911	-0.092676
C285	C	1.032933	-0.501573	-0.612719
C286	C	1.532933	-0.001573	-0.112719
C287	C	1.074293	-0.546638	-0.579311
C288	C	1.574293	-0.046638	-0.079311
H289	H	1.044650	-0.425764	-0.545247
H290	H	1.544650	0.074236	-0.045247
H291	H	1.096473	-0.421856	-0.603859
H292	H	1.596473	0.078144	-0.103859
H293	H	0.987025	-0.511802	-0.601530
H294	H	1.487025	-0.011802	-0.101530
H295	H	1.038840	-0.507920	-0.660143
H296	H	1.538840	-0.007920	-0.160143
H297	H	1.120212	-0.536405	-0.590495
H298	H	1.620212	-0.036405	-0.090495
H299	H	1.068386	-0.540306	-0.531883
H300	H	1.568386	-0.040306	-0.031883
H301	H	1.062347	-0.593787	-0.592910
H302	H	1.562347	-0.093787	-0.092910
H303	H	1.039379	-0.419750	-0.729931
H304	H	1.539379	0.080250	-0.229931
H305	H	1.039457	-0.419666	-1.085685
H306	H	1.539457	0.080334	-0.585685
C307	C	0.890746	-0.927385	-0.413391
C308	C	1.390746	-0.427385	0.086609
C309	C	0.850847	-0.975212	-0.453217
C310	C	1.350847	-0.475212	0.046783
C311	C	0.808922	-0.938685	-0.494979
C312	C	1.308922	-0.438685	0.005021
H313	H	0.917703	-0.898723	-0.441789
H314	H	1.417703	-0.398723	0.058211
H315	H	0.862401	-0.898834	-0.386303
H316	H	1.362401	-0.398834	0.113697
H317	H	0.879188	-1.003752	-0.480302
H318	H	1.379188	-0.503752	0.019698
H319	H	0.823875	-1.003877	-0.424837
H320	H	1.323875	-0.503877	0.075163
H321	H	0.780577	-0.910134	-0.467891
H322	H	1.280577	-0.410134	0.032109
H323	H	0.835885	-0.910024	-0.523373
H324	H	1.335885	-0.410024	-0.023373
H325	H	0.781841	-0.971130	-0.522001
H326	H	1.281841	-0.471130	-0.022001
C327	C	1.050750	-0.431914	-0.948476
C328	C	1.550750	0.068086	-0.448476
C329	C	1.087044	-0.471222	-0.996171
C330	C	1.587044	0.028778	-0.496171
C331	C	1.128551	-0.516178	-0.962804
C332	C	1.628551	-0.016178	-0.462804
H333	H	1.023659	-0.462588	-0.922145
H334	H	1.523659	0.037412	-0.422145
H335	H	1.081390	-0.405067	-0.919826
H336	H	1.581390	0.094933	-0.419826
H337	H	1.056409	-0.498068	-1.024810
H338	H	1.556409	0.001932	-0.524810
H339	H	1.114149	-0.440567	-1.022504
H340	H	1.614149	0.059433	-0.522504
H341	H	1.159190	-0.489331	-0.934154
H342	H	1.659190	0.010669	-0.434154
H343	H	1.101454	-0.546847	-0.936474
H344	H	1.601454	-0.046847	-0.436474
H345	H	1.153185	-0.542850	-0.995159
H346	H	1.653185	-0.042850	-0.495159
H347	H	0.889158	-0.256691	-0.950776
H348	H	1.389158	0.243309	-0.450776
H349	H	0.225878	-0.256763	-0.258298
H350	H	0.725878	0.243237	0.241702
H351	H	0.703165	-0.419943	-0.421738
H352	H	1.203165	0.080057	0.078262
H353	H	0.354113	-0.256757	-0.258284
H354	H	0.854113	0.243243	0.241716
H355	H	0.581637	-0.256745	-0.258275
H356	H	1.081637	0.243255	0.241725
H357	H	0.709883	-0.256732	-0.258261
H358	H	1.209883	0.243268	0.241739
H359	H	1.020591	-0.825540	-0.283762
H360	H	1.520591	-0.325540	0.216238
C361	C	1.043951	-0.595861	-0.260344
C362	C	1.543951	-0.095861	0.239656
C363	C	1.079945	-0.643677	-0.224457
C364	C	1.579945	-0.143677	0.275543
C365	C	1.124838	-0.607137	-0.179670
C366	C	1.624838	-0.107137	0.320330
H367	H	1.019319	-0.567289	-0.229589
H368	H	1.519319	-0.067289	0.270411
H369	H	1.074631	-0.567218	-0.285065
H370	H	1.574631	-0.067218	0.214935
H371	H	1.049269	-0.672308	-0.199737
H372	H	1.549269	-0.172308	0.300263
H373	H	1.104590	-0.672251	-0.255194
H374	H	1.604590	-0.172251	0.244806
H375	H	1.155518	-0.578493	-0.204391
H376	H	1.655518	-0.078493	0.295609
H377	H	1.100201	-0.578566	-0.148920
H378	H	1.600201	-0.078566	0.351080
H379	H	1.149270	-0.639574	-0.155320
H380	H	1.649270	-0.139574	0.344680
