data_functionalizedCrystal
_audit_creation_method	'MofGen! by Chris Wilmer'
_symmetry_space_group_name_H-M	'P1'
_symmetry_Int_Tables_number	1
_symmetry_cell_setting	triclinic
loop_
_symmetry_equiv_pos_as_xyz
  x,y,z
_cell_length_a	18.101397
_cell_length_b	21.295420
_cell_length_c	18.101389
_cell_angle_alpha	89.980946
_cell_angle_beta	89.978953
_cell_angle_gamma	90.016247
loop_
_atom_site_label
_atom_site_type_symbol
_atom_site_fract_x
_atom_site_fract_y
_atom_site_fract_z
Zn1	Zn	-0.294991	0.962365	-0.418721
Zn2	Zn	0.038343	1.295698	-0.085388
Zn3	Zn	0.371676	1.629032	0.247946
Zn4	Zn	-0.418816	0.962296	-0.294874
Zn5	Zn	-0.085483	1.295629	0.038460
Zn6	Zn	0.247850	1.628963	0.371793
Zn7	Zn	-0.294984	0.857098	-0.294894
Zn8	Zn	0.038349	1.190432	0.038440
Zn9	Zn	0.371683	1.523765	0.371773
Zn10	Zn	-0.418786	0.857076	-0.418674
Zn11	Zn	-0.085452	1.190409	-0.085340
Zn12	Zn	0.247881	1.523743	0.247993
O13	O	-0.356894	0.909709	-0.356791
O14	O	-0.023561	1.243042	-0.023457
O15	O	0.309773	1.576375	0.309876
O16	O	-0.311432	1.050445	-0.402304
O17	O	0.021901	1.383778	-0.068971
O18	O	0.355235	1.717112	0.264363
O19	O	-0.402400	0.948322	-0.191243
O20	O	-0.069066	1.281655	0.142090
O21	O	0.264267	1.614988	0.475423
O22	O	-0.191352	0.871100	-0.311348
O23	O	0.141981	1.204434	0.021986
O24	O	0.475315	1.537767	0.355319
O25	O	-0.402406	1.050394	-0.311314
O26	O	-0.069073	1.383728	0.022019
O27	O	0.264261	1.717061	0.355353
O28	O	-0.191357	0.948439	-0.402323
O29	O	0.141977	1.281773	-0.068990
O30	O	0.475310	1.615106	0.264344
O31	O	-0.311421	0.871033	-0.191258
O32	O	0.021913	1.204367	0.142075
O33	O	0.355246	1.537700	0.475409
O34	O	-0.311391	0.769006	-0.311302
O35	O	0.021942	1.102339	0.022032
O36	O	0.355276	1.435673	0.355365
O37	O	-0.402354	0.871062	-0.522313
O38	O	-0.069021	1.204396	-0.188980
O39	O	0.264313	1.537729	0.144354
O40	O	-0.402348	0.768990	-0.402243
O41	O	-0.069014	1.102323	-0.068909
O42	O	0.264319	1.435656	0.264424
O43	O	-0.311402	0.948418	-0.522348
O44	O	0.021931	1.281751	-0.189014
O45	O	0.355264	1.615084	0.144319
O46	O	-0.522445	0.948300	-0.311268
O47	O	-0.189112	1.281633	0.022065
O48	O	0.144222	1.614967	0.355399
O49	O	-0.522423	0.870995	-0.402223
O50	O	-0.189089	1.204329	-0.068890
O51	O	0.144244	1.537662	0.264443
C52	C	-0.356866	0.746157	-0.356770
C53	C	-0.023532	1.079490	-0.023436
C54	C	0.309801	1.412824	0.309897
C55	C	-0.356872	0.676189	-0.356778
C56	C	-0.023538	1.009522	-0.023445
C57	C	0.309795	1.342856	0.309888
C58	C	-0.309636	0.176757	-0.404257
C59	C	0.023698	0.510090	-0.070924
C60	C	0.357031	0.843423	0.262410
C61	C	-0.309630	0.242499	-0.404257
C62	C	0.023703	0.575833	-0.070924
C63	C	0.357037	0.909166	0.262410
C64	C	-0.356917	0.275350	-0.356808
C65	C	-0.023583	0.608683	-0.023474
C66	C	0.309750	0.942016	0.309859
C67	C	-0.404226	0.242452	-0.309368
C68	C	-0.070892	0.575785	0.023965
C69	C	0.262441	0.909119	0.357298
C70	C	-0.404235	0.176711	-0.309375
C71	C	-0.070902	0.510044	0.023958
C72	C	0.262431	0.843377	0.357292
N73	N	-0.362489	0.378546	-0.291962
N74	N	-0.029156	0.711879	0.041371
N75	N	0.304178	1.045212	0.374704
N76	N	-0.362476	0.440997	-0.291958
N77	N	-0.029142	0.774330	0.041375
N78	N	0.304191	1.107664	0.374709
C79	C	-0.356892	0.473424	-0.356786
C80	C	-0.023559	0.806758	-0.023453
C81	C	0.309774	1.140091	0.309881
N82	N	-0.351308	0.441041	-0.421620
N83	N	-0.017975	0.774374	-0.088286
N84	N	0.315359	1.107707	0.245047
N85	N	-0.351318	0.378584	-0.421623
N86	N	-0.017984	0.711917	-0.088290
N87	N	0.315349	1.045250	0.245044
C88	C	-0.356912	0.346635	-0.356796
C89	C	-0.023579	0.679968	-0.023462
C90	C	0.309755	1.013302	0.309871
C91	C	-0.309584	0.577600	-0.404226
C92	C	0.023749	0.910933	-0.070893
C93	C	0.357083	1.244266	0.262441
C94	C	-0.309584	0.643343	-0.404227
C95	C	0.023750	0.976677	-0.070894
C96	C	0.357083	1.310010	0.262440
C97	C	-0.404175	0.643295	-0.309332
C98	C	-0.070842	0.976628	0.024001
C99	C	0.262491	1.309961	0.357335
C100	C	-0.404180	0.577552	-0.309337
C101	C	-0.070846	0.910886	0.023996
C102	C	0.262487	1.244219	0.357329
C103	C	-0.356880	0.544709	-0.356783
C104	C	-0.023547	0.878042	-0.023450
C105	C	0.309787	1.211375	0.309883
C106	C	-0.549305	0.909655	-0.356755
C107	C	-0.215971	1.242988	-0.023421
C108	C	0.117362	1.576322	0.309912
C109	C	-0.631619	0.909689	-0.356764
C110	C	-0.298285	1.243023	-0.023431
C111	C	0.035048	1.576356	0.309903
C112	C	-0.930710	0.909770	-0.356832
C113	C	-0.597376	1.243103	-0.023498
C114	C	-0.264043	1.576436	0.309835
C115	C	-0.899368	0.958272	-0.299452
C116	C	-0.566034	1.291605	0.033882
C117	C	-0.232701	1.624939	0.367215
C118	C	-0.813749	0.958440	-0.299600
C119	C	-0.480416	1.291773	0.033733
C120	C	-0.147083	1.625107	0.367066
C121	C	-0.782327	0.909730	-0.356797
C122	C	-0.448994	1.243063	-0.023464
C123	C	-0.115661	1.576397	0.309869
C124	C	-0.813349	0.927713	-0.434858
C125	C	-0.480016	1.261046	-0.101525
C126	C	-0.146682	1.594379	0.231809
C127	C	-0.898994	0.928088	-0.434546
C128	C	-0.565661	1.261421	-0.101212
C129	C	-0.232327	1.594755	0.232121
C130	C	-0.899210	0.843155	-0.336826
C131	C	-0.565876	1.176489	-0.003493
C132	C	-0.232543	1.509822	0.329840
C133	C	-0.813560	0.843484	-0.335084
C134	C	-0.480227	1.176818	-0.001751
C135	C	-0.146893	1.510151	0.331583
C136	C	-0.698468	0.909706	-0.356783
C137	C	-0.365134	1.243040	-0.023450
C138	C	-0.031801	1.576373	0.309884
C139	C	-1.014569	0.909795	-0.356851
C140	C	-0.681236	1.243128	-0.023518
C141	C	-0.347902	1.576462	0.309815
C142	C	-0.163732	0.909780	-0.356843
C143	C	0.169601	1.243113	-0.023509
C144	C	0.502934	1.576447	0.309824
C145	C	-0.081418	0.909810	-0.356865
C146	C	0.251915	1.243144	-0.023532
C147	C	0.585249	1.576477	0.309802
C148	C	-0.356875	0.909745	-0.549953
C149	C	-0.023542	1.243078	-0.216619
C150	C	0.309791	1.576412	0.116714
C151	C	-0.356867	0.909761	-0.632267
C152	C	-0.023534	1.243094	-0.298933
C153	C	0.309799	1.576427	0.034400
C154	C	-0.356923	1.073899	-0.356812
C155	C	-0.023590	1.407232	-0.023479
C156	C	0.309744	1.740566	0.309855
C157	C	-0.356935	1.143867	-0.356821
C158	C	-0.023602	1.477200	-0.023488
C159	C	0.309731	1.810534	0.309846
C160	C	-0.356729	0.909797	-0.931358
C161	C	-0.023395	1.243131	-0.598024
C162	C	0.309938	1.576464	-0.264691
C163	C	-0.413771	0.860960	-0.900011
C164	C	-0.080438	1.194293	-0.566677
C165	C	0.252896	1.527626	-0.233344
C166	C	-0.414036	0.861092	-0.814392
C167	C	-0.080702	1.194425	-0.481059
C168	C	0.252631	1.527758	-0.147726
C169	C	-0.356798	0.909779	-0.782975
C170	C	-0.023464	1.243112	-0.449642
C171	C	0.309869	1.576445	-0.116309
C172	C	-0.377987	0.976104	-0.814073
C173	C	-0.044654	1.309438	-0.480739
C174	C	0.288679	1.642771	-0.147406
C175	C	-0.378362	0.975832	-0.899718
C176	C	-0.045028	1.309166	-0.566384
C177	C	0.288305	1.642499	-0.233051
C178	C	-0.278370	0.892885	-0.899787
C179	C	0.054964	1.226219	-0.566454
C180	C	0.388297	1.559552	-0.233121
C181	C	-0.278822	0.891410	-0.814137
C182	C	0.054511	1.224743	-0.480803
C183	C	0.387844	1.558076	-0.147470
C184	C	-0.356835	0.909772	-0.699116
C185	C	-0.023502	1.243105	-0.365782
C186	C	0.309831	1.576439	-0.032449
C187	C	-0.356693	0.909808	-1.015217
C188	C	-0.023359	1.243142	-0.681884
C189	C	0.309974	1.576475	-0.348551
C190	C	-0.356859	0.909709	-0.164380
C191	C	-0.023526	1.243042	0.168953
C192	C	0.309807	1.576375	0.502287
C193	C	-0.356659	0.909815	-0.082066
C194	C	-0.023325	1.243149	0.251267
C195	C	0.310008	1.576482	0.584600
H196	H	-0.442693	0.550773	-0.270707
H197	H	-0.109360	0.884106	0.062627
H198	H	0.223974	1.217440	0.395960
Cl199	Cl	-0.250121	0.684691	-0.463873
Cl200	Cl	0.083212	1.018024	-0.130540
Cl201	Cl	0.416546	1.351358	0.202794
Cl202	Cl	-0.465486	0.998622	-0.780965
Cl203	Cl	-0.132153	1.331956	-0.447631
Cl204	Cl	0.201180	1.665289	-0.114298
Cl205	Cl	-0.250179	0.135471	-0.463910
Cl206	Cl	0.083154	0.468804	-0.130576
Cl207	Cl	0.416487	0.802138	0.202757
Cl208	Cl	-0.316961	1.033883	-0.931740
Cl209	Cl	0.016373	1.367217	-0.598406
Cl210	Cl	0.349706	1.700550	-0.265073
H211	H	-0.442683	0.670041	-0.270704
H212	H	-0.109350	1.003374	0.062630
H213	H	0.223984	1.336707	0.395963
Cl214	Cl	-0.781366	0.941030	-0.210248
Cl215	Cl	-0.448033	1.274363	0.123086
Cl216	Cl	-0.114700	1.607696	0.456419
H217	H	-0.259065	0.845361	-0.921379
H218	H	0.074268	1.178694	-0.588046
H219	H	0.407602	1.512027	-0.254713
H220	H	-0.919479	0.807017	-0.378619
H221	H	-0.586146	1.140351	-0.045285
H222	H	-0.252812	1.473684	0.288048
Cl223	Cl	-0.250161	0.283855	-0.463893
Cl224	Cl	0.083173	0.617188	-0.130560
Cl225	Cl	0.416506	0.950522	0.202773
Cl226	Cl	-0.254152	0.816047	-0.782765
Cl227	Cl	0.079181	1.149380	-0.449432
Cl228	Cl	0.412514	1.482713	-0.116099
Cl229	Cl	-0.931005	0.875909	-0.502796
Cl230	Cl	-0.597672	1.209243	-0.169463
Cl231	Cl	-0.264338	1.542576	0.163871
H232	H	-0.792994	0.893466	-0.478760
H233	H	-0.459661	1.226799	-0.145427
H234	H	-0.126327	1.560133	0.187906
Cl235	Cl	-0.780158	1.002049	-0.461466
Cl236	Cl	-0.446825	1.335382	-0.128133
Cl237	Cl	-0.113491	1.668715	0.205201
Cl238	Cl	-0.209720	0.942327	-0.781132
Cl239	Cl	0.123613	1.275660	-0.447798
Cl240	Cl	0.456946	1.608993	-0.114465
Cl241	Cl	-0.393559	0.785158	-0.781926
Cl242	Cl	-0.060226	1.118491	-0.448592
Cl243	Cl	0.273107	1.451824	-0.115259
Cl244	Cl	-0.932635	0.817896	-0.250467
Cl245	Cl	-0.599301	1.151230	0.082866
Cl246	Cl	-0.265968	1.484563	0.416199
H247	H	-0.918920	0.976780	-0.451492
H248	H	-0.585587	1.310114	-0.118158
H249	H	-0.252253	1.643447	0.215175
H250	H	-0.235870	0.928456	-0.920061
H251	H	0.097463	1.261790	-0.586728
H252	H	0.430797	1.595123	-0.253395
H253	H	-0.442729	0.269203	-0.270737
H254	H	-0.109395	0.602536	0.062596
H255	H	0.223938	0.935869	0.395930
Cl256	Cl	-0.250125	0.536307	-0.463874
Cl257	Cl	0.083208	0.869641	-0.130540
Cl258	Cl	0.416541	1.202974	0.202793
Cl259	Cl	-0.931227	0.941118	-0.209818
Cl260	Cl	-0.597894	1.274451	0.123516
Cl261	Cl	-0.264560	1.607785	0.456849
Cl262	Cl	-0.463699	0.135361	-0.249733
Cl263	Cl	-0.130366	0.468695	0.083601
Cl264	Cl	0.202967	0.802028	0.416934
Cl265	Cl	-0.315860	1.033797	-0.782660
Cl266	Cl	0.017474	1.367130	-0.449327
Cl267	Cl	0.350807	1.700463	-0.115993
Cl268	Cl	-0.393506	0.784792	-0.931795
Cl269	Cl	-0.060172	1.118126	-0.598462
Cl270	Cl	0.273161	1.451459	-0.265129
Cl271	Cl	-0.932517	1.034042	-0.319651
Cl272	Cl	-0.599184	1.367375	0.013682
Cl273	Cl	-0.265851	1.700708	0.347015
H274	H	-0.793212	1.007784	-0.312837
H275	H	-0.459879	1.341118	0.020497
H276	H	-0.126546	1.674451	0.353830
H277	H	-0.793291	0.829925	-0.277638
H278	H	-0.459957	1.163258	0.055696
H279	H	-0.126624	1.496591	0.389029
H280	H	-0.792178	0.805402	-0.373816
H281	H	-0.458844	1.138736	-0.040483
H282	H	-0.125511	1.472069	0.292851
H283	H	-0.471499	0.872015	-0.921532
H284	H	-0.138165	1.205348	-0.588199
H285	H	0.195168	1.538682	-0.254866
H286	H	-0.472118	0.872258	-0.793906
H287	H	-0.138784	1.205591	-0.460573
H288	H	0.194549	1.538925	-0.127240
Cl289	Cl	-0.466800	0.997963	-0.930567
Cl290	Cl	-0.133467	1.331297	-0.597234
Cl291	Cl	0.199867	1.664630	-0.263901
