data_functionalizedCrystal
_audit_creation_method	'MofGen! by Chris Wilmer'
_symmetry_space_group_name_H-M	'P1'
_symmetry_Int_Tables_number	1
_symmetry_cell_setting	triclinic
loop_
_symmetry_equiv_pos_as_xyz
  x,y,z
_cell_length_a	10.654554
_cell_length_b	13.262508
_cell_length_c	9.130313
_cell_angle_alpha	105.917062
_cell_angle_beta	89.999583
_cell_angle_gamma	84.460197
loop_
_atom_site_label
_atom_site_type_symbol
_atom_site_fract_x
_atom_site_fract_y
_atom_site_fract_z
O1	O	1.667065	0.147443	-0.063065
O2	O	1.301514	0.161484	-0.057473
O3	O	1.493486	0.001740	-0.121103
O4	O	1.475094	0.307186	0.000565
O5	O	1.493483	0.001745	0.122497
O6	O	1.301512	0.161488	0.186127
O7	O	1.667063	0.147447	0.180535
Cu8	Cu	1.484287	0.154468	0.205574
Cu9	Cu	1.484290	0.154463	-0.082512
O10	O	1.475091	0.307191	0.244166
C11	C	1.254721	0.160454	0.063916
C12	C	1.115294	0.157366	0.062685
C13	C	0.933250	0.057506	0.022896
C14	C	1.064257	0.060406	0.024062
C15	C	1.035316	0.251432	0.100161
C16	C	0.904312	0.248531	0.099005
C17	C	0.882221	-0.039460	-0.015745
C18	C	0.962190	-0.133526	-0.053218
C19	C	1.093196	-0.130626	-0.052052
C20	C	1.144234	-0.033659	-0.013414
C21	C	1.492454	-0.037369	-0.014885
C22	C	1.489367	-0.153908	-0.061316
C23	C	1.480654	-0.482415	0.338968
C24	C	1.483545	-0.372920	0.382594
C25	C	1.485001	-0.318162	0.271620
C26	C	1.483565	-0.372909	0.117013
C27	C	1.480665	-0.482414	0.073384
C28	C	1.485011	-0.318160	0.006036
C29	C	1.483576	-0.372907	-0.148571
C30	C	1.480677	-0.482402	-0.192193
C31	C	1.479221	-0.537160	-0.081219
C32	C	1.487912	-0.208655	0.049665
C33	C	1.487923	-0.208654	-0.215919
C34	C	1.485032	-0.318149	-0.259544
C35	C	1.713856	0.148477	0.059143
C36	C	1.853283	0.151565	0.060364
C37	C	1.476123	0.346300	0.137944
C38	C	1.479210	0.462839	0.184365
N39	N	1.484294	0.154471	0.408198
N40	N	1.484293	0.154452	-0.285139
C41	C	1.569321	0.083761	0.456684
C42	C	1.569318	0.083748	0.610016
C43	C	1.399257	0.225165	0.666365
C44	C	1.399255	0.225172	0.513034
C45	C	1.654360	0.013060	0.351848
C46	C	1.739395	-0.057655	0.400332
C47	C	1.739391	-0.057668	0.553664
C48	C	1.654353	0.013035	0.658511
H49	H	1.250910	-0.031305	-0.012454
H50	H	1.158304	-0.207219	-0.082551
H51	H	1.076882	0.330378	0.131617
H52	H	1.479497	-0.526973	-0.318083
O53	O	1.479017	-0.535540	0.446814
C54	C	1.371103	-0.497679	0.542697
H55	H	1.295974	-0.459812	0.480090
H56	H	1.397346	-0.436640	0.649830
C57	C	1.411535	-0.636438	0.664186
C58	C	1.319256	-0.589937	0.587285
H59	H	1.379555	-0.693344	0.691697
H60	H	1.484241	-0.661944	0.599592
H61	H	1.433396	-0.585561	0.753453
H62	H	1.297408	-0.640809	0.498010
H63	H	1.246545	-0.564441	0.651865
H64	H	0.775551	-0.041832	-0.016703
O65	O	1.489113	-0.155361	-0.323613
C66	C	1.382106	-0.080978	-0.301898
H67	H	1.346377	-0.060862	-0.178573
H68	H	1.304899	-0.115448	-0.381082
C69	C	1.461657	-0.005043	-0.489272
C70	C	1.417781	0.019670	-0.337798
H71	H	1.483660	0.057040	-0.511423
H72	H	1.533748	-0.055159	-0.503907
H73	H	1.397311	-0.033770	-0.555241
H74	H	1.482132	0.048384	-0.271832
H75	H	1.345701	0.069793	-0.323153
O76	O	1.654494	0.012899	0.202834
C77	C	1.747803	-0.064644	0.120704
H78	H	1.769391	-0.127008	0.184213
H79	H	1.837233	-0.026473	0.108714
C80	C	1.673249	-0.040070	-0.116605
C81	C	1.699755	-0.116671	-0.038609
H82	H	1.643615	-0.072160	-0.214879
H83	H	1.610387	0.012175	-0.061273
H84	H	1.747780	-0.008267	-0.126581
H85	H	1.625222	-0.148464	-0.028616
H86	H	1.762604	-0.168923	-0.093943
H87	H	1.484726	-0.328354	0.508473
H88	H	1.330017	0.282749	0.473558
O89	O	1.316611	0.293701	0.768316
C90	C	1.238831	0.236879	0.834347
H91	H	1.288425	0.155132	0.824740
H92	H	1.145978	0.229029	0.772132
C93	C	1.151394	0.396245	1.015296
C94	C	1.212310	0.295844	1.003507
H95	H	1.135028	0.432618	1.119640
H96	H	1.203792	0.434528	0.970806
H97	H	1.074023	0.389689	0.963441
H98	H	1.289686	0.302401	1.055345
H99	H	1.159924	0.257563	1.048009
H100	H	0.839200	0.325121	0.129521
H101	H	1.489069	-0.164090	0.175547
H102	H	1.808623	-0.115225	0.314956
H103	H	1.487352	-0.229006	0.307149
O104	O	0.912765	-0.227777	-0.090967
C105	C	0.953563	-0.285162	-0.240004
H106	H	1.044569	-0.255898	-0.270400
H107	H	0.877832	-0.273555	-0.323730
C108	C	0.865719	-0.439000	-0.211313
C109	C	0.977500	-0.403063	-0.248641
H110	H	0.880480	-0.511728	-0.216645
H111	H	0.838228	-0.400339	-0.110906
H112	H	0.802621	-0.429318	-0.281090
H113	H	1.040591	-0.412734	-0.178853
H114	H	1.005003	-0.441730	-0.349037
H115	H	1.476874	-0.626321	-0.116732
H116	H	1.483862	-0.362740	-0.385427
H117	H	1.808621	-0.115253	0.593134
H118	H	1.654349	0.013012	0.783359
