data_functionalizedCrystal
_audit_creation_method	'MofGen! by Chris Wilmer'
_symmetry_space_group_name_H-M	'P1'
_symmetry_Int_Tables_number	1
_symmetry_cell_setting	triclinic
loop_
_symmetry_equiv_pos_as_xyz
  x,y,z
_cell_length_a	6.817900
_cell_length_b	21.116688
_cell_length_c	14.125465
_cell_angle_alpha	84.236599
_cell_angle_beta	79.601122
_cell_angle_gamma	104.480064
loop_
_atom_site_label
_atom_site_type_symbol
_atom_site_fract_x
_atom_site_fract_y
_atom_site_fract_z
V1	V	-3.996392	-0.089991	0.300569
O2	O	-3.979232	0.004903	0.294234
O3	O	-3.953168	-0.178993	0.299103
O4	O	-3.932442	-0.088352	0.431388
O5	O	-4.000101	-0.086365	0.161033
V6	V	-4.481364	-0.078670	0.283807
O7	O	-4.254471	-0.114823	0.337336
O8	O	-4.673482	-0.053838	0.247040
O9	O	-4.301382	0.010332	0.285273
O10	O	-4.615921	-0.173564	0.290142
O11	O	-4.595052	-0.082296	0.423343
O12	O	-4.322108	-0.080308	0.152988
C13	C	-3.799931	-0.200697	0.294513
C14	C	-3.845773	-0.273456	0.294186
C15	C	-4.117976	0.032033	0.289861
C16	C	-4.050127	0.106157	0.290214
V17	V	-4.202168	0.226379	0.285247
O18	O	-4.334515	0.202354	0.424690
O19	O	-4.017858	0.252125	0.154552
O20	O	-4.188184	0.134028	0.285869
O21	O	-4.163011	0.321269	0.292464
V22	V	-4.685320	0.249902	0.302182
O23	O	-4.426001	0.216569	0.248325
O24	O	-4.898661	0.273945	0.339181
O25	O	-4.652880	0.217100	0.432839
O26	O	-4.666974	0.277639	0.162759
O27	O	-4.838478	0.158724	0.294985
O28	O	-4.482555	0.335197	0.301522
C29	C	-3.929771	-0.406672	0.293603
C30	C	-4.122932	-0.442257	0.298044
C31	C	-4.169672	-0.516383	0.297719
C32	C	-3.883021	-0.332539	0.293927
C33	C	-3.773492	-0.085076	0.463255
C34	C	-3.802523	-0.084326	0.570204
C35	C	-4.144401	-0.083587	0.121116
C36	C	-4.094608	-0.084334	0.014166
C37	C	-4.293678	0.352431	0.297111
C38	C	-4.206935	0.424531	0.297461
C39	C	-3.832870	0.256800	0.122713
C40	C	-3.761328	0.279817	0.015874
C41	C	-3.855736	-0.082949	0.766018
C42	C	-4.041389	-0.085710	0.818358
C43	C	-4.070999	-0.084944	0.927315
C44	C	-3.826118	-0.083715	0.657051
C45	C	-4.510943	0.201786	0.464616
C46	C	-4.562321	0.178112	0.571451
C47	C	-3.900602	0.294032	-0.039221
C48	C	-3.833415	0.315650	-0.139612
C49	C	-3.626950	0.323058	-0.184904
C50	C	-3.487669	0.308840	-0.129802
C51	C	-3.554861	0.287218	-0.029414
C52	C	-4.758054	0.174803	0.626605
C53	C	-4.806347	0.152568	0.726992
C54	C	-4.658908	0.133638	0.772222
C55	C	-4.463156	0.136950	0.717061
C56	C	-4.414862	0.159189	0.616677
H57	H	-4.253198	-0.417051	0.302089
C58	C	-3.594080	-0.133683	0.802127
C59	C	-3.671190	-0.078987	0.815983
H60	H	-3.480148	-0.131234	0.832976
H61	H	-3.700100	-0.173225	0.829608
H62	H	-3.549666	-0.133677	0.734396
H63	H	-3.715619	-0.078995	0.883714
H64	H	-3.565149	-0.039435	0.788506
H65	H	-4.178099	-0.088655	0.781339
H66	H	-4.068725	0.288003	-0.002359
H67	H	-3.572266	0.340665	-0.266646
H68	H	-3.946852	0.327226	-0.184462
H69	H	-3.799514	-0.431875	0.289555
H70	H	-3.319561	0.314875	-0.166694
C71	C	-3.237926	0.328440	0.023673
C72	C	-3.401743	0.271605	0.031145
H73	H	-3.143397	0.318802	0.061062
H74	H	-3.168396	0.342369	-0.042591
H75	H	-3.290889	0.362691	0.047499
H76	H	-3.348781	0.237355	0.007312
H77	H	-3.471283	0.257666	0.097423
H78	H	-4.343125	0.121534	0.753903
C79	C	-5.102121	0.188013	0.646531
C80	C	-4.920141	0.195613	0.576904
H81	H	-5.202185	0.200866	0.615853
H82	H	-5.155022	0.143007	0.676089
H83	H	-5.072574	0.215023	0.694864
H84	H	-4.949685	0.168599	0.528575
H85	H	-4.867231	0.240626	0.547331
H86	H	-4.698260	0.115531	0.853961
C87	C	-5.120501	0.083530	0.831802
C88	C	-5.021530	0.148923	0.787611
H89	H	-5.253339	0.081282	0.869228
H90	H	-5.135707	0.055877	0.783053
H91	H	-5.039589	0.069086	0.873110
H92	H	-5.102435	0.163365	0.746298
H93	H	-5.006334	0.176585	0.836367
H94	H	-4.255477	0.161877	0.571778
