data_functionalizedCrystal
_audit_creation_method	'MofGen! by Chris Wilmer'
_symmetry_space_group_name_H-M	'P1'
_symmetry_Int_Tables_number	1
_symmetry_cell_setting	triclinic
loop_
_symmetry_equiv_pos_as_xyz
  x,y,z
_cell_length_a	15.995350
_cell_length_b	15.995350
_cell_length_c	15.072220
_cell_angle_alpha	90.001101
_cell_angle_beta	89.991149
_cell_angle_gamma	83.492375
loop_
_atom_site_label
_atom_site_type_symbol
_atom_site_fract_x
_atom_site_fract_y
_atom_site_fract_z
O1	O	1.110996	0.107921	-0.073703
O2	O	0.867221	0.121249	-0.073721
O3	O	0.995772	-0.007303	-0.073710
O4	O	0.982444	0.236472	-0.073713
O5	O	0.995740	-0.007296	0.073855
O6	O	0.867189	0.121256	0.073844
O7	O	1.110964	0.107928	0.073862
Zn8	Zn	0.989071	0.114593	0.097283
Zn9	Zn	0.989113	0.114584	-0.097141
O10	O	0.982413	0.236480	0.073852
C11	C	0.836010	0.120701	0.000060
C12	C	0.743060	0.119049	0.000053
C13	C	0.995205	-0.038494	0.000070
C14	C	0.993553	-0.131444	0.000065
C15	C	0.405312	0.113117	0.000071
C16	C	0.452746	0.021565	0.000401
C17	C	0.549436	0.023217	0.000063
C18	C	0.572873	0.116060	0.000063
C19	C	0.531804	0.161212	-0.084201
C20	C	0.435168	0.158912	-0.084266
C21	C	0.434793	0.160812	0.083543
C22	C	0.531738	0.160790	0.084651
C23	C	0.667570	0.117727	0.000055
C24	C	0.310614	0.111452	0.000073
C25	C	0.987621	-0.469192	0.000068
C26	C	0.896069	-0.421758	-0.000270
C27	C	0.897721	-0.325068	0.000063
C28	C	0.990564	-0.301631	0.000066
C29	C	1.035702	-0.342705	0.084335
C30	C	1.033402	-0.439341	0.084405
C31	C	1.035330	-0.439707	-0.083404
C32	C	1.035308	-0.342761	-0.084518
C33	C	0.992231	-0.206934	0.000068
C34	C	0.985956	-0.563890	0.000072
C35	C	1.142175	0.108476	0.000080
C36	C	1.235125	0.110127	0.000081
C37	C	0.982980	0.267671	0.000069
C38	C	0.984631	0.360621	0.000069
N39	N	0.989049	0.114599	0.229971
N40	N	0.989142	0.114571	-0.229830
C41	C	0.989112	0.114580	0.589173
C42	C	0.920095	0.183135	0.551560
C43	C	0.920254	0.183385	0.448735
C44	C	0.989080	0.114590	0.410969
C45	C	1.076445	0.133671	0.448266
C46	C	1.076058	0.134159	0.551124
C47	C	0.971542	0.026741	0.551272
C48	C	0.969537	0.027327	0.448409
C49	C	0.989067	0.114593	0.310255
C50	C	0.989130	0.114579	0.689886
H51	H	0.577852	-0.012275	0.060467
N52	N	0.847795	-0.447695	0.079329
H53	H	0.789058	-0.416937	0.078607
H54	H	0.844567	-0.510357	0.077208
H55	H	0.931160	0.247952	0.577399
H56	H	0.545929	0.229421	-0.087335
H57	H	1.092297	0.197002	0.422498
N58	N	0.428202	-0.026908	0.080449
H59	H	0.386093	0.010004	0.117277
H60	H	0.402266	-0.078387	0.060277
H61	H	0.560191	0.129845	-0.146912
H62	H	1.091540	0.198219	0.575106
H63	H	0.854945	0.171953	0.576317
H64	H	0.931473	0.248570	0.424121
N65	N	1.146104	0.069293	0.415871
H66	H	1.121640	0.027038	0.376610
H67	H	1.188256	0.098464	0.380984
N68	N	1.126049	-0.323987	0.088477
H69	H	1.135400	-0.292297	0.144914
H70	H	1.164620	-0.378533	0.087606
H71	H	1.102831	-0.471468	-0.083968
N72	N	0.994143	-0.305098	0.167395
H73	H	0.933085	-0.315678	0.168229
H74	H	1.023693	-0.331943	0.221218
N75	N	0.850731	-0.287419	-0.079958
H76	H	0.851720	-0.224396	-0.079896
H77	H	0.878508	-0.312023	-0.135764
H78	H	1.021872	-0.024275	0.575595
H79	H	1.016540	-0.026078	0.422704
N80	N	0.407580	0.121174	0.168150
H81	H	0.375859	0.071893	0.153224
H82	H	0.458832	0.101007	0.204712
N83	N	0.410931	0.115276	-0.167692
H84	H	0.348041	0.113345	-0.168567
H85	H	0.428093	0.147236	-0.221247
H86	H	0.559041	0.127829	0.146989
H87	H	0.433165	-0.014865	-0.059694
N88	N	0.586369	-0.024106	-0.080091
H89	H	0.627808	-0.072830	-0.060148
H90	H	0.539781	-0.046067	-0.115315
N91	N	0.884402	0.008174	0.416113
H92	H	0.891042	-0.045738	0.380632
H93	H	0.846544	0.001663	0.468705
H94	H	1.005411	-0.460250	-0.147274
H95	H	1.129019	0.086195	0.576003
H96	H	0.859490	-0.440293	-0.060701
H97	H	0.909219	0.008392	0.577258
N98	N	0.392444	0.247943	-0.089296
H99	H	0.436411	0.288508	-0.091471
H100	H	0.356552	0.254668	-0.144516
H101	H	0.547102	0.228494	0.089741
H102	H	0.403031	0.228312	0.084113
H103	H	1.000460	-0.457639	0.147395
N104	N	0.991650	-0.306618	-0.167101
H105	H	0.943091	-0.263777	-0.149805
H106	H	1.032882	-0.278621	-0.204495
H107	H	0.861974	-0.297200	0.060568
H108	H	1.103014	-0.327400	-0.089603
N109	N	1.122427	-0.482073	0.089487
H110	H	1.155432	-0.465280	0.036524
H111	H	1.149802	-0.464431	0.145805
N112	N	0.834236	0.168330	0.415324
H113	H	0.795873	0.161472	0.467415
H114	H	0.810176	0.217868	0.378201
