data_functionalizedCrystal
_audit_creation_method	'MofGen! by Chris Wilmer'
_symmetry_space_group_name_H-M	'P1'
_symmetry_Int_Tables_number	1
_symmetry_cell_setting	triclinic
loop_
_symmetry_equiv_pos_as_xyz
  x,y,z
_cell_length_a	12.594517
_cell_length_b	21.295417
_cell_length_c	12.594509
_cell_angle_alpha	89.963755
_cell_angle_beta	89.978673
_cell_angle_gamma	90.030306
loop_
_atom_site_label
_atom_site_type_symbol
_atom_site_fract_x
_atom_site_fract_y
_atom_site_fract_z
Zn1	Zn	1.627160	-0.250594	-0.601801
Zn2	Zn	1.960493	0.082740	-0.268467
Zn3	Zn	2.293827	0.416073	0.064866
Zn4	Zn	1.627006	-0.355872	-0.423797
Zn5	Zn	1.960339	-0.022539	-0.090464
Zn6	Zn	2.293673	0.310794	0.242869
Zn7	Zn	1.449164	-0.250621	-0.423830
Zn8	Zn	1.782497	0.082713	-0.090496
Zn9	Zn	2.115831	0.416046	0.242837
Zn10	Zn	1.449101	-0.355829	-0.601727
Zn11	Zn	1.782435	-0.022495	-0.268394
Zn12	Zn	2.115768	0.310838	0.064939
O13	O	1.538108	-0.303229	-0.512789
O14	O	1.871441	0.030105	-0.179455
O15	O	2.204774	0.363438	0.153878
O16	O	1.776085	-0.264566	-0.578205
O17	O	2.109419	0.068767	-0.244872
O18	O	2.442752	0.402101	0.088461
O19	O	1.603377	-0.341940	-0.274856
O20	O	1.936710	-0.008607	0.058478
O21	O	2.270043	0.324727	0.391811
O22	O	1.472866	-0.162528	-0.447482
O23	O	1.806200	0.170806	-0.114149
O24	O	2.139533	0.504139	0.219185
O25	O	1.775972	-0.341914	-0.447427
O26	O	2.109306	-0.008581	-0.114094
O27	O	2.442639	0.324753	0.219240
O28	O	1.603639	-0.162508	-0.578237
O29	O	1.936973	0.170826	-0.244903
O30	O	2.270306	0.504159	0.088430
O31	O	1.472717	-0.264612	-0.274879
O32	O	1.806050	0.068721	0.058454
O33	O	2.139383	0.402055	0.391787
O34	O	1.300210	-0.264570	-0.447411
O35	O	1.633543	0.068764	-0.114078
O36	O	1.966876	0.402097	0.219256
O37	O	1.472759	-0.341839	-0.750683
O38	O	1.806093	-0.008506	-0.417350
O39	O	2.139426	0.324827	-0.084016
O40	O	1.300164	-0.341865	-0.578112
O41	O	1.633497	-0.008532	-0.244778
O42	O	1.966830	0.324801	0.088555
O43	O	1.603578	-0.264524	-0.750737
O44	O	1.936912	0.068810	-0.417404
O45	O	2.270245	0.402143	-0.084070
O46	O	1.603316	-0.443956	-0.447356
O47	O	1.936649	-0.110623	-0.114023
O48	O	2.269982	0.222711	0.219311
O49	O	1.472610	-0.443924	-0.578080
O50	O	1.805943	-0.110590	-0.244747
O51	O	2.139277	0.222743	0.088586
C52	C	1.261567	-0.303216	-0.512757
C53	C	1.594900	0.030117	-0.179424
C54	C	1.928233	0.363451	0.153909
C55	C	1.143261	-0.303226	-0.512769
C56	C	1.476595	0.030107	-0.179436
C57	C	1.809928	0.363441	0.153897
C58	C	1.074002	-0.261127	-0.441817
C59	C	1.407336	0.072206	-0.108483
C60	C	1.740669	0.405539	0.224850
C61	C	1.003167	-0.318547	-0.415623
C62	C	1.336500	0.014786	-0.082290
C63	C	1.669834	0.348119	0.251043
C64	C	1.003298	-0.245834	-0.538981
C65	C	1.336631	0.087499	-0.205648
C66	C	1.669965	0.420833	0.127686
C67	C	1.073984	-0.360676	-0.486525
C68	C	1.407317	-0.027343	-0.153192
C69	C	1.740651	0.305991	0.180142
C70	C	1.074121	-0.287924	-0.609928
C71	C	1.407455	0.045409	-0.276595
C72	C	1.740788	0.378743	0.056739
C73	C	1.003318	-0.345384	-0.583771
C74	C	1.336651	-0.012050	-0.250438
C75	C	1.669984	0.321283	0.082896
C76	C	1.537968	-0.466780	-0.512730
C77	C	1.871302	-0.133447	-0.179396
C78	C	2.204635	0.199886	0.153937
C79	C	1.538006	-0.536748	-0.512740
C80	C	1.871339	-0.203415	-0.179407
C81	C	2.204673	0.129918	0.153926
C82	C	1.606125	-0.569611	-0.444742
C83	C	1.939458	-0.236278	-0.111408
C84	C	2.272792	0.097056	0.221925
C85	C	1.606175	-0.635353	-0.444766
C86	C	1.939508	-0.302020	-0.111432
C87	C	2.272842	0.031313	0.221901
C88	C	1.538087	-0.668231	-0.512777
C89	C	1.871420	-0.334898	-0.179444
C90	C	2.204753	-0.001564	0.153890
C91	C	1.469963	-0.635361	-0.580789
C92	C	1.803296	-0.302027	-0.247455
C93	C	2.136630	0.031306	0.085878
C94	C	1.469923	-0.569619	-0.580770
C95	C	1.803256	-0.236286	-0.247437
C96	C	2.136589	0.097047	0.085896
N97	N	1.444976	-0.771496	-0.520881
N98	N	1.778310	-0.438163	-0.187547
N99	N	2.111643	-0.104829	0.145786
N100	N	1.445018	-0.833948	-0.520892
N101	N	1.778351	-0.500614	-0.187558
N102	N	2.111684	-0.167281	0.145775
C103	C	1.538206	-0.866306	-0.512838
C104	C	1.871539	-0.532972	-0.179505
C105	C	2.204873	-0.199639	0.153829
N106	N	1.631353	-0.833853	-0.504752
N107	N	1.964687	-0.500520	-0.171418
N108	N	2.298020	-0.167186	0.161915
N109	N	1.631311	-0.771396	-0.504735
N110	N	1.964644	-0.438062	-0.171401
N111	N	2.297977	-0.104729	0.161932
C112	C	1.538123	-0.739516	-0.512805
C113	C	1.871457	-0.406183	-0.179471
C114	C	2.204790	-0.072850	0.153862
C115	C	1.606385	-0.970454	-0.444862
C116	C	1.939718	-0.637120	-0.111528
C117	C	2.273051	-0.303787	0.221805
C118	C	1.606436	-1.036197	-0.444893
C119	C	1.939770	-0.702864	-0.111560
C120	C	2.273103	-0.369531	0.221773
C121	C	1.470215	-1.036203	-0.580910
C122	C	1.803548	-0.702870	-0.247577
C123	C	2.136882	-0.369536	0.085756
C124	C	1.470173	-0.970461	-0.580885
C125	C	1.803506	-0.637127	-0.247551
C126	C	2.136840	-0.303794	0.085782
C127	C	1.538256	-0.937590	-0.512855
C128	C	1.871590	-0.604257	-0.179521
C129	C	2.204923	-0.270923	0.153812
C130	C	1.815729	-0.303242	-0.512821
C131	C	2.149062	0.030091	-0.179487
C132	C	2.482395	0.363425	0.153846
C133	C	1.934034	-0.303247	-0.512835
C134	C	2.267367	0.030086	-0.179501
C135	C	2.600701	0.363419	0.153832
C136	C	1.538179	-0.303174	-0.790410
C137	C	1.871512	0.030160	-0.457076
C138	C	2.204846	0.363493	-0.123743
C139	C	1.538209	-0.303150	-0.908715
C140	C	1.871543	0.030183	-0.575382
C141	C	2.204876	0.363517	-0.242049
C142	C	1.538277	-0.139038	-0.512871
C143	C	1.871610	0.194295	-0.179538
C144	C	2.204944	0.527628	0.153795
C145	C	1.538349	-0.069070	-0.512906
C146	C	1.871682	0.264263	-0.179573
C147	C	2.205016	0.597596	0.153760
C148	C	1.467079	-0.345178	-0.977939
C149	C	1.800413	-0.011845	-0.644606
C150	C	2.133746	0.321488	-0.311273
C151	C	1.564193	-0.360559	-1.048726
C152	C	1.897527	-0.027226	-0.715393
C153	C	2.230860	0.306108	-0.382059
C154	C	1.441171	-0.287731	-1.048728
C155	C	1.774505	0.045602	-0.715394
C156	C	2.107838	0.378935	-0.382061
C157	C	1.635374	-0.318561	-0.977944
C158	C	1.968708	0.014772	-0.644611
C159	C	2.302041	0.348106	-0.311277
C160	C	1.512287	-0.245707	-0.977939
C161	C	1.845620	0.087627	-0.644606
C162	C	2.178953	0.420960	-0.311273
C163	C	1.609468	-0.261066	-1.048694
C164	C	1.942801	0.072268	-0.715361
C165	C	2.276134	0.405601	-0.382028
C166	C	1.538098	-0.303238	-0.236248
C167	C	1.871431	0.030095	0.097086
C168	C	2.204765	0.363428	0.430419
C169	C	1.538274	-0.303084	-0.117943
C170	C	1.871607	0.030249	0.215390
C171	C	2.204941	0.363582	0.548724
H172	H	1.105311	-0.274950	-0.692040
H173	H	1.438645	0.058383	-0.358707
H174	H	1.771978	0.391716	-0.025374
H175	H	0.972192	-0.197296	-0.561087
H176	H	1.305525	0.136038	-0.227754
H177	H	1.638858	0.469371	0.105580
F178	F	1.678678	-0.670335	-0.372389
F179	F	2.012012	-0.337002	-0.039055
F180	F	2.345345	-0.003669	0.294278
H181	H	1.661565	-0.542849	-0.389350
H182	H	1.994898	-0.209516	-0.056017
H183	H	2.328232	0.123817	0.277316
H184	H	1.359080	-0.274717	-1.079821
H185	H	1.692414	0.058616	-0.746488
H186	H	2.025747	0.391949	-0.413154
F187	F	1.742703	-0.335648	-0.937479
F188	F	2.076036	-0.002315	-0.604145
F189	F	2.409370	0.331018	-0.270812
H190	H	1.414781	-1.062971	-0.636291
H191	H	1.748114	-0.729638	-0.302958
H192	H	2.081448	-0.396305	0.030375
H193	H	1.669717	-0.225496	-1.079565
H194	H	2.003050	0.107838	-0.746232
H195	H	2.336384	0.441171	-0.412898
F196	F	1.397418	-0.534644	-0.653147
F197	F	1.730751	-0.201310	-0.319813
F198	F	2.064084	0.132023	0.013520
F199	F	1.114572	-0.214639	-0.363296
F200	F	1.447905	0.118695	-0.029963
F201	F	1.781239	0.452028	0.303370
F202	F	1.397503	-0.670352	-0.653175
F203	F	1.730836	-0.337019	-0.319842
F204	F	2.064169	-0.003685	0.013492
F205	F	1.397666	-0.935485	-0.653255
F206	F	1.730999	-0.602151	-0.319921
F207	F	2.064333	-0.268818	0.013412
F208	F	1.678949	-1.071172	-0.372523
F209	F	2.012283	-0.737839	-0.039189
F210	F	2.345616	-0.404505	0.294144
F211	F	1.114395	-0.424146	-0.457458
F212	F	1.447729	-0.090813	-0.124125
F213	F	1.781062	0.242520	0.209208
F214	F	0.962430	-0.335483	-0.308266
F215	F	1.295764	-0.002149	0.025068
F216	F	1.629097	0.331184	0.358401
H217	H	1.586154	-0.409109	-1.079819
H218	H	1.919488	-0.075776	-0.746486
H219	H	2.252821	0.257557	-0.413153
F220	F	1.483546	-0.182265	-0.937265
F221	F	1.816879	0.151068	-0.603931
F222	F	2.150213	0.484401	-0.270598
F223	F	1.678843	-0.935468	-0.372459
F224	F	2.012177	-0.602134	-0.039125
F225	F	2.345510	-0.268801	0.294208
F226	F	1.388517	-0.391704	-0.937330
F227	F	1.721850	-0.058371	-0.603996
F228	F	2.055184	0.274963	-0.270663
H229	H	0.972477	-0.381035	-0.643801
H230	H	1.305810	-0.047702	-0.310468
H231	H	1.639144	0.285631	0.022865
