data_functionalizedCrystal
_audit_creation_method	'MofGen! by Chris Wilmer'
_symmetry_space_group_name_H-M	'P1'
_symmetry_Int_Tables_number	1
_symmetry_cell_setting	triclinic
loop_
_symmetry_equiv_pos_as_xyz
  x,y,z
_cell_length_a	6.817900
_cell_length_b	19.551823
_cell_length_c	10.943624
_cell_angle_alpha	94.462887
_cell_angle_beta	108.838799
_cell_angle_gamma	101.663376
loop_
_atom_site_label
_atom_site_type_symbol
_atom_site_fract_x
_atom_site_fract_y
_atom_site_fract_z
V1	V	-4.079292	-0.096657	-0.403155
O2	O	-4.074951	0.004664	-0.394859
O3	O	-4.021653	-0.191672	-0.400995
O4	O	-4.057814	-0.095161	-0.578712
O5	O	-4.038540	-0.092515	-0.215912
V6	V	-4.560628	-0.084538	-0.380686
O7	O	-4.345346	-0.123239	-0.452441
O8	O	-4.744771	-0.057956	-0.331400
O9	O	-4.395060	0.010477	-0.382846
O10	O	-4.682366	-0.185859	-0.388982
O11	O	-4.718777	-0.088680	-0.567929
O12	O	-4.358899	-0.086034	-0.205129
C13	C	-3.863535	-0.214835	-0.394789
C14	C	-3.897876	-0.292511	-0.394193
C15	C	-4.096764	-0.332556	-0.400370
C16	C	-4.129037	-0.405542	-0.399823
C17	C	-3.962397	-0.438478	-0.393074
C18	C	-3.763484	-0.398424	-0.386904
C19	C	-3.731223	-0.325440	-0.387464
C20	C	-3.836613	-0.544970	-0.311204
C21	C	-3.868877	-0.617951	-0.310636
C22	C	-4.061895	-0.663584	-0.391353
C23	C	-4.222671	-0.636225	-0.472621
C24	C	-4.190411	-0.563242	-0.473181
C25	C	-3.997358	-0.517616	-0.392467
C26	C	-4.295791	-0.782770	-0.396939
C27	C	-4.328061	-0.855758	-0.396400
C28	C	-3.962496	-0.848637	-0.383467
C29	C	-3.930238	-0.775651	-0.384019
C30	C	-4.096891	-0.742722	-0.390749
C31	C	-3.909661	-0.091725	-0.621483
C32	C	-3.973323	-0.091132	-0.765006
C33	C	-3.819651	-0.087134	-0.842128
C34	C	-3.986783	-0.146473	-0.948489
C35	C	-3.919650	-0.030741	-0.914380
C36	C	-4.139646	-0.150527	-0.869490
C37	C	-4.072452	-0.034742	-0.835357
C38	C	-4.239715	-0.094098	-0.941688
C39	C	-4.216519	0.033636	-0.389048
C40	C	-4.161418	0.111311	-0.389653
C41	C	-4.170393	-0.089472	-0.162351
C42	C	-4.085969	-0.090062	-0.018827
H43	H	-4.431489	-0.755957	-0.402416
H44	H	-4.417921	-0.097057	-0.984951
H45	H	-4.379691	-0.673390	-0.538526
H46	H	-4.321320	-0.540970	-0.539355
H47	H	-4.490028	-0.888363	-0.401438
H48	H	-4.107923	0.012496	-0.786078
O49	O	-3.628426	-0.495751	-0.224132
H50	H	-3.522068	-0.527034	-0.167512
H51	H	-3.641523	-0.084269	-0.798662
O52	O	-3.695475	-0.647460	-0.222996
H53	H	-3.555819	-0.603471	-0.166985
H54	H	-3.827259	0.019872	-0.934826
O55	O	-3.782750	-0.884148	-0.376198
H56	H	-3.745787	-0.909770	-0.287177
O57	O	-4.276551	-0.297054	-0.407683
H58	H	-4.327536	-0.305316	-0.322240
O59	O	-4.343556	-0.448747	-0.406468
H60	H	-4.454012	-0.413587	-0.411231
H61	H	-3.569262	-0.292835	-0.382435
O62	O	-3.939708	-0.209037	-1.013749
H63	H	-3.765923	-0.206038	-0.973663
O64	O	-3.583743	-0.433941	-0.379630
H65	H	-3.639583	-0.491419	-0.380268
H66	H	-3.768279	-0.743045	-0.378981
H67	H	-4.232045	-0.201207	-0.849262
