data_functionalizedCrystal
_audit_creation_method	'MofGen! by Chris Wilmer'
_symmetry_space_group_name_H-M	'P1'
_symmetry_Int_Tables_number	1
_symmetry_cell_setting	triclinic
loop_
_symmetry_equiv_pos_as_xyz
  x,y,z
_cell_length_a	6.817900
_cell_length_b	14.125469
_cell_length_c	16.305550
_cell_angle_alpha	95.884114
_cell_angle_beta	103.455250
_cell_angle_gamma	100.398878
loop_
_atom_site_label
_atom_site_type_symbol
_atom_site_fract_x
_atom_site_fract_y
_atom_site_fract_z
V1	V	-4.010572	-0.133925	-0.262704
O2	O	-4.014497	0.005600	-0.258038
O3	O	-3.946712	-0.264747	-0.260584
O4	O	-3.962176	-0.132231	-0.377425
O5	O	-3.998925	-0.127833	-0.140389
V6	V	-4.496202	-0.117193	-0.248113
O7	O	-4.267207	-0.170628	-0.294709
O8	O	-4.689764	-0.080489	-0.216107
O9	O	-4.336856	0.013629	-0.250232
O10	O	-4.609674	-0.256718	-0.252778
O11	O	-4.625245	-0.123285	-0.370428
O12	O	-4.321392	-0.118886	-0.133392
C13	C	-3.787951	-0.296627	-0.256357
C14	C	-3.817025	-0.403578	-0.255389
C15	C	-3.870323	-0.599398	-0.253629
C16	C	-4.055817	-0.651731	-0.257190
C17	C	-4.085475	-0.760692	-0.256211
C18	C	-3.840658	-0.490427	-0.254608
C19	C	-3.807677	-0.127589	-0.405397
C20	C	-3.849289	-0.127070	-0.499180
C21	C	-4.000611	-0.125059	-0.839931
C22	C	-3.765262	-0.119090	-0.799017
C23	C	-3.721959	-0.120028	-0.701520
C24	C	-3.925537	-0.126056	-0.670880
C25	C	-4.081450	-0.221074	-0.721274
C26	C	-4.123376	-0.220536	-0.818825
C27	C	-4.065699	-0.036771	-0.794304
C28	C	-4.017858	-0.036019	-0.696463
C29	C	-3.883121	-0.126623	-0.575341
C30	C	-4.043036	-0.124499	-0.935471
C31	C	-4.158957	0.045504	-0.254457
C32	C	-4.109122	0.152455	-0.255431
C33	C	-4.139232	-0.123532	-0.105415
C34	C	-4.076859	-0.124046	-0.011631
H35	H	-3.603457	-0.051711	-0.666663
H36	H	-3.733802	-0.636425	-0.249844
C37	C	-3.865445	0.058930	-0.650263
C38	C	-3.920349	0.158036	-0.664736
C39	C	-3.767927	0.252984	-0.618533
C40	C	-3.560602	0.248825	-0.557858
C41	C	-3.505689	0.149715	-0.543382
C42	C	-3.658110	0.054768	-0.589585
H43	H	-4.073832	0.161118	-0.709654
H44	H	-3.808579	0.326352	-0.629249
H45	H	-3.447770	0.319111	-0.523655
H46	H	-3.352205	0.146633	-0.498464
H47	H	-3.617459	-0.018600	-0.578869
H48	H	-3.667157	-0.050450	-0.811548
C49	C	-4.297583	-0.041526	-0.830520
C50	C	-4.399730	0.037251	-0.796124
C51	C	-4.631609	0.032487	-0.832346
C52	C	-4.761340	-0.051055	-0.902964
C53	C	-4.659194	-0.129838	-0.937364
C54	C	-4.427315	-0.125074	-0.901142
H55	H	-4.303695	0.099099	-0.743845
H56	H	-4.707224	0.090808	-0.806880
H57	H	-4.932991	-0.054582	-0.929777
H58	H	-4.755230	-0.191686	-0.989643
H59	H	-4.351700	-0.183395	-0.926607
C60	C	-4.287114	-0.231689	-0.695699
C61	C	-4.315948	-0.154016	-0.628597
C62	C	-4.521609	-0.164630	-0.603019
C63	C	-4.698436	-0.252918	-0.644542
C64	C	-4.669608	-0.330598	-0.711648
C65	C	-4.463947	-0.319983	-0.737226
H66	H	-4.185045	-0.088654	-0.597855
H67	H	-4.542948	-0.107126	-0.553342
H68	H	-4.850679	-0.260775	-0.625608
H69	H	-4.800511	-0.395959	-0.742390
H70	H	-4.442608	-0.377488	-0.786903
H71	H	-4.079409	-0.287373	-0.849043
H72	H	-4.192349	-0.614702	-0.260973
C73	C	-3.694307	-0.204787	-0.841363
C74	C	-3.849066	-0.280062	-0.912860
C75	C	-3.778122	-0.365764	-0.955204
C76	C	-3.552419	-0.376191	-0.926051
C77	C	-3.397646	-0.300913	-0.854549
C78	C	-3.468590	-0.215211	-0.812205
H79	H	-4.016158	-0.272346	-0.934445
H80	H	-3.892696	-0.421490	-1.008134
H81	H	-3.499901	-0.439633	-0.957396
H82	H	-3.230554	-0.308630	-0.832965
H83	H	-3.354016	-0.159486	-0.759275
C84	C	-3.996003	-0.311395	-0.698349
C85	C	-3.949184	-0.331077	-0.605360
C86	C	-3.863724	-0.421395	-0.582436
C87	C	-3.825081	-0.492031	-0.652501
C88	C	-3.871900	-0.472351	-0.745497
C89	C	-3.957361	-0.382033	-0.768420
H90	H	-3.977790	-0.278786	-0.553489
H91	H	-3.829066	-0.435963	-0.513595
H92	H	-3.761818	-0.558889	-0.635532
H93	H	-3.843295	-0.524641	-0.797368
H94	H	-3.992018	-0.367465	-0.837262
H95	H	-3.648023	-0.184191	-0.685069
H96	H	-4.296237	-0.228869	-0.846797
C97	C	-3.953605	0.060497	-0.812584
C98	C	-3.812268	0.136927	-0.738405
C99	C	-3.700152	0.234192	-0.756683
C100	C	-3.729372	0.255027	-0.849139
C101	C	-3.870715	0.178595	-0.923325
C102	C	-3.982832	0.081330	-0.905047
H103	H	-3.790632	0.121506	-0.669958
H104	H	-3.595520	0.290772	-0.701765
H105	H	-3.646377	0.327028	-0.862669
H106	H	-3.892352	0.194016	-0.991772
H107	H	-4.087464	0.024750	-0.959965
H108	H	-4.165284	-0.034837	-0.675118
