data_functionalizedCrystal
_audit_creation_method	'MofGen! by Chris Wilmer'
_symmetry_space_group_name_H-M	'P1'
_symmetry_Int_Tables_number	1
_symmetry_cell_setting	triclinic
loop_
_symmetry_equiv_pos_as_xyz
  x,y,z
_cell_length_a	10.489741
_cell_length_b	9.130313
_cell_length_c	10.654550
_cell_angle_alpha	89.995631
_cell_angle_beta	84.512052
_cell_angle_gamma	89.999174
loop_
_atom_site_label
_atom_site_type_symbol
_atom_site_fract_x
_atom_site_fract_y
_atom_site_fract_z
O1	O	1.693966	-0.121708	0.177192
O2	O	2.193966	0.378292	0.677192
O3	O	1.322763	-0.121731	0.193824
O4	O	1.822763	0.378269	0.693824
O5	O	1.516899	-0.121710	0.002773
O6	O	2.016899	0.378290	0.502773
O7	O	1.499830	-0.121729	0.368243
O8	O	1.999830	0.378271	0.868243
O9	O	1.516886	0.121889	0.002767
O10	O	2.016886	0.621889	0.502767
O11	O	1.322749	0.121868	0.193819
O12	O	1.822749	0.621868	0.693819
O13	O	1.693953	0.121890	0.177186
O14	O	2.193953	0.621890	0.677186
Cu15	Cu	1.508350	0.144122	0.185502
Cu16	Cu	2.008350	0.644122	0.685502
Cu17	Cu	1.508366	-0.143962	0.185509
Cu18	Cu	2.008366	0.356038	0.685509
O19	O	1.499816	0.121869	0.368238
O20	O	1.999816	0.621869	0.868238
C21	C	1.275225	0.000065	0.192565
C22	C	1.775225	0.500065	0.692565
C23	C	1.133597	0.000057	0.188807
C24	C	1.633597	0.500057	0.688807
N25	N	1.508348	0.346744	0.185497
N26	N	2.008348	0.846744	0.685497
N27	N	1.508378	-0.346585	0.185504
N28	N	2.008378	0.153415	0.685504
C29	C	1.065516	0.000077	0.067246
C30	C	1.565516	0.500077	0.567246
C31	C	0.973368	-0.120030	0.124673
C32	C	1.473368	0.379970	0.624673
C33	C	0.973389	0.120140	0.124697
C34	C	1.473389	0.620140	0.624697
C35	C	1.043315	-0.120149	0.246284
C36	C	1.543315	0.379851	0.746284
C37	C	1.043345	0.120128	0.246290
C38	C	1.543345	0.620128	0.746290
C39	C	0.951224	-0.000008	0.303805
C40	C	1.451224	0.499992	0.803805
C41	C	1.741491	0.000091	0.178445
C42	C	2.241491	0.500091	0.678445
C43	C	1.883118	0.000090	0.182204
C44	C	2.383118	0.500090	0.682204
C45	C	1.515639	0.000089	-0.044029
C46	C	2.015639	0.500089	0.455971
C47	C	1.511889	0.000086	-0.183474
C48	C	2.011889	0.500086	0.316526
C49	C	1.594341	0.423405	0.100935
C50	C	2.094341	0.923405	0.600935
C51	C	1.594353	0.576742	0.100935
C52	C	2.094353	1.076742	0.600935
C53	C	1.422375	0.576743	0.270070
C54	C	1.922375	1.076743	0.770070
C55	C	1.422358	0.423409	0.270062
C56	C	1.922358	0.923409	0.770062
C57	C	1.626194	0.000093	-0.262906
C58	C	2.126194	0.500093	0.237094
C59	C	1.622663	0.000074	-0.393928
C60	C	2.122663	0.500074	0.106072
C61	C	1.390513	0.000050	-0.366074
C62	C	1.890513	0.500050	0.133926
C63	C	1.394045	0.000057	-0.235054
C64	C	1.894045	0.500057	0.264946
C65	C	1.501076	0.000068	0.415039
C66	C	2.001076	0.500068	0.915039
C67	C	1.504826	0.000060	0.554484
C68	C	2.004826	0.500060	1.054484
H69	H	1.115254	-0.000068	-0.032684
H70	H	1.615254	0.499932	0.467316
F71	F	0.886556	-0.000097	0.434557
F72	F	1.386556	0.499903	0.934557
H73	H	1.664375	0.639156	0.032076
H74	H	2.164375	1.139156	0.532076
H75	H	0.942384	-0.221568	0.073241
H76	H	1.442384	0.278432	0.573241
H77	H	1.664357	0.360988	0.032074
H78	H	2.164357	0.860988	0.532074
F79	F	1.330866	0.658345	0.360070
F80	F	1.830866	1.158345	0.860070
H81	H	1.352326	0.360987	0.338923
H82	H	1.852326	0.860987	0.838923
F83	F	1.083888	0.252852	0.313462
F84	F	1.583888	0.752852	0.813462
H85	H	1.715742	0.000077	-0.458597
H86	H	2.215742	0.500077	0.041403
H87	H	1.722150	0.000113	-0.220914
H88	H	2.222150	0.500113	0.279086
F89	F	1.265102	0.000018	-0.420981
F90	F	1.765102	0.500018	0.079019
F91	F	1.083578	-0.253022	0.313464
F92	F	1.583578	0.246978	0.813464
H93	H	0.942430	0.221681	0.073237
H94	H	1.442430	0.721681	0.573237
F95	F	1.272380	0.000040	-0.150510
F96	F	1.772380	0.500040	0.349490
