data_functionalizedCrystal
_audit_creation_method	'MofGen! by Chris Wilmer'
_symmetry_space_group_name_H-M	'P1'
_symmetry_Int_Tables_number	1
_symmetry_cell_setting	triclinic
loop_
_symmetry_equiv_pos_as_xyz
  x,y,z
_cell_length_a	16.956984
_cell_length_b	9.565339
_cell_length_c	16.992695
_cell_angle_alpha	89.992115
_cell_angle_beta	96.639179
_cell_angle_gamma	90.003654
loop_
_atom_site_label
_atom_site_type_symbol
_atom_site_fract_x
_atom_site_fract_y
_atom_site_fract_z
O1	O	1.060099	0.116267	-0.032357
O2	O	0.829689	0.116269	-0.059773
O3	O	0.943970	0.116257	0.068018
O4	O	0.945818	0.116279	-0.160148
O5	O	0.943963	-0.116263	0.068028
O6	O	0.829682	-0.116251	-0.059763
O7	O	1.060092	-0.116253	-0.032347
Zn8	Zn	0.944886	-0.153170	-0.046053
Zn9	Zn	0.944895	0.153185	-0.046067
O10	O	0.945811	-0.116241	-0.160138
C11	C	0.800066	0.000009	-0.061172
C12	C	0.711812	0.000009	-0.065346
C13	C	0.675280	-0.000000	0.004440
C14	C	0.592355	0.000010	0.000513
C15	C	0.545963	0.000020	-0.073199
C16	C	0.582500	0.000034	-0.142990
C17	C	0.665424	0.000033	-0.139063
C18	C	0.297429	0.000032	-0.092638
C19	C	0.214500	0.000028	-0.096560
C20	C	0.224362	0.000007	0.046944
C21	C	0.307286	-0.000002	0.050864
C22	C	0.343816	0.000019	-0.018926
N23	N	0.461200	0.000026	-0.077214
N24	N	0.428577	0.000023	-0.014910
N25	N	0.944885	-0.362249	-0.046043
C26	C	0.997276	-0.546590	0.013456
C27	C	1.017807	-0.453345	-0.055848
C28	C	0.924390	-0.453425	0.023257
C29	C	0.965470	-0.546542	-0.115407
C30	C	0.872019	-0.546630	-0.036258
C31	C	0.892523	-0.453427	-0.105615
C32	C	1.089714	0.000010	-0.030948
C33	C	1.177969	0.000019	-0.026774
C34	C	0.941590	-0.000003	0.097081
C35	C	0.934500	-0.000003	0.183666
N36	N	0.944901	0.362265	-0.046070
C37	C	0.948191	0.000022	-0.189201
C38	C	0.955281	0.000031	-0.275786
C39	C	1.002915	-0.000005	0.238341
C40	C	0.996247	0.000009	0.319695
C41	C	0.921165	0.000014	0.346373
C42	C	0.852745	0.000020	0.291691
C43	C	0.859412	0.000017	0.210338
C44	C	0.893529	0.000033	0.588180
C45	C	0.886866	0.000033	0.669539
C46	C	1.030370	0.000024	0.697538
C47	C	1.037031	0.000012	0.616182
C48	C	0.968611	0.000025	0.561507
N49	N	0.914348	0.000023	0.429530
N50	N	0.975428	0.000026	0.478352
H51	H	0.562616	0.000004	0.057340
H52	H	0.982878	-0.587274	-0.174034
H53	H	1.098171	0.000007	0.594468
H54	H	0.825722	0.000014	0.691256
H55	H	0.345054	-0.000016	0.110889
H56	H	1.086073	0.000015	0.742062
O57	O	0.798499	-0.595627	-0.026480
C58	C	0.769338	-0.676676	-0.092828
H59	H	0.800660	-0.644788	-0.145915
H60	H	0.781027	-0.792035	-0.079222
C61	C	0.640916	-0.691620	-0.046770
C62	C	0.679381	-0.652446	-0.111973
H63	H	0.585426	-0.676680	-0.058578
H64	H	0.660563	-0.637020	-0.002068
H65	H	0.650665	-0.787750	-0.035438
H66	H	0.669640	-0.556314	-0.123298
H67	H	0.659731	-0.707029	-0.156678
H68	H	0.327161	0.000058	-0.149466
H69	H	1.064055	-0.000018	0.216627
O70	O	0.839776	-0.404752	-0.165749
C71	C	0.879971	-0.321781	-0.216939
H72	H	0.937461	-0.280670	-0.183513
H73	H	0.894256	-0.387559	-0.269411
C74	C	0.756314	-0.248319	-0.288182
C75	C	0.826920	-0.197817	-0.247126
H76	H	0.723589	-0.171855	-0.306806
H77	H	0.729233	-0.304222	-0.253697
H78	H	0.768228	-0.303135	-0.331904
H79	H	0.815005	-0.143017	-0.203400
H80	H	0.853998	-0.141901	-0.281605
H81	H	0.907049	-0.412520	0.081874
H82	H	0.837816	0.000044	0.543672
H83	H	0.194610	0.000006	0.103763
O84	O	0.779869	-0.000036	0.317738
C85	C	0.788653	-0.000003	0.401266
H86	H	0.849404	-0.044026	0.424414
H87	H	0.783363	0.111548	0.423681
C88	C	0.648712	-0.037121	0.402530
C89	C	0.723325	-0.091201	0.430960
H90	H	0.608413	-0.093369	0.420847
H91	H	0.642794	-0.037137	0.346255
H92	H	0.644315	0.055838	0.421211
H93	H	0.727725	-0.184150	0.412270
H94	H	0.729243	-0.091201	0.487233
H95	H	1.051958	0.000004	0.364210
H96	H	0.803701	0.000019	0.165822
O97	O	0.700821	0.000225	-0.206907
C98	C	0.677578	0.120673	-0.251510
H99	H	0.618772	0.160815	-0.233960
H100	H	0.724933	0.204999	-0.239355
C101	C	0.739883	0.034803	-0.361911
C102	C	0.667653	0.084100	-0.340362
H103	H	0.733764	0.012247	-0.416720
H104	H	0.755545	-0.046343	-0.331861
H105	H	0.779338	0.105083	-0.351776
H106	H	0.628202	0.013814	-0.350488
H107	H	0.651983	0.165233	-0.370416
H108	H	1.079435	-0.412371	-0.064142
H109	H	0.176729	0.000029	-0.156589
O110	O	0.537319	-0.000019	-0.214530
C111	C	0.456294	0.000010	-0.203034
H112	H	0.449203	-0.044018	-0.141905
H113	H	0.432530	0.111560	-0.207554
C114	C	0.418179	-0.037098	-0.342025
C115	C	0.409468	-0.091184	-0.266947
H116	H	0.389293	-0.093345	-0.381451
H117	H	0.472766	-0.037112	-0.349771
H118	H	0.398376	0.055860	-0.345780
H119	H	0.429280	-0.184133	-0.263189
H120	H	0.354882	-0.091188	-0.259202
H121	H	0.713048	-0.000014	0.064465
O122	O	1.050271	-0.595338	0.073360
C123	C	1.127026	-0.547772	0.062729
H124	H	1.129499	-0.521592	-0.002390
H125	H	1.141413	-0.450258	0.100224
C126	C	1.185059	-0.695062	0.168412
C127	C	1.188098	-0.662918	0.088430
H128	H	1.222732	-0.766085	0.184269
H129	H	1.133348	-0.727105	0.175577
H130	H	1.197047	-0.613790	0.199648
H131	H	1.176101	-0.744184	0.057195
H132	H	1.239809	-0.630891	0.081261
