data_functionalizedCrystal
_audit_creation_method	'MofGen! by Chris Wilmer'
_symmetry_space_group_name_H-M	'P1'
_symmetry_Int_Tables_number	1
_symmetry_cell_setting	triclinic
loop_
_symmetry_equiv_pos_as_xyz
  x,y,z
_cell_length_a	10.654550
_cell_length_b	19.288865
_cell_length_c	18.366186
_cell_angle_alpha	90.011479
_cell_angle_beta	89.991266
_cell_angle_gamma	96.189425
loop_
_atom_site_label
_atom_site_type_symbol
_atom_site_fract_x
_atom_site_fract_y
_atom_site_fract_z
O1	O	1.665761	-0.097556	-0.060554
O2	O	1.300084	-0.106850	-0.060558
O3	O	1.493489	-0.001142	-0.060542
O4	O	1.472356	-0.203264	-0.060571
O5	O	1.493456	-0.001136	0.060558
O6	O	1.300051	-0.106845	0.060542
O7	O	1.665728	-0.097550	0.060545
Zn8	Zn	1.482884	-0.102196	0.079770
Zn9	Zn	1.482928	-0.102204	-0.079783
O10	O	1.472323	-0.203258	0.060529
C11	C	1.253284	-0.106165	-0.000008
C12	C	1.113884	-0.104123	-0.000009
C13	C	1.492792	0.024742	0.000010
C14	C	1.490751	0.101859	0.000017
C15	C	1.712528	-0.098235	-0.000006
C16	C	1.851928	-0.100277	-0.000010
C17	C	1.932746	-0.038038	-0.000004
C18	C	2.063725	-0.039960	-0.000001
C19	C	2.033056	-0.166367	-0.000013
C20	C	1.902079	-0.164444	-0.000011
C21	C	1.882594	0.026129	-0.000003
C22	C	1.963414	0.088374	0.000002
C23	C	2.094393	0.086451	0.000005
C24	C	2.144554	0.022284	0.000003
C25	C	1.473020	-0.229142	-0.000025
C26	C	1.475061	-0.306259	-0.000036
N27	N	1.482864	-0.102191	0.188662
C28	C	1.604232	0.145812	0.000021
C29	C	1.602315	0.218272	0.000010
C30	C	1.486909	0.246775	0.000008
C31	C	1.373413	0.202812	-0.000000
C32	C	1.375334	0.130354	0.000004
C33	C	1.396176	0.355658	0.042426
C34	C	1.394260	0.428115	0.042426
C35	C	1.480980	0.470259	-0.000008
C36	C	1.569638	0.439939	-0.042433
C37	C	1.571559	0.367481	-0.042429
C38	C	1.484814	0.325343	0.000003
C39	C	1.592390	0.592782	-0.000017
C40	C	1.590467	0.665243	-0.000033
C41	C	1.361562	0.649781	-0.000036
C42	C	1.363488	0.577322	-0.000027
C43	C	1.478905	0.548827	-0.000014
N44	N	1.482958	-0.102203	-0.188674
C45	C	1.568532	-0.055407	0.226769
C46	C	1.568540	-0.055404	0.302997
C47	C	1.482892	-0.102197	0.341114
C48	C	1.397208	-0.148985	0.302998
C49	C	1.397194	-0.148982	0.226771
C50	C	1.466081	-0.165375	0.461865
C51	C	1.466104	-0.165379	0.538090
C52	C	1.482928	-0.102206	0.576222
C53	C	1.499755	-0.039027	0.538119
C54	C	1.499741	-0.039024	0.461893
C55	C	1.482897	-0.102205	0.423769
C56	C	1.568609	-0.055415	0.696984
C57	C	1.568608	-0.055411	0.773214
C58	C	1.397282	-0.148998	0.773213
C59	C	1.397277	-0.148996	0.696985
C60	C	1.482947	-0.102205	0.658875
H61	H	1.775946	0.027702	-0.000008
H62	H	1.638303	-0.017305	0.334030
H63	H	2.073908	-0.218609	-0.000015
F64	F	1.242704	0.530542	-0.000029
H65	H	1.922564	0.140616	-0.000002
H66	H	2.160194	0.137133	0.000016
F67	F	1.659781	-0.005613	0.656424
H68	H	2.251207	0.020723	0.000013
F69	F	1.816062	-0.230686	-0.000013
F70	F	1.306103	-0.198793	0.656425
H71	H	1.267597	0.672988	-0.000041
H72	H	1.327542	-0.187095	0.804247
H73	H	1.698214	0.122617	0.000029
F74	F	1.448203	-0.232619	0.578635
F75	F	1.723102	0.265059	0.000014
F76	F	1.659703	-0.005606	0.186212
F77	F	1.448266	-0.232619	0.421291
H78	H	1.682881	0.701030	-0.000033
F79	F	1.303871	0.310812	0.087595
F80	F	1.517670	0.028212	0.578695
H81	H	1.643744	0.342797	-0.076974
F82	F	1.661939	0.484786	-0.087599
F83	F	1.306051	-0.198783	0.343565
F84	F	1.715225	0.562453	0.000000
H85	H	1.282921	0.094566	0.000000
F86	F	1.517640	0.028214	0.421343
H87	H	1.322064	0.452796	0.076967
H88	H	1.279449	0.226024	-0.000003
H89	H	1.638365	-0.017309	0.804241
F90	F	1.306012	-0.198778	0.186213
