data_functionalizedCrystal
_audit_creation_method	'MofGen! by Chris Wilmer'
_symmetry_space_group_name_H-M	'P1'
_symmetry_Int_Tables_number	1
_symmetry_cell_setting	triclinic
loop_
_symmetry_equiv_pos_as_xyz
  x,y,z
_cell_length_a	16.625547
_cell_length_b	16.625546
_cell_length_c	12.827885
_cell_angle_alpha	89.964876
_cell_angle_beta	89.974319
_cell_angle_gamma	90.022405
loop_
_atom_site_label
_atom_site_type_symbol
_atom_site_fract_x
_atom_site_fract_y
_atom_site_fract_z
Zn1	Zn	1.232687	-0.320964	-0.590983
Zn2	Zn	1.482687	-0.070964	-0.340983
Zn3	Zn	1.732687	0.179036	-0.090983
Zn4	Zn	1.982687	0.429036	0.159017
Zn5	Zn	1.232589	-0.455818	-0.416227
Zn6	Zn	1.482589	-0.205818	-0.166227
Zn7	Zn	1.732589	0.044182	0.083773
Zn8	Zn	1.982589	0.294182	0.333773
Zn9	Zn	1.097847	-0.321003	-0.416238
Zn10	Zn	1.347847	-0.071003	-0.166238
Zn11	Zn	1.597847	0.178997	0.083762
Zn12	Zn	1.847847	0.428997	0.333762
Zn13	Zn	1.097820	-0.455758	-0.590908
Zn14	Zn	1.347820	-0.205758	-0.340908
Zn15	Zn	1.597820	0.044242	-0.090908
Zn16	Zn	1.847820	0.294242	0.159092
O17	O	1.165236	-0.388386	-0.503589
O18	O	1.415236	-0.138386	-0.253589
O19	O	1.665236	0.111614	-0.003589
O20	O	1.915236	0.361614	0.246411
O21	O	1.345507	-0.338861	-0.567828
O22	O	1.595507	-0.088861	-0.317828
O23	O	1.845507	0.161139	-0.067828
O24	O	2.095507	0.411139	0.182172
O25	O	1.214685	-0.437976	-0.269993
O26	O	1.464685	-0.187976	-0.019993
O27	O	1.714685	0.062024	0.230007
O28	O	1.964685	0.312024	0.480007
O29	O	1.115787	-0.208165	-0.439454
O30	O	1.365787	0.041835	-0.189454
O31	O	1.615787	0.291835	0.060546
O32	O	1.865787	0.541835	0.310546
O33	O	1.345434	-0.437938	-0.439436
O34	O	1.595434	-0.187938	-0.189436
O35	O	1.845434	0.062062	0.060564
O36	O	2.095434	0.312062	0.310564
O37	O	1.214853	-0.208137	-0.567839
O38	O	1.464853	0.041863	-0.317839
O39	O	1.714853	0.291863	-0.067839
O40	O	1.964853	0.541863	0.182161
O41	O	1.115691	-0.338928	-0.270000
O42	O	1.365691	-0.088928	-0.020000
O43	O	1.615691	0.161072	0.230000
O44	O	1.865691	0.411072	0.480000
O45	O	0.985011	-0.338870	-0.439381
O46	O	1.235011	-0.088870	-0.189381
O47	O	1.485011	0.161130	0.060619
O48	O	1.735011	0.411130	0.310619
O49	O	1.115740	-0.437836	-0.737154
O50	O	1.365740	-0.187836	-0.487154
O51	O	1.615740	0.062164	-0.237154
O52	O	1.865740	0.312164	0.012846
O53	O	0.984991	-0.437874	-0.567711
O54	O	1.234991	-0.187874	-0.317711
O55	O	1.484991	0.062126	-0.067711
O56	O	1.734991	0.312126	0.182289
O57	O	1.214827	-0.338803	-0.737209
O58	O	1.464827	-0.088803	-0.487209
O59	O	1.714827	0.161197	-0.237209
O60	O	1.964827	0.411197	0.012791
O61	O	1.214658	-0.568643	-0.439363
O62	O	1.464658	-0.318643	-0.189363
O63	O	1.714658	-0.068643	0.060637
O64	O	1.964658	0.181357	0.310637
O65	O	1.115644	-0.568598	-0.567701
O66	O	1.365644	-0.318598	-0.317701
O67	O	1.615644	-0.068598	-0.067701
O68	O	1.865644	0.181402	0.182299
C69	C	0.955745	-0.388370	-0.503540
C70	C	1.205745	-0.138370	-0.253540
C71	C	1.455745	0.111630	-0.003540
C72	C	1.705745	0.361630	0.246460
C73	C	0.866124	-0.388383	-0.503544
C74	C	1.116124	-0.138383	-0.253544
C75	C	1.366124	0.111617	-0.003544
C76	C	1.616124	0.361617	0.246456
C77	C	1.165159	-0.597877	-0.503545
C78	C	1.415159	-0.347877	-0.253545
C79	C	1.665159	-0.097877	-0.003545
C80	C	1.915159	0.152123	0.246455
C81	C	1.165200	-0.687498	-0.503562
C82	C	1.415200	-0.437498	-0.253562
C83	C	1.665200	-0.187498	-0.003562
C84	C	1.915200	0.062502	0.246438
C85	C	0.793341	-0.388384	-0.503556
C86	C	1.043341	-0.138384	-0.253556
C87	C	1.293341	0.111616	-0.003556
C88	C	1.543341	0.361616	0.246444
C89	C	0.702033	-0.388389	-0.503583
C90	C	0.952033	-0.138389	-0.253583
C91	C	1.202033	0.111611	-0.003583
C92	C	1.452033	0.361611	0.246417
C93	C	0.629256	-0.388396	-0.503609
C94	C	0.879256	-0.138396	-0.253609
C95	C	1.129256	0.111604	-0.003609
C96	C	1.379256	0.361604	0.246391
C97	C	0.537942	-0.388402	-0.503634
C98	C	0.787942	-0.138402	-0.253634
C99	C	1.037942	0.111598	-0.003634
C100	C	1.287942	0.361598	0.246366
C101	C	1.165341	-1.015673	-0.503671
C102	C	1.415341	-0.765673	-0.253671
C103	C	1.665341	-0.515673	-0.003671
C104	C	1.915341	-0.265673	0.246329
C105	C	1.165299	-0.924365	-0.503643
C106	C	1.415299	-0.674365	-0.253643
C107	C	1.665299	-0.424365	-0.003643
C108	C	1.915299	-0.174365	0.246357
C109	C	1.165270	-0.851588	-0.503616
C110	C	1.415270	-0.601588	-0.253616
C111	C	1.665270	-0.351588	-0.003616
C112	C	1.915270	-0.101588	0.246384
C113	C	1.165230	-0.760274	-0.503589
C114	C	1.415230	-0.510274	-0.253589
C115	C	1.665230	-0.260274	-0.003589
C116	C	1.915230	-0.010274	0.246411
C117	C	1.375545	-0.388402	-0.503639
C118	C	1.625545	-0.138402	-0.253639
C119	C	1.875545	0.111598	-0.003639
C120	C	2.125545	0.361598	0.246361
C121	C	1.465166	-0.388409	-0.503661
C122	C	1.715166	-0.138409	-0.253661
C123	C	1.965166	0.111591	-0.003661
C124	C	2.215166	0.361591	0.246339
C125	C	1.165291	-0.388308	-0.776160
C126	C	1.415291	-0.138308	-0.526160
C127	C	1.665291	0.111692	-0.276160
C128	C	1.915291	0.361692	-0.026160
C129	C	1.165315	-0.388275	-0.892313
C130	C	1.415315	-0.138275	-0.642313
C131	C	1.665315	0.111725	-0.392313
C132	C	1.915315	0.361725	-0.142313
C133	C	1.165334	-0.178077	-0.503656
C134	C	1.415334	0.071923	-0.253656
C135	C	1.665334	0.321923	-0.003656
C136	C	1.915334	0.571923	0.246344
C137	C	1.165376	-0.088456	-0.503684
C138	C	1.415376	0.161544	-0.253684
C139	C	1.665376	0.411544	-0.003684
C140	C	1.915376	0.661544	0.246316
C141	C	1.116345	-0.339254	-0.944101
C142	C	1.366345	-0.089254	-0.694101
C143	C	1.616345	0.160746	-0.444101
C144	C	1.866345	0.410746	-0.194101
C145	C	1.116369	-0.339218	-1.064152
C146	C	1.366369	-0.089218	-0.814152
C147	C	1.616369	0.160782	-0.564152
C148	C	1.866369	0.410782	-0.314152
C149	C	1.165227	-0.388405	-0.232079
C150	C	1.415227	-0.138405	0.017921
C151	C	1.665227	0.111595	0.267921
C152	C	1.915227	0.361595	0.517921
C153	C	1.165359	-0.388211	-0.115927
C154	C	1.415359	-0.138211	0.134073
C155	C	1.665359	0.111789	0.384073
C156	C	1.915359	0.361789	0.634073
H157	H	1.074400	-0.297314	-0.899563
H158	H	1.324400	-0.047314	-0.649563
H159	H	1.574400	0.202686	-0.399563
H160	H	1.824400	0.452686	-0.149563
H161	H	1.074447	-0.297246	-1.108689
H162	H	1.324447	-0.047246	-0.858689
H163	H	1.574447	0.202754	-0.608689
H164	H	1.824447	0.452754	-0.358689
H165	H	1.207289	-0.430179	-1.071396
H166	H	1.457289	-0.180179	-0.821396
H167	H	1.707289	0.069821	-0.571396
H168	H	1.957289	0.319821	-0.321396
H169	H	1.207256	-0.430219	-0.936851
H170	H	1.457256	-0.180219	-0.686851
H171	H	1.707256	0.069781	-0.436851
H172	H	1.957256	0.319781	-0.186851
