data_functionalizedCrystal
_audit_creation_method	'MofGen! by Chris Wilmer'
_symmetry_space_group_name_H-M	'P1'
_symmetry_Int_Tables_number	1
_symmetry_cell_setting	triclinic
loop_
_symmetry_equiv_pos_as_xyz
  x,y,z
_cell_length_a	25.639239
_cell_length_b	25.639242
_cell_length_c	16.625539
_cell_angle_alpha	90.030785
_cell_angle_beta	89.968745
_cell_angle_gamma	89.966288
loop_
_atom_site_label
_atom_site_type_symbol
_atom_site_fract_x
_atom_site_fract_y
_atom_site_fract_z
Zn1	Zn	-0.208219	-0.799262	-0.456113
Zn2	Zn	-0.295657	-0.799175	-0.321273
Zn3	Zn	-0.208230	-0.711828	-0.321269
Zn4	Zn	-0.295618	-0.711784	-0.456039
O5	O	-0.251931	-0.755512	-0.388673
O6	O	-0.219830	-0.872416	-0.438258
O7	O	-0.284081	-0.787570	-0.208440
O8	O	-0.135063	-0.723481	-0.339186
O9	O	-0.284070	-0.872351	-0.339192
O10	O	-0.135055	-0.787719	-0.438255
O11	O	-0.219848	-0.723396	-0.208437
O12	O	-0.219810	-0.638657	-0.339114
O13	O	-0.284003	-0.723406	-0.568881
O14	O	-0.284014	-0.638624	-0.438129
O15	O	-0.219792	-0.787676	-0.568935
O16	O	-0.368817	-0.787527	-0.339120
O17	O	-0.368788	-0.723321	-0.438132
C18	C	-0.251909	-0.619669	-0.388613
C19	C	-0.251912	-0.561555	-0.388607
C20	C	-0.285413	-0.201184	-0.440160
C21	C	-0.285416	-0.146580	-0.440171
O22	O	-0.313876	-0.118337	-0.483967
N23	N	-0.251940	-0.119273	-0.388701
C24	C	-0.218455	-0.146573	-0.337224
O25	O	-0.189982	-0.118332	-0.293447
C26	C	-0.218450	-0.201176	-0.337218
C27	C	-0.251932	-0.228481	-0.388685
C28	C	-0.318891	-0.228489	-0.491623
C29	C	-0.318889	-0.283089	-0.491611
C30	C	-0.285408	-0.310386	-0.440136
C31	C	-0.251930	-0.283081	-0.388673
C32	C	-0.184964	-0.228475	-0.285745
C33	C	-0.184962	-0.283082	-0.285744
C34	C	-0.218443	-0.310387	-0.337211
C35	C	-0.218447	-0.364978	-0.337186
N36	N	-0.251923	-0.392285	-0.388655
C37	C	-0.285404	-0.364989	-0.440130
C38	C	-0.218468	-0.031902	-0.337241
C39	C	-0.218475	0.022700	-0.337243
C40	C	-0.285435	0.022689	-0.440191
C41	C	-0.285430	-0.031914	-0.440185
C42	C	-0.251944	-0.059209	-0.388711
C43	C	-0.285397	-0.479654	-0.440101
C44	C	-0.285393	-0.534259	-0.440082
C45	C	-0.218432	-0.534244	-0.337137
C46	C	-0.218437	-0.479643	-0.337153
C47	C	-0.251921	-0.452349	-0.388641
O48	O	-0.190000	-0.393256	-0.293414
O49	O	-0.313868	-0.393236	-0.483907
C50	C	-0.387774	-0.755424	-0.388636
C51	C	-0.445888	-0.755434	-0.388647
C52	C	-0.806253	-0.789031	-0.337206
C53	C	-0.860857	-0.789051	-0.337216
O54	O	-0.889096	-0.817526	-0.293438
N55	N	-0.888170	-0.755604	-0.388727
C56	C	-0.860876	-0.722138	-0.440235
O57	O	-0.889121	-0.693690	-0.484050
C58	C	-0.806272	-0.722120	-0.440228
C59	C	-0.778962	-0.755566	-0.388709
C60	C	-0.778943	-0.822475	-0.285691
C61	C	-0.724343	-0.822454	-0.285679
C62	C	-0.697052	-0.788989	-0.337182
C63	C	-0.724362	-0.755545	-0.388697
C64	C	-0.778979	-0.688657	-0.491740
C65	C	-0.724372	-0.688643	-0.491729
C66	C	-0.697062	-0.722089	-0.440209
C67	C	-0.642471	-0.722059	-0.440188
N68	N	-0.615158	-0.755507	-0.388678
C69	C	-0.642449	-0.788972	-0.337175
C70	C	-0.975546	-0.722177	-0.440248
C71	C	-1.030148	-0.722191	-0.440252
C72	C	-1.030127	-0.789106	-0.337234
C73	C	-0.975523	-0.789089	-0.337226
C74	C	-0.948233	-0.755625	-0.388737
C75	C	-0.527784	-0.788925	-0.337154
C76	C	-0.473178	-0.788899	-0.337145
C77	C	-0.473205	-0.721987	-0.440165
C78	C	-0.527806	-0.722010	-0.440172
C79	C	-0.555094	-0.755483	-0.388664
O80	O	-0.614197	-0.693601	-0.483946
O81	O	-0.614196	-0.817419	-0.293375
C82	C	-0.115558	-0.755615	-0.388728
C83	C	-0.057444	-0.755658	-0.388751
C84	C	-0.251892	-0.755546	-0.598982
C85	C	-0.251875	-0.755561	-0.688603
C86	C	-0.251951	0.108115	-0.388724
C87	C	-0.251954	0.050001	-0.388721
C88	C	-0.251817	-0.755585	-1.016779
C89	C	-0.251835	-0.755576	-0.925471
C90	C	-0.251847	-0.755573	-0.852694
C91	C	-0.251864	-0.755564	-0.761380
C92	C	-0.251932	-0.755508	-0.179182
C93	C	-0.251801	-0.755595	-0.089562
H94	H	-0.157701	-0.206253	-0.243833
C95	C	-1.060186	-0.685398	-0.496916
H96	H	-1.096615	-0.690197	-0.489549
H97	H	-1.051203	-0.693027	-0.551101
H98	H	-1.051274	-0.650268	-0.485048
C99	C	-0.694354	-0.651832	-0.548390
H100	H	-0.657922	-0.656610	-0.541014
H101	H	-0.703342	-0.616710	-0.536537
H102	H	-0.703273	-0.659474	-0.602581
C103	C	-0.181637	-0.061922	-0.280607
H104	H	-0.161706	-0.037835	-0.249953
H105	H	-0.158877	-0.083248	-0.311504
H106	H	-0.201610	-0.083197	-0.245411
H107	H	-0.157689	-0.305303	-0.243832
H108	H	-0.312695	0.044924	-0.482107
C109	C	-0.181649	0.052729	-0.280624
H110	H	-0.161708	0.028647	-0.249973
H111	H	-0.201618	0.074057	-0.245438
H112	H	-0.158890	0.074002	-0.311540
H113	H	-0.702110	-0.849690	-0.243730
C114	C	-0.181610	-0.449607	-0.280539
H115	H	-0.161669	-0.473686	-0.249883
H116	H	-0.201578	-0.428276	-0.245356
H117	H	-0.158852	-0.428337	-0.311460
C118	C	-0.443181	-0.685182	-0.496824
H119	H	-0.467263	-0.665264	-0.527508
H120	H	-0.421848	-0.705171	-0.531977
H121	H	-0.421913	-0.662402	-0.465939
C122	C	-0.355727	-0.313120	-0.548210
H123	H	-0.350941	-0.349550	-0.540831
H124	H	-0.348130	-0.304200	-0.602412
H125	H	-0.390844	-0.304139	-0.536290
C126	C	-0.808955	-0.859286	-0.229028
H127	H	-0.784862	-0.879196	-0.198348
H128	H	-0.830224	-0.882067	-0.259901
H129	H	-0.830284	-0.839302	-0.193859
C130	C	-0.945532	-0.685358	-0.496904
H131	H	-0.969622	-0.665439	-0.527574
H132	H	-0.924197	-0.705334	-0.532071
H133	H	-0.924267	-0.662578	-0.466014
H134	H	-0.346155	-0.206270	-0.533545
H135	H	-0.191174	-0.556478	-0.295225
C136	C	-0.443140	-0.825694	-0.280475
H137	H	-0.467217	-0.845630	-0.249811
H138	H	-0.421874	-0.805701	-0.245302
H139	H	-0.421806	-0.848458	-0.311358
H140	H	-0.549995	-0.816183	-0.295213
C141	C	-0.945487	-0.825883	-0.280562
H142	H	-0.969566	-0.845816	-0.249896
H143	H	-0.924217	-0.805893	-0.245392
H144	H	-0.924156	-0.848650	-0.311447
H145	H	-0.801205	-0.661419	-0.533689
C146	C	-1.060153	-0.825916	-0.280578
H147	H	-1.096584	-0.821135	-0.287969
H148	H	-1.051236	-0.818280	-0.226389
H149	H	-1.051171	-0.861041	-0.292438
H150	H	-0.550042	-0.694777	-0.482126
H151	H	-0.312662	-0.457438	-0.482029
C152	C	-0.322229	-0.564294	-0.496688
H153	H	-0.317440	-0.600723	-0.489304
H154	H	-0.314629	-0.555375	-0.550889
H155	H	-0.357348	-0.555315	-0.484775
C156	C	-0.322255	-0.061944	-0.496804
H157	H	-0.342191	-0.037862	-0.527462
H158	H	-0.345009	-0.083224	-0.465900
H159	H	-0.302278	-0.083266	-0.531996
