data_functionalizedCrystal
_audit_creation_method	'MofGen! by Chris Wilmer'
_symmetry_space_group_name_H-M	'P1'
_symmetry_Int_Tables_number	1
_symmetry_cell_setting	triclinic
loop_
_symmetry_equiv_pos_as_xyz
  x,y,z
_cell_length_a	14.908783
_cell_length_b	16.959454
_cell_length_c	14.908694
_cell_angle_alpha	93.271572
_cell_angle_beta	83.203601
_cell_angle_gamma	93.311155
loop_
_atom_site_label
_atom_site_type_symbol
_atom_site_fract_x
_atom_site_fract_y
_atom_site_fract_z
Zn1	Zn	1.413394	-0.273222	-0.591789
Zn2	Zn	1.913394	0.226778	-0.091789
Zn3	Zn	1.404563	-0.398208	-0.440429
Zn4	Zn	1.904563	0.101792	0.059571
Zn5	Zn	1.253290	-0.273244	-0.431694
Zn6	Zn	1.753290	0.226756	0.068306
Zn7	Zn	1.261989	-0.412563	-0.583001
Zn8	Zn	1.761989	0.087437	-0.083001
O9	O	1.333309	-0.339309	-0.511728
O10	O	1.833309	0.160691	-0.011728
O11	O	1.538894	-0.283785	-0.579044
O12	O	2.038894	0.216215	-0.079044
O13	O	1.377159	-0.375633	-0.312603
O14	O	1.877159	0.124367	0.187397
O15	O	1.274583	-0.162628	-0.452953
O16	O	1.774583	0.337372	0.047047
O17	O	1.532405	-0.375612	-0.467841
O18	O	2.032405	0.124388	0.032159
O19	O	1.392211	-0.162613	-0.570574
O20	O	1.892211	0.337387	-0.070574
O21	O	1.266020	-0.283822	-0.306185
O22	O	1.766020	0.216178	0.193815
O23	O	1.127773	-0.297741	-0.444432
O24	O	1.627773	0.202259	0.055568
O25	O	1.289410	-0.400078	-0.710834
O26	O	1.789410	0.099922	-0.210834
O27	O	1.134164	-0.400099	-0.555597
O28	O	1.634164	0.099901	-0.055597
O29	O	1.400646	-0.297705	-0.717290
O30	O	1.900646	0.202295	-0.217290
O31	O	1.385595	-0.510725	-0.459319
O32	O	1.885595	-0.010725	0.040681
O33	O	1.280847	-0.521271	-0.564067
O34	O	1.780847	-0.021271	-0.064067
C35	C	1.098124	-0.350481	-0.498113
C36	C	1.598124	0.149519	0.001887
C37	C	0.997512	-0.355280	-0.492310
C38	C	1.497512	0.144720	0.007690
C39	C	0.815216	-0.268826	-0.597379
C40	C	1.315216	0.231174	-0.097379
C41	C	0.720682	-0.273332	-0.591929
C42	C	1.220682	0.226668	-0.091929
C43	C	0.713909	-0.368795	-0.475958
C44	C	1.213909	0.131205	0.024042
C45	C	0.808443	-0.364288	-0.481407
C46	C	1.308443	0.135712	0.018593
C47	C	0.859093	-0.314303	-0.542121
C48	C	1.359093	0.185697	-0.042121
C49	C	0.953629	-0.309801	-0.547574
C50	C	1.453629	0.190199	-0.047574
C51	C	0.946853	-0.405259	-0.431599
C52	C	1.446853	0.094741	0.068401
C53	C	0.852320	-0.409765	-0.426149
C54	C	1.352320	0.090235	0.073851
C55	C	1.333232	-0.544678	-0.511708
C56	C	1.833232	-0.044678	-0.011708
C57	C	1.333284	-0.632534	-0.511735
C58	C	1.833284	-0.132534	-0.011735
C59	C	1.278850	-1.009525	-0.566269
C60	C	1.778850	-0.509525	-0.066269
C61	C	1.388025	-0.998483	-0.457294
C62	C	1.888025	-0.498483	0.042706
C63	C	1.387993	-0.915938	-0.457284
C64	C	1.887993	-0.415938	0.042716
C65	C	1.333388	-0.880183	-0.511766
C66	C	1.833388	-0.380183	-0.011766
C67	C	1.278814	-0.926973	-0.566258
C68	C	1.778814	-0.426973	-0.066258
C69	C	1.442558	-0.869142	-0.402786
C70	C	1.942558	-0.369142	0.097214
C71	C	1.442527	-0.786592	-0.402773
C72	C	1.942527	-0.286592	0.097227
C73	C	1.387926	-0.750836	-0.457261
C74	C	1.887926	-0.250836	0.042739
C75	C	1.333352	-0.797631	-0.511756
C76	C	1.833352	-0.297631	-0.011756
C77	C	1.278747	-0.761876	-0.566238
C78	C	1.778747	-0.261876	-0.066238
C79	C	1.224176	-0.808669	-0.620738
C80	C	1.724176	-0.308669	-0.120738
C81	C	1.224213	-0.891216	-0.620746
C82	C	1.724213	-0.391216	-0.120746
C83	C	1.387889	-0.668289	-0.457253
C84	C	1.887889	-0.168289	0.042747
C85	C	1.278711	-0.679323	-0.566227
C86	C	1.778711	-0.179323	-0.066227
C87	C	1.569412	-0.328095	-0.525397
C88	C	2.069412	0.171905	-0.025397
C89	C	1.670025	-0.323316	-0.531222
C90	C	2.170025	0.176684	-0.031222
C91	C	1.346984	-0.350490	-0.747824
C92	C	1.846984	0.149510	-0.247824
C93	C	1.352811	-0.355255	-0.848434
C94	C	1.852811	0.144745	-0.348434
C95	C	1.333412	-0.133138	-0.511769
C96	C	1.833412	0.366862	-0.011769
C97	C	1.333456	-0.045280	-0.511787
C98	C	1.833456	0.454720	-0.011787
C99	C	1.248011	-0.268609	-1.030808
C100	C	1.748011	0.231391	-0.530808
C101	C	1.253483	-0.273083	-1.125340
C102	C	1.753483	0.226917	-0.625340
C103	C	1.369222	-0.368682	-1.132031
C104	C	1.869222	0.131318	-0.632031
C105	C	1.363750	-0.364207	-1.037499
C106	C	1.863750	0.135793	-0.537499
C107	C	1.303143	-0.314168	-0.986891
C108	C	1.803143	0.185832	-0.486891
C109	C	1.297676	-0.309690	-0.892358
C110	C	1.797676	0.190310	-0.392358
C111	C	1.413410	-0.405292	-0.899050
C112	C	1.913410	0.094708	-0.399050
C113	C	1.418883	-0.409767	-0.993582
C114	C	1.918883	0.090233	-0.493582
C115	C	1.319739	-0.328112	-0.276554
C116	C	1.819739	0.171888	0.223446
C117	C	1.314088	-0.323117	-0.175955
C118	C	1.814088	0.176883	0.324045
H119	H	0.994867	-0.269101	-0.597011
H120	H	1.494867	0.230899	-0.097011
H121	H	1.418553	-0.409432	-1.173251
H122	H	1.918553	0.090568	-0.673251
H123	H	1.179712	-0.779548	-0.665093
H124	H	1.679712	-0.279548	-0.165093
H125	H	0.684961	-0.236298	-0.636924
H126	H	1.184961	0.263702	-0.136924
F127	F	1.220779	-1.059325	-0.624273
F128	F	1.720779	-0.559325	-0.124273
F129	F	1.483378	-0.463022	-1.047452
F130	F	1.983378	0.036978	-0.547452
F131	F	1.183518	-0.215347	-0.976946
F132	F	1.683518	0.284653	-0.476946
F133	F	1.500672	-0.907199	-0.344811
F134	F	2.000672	-0.407199	0.155189
F135	F	0.659988	-0.421980	-0.411338
F136	F	1.159988	0.078020	0.088662
F137	F	1.194800	-0.224595	-1.172077
F138	F	1.694800	0.275405	-0.672077
F139	F	0.798404	-0.462958	-0.361534
F140	F	1.298404	0.037042	0.138466
H141	H	1.458307	-0.442388	-0.863283
H142	H	1.958307	0.057612	-0.363283
F143	F	1.445954	-0.618492	-0.399245
F144	F	1.945954	-0.118492	0.100755
H145	H	1.179784	-0.929323	-0.665116
H146	H	1.679784	-0.429323	-0.165116
H147	H	1.234248	-0.650217	-0.610597
H148	H	1.734248	-0.150217	-0.110597
H149	H	1.248330	-0.268942	-0.851154
H150	H	1.748330	0.231058	-0.351154
H151	H	0.856457	-0.228129	-0.646818
H152	H	1.356457	0.271871	-0.146818
F153	F	1.500611	-0.736799	-0.344776
F154	F	2.000611	-0.236799	0.155224
H155	H	1.432476	-1.027600	-0.412932
H156	H	1.932476	-0.527600	0.087068
F157	F	0.993557	-0.453667	-0.372790
F158	F	1.493557	0.046333	0.127210
