data_functionalizedCrystal
_audit_creation_method	'MofGen! by Chris Wilmer'
_symmetry_space_group_name_H-M	'P1'
_symmetry_Int_Tables_number	1
_symmetry_cell_setting	triclinic
loop_
_symmetry_equiv_pos_as_xyz
  x,y,z
_cell_length_a	16.109302
_cell_length_b	14.519731
_cell_length_c	14.586319
_cell_angle_alpha	89.995223
_cell_angle_beta	89.994552
_cell_angle_gamma	83.575317
loop_
_atom_site_label
_atom_site_type_symbol
_atom_site_fract_x
_atom_site_fract_y
_atom_site_fract_z
O1	O	1.103344	0.118542	-0.076284
O2	O	1.603344	0.618542	0.423716
O3	O	0.861308	0.133293	-0.076277
O4	O	1.361308	0.633293	0.423723
O5	O	0.988734	-0.008333	-0.076272
O6	O	1.488734	0.491667	0.423728
O7	O	0.975918	0.260168	-0.076288
O8	O	1.475918	0.760168	0.423712
O9	O	0.988725	-0.008335	0.076209
O10	O	1.488725	0.491665	0.576209
O11	O	0.861300	0.133291	0.076204
O12	O	1.361300	0.633291	0.576204
O13	O	1.103335	0.118540	0.076197
O14	O	1.603335	0.618540	0.576197
Cu15	Cu	0.982316	0.125915	0.090123
Cu16	Cu	1.482316	0.625915	0.590123
Cu17	Cu	0.982327	0.125918	-0.090203
Cu18	Cu	1.482327	0.625918	0.409797
O19	O	0.975909	0.260166	0.076193
O20	O	1.475909	0.760166	0.576193
C21	C	0.830328	0.132695	-0.000035
C22	C	1.330328	0.632695	0.499965
C23	C	0.738030	0.130903	-0.000032
C24	C	1.238030	0.630903	0.499968
C25	C	0.525676	0.126758	0.083076
C26	C	1.025676	0.626758	0.583076
C27	C	0.438953	0.125065	0.083073
C28	C	0.938953	0.625065	0.583073
C29	C	0.438973	0.125072	-0.083170
C30	C	0.938973	0.625072	0.416830
C31	C	0.525696	0.126759	-0.083166
C32	C	1.025696	0.626759	0.416834
C33	C	0.569044	0.127607	-0.000040
C34	C	1.069044	0.627607	0.499960
C35	C	0.395599	0.124226	-0.000047
C36	C	0.895599	0.624226	0.499953
C37	C	0.301570	0.122390	-0.000051
C38	C	0.801570	0.622390	0.499949
C39	C	0.663080	0.129441	-0.000036
C40	C	1.163080	0.629441	0.499964
C41	C	0.988129	-0.042692	-0.000031
C42	C	1.488129	0.457308	0.499969
C43	C	0.986330	-0.145069	-0.000031
C44	C	1.486330	0.354931	0.499969
C45	C	0.984868	-0.228210	-0.000033
C46	C	1.484868	0.271790	0.499967
C47	C	0.983041	-0.332515	-0.000040
C48	C	1.483041	0.167485	0.499960
C49	C	0.981591	-0.415651	-0.000046
C50	C	1.481591	0.084349	0.499954
C51	C	0.979764	-0.519962	-0.000051
C52	C	1.479764	-0.019962	0.499949
C53	C	1.134315	0.119139	-0.000046
C54	C	1.634315	0.619139	0.499954
C55	C	1.226614	0.120930	-0.000055
C56	C	1.726614	0.620930	0.499945
C57	C	0.976514	0.294525	-0.000050
C58	C	1.476514	0.794525	0.499950
C59	C	0.978314	0.396902	-0.000057
C60	C	1.478314	0.896902	0.499943
N61	N	0.982315	0.125913	0.216955
N62	N	1.482315	0.625913	0.716955
N63	N	0.982335	0.125913	-0.217035
N64	N	1.482335	0.625913	0.282965
C65	C	1.038758	0.063222	0.451964
C66	C	1.538758	0.563222	0.951964
C67	C	1.038760	0.063220	0.547945
C68	C	1.538760	0.563220	1.047945
C69	C	0.925886	0.188607	0.547950
C70	C	1.425886	0.688607	1.047950
C71	C	0.925880	0.188604	0.451971
C72	C	1.425880	0.688604	0.951971
C73	C	0.982321	0.125913	0.403980
C74	C	1.482321	0.625913	0.903980
C75	C	0.982329	0.125913	0.595941
C76	C	1.482329	0.625913	1.095941
C77	C	0.982331	0.125911	0.700008
C78	C	1.482331	0.625911	1.200008
C79	C	0.982318	0.125913	0.299906
C80	C	1.482318	0.625913	0.799906
H81	H	0.561007	0.127447	-0.150853
H82	H	1.061007	0.627447	0.349147
O83	O	0.871099	0.249632	0.594467
O84	O	1.371099	0.749632	1.094467
C85	C	0.822658	0.409976	0.623859
C86	C	1.322658	0.909976	1.123859
C87	C	0.884740	0.340964	0.571111
C88	C	1.384740	0.840964	1.071111
H89	H	0.833677	0.483833	0.605010
H90	H	1.333677	0.983833	1.105010
H91	H	0.756035	0.398011	0.604981
H92	H	1.256035	0.898011	1.104981
H93	H	0.832342	0.399167	0.700697
H94	H	1.332342	0.899167	1.200697
H95	H	0.875132	0.351732	0.494261
H96	H	1.375132	0.851732	0.994261
H97	H	0.951341	0.352947	0.590065
H98	H	1.451341	0.852947	1.090065
O99	O	1.093626	0.002428	0.405283
O100	O	1.593626	0.502428	0.905283
C101	C	1.207042	-0.017248	0.296795
C102	C	1.707042	0.482752	0.796795
C103	C	1.144987	0.051719	0.349630
C104	C	1.644987	0.551719	0.849630
H105	H	1.248571	0.022576	0.251772
H106	H	1.748571	0.522576	0.751772
H107	H	1.247440	-0.062072	0.347517
H108	H	1.747440	0.437928	0.847517
H109	H	1.171006	-0.063316	0.251934
H110	H	1.671006	0.436684	0.751934
H111	H	1.180955	0.097847	0.394493
H112	H	1.680955	0.597847	0.894493
H113	H	1.104588	0.096477	0.298859
H114	H	1.604588	0.596477	0.798859
H115	H	0.403668	0.124383	-0.150848
H116	H	0.903668	0.624383	0.349152
O117	O	1.093665	0.002289	0.594414
O118	O	1.593665	0.502289	1.094414
C119	C	1.205589	-0.122113	0.584273
C120	C	1.705589	0.377887	1.084273
C121	C	1.143466	-0.053140	0.531534
C122	C	1.643466	0.446860	1.031534
H123	H	1.245857	-0.166958	0.533458
H124	H	1.745857	0.333042	1.033458
H125	H	1.247241	-0.082331	0.629174
H126	H	1.747241	0.417669	1.129174
H127	H	1.169612	-0.168156	0.629242
H128	H	1.669612	0.331844	1.129242
H129	H	1.179375	-0.007080	0.486515
H130	H	1.679375	0.492920	0.986515
H131	H	1.101815	-0.092980	0.486691
H132	H	1.601815	0.407020	0.986691
O133	O	0.871170	0.249548	0.405254
O134	O	1.371170	0.749548	0.905254
C135	C	0.853666	0.375524	0.296918
C136	C	1.353666	0.875524	0.796918
C137	C	0.915714	0.306550	0.349750
C138	C	1.415714	0.806550	0.849750
H139	H	0.889656	0.421641	0.252046
H140	H	1.389656	0.921641	0.752046
H141	H	0.812081	0.335743	0.251933
H142	H	1.312081	0.835743	0.751933
H143	H	0.813317	0.420295	0.347723
H144	H	1.313317	0.920295	0.847723
H145	H	0.956118	0.261761	0.299012
H146	H	1.456118	0.761761	0.799012
H147	H	0.957241	0.346387	0.394749
H148	H	1.457241	0.846387	0.894749
H149	H	0.560968	0.127449	0.150762
H150	H	1.060968	0.627449	0.650762
H151	H	0.403647	0.124374	0.150755
H152	H	0.903647	0.624374	0.650755
