data_functionalizedCrystal
_audit_creation_method	'MofGen! by Chris Wilmer'
_symmetry_space_group_name_H-M	'P1'
_symmetry_Int_Tables_number	1
_symmetry_cell_setting	triclinic
loop_
_symmetry_equiv_pos_as_xyz
  x,y,z
_cell_length_a	14.908571
_cell_length_b	29.839131
_cell_length_c	14.908308
_cell_angle_alpha	93.253999
_cell_angle_beta	90.175053
_cell_angle_gamma	86.730696
loop_
_atom_site_label
_atom_site_type_symbol
_atom_site_fract_x
_atom_site_fract_y
_atom_site_fract_z
Zn1	Zn	1.345180	-0.234441	-0.587474
Zn2	Zn	1.845180	0.265559	-0.087474
Zn3	Zn	1.353725	-0.305498	-0.437082
Zn4	Zn	1.853725	0.194502	0.062918
Zn5	Zn	1.203500	-0.225812	-0.428476
Zn6	Zn	1.703500	0.274188	0.071524
Zn7	Zn	1.194753	-0.304964	-0.578733
Zn8	Zn	1.694753	0.195036	-0.078733
O9	O	1.274290	-0.267679	-0.507941
O10	O	1.774290	0.232321	-0.007941
O11	O	1.472138	-0.247701	-0.574784
O12	O	1.972138	0.252299	-0.074784
O13	O	1.341034	-0.291539	-0.310117
O14	O	1.841034	0.208461	0.189883
O15	O	1.222378	-0.164093	-0.449624
O16	O	1.722378	0.335907	0.050376
O17	O	1.478416	-0.299906	-0.464291
O18	O	1.978416	0.200094	0.035709
O19	O	1.326470	-0.170433	-0.566439
O20	O	1.826470	0.329567	-0.066439
O21	O	1.230664	-0.232995	-0.303794
O22	O	1.730664	0.267005	0.196206
O23	O	1.076515	-0.232477	-0.441148
O24	O	1.576515	0.267523	0.058852
O25	O	1.207471	-0.298997	-0.705716
O26	O	1.707471	0.201003	-0.205716
O27	O	1.070090	-0.290630	-0.551542
O28	O	1.570090	0.209370	-0.051542
O29	O	1.317989	-0.247183	-0.712138
O30	O	1.817989	0.252817	-0.212138
O31	O	1.332553	-0.368290	-0.455816
O32	O	1.832553	0.131710	0.044184
O33	O	1.215757	-0.367898	-0.559887
O34	O	1.715757	0.132102	-0.059887
C35	C	1.040678	-0.260560	-0.494463
C36	C	1.540678	0.239440	0.005537
C37	C	0.940736	-0.257525	-0.488719
C38	C	1.440736	0.242475	0.011281
C39	C	0.746301	-0.312463	-0.592722
C40	C	1.246301	0.187537	-0.092722
C41	C	0.652397	-0.309614	-0.587328
C42	C	1.152397	0.190386	-0.087328
C43	C	0.659022	-0.248975	-0.472541
C44	C	1.159022	0.251025	0.027459
C45	C	0.752926	-0.251825	-0.477935
C46	C	1.252926	0.248175	0.022065
C47	C	0.796562	-0.283570	-0.538027
C48	C	1.296562	0.216430	-0.038027
C49	C	0.890468	-0.286421	-0.543416
C50	C	1.390468	0.213579	-0.043416
C51	C	0.897091	-0.225781	-0.428634
C52	C	1.397091	0.274219	0.071366
C53	C	0.803187	-0.222932	-0.423240
C54	C	1.303187	0.277068	0.076760
C55	C	1.274157	-0.384395	-0.507858
C56	C	1.774157	0.115605	-0.007858
C57	C	1.274181	-0.434330	-0.507857
C58	C	1.774181	0.065670	-0.007857
C59	C	1.328473	-0.747247	-0.568848
C60	C	1.828473	-0.247247	-0.068848
C61	C	1.328568	-0.934924	-0.568908
C62	C	1.828568	-0.434924	-0.068908
O63	O	1.374598	-0.961967	-0.620701
O64	O	1.874598	-0.461967	-0.120701
N65	N	1.274437	-0.955128	-0.508050
N66	N	1.774437	-0.455128	-0.008050
C67	C	1.220274	-0.928409	-0.447176
C68	C	1.720274	-0.428409	0.052824
O69	O	1.174227	-0.949900	-0.395420
O70	O	1.674227	-0.449900	0.104580
C71	C	1.220175	-0.740733	-0.447122
C72	C	1.720175	-0.240733	0.052878
C73	C	1.274316	-0.720532	-0.507978
C74	C	1.774316	-0.220532	-0.007978
C75	C	1.382609	-0.727046	-0.629700
C76	C	1.882609	-0.227046	-0.129700
C77	C	1.382589	-0.680129	-0.629681
C78	C	1.882589	-0.180129	-0.129681
C79	C	1.328432	-0.653414	-0.568811
C80	C	1.828432	-0.153414	-0.068811
C81	C	1.274296	-0.673615	-0.507959
C82	C	1.774296	-0.173615	-0.007959
C83	C	1.166008	-0.714015	-0.386253
C84	C	1.666008	-0.214015	0.113747
C85	C	1.165986	-0.667093	-0.386247
C86	C	1.665986	-0.167093	0.113753
C87	C	1.220128	-0.646892	-0.447103
C88	C	1.720128	-0.146892	0.052897
C89	C	1.220119	-0.599983	-0.447070
C90	C	1.720119	-0.099983	0.052930
N91	N	1.274250	-0.579779	-0.507928
N92	N	1.774250	-0.079779	-0.007928
C93	C	1.328406	-0.606495	-0.568798
C94	C	1.828406	-0.106495	-0.068798
C95	C	1.220331	-1.026942	-0.447208
C96	C	1.720331	-0.526942	0.052792
C97	C	1.220356	-1.073861	-0.447221
C98	C	1.720356	-0.573861	0.052779
C99	C	1.328649	-1.080373	-0.568953
C100	C	1.828649	-0.580373	-0.068953
C101	C	1.328628	-1.033453	-0.568936
C102	C	1.828628	-0.533453	-0.068936
C103	C	1.274462	-1.006739	-0.508066
C104	C	1.774462	-0.506739	-0.008066
C105	C	1.328360	-0.507966	-0.568754
C106	C	1.828360	-0.007966	-0.068754
C107	C	1.328337	-0.461045	-0.568727
C108	C	1.828337	0.038955	-0.068727
C109	C	1.220041	-0.454537	-0.446998
C110	C	1.720041	0.045463	0.053002
C111	C	1.220067	-0.501454	-0.447021
C112	C	1.720067	-0.001454	0.052979
C113	C	1.274229	-0.528168	-0.507906
C114	C	1.774229	-0.028168	-0.007906
O115	O	1.174105	-0.572913	-0.395310
O116	O	1.674105	-0.072913	0.104690
O117	O	1.374431	-0.584995	-0.620560
O118	O	1.874431	-0.084995	-0.120560
C119	C	1.328494	-0.794163	-0.568867
C120	C	1.828494	-0.294163	-0.068867
C121	C	1.274357	-0.814365	-0.508015
C122	C	1.774357	-0.314365	-0.008015
C123	C	1.220201	-0.787649	-0.447145
C124	C	1.720201	-0.287649	0.052855
C125	C	1.274383	-0.861284	-0.508028
C126	C	1.774383	-0.361284	-0.008028
C127	C	1.328540	-0.887999	-0.568898
C128	C	1.828540	-0.387999	-0.068898
C129	C	1.382671	-0.867795	-0.629756
C130	C	1.882671	-0.367795	-0.129756
C131	C	1.382650	-0.820879	-0.629737
C132	C	1.882650	-0.320879	-0.129737
C133	C	1.166070	-0.807853	-0.386287
C134	C	1.666070	-0.307853	0.113713
C135	C	1.166095	-0.854770	-0.386310
C136	C	1.666095	-0.354770	0.113690
C137	C	1.220252	-0.881485	-0.447180
C138	C	1.720252	-0.381485	0.052820
C139	C	1.508814	-0.274826	-0.521472
C140	C	2.008814	0.225174	-0.021472
C141	C	1.608754	-0.277871	-0.527238
C142	C	2.108754	0.222129	-0.027238
C143	C	1.260801	-0.273993	-0.742464
C144	C	1.760801	0.226007	-0.242464
C145	C	1.255053	-0.276684	-0.842403
C146	C	1.755053	0.223316	-0.342403
C147	C	1.274446	-0.150508	-0.508046
C148	C	1.774446	0.349492	-0.008046
C149	C	1.274513	-0.100576	-0.508091
C150	C	1.774513	0.399424	-0.008091
C151	C	1.359332	-0.227777	-1.036888
C152	C	1.859332	0.272223	-0.536888
C153	C	1.353934	-0.230304	-1.130791
C154	C	1.853934	0.269696	-0.630791
C155	C	1.238856	-0.284262	-1.124111
C156	C	1.738856	0.215738	-0.624111
C157	C	1.244254	-0.281735	-1.030209
C158	C	1.744254	0.218265	-0.530209
C159	C	1.304495	-0.253492	-0.986601
C160	C	1.804495	0.246508	-0.486601
C161	C	1.309897	-0.250968	-0.892697
C162	C	1.809897	0.249032	-0.392697
C163	C	1.194814	-0.304923	-0.886019
C164	C	1.694814	0.195077	-0.386019
C165	C	1.189417	-0.307450	-0.979922
C166	C	1.689417	0.192550	-0.479922
C167	C	1.287777	-0.261358	-0.274334
C168	C	1.787777	0.238642	0.225666
C169	C	1.293699	-0.258546	-0.174405
C170	C	1.793699	0.241454	0.325595
H171	H	0.925996	-0.312271	-0.592345
H172	H	1.425996	0.187729	-0.092345
F173	F	1.108333	-0.638663	-0.321459
F174	F	1.608333	-0.138663	0.178541
F175	F	1.374012	-0.220911	-0.846288
F176	F	1.874012	0.279089	-0.346288
H177	H	1.176279	-1.090305	-0.397657
H178	H	1.676279	-0.590305	0.102343
H179	H	1.372429	-0.444600	-0.618283
H180	H	1.872429	0.055400	-0.118283
F181	F	1.440312	-0.896236	-0.694536
F182	F	1.940312	-0.396236	-0.194536
H183	H	1.372714	-1.017009	-0.618491
H184	H	1.872714	-0.517009	-0.118491
H185	H	0.938024	-0.202255	-0.384095
H186	H	1.438024	0.297745	0.115905
H187	H	1.372457	-0.529711	-0.618338
H188	H	1.872457	-0.029711	-0.118338
F189	F	1.412299	-0.202933	-1.184307
F190	F	1.912299	0.297067	-0.684307
H191	H	0.611478	-0.333141	-0.631869
H192	H	1.111478	0.166859	-0.131869
F193	F	1.108471	-0.876264	-0.321530
F194	F	1.608471	-0.376264	0.178470
F195	F	1.423453	-0.197724	-0.990476
F196	F	1.923453	0.302276	-0.490476
F197	F	1.440208	-0.658636	-0.694458
F198	F	1.940208	-0.158636	-0.194458
F199	F	1.162408	-0.426097	-0.382217
F200	F	1.662408	0.073903	0.117783
H201	H	1.426710	-0.748793	-0.679273
H202	H	1.926710	-0.248793	-0.179273
H203	H	1.121921	-0.730454	-0.336698
H204	H	1.621921	-0.230454	0.163302
H205	H	1.140368	-0.330444	-1.015440
H206	H	1.640368	0.169556	-0.515440
F207	F	1.174743	-0.314314	-1.170537
F208	F	1.674743	0.185686	-0.670537
F209	F	0.792745	-0.346252	-0.656667
F210	F	1.292745	0.153748	-0.156667
F211	F	0.612565	-0.215187	-0.408604
F212	F	1.112565	0.284813	0.091396
F213	F	0.756735	-0.189146	-0.359293
F214	F	1.256735	0.310854	0.140707
F215	F	1.386287	-1.108813	-0.633736
F216	F	1.886287	-0.608813	-0.133736
F217	F	1.136457	-0.332297	-0.832494
F218	F	1.636457	0.167703	-0.332494
F219	F	1.162673	-0.998516	-0.382420
F220	F	1.662673	-0.498516	0.117580
H221	H	1.175988	-0.517903	-0.397460
H222	H	1.675988	-0.017903	0.102540
F223	F	1.440274	-0.799385	-0.694510
F224	F	1.940274	-0.299385	-0.194510
H225	H	1.121968	-0.786105	-0.336720
H226	H	1.621968	-0.286105	0.163280
