data_functionalizedCrystal
_audit_creation_method	'MofGen! by Chris Wilmer'
_symmetry_space_group_name_H-M	'P1'
_symmetry_Int_Tables_number	1
_symmetry_cell_setting	triclinic
loop_
_symmetry_equiv_pos_as_xyz
  x,y,z
_cell_length_a	11.169416
_cell_length_b	11.169417
_cell_length_c	11.169409
_cell_angle_alpha	90.022388
_cell_angle_beta	89.969184
_cell_angle_gamma	89.991438
loop_
_atom_site_label
_atom_site_type_symbol
_atom_site_fract_x
_atom_site_fract_y
_atom_site_fract_z
Zn1	Zn	-0.477768	-1.834971	-0.678613
Zn2	Zn	0.022232	-1.334971	-0.178613
Zn3	Zn	-0.678508	-1.834858	-0.477935
Zn4	Zn	-0.178508	-1.334858	0.022065
Zn5	Zn	-0.477831	-1.634254	-0.477941
Zn6	Zn	0.022169	-1.134254	0.022059
Zn7	Zn	-0.678401	-1.634264	-0.678574
Zn8	Zn	-0.178401	-1.134264	-0.178574
O9	O	-0.578127	-1.734587	-0.578266
O10	O	-0.078127	-1.234587	-0.078266
O11	O	-0.504414	-2.002906	-0.652007
O12	O	-0.004414	-1.502906	-0.152007
O13	O	-0.651959	-1.808196	-0.309986
O14	O	-0.151959	-1.308196	0.190014
O15	O	-0.309873	-1.660923	-0.504580
O16	O	0.190127	-1.160923	-0.004580
O17	O	-0.651897	-2.002823	-0.504570
O18	O	-0.151897	-1.502823	-0.004570
O19	O	-0.309826	-1.808389	-0.652013
O20	O	0.190174	-1.308389	-0.152013
O21	O	-0.504523	-1.660813	-0.309991
O22	O	-0.004523	-1.160813	0.190009
O23	O	-0.504419	-1.466306	-0.504542
O24	O	-0.004419	-0.966306	-0.004542
O25	O	-0.651715	-1.660940	-0.846529
O26	O	-0.151715	-1.160940	-0.346529
O27	O	-0.651777	-1.466313	-0.651945
O28	O	-0.151777	-0.966313	-0.151945
O29	O	-0.504311	-1.808399	-0.846558
O30	O	-0.004311	-1.308399	-0.346558
O31	O	-0.846443	-1.808206	-0.504531
O32	O	-0.346443	-1.308206	-0.004531
O33	O	-0.846365	-1.660830	-0.651940
O34	O	-0.346365	-1.160830	-0.151940
C35	C	-0.889952	-1.734539	-0.578257
C36	C	-0.389952	-1.234539	-0.078257
C37	C	-1.023352	-1.734629	-0.578293
C38	C	-0.523352	-1.234629	-0.078293
C39	C	-0.578094	-1.422762	-0.578241
C40	C	-0.078094	-0.922762	-0.078241
C41	C	-0.578109	-1.289362	-0.578258
C42	C	-0.078109	-0.789362	-0.078258
C43	C	-0.577994	-1.734683	-0.891309
C44	C	-0.077994	-1.234683	-0.391309
C45	C	-0.577937	-1.734724	-1.024709
C46	C	-0.077937	-1.234724	-0.524709
C47	C	-0.265085	-1.734667	-0.578301
C48	C	0.234915	-1.234667	-0.078301
C49	C	-0.131685	-1.734702	-0.578316
C50	C	0.368315	-1.234702	-0.078316
C51	C	-0.578149	-1.047629	-0.578284
C52	C	-0.078149	-0.547629	-0.078284
C53	C	-0.578129	-1.181029	-0.578271
C54	C	-0.078129	-0.681029	-0.078271
C55	C	-0.578173	-1.734560	-0.266441
C56	C	-0.078173	-1.234560	0.233559
C57	C	-0.577891	-1.734752	-0.133042
C58	C	-0.077891	-1.234752	0.366958
