data_functionalizedCrystal
_audit_creation_method	'MofGen! by Chris Wilmer'
_symmetry_space_group_name_H-M	'P1'
_symmetry_Int_Tables_number	1
_symmetry_cell_setting	triclinic
loop_
_symmetry_equiv_pos_as_xyz
  x,y,z
_cell_length_a	19.288840
_cell_length_b	19.288865
_cell_length_c	17.766277
_cell_angle_alpha	89.988481
_cell_angle_beta	89.983087
_cell_angle_gamma	83.131131
loop_
_atom_site_label
_atom_site_type_symbol
_atom_site_fract_x
_atom_site_fract_y
_atom_site_fract_z
O1	O	0.921364	0.086566	-0.062729
O2	O	1.254698	0.419899	0.270605
O3	O	1.588031	0.753232	0.603938
O4	O	0.719101	0.098273	-0.062704
O5	O	1.052435	0.431606	0.270630
O6	O	1.385768	0.764939	0.603963
O7	O	0.826077	-0.008712	-0.062702
O8	O	1.159411	0.324622	0.270631
O9	O	1.492744	0.657955	0.603965
O10	O	0.814389	0.193550	-0.062730
O11	O	1.147722	0.526883	0.270603
O12	O	1.481055	0.860217	0.603936
O13	O	0.826058	-0.008717	0.062487
O14	O	1.159391	0.324617	0.395820
O15	O	1.492725	0.657950	0.729153
O16	O	0.719082	0.098268	0.062485
O17	O	1.052415	0.431601	0.395818
O18	O	1.385749	0.764934	0.729152
O19	O	0.921345	0.086561	0.062460
O20	O	1.254678	0.419894	0.395793
O21	O	1.588012	0.753227	0.729127
Cu22	Cu	0.820212	0.092414	0.073903
Cu23	Cu	1.153545	0.425747	0.407237
Cu24	Cu	1.486878	0.759080	0.740570
Cu25	Cu	0.820235	0.092420	-0.074147
Cu26	Cu	1.153568	0.425753	0.259187
Cu27	Cu	1.486901	0.759086	0.592520
O28	O	0.814369	0.193545	0.062458
O29	O	1.147702	0.526878	0.395792
O30	O	1.481036	0.860212	0.729125
C31	C	0.693215	0.097896	-0.000106
C32	C	1.026548	0.431230	0.333227
C33	C	1.359882	0.764563	0.666561
C34	C	0.616110	0.096774	-0.000096
C35	C	0.949444	0.430108	0.333238
C36	C	1.282777	0.763441	0.666571
C37	C	0.579917	0.096238	-0.068338
C38	C	0.913251	0.429571	0.264996
C39	C	1.246584	0.762905	0.598329
C40	C	0.507471	0.095176	-0.068347
C41	C	0.840804	0.428509	0.264986
C42	C	1.174137	0.761843	0.598320
C43	C	0.471221	0.094636	-0.000110
C44	C	0.804555	0.427970	0.333223
C45	C	1.137888	0.761303	0.666557
C46	C	0.507422	0.095176	0.068141
C47	C	0.840756	0.428510	0.401474
C48	C	1.174089	0.761843	0.734808
C49	C	0.579867	0.096246	0.068148
C50	C	0.913200	0.429579	0.401482
C51	C	1.246534	0.762912	0.734815
C52	C	0.361885	0.052256	0.052164
C53	C	0.695219	0.385590	0.385498
C54	C	1.028552	0.718923	0.718831
C55	C	0.289443	0.051183	0.052155
C56	C	0.622776	0.384516	0.385488
C57	C	0.956109	0.717850	0.718821
C58	C	0.247778	0.091342	-0.000129
C59	C	0.581111	0.424675	0.333204
C60	C	0.914444	0.758009	0.666538
C61	C	0.278565	0.132566	-0.052416
C62	C	0.611899	0.465899	0.280918
C63	C	0.945232	0.799232	0.614251
C64	C	0.351010	0.133635	-0.052408
C65	C	0.684343	0.466968	0.280925
C66	C	1.017676	0.800301	0.614258
C67	C	0.392667	0.093477	-0.000110
C68	C	0.726001	0.426811	0.333223
C69	C	1.059334	0.760144	0.666557
C70	C	0.133029	0.089655	-0.068386
C71	C	0.466363	0.422989	0.264948
C72	C	0.799696	0.756322	0.598281
C73	C	0.060581	0.088598	-0.068392
C74	C	0.393914	0.421931	0.264941
C75	C	0.727247	0.755264	0.598275
C76	C	0.060535	0.088591	0.068098
C77	C	0.393868	0.421924	0.401431
C78	C	0.727201	0.755258	0.734765
C79	C	0.132981	0.089656	0.068102
C80	C	0.466314	0.422989	0.401436
C81	C	0.799648	0.756322	0.734769
C82	C	0.169225	0.090185	-0.000142
C83	C	0.502558	0.423518	0.333192
C84	C	0.835891	0.756851	0.666525
C85	C	0.825692	-0.034591	-0.000105
C86	C	1.159025	0.298743	0.333228
C87	C	1.492358	0.632076	0.666561
C88	C	0.824563	-0.111694	-0.000099
C89	C	1.157896	0.221639	0.333235
C90	C	1.491229	0.554973	0.666568
C91	C	0.947232	0.086937	-0.000139
C92	C	1.280565	0.420270	0.333194
C93	C	1.613898	0.753604	0.666527
C94	C	1.024336	0.088059	-0.000154
C95	C	1.357669	0.421392	0.333179
C96	C	1.691003	0.754726	0.666512
C97	C	0.887331	-0.156396	-0.000103
C98	C	1.220665	0.176937	0.333231
C99	C	1.553998	0.510271	0.666564
C100	C	0.886270	-0.228843	-0.000114
C101	C	1.219604	0.104490	0.333219
C102	C	1.552937	0.437824	0.666552
C103	C	0.822438	-0.256585	-0.000107
C104	C	1.155771	0.076749	0.333226
C105	C	1.489104	0.410082	0.666560
C106	C	0.759661	-0.211873	-0.000107
C107	C	1.092994	0.121460	0.333226
C108	C	1.426327	0.454794	0.666559
C109	C	0.760723	-0.139428	-0.000103
C110	C	1.094056	0.193906	0.333230
C111	C	1.427390	0.527239	0.666564
C112	C	0.772251	-0.364869	0.043750
C113	C	1.105584	-0.031536	0.377083
C114	C	1.438917	0.301797	0.710417
C115	C	0.771191	-0.437314	0.043750
C116	C	1.104524	-0.103981	0.377084
C117	C	1.437857	0.229353	0.710417
C118	C	0.819158	-0.480030	-0.000123
C119	C	1.152491	-0.146697	0.333210
C120	C	1.485825	0.186637	0.666543
C121	C	0.868197	-0.450295	-0.043988
C122	C	1.201530	-0.116961	0.289345
C123	C	1.534863	0.216372	0.622679
C124	C	0.869259	-0.377849	-0.043984
C125	C	1.202593	-0.044516	0.289350
C126	C	1.535926	0.288817	0.622683
C127	C	0.821278	-0.335139	-0.000112
C128	C	1.154612	-0.001805	0.333221
C129	C	1.487945	0.331528	0.666555
C130	C	0.880781	-0.603288	-0.000141
C131	C	1.214114	-0.269955	0.333192
C132	C	1.547447	0.063379	0.666525
C133	C	0.879717	-0.675736	-0.000158
C134	C	1.213051	-0.342403	0.333176
C135	C	1.546384	-0.009069	0.666509
C136	C	0.753106	-0.658764	-0.000143
C137	C	1.086439	-0.325431	0.333190
C138	C	1.419772	0.007902	0.666524
C139	C	0.754171	-0.586318	-0.000134
C140	C	1.087504	-0.252985	0.333199
C141	C	1.420838	0.080349	0.666533
C142	C	0.818010	-0.558584	-0.000130
C143	C	1.151344	-0.225251	0.333204
C144	C	1.484677	0.108082	0.666537
C145	C	0.814755	0.219424	-0.000140
C146	C	1.148088	0.552757	0.333193
C147	C	1.481422	0.886091	0.666527
C148	C	0.815884	0.296527	-0.000152
C149	C	1.149217	0.629861	0.333182
C150	C	1.482551	0.963194	0.666515
N151	N	0.820201	0.092409	0.178034
N152	N	1.153534	0.425742	0.511367
N153	N	1.486867	0.759076	0.844700
C154	C	0.867585	0.045059	0.217421
C155	C	1.200918	0.378393	0.550755
C156	C	1.534251	0.711726	0.884088
C157	C	0.867588	0.045056	0.296223
C158	C	1.200922	0.378390	0.629556
C159	C	1.534255	0.711723	0.962890
C160	C	0.820214	0.092415	0.335634
C161	C	1.153548	0.425748	0.668967
C162	C	1.486881	0.759081	1.002301
C163	C	0.772822	0.139768	0.296237
C164	C	1.106155	0.473101	0.629570
C165	C	1.439488	0.806434	0.962904
C166	C	0.772815	0.139765	0.217437
C167	C	1.106148	0.473098	0.550770
C168	C	1.439481	0.806432	0.884103
C169	C	0.810915	0.155703	0.460464
C170	C	1.144248	0.489037	0.793797
C171	C	1.477582	0.822370	1.127131
C172	C	0.810927	0.155707	0.539263
C173	C	1.144260	0.489041	0.872596
C174	C	1.477593	0.822374	1.205929
C175	C	0.820232	0.092424	0.578680
C176	C	1.153565	0.425757	0.912014
C177	C	1.486898	0.759090	1.245347
C178	C	0.829540	0.029133	0.539290
C179	C	1.162873	0.362467	0.872623
C180	C	1.496206	0.695800	1.205956
C181	C	0.829533	0.029130	0.460489
C182	C	1.162866	0.362464	0.793823
C183	C	1.496200	0.695797	1.127156
C184	C	0.820216	0.092423	0.421080
C185	C	1.153550	0.425756	0.754413
C186	C	1.486883	0.759090	1.087746
C187	C	0.867622	0.045067	0.703514
C188	C	1.200955	0.378400	1.036847
C189	C	1.534289	0.711734	1.370181
C190	C	0.867621	0.045063	0.782317
C191	C	1.200954	0.378396	1.115651
C192	C	1.534288	0.711730	1.448984
C193	C	0.772857	0.139780	0.782330
C194	C	1.106191	0.473114	1.115663
C195	C	1.439524	0.806447	1.448996
C196	C	0.772855	0.139778	0.703528
C197	C	1.106189	0.473112	1.036861
C198	C	1.439522	0.806445	1.370195
C199	C	0.820241	0.092422	0.664125
C200	C	1.153575	0.425756	0.997458
C201	C	1.486908	0.759089	1.330791
N202	N	0.820246	0.092421	0.821723
N203	N	1.153579	0.425754	1.155056
N204	N	1.486912	0.759088	1.488390
H205	H	0.477903	0.094739	0.123700
H206	H	0.811237	0.428072	0.457033
H207	H	1.144570	0.761405	0.790367
O208	O	0.690814	-0.241795	-0.000093
O209	O	1.024147	0.091538	0.333240
O210	O	1.357480	0.424871	0.666574
H211	H	0.660672	-0.223820	-0.051117
H212	H	0.994005	0.109513	0.282216
H213	H	1.327338	0.442847	0.615549
H214	H	0.031113	0.088165	-0.123965
H215	H	0.364446	0.421499	0.209368
H216	H	0.697780	0.754832	0.542701
O217	O	0.686467	-0.538101	-0.000121
O218	O	1.019800	-0.204768	0.333212
O219	O	1.353134	0.128565	0.666545
H220	H	0.697929	-0.483066	-0.000125
H221	H	1.031263	-0.149732	0.333208
H222	H	1.364596	0.183601	0.666541
H223	H	0.937386	-0.265246	-0.000121
H224	H	1.270719	0.068087	0.333213
H225	H	1.604053	0.401420	0.666546
H226	H	0.803352	0.207242	0.571329
H227	H	1.136685	0.540575	0.904662
H228	H	1.470018	0.873909	1.237995
H229	H	0.477996	0.094740	-0.123920
H230	H	0.811330	0.428074	0.209414
H231	H	1.144663	0.761407	0.542747
H232	H	0.837110	-0.022403	0.428420
H233	H	1.170443	0.310931	0.761754
H234	H	1.503777	0.644264	1.095087
O235	O	0.693017	-0.091211	-0.000094
O236	O	1.026350	0.242122	0.333240
O237	O	1.359684	0.575455	0.666573
H238	H	0.704480	-0.036176	-0.000094
H239	H	1.037814	0.297158	0.333240
H240	H	1.371147	0.630491	0.666573
O241	O	0.721701	0.190840	0.174957
O242	O	1.055035	0.524174	0.508291
O243	O	1.388368	0.857507	0.841624
H244	H	0.688032	0.161685	0.139084
H245	H	1.021366	0.495018	0.472417
H246	H	1.354699	0.828352	0.805751
O247	O	0.721737	0.190858	0.338744
O248	O	1.055071	0.524191	0.672077
O249	O	1.388404	0.857525	1.005410
H250	H	0.688786	0.223785	0.298113
H251	H	1.022119	0.557118	0.631446
H252	H	1.355453	0.890451	0.964779
O253	O	0.922141	-0.345780	-0.091303
O254	O	1.255474	-0.012447	0.242030
O255	O	1.588807	0.320887	0.575364
H256	H	0.955368	-0.317173	-0.054319
H257	H	1.288701	0.016160	0.279015
H258	H	1.622034	0.349494	0.612348
H259	H	0.907256	-0.485073	-0.079715
H260	H	1.240589	-0.151740	0.253619
H261	H	1.573923	0.181594	0.586952
O262	O	0.956186	-0.126487	-0.000104
O263	O	1.289520	0.206846	0.333230
O264	O	1.622853	0.540179	0.666563
H265	H	0.946383	-0.068601	-0.000094
H266	H	1.279716	0.264733	0.333239
H267	H	1.613049	0.598066	0.666572
H268	H	0.837116	-0.022399	0.571382
H269	H	1.170450	0.310935	0.904715
H270	H	1.503783	0.644268	1.238048
H271	H	0.803325	0.207240	0.428377
H272	H	1.136659	0.540573	0.761710
H273	H	1.469992	0.873907	1.095043
O274	O	0.721782	0.190881	0.824831
O275	O	1.055116	0.524214	1.158164
O276	O	1.388449	0.857547	1.491497
H277	H	0.688838	0.223813	0.784199
H278	H	1.022171	0.557147	1.117532
H279	H	1.355504	0.890480	1.450865
O280	O	0.021387	0.088111	0.141670
O281	O	0.354721	0.421444	0.475003
O282	O	0.688054	0.754777	0.808336
H283	H	-0.005320	0.040325	0.144987
H284	H	0.328013	0.373659	0.478321
H285	H	0.661346	0.706992	0.811654
H286	H	0.731258	-0.461518	0.079463
H287	H	1.064591	-0.128185	0.412797
H288	H	1.397924	0.205149	0.746130
O289	O	0.949631	-0.573366	-0.000152
O290	O	1.282964	-0.240033	0.333182
O291	O	1.616298	0.093301	0.666515
H292	H	0.993102	-0.616625	-0.000171
H293	H	1.326435	-0.283292	0.333162
H294	H	1.659768	0.050042	0.666496
O295	O	0.947421	-0.723956	-0.000156
O296	O	1.280754	-0.390623	0.333177
O297	O	1.614087	-0.057290	0.666511
H298	H	0.991987	-0.692497	-0.000143
H299	H	1.325321	-0.359164	0.333191
H300	H	1.658654	-0.025830	0.666524
O301	O	0.720515	-0.318798	0.091078
O302	O	1.053848	0.014535	0.424411
O303	O	1.387182	0.347869	0.757744
H304	H	0.686247	-0.351645	0.121588
H305	H	1.019580	-0.018312	0.454921
H306	H	1.352913	0.315022	0.788255
H307	H	0.162450	0.090088	0.123672
H308	H	0.495784	0.423421	0.457006
H309	H	0.829117	0.756755	0.790339
O310	O	0.256236	0.006727	0.108549
O311	O	0.589569	0.340061	0.441882
O312	O	0.922903	0.673394	0.775215
H313	H	0.297376	-0.021006	0.144917
H314	H	0.630709	0.312328	0.478251
H315	H	0.964042	0.645661	0.811584
O316	O	0.618902	0.096828	0.141760
O317	O	0.952235	0.430161	0.475093
O318	O	1.285569	0.763495	0.808426
H319	H	0.658258	0.049986	0.145040
H320	H	0.991592	0.383320	0.478374
H321	H	1.324925	0.716653	0.811707
H322	H	0.906205	0.006505	0.671431
H323	H	1.239538	0.339838	1.004764
H324	H	1.572871	0.673171	1.338097
H325	H	0.906205	0.006502	0.814387
H326	H	1.239538	0.339835	1.147721
H327	H	1.572871	0.673168	1.481054
O328	O	0.918682	-0.006024	0.174920
O329	O	1.252016	0.327310	0.508253
O330	O	1.585349	0.660643	0.841587
H331	H	0.951627	-0.038955	0.215553
H332	H	1.284960	0.294379	0.548886
H333	H	1.618294	0.627712	0.882220
O334	O	0.684254	-0.688673	-0.000132
O335	O	1.017587	-0.355340	0.333202
O336	O	1.350921	-0.022007	0.666535
H337	H	0.694059	-0.746560	-0.000130
H338	H	1.027392	-0.413226	0.333203
H339	H	1.360726	-0.079893	0.666536
O340	O	0.918704	-0.006008	0.338721
O341	O	1.252037	0.327326	0.672054
O342	O	1.585370	0.660659	1.005387
H343	H	0.951656	-0.038933	0.298082
H344	H	1.284990	0.294400	0.631416
H345	H	1.618323	0.627734	0.964749
H346	H	0.376074	0.167202	-0.094980
H347	H	0.709407	0.500535	0.238353
H348	H	1.042740	0.833869	0.571687
H349	H	0.395804	0.019552	0.094744
H350	H	0.729137	0.352885	0.428077
H351	H	1.062471	0.686219	0.761410
O352	O	0.721756	0.190856	0.661037
O353	O	1.055090	0.524189	0.994371
O354	O	1.388423	0.857523	1.327704
H355	H	0.688818	0.223792	0.701678
H356	H	1.022151	0.557126	1.035012
H357	H	1.355485	0.890459	1.368345
H358	H	0.609422	0.096669	-0.123907
H359	H	0.942756	0.430002	0.209426
H360	H	1.276089	0.763335	0.542759
H361	H	0.162539	0.090093	-0.123954
H362	H	0.495873	0.423427	0.209379
H363	H	0.829206	0.756760	0.542713
O364	O	0.233638	0.175890	-0.108810
O365	O	0.566972	0.509224	0.224523
O366	O	0.900305	0.842557	0.557857
H367	H	0.178090	0.168232	-0.100026
H368	H	0.511423	0.501565	0.233307
H369	H	0.844756	0.834898	0.566640
