data_functionalizedCrystal
_audit_creation_method	'MofGen! by Chris Wilmer'
_symmetry_space_group_name_H-M	'P1'
_symmetry_Int_Tables_number	1
_symmetry_cell_setting	triclinic
loop_
_symmetry_equiv_pos_as_xyz
  x,y,z
_cell_length_a	15.995350
_cell_length_b	9.565339
_cell_length_c	15.995350
_cell_angle_alpha	89.996225
_cell_angle_beta	96.507625
_cell_angle_gamma	89.998693
loop_
_atom_site_label
_atom_site_type_symbol
_atom_site_fract_x
_atom_site_fract_y
_atom_site_fract_z
O1	O	1.110987	-0.116135	-0.107919
O2	O	0.867212	-0.116162	-0.121246
O3	O	0.995763	-0.116146	0.007305
O4	O	0.982436	-0.116151	-0.236470
O5	O	0.995749	0.116374	0.007293
O6	O	0.867198	0.116358	-0.121258
O7	O	1.110973	0.116386	-0.107930
Zn8	Zn	0.989083	0.153289	-0.114596
Zn9	Zn	0.989102	-0.153066	-0.114581
O10	O	0.982422	0.116370	-0.236482
C11	C	0.836010	0.000094	-0.120701
C12	C	0.743060	0.000083	-0.119049
N13	N	0.989077	0.362369	-0.114606
C14	C	0.405312	0.000112	-0.113117
C15	C	0.452746	0.000633	-0.021565
C16	C	0.549436	0.000099	-0.023217
C17	C	0.572873	0.000099	-0.116060
C18	C	0.531794	-0.132677	-0.161209
C19	C	0.435158	-0.132778	-0.158910
C20	C	0.434803	0.131640	-0.160814
C21	C	0.531748	0.133386	-0.160793
C22	C	0.667570	0.000086	-0.117727
C23	C	0.310614	0.000115	-0.111452
C24	C	0.929607	0.453564	-0.174038
C25	C	1.005268	0.546752	-0.190287
C26	C	0.913443	0.546736	-0.098368
C27	C	1.064776	0.453504	-0.130892
C28	C	0.972902	0.453481	-0.038941
C29	C	1.048618	0.546626	-0.055157
C30	C	1.142175	0.000126	-0.108476
C31	C	1.235125	0.000128	-0.110127
C32	C	0.995205	0.000111	0.038494
C33	C	0.993553	0.000103	0.131444
N34	N	0.989098	0.637855	-0.114580
C35	C	0.982980	0.000109	-0.267671
C36	C	0.984631	0.000108	-0.360621
C37	C	0.987621	0.000107	0.469192
C38	C	0.896069	-0.000425	0.421758
C39	C	0.897721	0.000099	0.325068
C40	C	0.990564	0.000104	0.301631
C41	C	1.035712	0.132887	0.342702
C42	C	1.033412	0.132998	0.439338
C43	C	1.035320	-0.131421	0.439709
C44	C	1.035298	-0.133175	0.342764
C45	C	0.992231	0.000107	0.206934
C46	C	0.985956	0.000113	0.563890
H47	H	0.577859	0.095278	0.012273
H48	H	0.879362	0.412703	-0.224343
Cl49	Cl	1.126361	0.609330	0.022462
Cl50	Cl	0.424135	0.147643	0.034930
Cl51	Cl	1.026416	0.610007	-0.289061
H52	H	1.128761	0.412723	-0.144691
H53	H	0.849473	0.587693	-0.084646
Cl54	Cl	0.385767	0.133029	-0.265029
Cl55	Cl	0.989107	-0.286805	0.471415
Cl56	Cl	0.839658	0.145326	0.452359
H57	H	1.102820	-0.132309	0.471470
Cl58	Cl	0.842926	-0.146857	0.281190
H59	H	1.002288	-0.231405	0.315520
Cl60	Cl	0.982560	0.286233	0.467590
Cl61	Cl	0.987281	0.285445	0.298881
H62	H	0.433158	-0.094060	0.014867
H63	H	0.959182	0.412480	0.025016
H64	H	0.416855	-0.232031	-0.125974
Cl65	Cl	0.592430	-0.147358	0.031721
H66	H	0.859482	-0.095647	0.440294
Cl67	Cl	0.842538	0.147293	0.282033
Cl68	Cl	1.137184	0.142325	0.489130
Cl69	Cl	0.385365	-0.142085	-0.262682
H70	H	0.414261	0.232281	-0.130889
Cl71	Cl	1.141022	0.140525	0.320895
Cl72	Cl	1.139830	-0.145558	0.319044
H73	H	0.545919	-0.137614	-0.229418
H74	H	0.560174	-0.231491	-0.129841
Cl75	Cl	0.555462	0.145766	-0.265327
Cl76	Cl	0.573810	0.285041	-0.109823
