data_functionalizedCrystal
_audit_creation_method	'MofGen! by Chris Wilmer'
_symmetry_space_group_name_H-M	'P1'
_symmetry_Int_Tables_number	1
_symmetry_cell_setting	triclinic
loop_
_symmetry_equiv_pos_as_xyz
  x,y,z
_cell_length_a	18.050589
_cell_length_b	18.050591
_cell_length_c	18.050582
_cell_angle_alpha	90.024891
_cell_angle_beta	89.981088
_cell_angle_gamma	89.978696
loop_
_atom_site_label
_atom_site_type_symbol
_atom_site_fract_x
_atom_site_fract_y
_atom_site_fract_z
Zn1	Zn	-0.295838	-1.135299	-0.420115
Zn2	Zn	-0.420023	-1.135208	-0.295934
Zn3	Zn	-0.295837	-1.011116	-0.295919
Zn4	Zn	-0.419976	-1.011066	-0.420063
O5	O	-0.357919	-1.073172	-0.358008
O6	O	-0.312332	-1.239212	-0.403670
O7	O	-0.403569	-1.118730	-0.192008
O8	O	-0.191912	-1.027649	-0.312409
O9	O	-0.403570	-1.239145	-0.312435
O10	O	-0.191914	-1.118885	-0.403655
O11	O	-0.312329	-1.027560	-0.191997
O12	O	-0.312284	-0.907185	-0.312359
O13	O	-0.403490	-1.027563	-0.523995
O14	O	-0.403488	-0.907148	-0.403567
O15	O	-0.312287	-1.118837	-0.524033
O16	O	-0.523942	-1.118681	-0.312385
O17	O	-0.523907	-1.027475	-0.403582
C18	C	-0.357881	-0.880220	-0.357956
C19	C	-0.357883	-0.797674	-0.357952
C20	C	-0.308218	-0.598222	-0.308457
C21	C	-0.375952	-0.548802	-0.290183
C22	C	-0.357898	-0.646544	-0.357978
C23	C	-0.290180	-0.548882	-0.376241
C24	C	-0.357906	-0.500559	-0.358001
C25	C	-0.425667	-0.598211	-0.339669
C26	C	-0.339850	-0.598296	-0.425758
C27	C	-0.407630	-0.548898	-0.407510
C28	C	-0.357892	-0.730642	-0.357962
C29	C	-0.357920	-0.416463	-0.358016
C30	C	-0.550871	-1.073083	-0.357996
C31	C	-0.633417	-1.073112	-0.358015
C32	C	-0.832875	-1.023563	-0.407591
C33	C	-0.882308	-1.005464	-0.339820
C34	C	-0.784547	-1.073185	-0.358025
C35	C	-0.882196	-1.091321	-0.425803
C36	C	-0.930532	-1.073254	-0.358040
C37	C	-0.832892	-1.055051	-0.290219
C38	C	-0.832776	-1.140939	-0.376247
C39	C	-0.882186	-1.122866	-0.308430
C40	C	-0.700449	-1.073144	-0.358017
C41	C	-1.014628	-1.073296	-0.358040
C42	C	-0.164213	-1.073283	-0.358037
C43	C	-0.081667	-1.073330	-0.358049
C44	C	-0.357883	-1.073205	-0.551714
C45	C	-0.357868	-1.073218	-0.634259
C46	C	-0.357944	-0.266878	-0.358046
C47	C	-0.357922	-0.349424	-0.358028
C48	C	-0.407384	-1.023630	-0.883064
C49	C	-0.339644	-1.005490	-0.833669
C50	C	-0.357759	-1.073281	-0.931380
C51	C	-0.425549	-1.091355	-0.833694
C52	C	-0.357816	-1.073248	-0.785395
C53	C	-0.289983	-1.055106	-0.883071
C54	C	-0.375933	-1.141003	-0.883101
C55	C	-0.308147	-1.122888	-0.833728
C56	C	-0.357727	-1.073298	-1.015478
C57	C	-0.357841	-1.073232	-0.701298
C58	C	-0.357900	-1.073183	-0.165056
C59	C	-0.357706	-1.073313	-0.082510
H60	H	-0.449695	-0.527377	-0.449398
H61	H	-0.811223	-0.981538	-0.449448
O62	O	-0.394143	-0.522708	-0.221865
C63	C	-0.415017	-0.415138	-0.145551
C64	C	-0.394466	-0.444604	-0.222964
H65	H	-0.415270	-0.351988	-0.146409
H66	H	-0.472355	-0.436182	-0.129493
H67	H	-0.372585	-0.435439	-0.103421
H68	H	-0.436848	-0.424316	-0.265145
H69	H	-0.337109	-0.423567	-0.238958
H70	H	-0.449272	-0.981624	-0.904728
O71	O	-0.907899	-1.173045	-0.258480
C72	C	-0.979976	-1.283619	-0.238663
C73	C	-0.950887	-1.226860	-0.295313
H74	H	-1.014750	-1.327133	-0.268418
H75	H	-0.931205	-1.311669	-0.209977
H76	H	-1.015551	-1.254036	-0.195640
H77	H	-0.915324	-1.256386	-0.338381
H78	H	-0.999692	-1.198811	-0.323942
O79	O	-0.221916	-0.522942	-0.394752
C80	C	-0.149685	-0.450757	-0.480706
C81	C	-0.227039	-0.480069	-0.459827
H82	H	-0.153799	-0.416101	-0.533329
H83	H	-0.127279	-0.415052	-0.433671
H84	H	-0.110698	-0.499470	-0.490598
H85	H	-0.266083	-0.431401	-0.449946
H86	H	-0.249384	-0.515796	-0.506873
O87	O	-0.493960	-0.624072	-0.321150
C88	C	-0.570584	-0.731368	-0.300410
C89	C	-0.493207	-0.702181	-0.321376
H90	H	-0.570005	-0.794523	-0.300601
H91	H	-0.586089	-0.710595	-0.242800
H92	H	-0.612960	-0.710587	-0.342361
H93	H	-0.450780	-0.722950	-0.279475
H94	H	-0.477765	-0.722948	-0.379004
O95	O	-0.321454	-0.937108	-0.807788
C96	C	-0.353127	-0.807478	-0.803594
C97	C	-0.373813	-0.884881	-0.832937
H98	H	-0.395439	-0.765229	-0.823928
H99	H	-0.352835	-0.808223	-0.740441
H100	H	-0.295750	-0.791673	-0.824732
H101	H	-0.431193	-0.900734	-0.811854
H102	H	-0.374054	-0.884095	-0.896089
H103	H	-0.266157	-1.164863	-0.812202
H104	H	-0.324555	-0.620052	-0.483052
O105	O	-0.908232	-0.937101	-0.321556
C106	C	-0.912483	-0.807468	-0.353101
C107	C	-0.883093	-0.884851	-0.373873
H108	H	-0.892157	-0.765200	-0.395379
H109	H	-0.975635	-0.808249	-0.352788
H110	H	-0.891371	-0.791661	-0.295716
H111	H	-0.904151	-0.900706	-0.431262
H112	H	-0.819942	-0.884028	-0.374135
H113	H	-0.266254	-0.619879	-0.266537
H114	H	-0.391306	-1.198271	-0.904830
H115	H	-0.811325	-1.039673	-0.232890
O116	O	-0.806830	-1.209216	-0.394782
C117	C	-0.802506	-1.305513	-0.487182
C118	C	-0.831926	-1.228176	-0.466281
H119	H	-0.822796	-1.320872	-0.544982
H120	H	-0.739354	-1.304971	-0.486512
H121	H	-0.823630	-1.347974	-0.445493
H122	H	-0.810856	-1.185671	-0.507949
H123	H	-0.895076	-1.228779	-0.466927
O124	O	-0.493889	-1.109747	-0.807856
C125	C	-0.590901	-1.201367	-0.804849
C126	C	-0.513493	-1.180645	-0.834144
H127	H	-0.606781	-1.258682	-0.826104
H128	H	-0.590159	-1.201765	-0.741697
H129	H	-0.633096	-1.158961	-0.825102
H130	H	-0.471255	-1.223030	-0.813946
H131	H	-0.514296	-1.180223	-0.897294
O132	O	-0.221553	-1.036890	-0.908797
C133	C	-0.091805	-1.068165	-0.912227
C134	C	-0.169258	-1.088891	-0.883054
H135	H	-0.049501	-1.110187	-0.891413
H136	H	-0.092295	-1.068339	-0.975383
H137	H	-0.076273	-1.010583	-0.891441
H138	H	-0.184837	-1.146476	-0.903786
H139	H	-0.168726	-1.088665	-0.819899
O140	O	-0.907946	-1.109505	-0.494231
C141	C	-0.912127	-1.077662	-0.623790
C142	C	-0.882906	-1.057001	-0.546340
H143	H	-0.891907	-1.035215	-0.665940
H144	H	-0.890881	-1.134966	-0.639783
H145	H	-0.975277	-1.078077	-0.622974
H146	H	-0.819758	-1.056543	-0.547098
H147	H	-0.904209	-0.999710	-0.530378
