data_functionalizedCrystal
_audit_creation_method	'MofGen! by Chris Wilmer'
_symmetry_space_group_name_H-M	'P1'
_symmetry_Int_Tables_number	1
_symmetry_cell_setting	triclinic
loop_
_symmetry_equiv_pos_as_xyz
  x,y,z
_cell_length_a	17.699083
_cell_length_b	16.992695
_cell_length_c	16.176319
_cell_angle_alpha	89.993125
_cell_angle_beta	89.998611
_cell_angle_gamma	86.975619
loop_
_atom_site_label
_atom_site_type_symbol
_atom_site_fract_x
_atom_site_fract_y
_atom_site_fract_z
O1	O	1.010252	0.099146	-0.068631
O2	O	1.510252	0.599146	0.431369
O3	O	0.790676	0.112045	-0.068658
O4	O	1.290676	0.612045	0.431342
O5	O	0.899584	-0.008546	-0.068638
O6	O	1.399584	0.491454	0.431362
O7	O	0.901344	0.219736	-0.068651
O8	O	1.401344	0.719736	0.431349
O9	O	0.899567	-0.008553	0.068855
O10	O	1.399567	0.491447	0.568855
O11	O	0.790660	0.112037	0.068835
O12	O	1.290660	0.612037	0.568835
O13	O	1.010235	0.099138	0.068862
O14	O	1.510235	0.599138	0.568862
Cu15	Cu	0.900446	0.105587	0.081403
Cu16	Cu	1.400446	0.605587	0.581403
Cu17	Cu	0.900465	0.105596	-0.081199
Cu18	Cu	1.400465	0.605596	0.418801
O19	O	0.901328	0.219729	0.068842
O20	O	1.401328	0.719729	0.568842
C21	C	0.762442	0.111579	0.000085
C22	C	1.262442	0.611579	0.500085
C23	C	0.678338	0.110192	0.000075
C24	C	1.178338	0.610192	0.500075
C25	C	0.634124	0.180976	0.000071
C26	C	1.134124	0.680976	0.500071
C27	C	0.555099	0.179669	0.000082
C28	C	1.055099	0.679669	0.500082
C29	C	0.520290	0.107576	0.000091
C30	C	1.020290	0.607576	0.500091
C31	C	0.564510	0.036787	0.000097
C32	C	1.064510	0.536787	0.500097
C33	C	0.643533	0.038095	0.000092
C34	C	1.143533	0.538095	0.500092
C35	C	0.245818	0.031509	0.000118
C36	C	0.745818	0.531509	0.500118
C37	C	0.166789	0.030206	0.000120
C38	C	0.666789	0.530206	0.500120
C39	C	0.157384	0.173082	0.000108
C40	C	0.657384	0.673082	0.500108
C41	C	0.236408	0.174391	0.000103
C42	C	0.736408	0.674391	0.500103
C43	C	0.280621	0.103602	0.000113
C44	C	0.780621	0.603602	0.500113
C45	C	0.366308	0.105020	0.000103
C46	C	0.866308	0.605020	0.500103
C47	C	0.434604	0.106157	0.000095
C48	C	0.934604	0.606157	0.500095
C49	C	0.897311	-0.037758	0.000108
C50	C	1.397311	0.462242	0.500108
C51	C	0.890554	-0.124789	0.000107
C52	C	1.390554	0.375211	0.500107
C53	C	0.955751	-0.175154	0.000116
C54	C	1.455751	0.324846	0.500116
C55	C	0.949398	-0.256928	0.000107
C56	C	1.449398	0.243072	0.500107
C57	C	0.877846	-0.288336	0.000096
C58	C	1.377846	0.211664	0.500096
C59	C	0.812643	-0.237965	0.000084
C60	C	1.312643	0.262035	0.500084
C61	C	0.818998	-0.156192	0.000087
C62	C	1.318998	0.343808	0.500087
C63	C	0.851510	-0.531884	0.000081
C64	C	1.351510	-0.031884	0.500081
C65	C	0.845160	-0.613663	0.000081
C66	C	1.345160	-0.113663	0.500081
C67	C	0.981915	-0.632621	0.000102
C68	C	1.481915	-0.132621	0.500102
C69	C	0.988263	-0.550845	0.000110
C70	C	1.488263	-0.050845	0.500110
C71	C	0.923061	-0.500481	0.000094
C72	C	1.423061	-0.000481	0.500094
N73	N	0.871350	-0.371923	0.000090
N74	N	1.371350	0.128077	0.500090
N75	N	0.929558	-0.416897	0.000095
N76	N	1.429558	0.083103	0.500095
C77	C	1.038469	0.099604	0.000117
C78	C	1.538469	0.599604	0.500117
C79	C	1.122574	0.100991	0.000122
C80	C	1.622574	0.600991	0.500122
C81	C	0.903601	0.248941	0.000094
C82	C	1.403601	0.748941	0.500094
C83	C	0.910358	0.335972	0.000090
C84	C	1.410358	0.835972	0.500090
N85	N	0.900438	0.105580	0.195768
N86	N	1.400438	0.605580	0.695768
N87	N	0.900479	0.105597	-0.195564
N88	N	1.400479	0.605597	0.304436
C89	C	0.948679	0.052204	0.239041
C90	C	1.448679	0.552204	0.739041
C91	C	0.948683	0.052203	0.325588
C92	C	1.448683	0.552203	0.825588
C93	C	0.900449	0.105583	0.368861
C94	C	1.400449	0.605583	0.868861
C95	C	0.852202	0.158961	0.325582
C96	C	1.352202	0.658961	0.825582
C97	C	0.852195	0.158957	0.239036
C98	C	1.352195	0.658957	0.739036
C99	C	0.852229	0.158976	0.674610
C100	C	1.352229	0.658976	1.174610
C101	C	0.852242	0.158977	0.761161
C102	C	1.352242	0.658977	1.261161
C103	C	0.948717	0.052222	0.761162
C104	C	1.448717	0.552222	1.261162
C105	C	0.948709	0.052218	0.674617
C106	C	1.448709	0.552218	1.174617
C107	C	0.900461	0.105593	0.631345
C108	C	1.400461	0.605593	1.131345
C109	C	0.900456	0.105593	0.537501
C110	C	1.400456	0.605593	1.037501
C111	C	0.900457	0.105588	0.462703
C112	C	1.400457	0.605588	0.962703
H113	H	0.662460	0.239682	0.000064
H114	H	1.162460	0.739682	0.500064
C115	C	1.044068	-0.053300	0.316896
C116	C	1.544068	0.446700	0.816896
C117	C	1.001723	-0.006457	0.373154
C118	C	1.501723	0.493543	0.873154
H119	H	1.076819	-0.089510	0.346263
H120	H	1.576819	0.410490	0.846263
H121	H	1.010866	-0.081472	0.283155
H122	H	1.510866	0.418528	0.783155
H123	H	1.073246	-0.020685	0.283125
H124	H	1.573246	0.479315	0.783125
H125	H	0.972541	-0.039072	0.406921
H126	H	1.472541	0.460928	0.906921
H127	H	1.034929	0.021717	0.406909
H128	H	1.534929	0.521717	0.906909
C129	C	1.021607	-0.359865	-0.070572
C130	C	1.521607	0.140135	0.429428
C131	C	1.021068	-0.312285	0.000114
C132	C	1.521068	0.187715	0.500114
H133	H	1.065859	-0.394035	-0.070571
H134	H	1.565859	0.105965	0.429429
H135	H	0.978093	-0.390275	-0.070575
H136	H	1.478093	0.109725	0.429425
H137	H	1.021246	-0.327552	-0.118509
H138	H	1.521246	0.172448	0.381491
H139	H	1.021423	-0.344599	0.048052
H140	H	1.521423	0.155401	0.548052
H141	H	1.064594	-0.281873	0.000125
H142	H	1.564594	0.218127	0.500125
C143	C	1.044069	-0.053315	0.683312
C144	C	1.544069	0.446685	1.183312
C145	C	1.001727	-0.006460	0.627052
C146	C	1.501727	0.493540	1.127052
H147	H	1.076794	-0.089545	0.653947
H148	H	1.576794	0.410455	1.153947
H149	H	1.073267	-0.020715	0.717055
H150	H	1.573267	0.479285	1.217055
H151	H	1.010858	-0.081471	0.717081
H152	H	1.510858	0.418529	1.217081
H153	H	1.034938	0.021700	0.593288
H154	H	1.534938	0.521700	1.093288
H155	H	0.972527	-0.039064	0.593295
H156	H	1.472527	0.460936	1.093295
C157	C	0.758660	-0.694625	0.070748
C158	C	1.258660	-0.194625	0.570748
C159	C	0.766502	-0.648184	0.000066
C160	C	1.266502	-0.148184	0.500066
H161	H	0.710100	-0.715931	0.070741
H162	H	1.210100	-0.215931	0.570741
H163	H	0.796575	-0.736320	0.070751
H164	H	1.296575	-0.236320	0.570751
H165	H	0.763973	-0.663112	0.118688
H166	H	1.263973	-0.163112	0.618688
H167	H	0.761194	-0.679698	-0.047875
H168	H	1.261194	-0.179698	0.452125
H169	H	0.728576	-0.606483	0.000055
H170	H	1.228576	-0.106483	0.500055
H171	H	0.754384	-0.263544	0.000070
H172	H	1.254384	0.236456	0.500070
C173	C	0.737865	-0.043316	-0.070586
C174	C	1.237865	0.456684	0.429414
C175	C	0.692139	-0.039711	0.000093
C176	C	1.192139	0.460289	0.500093
H177	H	0.767875	-0.091350	-0.070578
H178	H	1.267875	0.408650	0.429422
H179	H	0.706841	-0.040861	-0.118523
H180	H	1.206841	0.459139	0.381477
H181	H	0.769899	-0.000188	-0.070582
H182	H	1.269899	0.499812	0.429418
H183	H	0.660101	-0.082836	0.000086
H184	H	1.160101	0.417164	0.500086
H185	H	0.723167	-0.042174	0.048043
H186	H	1.223167	0.457826	0.548043
C187	C	0.460773	0.261085	-0.070607
C188	C	0.960773	0.761085	0.429393
C189	C	0.506500	0.257478	0.000069
C190	C	1.006500	0.757478	0.500069
H191	H	0.430769	0.309122	-0.070612
H192	H	0.930769	0.809122	0.429388
H193	H	0.491796	0.258623	-0.118546
H194	H	0.991796	0.758623	0.381454
H195	H	0.428734	0.217961	-0.070587
H196	H	0.928734	0.717961	0.429413
H197	H	0.538544	0.300599	0.000045
H198	H	1.038544	0.800599	0.500045
H199	H	0.475475	0.259948	0.048020
H200	H	0.975475	0.759948	0.548020
H201	H	0.987960	0.008740	0.203814
H202	H	1.487960	0.508740	0.703814
H203	H	0.765906	-0.115186	0.000080
H204	H	1.265906	0.384814	0.500080
C205	C	1.096513	-0.673969	0.070796
C206	C	1.596513	-0.173969	0.570796
C207	C	1.053583	-0.687982	0.000111
C208	C	1.553583	-0.187982	0.500111
H209	H	1.140757	-0.708151	0.070799
H210	H	1.640757	-0.208151	0.570799
H211	H	1.110534	-0.620780	0.070794
H212	H	1.610534	-0.120780	0.570794
H213	H	1.067365	-0.683487	0.118734
H214	H	1.567365	-0.183487	0.618734
H215	H	1.082729	-0.678459	-0.047828
H216	H	1.582729	-0.178459	0.452172
H217	H	1.039563	-0.741184	0.000106
H218	H	1.539563	-0.241184	0.500106
H219	H	0.988001	0.008758	0.796403
H220	H	1.488001	0.508758	1.296403
H221	H	0.812961	0.202446	0.796393
H222	H	1.312961	0.702446	1.296393
C223	C	0.756873	0.264506	0.683315
C224	C	1.256873	0.764506	1.183315
C225	C	0.799201	0.217651	0.627053
C226	C	1.299201	0.717651	1.127053
H227	H	0.724139	0.300735	0.653951
H228	H	1.224139	0.800735	1.153951
H229	H	0.727685	0.231907	0.717079
H230	H	1.227685	0.731907	1.217079
H231	H	0.790092	0.292664	0.717062
H232	H	1.290092	0.792664	1.217062
H233	H	0.765982	0.189488	0.593310
H234	H	1.265982	0.689488	1.093310
H235	H	0.828391	0.250255	0.593275
H236	H	1.328391	0.750255	1.093275
C237	C	0.809380	0.206376	0.458248
C238	C	1.309380	0.706376	0.958248
C239	C	0.799184	0.217639	0.373145
C240	C	1.299184	0.717639	0.873145
H241	H	0.776652	0.242608	0.487608
H242	H	1.276652	0.742608	0.987608
H243	H	0.797998	0.154069	0.472439
H244	H	1.297998	0.654069	0.972439
H245	H	0.860405	0.214827	0.472412
H246	H	1.360405	0.714827	0.972412
H247	H	0.748160	0.209183	0.358979
H248	H	1.248160	0.709183	0.858979
H249	H	0.810560	0.269958	0.358948
H250	H	1.310560	0.769958	0.858948
C251	C	0.756838	0.264491	0.247723
C252	C	1.256838	0.764491	0.747723
C253	C	0.799171	0.217633	0.191467
C254	C	1.299171	0.717633	0.691467
H255	H	0.724105	0.300717	0.218355
H256	H	1.224105	0.800717	0.718355
H257	H	0.727649	0.231892	0.281486
H258	H	1.227649	0.731892	0.781486
H259	H	0.790054	0.292651	0.281471
H260	H	1.290054	0.792651	0.781471
H261	H	0.765955	0.189468	0.157723
H262	H	1.265955	0.689468	0.657723
H263	H	0.828363	0.250236	0.157689
H264	H	1.328363	0.750236	0.657689
C265	C	0.184019	-0.110903	0.000152
C266	C	0.684019	0.389097	0.500152
C267	C	0.128525	-0.049044	0.000138
C268	C	0.628525	0.450956	0.500138
H269	H	0.160394	-0.159824	0.000167
H270	H	0.660394	0.340176	0.500167
H271	H	0.214644	-0.107427	-0.047794
H272	H	0.714644	0.392573	0.452206
H273	H	0.214647	-0.107415	0.048100
H274	H	0.714647	0.392585	0.548100
H275	H	0.097901	-0.052529	-0.047814
H276	H	0.597901	0.447471	0.452186
H277	H	0.097887	-0.052522	0.048088
H278	H	0.597887	0.447478	0.548088
H279	H	1.046528	-0.525279	0.000120
H280	H	1.546528	-0.025279	0.500120
C281	C	0.736904	-0.490560	-0.070606
C282	C	1.236904	0.009440	0.429394
C283	C	0.779836	-0.476536	0.000075
C284	C	1.279836	0.023464	0.500075
H285	H	0.692651	-0.456391	-0.070603
H286	H	1.192651	0.043609	0.429397
H287	H	0.766041	-0.481039	-0.118542
H288	H	1.266041	0.018961	0.381458
H289	H	0.722894	-0.543761	-0.070599
H290	H	1.222894	-0.043761	0.429401
H291	H	0.793851	-0.423336	0.000065
H292	H	1.293851	0.076664	0.500065
H293	H	0.750694	-0.486051	0.048024
H294	H	1.250694	0.013949	0.548024
C295	C	0.252705	0.296584	-0.070588
C296	C	0.752705	0.796584	0.429412
C297	C	0.274663	0.253640	0.000092
C298	C	0.774663	0.753640	0.500092
H299	H	0.276317	0.345513	-0.070588
H300	H	0.776317	0.845513	0.429412
H301	H	0.267594	0.267450	-0.118524
H302	H	0.767594	0.767450	0.381476
H303	H	0.199312	0.305925	-0.070576
H304	H	0.699312	0.805925	0.429424
H305	H	0.328055	0.244295	0.000077
H306	H	0.828055	0.744295	0.500077
H307	H	0.259779	0.282781	0.048041
H308	H	0.759779	0.782781	0.548041
H309	H	0.281807	-0.026132	0.000127
H310	H	0.781807	0.473868	0.500127
C311	C	0.447550	-0.028662	0.000102
C312	C	0.947550	0.471338	0.500102
C313	C	0.526249	-0.042460	0.000105
C314	C	1.026249	0.457540	0.500105
H315	H	0.423933	-0.077588	0.000100
H316	H	0.923933	0.422412	0.500100
H317	H	0.432671	0.000468	0.048045
H318	H	0.932671	0.500468	0.548045
H319	H	0.432675	0.000480	-0.047849
H320	H	0.932675	0.500480	0.452151
H321	H	0.541126	-0.071597	0.048060
H322	H	1.041126	0.428403	0.548060
H323	H	0.541135	-0.071602	-0.047843
H324	H	1.041135	0.428398	0.452157
C325	C	1.074273	-0.166127	-0.070555
C326	C	1.574273	0.333873	0.429445
C327	C	1.034403	-0.140631	0.000124
C328	C	1.534403	0.359369	0.500124
H329	H	1.122828	-0.144810	-0.070553
H330	H	1.622828	0.355190	0.429447
H331	H	1.079819	-0.222029	-0.070548
H332	H	1.579819	0.277971	0.429452
H333	H	1.047215	-0.148819	-0.118497
H334	H	1.547215	0.351181	0.381503
H335	H	1.061458	-0.157944	0.048067
H336	H	1.561458	0.342056	0.548067
H337	H	1.028860	-0.084717	0.000126
H338	H	1.528860	0.415283	0.500126
C339	C	0.063051	0.254508	-0.070569
C340	C	0.563051	0.754508	0.429431
C341	C	0.108781	0.250897	0.000105
C342	C	0.608781	0.750897	0.500105
H343	H	0.033045	0.302544	-0.070568
H344	H	0.533045	0.802544	0.429432
H345	H	0.094072	0.252051	-0.118509
H346	H	0.594072	0.752051	0.381491
H347	H	0.031014	0.211382	-0.070551
H348	H	0.531014	0.711382	0.429449
H349	H	0.140823	0.294019	0.000084
H350	H	0.640823	0.794019	0.500084
H351	H	0.077757	0.253361	0.048058
H352	H	0.577757	0.753361	0.548058
