data_functionalizedCrystal
_audit_creation_method	'MofGen! by Chris Wilmer'
_symmetry_space_group_name_H-M	'P1'
_symmetry_Int_Tables_number	1
_symmetry_cell_setting	triclinic
loop_
_symmetry_equiv_pos_as_xyz
  x,y,z
_cell_length_a	14.519731
_cell_length_b	9.065218
_cell_length_c	12.996460
_cell_angle_alpha	89.987569
_cell_angle_beta	89.993340
_cell_angle_gamma	95.647598
loop_
_atom_site_label
_atom_site_type_symbol
_atom_site_fract_x
_atom_site_fract_y
_atom_site_fract_z
O1	O	1.225257	-0.193547	0.085587
O2	O	0.956950	-0.216289	0.085590
O3	O	1.096649	0.009828	0.085562
O4	O	1.085558	-0.419664	0.085615
O5	O	1.096667	0.009841	-0.085572
O6	O	0.956968	-0.216276	-0.085543
O7	O	1.225276	-0.193534	-0.085547
Cu8	Cu	1.091123	-0.204904	-0.101171
Cu9	Cu	1.091102	-0.204919	0.101214
O10	O	1.085576	-0.419651	-0.085519
C11	C	0.922591	-0.215217	0.000023
C12	C	0.820188	-0.212024	0.000024
C13	C	0.737025	-0.209429	0.000027
C14	C	0.632692	-0.206187	0.000027
C15	C	0.549534	-0.203614	0.000027
C16	C	0.445195	-0.200372	0.000029
C17	C	1.095592	0.064801	-0.000009
C18	C	1.092405	0.228584	-0.000023
C19	C	1.259634	-0.194606	0.000022
C20	C	1.362037	-0.197799	0.000029
N21	N	1.091145	-0.204892	-0.243518
C22	C	1.086633	0.525376	0.000026
C23	C	1.089820	0.361592	-0.000038
N24	N	1.091087	-0.204919	0.243561
C25	C	1.091090	-0.204921	0.336667
C26	C	1.091103	-0.204918	0.453473
C27	C	1.091118	-0.204908	0.546571
C28	C	1.091130	-0.204902	0.663383
