data_functionalizedCrystal
_audit_creation_method	'MofGen! by Chris Wilmer'
_symmetry_space_group_name_H-M	'P1'
_symmetry_Int_Tables_number	1
_symmetry_cell_setting	triclinic
loop_
_symmetry_equiv_pos_as_xyz
  x,y,z
_cell_length_a	10.686220
_cell_length_b	16.959454
_cell_length_c	10.686551
_cell_angle_alpha	85.595422
_cell_angle_beta	90.308082
_cell_angle_gamma	94.401635
loop_
_atom_site_label
_atom_site_type_symbol
_atom_site_fract_x
_atom_site_fract_y
_atom_site_fract_z
Zn1	Zn	1.972261	-0.192706	-0.562392
Zn2	Zn	1.956011	-0.335773	-0.352638
Zn3	Zn	1.746376	-0.212926	-0.368710
Zn4	Zn	1.762442	-0.334171	-0.578415
O5	O	1.859272	-0.268894	-0.465539
O6	O	2.145648	-0.203892	-0.521135
O7	O	1.914679	-0.328610	-0.179225
O8	O	1.776417	-0.099628	-0.394423
O9	O	2.133710	-0.309003	-0.367030
O10	O	1.942373	-0.084773	-0.536720
O11	O	1.760661	-0.238355	-0.191033
O12	O	1.572964	-0.236801	-0.409960
O13	O	1.803798	-0.306273	-0.751835
O14	O	1.584768	-0.325880	-0.564030
O15	O	1.957951	-0.202339	-0.740063
O16	O	1.930257	-0.446176	-0.382567
O17	O	1.788042	-0.444999	-0.548445
C18	C	1.533350	-0.283361	-0.490478
C19	C	1.393921	-0.289568	-0.501177
C20	C	1.859166	-0.474266	-0.465525
C21	C	1.859238	-0.562118	-0.465553
C22	C	1.785337	-0.933005	-0.551894
C23	C	1.933567	-0.934158	-0.379285
C24	C	1.933522	-0.851615	-0.379276
C25	C	1.859382	-0.809763	-0.465577
C26	C	1.785287	-0.850454	-0.551886
C27	C	2.007607	-0.810918	-0.292961
C28	C	2.007564	-0.728369	-0.292948
C29	C	1.933430	-0.686515	-0.379256
C30	C	1.859333	-0.727212	-0.465569
C31	C	1.785193	-0.685360	-0.551870
C32	C	1.711101	-0.726054	-0.638190
C33	C	1.711153	-0.808600	-0.638193
C34	C	1.933378	-0.603970	-0.379252
C35	C	1.785143	-0.602809	-0.551862
C36	C	2.186468	-0.254371	-0.440502
C37	C	2.325899	-0.248182	-0.429834
C38	C	1.884480	-0.251872	-0.792738
C39	C	1.895221	-0.244618	-0.932171
C40	C	1.859416	-0.062717	-0.465577
C41	C	1.859477	0.025143	-0.465593
C42	C	1.834236	-0.285790	-0.139606
C43	C	1.823737	-0.292810	-0.000156
H44	H	1.724774	-0.568738	-0.622143
H45	H	1.964650	-0.197809	-0.980643
O46	O	1.741061	-0.348761	-0.942387
C47	C	1.770841	-0.424683	-0.972229
H48	H	1.873799	-0.422365	-1.000670
H49	H	1.753454	-0.468649	-0.886818
H50	H	1.709350	-0.444429	-1.053327
O51	O	1.335951	-0.337447	-0.583790
C52	C	1.204972	-0.333210	-0.576425
H53	H	1.184054	-0.275081	-0.536851
H54	H	1.162342	-0.335971	-0.674156
H55	H	1.162606	-0.385151	-0.512317
O56	O	2.079656	-0.688961	-0.209061
C57	C	2.145078	-0.743605	-0.132872
H58	H	2.153363	-0.799575	-0.183930
H59	H	2.242890	-0.716015	-0.112012
H60	H	2.091884	-0.759410	-0.041067
H61	H	1.650730	-0.691970	-0.708451
O62	O	1.639001	-0.848053	-0.721985
C63	C	1.511863	-0.834943	-0.704010
H64	H	1.505554	-0.777638	-0.655980
H65	H	1.462509	-0.829928	-0.798809
H66	H	1.464720	-0.886660	-0.642710
O67	O	1.383801	-0.200350	-0.347128
C68	C	1.453288	-0.246164	-0.260221
H69	H	1.476175	-0.302958	-0.302825
H70	H	1.544198	-0.210765	-0.236507
H71	H	1.395682	-0.261814	-0.171058
H72	H	1.725017	-0.966141	-0.622177
O73	O	2.005500	-0.974932	-0.295534
C74	C	1.989599	-1.056520	-0.314001
H75	H	1.955959	-1.064599	-0.413946
H76	H	2.082909	-1.084138	-0.298305
H77	H	1.917074	-1.086799	-0.244686
O78	O	2.079658	-0.851635	-0.209253
C79	C	2.166137	-0.892087	-0.274457
H80	H	2.181571	-0.861700	-0.372646
H81	H	2.259156	-0.891132	-0.221657
H82	H	2.127618	-0.956139	-0.281794
H83	H	1.993696	-0.570841	-0.308966
