data_functionalizedCrystal
_audit_creation_method	'MofGen! by Chris Wilmer'
_symmetry_space_group_name_H-M	'P1'
_symmetry_Int_Tables_number	1
_symmetry_cell_setting	triclinic
loop_
_symmetry_equiv_pos_as_xyz
  x,y,z
_cell_length_a	23.532361
_cell_length_b	23.532407
_cell_length_c	9.130313
_cell_angle_alpha	89.990840
_cell_angle_beta	90.000758
_cell_angle_gamma	82.839173
loop_
_atom_site_label
_atom_site_type_symbol
_atom_site_fract_x
_atom_site_fract_y
_atom_site_fract_z
O1	O	0.755276	0.069008	-0.121667
O2	O	0.589409	0.079039	-0.121704
O3	O	0.677344	-0.008909	-0.121658
O4	O	0.667341	0.156956	-0.121714
O5	O	0.677338	-0.008911	0.121941
O6	O	0.589403	0.079037	0.121894
O7	O	0.755270	0.069006	0.121932
Cu8	Cu	0.672336	0.074021	0.144156
Cu9	Cu	0.672343	0.074024	-0.143928
O10	O	0.667335	0.156954	0.121885
C11	C	0.568189	0.078787	0.000091
C12	C	0.504971	0.078032	0.000078
C13	C	0.231730	0.074730	-0.132698
C14	C	0.291130	0.075445	-0.132702
O15	O	0.321859	0.075796	-0.245629
N16	N	0.320832	0.075804	0.000084
C17	C	0.291133	0.075443	0.132883
O18	O	0.321851	0.075814	0.245827
C19	C	0.231735	0.074724	0.132885
C20	C	0.202035	0.074370	0.000090
C21	C	0.202030	0.074375	-0.265482
C22	C	0.142634	0.073661	-0.265478
C23	C	0.112939	0.073302	-0.132689
C24	C	0.142639	0.073657	0.000095
C25	C	0.202037	0.074359	0.265682
C26	C	0.142635	0.073640	0.265673
C27	C	0.112935	0.073286	0.132878
C28	C	0.053547	0.072584	0.132887
N29	N	0.023845	0.072224	0.000101
C30	C	0.053541	0.072583	-0.132687
C31	C	0.415873	0.076952	0.132868
C32	C	0.475269	0.077675	0.132867
C33	C	0.475263	0.077675	-0.132718
C34	C	0.415865	0.076956	-0.132716
C35	C	0.386171	0.076593	0.000082
C36	C	-0.071195	0.071084	-0.132668
C37	C	-0.130596	0.070373	-0.132652
C38	C	-0.130584	0.070370	0.132933
C39	C	-0.071188	0.071084	0.132918
C40	C	-0.041495	0.071440	0.000105
O41	O	0.022781	0.072230	0.245756
O42	O	0.022816	0.072204	-0.245613
C43	C	0.677086	-0.030126	0.000145
C44	C	0.676320	-0.093343	0.000156
C45	C	0.723555	-0.492454	0.000087
C46	C	0.722844	-0.551854	0.000075
O47	O	0.766630	-0.588606	0.000031
N48	N	0.670566	-0.574471	0.000065
C49	C	0.618997	-0.537685	0.000050
O50	O	0.574465	-0.562377	0.000039
C51	C	0.619709	-0.478286	0.000051
C52	C	0.671990	-0.455672	0.000077
C53	C	0.775832	-0.469839	0.000111
C54	C	0.776543	-0.410443	0.000125
C55	C	0.724977	-0.373662	0.000115
C56	C	0.672701	-0.396276	0.000091
C57	C	0.568140	-0.441501	0.000026
C58	C	0.568857	-0.382099	0.000026
C59	C	0.621137	-0.359485	0.000052
C60	C	0.621847	-0.300099	0.000095
N61	N	0.674124	-0.277481	0.000106
C62	C	0.725690	-0.314263	0.000115
C63	C	0.617505	-0.662427	0.000046
C64	C	0.616793	-0.721825	0.000056
C65	C	0.720640	-0.735990	0.000078
C66	C	0.721352	-0.676591	0.000079
C67	C	0.669783	-0.639810	0.000057
C68	C	0.727179	-0.189526	0.000146
C69	C	0.727886	-0.130124	0.000166
C70	C	0.624039	-0.115965	0.000136
C71	C	0.623332	-0.175361	0.000124
C72	C	0.674907	-0.212141	0.000124
O73	O	0.578083	-0.263312	0.000133
O74	O	0.770214	-0.289562	0.000108
C75	C	0.776489	0.069258	0.000133
C76	C	0.839708	0.070014	0.000137
C77	C	0.667592	0.178171	0.000079
C78	C	0.668358	0.241388	0.000058
N79	N	0.672335	0.074019	0.346778
N80	N	0.672348	0.074022	-0.346551
C81	C	0.711286	0.035091	0.423451
C82	C	0.711291	0.035092	0.576787
C83	C	0.633393	0.112951	0.576766
C84	C	0.633386	0.112948	0.423432
H85	H	-0.154773	0.070080	0.241046
C86	C	0.507936	0.078068	-0.278785
H87	H	0.547565	0.078541	-0.259757
H88	H	0.493670	0.111166	-0.333365
H89	H	0.502739	0.044730	-0.333331
H90	H	0.118458	0.073370	-0.373613
C91	C	0.234694	0.074750	0.411759
H92	H	0.208494	0.074427	0.490830
H93	H	0.253330	0.108245	0.417283
H94	H	0.262399	0.041810	0.417300
H95	H	0.762627	-0.765949	0.000080
C96	C	0.590558	0.155775	0.661089
H97	H	0.596145	0.150206	0.763391
H98	H	0.552583	0.149790	0.635980
H99	H	0.596529	0.193753	0.635931
C100	C	0.567320	-0.075501	0.000116
H101	H	0.536080	-0.097473	0.000108
H102	H	0.565449	-0.052029	-0.084832
H103	H	0.565436	-0.052040	0.085075
H104	H	0.743008	0.003393	0.639210
C105	C	0.507933	0.078067	0.278941
H106	H	0.481736	0.077746	0.358018
H107	H	0.526574	0.111560	0.284463
H108	H	0.535635	0.045124	0.284472
C109	C	-0.163263	0.069982	-0.278732
H110	H	-0.137066	0.070293	-0.357812
H111	H	-0.190968	0.102919	-0.284269
H112	H	-0.181900	0.036483	-0.284240
C113	C	-0.038541	0.071482	-0.278757
H114	H	-0.064745	0.071174	-0.357827
H115	H	-0.010835	0.038547	-0.284290
H116	H	-0.019908	0.104982	-0.284290
H117	H	0.601665	0.144647	0.361001
C118	C	0.754123	-0.007734	0.339136
H119	H	0.777317	-0.030921	0.406766
H120	H	0.777710	0.012626	0.279298
H121	H	0.733764	-0.031337	0.279345
H122	H	0.763923	-0.658183	0.000098
C123	C	0.383200	0.076566	-0.278788
H124	H	0.409398	0.076881	-0.357865
H125	H	0.355492	0.109501	-0.284322
H126	H	0.364566	0.043065	-0.284307
C127	C	0.383213	0.076563	0.278955
H128	H	0.409413	0.076886	0.358027
H129	H	0.364575	0.043069	0.284508
H130	H	0.355509	0.109505	0.284463
H131	H	0.226202	0.074666	-0.373621
H132	H	0.580761	-0.193774	0.000144
H133	H	0.118460	0.073348	0.373816
H134	H	-0.047007	0.071384	0.241050
H135	H	0.770461	-0.111716	0.000191
H136	H	0.769176	-0.219466	0.000140
H137	H	0.575509	-0.632483	0.000041
H138	H	0.819115	-0.392037	0.000139
H139	H	0.817825	-0.499782	0.000113
H140	H	0.574220	-0.740232	0.000060
H141	H	0.525567	-0.459902	-0.000003
C142	C	0.512129	-0.341643	0.000008
H143	H	0.480894	-0.363622	0.000003
H144	H	0.510249	-0.318168	-0.084935
H145	H	0.510243	-0.318185	0.084972
