data_functionalizedCrystal
_audit_creation_method	'MofGen! by Chris Wilmer'
_symmetry_space_group_name_H-M	'P1'
_symmetry_Int_Tables_number	1
_symmetry_cell_setting	triclinic
loop_
_symmetry_equiv_pos_as_xyz
  x,y,z
_cell_length_a	14.908520
_cell_length_b	17.077404
_cell_length_c	17.077396
_cell_angle_alpha	89.981638
_cell_angle_beta	93.268321
_cell_angle_gamma	93.318621
loop_
_atom_site_label
_atom_site_type_symbol
_atom_site_fract_x
_atom_site_fract_y
_atom_site_fract_z
Zn1	Zn	-0.359207	1.182021	-0.461847
Zn2	Zn	-0.510079	1.174354	-0.338153
Zn3	Zn	-0.359233	1.050752	-0.330599
Zn4	Zn	-0.510019	1.043150	-0.469376
O5	O	-0.434635	1.112569	-0.399993
O6	O	-0.379235	1.290850	-0.445449
O7	O	-0.490104	1.157930	-0.227305
O8	O	-0.232985	1.074555	-0.341697
O9	O	-0.490079	1.285217	-0.354571
O10	O	-0.232966	1.170998	-0.438124
O11	O	-0.379279	1.067120	-0.221755
O12	O	-0.379221	0.939897	-0.348997
O13	O	-0.489978	1.061598	-0.578222
O14	O	-0.490003	0.934312	-0.450956
O15	O	-0.379177	1.163627	-0.572691
O16	O	-0.636315	1.150559	-0.361872
O17	O	-0.636272	1.054164	-0.458281
C18	C	-0.434609	0.908622	-0.399974
C19	C	-0.434620	0.821372	-0.399986
C20	C	-0.377006	0.783311	-0.447388
C21	C	-0.377012	0.701330	-0.447392
C22	C	-0.434637	0.657412	-0.399998
C23	C	-0.492253	0.695479	-0.352590
C24	C	-0.492242	0.777458	-0.352583
C25	C	-0.492274	0.524608	-0.352611
C26	C	-0.492286	0.442623	-0.352619
C27	C	-0.377043	0.448479	-0.447420
C28	C	-0.377032	0.530459	-0.447412
C29	C	-0.434650	0.568520	-0.400006
C30	C	-0.669027	1.100726	-0.411730
C31	C	-0.769302	1.095731	-0.416778
C32	C	-0.957712	1.186825	-0.325952
C33	C	-1.051929	1.182135	-0.330692
C34	C	-1.051953	1.081665	-0.431001
C35	C	-0.957736	1.086355	-0.426261
C36	C	-0.910619	1.138936	-0.373734
C37	C	-0.816401	1.143622	-0.368991
C38	C	-0.816427	1.043156	-0.469303
C39	C	-0.910644	1.038466	-0.474043
C40	C	-0.199327	1.124480	-0.388228
C41	C	-0.099052	1.129555	-0.383214
C42	C	-0.434568	1.112620	-0.604734
C43	C	-0.434540	1.112642	-0.691983
C44	C	-0.434661	1.317312	-0.400013
C45	C	-0.434672	1.404561	-0.400021
C46	C	-0.376841	1.165770	-0.730094
C47	C	-0.376811	1.165781	-0.812073
C48	C	-0.434485	1.112667	-0.855940
C49	C	-0.492186	1.059533	-0.817823
C50	C	-0.492211	1.059519	-0.735845
C51	C	-0.492132	1.059567	-0.988691
C52	C	-0.492109	1.059582	-1.070674
C53	C	-0.376732	1.165829	-1.064918
C54	C	-0.376757	1.165815	-0.982940
C55	C	-0.434460	1.112682	-0.944829
C56	C	-0.434636	1.112567	-0.196046
C57	C	-0.434410	1.112710	-0.108785
H58	H	-0.539157	0.808447	-0.313983
H59	H	-0.330083	0.819063	-0.485984
H60	H	-0.330098	0.670344	-0.485993
H61	H	-0.539168	0.659714	-0.313997
Cl62	Cl	-0.757169	1.209720	-0.302955
H63	H	-1.090332	1.038861	-0.473771
Cl64	Cl	-0.304312	1.232606	-0.859982
Cl65	Cl	-0.304596	0.585669	-0.507001
Cl66	Cl	-0.757220	0.982939	-0.529364
H67	H	-0.329879	1.209024	-0.694383
H68	H	-0.329799	1.209069	-0.947226
Cl69	Cl	-0.304193	1.232626	-1.112828
Cl70	Cl	-0.969885	0.972370	-0.540075
H71	H	-0.539190	0.555595	-0.314006
H72	H	-0.539142	1.016284	-0.853546
Cl73	Cl	-0.564604	0.992801	-1.125820
Cl74	Cl	-0.898476	1.252913	-0.259909
H75	H	-0.539106	1.016289	-0.957663
Cl76	Cl	-0.564747	0.992724	-0.687934
H77	H	-0.539210	0.406866	-0.314027
Cl78	Cl	-0.304607	0.400632	-0.507014
Cl79	Cl	-1.111128	1.242343	-0.270623
