data_functionalizedCrystal
_audit_creation_method	'MofGen! by Chris Wilmer'
_symmetry_space_group_name_H-M	'P1'
_symmetry_Int_Tables_number	1
_symmetry_cell_setting	triclinic
loop_
_symmetry_equiv_pos_as_xyz
  x,y,z
_cell_length_a	10.686220
_cell_length_b	16.120484
_cell_length_c	10.686551
_cell_angle_alpha	91.292191
_cell_angle_beta	89.691918
_cell_angle_gamma	97.070967
loop_
_atom_site_label
_atom_site_type_symbol
_atom_site_fract_x
_atom_site_fract_y
_atom_site_fract_z
Zn1	Zn	1.957921	-0.203137	0.579045
Zn2	Zn	1.931025	-0.353948	0.381655
Zn3	Zn	1.730532	-0.224452	0.387111
Zn4	Zn	1.737575	-0.352260	0.607294
O5	O	1.839263	-0.283449	0.488776
O6	O	2.130476	-0.214929	0.538756
O7	O	1.890226	-0.346397	0.207623
O8	O	1.769004	-0.105021	0.403033
O9	O	2.110716	-0.325729	0.393734
O10	O	1.936065	-0.089361	0.544046
O11	O	1.742924	-0.251257	0.211631
O12	O	1.555343	-0.249619	0.430424
O13	O	1.781008	-0.322851	0.778303
O14	O	1.560518	-0.343519	0.592192
O15	O	1.942895	-0.213292	0.757549
O16	O	1.897056	-0.470327	0.421125
O17	O	1.754928	-0.469087	0.586902
C18	C	1.512264	-0.298700	0.514966
C19	C	1.372373	-0.305242	0.526202
C20	C	1.823874	-0.499938	0.506511
C21	C	1.817409	-0.592545	0.514131
C22	C	1.805615	-0.762098	0.528067
C23	C	1.873138	-0.803948	0.449488
C24	C	1.866576	-0.898293	0.457242
C25	C	1.812176	-0.667744	0.520315
C26	C	2.167539	-0.268140	0.462485
C27	C	2.307431	-0.261616	0.451281
C28	C	1.865737	-0.265505	0.814505
C29	C	1.877019	-0.257859	0.953311
C30	C	1.854749	-0.066112	0.470997
C31	C	1.861348	0.026504	0.463420
C32	C	1.812969	-0.301259	0.164304
C33	C	1.801948	-0.308660	0.025460
H34	H	1.320945	-0.347606	0.598938
H35	H	1.949930	-0.208516	0.997738
O36	O	1.947869	-0.762046	0.362311
C37	C	1.937878	-0.675809	0.373884
H38	H	1.844839	-0.666361	0.421556
H39	H	2.019583	-0.643893	0.432463
C40	C	2.056545	-0.649091	0.184447
C41	C	1.942269	-0.637486	0.242989
H42	H	2.059259	-0.625449	0.103706
H43	H	2.063281	-0.707189	0.176652
H44	H	2.124621	-0.622493	0.233276
H45	H	1.874197	-0.664092	0.194168
H46	H	1.935521	-0.579391	0.250773
O47	O	1.368691	-0.211184	0.364336
C48	C	1.325209	-0.237594	0.243854
H49	H	1.283743	-0.306183	0.245714
H50	H	1.249522	-0.198203	0.213706
C51	C	1.486897	-0.142761	0.148176
C52	C	1.435978	-0.227005	0.150458
H53	H	1.555222	-0.136225	0.090562
H54	H	1.516189	-0.124965	0.229347
H55	H	1.423813	-0.109944	0.123056
H56	H	1.499057	-0.259818	0.175593
H57	H	1.406699	-0.244806	0.069289
O58	O	1.730787	-0.804009	0.615151
C59	C	1.740829	-0.890240	0.603605
H60	H	1.773508	-0.905398	0.504907
H61	H	1.812129	-0.907669	0.674361
C62	C	1.571201	-0.921797	0.749960
C63	C	1.611328	-0.940416	0.628734
H64	H	1.491321	-0.952749	0.765466
H65	H	1.564438	-0.863702	0.757743
H66	H	1.630629	-0.936322	0.808909
H67	H	1.551909	-0.925882	0.569787
H68	H	1.618078	-0.998510	0.620941
H69	H	1.729049	-0.358005	0.981039
