data_functionalizedCrystal
_audit_creation_method	'MofGen! by Chris Wilmer'
_symmetry_space_group_name_H-M	'P1'
_symmetry_Int_Tables_number	1
_symmetry_cell_setting	triclinic
loop_
_symmetry_equiv_pos_as_xyz
  x,y,z
_cell_length_a	17.038272
_cell_length_b	16.098687
_cell_length_c	16.109304
_cell_angle_alpha	92.719611
_cell_angle_beta	87.287097
_cell_angle_gamma	87.077883
loop_
_atom_site_label
_atom_site_type_symbol
_atom_site_fract_x
_atom_site_fract_y
_atom_site_fract_z
O1	O	1.040853	-0.069142	0.177084
O2	O	1.540853	0.430858	0.677084
O3	O	0.813224	-0.069166	0.174216
O4	O	1.313224	0.430834	0.674216
O5	O	0.933291	-0.069154	0.055063
O6	O	1.433291	0.430846	0.555063
O7	O	0.920787	-0.069154	0.296237
O8	O	1.420787	0.430846	0.796237
O9	O	0.926296	0.069355	0.061981
O10	O	1.426296	0.569355	0.561981
O11	O	0.806229	0.069343	0.181133
O12	O	1.306229	0.569343	0.681133
O13	O	1.033859	0.069367	0.184001
O14	O	1.533859	0.569367	0.684001
Zn15	Zn	0.918934	0.091346	0.183666
Zn16	Zn	1.418934	0.591346	0.683666
Zn17	Zn	0.928149	-0.091145	0.174552
Zn18	Zn	1.428149	0.408855	0.674552
O19	O	0.913792	0.069355	0.303154
O20	O	1.413792	0.569355	0.803154
C21	C	0.780599	0.000085	0.175067
C22	C	1.280599	0.500085	0.675067
C23	C	0.693806	0.000075	0.167288
C24	C	1.193806	0.500075	0.667288
N25	N	0.934439	-0.215691	0.168326
N26	N	1.434439	0.284309	0.668326
C27	C	0.929287	0.000099	0.027511
C28	C	1.429287	0.500099	0.527511
C29	C	0.927767	0.000093	-0.064892
C30	C	1.427767	0.500093	0.435108
C31	C	0.643692	0.000076	0.238708
C32	C	1.143692	0.500076	0.738708
C33	C	0.562141	0.000087	0.231395
C34	C	1.062141	0.500087	0.731395
C35	C	0.530706	0.000092	0.152659
C36	C	1.030706	0.500092	0.652659
C37	C	0.580826	0.000094	0.081234
C38	C	1.080826	0.500094	0.581234
C39	C	0.662375	0.000089	0.088548
C40	C	1.162375	0.500089	0.588548
C41	C	0.284947	0.000115	0.126818
C42	C	0.784947	0.500115	0.626818
C43	C	0.203391	0.000118	0.119509
C44	C	0.703391	0.500118	0.619509
C45	C	0.184711	0.000112	0.269671
C46	C	0.684711	0.500112	0.769671
C47	C	0.266263	0.000102	0.276978
C48	C	0.766263	0.500102	0.776978
C49	C	0.316376	0.000108	0.205553
C50	C	0.816376	0.500108	0.705553
C51	C	0.447348	0.000102	0.145182
C52	C	0.947348	0.500102	0.645182
C53	C	0.399732	0.000105	0.213031
C54	C	0.899732	0.500105	0.713031
C55	C	1.066484	0.000114	0.183150
C56	C	1.566484	0.500114	0.683150
C57	C	1.153277	0.000118	0.190929
C58	C	1.653277	0.500118	0.690929
C59	C	0.963704	-0.740496	0.139428
C60	C	1.463704	-0.240496	0.639428
C61	C	0.959282	-0.653309	0.143788
C62	C	1.459282	-0.153309	0.643788
C63	C	0.903809	-0.609736	0.198611
C64	C	1.403809	-0.109736	0.698611
C65	C	0.852750	-0.653354	0.249071
C66	C	1.352750	-0.153354	0.749071
C67	C	0.857169	-0.740539	0.244706
C68	C	1.357169	-0.240539	0.744706
C69	C	0.887799	-0.346494	0.214420
C70	C	1.387799	0.153506	0.714420
C71	C	0.883385	-0.259303	0.218784
C72	C	1.383385	0.240697	0.718784
C73	C	0.989917	-0.259264	0.113499
C74	C	1.489917	0.240736	0.613499
C75	C	0.994334	-0.346451	0.109143
C76	C	1.494334	0.153549	0.609143
C77	C	0.943272	-0.390061	0.159599
C78	C	1.443272	0.109939	0.659599
C79	C	0.899289	-0.520617	0.203071
C80	C	1.399289	-0.020617	0.703071
C81	C	0.947788	-0.479179	0.155134
C82	C	1.447788	0.020821	0.655134
N83	N	0.912650	0.215892	0.189886
N84	N	1.412650	0.715892	0.689886
C85	C	0.928069	-0.075406	-0.281250
C86	C	1.428069	0.424594	0.218750
C87	C	0.926634	-0.075405	-0.368072
C88	C	1.426634	0.424595	0.131928
C89	C	0.919012	0.075605	-0.360527
C90	C	1.419012	0.575605	0.139473
C91	C	0.920441	0.075604	-0.273706
C92	C	1.420441	0.575604	0.226294
C93	C	0.924974	0.000096	-0.234070
C94	C	1.424974	0.500096	0.265930
C95	C	0.922109	0.000098	-0.407713
C96	C	1.422109	0.500098	0.092287
C97	C	0.920553	0.000099	-0.501849
C98	C	1.420553	0.500099	-0.001849
C99	C	0.926529	0.000094	-0.139928
C100	C	1.426529	0.500094	0.360072
C101	C	0.917796	0.000100	0.330706
C102	C	1.417796	0.500100	0.830706
C103	C	0.919316	0.000101	0.423110
C104	C	1.419316	0.500101	0.923110
H105	H	0.669280	0.000071	0.302823
H106	H	1.169280	0.500071	0.802823
H107	H	0.291852	0.000088	0.341092
H108	H	0.791852	0.500088	0.841092
H109	H	0.521341	0.000087	0.289553
H110	H	1.021341	0.500087	0.789553
N111	N	0.133511	0.000105	0.342617
N112	N	0.633511	0.500105	0.842617
N113	N	0.060701	0.000109	0.336080
N114	N	0.560701	0.500109	0.836080
H115	H	0.024539	0.000106	0.387602
H116	H	0.524539	0.500106	0.887602
N117	N	0.917296	0.152731	-0.225508
N118	N	1.417296	0.652731	0.274492
N119	N	0.972323	0.169579	-0.179988
N120	N	1.472323	0.669579	0.320012
H121	H	0.970100	0.224048	-0.145947
H122	H	1.470100	0.724048	0.354053
H123	H	0.177801	0.000121	0.055390
H124	H	0.677801	0.500121	0.555390
H125	H	0.703178	0.000088	0.030390
H126	H	1.203178	0.500088	0.530390
N127	N	0.336118	0.000118	0.053852
N128	N	0.836118	0.500118	0.553852
N129	N	0.308037	0.000117	-0.016440
N130	N	0.808037	0.500117	0.483560
H131	H	0.344179	0.000118	-0.067977
H132	H	0.844179	0.500118	0.432023
H133	H	0.555225	0.000110	0.017126
H134	H	1.055225	0.500110	0.517126
H135	H	0.425330	0.000106	0.277138
H136	H	0.925330	0.500106	0.777138
H137	H	0.992952	-0.514658	0.110494
H138	H	1.492952	-0.014658	0.610494
H139	H	0.931757	-0.136889	-0.248981
H140	H	1.431757	0.363111	0.251019
H141	H	1.031488	-0.223748	0.072419
H142	H	1.531488	0.276252	0.572419
H143	H	0.929152	-0.136886	-0.406482
H144	H	1.429152	0.363114	0.093518
N145	N	0.914382	0.152723	-0.401029
N146	N	1.414382	0.652723	0.098971
N147	N	0.913106	0.152716	-0.478547
N148	N	1.413106	0.652716	0.021453
H149	H	0.909837	0.207182	-0.507152
H150	H	1.409837	0.707182	-0.007152
H151	H	0.421743	0.000129	0.081076
H152	H	0.921743	0.500129	0.581076
N153	N	0.796073	-0.608859	0.305065
N154	N	1.296073	-0.108859	0.805065
N155	N	0.724324	-0.618619	0.298135
N156	N	1.224324	-0.118619	0.798135
H157	H	0.684293	-0.587196	0.337682
H158	H	1.184293	-0.087196	0.837682
N159	N	1.020332	-0.784987	0.083375
N160	N	1.520332	-0.284987	0.583375
N161	N	1.065879	-0.746033	0.038292
N162	N	1.565879	-0.246033	0.538292
H163	H	1.105855	-0.777453	-0.001320
H164	H	1.605855	-0.277453	0.498680
N165	N	1.011435	-0.608774	0.092237
N166	N	1.511435	-0.108774	0.592237
N167	N	1.060963	-0.647688	0.043294
N168	N	1.560963	-0.147688	0.543294
H169	H	1.097798	-0.616236	0.006882
H170	H	1.597798	-0.116236	0.506882
H171	H	0.838210	-0.223830	0.263430
H172	H	1.338210	0.276170	0.763430
N173	N	1.051136	-0.390944	0.053289
N174	N	1.551136	0.109056	0.553289
N175	N	1.096804	-0.351993	0.008342
N176	N	1.596804	0.148007	0.508342
H177	H	1.136974	-0.383416	-0.031047
H178	H	1.636974	0.116584	0.468953
H179	H	0.846223	-0.381995	0.255506
H180	H	1.346223	0.118005	0.755506
H181	H	0.815594	-0.776047	0.285793
H182	H	1.315594	-0.276047	0.785793
N183	N	0.842620	-0.476103	0.259060
N184	N	1.342620	0.023897	0.759060
N185	N	0.791694	-0.427467	0.231549
N186	N	1.291694	0.072533	0.731549
H187	H	0.751669	-0.396025	0.271089
H188	H	1.251669	0.103975	0.771089
