data_functionalizedCrystal
_audit_creation_method	'MofGen! by Chris Wilmer'
_symmetry_space_group_name_H-M	'P1'
_symmetry_Int_Tables_number	1
_symmetry_cell_setting	triclinic
loop_
_symmetry_equiv_pos_as_xyz
  x,y,z
_cell_length_a	14.048226
_cell_length_b	17.699104
_cell_length_c	14.971494
_cell_angle_alpha	96.545463
_cell_angle_beta	89.999780
_cell_angle_gamma	90.010297
loop_
_atom_site_label
_atom_site_type_symbol
_atom_site_fract_x
_atom_site_fract_y
_atom_site_fract_z
O1	O	-0.079195	-1.004352	0.113194
O2	O	0.420805	-0.504352	0.613194
O3	O	-0.079188	-0.784013	0.127891
O4	O	0.420812	-0.284013	0.627891
O5	O	-0.079189	-0.900085	-0.009677
O6	O	0.420811	-0.400085	0.490323
O7	O	-0.079193	-0.888280	0.250762
O8	O	0.420807	-0.388280	0.750762
O9	O	0.079132	-0.900065	-0.009672
O10	O	0.579132	-0.400065	0.490328
O11	O	0.079133	-0.783993	0.127895
O12	O	0.579133	-0.283993	0.627895
O13	O	0.079127	-1.004332	0.113199
O14	O	0.579127	-0.504332	0.613199
Zn15	Zn	0.104267	-0.894159	0.120548
Zn16	Zn	0.604267	-0.394159	0.620548
Zn17	Zn	-0.104328	-0.894186	0.120542
Zn18	Zn	0.395672	-0.394186	0.620542
O19	O	0.079128	-0.888260	0.250766
O20	O	0.579128	-0.388260	0.750766
C21	C	-0.000026	-0.755805	0.127363
C22	C	0.499974	-0.255805	0.627363
C23	C	-0.000024	-0.671783	0.125774
C24	C	0.499976	-0.171783	0.625774
N25	N	0.246628	-0.894147	0.120551
N26	N	0.746628	-0.394147	0.620551
C27	C	-0.000025	-0.147091	0.197560
C28	C	0.499975	0.352909	0.697560
C29	C	-0.000030	-0.226038	0.199048
C30	C	0.499970	0.273962	0.699048
C31	C	-0.000029	-0.274455	0.118291
C32	C	0.499971	0.225545	0.618291
C33	C	-0.000034	-0.243921	0.036040
C34	C	0.499966	0.256079	0.536040
C35	C	-0.000036	-0.164975	0.034553
C36	C	0.499964	0.335025	0.534553
C37	C	-0.000025	-0.562302	0.042035
C38	C	0.499975	-0.062302	0.542035
C39	C	-0.000019	-0.641253	0.043529
C40	C	0.499981	-0.141253	0.543529
C41	C	-0.000018	-0.623365	0.206531
C42	C	0.499982	-0.123365	0.706531
C43	C	-0.000020	-0.544419	0.205043
C44	C	0.499980	-0.044419	0.705043
C45	C	-0.000030	-0.513892	0.122793
C46	C	0.499970	-0.013892	0.622793
C47	C	-0.000027	-0.428288	0.121181
C48	C	0.499973	0.071712	0.621181
C49	C	-0.000025	-0.360058	0.119902
C50	C	0.499975	0.139942	0.619902
C51	C	0.703466	-0.945601	0.059647
C52	C	1.203466	-0.445601	0.559647
C53	C	0.603809	-0.945595	0.059653
C54	C	1.103809	-0.445595	0.559653
C55	C	0.553998	-0.894180	0.120545
C56	C	1.053998	-0.394180	0.620545
C57	C	0.603849	-0.842774	0.181442
C58	C	1.103849	-0.342774	0.681442
C59	C	0.703505	-0.842784	0.181440
C60	C	1.203505	-0.342784	0.681440
C61	C	0.396135	-0.842754	0.181440
C62	C	0.896135	-0.342754	0.681440
C63	C	0.296472	-0.842743	0.181442
C64	C	0.796472	-0.342743	0.681442
C65	C	0.296439	-0.945565	0.059653
C66	C	0.796439	-0.445565	0.559653
C67	C	0.396095	-0.945576	0.059651
C68	C	0.896095	-0.445576	0.559651
C69	C	0.445939	-0.894168	0.120547
C70	C	0.945939	-0.394168	0.620547
N71	N	0.753311	-0.894197	0.120537
N72	N	1.253311	-0.394197	0.620537
C73	C	-0.000032	-0.032540	0.113726
C74	C	0.499968	0.467460	0.613726
C75	C	-0.000027	-0.116562	0.115316
C76	C	0.499973	0.383438	0.615316
C77	C	-0.000030	-0.899546	-0.042997
C78	C	0.499970	-0.399546	0.457003
C79	C	-0.000034	-0.897960	-0.142289
C80	C	0.499966	-0.397960	0.357711
C81	C	-0.086337	-0.897228	-0.188933
C82	C	0.413663	-0.397228	0.311067
C83	C	-0.086338	-0.895733	-0.282227
C84	C	0.413662	-0.395733	0.217773
C85	C	-0.000036	-0.894977	-0.328876
C86	C	0.499964	-0.394977	0.171124
C87	C	0.086273	-0.895707	-0.282224
C88	C	0.586273	-0.395707	0.217776
C89	C	0.086273	-0.897196	-0.188931
C90	C	0.586273	-0.397196	0.311069
C91	C	0.086267	-0.892605	-0.476677
C92	C	0.586267	-0.392605	0.023323
C93	C	0.086267	-0.891117	-0.569977
C94	C	0.586267	-0.391117	-0.069977
C95	C	-0.086344	-0.891142	-0.569973
C96	C	0.413656	-0.391142	-0.069973
C97	C	-0.086344	-0.892631	-0.476680
C98	C	0.413656	-0.392631	0.023320
C99	C	-0.000035	-0.893363	-0.430035
C100	C	0.499965	-0.393363	0.069965
C101	C	-0.000033	-0.888799	0.284087
C102	C	0.499967	-0.388799	0.784087
C103	C	-0.000035	-0.890385	0.383378
C104	C	0.499965	-0.390385	0.883378
H105	H	-0.000019	-0.107675	0.263323
H106	H	0.499981	0.392325	0.763323
H107	H	-0.156619	-0.893253	-0.438702
H108	H	0.343381	-0.393253	0.061298
H109	H	-0.000016	-0.505001	0.270805
H110	H	0.499984	-0.005001	0.770805
H111	H	-0.000014	-0.648230	0.273503
H112	H	0.499986	-0.148230	0.773503
Br113	Br	-0.000036	-0.267468	0.310671
Br114	Br	0.499964	0.232532	0.810671
Br115	Br	-0.000017	-0.706962	-0.066078
Br116	Br	0.499983	-0.206962	0.433922
H117	H	-0.000030	-0.537456	-0.024938
H118	H	0.499970	-0.037456	0.475062
H119	H	0.156542	-0.895086	-0.320212
H120	H	0.656542	-0.395086	0.179788
Br121	Br	-0.203478	-0.890146	-0.633275
Br122	Br	0.296522	-0.390146	-0.133275
H123	H	-0.000039	-0.283348	-0.029714
H124	H	0.499961	0.216652	0.470286
Br125	Br	-0.000043	-0.123541	-0.077069
Br126	Br	0.499957	0.376459	0.422931
Br127	Br	0.771057	-1.015377	-0.023004
Br128	Br	1.271057	-0.515377	0.476996
H129	H	-0.156614	-0.897848	-0.150959
H130	H	0.343386	-0.397848	0.349041
Br131	Br	0.203392	-0.890093	-0.633287
Br132	Br	0.703392	-0.390093	-0.133287
Br133	Br	0.463699	-1.015346	-0.022996
Br134	Br	0.963699	-0.515346	0.477004
Br135	Br	0.536159	-1.015362	-0.022982
Br136	Br	1.036159	-0.515362	0.477018
Br137	Br	0.228790	-1.015329	-0.022994
Br138	Br	0.728790	-0.515329	0.477006
Br139	Br	0.228878	-0.772963	0.264085
Br140	Br	0.728878	-0.272963	0.764085
H141	H	0.436715	-0.800895	0.231031
H142	H	0.936715	-0.300895	0.731031
Br143	Br	-0.203467	-0.894738	-0.345528
Br144	Br	0.296533	-0.394738	0.154472
Br145	Br	0.536252	-0.773000	0.264091
Br146	Br	1.036252	-0.273000	0.764091
Br147	Br	0.203401	-0.893599	-0.413374
Br148	Br	0.703401	-0.393599	0.086626
H149	H	0.744088	-0.800927	0.231024
H150	H	1.244088	-0.300927	0.731024
H151	H	0.156549	-0.897781	-0.150953
H152	H	0.656549	-0.397781	0.349047
