data_functionalizedCrystal
_audit_creation_method	'MofGen! by Chris Wilmer'
_symmetry_space_group_name_H-M	'P1'
_symmetry_Int_Tables_number	1
_symmetry_cell_setting	triclinic
loop_
_symmetry_equiv_pos_as_xyz
  x,y,z
_cell_length_a	12.759401
_cell_length_b	18.050589
_cell_length_c	12.759393
_cell_angle_alpha	89.970454
_cell_angle_beta	89.979062
_cell_angle_gamma	90.029746
loop_
_atom_site_label
_atom_site_type_symbol
_atom_site_fract_x
_atom_site_fract_y
_atom_site_fract_z
Zn1	Zn	1.606168	-0.295593	-0.594027
Zn2	Zn	1.606017	-0.419801	-0.418350
Zn3	Zn	1.430466	-0.295633	-0.418362
Zn4	Zn	1.430417	-0.419749	-0.593987
O5	O	1.518267	-0.357694	-0.506182
O6	O	1.753169	-0.312075	-0.570735
O7	O	1.582688	-0.403368	-0.271331
O8	O	1.453857	-0.191703	-0.441686
O9	O	1.753058	-0.403330	-0.441666
O10	O	1.582944	-0.191674	-0.570746
O11	O	1.453711	-0.312142	-0.271339
O12	O	1.283439	-0.312092	-0.441648
O13	O	1.453773	-0.403241	-0.741014
O14	O	1.283402	-0.403280	-0.570679
O15	O	1.582896	-0.312025	-0.741043
O16	O	1.582640	-0.523719	-0.441627
O17	O	1.453627	-0.523681	-0.570667
C18	C	1.245300	-0.357685	-0.506161
C19	C	1.128523	-0.357699	-0.506177
C20	C	1.073670	-0.405253	-0.573257
C21	C	0.963946	-0.405256	-0.573278
C22	C	0.963938	-0.310149	-0.439129
C23	C	1.073660	-0.310143	-0.439114
C24	C	1.518140	-0.550646	-0.506164
C25	C	1.518182	-0.633192	-0.506192
C26	C	1.448094	-0.832649	-0.576339
C27	C	1.422478	-0.882097	-0.480470
C28	C	1.518285	-0.784322	-0.506206
C29	C	1.543953	-0.881956	-0.602085
C30	C	1.518383	-0.930307	-0.506227
C31	C	1.492619	-0.832683	-0.410286
C32	C	1.614139	-0.832538	-0.531966
C33	C	1.588559	-0.881964	-0.436031
C34	C	1.518226	-0.700224	-0.506194
C35	C	1.518442	-1.014404	-0.506228
C36	C	1.792300	-0.357704	-0.506203
C37	C	1.909077	-0.357708	-0.506212
C38	C	1.518346	-0.357623	-0.780215
C39	C	1.518379	-0.357592	-0.896992
C40	C	1.518423	-0.163989	-0.506222
C41	C	1.518489	-0.081443	-0.506239
C42	C	1.585619	-0.310088	-0.951871
C43	C	1.585637	-0.310056	-1.061595
C44	C	1.451172	-0.405039	-1.061552
C45	C	1.451150	-0.405067	-0.951829
C46	C	1.518249	-0.357712	-0.233214
C47	C	1.518419	-0.357533	-0.116438
H48	H	1.118323	-0.271414	-0.384489
H49	H	1.396439	-0.443693	-1.106214
H50	H	1.388648	-0.810995	-0.635565
C51	C	1.659560	-0.257862	-0.891548
C52	C	1.651053	-0.173433	-0.906650
C53	C	1.724994	-0.121203	-0.846330
C54	C	1.807441	-0.153403	-0.770908
C55	C	1.815950	-0.237837	-0.755801
C56	C	1.742010	-0.290067	-0.816121
H57	H	1.590018	-0.149592	-0.962486
H58	H	1.718694	-0.058699	-0.857513
H59	H	1.862176	-0.114740	-0.726255
H60	H	1.876986	-0.261678	-0.699966
H61	H	1.748310	-0.352571	-0.804938
C62	C	1.668799	-0.911041	-0.355828
C63	C	1.785383	-0.890290	-0.366653
C64	C	1.865615	-0.919368	-0.286445
C65	C	1.829261	-0.969198	-0.195412
C66	C	1.712671	-0.989952	-0.184584
C67	C	1.632440	-0.960873	-0.264792
H68	H	1.812299	-0.853400	-0.434044
H69	H	1.951923	-0.904005	-0.294461
H70	H	1.888653	-0.990724	-0.136038
H71	H	1.685755	-1.026841	-0.117193
H72	H	1.546132	-0.976236	-0.256776
H73	H	1.640388	-0.271372	-1.106272
C74	C	1.723558	-0.803104	-0.561431
C75	C	1.784810	-0.754298	-0.483698
C76	C	1.894229	-0.724863	-0.513177
C77	C	1.942397	-0.744233	-0.620389
C78	C	1.881144	-0.793042	-0.698129
C79	C	1.771725	-0.822477	-0.668650
H80	H	1.749154	-0.739957	-0.404327
H81	H	1.939572	-0.688732	-0.455629
H82	H	2.023396	-0.722444	-0.642211
H83	H	1.916800	-0.807383	-0.777500
H84	H	1.726382	-0.858608	-0.726199
H85	H	1.565624	-0.903600	-0.683161
C86	C	1.313032	-0.911507	-0.451030
C87	C	1.293291	-0.995561	-0.444713
C88	C	1.183844	-1.024968	-0.415278
C89	C	1.094138	-0.970320	-0.392160
C90	C	1.113876	-0.886260	-0.398477
C91	C	1.223323	-0.856854	-0.427912
H92	H	1.359700	-1.036020	-0.461827
H93	H	1.169233	-1.087194	-0.410603
H94	H	1.013118	-0.992088	-0.370371
H95	H	1.047467	-0.845802	-0.381363
H96	H	1.237934	-0.794627	-0.432587
C97	C	1.377178	-0.457325	-0.891459
C98	C	1.257751	-0.451253	-0.906532
C99	C	1.183778	-0.503506	-0.846164
C100	C	1.229232	-0.561832	-0.770721
C101	C	1.348665	-0.567907	-0.755644
C102	C	1.422638	-0.515654	-0.816013
H103	H	1.224098	-0.408074	-0.962383
H104	H	1.095366	-0.499008	-0.857325
H105	H	1.174473	-0.600513	-0.726032
H106	H	1.382318	-0.611086	-0.699794
H107	H	1.511051	-0.520152	-0.804851
H108	H	0.919255	-0.271432	-0.384527
H109	H	1.470854	-0.811128	-0.329188
H110	H	0.919289	-0.443978	-0.627904
H111	H	1.118336	-0.443974	-0.627867
