data_functionalizedCrystal
_audit_creation_method	'MofGen! by Chris Wilmer'
_symmetry_space_group_name_H-M	'P1'
_symmetry_Int_Tables_number	1
_symmetry_cell_setting	triclinic
loop_
_symmetry_equiv_pos_as_xyz
  x,y,z
_cell_length_a	16.974800
_cell_length_b	10.654551
_cell_length_c	15.455313
_cell_angle_alpha	92.693835
_cell_angle_beta	90.973911
_cell_angle_gamma	83.936367
loop_
_atom_site_label
_atom_site_type_symbol
_atom_site_fract_x
_atom_site_fract_y
_atom_site_fract_z
O1	O	1.049950	0.160091	0.001606
O2	O	0.820622	0.179269	-0.014500
O3	O	0.940558	-0.013114	-0.006077
O4	O	0.930013	0.352474	-0.006817
O5	O	0.933699	-0.002158	0.137703
O6	O	0.813763	0.190225	0.129281
O7	O	1.043091	0.171046	0.145386
Cu8	Cu	0.927801	0.181636	0.150462
Cu9	Cu	0.935912	0.168680	-0.019575
O10	O	0.923155	0.363430	0.136964
C11	C	0.787828	0.183817	0.055328
C12	C	0.700331	0.181030	0.049183
C13	C	0.655491	0.185690	0.124673
C14	C	0.573280	0.183052	0.118902
C15	C	0.535910	0.175763	0.037640
C16	C	0.580756	0.171099	-0.037856
C17	C	0.662967	0.173728	-0.032083
C18	C	0.290439	0.167250	0.011972
C19	C	0.208222	0.164625	0.006206
C20	C	0.200751	0.176576	0.162964
C21	C	0.282963	0.179212	0.168729
C22	C	0.327803	0.174542	0.093233
N23	N	0.451876	0.173070	0.031739
N24	N	0.411835	0.177225	0.099136
C25	C	0.936354	-0.054426	0.065757
C26	C	0.934038	-0.193846	0.065588
C27	C	0.936689	-0.265318	-0.012861
C28	C	0.934505	-0.396316	-0.013011
C29	C	0.927021	-0.384356	0.143746
C30	C	0.929199	-0.253360	0.143894
C31	C	0.941528	-0.205804	-0.091167
C32	C	0.944180	-0.277277	-0.169623
C33	C	0.941997	-0.408275	-0.169773
C34	C	0.937160	-0.467799	-0.091466
C35	C	1.075885	0.166499	0.075556
C36	C	1.163382	0.169285	0.081695
C37	C	0.927358	0.404742	0.065128
C38	C	0.929675	0.544161	0.065291
N39	N	0.922101	0.190748	0.270057
N40	N	0.941617	0.159557	-0.139170
C41	C	0.973073	0.109048	0.319031
C42	C	0.968770	0.115950	0.409536
C43	C	0.913499	0.204561	0.451067
C44	C	0.862523	0.286265	0.402087
C45	C	0.866822	0.279356	0.311582
C46	C	0.894940	0.234352	0.721345
C47	C	0.890646	0.241258	0.811856
C48	C	0.996893	0.070941	0.819299
C49	C	1.001191	0.064044	0.728793
C50	C	0.950212	0.145744	0.679821
N51	N	0.909101	0.211622	0.543578
N52	N	0.954606	0.138676	0.587311
H53	H	0.164234	0.180376	0.224428
H54	H	0.177798	0.158693	-0.059971
H55	H	0.853432	0.300878	0.681479
C56	C	0.339751	0.162127	-0.071070
H57	H	0.305717	0.157424	-0.120290
H58	H	0.377590	0.089737	-0.071688
H59	H	0.366362	0.236080	-0.072470
H60	H	0.550324	0.165155	-0.104021
C61	C	0.712290	0.168611	-0.115122
H62	H	0.678260	0.163905	-0.164346
H63	H	0.750129	0.096222	-0.115736
H64	H	0.738901	0.242565	-0.116521
H65	H	0.817516	0.358410	0.435906
H66	H	0.927023	-0.195162	0.207774
C67	C	0.944038	-0.061734	-0.090999
H68	H	0.947328	-0.036529	-0.148867
H69	H	0.989053	-0.039447	-0.058789
H70	H	0.897304	-0.020351	-0.065245
C71	C	0.324069	0.187224	0.258115
H72	H	0.379452	0.188133	0.250740
H73	H	0.314674	0.116082	0.289769
H74	H	0.303447	0.262424	0.288977
C75	C	0.949500	-0.211806	-0.255753
H76	H	0.950428	-0.123555	-0.244430
H77	H	0.904807	-0.226310	-0.291207
H78	H	0.996560	-0.245154	-0.284753
C79	C	0.944916	-0.486892	-0.256068
H80	H	0.948116	-0.432683	-0.302679
H81	H	0.898349	-0.528829	-0.262615
H82	H	0.990101	-0.547656	-0.256155
C83	C	0.810757	0.369232	0.257712
H84	H	0.777229	0.423003	0.295407
H85	H	0.779386	0.321215	0.220096
H86	H	0.841071	0.418945	0.224407
H87	H	0.935370	-0.574464	-0.091595
C88	C	1.024835	0.026080	0.463407
H89	H	1.014354	0.042872	0.523256
H90	H	1.078207	0.038821	0.452263
H91	H	1.016522	-0.058909	0.447946
C92	C	0.829804	0.338667	0.857536
H93	H	0.800041	0.386309	0.815407
H94	H	0.856716	0.393797	0.894860
H95	H	0.795097	0.295960	0.890511
C96	C	1.033870	0.011573	0.273355
H97	H	1.063604	-0.036104	0.315487
H98	H	1.068597	0.054195	0.240356
H99	H	1.006909	-0.043531	0.236052
C100	C	0.921710	-0.449832	0.229875
H101	H	0.920800	-0.538087	0.218551
H102	H	0.874657	-0.416496	0.258884
H103	H	0.966411	-0.435323	0.265323
C104	C	1.061984	-0.033435	0.683115
H105	H	1.091720	-0.081114	0.725245
H106	H	1.096710	0.009189	0.650117
H107	H	1.035022	-0.088538	0.645812
C108	C	1.052957	-0.018932	0.873170
H109	H	1.042479	-0.002137	0.933019
H110	H	1.106330	-0.006198	0.862022
H111	H	1.044639	-0.103920	0.857710
H112	H	0.685911	0.191636	0.190845
H113	H	0.536776	0.186826	0.180374
