data_functionalizedCrystal
_audit_creation_method	'MofGen! by Chris Wilmer'
_symmetry_space_group_name_H-M	'P1'
_symmetry_Int_Tables_number	1
_symmetry_cell_setting	triclinic
loop_
_symmetry_equiv_pos_as_xyz
  x,y,z
_cell_length_a	14.044220
_cell_length_b	9.565339
_cell_length_c	14.044220
_cell_angle_alpha	89.999264
_cell_angle_beta	86.811122
_cell_angle_gamma	89.998998
loop_
_atom_site_label
_atom_site_type_symbol
_atom_site_fract_x
_atom_site_fract_y
_atom_site_fract_z
O1	O	1.277167	0.116117	-0.230161
O2	O	1.610500	0.449450	0.103173
O3	O	1.943834	0.782784	0.436506
O4	O	1.000495	0.116152	-0.221855
O5	O	1.333829	0.449485	0.111478
O6	O	1.667162	0.782819	0.444812
O7	O	1.134678	0.116121	-0.087672
O8	O	1.468012	0.449454	0.245661
O9	O	1.801345	0.782788	0.578995
O10	O	1.142984	0.116148	-0.364344
O11	O	1.476317	0.449481	-0.031010
O12	O	1.809651	0.782814	0.302323
O13	O	1.134667	-0.116399	-0.087680
O14	O	1.468001	0.216934	0.245653
O15	O	1.801334	0.550268	0.578986
O16	O	1.000485	-0.116368	-0.221863
O17	O	1.333818	0.216965	0.111470
O18	O	1.667151	0.550299	0.444804
O19	O	1.277156	-0.116403	-0.230169
O20	O	1.610489	0.216930	0.103165
O21	O	1.943823	0.550263	0.436498
Zn22	Zn	1.138819	-0.153303	-0.226017
Zn23	Zn	1.472152	0.180030	0.107316
Zn24	Zn	1.805485	0.513363	0.440649
Zn25	Zn	1.138833	0.153052	-0.226007
Zn26	Zn	1.472166	0.486385	0.107327
Zn27	Zn	1.805499	0.819719	0.440660
O28	O	1.142973	-0.116372	-0.364352
O29	O	1.476306	0.216961	-0.031018
O30	O	1.809640	0.550294	0.302315
C31	C	0.964868	-0.000104	-0.218223
C32	C	1.298201	0.333230	0.115110
C33	C	1.631535	0.666563	0.448443
C34	C	0.858725	-0.000091	-0.207379
C35	C	1.192059	0.333243	0.125955
C36	C	1.525392	0.666576	0.459288
N37	N	1.138816	-0.362383	-0.226025
N38	N	1.472149	-0.029049	0.107309
N39	N	1.805482	0.304284	0.440642
C40	C	0.664388	-0.000120	-0.187553
C41	C	0.997721	0.333213	0.145781
C42	C	1.331054	0.666546	0.479114
C43	C	0.613258	-0.000119	-0.264467
C44	C	0.946591	0.333215	0.068866
C45	C	1.279924	0.666548	0.402200
C46	C	0.505122	-0.000135	-0.253435
C47	C	0.838455	0.333198	0.079898
C48	C	1.171788	0.666531	0.413231
C49	C	0.772534	-0.000104	-0.198583
C50	C	1.105867	0.333230	0.134751
C51	C	1.439200	0.666563	0.468084
C52	C	1.076738	-0.453571	-0.288056
C53	C	1.410072	-0.120238	0.045278
C54	C	1.743405	0.213095	0.378611
C55	C	1.164577	-0.546759	-0.313875
C56	C	1.497910	-0.213426	0.019458
C57	C	1.831243	0.119907	0.352792
C58	C	1.051015	-0.546750	-0.200215
C59	C	1.384349	-0.213417	0.133118
C60	C	1.717682	0.119917	0.466451
C61	C	1.226701	-0.453519	-0.251891
C62	C	1.560035	-0.120185	0.081443
C63	C	1.893368	0.213148	0.414776
C64	C	1.113080	-0.453501	-0.138189
C65	C	1.446413	-0.120168	0.195144
C66	C	1.779747	0.213165	0.528478
C67	C	1.200978	-0.546647	-0.163977
C68	C	1.534311	-0.213314	0.169356
C69	C	1.867644	0.120020	0.502690
C70	C	1.312783	-0.000145	-0.233800
C71	C	1.646117	0.333189	0.099533
C72	C	1.979450	0.666522	0.432866
C73	C	1.418926	-0.000148	-0.244645
C74	C	1.752259	0.333185	0.088688
C75	C	2.085593	0.666518	0.422022
C76	C	1.131037	-0.000139	-0.052054
C77	C	1.464371	0.333194	0.281279
C78	C	1.797704	0.666528	0.614612
C79	C	1.120193	-0.000139	0.054088
C80	C	1.453526	0.333194	0.387422
C81	C	1.786859	0.666527	0.720755
N82	N	1.138843	0.362131	-0.225992
N83	N	1.472176	0.695465	0.107341
N84	N	1.805509	1.028798	0.440674
C85	C	1.146614	-0.000109	-0.399969
C86	C	1.479948	0.333224	-0.066636
C87	C	1.813281	0.666558	0.266697
C88	C	1.157459	-0.000100	-0.506112
C89	C	1.490792	0.333234	-0.172779
C90	C	1.824125	0.666567	0.160554
C91	C	1.100366	-0.000117	0.248426
C92	C	1.433700	0.333217	0.581759
C93	C	1.767033	0.666550	0.915093
C94	C	1.177281	-0.000122	0.299556
C95	C	1.510614	0.333211	0.632889
C96	C	1.843947	0.666544	0.966223
C97	C	1.166249	-0.000110	0.407692
C98	C	1.499583	0.333224	0.741026
C99	C	1.832916	0.666557	1.074359
C100	C	1.111397	-0.000129	0.140280
C101	C	1.444730	0.333204	0.473613
C102	C	1.778063	0.666537	0.806947
H103	H	0.650697	-0.000105	-0.338600
H104	H	0.984030	0.333228	-0.005267
H105	H	1.317364	0.666562	0.328066
H106	H	0.626951	-0.000135	-0.113425
H107	H	0.960284	0.333198	0.219908
H108	H	1.293617	0.666532	0.553242
H109	H	1.300987	-0.412738	-0.273794
H110	H	1.634321	-0.079405	0.059539
H111	H	1.967654	0.253928	0.392872
H112	H	1.186363	-0.587722	-0.388143
H113	H	1.519696	-0.254389	-0.054809
H114	H	1.853029	0.078945	0.278524
H115	H	1.024298	-0.412705	-0.340570
H116	H	1.357631	-0.079371	-0.007237
H117	H	1.690964	0.253962	0.326097
H118	H	1.253548	-0.587258	-0.111507
H119	H	1.586882	-0.253924	0.221826
H120	H	1.920215	0.079409	0.555159
H121	H	1.091269	-0.412506	-0.063942
H122	H	1.424602	-0.079173	0.269391
H123	H	1.757936	0.254161	0.602724
H124	H	0.976753	-0.587706	-0.178401
H125	H	1.310086	-0.254373	0.154932
H126	H	1.643419	0.078960	0.488265
C127	C	1.269064	-0.000173	0.150126
C128	C	1.602397	0.333160	0.483460
C129	C	1.935730	0.666494	0.816793
C130	C	1.277361	-0.000156	0.249022
C131	C	1.610694	0.333177	0.582355
C132	C	1.944028	0.666510	0.915689
H133	H	1.330847	-0.000206	0.118928
H134	H	1.664181	0.333127	0.452261
H135	H	1.997514	0.666461	0.785595
H136	H	1.235380	0.080915	0.132181
H137	H	1.568713	0.414249	0.465515
H138	H	1.902046	0.747582	0.798848
H139	H	1.235349	-0.081255	0.132199
H140	H	1.568682	0.252078	0.465532
H141	H	1.902015	0.585411	0.798866
H142	H	1.311070	0.080932	0.266950
H143	H	1.644403	0.414265	0.600283
H144	H	1.977737	0.747599	0.933617
H145	H	1.311059	-0.081253	0.266974
H146	H	1.644393	0.252081	0.600307
H147	H	1.977726	0.585414	0.933641
H148	H	1.026239	-0.000104	0.285863
H149	H	1.359572	0.333229	0.619196
H150	H	1.692906	0.666563	0.952530
