data_functionalizedCrystal
_audit_creation_method	'MofGen! by Chris Wilmer'
_symmetry_space_group_name_H-M	'P1'
_symmetry_Int_Tables_number	1
_symmetry_cell_setting	triclinic
loop_
_symmetry_equiv_pos_as_xyz
  x,y,z
_cell_length_a	14.908783
_cell_length_b	16.625545
_cell_length_c	14.908308
_cell_angle_alpha	93.266177
_cell_angle_beta	89.788727
_cell_angle_gamma	93.316444
loop_
_atom_site_label
_atom_site_type_symbol
_atom_site_fract_x
_atom_site_fract_y
_atom_site_fract_z
Zn1	Zn	1.345286	-0.282016	-0.587828
Zn2	Zn	1.845286	0.217984	-0.087828
Zn3	Zn	1.353854	-0.408667	-0.437468
Zn4	Zn	1.853854	0.091333	0.062532
Zn5	Zn	1.203600	-0.281144	-0.428800
Zn6	Zn	1.703600	0.218856	0.071200
Zn7	Zn	1.194878	-0.424107	-0.579089
Zn8	Zn	1.694878	0.075893	-0.079089
O9	O	1.274405	-0.348984	-0.508296
O10	O	1.774405	0.151016	-0.008296
O11	O	1.472251	-0.292721	-0.575168
O12	O	1.972251	0.207279	-0.075168
O13	O	1.341158	-0.384924	-0.310495
O14	O	1.841158	0.115076	0.189505
O15	O	1.222459	-0.168425	-0.449925
O16	O	1.722459	0.331575	0.050075
O17	O	1.478546	-0.385770	-0.464698
O18	O	1.978546	0.114230	0.035302
O19	O	1.326556	-0.169067	-0.566762
O20	O	1.826556	0.330933	-0.066762
O21	O	1.230767	-0.291233	-0.304126
O22	O	1.730767	0.208767	0.195874
O23	O	1.076614	-0.306205	-0.441451
O24	O	1.576614	0.193795	0.058549
O25	O	1.207595	-0.412085	-0.706072
O26	O	1.707595	0.087915	-0.206072
O27	O	1.070207	-0.411239	-0.551868
O28	O	1.570207	0.088761	-0.051868
O29	O	1.318099	-0.307692	-0.712492
O30	O	1.818099	0.192308	-0.212492
O31	O	1.332702	-0.523549	-0.456225
O32	O	1.832702	-0.023549	0.043775
O33	O	1.215903	-0.534893	-0.560273
O34	O	1.715903	-0.034893	-0.060273
C35	C	1.040785	-0.360303	-0.494771
C36	C	1.540785	0.139697	0.005229
C37	C	0.940840	-0.365166	-0.489006
C38	C	1.440840	0.134834	0.010994
C39	C	0.746466	-0.277563	-0.593381
C40	C	1.246466	0.222437	-0.093381
C41	C	0.652559	-0.282129	-0.587968
C42	C	1.152559	0.217871	-0.087968
C43	C	0.659117	-0.378862	-0.472762
C44	C	1.159117	0.121138	0.027238
C45	C	0.753024	-0.374295	-0.478175
C46	C	1.253024	0.125705	0.021825
C47	C	0.796695	-0.323645	-0.538488
C48	C	1.296695	0.176355	-0.038488
C49	C	0.890604	-0.319083	-0.543906
C50	C	1.390604	0.180917	-0.043906
C51	C	0.897160	-0.415810	-0.428696
C52	C	1.397160	0.084190	0.071304
C53	C	0.803253	-0.420377	-0.423282
C54	C	1.303253	0.079623	0.076718
C55	C	1.274309	-0.558478	-0.508262
C56	C	1.774309	-0.058478	-0.008262
C57	C	1.274348	-0.648098	-0.508283
C58	C	1.774348	-0.148098	-0.008283
C59	C	1.274382	-0.720879	-0.508303
C60	C	1.774382	-0.220879	-0.008303
C61	C	1.274433	-0.812186	-0.508325
C62	C	1.774433	-0.312186	-0.008325
C63	C	1.274479	-0.884961	-0.508340
C64	C	1.774479	-0.384961	-0.008340
C65	C	1.274530	-0.976274	-0.508361
C66	C	1.774530	-0.476274	-0.008361
C67	C	1.508937	-0.337620	-0.521875
C68	C	2.008937	0.162380	-0.021875
C69	C	1.608880	-0.332778	-0.527661
C70	C	2.108880	0.167222	-0.027661
C71	C	1.260918	-0.361708	-0.742819
C72	C	1.760918	0.138292	-0.242819
C73	C	1.255171	-0.367130	-0.842758
C74	C	1.755171	0.132870	-0.342758
C75	C	1.274524	-0.138671	-0.508352
C76	C	1.774524	0.361329	-0.008352
C77	C	1.274576	-0.049049	-0.508375
C78	C	1.774576	0.450951	-0.008375
C79	C	1.359437	-0.268596	-1.037243
C80	C	1.859437	0.231404	-0.537243
C81	C	1.354040	-0.273688	-1.131145
C82	C	1.854040	0.226312	-0.631145
C83	C	1.238975	-0.382402	-1.124467
C84	C	1.738975	0.117598	-0.624467
C85	C	1.244373	-0.377310	-1.030564
C86	C	1.744373	0.122690	-0.530564
C87	C	1.304606	-0.320406	-0.986956
C88	C	1.804606	0.179594	-0.486956
C89	C	1.310007	-0.315319	-0.893052
C90	C	1.810007	0.184681	-0.393052
C91	C	1.194939	-0.424028	-0.886375
C92	C	1.694939	0.075972	-0.386375
C93	C	1.189542	-0.429120	-0.980278
C94	C	1.689542	0.070880	-0.480278
C95	C	1.287891	-0.336248	-0.274689
C96	C	1.787891	0.163752	0.225311
C97	C	1.293812	-0.330590	-0.174760
C98	C	1.793812	0.169410	0.325240
H99	H	0.926159	-0.277842	-0.593016
H100	H	1.426159	0.222158	-0.093016
C101	C	0.755944	-0.475497	-0.357865
C102	C	1.255944	0.024503	0.142135
C103	C	0.777661	-0.555241	-0.378601
C104	C	1.277661	-0.055241	0.121399
C105	C	0.734109	-0.606041	-0.318353
C106	C	1.234109	-0.106041	0.181647
H107	H	0.692812	-0.471724	-0.362444
H108	H	1.192812	0.028276	0.137556
H109	H	0.774817	-0.459642	-0.298346
H110	H	1.274817	0.040358	0.201654
H111	H	0.758784	-0.571091	-0.438106
H112	H	1.258784	-0.071091	0.061894
H113	H	0.840786	-0.559039	-0.374017
H114	H	1.340786	-0.059039	0.125983
H115	H	0.752982	-0.590187	-0.258834
H116	H	1.252982	-0.090187	0.241166
H117	H	0.670979	-0.602261	-0.322937
H118	H	1.170979	-0.102261	0.177063
H119	H	0.748844	-0.660152	-0.332409
H120	H	1.248844	-0.160152	0.167591
C121	C	1.124003	-0.490805	-1.027571
C122	C	1.624003	0.009195	-0.527571
C123	C	1.036356	-0.476317	-0.999600
C124	C	1.536356	0.023683	-0.499600
C125	C	0.975959	-0.533122	-1.043154
C126	C	1.475959	-0.033122	-0.543154
H127	H	1.137903	-0.543544	-1.012964
H128	H	1.637903	-0.043544	-0.512964
H129	H	1.128578	-0.486415	-1.090704
H130	H	1.628578	0.013585	-0.590704
H131	H	1.031785	-0.480714	-0.936482
H132	H	1.531785	0.019286	-0.436482
H133	H	1.022429	-0.423589	-1.014209
H134	H	1.522429	0.076411	-0.514209
H135	H	0.980533	-0.528732	-1.106287
H136	H	1.480533	-0.028732	-0.606287
H137	H	0.989866	-0.585857	-1.028543
H138	H	1.489866	-0.085857	-0.528543
H139	H	0.916483	-0.523295	-1.024188
H140	H	1.416483	-0.023295	-0.524188
H141	H	0.782023	-0.236325	-0.642494
H142	H	1.282023	0.263675	-0.142494
C143	C	1.424858	-0.206741	-0.990054
C144	C	1.924858	0.293259	-0.490054
C145	C	1.471712	-0.162447	-1.054192
C146	C	1.971712	0.337553	-0.554192
C147	C	1.531978	-0.105451	-1.010757
C148	C	2.031978	0.394549	-0.510757
H149	H	1.466203	-0.233608	-0.955683
H150	H	1.966203	0.266392	-0.455683
H151	H	1.392606	-0.171245	-0.951461
H152	H	1.892606	0.328755	-0.451461
H153	H	1.503963	-0.197937	-1.092770
H154	H	2.003963	0.302063	-0.592770
H155	H	1.430391	-0.135562	-1.088566
H156	H	1.930391	0.364438	-0.588566
H157	H	1.499725	-0.069956	-0.972164
H158	H	1.999725	0.430044	-0.472164
H159	H	1.573316	-0.132325	-0.976387
H160	H	2.073316	0.367675	-0.476387
H161	H	1.563769	-0.075386	-1.054267
H162	H	2.063769	0.424614	-0.554267
C163	C	0.598180	-0.232068	-0.647678
C164	C	1.098180	0.267932	-0.147678
C165	C	0.656528	-0.186751	-0.701668
C166	C	1.156528	0.313249	-0.201668
C167	C	0.606466	-0.140630	-0.756694
C168	C	1.106466	0.359370	-0.256694
H169	H	0.563514	-0.196743	-0.611340
H170	H	1.063514	0.303257	-0.111340
H171	H	0.559313	-0.266853	-0.684734
H172	H	1.059313	0.233147	-0.184734
H173	H	0.695379	-0.151969	-0.664616
H174	H	1.195379	0.348031	-0.164616
H175	H	0.691194	-0.222055	-0.738025
H176	H	1.191194	0.277945	-0.238025
H177	H	0.567599	-0.175416	-0.793751
H178	H	1.067599	0.324584	-0.293751
H179	H	0.571803	-0.105310	-0.720349
H180	H	1.071803	0.394690	-0.220349
H181	H	0.646047	-0.109883	-0.793339
H182	H	1.146047	0.390117	-0.293339
H183	H	0.623543	-0.420089	-0.423648
H184	H	1.123543	0.079911	0.076352
H185	H	1.189936	-0.428730	-1.159989
H186	H	1.689936	0.071270	-0.659989
C187	C	0.951856	-0.465755	-0.369138
C188	C	1.451856	0.034245	0.130862
C189	C	1.043445	-0.450906	-0.386773
C190	C	1.543445	0.049094	0.113227
C191	C	1.093858	-0.496894	-0.331924
C192	C	1.593858	0.003106	0.168076
H193	H	0.935805	-0.521428	-0.381259
H194	H	1.435805	-0.021428	0.118741
H195	H	0.939986	-0.451337	-0.307842
H196	H	1.439986	0.048663	0.192158
H197	H	1.055310	-0.465329	-0.448055
H198	H	1.555310	0.034671	0.051945
H199	H	1.059523	-0.395241	-0.374648
H200	H	1.559523	0.104759	0.125352
H201	H	1.081987	-0.482476	-0.270628
H202	H	1.581987	0.017524	0.229372
H203	H	1.077799	-0.552565	-0.344049
H204	H	1.577799	-0.052565	0.155951
H205	H	1.156006	-0.486820	-0.343876
H206	H	1.656006	0.013180	0.156124
C207	C	1.135448	-0.480185	-0.831617
C208	C	1.635448	0.019815	-0.331617
C209	C	1.153051	-0.463539	-0.740046
C210	C	1.653051	0.036461	-0.240046
C211	C	1.098262	-0.515248	-0.689575
C212	C	1.598262	-0.015248	-0.189575
H213	H	1.147646	-0.534586	-0.847648
H214	H	1.647646	-0.034586	-0.347648
H215	H	1.074136	-0.472141	-0.843457
H216	H	1.574136	0.027859	-0.343457
H217	H	1.214348	-0.471590	-0.728211
H218	H	1.714348	0.028410	-0.228211
H219	H	1.140848	-0.409147	-0.723988
H220	H	1.640848	0.090853	-0.223988
H221	H	1.036950	-0.507204	-0.701415
H222	H	1.536950	-0.007204	-0.201415
H223	H	1.110464	-0.569646	-0.705614
H224	H	1.610464	-0.069646	-0.205614
H225	H	1.110192	-0.503956	-0.627439
H226	H	1.610192	-0.003956	-0.127439
C227	C	1.375370	-0.253615	-0.845538
C228	C	1.875370	0.246385	-0.345538
C229	C	1.368380	-0.260255	-0.752539
C230	C	1.868380	0.239745	-0.252539
C231	C	1.428584	-0.203430	-0.708744
C232	C	1.928584	0.296570	-0.208744
H233	H	1.361410	-0.200873	-0.860075
H234	H	1.861410	0.299127	-0.360075
H235	H	1.434919	-0.263318	-0.864369
H236	H	1.934919	0.236682	-0.364369
H237	H	1.308844	-0.250546	-0.733715
H238	H	1.808844	0.249454	-0.233715
H239	H	1.382348	-0.312985	-0.737976
H240	H	1.882348	0.187015	-0.237976
H241	H	1.488133	-0.213133	-0.727575
H242	H	1.988133	0.286867	-0.227575
H243	H	1.414618	-0.150692	-0.723288
H244	H	1.914618	0.349308	-0.223288
H245	H	1.423855	-0.207932	-0.645641
H246	H	1.923855	0.292068	-0.145641
C247	C	1.413419	-0.217347	-1.185780
C248	C	1.913419	0.282653	-0.685780
C249	C	1.359433	-0.171044	-1.236736
C250	C	1.859433	0.328956	-0.736736
C251	C	1.414102	-0.119122	-1.287067
C252	C	1.914102	0.380878	-0.787067
H253	H	1.450492	-0.248184	-1.224747
H254	H	1.950492	0.251816	-0.724747
H255	H	1.450043	-0.182685	-1.146382
H256	H	1.950043	0.317315	-0.646382
H257	H	1.322824	-0.205702	-1.276129
H258	H	1.822824	0.294298	-0.776129
H259	H	1.322361	-0.140191	-1.197791
H260	H	1.822361	0.359809	-0.697791
H261	H	1.450726	-0.084460	-1.247669
H262	H	1.950726	0.415540	-0.747669
H263	H	1.451172	-0.149965	-1.326028
H264	H	1.951172	0.350035	-0.826028
H265	H	1.377480	-0.087694	-1.321639
H266	H	1.877480	0.412306	-0.821639
