data_functionalizedCrystal
_audit_creation_method	'MofGen! by Chris Wilmer'
_symmetry_space_group_name_H-M	'P1'
_symmetry_Int_Tables_number	1
_symmetry_cell_setting	triclinic
loop_
_symmetry_equiv_pos_as_xyz
  x,y,z
_cell_length_a	25.639239
_cell_length_b	15.298073
_cell_length_c	15.296720
_cell_angle_alpha	88.353317
_cell_angle_beta	80.361144
_cell_angle_gamma	80.304176
loop_
_atom_site_label
_atom_site_type_symbol
_atom_site_fract_x
_atom_site_fract_y
_atom_site_fract_z
Zn1	Zn	-0.155569	-1.253300	0.727375
Zn2	Zn	0.344431	-0.753300	1.227375
Zn3	Zn	-0.225791	-1.278530	0.580894
Zn4	Zn	0.274209	-0.778530	1.080894
Zn5	Zn	-0.150486	-1.132183	0.555539
Zn6	Zn	0.349514	-0.632183	1.055539
Zn7	Zn	-0.255099	-1.106746	0.701906
Zn8	Zn	0.244901	-0.606746	1.201906
O9	O	-0.196736	-1.192690	0.641428
O10	O	0.303264	-0.692690	1.141428
O11	O	-0.154746	-1.379226	0.729214
O12	O	0.345254	-0.879226	1.229214
O13	O	-0.201409	-1.280320	0.454972
O14	O	0.298591	-0.780320	0.954972
O15	O	-0.077991	-1.148336	0.578381
O16	O	0.422009	-0.648336	1.078381
O17	O	-0.206338	-1.397763	0.621595
O18	O	0.293662	-0.897763	1.121595
O19	O	-0.081726	-1.237320	0.704628
O20	O	0.418274	-0.737320	1.204628
O21	O	-0.146083	-1.172800	0.436344
O22	O	0.353917	-0.672800	0.936344
O23	O	-0.174501	-1.006229	0.553685
O24	O	0.325499	-0.506229	1.053685
O25	O	-0.256289	-1.104983	0.827843
O26	O	0.243711	-0.604983	1.327843
O27	O	-0.251360	-0.987541	0.661220
O28	O	0.248640	-0.487541	1.161220
O29	O	-0.183165	-1.212655	0.846555
O30	O	0.316835	-0.712655	1.346555
O31	O	-0.302848	-1.255655	0.596898
O32	O	0.197152	-0.755655	1.096898
O33	O	-0.324381	-1.129447	0.685806
O34	O	0.175619	-0.629447	1.185806
C35	C	-0.215560	-0.965101	0.601938
C36	C	0.284440	-0.465101	1.101938
C37	C	-0.223628	-0.867734	0.585065
C38	C	0.276372	-0.367734	1.085065
C39	C	-0.139177	-0.554611	0.761984
C40	C	0.360823	-0.054611	1.261984
C41	C	-0.131598	-0.646091	0.777842
C42	C	0.368402	-0.146091	1.277842
C43	C	-0.154605	-0.701506	0.729649
C44	C	0.345395	-0.201506	1.229649
C45	C	-0.185191	-0.665432	0.665595
C46	C	0.314809	-0.165432	1.165595
C47	C	-0.192773	-0.573942	0.649740
C48	C	0.307227	-0.073942	1.149740
C49	C	-0.208202	-0.720838	0.617405
C50	C	0.291798	-0.220838	1.117405
C51	C	-0.238788	-0.684764	0.553351
C52	C	0.261212	-0.184764	1.053351
C53	C	-0.246369	-0.593282	0.537498
C54	C	0.253631	-0.093282	1.037498
C55	C	-0.223362	-0.537867	0.585692
C56	C	0.276638	-0.037867	1.085692
C57	C	-0.200620	-0.812328	0.633260
C58	C	0.299380	-0.312328	1.133260
C59	C	-0.254217	-0.831659	0.521016
C60	C	0.245783	-0.331659	1.021016
C61	C	-0.261795	-0.740179	0.505158
C62	C	0.238205	-0.240179	1.005158
C63	C	-0.332587	-1.192549	0.641363
C64	C	0.167413	-0.692549	1.141363
C65	C	-0.390701	-1.192564	0.641378
C66	C	0.109299	-0.692564	1.141378
C67	C	-0.739831	-1.258536	0.595255
C68	C	-0.239831	-0.758536	1.095255
C69	C	-0.794434	-1.258568	0.595273
C70	C	-0.294434	-0.758568	1.095273
O71	O	-0.813127	-1.314514	0.555987
O72	O	-0.313127	-0.814514	1.055987
N73	N	-0.832970	-1.192834	0.641513
N74	N	-0.332970	-0.692834	1.141513
C75	C	-0.816901	-1.127068	0.687746
C76	C	-0.316901	-0.627068	1.187746
O77	O	-0.854693	-1.071159	0.727080
O78	O	-0.354693	-0.571159	1.227080
C79	C	-0.762299	-1.127041	0.687733
C80	C	-0.262299	-0.627041	1.187733
C81	C	-0.723765	-1.192774	0.641483
C82	C	-0.223765	-0.692774	1.141483
C83	C	-0.701297	-1.324265	0.549009
C84	C	-0.201297	-0.824265	1.049009
C85	C	-0.646698	-1.324232	0.548990
C86	C	-0.146698	-0.824232	1.048990
C87	C	-0.630633	-1.258470	0.595218
C88	C	-0.130633	-0.758470	1.095218
C89	C	-0.669166	-1.192741	0.641464
C90	C	-0.169166	-0.692741	1.141464
C91	C	-0.746231	-1.061280	0.733971
C92	C	-0.246231	-0.561280	1.233971
C93	C	-0.691625	-1.061258	0.733955
C94	C	-0.191625	-0.561258	1.233955
C95	C	-0.653091	-1.126992	0.687704
C96	C	-0.153091	-0.626992	1.187704
C97	C	-0.598501	-1.126946	0.687672
C98	C	-0.098501	-0.626946	1.187672
N99	N	-0.559965	-1.192680	0.641432
N100	N	-0.059965	-0.692680	1.141432
C101	C	-0.576031	-1.258442	0.595205
C102	C	-0.076031	-0.758442	1.095205
C103	C	-0.931568	-1.127132	0.687771
C104	C	-0.431568	-0.627132	1.187771
C105	C	-0.986168	-1.127155	0.687780
C106	C	-0.486168	-0.627155	1.187780
C107	C	-0.963697	-1.258656	0.595307
C108	C	-0.463697	-0.758656	1.095307
C109	C	-0.909096	-1.258628	0.595294
C110	C	-0.409096	-0.758628	1.095294
C111	C	-0.893032	-1.192866	0.641531
C112	C	-0.393032	-0.692866	1.141531
C113	C	-0.461369	-1.258367	0.595168
C114	C	0.038631	-0.758367	1.095168
C115	C	-0.406766	-1.258326	0.595150
C116	C	0.093234	-0.758326	1.095150
C117	C	-0.429242	-1.126828	0.687626
C118	C	0.070758	-0.626828	1.187626
C119	C	-0.483840	-1.126866	0.687640
C120	C	0.016160	-0.626866	1.187640
C121	C	-0.499902	-1.192643	0.641410
C122	C	0.000098	-0.692643	1.141410
O123	O	-0.579768	-1.071030	0.726941
O124	O	-0.079768	-0.571030	1.226941
O125	O	-0.538234	-1.314348	0.555887
O126	O	-0.038234	-0.814348	1.055887
C127	C	-0.060356	-1.192851	0.641518
C128	C	0.439644	-0.692851	1.141518
C129	C	-0.002239	-1.192920	0.641556
C130	C	0.497761	-0.692920	1.141556
C131	C	-0.223563	-1.153167	0.869865
C132	C	0.276437	-0.653167	1.369865
C133	C	-0.234995	-1.136325	0.967211
C134	C	0.265005	-0.636325	1.467211
C135	C	-0.177834	-0.421168	0.681065
C136	C	0.322166	0.078832	1.181065
C137	C	-0.169765	-0.518536	0.697936
C138	C	0.330235	-0.018536	1.197936
C139	C	-0.169972	-1.232109	0.413889
C140	C	0.330028	-0.732109	0.913889
C141	C	-0.158379	-1.249120	0.316573
C142	C	0.341621	-0.749120	0.816573
C143	C	-0.114936	-1.313095	1.280585
C144	C	0.385064	-0.813095	1.780585
C145	C	-0.104195	-1.328924	1.189124
C146	C	0.395805	-0.828924	1.689124
C147	C	-0.136894	-1.280776	1.133642
C148	C	0.363106	-0.780776	1.633642
C149	C	-0.180336	-1.216795	1.169629
C150	C	0.319664	-0.716795	1.669629
C151	C	-0.191080	-1.200969	1.261099
C152	C	0.308920	-0.700969	1.761099
C153	C	-0.213038	-1.168650	1.114156
C154	C	0.286962	-0.668650	1.614156
C155	C	-0.256480	-1.104670	1.150142
C156	C	0.243520	-0.604670	1.650142
C157	C	-0.267222	-1.088846	1.241604
C158	C	0.232778	-0.588846	1.741604
C159	C	-0.234523	-1.136995	1.297087
C160	C	0.265477	-0.636995	1.797087
C161	C	-0.202294	-1.184476	1.022685
C162	C	0.297706	-0.684476	1.522685
C163	C	-0.278438	-1.072351	1.003199
C164	C	0.221562	-0.572351	1.503199
C165	C	-0.289179	-1.056521	1.094660
C166	C	0.210821	-0.556521	1.594660
H167	H	-0.375392	-1.311855	0.557484
H168	H	0.124608	-0.811855	1.057484
H169	H	-0.515217	-1.073343	0.725305
H170	H	-0.015217	-0.573343	1.225305
H171	H	-0.068826	-1.381019	1.159831
H172	H	0.431174	-0.881019	1.659831
Cl173	Cl	-0.319550	-1.011822	0.933457
Cl174	Cl	0.180450	-0.511822	1.433457
H175	H	-0.175715	-0.841690	0.685413
H176	H	0.324285	-0.341690	1.185413
Cl177	Cl	-0.321842	-1.008428	1.286845
Cl178	Cl	0.178158	-0.508428	1.786845
H179	H	-0.088320	-1.352295	1.325767
H180	H	0.411680	-0.852295	1.825767
Cl181	Cl	-0.598263	-1.406884	0.490859
Cl182	Cl	-0.098263	-0.906884	0.990859
H183	H	-0.877723	-1.312155	0.557633
H184	H	-0.377723	-0.812155	1.057633
Cl185	Cl	-0.983905	-1.341328	0.537190
Cl186	Cl	-0.483905	-0.841328	1.037190
H187	H	-0.148431	-0.775993	0.742562
H188	H	0.351569	-0.275993	1.242562
Cl189	Cl	-0.300245	-0.694818	0.424636
Cl190	Cl	0.199755	-0.194818	0.924636
H191	H	-0.128147	-1.293668	1.059171
H192	H	0.371853	-0.793668	1.559171
H193	H	-0.243265	-1.124110	1.371562
H194	H	0.256735	-0.624110	1.871562
Cl195	Cl	-0.283143	-0.901317	0.460430
Cl196	Cl	0.216857	-0.401317	0.960430
H197	H	-0.416153	-1.073283	0.725261
H198	H	0.083847	-0.573283	1.225261
Cl199	Cl	-0.481552	-1.341058	0.537047
Cl200	Cl	0.018448	-0.841058	1.037047
H201	H	-0.714371	-1.377821	0.511366
H202	H	-0.214371	-0.877821	1.011366
H203	H	-0.120452	-0.509483	0.801221
H204	H	0.379548	-0.009483	1.301221
Cl205	Cl	-0.093151	-0.691434	0.858367
Cl206	Cl	0.406849	-0.191434	1.358367
Cl207	Cl	-0.232886	-0.422858	0.565756
Cl208	Cl	0.267114	0.077142	1.065756
H209	H	-0.324549	-1.004428	1.123973
H210	H	0.175451	-0.504428	1.623973
Cl211	Cl	-0.284818	-0.547935	0.456971
Cl212	Cl	0.215182	-0.047935	0.956971
H213	H	-1.017539	-1.073621	0.725432
H214	H	-0.517539	-0.573621	1.225432
H215	H	-0.918493	-1.073574	0.725419
H216	H	-0.418493	-0.573574	1.225419
Cl217	Cl	-0.794662	-0.978646	0.792131
Cl218	Cl	-0.294662	-0.478646	1.292131
Cl219	Cl	-0.671434	-0.978581	0.792086
Cl220	Cl	-0.171434	-0.478581	1.292086
H221	H	-0.166923	-1.236569	0.993394
H222	H	0.333077	-0.736569	1.493394
