data_functionalizedCrystal
_audit_creation_method	'MofGen! by Chris Wilmer'
_symmetry_space_group_name_H-M	'P1'
_symmetry_Int_Tables_number	1
_symmetry_cell_setting	triclinic
loop_
_symmetry_equiv_pos_as_xyz
  x,y,z
_cell_length_a	17.019282
_cell_length_b	17.019294
_cell_length_c	16.098538
_cell_angle_alpha	88.846036
_cell_angle_beta	91.140572
_cell_angle_gamma	83.655696
loop_
_atom_site_label
_atom_site_type_symbol
_atom_site_fract_x
_atom_site_fract_y
_atom_site_fract_z
O1	O	1.046637	0.100374	-0.001363
O2	O	0.817840	0.112321	-0.018637
O3	O	0.938205	-0.008053	-0.001364
O4	O	0.926272	0.220748	-0.018636
O5	O	0.931174	-0.001049	0.136142
O6	O	0.810808	0.119325	0.118869
O7	O	1.039606	0.107378	0.136142
Zn8	Zn	0.924091	0.114464	0.149338
Zn9	Zn	0.933355	0.105235	-0.031832
O10	O	0.919241	0.227752	0.118870
C11	C	0.785040	0.115234	0.048058
C12	C	0.697785	0.113468	0.041924
C13	C	0.652964	0.116455	0.113998
C14	C	0.570980	0.114784	0.108238
C15	C	0.533817	0.110132	0.030402
C16	C	0.578644	0.107142	-0.041678
C17	C	0.660628	0.108808	-0.035917
C18	C	0.286472	0.104906	0.009257
C19	C	0.204482	0.103243	0.003500
C20	C	0.196823	0.110884	0.153417
C21	C	0.278808	0.112554	0.159171
C22	C	0.323629	0.109560	0.087092
C23	C	0.450016	0.108426	0.024512
C24	C	0.407429	0.111260	0.092983
C25	C	0.934098	-0.033835	0.069446
C26	C	0.932328	-0.121091	0.075574
C27	C	0.935330	-0.165898	0.003500
C28	C	0.933661	-0.247884	0.009260
C29	C	0.928995	-0.285062	0.087096
C30	C	0.925990	-0.240249	0.159176
C31	C	0.927653	-0.158264	0.153415
C32	C	0.923777	-0.532412	0.108242
C33	C	0.922116	-0.614404	0.113999
C34	C	0.929786	-0.622033	-0.035918
C35	C	0.931453	-0.540046	-0.041673
C36	C	0.928444	-0.495240	0.030407
C37	C	0.927292	-0.368865	0.092987
C38	C	0.930142	-0.411438	0.024516
C39	C	1.072405	0.104465	0.069446
C40	C	1.159661	0.106230	0.075575
C41	C	0.923348	0.253533	0.048058
C42	C	0.925119	0.340790	0.041924
N43	N	0.917774	0.120761	0.272982
N44	N	0.939678	0.098932	-0.155475
C45	C	0.968881	0.069688	0.323898
C46	C	0.964469	0.074101	0.410454
C47	C	0.908955	0.129591	0.446092
C48	C	0.857842	0.180666	0.395169
C49	C	0.862251	0.176249	0.308615
C50	C	0.892974	0.145590	0.707047
C51	C	0.888571	0.150005	0.793608
C52	C	0.995198	0.043438	0.808888
C53	C	0.999604	0.039028	0.722331
C54	C	0.948489	0.090101	0.671416
C55	C	0.904446	0.134105	0.534566
C56	C	0.952995	0.085583	0.582944
H57	H	0.160322	0.113319	0.212100
H58	H	0.534491	0.117203	0.166930
Br59	Br	0.920952	-0.419327	0.198619
Br60	Br	0.399579	0.102070	-0.081117
Br61	Br	1.033826	0.004783	0.479558
Br62	Br	0.721458	0.104747	-0.133736
Br63	Br	0.937791	-0.489596	-0.147311
Br64	Br	0.915792	-0.664861	0.219642
Br65	Br	1.044232	-0.005619	0.275543
H66	H	0.859246	0.179287	0.563589
Br67	Br	0.936476	-0.360980	-0.081116
Br68	Br	0.933871	-0.682845	-0.133735
H69	H	0.851356	0.187177	0.665599
H70	H	0.921342	-0.495943	0.166936
Br71	Br	0.782493	0.255971	0.443531
H72	H	0.922186	-0.270526	0.222552
Br73	Br	1.074949	-0.036277	0.673964
H74	H	0.925197	-0.121782	0.212105
H75	H	1.036812	0.001856	0.850351
Br76	Br	0.941671	-0.115450	-0.102140
Br77	Br	0.457866	0.117569	0.198615
H78	H	0.683215	0.120250	0.177380
H79	H	0.843362	0.195195	0.822619
H80	H	0.820633	0.217838	0.267159
H81	H	0.548381	0.103349	-0.105054
Br82	Br	0.329236	0.118877	0.264810
Br83	Br	0.154047	0.096935	-0.102142
H84	H	0.322956	0.102466	-0.049436
H85	H	0.936110	-0.284362	-0.049431
H86	H	0.998193	0.040400	0.553925
