data_functionalizedCrystal
_audit_creation_method	'MofGen! by Chris Wilmer'
_symmetry_space_group_name_H-M	'P1'
_symmetry_Int_Tables_number	1
_symmetry_cell_setting	triclinic
loop_
_symmetry_equiv_pos_as_xyz
  x,y,z
_cell_length_a	21.295417
_cell_length_b	11.169417
_cell_length_c	11.169409
_cell_angle_alpha	90.019824
_cell_angle_beta	89.958601
_cell_angle_gamma	89.968614
loop_
_atom_site_label
_atom_site_type_symbol
_atom_site_fract_x
_atom_site_fract_y
_atom_site_fract_z
Zn1	Zn	-0.250543	-1.834794	-0.678467
Zn2	Zn	0.082790	-1.501461	-0.345134
Zn3	Zn	0.416123	-1.168127	-0.011800
Zn4	Zn	-0.355832	-1.834613	-0.477752
Zn5	Zn	-0.022498	-1.501280	-0.144419
Zn6	Zn	0.310835	-1.167946	0.188914
Zn7	Zn	-0.250582	-1.634080	-0.477802
Zn8	Zn	0.082751	-1.300747	-0.144468
Zn9	Zn	0.416085	-0.967413	0.188865
Zn10	Zn	-0.355780	-1.634017	-0.678397
Zn11	Zn	-0.022447	-1.300684	-0.345064
Zn12	Zn	0.310886	-0.967350	-0.011730
O13	O	-0.303184	-1.734376	-0.578105
O14	O	0.030149	-1.401043	-0.244771
O15	O	0.363482	-1.067709	0.088562
O16	O	-0.264516	-2.002720	-0.651851
O17	O	0.068818	-1.669386	-0.318517
O18	O	0.402151	-1.336053	0.014816
O19	O	-0.341908	-1.807962	-0.309809
O20	O	-0.008574	-1.474629	0.023524
O21	O	0.324759	-1.141296	0.356858
O22	O	-0.162487	-1.660807	-0.504470
O23	O	0.170846	-1.327474	-0.171137
O24	O	0.504179	-0.994141	0.162197
O25	O	-0.341870	-2.002587	-0.504386
O26	O	-0.008537	-1.669253	-0.171053
O27	O	0.324796	-1.335920	0.162280
O28	O	-0.162459	-1.808271	-0.651898
O29	O	0.170874	-1.474938	-0.318565
O30	O	0.504207	-1.141605	0.014768
O31	O	-0.264581	-1.660632	-0.309845
O32	O	0.068752	-1.327298	0.023488
O33	O	0.402086	-0.993965	0.356822
O34	O	-0.264531	-1.466122	-0.504402
O35	O	0.068802	-1.132789	-0.171069
O36	O	0.402135	-0.799455	0.162264
O37	O	-0.341783	-1.660700	-0.846356
O38	O	-0.008450	-1.327367	-0.513023
O39	O	0.324884	-0.994033	-0.179690
O40	O	-0.341820	-1.466076	-0.651779
O41	O	-0.008487	-1.132742	-0.318446
O42	O	0.324846	-0.799409	0.014888
O43	O	-0.264466	-1.808210	-0.846408
O44	O	0.068867	-1.474877	-0.513074
O45	O	0.402201	-1.141543	-0.179741
O46	O	-0.443914	-1.807901	-0.504318
O47	O	-0.110581	-1.474568	-0.170985
O48	O	0.222752	-1.141234	0.162348
O49	O	-0.443877	-1.660524	-0.651731
O50	O	-0.110543	-1.327191	-0.318398
O51	O	0.222790	-0.993857	0.014935
C52	C	-0.303175	-1.422551	-0.578089
C53	C	0.030159	-1.089218	-0.244756
C54	C	0.363492	-0.755885	0.088578
C55	C	-0.303186	-1.289151	-0.578111
C56	C	0.030147	-0.955818	-0.244778
C57	C	0.363481	-0.622485	0.088556
C58	C	-0.466736	-1.734219	-0.578038
C59	C	-0.133403	-1.400885	-0.244705
C60	C	0.199931	-1.067552	0.088629
C61	C	-0.536704	-1.734261	-0.578050
C62	C	-0.203371	-1.400928	-0.244716
C63	C	0.129963	-1.067594	0.088617
C64	C	-0.303114	-1.734468	-0.891147
C65	C	0.030219	-1.401135	-0.557814
C66	C	0.363552	-1.067801	-0.224480
C67	C	-0.303085	-1.734507	-1.024547
C68	C	0.030249	-1.401174	-0.691214
C69	C	0.363582	-1.067841	-0.357881
C70	C	-0.569569	-1.811069	-0.501371
C71	C	-0.236236	-1.477735	-0.168037
C72	C	0.097097	-1.144402	0.165296
C73	C	-0.635312	-1.811125	-0.501398
C74	C	-0.301979	-1.477791	-0.168064
C75	C	0.031355	-1.144458	0.165269
C76	C	-0.668187	-1.734352	-0.578091
C77	C	-0.334853	-1.401019	-0.244758
C78	C	-0.001520	-1.067686	0.088576
C79	C	-0.635313	-1.657539	-0.654785
C80	C	-0.301980	-1.324206	-0.321452
C81	C	0.031353	-0.990873	0.011881
C82	C	-0.569572	-1.657494	-0.654765
C83	C	-0.236239	-1.324161	-0.321431
C84	C	0.097095	-0.990827	0.011902
N85	N	-0.771452	-1.629362	-0.587235
N86	N	-0.438119	-1.296029	-0.253902
N87	N	-0.104786	-0.962695	0.079431
N88	N	-0.833904	-1.629409	-0.587248
N89	N	-0.500570	-1.296075	-0.253915
N90	N	-0.167237	-0.962742	0.079419
C91	C	-0.866261	-1.734487	-0.578160
C92	C	-0.532928	-1.401153	-0.244827
C93	C	-0.199595	-1.067820	0.088507
N94	N	-0.833808	-1.839518	-0.569035
N95	N	-0.500475	-1.506185	-0.235702
N96	N	-0.167141	-1.172852	0.097632
N97	N	-0.771351	-1.839470	-0.569016
N98	N	-0.438017	-1.506137	-0.235683
N99	N	-0.104684	-1.172804	0.097650
C100	C	-0.739472	-1.734394	-0.578123
C101	C	-0.406139	-1.401060	-0.244789
C102	C	-0.072805	-1.067727	0.088544
C103	C	-0.970412	-1.811362	-0.501506
C104	C	-0.637079	-1.478028	-0.168173
C105	C	-0.303745	-1.144695	0.165161
C106	C	-1.036156	-1.811420	-0.501541
C107	C	-0.702822	-1.478086	-0.168208
C108	C	-0.369489	-1.144753	0.165125
C109	C	-1.036156	-1.657824	-0.654923
C110	C	-0.702823	-1.324490	-0.321589
C111	C	-0.369489	-0.991157	0.011744
C112	C	-0.970413	-1.657776	-0.654894
C113	C	-0.637080	-1.324443	-0.321560
C114	C	-0.303747	-0.991110	0.011773
C115	C	-0.937546	-1.734543	-0.578179
C116	C	-0.604212	-1.401210	-0.244845
C117	C	-0.270879	-1.067877	0.088488
C118	C	-0.138994	-1.734567	-0.578198
C119	C	0.194339	-1.401233	-0.244864
C120	C	0.527673	-1.067900	0.088469
C121	C	-0.069026	-1.734648	-0.578237
C122	C	0.264307	-1.401315	-0.244904
C123	C	0.597641	-1.067981	0.088430
C124	C	-0.303194	-2.047418	-0.578121
C125	C	0.030139	-1.714085	-0.244787
C126	C	0.363472	-1.380752	0.088546
C127	C	-0.303199	-2.180818	-0.578128
C128	C	0.030135	-1.847485	-0.244794
C129	C	0.363468	-1.514152	0.088539
C130	C	-0.303209	-1.734353	-0.266280
C131	C	0.030125	-1.401020	0.067054
C132	C	0.363458	-1.067687	0.400387
C133	C	-0.303061	-1.734547	-0.132880
C134	C	0.030272	-1.401213	0.200453
C135	C	0.363606	-1.067880	0.533786
H136	H	-0.662076	-1.873675	-0.438956
H137	H	-0.328743	-1.540342	-0.105623
H138	H	0.004591	-1.207008	0.227710
O139	O	-0.670765	-1.574718	-0.737495
O140	O	-0.337432	-1.241385	-0.404161
O141	O	-0.004098	-0.908052	-0.070828
H142	H	-0.722001	-1.587640	-0.724615
H143	H	-0.388668	-1.254307	-0.391281
H144	H	-0.055335	-0.920973	-0.057948
O145	O	-0.534118	-1.893869	-0.418637
O146	O	-0.200785	-1.560536	-0.085304
O147	O	0.132548	-1.227203	0.248030
H148	H	-0.504110	-1.954878	-0.472397
H149	H	-0.170776	-1.621544	-0.139064
H150	H	0.162557	-1.288211	0.194269
H151	H	-0.542813	-1.594947	-0.717208
H152	H	-0.209479	-1.261614	-0.383874
H153	H	0.123854	-0.928280	-0.050541
H154	H	-0.943650	-1.873874	-0.439044
H155	H	-0.610317	-1.540541	-0.105710
H156	H	-0.276983	-1.207207	0.227623
H157	H	-0.943653	-1.595227	-0.717328
H158	H	-0.610319	-1.261894	-0.383995
H159	H	-0.276986	-0.928561	-0.050662
H160	H	-1.062914	-1.873973	-0.439102
H161	H	-0.729580	-1.540640	-0.105769
H162	H	-0.396247	-1.207306	0.227565
H163	H	-1.062922	-1.595319	-0.717374
H164	H	-0.729588	-1.261986	-0.384040
H165	H	-0.396255	-0.928653	-0.050707
