data_functionalizedCrystal
_audit_creation_method	'MofGen! by Chris Wilmer'
_symmetry_space_group_name_H-M	'P1'
_symmetry_Int_Tables_number	1
_symmetry_cell_setting	triclinic
loop_
_symmetry_equiv_pos_as_xyz
  x,y,z
_cell_length_a	14.908571
_cell_length_b	12.645330
_cell_length_c	14.908694
_cell_angle_alpha	93.272100
_cell_angle_beta	83.592472
_cell_angle_gamma	86.714080
loop_
_atom_site_label
_atom_site_type_symbol
_atom_site_fract_x
_atom_site_fract_y
_atom_site_fract_z
Zn1	Zn	1.413365	-0.558110	-0.591537
Zn2	Zn	1.913365	-0.058110	-0.091537
Zn3	Zn	1.404540	-0.724539	-0.440180
Zn4	Zn	1.904540	-0.224539	0.059820
Zn5	Zn	1.253266	-0.536427	-0.431471
Zn6	Zn	1.753266	-0.036427	0.068529
Zn7	Zn	1.261972	-0.724457	-0.582779
Zn8	Zn	1.761972	-0.224457	-0.082779
O9	O	1.333286	-0.635883	-0.511491
O10	O	1.833286	-0.135883	-0.011491
O11	O	1.538861	-0.589296	-0.578769
O12	O	2.038861	-0.089296	-0.078769
O13	O	1.377136	-0.690546	-0.312359
O14	O	1.877136	-0.190546	0.187641
O15	O	1.274553	-0.390961	-0.452724
O16	O	1.774553	0.109039	0.047276
O17	O	1.532378	-0.711571	-0.467568
O18	O	2.032378	-0.211571	0.032432
O19	O	1.392177	-0.406891	-0.570324
O20	O	1.892177	0.093109	-0.070324
O21	O	1.265996	-0.552340	-0.305960
O22	O	1.765996	-0.052340	0.194040
O23	O	1.127753	-0.552261	-0.444232
O24	O	1.627753	-0.052261	0.055768
O25	O	1.289391	-0.711431	-0.710606
O26	O	1.789391	-0.211431	-0.210606
O27	O	1.134150	-0.690406	-0.555397
O28	O	1.634150	-0.190406	-0.055397
O29	O	1.400619	-0.589217	-0.717041
O30	O	1.900619	-0.089217	-0.217041
O31	O	1.385578	-0.872871	-0.459076
O32	O	1.885578	-0.372871	0.040924
O33	O	1.280834	-0.872811	-0.563842
O34	O	1.780834	-0.372811	-0.063842
C35	C	1.098108	-0.618972	-0.497919
C36	C	1.598108	-0.118972	0.002081
C37	C	0.997499	-0.611764	-0.492135
C38	C	1.497499	-0.111764	0.007865
C39	C	0.815145	-0.742270	-0.596865
C40	C	1.315145	-0.242270	-0.096865
C41	C	0.720614	-0.735501	-0.591433
C42	C	1.220614	-0.235501	-0.091433
C43	C	0.713906	-0.591454	-0.475844
C44	C	1.213906	-0.091454	0.024156
C45	C	0.808437	-0.598223	-0.481276
C46	C	1.308437	-0.098223	0.018724
C47	C	0.859053	-0.673634	-0.541788
C48	C	1.359053	-0.173634	-0.041788
C49	C	0.953585	-0.680407	-0.547215
C50	C	1.453585	-0.180407	-0.047215
C51	C	0.946875	-0.536356	-0.431630
C52	C	1.446875	-0.036356	0.068370
C53	C	0.852345	-0.529587	-0.426198
C54	C	1.352345	-0.029587	0.073802
C55	C	1.333219	-0.911308	-0.511475
C56	C	1.833219	-0.411308	-0.011475
C57	C	1.333275	-1.029143	-0.511503
C58	C	1.833275	-0.529143	-0.011503
C59	C	1.267681	-1.196749	-0.577644
C60	C	1.767681	-0.696749	-0.077644
C61	C	1.267312	-1.074148	-0.577398
C62	C	1.767312	-0.574148	-0.077398
C63	C	1.301951	-1.065043	-0.414623
C64	C	1.801951	-0.565043	0.085377
C65	C	1.301551	-1.187642	-0.415025
C66	C	1.801551	-0.687642	0.084975
C67	C	1.430573	-1.204873	-0.541493
C68	C	1.930573	-0.704873	-0.041493
C69	C	1.430106	-1.082373	-0.543545
C70	C	1.930106	-0.582373	-0.043545
C71	C	1.569381	-0.652862	-0.525117
C72	C	2.069381	-0.152862	-0.025117
C73	C	1.669991	-0.660097	-0.530923
C74	C	2.169991	-0.160097	-0.030923
C75	C	1.346960	-0.652733	-0.747585
C76	C	1.846960	-0.152733	-0.247585
C77	C	1.352788	-0.659914	-0.848194
C78	C	1.852788	-0.159914	-0.348194
C79	C	1.333378	-0.359387	-0.511529
C80	C	1.833378	0.140613	-0.011529
C81	C	1.333418	-0.241561	-0.511545
C82	C	1.833418	0.258439	-0.011545
C83	C	1.247986	-0.529494	-1.030586
C84	C	1.747986	-0.029494	-0.530586
C85	C	1.253459	-0.536237	-1.125117
C86	C	1.753459	-0.036237	-0.625117
C87	C	1.369199	-0.680147	-1.131788
C88	C	1.869199	-0.180147	-0.631788
C89	C	1.363727	-0.673404	-1.037257
C90	C	1.863727	-0.173404	-0.537257
C91	C	1.303120	-0.598074	-0.986659
C92	C	1.803120	-0.098074	-0.486659
C93	C	1.297653	-0.591327	-0.892127
C94	C	1.797653	-0.091327	-0.392127
C95	C	1.413388	-0.735241	-0.898800
C96	C	1.913388	-0.235241	-0.398800
C97	C	1.418860	-0.741984	-0.993330
C98	C	1.918860	-0.241984	-0.493330
C99	C	1.319716	-0.619026	-0.276319
C100	C	1.819716	-0.119026	0.223681
C101	C	1.314064	-0.611560	-0.175721
C102	C	1.814064	-0.111560	0.324279
H103	H	0.811120	-0.468187	-0.376933
H104	H	1.311120	0.031813	0.123067
Cl105	Cl	1.482704	-0.821459	-0.843572
Cl106	Cl	1.982704	-0.321459	-0.343572
Cl107	Cl	0.650260	-0.496644	-0.399792
Cl108	Cl	1.150260	0.003356	0.100208
Cl109	Cl	1.002079	-0.450074	-0.362377
Cl110	Cl	1.502079	0.049926	0.137623
Cl111	Cl	1.156279	-1.019342	-0.546098
Cl112	Cl	1.656279	-0.519342	-0.046098
Cl113	Cl	1.171806	-0.434787	-0.966975
Cl114	Cl	1.671806	0.065213	-0.466975
H115	H	1.208564	-0.480392	-1.160878
H116	H	1.708564	0.019608	-0.660878
Cl117	Cl	1.466427	-1.047300	-0.653666
Cl118	Cl	1.966427	-0.547300	-0.153666
Cl119	Cl	1.298548	-1.037209	-0.688041
Cl120	Cl	1.798548	-0.537209	-0.188041
Cl121	Cl	1.193138	-1.007779	-0.375930
Cl122	Cl	1.693138	-0.507779	0.124070
Cl123	Cl	1.495045	-0.836682	-1.056947
Cl124	Cl	1.995045	-0.336682	-0.556947
Cl125	Cl	1.510392	-1.035873	-0.475311
Cl126	Cl	2.010392	-0.535873	0.024689
H127	H	0.856357	-0.803678	-0.646132
H128	H	1.356357	-0.303678	-0.146132
H129	H	1.479616	-1.233933	-0.493417
H130	H	1.979616	-0.733933	0.006583
H131	H	1.287781	-1.232399	-0.649530
H132	H	1.787781	-0.732399	-0.149530
H133	H	1.418531	-0.741490	-1.173000
H134	H	1.918531	-0.241490	-0.673000
H135	H	0.994795	-0.741813	-0.596485
H136	H	1.494795	-0.241813	-0.096485
H137	H	0.684868	-0.791390	-0.636285
H138	H	1.184868	-0.291390	-0.136285
H139	H	1.248306	-0.529986	-0.850932
H140	H	1.748306	-0.029986	-0.350932
Cl141	Cl	1.157355	-1.234891	-0.546720
Cl142	Cl	1.657355	-0.734891	-0.046720
Cl143	Cl	1.191647	-1.221892	-0.376847
Cl144	Cl	1.691647	-0.721892	0.123153
Cl145	Cl	1.473030	-1.262672	-0.649158
Cl146	Cl	1.973030	-0.762672	-0.149158
Cl147	Cl	1.371793	-1.232845	-0.335931
Cl148	Cl	1.871793	-0.732845	0.164069
Cl149	Cl	1.373152	-1.019543	-0.336132
Cl150	Cl	1.873152	-0.519543	0.163868
