data_functionalizedCrystal
_audit_creation_method	'MofGen! by Chris Wilmer'
_symmetry_space_group_name_H-M	'P1'
_symmetry_Int_Tables_number	1
_symmetry_cell_setting	triclinic
loop_
_symmetry_equiv_pos_as_xyz
  x,y,z
_cell_length_a	10.489763
_cell_length_b	12.996460
_cell_length_c	14.519709
_cell_angle_alpha	89.998766
_cell_angle_beta	84.114253
_cell_angle_gamma	89.995654
loop_
_atom_site_label
_atom_site_type_symbol
_atom_site_fract_x
_atom_site_fract_y
_atom_site_fract_z
O1	O	-1.692684	0.085525	-0.130207
O2	O	-1.359351	0.418858	0.203127
O3	O	-1.026017	0.752191	0.536460
O4	O	-1.321365	0.085537	-0.142398
O5	O	-0.988031	0.418870	0.190935
O6	O	-0.654698	0.752203	0.524268
O7	O	-1.516869	0.085521	-0.002118
O8	O	-1.183536	0.418854	0.331215
O9	O	-0.850203	0.752188	0.664548
O10	O	-1.497179	0.085540	-0.270487
O11	O	-1.163846	0.418874	0.062847
O12	O	-0.830513	0.752207	0.396180
O13	O	-1.516844	-0.085613	-0.002126
O14	O	-1.183511	0.247721	0.331207
O15	O	-0.850178	0.581054	0.664540
O16	O	-1.321340	-0.085597	-0.142406
O17	O	-0.988006	0.247736	0.190927
O18	O	-0.654673	0.581070	0.524260
O19	O	-1.692659	-0.085609	-0.130215
O20	O	-1.359325	0.247724	0.203119
O21	O	-1.025992	0.581057	0.536452
Cu22	Cu	-1.506997	-0.101229	-0.136311
Cu23	Cu	-1.173664	0.232104	0.197022
Cu24	Cu	-0.840330	0.565438	0.530355
Cu25	Cu	-1.507027	0.101157	-0.136302
Cu26	Cu	-1.173693	0.434490	0.197031
Cu27	Cu	-0.840360	0.767823	0.530365
O28	O	-1.497154	-0.085594	-0.270495
O29	O	-1.163821	0.247740	0.062838
O30	O	-0.830488	0.581073	0.396172
C31	C	-1.273831	-0.000029	-0.141477
C32	C	-0.940497	0.333305	0.191856
C33	C	-0.607164	0.666638	0.525189
C34	C	-1.132231	-0.000024	-0.138709
C35	C	-0.798898	0.333309	0.194624
C36	C	-0.465565	0.666642	0.527957
N37	N	-1.506985	-0.243576	-0.136318
N38	N	-1.173652	0.089757	0.197016
N39	N	-0.840319	0.423091	0.530349
C40	C	-1.506991	-0.336682	-0.136320
C41	C	-1.173658	-0.003349	0.197013
C42	C	-0.840324	0.329985	0.530347
C43	C	-1.507003	-0.453487	-0.136314
C44	C	-1.173669	-0.120154	0.197020
C45	C	-0.840336	0.213179	0.530353
C46	C	-1.507019	-0.546586	-0.136304
C47	C	-1.173685	-0.213252	0.197030
C48	C	-0.840352	0.120081	0.530363
C49	C	-1.507032	-0.663398	-0.136299
C50	C	-1.173699	-0.330065	0.197035
C51	C	-0.840366	0.003269	0.530368
C52	C	-1.065023	-0.000041	-0.049442
C53	C	-0.731689	0.333292	0.283891
C54	C	-0.398356	0.666625	0.617225
C55	C	-0.972470	0.084336	-0.091600
C56	C	-0.639136	0.417670	0.241734
C57	C	-0.305803	0.751003	0.575067
C58	C	-0.972478	-0.084388	-0.091629
C59	C	-0.639145	0.248945	0.241704
C60	C	-0.305812	0.582279	0.575038
C61	C	-1.041543	0.084423	-0.180904
C62	C	-0.708210	0.417756	0.152430
C63	C	-0.374877	0.751090	0.485763
C64	C	-1.041562	-0.084377	-0.180921
C65	C	-0.708229	0.248956	0.152413
C66	C	-0.374895	0.582289	0.485746
C67	C	-0.949036	0.000021	-0.223143
C68	C	-0.615703	0.333354	0.110190
C69	C	-0.282369	0.666688	0.443524
C70	C	-0.740196	-0.000044	-0.131121
C71	C	-0.406862	0.333289	0.202212
C72	C	-0.073529	0.666622	0.535545
C73	C	-0.881803	-0.000050	-0.133846
C74	C	-0.548469	0.333283	0.199488
C75	C	-0.215136	0.666616	0.532821
C76	C	-1.515939	-0.000046	0.032242
C77	C	-1.182606	0.333287	0.365576
C78	C	-0.849272	0.666621	0.698909
C79	C	-1.513189	-0.000046	0.134639
C80	C	-1.179856	0.333287	0.467972
C81	C	-0.846523	0.666620	0.801306
N82	N	-1.507048	0.243504	-0.136288
N83	N	-1.173715	0.576837	0.197045
N84	N	-0.840382	0.910170	0.530378
C85	C	-1.498084	-0.000024	-0.304856
C86	C	-1.164751	0.333309	0.028478
C87	C	-0.831418	0.666642	0.361811
C88	C	-1.500834	-0.000017	-0.407252
C89	C	-1.167501	0.333316	-0.073919
C90	C	-0.834168	0.666650	0.259415
C91	C	-1.503066	-0.000019	0.509590
C92	C	-1.169733	0.333314	0.842924
C93	C	-0.836399	0.666647	1.176257
C94	C	-1.505877	-0.000027	0.405267
C95	C	-1.172544	0.333306	0.738600
C96	C	-0.839211	0.666639	1.071934
C97	C	-1.508127	-0.000034	0.322118
C98	C	-1.174794	0.333299	0.655451
C99	C	-0.841461	0.666633	0.988785
C100	C	-1.510939	-0.000040	0.217788
C101	C	-1.177606	0.333294	0.551121
C102	C	-0.844273	0.666627	0.884455
H103	H	-1.115477	0.000059	0.023935
H104	H	-0.782143	0.333393	0.357269
H105	H	-0.448810	0.666726	0.690602
H106	H	-1.072204	-0.155712	-0.218664
H107	H	-0.738871	0.177621	0.114669
H108	H	-0.405537	0.510954	0.448003
F109	F	-0.932462	0.177574	-0.042229
F110	F	-0.599129	0.510908	0.291105
F111	F	-0.265795	0.844241	0.624438
F112	F	-1.081332	0.177771	-0.230231
F113	F	-0.747998	0.511104	0.103103
F114	F	-0.414665	0.844438	0.436436
F115	F	-0.883431	0.000085	-0.319152
F116	F	-0.550097	0.333418	0.014181
F117	F	-0.216764	0.666751	0.347514
F118	F	-0.932491	-0.177632	-0.042245
F119	F	-0.599158	0.155702	0.291088
F120	F	-0.265825	0.489035	0.624421
