data_functionalizedCrystal
_audit_creation_method	'MofGen! by Chris Wilmer'
_symmetry_space_group_name_H-M	'P1'
_symmetry_Int_Tables_number	1
_symmetry_cell_setting	triclinic
loop_
_symmetry_equiv_pos_as_xyz
  x,y,z
_cell_length_a	25.639239
_cell_length_b	25.639242
_cell_length_c	25.639233
_cell_angle_alpha	89.976404
_cell_angle_beta	90.018747
_cell_angle_gamma	89.966288
loop_
_atom_site_label
_atom_site_type_symbol
_atom_site_fract_x
_atom_site_fract_y
_atom_site_fract_z
Zn1	Zn	-0.208284	-0.799225	0.295762
Zn2	Zn	-0.295703	-0.799149	0.208327
Zn3	Zn	-0.208275	-0.711801	0.208324
Zn4	Zn	-0.295682	-0.711746	0.295714
O5	O	-0.251986	-0.755480	0.252032
O6	O	-0.219892	-0.872380	0.284185
O7	O	-0.284110	-0.787553	0.135161
O8	O	-0.135111	-0.723453	0.219942
O9	O	-0.284118	-0.872324	0.219946
O10	O	-0.135117	-0.787683	0.284182
O11	O	-0.219878	-0.723379	0.135159
O12	O	-0.219858	-0.638629	0.219895
O13	O	-0.284084	-0.723360	0.368886
O14	O	-0.284076	-0.638589	0.284101
O15	O	-0.219872	-0.787630	0.368921
O16	O	-0.368865	-0.787499	0.219900
O17	O	-0.368850	-0.723286	0.284103
C18	C	-0.251964	-0.619638	0.251993
C19	C	-0.251967	-0.561524	0.251989
C20	C	-0.285475	-0.201149	0.285418
C21	C	-0.285478	-0.146544	0.285425
O22	O	-0.313944	-0.118297	0.313824
N23	N	-0.251995	-0.119241	0.252050
C24	C	-0.218503	-0.146545	0.218670
O25	O	-0.190023	-0.118308	0.190283
C26	C	-0.218498	-0.201149	0.218666
C27	C	-0.251987	-0.228449	0.252039
C28	C	-0.318961	-0.228449	0.318789
C29	C	-0.318959	-0.283049	0.318781
C30	C	-0.285471	-0.310350	0.285402
C31	C	-0.251985	-0.283049	0.252032
C32	C	-0.185004	-0.228452	0.185289
C33	C	-0.185002	-0.283059	0.185288
C34	C	-0.218491	-0.310359	0.218661
C35	C	-0.218495	-0.364950	0.218645
N36	N	-0.251978	-0.392253	0.252020
C37	C	-0.285466	-0.364953	0.285399
C38	C	-0.218516	-0.031875	0.218681
C39	C	-0.218523	0.022728	0.218682
C40	C	-0.285497	0.022725	0.285438
C41	C	-0.285492	-0.031878	0.285434
C42	C	-0.251999	-0.059178	0.252056
C43	C	-0.285459	-0.479618	0.285380
C44	C	-0.285455	-0.534223	0.285367
C45	C	-0.218480	-0.534216	0.218614
C46	C	-0.218485	-0.479615	0.218624
C47	C	-0.251976	-0.452318	0.252011
O48	O	-0.190042	-0.393232	0.190262
O49	O	-0.313936	-0.393197	0.313786
C50	C	-0.387829	-0.755392	0.252008
C51	C	-0.445943	-0.755403	0.252015
C52	C	-0.806301	-0.789004	0.218658
C53	C	-0.860905	-0.789024	0.218665
O54	O	-0.889138	-0.817502	0.190277
N55	N	-0.888225	-0.755572	0.252066
C56	C	-0.860938	-0.722102	0.285467
O57	O	-0.889190	-0.693651	0.313878
C58	C	-0.806335	-0.722085	0.285462
C59	C	-0.779017	-0.755535	0.252055
C60	C	-0.778984	-0.822452	0.185254
C61	C	-0.724383	-0.822431	0.185246
C62	C	-0.697100	-0.788962	0.218643
C63	C	-0.724417	-0.755514	0.252047
C64	C	-0.779048	-0.688617	0.318865
C65	C	-0.724441	-0.688603	0.318857
C66	C	-0.697124	-0.722053	0.285450
C67	C	-0.642533	-0.722024	0.285436
N68	N	-0.615213	-0.755475	0.252035
C69	C	-0.642496	-0.788944	0.218638
C70	C	-0.975608	-0.722141	0.285475
C71	C	-1.030211	-0.722155	0.285477
C72	C	-1.030174	-0.789078	0.218676
C73	C	-0.975571	-0.789061	0.218671
C74	C	-0.948289	-0.755593	0.252073
C75	C	-0.527831	-0.788897	0.218625
C76	C	-0.473226	-0.788872	0.218618
C77	C	-0.473267	-0.721951	0.285421
C78	C	-0.527868	-0.721974	0.285426
C79	C	-0.555149	-0.755452	0.252026
O80	O	-0.614266	-0.693562	0.313811
O81	O	-0.614238	-0.817396	0.190236
C82	C	-0.115613	-0.755583	0.252067
C83	C	-0.057499	-0.755627	0.252082
C84	C	-0.251977	-0.755497	0.388405
C85	C	-0.251973	-0.755504	0.446519
C86	C	-0.252006	0.108147	0.252065
C87	C	-0.252009	0.050033	0.252063
C88	C	-0.251957	-0.755494	0.116189
C89	C	-0.251814	-0.755588	0.058076
C90	C	-0.218439	-0.789012	0.806906
C91	C	-0.218424	-0.789019	0.861510
O92	O	-0.189974	-0.817466	0.889768
N93	N	-0.251850	-0.755562	0.888802
C94	C	-0.285289	-0.722093	0.861486
O95	O	-0.313719	-0.693636	0.889713
C96	C	-0.285301	-0.722084	0.806882
C97	C	-0.251876	-0.755547	0.779594
C98	C	-0.185016	-0.822472	0.779618
C99	C	-0.185032	-0.822466	0.725017
C100	C	-0.218469	-0.789000	0.697705
C101	C	-0.251892	-0.755541	0.724993
C102	C	-0.318737	-0.688613	0.779567
C103	C	-0.318745	-0.688607	0.724960
C104	C	-0.285320	-0.722069	0.697672
C105	C	-0.285344	-0.722070	0.643081
N106	N	-0.251918	-0.755526	0.615789
C107	C	-0.218481	-0.788992	0.643102
C108	C	-0.285262	-0.722113	0.976156
C109	C	-0.285254	-0.722124	1.030759
C110	C	-0.218388	-0.789049	1.030780
C111	C	-0.218399	-0.789041	0.976176
C112	C	-0.251836	-0.755570	0.948865
C113	C	-0.218516	-0.788977	0.528436
C114	C	-0.218535	-0.788970	0.473831
C115	C	-0.285399	-0.722043	0.473815
C116	C	-0.285382	-0.722052	0.528415
C117	C	-0.251936	-0.755521	0.555725
O118	O	-0.313779	-0.693635	0.614789
O119	O	-0.190051	-0.817439	0.614868
H120	H	-0.191216	-0.556454	0.191436
C121	C	-0.443662	-0.825249	0.182327
C122	C	-0.479248	-0.854574	0.153093
C123	C	-0.452035	-0.888095	0.119663
H124	H	-0.422390	-0.805316	0.159474
H125	H	-0.422342	-0.848037	0.202337
H126	H	-0.500559	-0.831789	0.133084
H127	H	-0.500521	-0.874518	0.175933
H128	H	-0.430714	-0.910883	0.139674
H129	H	-0.430763	-0.868157	0.096813
H130	H	-0.476175	-0.907999	0.099828
C131	C	-0.148794	-0.858838	0.809334
C132	C	-0.178393	-0.892327	0.840696
C133	C	-0.145043	-0.925835	0.868079
H134	H	-0.128880	-0.878811	0.785316
H135	H	-0.126011	-0.838876	0.830662
H136	H	-0.201168	-0.912288	0.819369
H137	H	-0.198306	-0.872369	0.864723
H138	H	-0.122260	-0.905872	0.889407
H139	H	-0.125131	-0.945804	0.844057
H140	H	-0.165121	-0.948557	0.889365
C141	C	-0.355334	-0.312591	0.355077
C142	C	-0.384648	-0.276986	0.384317
C143	C	-0.418157	-0.304176	0.417767
H144	H	-0.378134	-0.333872	0.335097
H145	H	-0.335378	-0.333901	0.377922
H146	H	-0.404603	-0.255685	0.361475
H147	H	-0.361862	-0.255703	0.404308
H148	H	-0.398201	-0.325486	0.440612
H149	H	-0.440954	-0.325457	0.397782
H150	H	-0.438047	-0.280023	0.437613
H151	H	-0.312728	-0.556449	0.312544
H152	H	-0.345955	-0.661364	0.801776
C153	C	-0.321854	-0.449921	0.321542
C154	C	-0.355317	-0.418530	0.291885
C155	C	-0.388848	-0.391161	0.325177
H156	H	-0.341843	-0.473947	0.341424
H157	H	-0.301907	-0.428613	0.344358
H158	H	-0.375262	-0.439836	0.269078
H159	H	-0.335342	-0.394493	0.272004
H160	H	-0.368901	-0.369853	0.347993
H161	H	-0.408834	-0.415191	0.345057
H162	H	-0.411554	-0.369856	0.305060
C163	C	-0.808792	-0.652324	0.355085
C164	C	-0.862453	-0.659488	0.347944
C165	C	-0.889868	-0.626059	0.381301
H166	H	-0.799877	-0.659924	0.390240
H167	H	-0.799908	-0.617184	0.347395
H168	H	-0.871333	-0.694620	0.355639
H169	H	-0.871384	-0.651884	0.312797
H170	H	-0.880984	-0.590919	0.373610
H171	H	-0.880948	-0.633662	0.416454
H172	H	-0.926280	-0.630912	0.376457
C173	C	-0.182293	-0.825275	0.444110
C174	C	-0.189466	-0.818117	0.390444
C175	C	-0.156091	-0.851552	0.363051
H176	H	-0.147141	-0.817676	0.453000
H177	H	-0.189947	-0.860413	0.453037
H178	H	-0.181808	-0.782987	0.381521
H179	H	-0.224611	-0.825719	0.381539
H180	H	-0.163745	-0.886690	0.371978
H181	H	-0.120941	-0.843950	0.371946
H182	H	-0.160957	-0.846703	0.326636
H183	H	-0.953398	-0.694883	0.312673
H184	H	-0.312761	-0.054103	0.312610
C185	C	-0.321587	-0.685691	0.558110
C186	C	-0.291965	-0.652212	0.589453
C187	C	-0.325296	-0.618708	0.616815
H188	H	-0.341515	-0.665711	0.534080
H189	H	-0.344359	-0.705656	0.579450
H190	H	-0.269203	-0.632248	0.568115
H191	H	-0.272039	-0.672177	0.613493
H192	H	-0.348068	-0.638673	0.638155
H193	H	-0.345222	-0.598732	0.592781
H194	H	-0.305203	-0.595991	0.638088
H195	H	-0.702231	-0.661350	0.346059
C196	C	-0.443703	-0.685651	0.321768
C197	C	-0.456960	-0.697004	0.373511
C198	C	-0.429738	-0.663576	0.407012
H199	H	-0.407264	-0.690403	0.317048
H200	H	-0.452692	-0.650517	0.314118
H201	H	-0.447967	-0.732129	0.381158
H202	H	-0.493394	-0.692248	0.378247
H203	H	-0.438728	-0.628442	0.399362
H204	H	-0.393301	-0.668331	0.402287
H205	H	-0.438733	-0.671271	0.442122
H206	H	-0.191279	-0.816229	0.550665
C207	C	-0.808607	-0.858893	0.149096
C208	C	-0.839879	-0.892408	0.178758
C209	C	-0.867157	-0.926004	0.145472
H210	H	-0.829990	-0.839012	0.126264
H211	H	-0.784510	-0.878837	0.129233
H212	H	-0.863973	-0.872466	0.198613
H213	H	-0.818509	-0.912299	0.201589
H214	H	-0.843060	-0.945948	0.125608
H215	H	-0.888537	-0.906120	0.122641
H216	H	-0.888374	-0.948751	0.165593
H217	H	-0.191181	-0.816288	0.953962
H218	H	-0.953333	-0.816300	0.191469
C219	C	-1.059894	-0.685770	0.321658
C220	C	-1.091278	-0.652278	0.292024
C221	C	-1.118622	-0.618750	0.325339
H222	H	-1.081207	-0.705700	0.344476
H223	H	-1.035837	-0.665805	0.341536
H224	H	-1.115332	-0.672241	0.272155
H225	H	-1.069978	-0.632336	0.269208
H226	H	-1.094565	-0.598785	0.345217
H227	H	-1.139932	-0.638685	0.348155
H228	H	-1.139916	-0.596019	0.305238
H229	H	-0.550111	-0.694738	0.312630
C230	C	-0.355115	-0.652254	0.695403
C231	C	-0.384392	-0.622966	0.730993
C232	C	-0.417910	-0.589482	0.703785
H233	H	-0.335181	-0.629437	0.674091
H234	H	-0.377932	-0.672228	0.674122
H235	H	-0.361577	-0.602994	0.752265
H236	H	-0.404336	-0.645769	0.752306
H237	H	-0.440727	-0.609456	0.682504
H238	H	-0.397972	-0.566668	0.682474
H239	H	-0.437782	-0.569610	0.727929
H240	H	-0.191217	-0.457387	0.191448
C241	C	-0.148679	-0.858812	0.695489
C242	C	-0.119386	-0.888106	0.731104
C243	C	-0.085884	-0.921589	0.703925
H244	H	-0.168624	-0.881626	0.674189
H245	H	-0.125870	-0.838837	0.674198
H246	H	-0.142192	-0.908080	0.752386
H247	H	-0.099430	-0.865307	0.752404
H248	H	-0.063075	-0.901614	0.682634
H249	H	-0.105833	-0.944399	0.682627
H250	H	-0.066001	-0.941465	0.728086
H251	H	-0.312625	-0.694798	0.451567
H252	H	-0.312477	-0.694881	1.052972
C253	C	-0.355238	-0.198787	0.355095
C254	C	-0.325696	-0.167479	0.388679
C255	C	-0.359102	-0.140157	0.422135
H256	H	-0.378004	-0.177424	0.335117
H257	H	-0.375168	-0.222857	0.374997
H258	H	-0.305775	-0.143411	0.368780
H259	H	-0.302931	-0.188828	0.408669
H260	H	-0.379031	-0.164227	0.442036
H261	H	-0.381866	-0.118797	0.402152
H262	H	-0.339062	-0.118915	0.444928
C263	C	-0.557467	-0.825316	0.182452
C264	C	-0.588753	-0.858833	0.212097
C265	C	-0.616053	-0.892394	0.178793
H266	H	-0.578843	-0.805410	0.159635
H267	H	-0.533383	-0.845260	0.162572
H268	H	-0.612834	-0.838891	0.231968
H269	H	-0.567391	-0.878750	0.234913
H270	H	-0.591969	-0.912338	0.158914
H271	H	-0.637426	-0.872484	0.155978
H272	H	-0.637280	-0.915142	0.198903
H273	H	-0.191160	-0.816298	1.053027
C274	C	-0.694823	-0.858813	0.148961
C275	C	-0.730413	-0.888135	0.119731
C276	C	-0.703206	-0.921665	0.086306
H277	H	-0.673547	-0.838886	0.126106
H278	H	-0.673507	-0.881602	0.168975
H279	H	-0.751721	-0.865349	0.099719
H280	H	-0.751691	-0.908072	0.142574
H281	H	-0.681889	-0.944454	0.106320
H282	H	-0.681931	-0.901734	0.063454
H283	H	-0.727349	-0.941568	0.066473
H284	H	-0.191258	0.044951	0.191501
C285	C	-0.321488	-0.685712	0.946480
C286	C	-0.291893	-0.652203	0.915136
C287	C	-0.325246	-0.618660	0.887800
H288	H	-0.344289	-0.705631	0.925141
H289	H	-0.341383	-0.665761	0.970542
H290	H	-0.272008	-0.672152	0.891076
H291	H	-0.269094	-0.632273	0.936462
H292	H	-0.345141	-0.598708	0.911862
H293	H	-0.348045	-0.638583	0.866463
H294	H	-0.305171	-0.595917	0.866533
H295	H	-0.191242	-0.054099	0.191497
C296	C	-0.321796	0.052466	0.321663
C297	C	-0.314617	0.106127	0.314531
C298	C	-0.348039	0.133542	0.347895
H299	H	-0.356936	0.043607	0.313984
H300	H	-0.314188	0.043527	0.356817
H301	H	-0.322229	0.115063	0.279385
H302	H	-0.279483	0.115002	0.322214
H303	H	-0.340431	0.124603	0.383049
H304	H	-0.383178	0.124679	0.340213
H305	H	-0.343170	0.169954	0.343064
H306	H	-1.052398	-0.816333	0.191485
C307	C	-0.148583	-0.198916	0.149038
C308	C	-0.119247	-0.234522	0.119823
C309	C	-0.085682	-0.207333	0.086427
H310	H	-0.168485	-0.177589	0.126171
H311	H	-0.125804	-0.177651	0.169072
H312	H	-0.142023	-0.255778	0.099790
H313	H	-0.099335	-0.255849	0.142676
H314	H	-0.062903	-0.186068	0.106461
H315	H	-0.105588	-0.186008	0.063564
H316	H	-0.065770	-0.231488	0.066604
H317	H	-0.157724	-0.305283	0.158110
