data_functionalizedCrystal
_audit_creation_method	'MofGen! by Chris Wilmer'
_symmetry_space_group_name_H-M	'P1'
_symmetry_Int_Tables_number	1
_symmetry_cell_setting	triclinic
loop_
_symmetry_equiv_pos_as_xyz
  x,y,z
_cell_length_a	14.044191
_cell_length_b	14.044220
_cell_length_c	14.048226
_cell_angle_alpha	89.992807
_cell_angle_beta	89.996146
_cell_angle_gamma	93.190327
loop_
_atom_site_label
_atom_site_type_symbol
_atom_site_fract_x
_atom_site_fract_y
_atom_site_fract_z
O1	O	1.277175	0.230202	-0.079119
O2	O	1.000503	0.221889	-0.079131
O3	O	1.134686	0.087710	-0.079116
O4	O	1.142992	0.364382	-0.079134
O5	O	1.134668	0.087700	0.079206
O6	O	1.000484	0.221879	0.079191
O7	O	1.277157	0.230192	0.079202
Zn8	Zn	1.138818	0.226034	0.104333
Zn9	Zn	1.138842	0.226047	-0.104262
O10	O	1.142973	0.364372	0.079187
C11	C	0.964872	0.218248	0.000029
C12	C	0.858728	0.207401	0.000024
C13	C	0.613270	0.264501	0.000030
C14	C	0.664395	0.187585	0.000033
C15	C	0.772532	0.198613	0.000028
C16	C	0.505123	0.253474	0.000035
C17	C	1.131041	0.052083	0.000045
C18	C	1.120197	-0.054060	0.000046
C19	C	1.100370	-0.248398	0.000032
C20	C	1.177285	-0.299526	0.000032
C21	C	1.166253	-0.407663	0.000024
C22	C	1.111400	-0.140252	0.000040
C23	C	1.312788	0.233834	0.000041
C24	C	1.418931	0.244681	0.000039
C25	C	1.146618	0.399998	0.000024
C26	C	1.157463	0.506142	0.000017
N27	N	1.138808	0.226025	0.246694
N28	N	1.138858	0.226050	-0.246622
C29	C	1.198247	0.166639	0.296519
C30	C	1.198254	0.166639	0.396177
C31	C	1.138825	0.226031	0.446008
C32	C	1.079379	0.285419	0.396176
C33	C	1.079369	0.285414	0.296520
C34	C	1.079408	0.285429	0.603890
C35	C	1.079419	0.285436	0.703553
C36	C	1.198292	0.166654	0.703547
C37	C	1.198282	0.166648	0.603891
C38	C	1.138837	0.226038	0.554066
H39	H	1.251419	-0.262085	-0.000029
Cl40	Cl	0.671077	0.378949	0.000011
H41	H	1.031026	0.333798	0.744120
Cl42	Cl	0.985920	-0.306201	0.000022
H43	H	1.246645	0.118279	0.255953
Cl44	Cl	0.606590	0.073129	0.000040
H45	H	1.246652	0.118281	0.436743
H46	H	1.246677	0.118292	0.563319
H47	H	1.246694	0.118296	0.744120
Cl48	Cl	1.004672	0.360090	0.541257
Cl49	Cl	1.004663	0.360080	0.458818
H50	H	1.030966	0.333771	0.255954
