data_functionalizedCrystal
_audit_creation_method	'MofGen! by Chris Wilmer'
_symmetry_space_group_name_H-M	'P1'
_symmetry_Int_Tables_number	1
_symmetry_cell_setting	triclinic
loop_
_symmetry_equiv_pos_as_xyz
  x,y,z
_cell_length_a	12.827893
_cell_length_b	12.827892
_cell_length_c	10.685880
_cell_angle_alpha	94.339766
_cell_angle_beta	85.605454
_cell_angle_gamma	90.015552
loop_
_atom_site_label
_atom_site_type_symbol
_atom_site_fract_x
_atom_site_fract_y
_atom_site_fract_z
Zn1	Zn	1.642996	-0.461246	-0.713432
Zn2	Zn	2.142996	0.038754	-0.213432
Zn3	Zn	1.629485	-0.622636	-0.502438
Zn4	Zn	2.129485	-0.122636	-0.002438
Zn5	Zn	1.454834	-0.447911	-0.502454
Zn6	Zn	1.954834	0.052089	-0.002454
Zn7	Zn	1.468220	-0.635943	-0.713383
Zn8	Zn	1.968220	-0.135943	-0.213383
O9	O	1.548884	-0.541934	-0.607927
O10	O	2.048884	-0.041934	-0.107927
O11	O	1.787441	-0.482666	-0.685456
O12	O	2.287441	0.017334	-0.185456
O13	O	1.595061	-0.588308	-0.325864
O14	O	2.095061	-0.088308	0.174136
O15	O	1.479846	-0.303445	-0.530468
O16	O	1.979846	0.196555	-0.030468
O17	O	1.777514	-0.601239	-0.530440
O18	O	2.277514	-0.101239	-0.030440
O19	O	1.618088	-0.313243	-0.685472
O20	O	2.118088	0.186757	-0.185472
O21	O	1.466745	-0.459938	-0.325876
O22	O	1.966745	0.040062	0.174124
O23	O	1.310373	-0.472842	-0.530421
O24	O	1.810373	0.027158	-0.030421
O25	O	1.502661	-0.623919	-0.889965
O26	O	2.002661	-0.123919	-0.389965
O27	O	1.320207	-0.610989	-0.685389
O28	O	1.820207	-0.110989	-0.185389
O29	O	1.631069	-0.495570	-0.890001
O30	O	2.131069	0.004430	-0.390001
O31	O	1.608041	-0.770635	-0.530393
O32	O	2.108041	-0.270635	-0.030393
O33	O	1.489560	-0.780412	-0.685373
O34	O	1.989560	-0.280412	-0.185373
C35	C	1.277372	-0.541913	-0.607903
C36	C	1.777372	-0.041913	-0.107903
C37	C	1.161221	-0.541931	-0.607922
C38	C	1.661221	-0.041931	-0.107922
C39	C	1.548817	-0.813442	-0.607903
C40	C	2.048817	-0.313442	-0.107903
C41	C	1.548887	-0.929598	-0.607935
C42	C	2.048887	-0.429598	-0.107935
C43	C	1.114355	-0.483378	-0.684749
C44	C	1.614355	0.016622	-0.184749
C45	C	0.994306	-0.483396	-0.684771
C46	C	1.494306	0.016604	-0.184771
C47	C	1.617270	-0.986151	-0.684705
C48	C	2.117270	-0.486151	-0.184705
C49	C	1.617343	-1.106204	-0.684740
C50	C	2.117343	-0.606204	-0.184740
C51	C	1.821456	-0.541956	-0.607951
C52	C	2.321456	-0.041956	-0.107951
C53	C	1.937609	-0.541965	-0.607962
C54	C	2.437609	-0.041965	-0.107962
C55	C	1.569865	-0.562717	-0.937048
C56	C	2.069865	-0.062717	-0.437048
C57	C	1.578806	-0.571573	-1.077299
C58	C	2.078806	-0.071573	-0.577299
C59	C	1.548981	-0.269367	-0.607978
C60	C	2.048981	0.230633	-0.107978
C61	C	1.549023	-0.153215	-0.607999
C62	C	2.049023	0.346785	-0.107999
C63	C	1.528044	-0.521157	-0.280086
C64	C	2.028044	-0.021157	0.219914
C65	C	1.519306	-0.512006	-0.139835
C66	C	2.019306	-0.012006	0.360165
H67	H	0.953985	-0.433270	-0.750549
H68	H	1.453985	0.066730	-0.250549
H69	H	1.490392	-0.970058	-0.542242
H70	H	1.990392	-0.470058	-0.042242
O71	O	1.450304	-0.443216	-1.075573
O72	O	1.950304	0.056784	-0.575573
C73	C	1.377963	-0.497952	-0.999352
C74	C	1.877963	0.002048	-0.499352
H75	H	1.413554	-0.575925	-0.979722
H76	H	1.913554	-0.075925	-0.479722
H77	H	1.303715	-0.512592	-1.050065
H78	H	1.803715	-0.012592	-0.550065
C79	C	1.307449	-0.336872	-0.898212
C80	C	1.807449	0.163128	-0.398212
C81	C	1.351166	-0.432636	-0.874093
C82	C	1.851166	0.067364	-0.374093
H83	H	1.290915	-0.296581	-0.820948
H84	H	1.790915	0.203419	-0.320948
H85	H	1.356183	-0.299994	-0.949566
H86	H	1.856183	0.200006	-0.449566
H87	H	1.245581	-0.349086	-0.940476
H88	H	1.745581	0.150914	-0.440476
H89	H	1.413040	-0.420421	-0.831845
H90	H	1.913040	0.079579	-0.331845
H91	H	1.302442	-0.469510	-0.822728
H92	H	1.802442	0.030490	-0.322728
O93	O	1.687048	-1.164252	-0.763290
O94	O	2.187048	-0.664252	-0.263290
C95	C	1.632661	-1.232571	-0.844647
C96	C	2.132661	-0.732571	-0.344647
H97	H	1.550854	-1.200168	-0.852378
H98	H	2.050854	-0.700168	-0.352378
H99	H	1.626569	-1.312797	-0.805559
H100	H	2.126569	-0.812797	-0.305559
C101	C	1.792464	-1.282395	-0.966383
C102	C	2.292464	-0.782395	-0.466383
C103	C	1.691991	-1.242593	-0.975886
C104	C	2.191991	-0.742593	-0.475886
H105	H	1.829062	-1.288582	-1.047336
H106	H	2.329062	-0.788582	-0.547336
H107	H	1.829107	-1.236371	-0.911568
H108	H	2.329107	-0.736371	-0.411568
H109	H	1.787373	-1.349246	-0.933804
H110	H	2.287373	-0.849246	-0.433804
H111	H	1.697083	-1.175738	-1.008448
H112	H	2.197083	-0.675738	-0.508448
H113	H	1.655350	-1.288607	-1.030709
H114	H	2.155350	-0.788607	-0.530709
H115	H	1.112468	-0.592071	-0.542162
H116	H	1.612468	-0.092071	-0.042162
H117	H	0.977925	-0.592103	-0.542192
H118	H	1.477925	-0.092103	-0.042192
H119	H	1.490478	-1.104606	-0.542265
H120	H	1.990478	-0.604606	-0.042265
O121	O	1.687011	-0.937724	-0.762970
O122	O	2.187011	-0.437724	-0.262970
C123	C	1.671399	-0.828639	-0.745527
C124	C	2.171399	-0.328639	-0.245527
H125	H	1.631005	-0.807746	-0.648091
H126	H	2.131005	-0.307746	-0.148091
H127	H	1.620418	-0.802408	-0.820271
H128	H	2.120418	-0.302408	-0.320271
C129	C	1.827393	-0.798800	-0.876797
C130	C	2.327393	-0.298800	-0.376797
C131	C	1.777788	-0.773137	-0.757121
C132	C	2.277788	-0.273137	-0.257121
H133	H	1.893018	-0.764562	-0.883955
H134	H	2.393018	-0.264562	-0.383955
H135	H	1.837910	-0.872292	-0.888554
H136	H	2.337910	-0.372292	-0.388554
H137	H	1.784898	-0.776940	-0.939071
H138	H	2.284898	-0.276940	-0.439071
H139	H	1.820278	-0.795009	-0.694851
H140	H	2.320278	-0.295009	-0.194851
H141	H	1.767281	-0.699647	-0.745355
H142	H	2.267281	-0.199647	-0.245355
H143	H	1.636595	-0.629353	-1.131063
H144	H	2.136595	-0.129353	-0.631063
H145	H	1.163107	-0.433232	-0.750502
H146	H	1.663107	0.066768	-0.250502
