data_functionalizedCrystal
_audit_creation_method	'MofGen! by Chris Wilmer'
_symmetry_space_group_name_H-M	'P1'
_symmetry_Int_Tables_number	1
_symmetry_cell_setting	triclinic
loop_
_symmetry_equiv_pos_as_xyz
  x,y,z
_cell_length_a	15.297475
_cell_length_b	25.639239
_cell_length_c	25.639233
_cell_angle_alpha	89.981253
_cell_angle_beta	80.323634
_cell_angle_gamma	80.340538
loop_
_atom_site_label
_atom_site_type_symbol
_atom_site_fract_x
_atom_site_fract_y
_atom_site_fract_z
Zn1	Zn	1.378979	-0.346761	-0.433679
Zn2	Zn	1.378847	-0.434167	-0.346230
Zn3	Zn	1.228138	-0.331605	-0.331155
Zn4	Zn	1.228044	-0.419003	-0.418536
O5	O	1.303502	-0.382884	-0.382400
O6	O	1.505200	-0.371044	-0.434726
O7	O	1.358839	-0.420565	-0.271064
O8	O	1.248243	-0.260460	-0.344784
O9	O	1.505103	-0.435261	-0.370477
O10	O	1.359064	-0.271595	-0.420108
O11	O	1.248115	-0.345214	-0.259988
O12	O	1.101887	-0.330510	-0.330100
O13	O	1.248081	-0.409416	-0.493711
O14	O	1.101817	-0.394720	-0.394298
O15	O	1.358973	-0.356341	-0.504837
O16	O	1.358747	-0.505311	-0.355793
O17	O	1.247953	-0.494170	-0.408916
C18	C	1.069120	-0.359325	-0.358920
C19	C	0.968850	-0.349260	-0.348887
C20	C	0.686162	-0.454830	-0.454106
C21	C	0.780370	-0.464291	-0.463530
C22	C	0.827495	-0.435534	-0.434871
C23	C	0.780402	-0.397314	-0.396784
C24	C	0.686184	-0.387855	-0.387356
C25	C	0.827517	-0.368559	-0.368121
C26	C	0.780424	-0.330339	-0.330034
C27	C	0.686216	-0.320881	-0.320608
C28	C	0.639091	-0.349638	-0.349267
C29	C	0.921735	-0.378018	-0.377549
C30	C	0.921757	-0.311043	-0.310799
C31	C	0.827549	-0.301582	-0.301374
C32	C	1.303350	-0.518711	-0.382361
C33	C	1.303368	-0.576827	-0.382370
C34	C	1.361343	-0.943007	-0.354811
C35	C	1.361378	-0.997615	-0.354822
O36	O	1.410513	-1.030782	-0.331348
N37	N	1.303660	-1.019139	-0.382451
C38	C	1.245911	-0.986052	-0.410075
O39	O	1.196821	-1.009375	-0.433577
C40	C	1.245881	-0.931446	-0.410067
C41	C	1.303596	-0.909925	-0.382432
C42	C	1.419054	-0.921485	-0.327179
C43	C	1.419018	-0.866881	-0.327168
C44	C	1.361270	-0.833799	-0.354789
C45	C	1.303559	-0.855321	-0.382421
C46	C	1.188136	-0.898361	-0.437695
C47	C	1.188112	-0.843752	-0.437685
C48	C	1.245827	-0.822230	-0.410050
C49	C	1.245776	-0.767634	-0.410031
N50	N	1.303493	-0.746110	-0.382402
C51	C	1.361241	-0.779192	-0.354781
C52	C	1.245979	-1.100730	-0.410090
C53	C	1.246003	-1.155335	-0.410095
C54	C	1.361472	-1.166894	-0.354842
C55	C	1.361442	-1.112287	-0.354835
C56	C	1.303696	-1.079206	-0.382461
C57	C	1.361159	-0.664519	-0.354759
C58	C	1.361115	-0.609909	-0.354749
C59	C	1.245650	-0.598356	-0.410004
C60	C	1.245690	-0.652960	-0.410012
C61	C	1.303452	-0.686042	-0.382389
O62	O	1.196668	-0.734435	-0.433494
O63	O	1.410330	-0.755864	-0.331289
C64	C	1.538799	-0.406535	-0.405972
C65	C	1.639069	-0.416613	-0.416017
C66	C	1.303531	-0.382878	-0.518776
C67	C	1.303543	-0.382875	-0.576891
C68	C	1.303679	-0.246529	-0.382453
C69	C	1.303754	-0.188422	-0.382476
C70	C	1.361358	-0.355147	-0.943061
C71	C	1.361369	-0.355133	-0.997666
O72	O	1.410452	-0.331612	-1.030832
N73	N	1.303643	-0.382762	-1.019184
C74	C	1.245895	-0.410402	-0.986092
O75	O	1.196795	-0.433902	-1.009409
C76	C	1.245880	-0.410412	-0.931488
C77	C	1.303617	-0.382786	-0.909974
C78	C	1.419089	-0.327522	-0.921546
C79	C	1.419078	-0.327536	-0.866945
C80	C	1.361337	-0.355175	-0.833858
C81	C	1.303606	-0.382800	-0.855372
C82	C	1.188129	-0.438049	-0.898397
C83	C	1.188119	-0.438056	-0.843789
C84	C	1.245855	-0.410429	-0.822275
C85	C	1.245855	-0.410453	-0.767683
N86	N	1.303581	-0.382824	-0.746166
C87	C	1.361322	-0.355185	-0.779253
C88	C	1.245930	-0.410379	-1.100767
C89	C	1.245949	-0.410372	-1.155371
C90	C	1.361422	-0.355102	-1.166941
C91	C	1.361407	-0.355112	-1.112336
C92	C	1.303656	-0.382749	-1.079249
C93	C	1.361297	-0.355217	-0.664585
C94	C	1.361284	-0.355236	-0.609978
C95	C	1.245809	-0.410504	-0.598413
C96	C	1.245825	-0.410488	-0.653015
C97	C	1.303572	-0.382840	-0.686100
O98	O	1.196795	-0.433961	-0.734485
O99	O	1.410406	-0.331684	-0.755928
C100	C	1.303525	-0.382858	-0.246560
C101	C	1.303687	-0.382731	-0.188462
H102	H	0.789193	-0.270463	-0.270364
H103	H	0.647784	-0.478243	-0.477433
N104	N	0.972584	-0.280023	-0.279892
H105	H	0.956227	-0.241036	-0.286446
H106	H	0.956150	-0.286477	-0.240888
N107	N	0.972515	-0.419237	-0.418628
H108	H	1.011638	-0.401955	-0.446812
H109	H	1.011516	-0.447344	-0.401202
H110	H	1.198630	-0.571411	-0.432491
N111	N	1.423702	-1.089082	-0.325033
H112	H	1.465473	-1.070593	-0.350484
H113	H	1.387002	-1.062800	-0.297112
H114	H	1.408113	-0.592389	-0.332243
H115	H	0.818706	-0.495411	-0.494539
H116	H	1.466092	-0.305038	-0.849433
H117	H	1.408436	-0.332595	-1.193890
N118	N	1.183566	-0.440291	-0.676225
H119	H	1.146989	-0.457805	-0.646977
H120	H	1.141847	-0.414809	-0.694699
H121	H	1.408304	-0.332739	-0.592465
H122	H	0.562379	-0.341936	-0.341597
N123	N	1.423458	-0.700195	-0.324967
H124	H	1.460006	-0.678268	-0.307462
H125	H	1.386782	-0.719198	-0.297081
N126	N	1.481281	-0.843674	-0.297371
H127	H	1.517869	-0.872924	-0.279880
H128	H	1.522989	-0.825180	-0.322854
H129	H	1.408317	-0.332702	-0.691517
H130	H	1.466084	-0.948416	-0.304687
H131	H	1.198801	-0.433009	-0.571464
N132	N	1.183688	-0.440173	-1.178578
H133	H	1.197648	-0.478935	-1.170470
H134	H	1.119266	-0.425535	-1.162609
N135	N	1.423759	-1.202581	-0.325049
H136	H	1.415017	-1.240438	-0.329251
H137	H	1.488172	-1.199469	-0.339670
H138	H	1.198902	-0.432887	-1.073830
N139	N	1.183440	-0.676177	-0.439814
H140	H	1.141675	-0.694673	-0.414368
H141	H	1.146910	-0.646904	-0.457307
H142	H	0.647875	-0.289766	-0.289590
H143	H	1.198997	-1.172851	-0.432592
N144	N	1.183684	-1.065050	-0.439884
H145	H	1.147128	-1.086975	-0.457385
H146	H	1.141947	-1.038236	-0.414398
N147	N	1.481362	-0.297702	-0.957227
H148	H	1.517923	-0.280204	-0.935304
H149	H	1.523095	-0.323169	-0.984061
H150	H	1.408419	-0.332615	-1.094823
H151	H	1.141114	-0.460545	-0.915903
H152	H	1.141081	-0.460556	-0.816850
H153	H	1.141089	-0.816819	-0.460184
N154	N	0.929105	-0.445737	-0.445033
H155	H	0.951787	-0.474312	-0.473509
H156	H	0.951767	-0.412143	-0.456963
H157	H	1.141134	-0.915874	-0.460195
