data_functionalizedCrystal
_audit_creation_method	'MofGen! by Chris Wilmer'
_symmetry_space_group_name_H-M	'P1'
_symmetry_Int_Tables_number	1
_symmetry_cell_setting	triclinic
loop_
_symmetry_equiv_pos_as_xyz
  x,y,z
_cell_length_a	14.908571
_cell_length_b	12.645330
_cell_length_c	12.645323
_cell_angle_alpha	89.975130
_cell_angle_beta	86.684824
_cell_angle_gamma	86.714080
loop_
_atom_site_label
_atom_site_type_symbol
_atom_site_fract_x
_atom_site_fract_y
_atom_site_fract_z
Zn1	Zn	1.379269	-0.515698	-0.692801
Zn2	Zn	1.379168	-0.692980	-0.515534
Zn3	Zn	1.228396	-0.505492	-0.505333
Zn4	Zn	1.228380	-0.682673	-0.682543
O5	O	1.303803	-0.599211	-0.599053
O6	O	1.505501	-0.547800	-0.677848
O7	O	1.359132	-0.668150	-0.365831
O8	O	1.248458	-0.358502	-0.530225
O9	O	1.505427	-0.678048	-0.547610
O10	O	1.359304	-0.366000	-0.667957
O11	O	1.248361	-0.530404	-0.358337
O12	O	1.102148	-0.520410	-0.520279
O13	O	1.248432	-0.660482	-0.832254
O14	O	1.102137	-0.650585	-0.650475
O15	O	1.359289	-0.537806	-0.839790
O16	O	1.359117	-0.839956	-0.537664
O17	O	1.248334	-0.832384	-0.660366
C18	C	1.069408	-0.583272	-0.583157
C19	C	0.969133	-0.576479	-0.576382
C20	C	0.780741	-0.699476	-0.699042
C21	C	0.686524	-0.693097	-0.692680
C22	C	0.686478	-0.557337	-0.557302
C23	C	0.780696	-0.563716	-0.563664
C24	C	0.827824	-0.634789	-0.634535
C25	C	0.922043	-0.641173	-0.640891
C26	C	0.921996	-0.505409	-0.505520
C27	C	0.827779	-0.499029	-0.499158
C28	C	1.303737	-0.874636	-0.599034
C29	C	1.303792	-0.992470	-0.599066
C30	C	1.234386	-1.155334	-0.676530
C31	C	1.234031	-1.032750	-0.676242
C32	C	1.278053	-1.035316	-0.485602
C33	C	1.277629	-1.157885	-0.486072
C34	C	1.399362	-1.166049	-0.634190
C35	C	1.398776	-1.043403	-0.636593
C36	C	1.539114	-0.615212	-0.615011
C37	C	1.639389	-0.622031	-0.621811
C38	C	1.303870	-0.599133	-0.875563
C39	C	1.303898	-0.599100	-0.993395
C40	C	1.303894	-0.322712	-0.599097
C41	C	1.303933	-0.204884	-0.599116
C42	C	1.233943	-0.675875	-1.156204
C43	C	1.234126	-0.676291	-1.033656
C44	C	1.398956	-0.635874	-1.044349
C45	C	1.398572	-0.636359	-1.166921
C46	C	1.279694	-0.485157	-1.158954
C47	C	1.277573	-0.485686	-1.036204
C48	C	1.303789	-0.599215	-0.323622
C49	C	1.303935	-0.598961	-0.205803
H50	H	1.250342	-1.185829	-0.760723
C51	C	1.341413	-0.403474	-0.999172
H52	H	1.385156	-0.437395	-0.956935
H53	H	1.307812	-0.350053	-0.958593
H54	H	1.370676	-0.372270	-1.059151
C55	C	1.344302	-1.000425	-0.405160
H56	H	1.327497	-1.027187	-0.337098
H57	H	1.342862	-0.925274	-0.402422
H58	H	1.403421	-1.027310	-0.426328
H59	H	0.789394	-0.441161	-0.441460
C60	C	0.973789	-0.434247	-0.434563
H61	H	1.036652	-0.448219	-0.448504
H62	H	0.958312	-0.448626	-0.362266
H63	H	0.958365	-0.361990	-0.449161
H64	H	1.419856	-0.718424	-1.015074
H65	H	1.207619	-0.458070	-1.002370
C66	C	1.139407	-1.190613	-0.644818
H67	H	1.141953	-1.235406	-0.584602
H68	H	1.117254	-1.228107	-0.701988
H69	H	1.100422	-1.130084	-0.628275
C70	C	1.425011	-1.005792	-0.749433
H71	H	1.378282	-0.959239	-0.773581
H72	H	1.433825	-1.065269	-0.795493
H73	H	1.479108	-0.969638	-0.748832
C74	C	0.973884	-0.719345	-0.718849
H75	H	0.932345	-0.756947	-0.756363
H76	H	1.010616	-0.767976	-0.680708
H77	H	1.010661	-0.681328	-0.767590
C78	C	0.634627	-0.479177	-0.479343
H79	H	0.571772	-0.484652	-0.484789
H80	H	0.650078	-0.409009	-0.496000
H81	H	0.650034	-0.495670	-0.409129
C82	C	1.348554	-0.407630	-1.202808
H83	H	1.333557	-0.339002	-1.174209
H84	H	1.347562	-0.405045	-1.277811
H85	H	1.407029	-0.431015	-1.183441
C86	C	0.832585	-0.777654	-0.776990
H87	H	0.791049	-0.815265	-0.814500
H88	H	0.869317	-0.826278	-0.738841
H89	H	0.869363	-0.739642	-0.825736
H90	H	0.648193	-0.745769	-0.745210
C91	C	1.138463	-0.986759	-0.644149
H92	H	1.099707	-1.043007	-0.631227
H93	H	1.116787	-0.943560	-0.699722
H94	H	1.139935	-0.945346	-0.581675
C95	C	1.184791	-0.987649	-0.445953
H96	H	1.161415	-0.941641	-0.498380
H97	H	1.190175	-0.948889	-0.382522
H98	H	1.145237	-1.043021	-0.432521
C99	C	1.255786	-0.790071	-0.995508
H100	H	1.255964	-0.790717	-0.920393
H101	H	1.313286	-0.814750	-1.024827
H102	H	1.211458	-0.834944	-1.017756
C103	C	1.183391	-1.190251	-0.446958
H104	H	1.145725	-1.128515	-0.430936
H105	H	1.188012	-1.232440	-0.385126
H106	H	1.158287	-1.229750	-0.500699
H107	H	1.419120	-0.719744	-1.196922
C108	C	1.187683	-0.441569	-1.194462
H109	H	1.174338	-0.372841	-1.165332
H110	H	1.142445	-0.487277	-1.170392
H111	H	1.189507	-0.437689	-1.269578
C112	C	1.255753	-0.993484	-0.789628
H113	H	1.264874	-1.052480	-0.836283
H114	H	1.308765	-0.955136	-0.791057
H115	H	1.206999	-0.948626	-0.811508
H116	H	1.326086	-1.190833	-0.426079
C117	C	1.431086	-1.209860	-0.744522
H118	H	1.488792	-1.185487	-0.764187
H119	H	1.389543	-1.186049	-0.794795
H120	H	1.434501	-1.285081	-0.742645
C121	C	1.472462	-1.007023	-0.566653
H122	H	1.446145	-0.960091	-0.513409
H123	H	1.515965	-0.971612	-0.609122
H124	H	1.500724	-1.066936	-0.534250
H125	H	1.451176	-1.198556	-0.577885
H126	H	1.163637	-0.652532	-0.998783
H127	H	1.163245	-0.652284	-1.180892
H128	H	1.249790	-0.759579	-1.188095
H129	H	1.452491	-0.583121	-1.200249
C130	C	1.471300	-0.562985	-1.009882
H131	H	1.444109	-0.509353	-0.963997
H132	H	1.498840	-0.531167	-1.070610
H133	H	1.515578	-0.603470	-0.973753
