data_functionalizedCrystal
_audit_creation_method	'MofGen! by Chris Wilmer'
_symmetry_space_group_name_H-M	'P1'
_symmetry_Int_Tables_number	1
_symmetry_cell_setting	triclinic
loop_
_symmetry_equiv_pos_as_xyz
  x,y,z
_cell_length_a	17.038272
_cell_length_b	27.732048
_cell_length_c	15.500227
_cell_angle_alpha	92.799543
_cell_angle_beta	86.956295
_cell_angle_gamma	86.877106
loop_
_atom_site_label
_atom_site_type_symbol
_atom_site_fract_x
_atom_site_fract_y
_atom_site_fract_z
O1	O	1.039801	0.102821	-0.071852
O2	O	0.812191	0.101155	-0.071877
O3	O	0.933065	0.031915	-0.071847
O4	O	0.918928	0.172061	-0.071882
O5	O	0.925730	0.036099	0.072040
O6	O	0.804857	0.105339	0.072010
O7	O	1.032467	0.107005	0.072035
Cu8	Cu	0.917992	0.106554	0.085161
Cu9	Cu	0.926666	0.101606	-0.085002
O10	O	0.911593	0.176245	0.072005
C11	C	0.779413	0.101732	0.000064
C12	C	0.692674	0.097211	0.000055
C13	C	0.642076	0.138713	0.000045
C14	C	0.560575	0.134463	0.000058
C15	C	0.529672	0.088710	0.000074
C16	C	0.580276	0.047205	0.000087
C17	C	0.661776	0.051455	0.000080
C18	C	0.284088	0.073694	0.000101
C19	C	0.202582	0.069447	0.000106
C20	C	0.182886	0.156706	0.000079
C21	C	0.264388	0.160952	0.000067
C22	C	0.314985	0.119447	0.000083
C23	C	0.446365	0.084365	0.000085
C24	C	0.398290	0.123792	0.000079
C25	C	0.929100	0.015987	0.000099
C26	C	0.928206	-0.037709	0.000106
C27	C	0.994011	-0.373515	0.000069
C28	C	0.990696	-0.575327	0.000056
O29	O	1.050870	-0.603831	0.000025
N30	N	0.919023	-0.597729	0.000049
C31	C	0.848173	-0.569676	0.000039
O32	O	0.787135	-0.593361	0.000024
C33	C	0.851490	-0.367865	0.000046
C34	C	0.923167	-0.345465	0.000062
C35	C	1.065683	-0.351115	0.000084
C36	C	1.066511	-0.300665	0.000091
C37	C	0.995667	-0.272615	0.000084
C38	C	0.923995	-0.295015	0.000069
C39	C	0.780641	-0.339813	0.000030
C40	C	0.781477	-0.289357	0.000029
C41	C	0.853154	-0.266957	0.000045
C42	C	0.853979	-0.216515	0.000070
N43	N	0.925652	-0.194113	0.000077
C44	C	0.996496	-0.222163	0.000084
C45	C	0.846437	-0.675629	0.000038
C46	C	0.845608	-0.726081	0.000038
C47	C	0.988131	-0.731729	0.000053
C48	C	0.988959	-0.681276	0.000059
C49	C	0.918111	-0.653227	0.000045
C50	C	0.998229	-0.116214	0.000101
C51	C	0.999050	-0.065759	0.000113
C52	C	0.856528	-0.060116	0.000093
C53	C	0.855706	-0.110566	0.000086
C54	C	0.926563	-0.138614	0.000087
O55	O	0.793838	-0.187981	0.000092
O56	O	1.057526	-0.198468	0.000080
C57	C	0.993183	-0.423965	0.000061
C58	C	0.921512	-0.446365	0.000046
C59	C	0.850668	-0.418315	0.000039
C60	C	0.920682	-0.496818	0.000046
C61	C	0.991526	-0.524867	0.000053
C62	C	1.063200	-0.502465	0.000060
C63	C	1.064027	-0.452015	0.000068
C64	C	0.778994	-0.440718	0.000032
C65	C	0.778172	-0.491168	0.000025
C66	C	0.849016	-0.519218	0.000032
C67	C	1.065244	0.106429	0.000093
C68	C	1.151985	0.110949	0.000096
C69	C	0.915558	0.192173	0.000058
C70	C	0.916452	0.245869	0.000045
N71	N	0.911897	0.110034	0.204844
N72	N	0.932767	0.098122	-0.204686
C73	C	0.963132	0.080707	0.250133
C74	C	0.958530	0.083344	0.340705
C75	C	0.902695	0.115310	0.385986
C76	C	0.851454	0.144638	0.340690
C77	C	0.856053	0.141999	0.250120
C78	C	0.886126	0.124811	0.659449
C79	C	0.881532	0.127449	0.750025
C80	C	0.988608	0.066154	0.750034
C81	C	0.993205	0.063519	0.659462
C82	C	0.941961	0.092845	0.614174
C83	C	0.897990	0.118007	0.478565
C84	C	0.946662	0.090146	0.521597
H85	H	0.141682	0.190497	0.000067
H86	H	0.289543	0.198209	0.000043
O87	O	1.132006	-0.529743	-0.000089
C88	C	1.139568	-0.561262	-0.074603
H89	H	1.102035	-0.545958	-0.126687
H90	H	1.203858	-0.565064	-0.099614
H91	H	1.118927	-0.598250	-0.057762
O92	O	0.843722	0.148996	0.522651
C93	C	0.793158	0.122646	0.575041
H94	H	0.824050	0.086525	0.588609
H95	H	0.777325	0.144150	0.638729
H96	H	0.737213	0.115956	0.540152
O97	O	1.008392	0.054843	0.384565
C98	C	1.058653	0.026059	0.325177
H99	H	1.062562	0.044021	0.260605
H100	H	1.119822	0.022049	0.351336
H101	H	1.034220	-0.011168	0.315569
H102	H	1.030327	0.042277	0.786915
O103	O	0.786069	-0.132312	-0.000078
C104	C	0.746714	-0.120408	-0.074591
H105	H	0.791294	-0.109696	-0.126664
H106	H	0.715124	-0.153030	-0.099623
H107	H	0.701901	-0.088875	-0.057741
H108	H	0.992121	0.064117	0.484727
O109	O	0.172691	0.024964	0.000159
C110	C	0.234825	-0.010760	0.000149
H111	H	0.288649	0.005850	0.027388
H112	H	0.216036	-0.041286	0.041931
H113	H	0.250035	-0.025731	-0.068877
H114	H	0.702972	0.017660	0.000087
O115	O	1.057020	-0.758909	0.000093
C116	C	1.120469	-0.728325	0.000070
H117	H	1.098794	-0.690742	0.027316
H118	H	1.167942	-0.743673	0.041840
H119	H	1.145978	-0.725830	-0.068961
O120	O	0.712697	-0.262057	0.000133
C121	C	0.705095	-0.230554	0.074666
H122	H	0.765820	-0.224725	0.099524
H123	H	0.676368	-0.194367	0.057905
H124	H	0.666949	-0.247094	0.126839
H125	H	0.844402	0.148691	0.622582
H126	H	0.787240	-0.744314	0.000040
O127	O	0.827180	0.158445	0.793978
C128	C	0.751047	0.146738	0.771853
H129	H	0.752408	0.107317	0.746966
H130	H	0.708743	0.152396	0.831425
H131	H	0.730426	0.171034	0.719281
O132	O	0.428350	0.168221	-0.000093
C133	C	0.478707	0.171111	-0.074608
H134	H	0.462380	0.143555	-0.126679
H135	H	0.472198	0.209017	-0.099640
H136	H	0.542263	0.163098	-0.057760
H137	H	0.325274	0.039897	0.000116
H138	H	0.805987	0.170665	0.377563
H139	H	1.122395	-0.433782	0.000081
H140	H	0.788740	-0.652796	0.000026
O141	O	0.550389	0.002724	0.000138
C142	C	0.612528	-0.032996	0.000123
H143	H	0.666350	-0.016384	0.027360
H144	H	0.593745	-0.063524	0.041903
H145	H	0.627737	-0.047965	-0.068905
H146	H	0.722274	-0.358042	0.000012
O147	O	0.806248	0.170538	0.206257
C148	C	0.755967	0.199310	0.265642
H149	H	0.784720	0.203068	0.330198
H150	H	0.744904	0.236636	0.239456
H151	H	0.697620	0.181495	0.275292
H152	H	0.421194	0.047113	0.000123
O153	O	0.671959	0.183196	0.000067
C154	C	0.609820	0.218915	0.000041
H155	H	0.553228	0.203886	0.027290
H156	H	0.624354	0.251872	0.041805
H157	H	0.601631	0.229870	-0.068992
H158	H	1.057421	-0.047523	0.000128
H159	H	1.055928	-0.139045	0.000099
H160	H	1.124878	-0.282432	0.000101
O161	O	0.787787	-0.032792	0.000047
C162	C	0.803896	0.016541	0.000074
H163	H	0.866643	0.020209	-0.027152
H164	H	0.760839	0.036312	-0.041710
H165	H	0.797231	0.032994	0.069104
H166	H	0.721303	-0.417884	0.000024
H167	H	1.123376	-0.373948	0.000086
H168	H	0.719799	-0.509401	0.000019
H169	H	1.047326	-0.663041	0.000071
O170	O	1.047464	0.032423	0.615613
C171	C	1.091714	0.007112	0.675009
H172	H	1.056405	0.007118	0.739576
H173	H	1.105433	-0.031738	0.648855
H174	H	1.149083	0.025488	0.684625
O175	O	0.511382	0.174768	0.000193
C176	C	0.459848	0.177086	0.074705
H177	H	0.487351	0.155130	0.126802
H178	H	0.448936	0.216355	0.099698
H179	H	0.401585	0.161651	0.057868
O180	O	1.017253	0.049608	0.206076
C181	C	0.978396	0.016534	0.153750
H182	H	0.917721	0.032862	0.140161
H183	H	1.014339	0.008357	0.090069
H184	H	0.971707	-0.018360	0.188708
