data_functionalizedCrystal
_audit_creation_method	'MofGen! by Chris Wilmer'
_symmetry_space_group_name_H-M	'P1'
_symmetry_Int_Tables_number	1
_symmetry_cell_setting	triclinic
loop_
_symmetry_equiv_pos_as_xyz
  x,y,z
_cell_length_a	18.101398
_cell_length_b	25.639239
_cell_length_c	18.101389
_cell_angle_alpha	90.020449
_cell_angle_beta	90.024327
_cell_angle_gamma	90.033952
loop_
_atom_site_label
_atom_site_type_symbol
_atom_site_fract_x
_atom_site_fract_y
_atom_site_fract_z
Zn1	Zn	1.132082	-0.208272	0.418828
Zn2	Zn	1.465415	0.125062	0.752162
Zn3	Zn	1.798749	0.458395	1.085495
Zn4	Zn	1.131961	-0.295693	0.294982
Zn5	Zn	1.465295	0.037640	0.628316
Zn6	Zn	1.798628	0.370974	0.961649
Zn7	Zn	1.008241	-0.208266	0.294989
Zn8	Zn	1.341574	0.125067	0.628323
Zn9	Zn	1.674908	0.458400	0.961656
Zn10	Zn	1.008175	-0.295671	0.418771
Zn11	Zn	1.341509	0.037663	0.752104
Zn12	Zn	1.674842	0.370996	1.085438
O13	O	1.070115	-0.251975	0.356893
O14	O	1.403448	0.081358	0.690226
O15	O	1.736782	0.414691	1.023559
O16	O	1.235699	-0.219880	0.402421
O17	O	1.569032	0.113453	0.735754
O18	O	1.902366	0.446787	1.069088
O19	O	1.115527	-0.284103	0.191350
O20	O	1.448860	0.049231	0.524684
O21	O	1.782193	0.382564	0.858017
O22	O	1.024747	-0.135102	0.311444
O23	O	1.358080	0.198232	0.644777
O24	O	1.691413	0.531565	0.978111
O25	O	1.235610	-0.284108	0.311432
O26	O	1.568944	0.049225	0.644765
O27	O	1.902277	0.382559	0.978098
O28	O	1.115732	-0.135106	0.402428
O29	O	1.449065	0.198228	0.735761
O30	O	1.782399	0.531561	1.069094
O31	O	1.024630	-0.219871	0.191356
O32	O	1.357963	0.113463	0.524689
O33	O	1.691296	0.446796	0.858022
O34	O	0.904599	-0.219849	0.311388
O35	O	1.237933	0.113484	0.644722
O36	O	1.571266	0.446818	0.978055
O37	O	1.024635	-0.284070	0.522411
O38	O	1.357968	0.049263	0.855745
O39	O	1.691301	0.382597	1.189078
O40	O	0.904551	-0.284065	0.402330
O41	O	1.237884	0.049269	0.735663
O42	O	1.571218	0.382602	1.068997
O43	O	1.115668	-0.219858	0.522454
O44	O	1.449002	0.113475	0.855787
O45	O	1.782335	0.446808	1.189120
O46	O	1.115463	-0.368855	0.311376
O47	O	1.448796	-0.035522	0.644710
O48	O	1.782130	0.297811	0.978043
O49	O	1.024518	-0.368839	0.402323
O50	O	1.357851	-0.035505	0.735656
O51	O	1.691185	0.297828	1.068990
C52	C	0.877704	-0.251954	0.356854
C53	C	1.211038	0.081379	0.690187
C54	C	1.544371	0.414713	1.023521
C55	C	0.795390	-0.251958	0.356855
C56	C	1.128724	0.081376	0.690188
C57	C	1.462057	0.414709	1.023522
C58	C	1.069990	-0.387818	0.356859
C59	C	1.403324	-0.054485	0.690192
C60	C	1.736657	0.278849	1.023525
C61	C	1.070005	-0.445932	0.356869
C62	C	1.403338	-0.112599	0.690202
C63	C	1.736671	0.220735	1.023536
C64	C	0.496299	-0.251990	0.356917
C65	C	0.829633	0.081343	0.690251
C66	C	1.162966	0.414676	1.023584
C67	C	0.527630	-0.211386	0.299978
C68	C	0.860963	0.121948	0.633312
C69	C	1.194297	0.455281	0.966645
C70	C	0.613248	-0.211495	0.299735
C71	C	0.946582	0.121839	0.633069
C72	C	1.279915	0.455172	0.966402
C73	C	0.644682	-0.251974	0.356886
C74	C	0.978015	0.081360	0.690220
C75	C	1.311348	0.414693	1.023553
C76	C	0.613553	-0.307048	0.335559
C77	C	0.946887	0.026286	0.668893
C78	C	1.280220	0.359619	1.002226
C79	C	0.527908	-0.306822	0.335163
C80	C	0.861242	0.026511	0.668497
C81	C	1.194575	0.359845	1.001830
C82	C	0.527917	-0.238000	0.435317
C83	C	0.861250	0.095333	0.768651
C84	C	1.194583	0.428667	1.101984
C85	C	0.613568	-0.236773	0.434890
C86	C	0.946901	0.096560	0.768223
C87	C	1.280234	0.429893	1.101556
C88	C	0.728541	-0.251968	0.356870
C89	C	1.061875	0.081366	0.690204
C90	C	1.395208	0.414699	1.023537
C91	C	0.412440	-0.252000	0.356932
C92	C	0.745773	0.081333	0.690265
C93	C	1.079106	0.414667	1.023598
C94	C	1.117594	-0.806291	0.309617
C95	C	1.450927	-0.472958	0.642951
C96	C	1.784260	-0.139624	0.976284
C97	C	1.117622	-0.860895	0.309627
C98	C	1.450956	-0.527562	0.642961
C99	C	1.784289	-0.194229	0.976294
O100	O	1.157955	-0.889129	0.269415
O101	O	1.491288	-0.555795	0.602748
O102	O	1.824621	-0.222462	0.936082
N103	N	1.070245	-0.888214	0.356942
N104	N	1.403578	-0.554881	0.690275
N105	N	1.736912	-0.221548	1.023608
C106	C	1.022841	-0.860926	0.404255
C107	C	1.356175	-0.527593	0.737588
C108	C	1.689508	-0.194260	1.070921
O109	O	0.982546	-0.889177	0.444501
O110	O	1.315880	-0.555844	0.777834
O111	O	1.649213	-0.222511	1.111168
C112	C	1.022817	-0.806323	0.404248
C113	C	1.356150	-0.472990	0.737581
C114	C	1.689484	-0.139656	1.070915
C115	C	1.070192	-0.779007	0.356925
C116	C	1.403525	-0.445673	0.690259
C117	C	1.736859	-0.112340	1.023592
C118	C	1.164965	-0.778975	0.262299
C119	C	1.498299	-0.445641	0.595632
C120	C	1.831632	-0.112308	0.928966
C121	C	1.164936	-0.724374	0.262288
C122	C	1.498269	-0.391041	0.595622
C123	C	1.831602	-0.057707	0.928955
C124	C	1.117534	-0.697090	0.309596
C125	C	1.450867	-0.363757	0.642929
C126	C	1.784201	-0.030423	0.976263
C127	C	1.070162	-0.724406	0.356914
C128	C	1.403495	-0.391073	0.690248
C129	C	1.736829	-0.057740	1.023581
C130	C	0.975417	-0.779036	0.451564
C131	C	1.308751	-0.445703	0.784898
C132	C	1.642084	-0.112369	1.118231
C133	C	0.975397	-0.724429	0.451554
C134	C	1.308731	-0.391096	0.784887
C135	C	1.642064	-0.057762	1.118221
C136	C	1.022773	-0.697113	0.404231
C137	C	1.356106	-0.363779	0.737564
C138	C	1.689439	-0.030446	1.070898
C139	C	1.022731	-0.642522	0.404212
C140	C	1.356064	-0.309188	0.737545
C141	C	1.689397	0.024145	1.070878
N142	N	1.070108	-0.615202	0.356897
N143	N	1.403441	-0.281869	0.690230
N144	N	1.736774	0.051464	1.023564
C145	C	1.117509	-0.642487	0.309589
C146	C	1.450843	-0.309153	0.642923
C147	C	1.784176	0.024180	0.976256
C148	C	1.022897	-0.975597	0.404266
C149	C	1.356230	-0.642264	0.737600
C150	C	1.689564	-0.308930	1.070933
C151	C	1.022917	-1.030199	0.404270
C152	C	1.356251	-0.696866	0.737603
C153	C	1.689584	-0.363533	1.070936
C154	C	1.117699	-1.030164	0.309643
C155	C	1.451033	-0.696831	0.642976
C156	C	1.784366	-0.363498	0.976310
C157	C	1.117675	-0.975561	0.309636
C158	C	1.451008	-0.642228	0.642970
C159	C	1.784342	-0.308894	0.976303
C160	C	1.070274	-0.948278	0.356952
C161	C	1.403608	-0.614945	0.690285
C162	C	1.736941	-0.281611	1.023618
C163	C	1.117443	-0.527822	0.309570
C164	C	1.450776	-0.194488	0.642903
C165	C	1.784109	0.138845	0.976237
C166	C	1.117406	-0.473216	0.309561
C167	C	1.450740	-0.139883	0.642895
C168	C	1.784073	0.193450	0.976228
C169	C	1.022627	-0.473256	0.404190
C170	C	1.355961	-0.139922	0.737524
C171	C	1.689294	0.193411	1.070857
C172	C	1.022661	-0.527856	0.404197
C173	C	1.355994	-0.194523	0.737530
C174	C	1.689327	0.138810	1.070863
C175	C	1.070074	-0.555138	0.356884
C176	C	1.403408	-0.221805	0.690217
C177	C	1.736741	0.111529	1.023551
O178	O	0.982421	-0.614254	0.444405
O179	O	1.315754	-0.280920	0.777739
O180	O	1.649087	0.052413	1.111072
O181	O	1.157804	-0.614229	0.269357
O182	O	1.491138	-0.280896	0.602690
O183	O	1.824471	0.052438	0.936023
C184	C	1.263277	-0.251997	0.356932
C185	C	1.596610	0.081336	0.690265
C186	C	1.929943	0.414670	1.023599
C187	C	1.345591	-0.252006	0.356949
C188	C	1.678924	0.081327	0.690282
C189	C	2.012257	0.414660	1.023615
C190	C	1.070158	-0.251962	0.550055
C191	C	1.403491	0.081371	0.883388
C192	C	1.736824	0.414705	1.216721
C193	C	1.070176	-0.251957	0.632369
C194	C	1.403509	0.081377	0.965702
C195	C	1.736843	0.414710	1.299036
C196	C	1.070260	-0.115602	0.356943
C197	C	1.403593	0.217731	0.690276
C198	C	1.736927	0.551064	1.023610
C199	C	1.070322	-0.057488	0.356964
C200	C	1.403655	0.275845	0.690298
C201	C	1.736989	0.609178	1.023631
C202	C	1.070115	-0.251951	0.164482
C203	C	1.403448	0.081383	0.497816
C204	C	1.736782	0.414716	0.831149
C205	C	1.070240	-0.251809	0.082169
C206	C	1.403574	0.081524	0.415502
C207	C	1.736907	0.414857	0.748835
C208	C	1.070219	-0.251859	0.931460
C209	C	1.403552	0.081475	1.264793
C210	C	1.736886	0.414808	1.598127
C211	C	1.012746	-0.292130	0.900108
C212	C	1.346079	0.041203	1.233442
C213	C	1.679413	0.374536	1.566775
C214	C	1.012901	-0.292317	0.814490
C215	C	1.346235	0.041016	1.147823
C216	C	1.679568	0.374350	1.481157
C217	C	1.070197	-0.251907	0.783077
C218	C	1.403530	0.081426	1.116411
C219	C	1.736864	0.414760	1.449744
C220	C	1.148220	-0.266868	0.814182
C221	C	1.481553	0.066466	1.147516
C222	C	1.814886	0.399799	1.480849
C223	C	1.147899	-0.267132	0.899827
C224	C	1.481233	0.066201	1.233161
C225	C	1.814566	0.399535	1.566494
C226	C	1.050348	-0.196537	0.899887
C227	C	1.383681	0.136797	1.233220
C228	C	1.717015	0.470130	1.566554
C229	C	1.048612	-0.196856	0.814236
C230	C	1.381945	0.136477	1.147569
C231	C	1.715279	0.469811	1.480903
C232	C	1.070189	-0.251934	0.699218
C233	C	1.403523	0.081400	1.032551
C234	C	1.736856	0.414733	1.365885
C235	C	1.070232	-0.251833	1.015320
C236	C	1.403565	0.081500	1.348653
C237	C	1.736899	0.414833	1.681986
H238	H	0.634297	-0.170655	0.313104
H239	H	0.967630	0.162679	0.646437
H240	H	1.300963	0.496012	0.979771
Cl241	Cl	1.174683	-0.328642	0.781077
Cl242	Cl	1.508016	0.004691	1.114411
Cl243	Cl	1.841349	0.338024	1.447744
H244	H	1.192172	-0.239073	0.920569
H245	H	1.525505	0.094260	1.253902
H246	H	1.858839	0.427593	1.587236
H247	H	1.026019	-0.333323	0.794005
H248	H	1.359353	0.000010	1.127339
H249	H	1.692686	0.333343	1.460672
H250	H	0.994443	-0.182907	0.921474
H251	H	1.327777	0.150426	1.254807
H252	H	1.661110	0.483759	1.588140
H253	H	0.984086	-0.550098	0.442733
H254	H	1.317420	-0.216765	0.776066
H255	H	1.650753	0.116568	1.109400
Cl256	Cl	1.173907	-0.329570	0.930680
Cl257	Cl	1.507240	0.003763	1.264014
Cl258	Cl	1.840574	0.337097	1.597347
Cl259	Cl	0.915805	-0.690133	0.511041
Cl260	Cl	1.249138	-0.356800	0.844375
Cl261	Cl	1.582472	-0.023467	1.177708
H262	H	1.203514	-0.702136	0.223756
H263	H	1.536848	-0.368803	0.557089
H264	H	1.870181	-0.035470	0.890423
H265	H	0.507654	-0.267575	0.477742
H266	H	0.840988	0.065758	0.811076
H267	H	1.174321	0.399092	1.144409
Cl268	Cl	1.216111	-0.223006	0.782775
Cl269	Cl	1.549445	0.110328	1.116108
Cl270	Cl	1.882778	0.443661	1.449442
H271	H	0.991194	-0.185574	0.793905
H272	H	1.324528	0.147759	1.127238
H273	H	1.657861	0.481092	1.460571
Cl274	Cl	0.494627	-0.177075	0.465253
Cl275	Cl	0.827960	0.156259	0.798586
Cl276	Cl	1.161294	0.489592	1.131920
H277	H	0.936836	-0.801268	0.490096
H278	H	1.270169	-0.467934	0.823430
H279	H	1.603503	-0.134601	1.156763
H280	H	1.092209	-0.166532	0.920164
H281	H	1.425542	0.166801	1.253498
H282	H	1.758876	0.500135	1.586831
Cl283	Cl	0.963044	-0.438945	0.463664
Cl284	Cl	1.296377	-0.105612	0.796997
Cl285	Cl	1.629710	0.227721	1.130330
H286	H	0.955044	-0.282955	0.793458
H287	H	1.288377	0.050379	1.126791
H288	H	1.621711	0.383712	1.460124
H289	H	1.087419	-0.165258	0.792854
H290	H	1.420752	0.168075	1.126187
H291	H	1.754086	0.501408	1.459520
H292	H	0.954715	-0.282864	0.920695
H293	H	1.288048	0.050470	1.254028
H294	H	1.621381	0.383803	1.587361
Cl295	Cl	1.032753	-0.355048	0.933392
Cl296	Cl	1.366087	-0.021714	1.266725
Cl297	Cl	1.699420	0.311619	1.600059
H298	H	0.507068	-0.170421	0.313200
H299	H	0.840401	0.162912	0.646533
H300	H	1.173734	0.496246	0.979867
Cl301	Cl	0.494343	-0.225492	0.210810
Cl302	Cl	0.827677	0.107842	0.544143
Cl303	Cl	1.161010	0.441175	0.877476
H304	H	0.633700	-0.220743	0.241642
H305	H	0.967033	0.112591	0.574975
H306	H	1.300367	0.445924	0.908308
Cl307	Cl	0.495902	-0.355114	0.396393
Cl308	Cl	0.829236	-0.021780	0.729726
Cl309	Cl	1.162569	0.311553	1.063060
Cl310	Cl	0.497005	-0.325139	0.246674
Cl311	Cl	0.830338	0.008194	0.580007
Cl312	Cl	1.163671	0.341527	0.913341
H313	H	1.156299	-1.052389	0.271125
H314	H	1.489632	-0.719056	0.604458
H315	H	1.822966	-0.385723	0.937792
H316	H	0.634966	-0.319119	0.278864
H317	H	0.968299	0.014214	0.612197
H318	H	1.301633	0.347547	0.945530
Cl319	Cl	0.644975	-0.355009	0.397588
Cl320	Cl	0.978308	-0.021676	0.730921
Cl321	Cl	1.311641	0.311658	1.064254
Cl322	Cl	0.963349	-1.064533	0.463755
Cl323	Cl	1.296682	-0.731200	0.797089
Cl324	Cl	1.630015	-0.397866	1.130422
Cl325	Cl	1.177048	-0.562110	0.250089
Cl326	Cl	1.510381	-0.228777	0.583422
Cl327	Cl	1.843715	0.104557	0.916756
Cl328	Cl	0.645002	-0.174206	0.459729
Cl329	Cl	0.978335	0.159128	0.793063
Cl330	Cl	1.311668	0.492461	1.126396
Cl331	Cl	0.646601	-0.279110	0.503901
Cl332	Cl	0.979934	0.054223	0.837235
Cl333	Cl	1.313267	0.387557	1.170568
Cl334	Cl	1.176968	-0.438879	0.250065
Cl335	Cl	1.510302	-0.105546	0.583399
Cl336	Cl	1.843635	0.227788	0.916732
H337	H	1.203570	-0.801184	0.223775
H338	H	1.536903	-0.467850	0.557108
H339	H	1.870236	-0.134517	0.890442
H340	H	1.156252	-0.953323	0.271102
H341	H	1.489586	-0.619990	0.604436
H342	H	1.822919	-0.286657	0.937769
H343	H	0.984292	-0.953386	0.442794
H344	H	1.317625	-0.620052	0.776127
H345	H	1.650958	-0.286719	1.109461
