data_functionalizedCrystal
_audit_creation_method	'MofGen! by Chris Wilmer'
_symmetry_space_group_name_H-M	'P1'
_symmetry_Int_Tables_number	1
_symmetry_cell_setting	triclinic
loop_
_symmetry_equiv_pos_as_xyz
  x,y,z
_cell_length_a	14.560438
_cell_length_b	19.902436
_cell_length_c	14.560438
_cell_angle_alpha	90.002252
_cell_angle_beta	59.996693
_cell_angle_gamma	59.998271
loop_
_atom_site_label
_atom_site_type_symbol
_atom_site_fract_x
_atom_site_fract_y
_atom_site_fract_z
Zr1	Zr	1.005212	0.647324	-0.120519
O2	O	1.196839	0.540030	-0.267192
O3	O	0.813597	0.680214	-0.075547
O4	O	1.005209	0.680212	-0.267164
O5	O	1.005226	0.540035	0.075566
O6	O	1.005191	0.790791	-0.267152
O7	O	1.005228	0.540032	-0.075575
O8	O	0.662433	0.790795	0.075616
O9	O	1.347983	0.540031	-0.267201
O10	O	0.892393	0.776766	-0.056368
O11	O	0.892404	0.694245	0.056417
O12	O	1.118002	0.694242	-0.169187
O13	O	1.118013	0.611720	-0.056401
Zr14	Zr	1.005179	0.823689	0.120553
Zr15	Zr	1.005183	0.823684	-0.120499
Zr16	Zr	1.005207	0.647328	0.120533
Zr17	Zr	1.246269	0.647325	-0.120534
Zr18	Zr	0.764122	0.823687	0.120568
O19	O	1.196793	0.790798	0.075581
O20	O	1.196799	0.790792	-0.267164
O21	O	1.196834	0.540036	0.075553
O22	O	0.813551	0.930983	0.267226
O23	O	0.813557	0.930976	-0.075519
O24	O	0.813592	0.680221	0.267198
O25	O	1.005165	0.930977	-0.075532
O26	O	1.005182	0.790801	0.267198
O27	O	1.005200	0.680222	0.267186
O28	O	1.005163	0.930980	0.075609
O29	O	1.347961	0.680214	-0.267186
O30	O	0.662430	0.790799	0.267220
O31	O	0.662407	0.930982	0.267235
O32	O	0.662411	0.930978	0.075631
O33	O	1.347980	0.540034	-0.075597
O34	O	1.347957	0.680217	-0.075582
O35	O	0.892389	0.776771	0.169221
O36	O	0.892377	0.859292	0.056435
O37	O	1.117987	0.776768	-0.056383
O38	O	1.117998	0.694246	0.056403
C39	C	0.703670	0.735505	0.000036
C40	C	0.601335	0.735504	0.000043
C41	C	0.636560	0.674582	-0.083246
C42	C	0.540420	0.674586	-0.083275
C43	C	0.373831	0.796436	0.083285
C44	C	0.469970	0.796435	0.083308
C45	C	1.005231	0.514906	-0.000007
C46	C	1.005243	0.440037	-0.000016
C47	C	1.005179	0.168035	0.000028
C48	C	1.147498	0.144467	-0.070799
C49	C	1.147587	0.222305	-0.071192
C50	C	1.005212	0.302978	0.000006
C51	C	0.934535	0.300565	-0.051877
C52	C	0.935445	0.222337	-0.052400
C53	C	0.932519	0.223328	0.122770
C54	C	0.935193	0.300249	0.122581
C55	C	1.005222	0.379244	-0.000005
C56	C	1.005164	0.091769	0.000035
C57	C	1.306721	0.735508	-0.000002
C58	C	1.409056	0.735508	-0.000009
C59	C	1.005200	0.735501	-0.301502
C60	C	1.005202	0.735499	-0.403835
C61	C	1.005160	0.956106	0.000042
C62	C	1.005148	1.030976	0.000050
C63	C	1.122966	0.692423	-0.510802
C64	C	1.122959	0.692432	-0.606950
C65	C	0.887416	0.778595	-0.489153
C66	C	0.887423	0.778590	-0.393007
C67	C	1.005190	0.735512	0.301537
C68	C	1.005189	0.735514	0.403869
C69	C	0.703634	0.956105	0.000061
C70	C	0.601287	1.030974	0.000076
C71	C	0.703665	0.735510	0.301556
C72	C	0.601328	0.735511	0.403895
C73	C	0.703629	0.956110	0.301580
C74	C	0.601280	1.030981	0.403928
C75	C	1.306761	0.514902	-0.301546
C76	C	1.409110	0.440031	-0.403894
C77	C	1.306756	0.514908	-0.000027
C78	C	1.409103	0.440039	-0.000042
C79	C	1.306726	0.735502	-0.301522
C80	C	1.409063	0.735501	-0.403861
C81	C	0.553232	1.023055	-0.058810
C82	C	0.457079	1.093396	-0.058818
C83	C	0.408977	1.171654	0.000066
C84	C	0.457042	1.179571	0.058953
C85	C	0.553199	1.109231	0.058955
C86	C	0.553210	1.109224	0.393119
C87	C	0.457056	1.179580	0.489276
C88	C	0.408967	1.171691	0.596242
C89	C	0.457047	1.093440	0.607049
C90	C	0.553206	1.023086	0.510893
C91	C	1.457192	0.361788	-0.393085
C92	C	1.553376	0.291432	-0.489242
C93	C	1.601470	0.299321	-0.596208
C94	C	1.553384	0.377572	-0.607015
C95	C	1.457209	0.447927	-0.510859
C96	C	1.457169	0.447957	0.058834
C97	C	1.553348	0.377616	0.058816
C98	C	1.601453	0.299358	-0.000072
C99	C	1.553384	0.291441	-0.058955
C100	C	1.457213	0.361781	-0.058943
C101	C	0.553240	0.778589	0.510857
C102	C	0.457093	0.778581	0.607012
C103	C	0.457126	0.692417	0.489230
C104	C	0.553278	0.692420	0.393077
H105	H	1.203321	0.221027	-0.036662
H106	H	1.218854	0.657356	-0.694044
Br107	Br	0.391743	1.285785	0.138866
H108	H	0.592396	0.959340	-0.106774
Br109	Br	0.278476	1.267108	0.000053
H110	H	0.569113	0.624978	-0.151099
H111	H	0.417879	1.087029	0.694153
H112	H	0.592314	1.115690	0.106913
H113	H	1.203083	0.104554	-0.160796
H114	H	0.417990	0.657335	0.480436
Br115	Br	0.727581	0.837068	-0.474466
Br116	Br	1.240611	0.079185	-0.013099
H117	H	0.791520	0.813672	-0.305904
Br118	Br	0.761416	0.254578	0.028006
H119	H	1.592566	0.227714	-0.106899
Br120	Br	1.731973	0.203904	-0.000077
Br121	Br	0.391841	0.837041	0.752175
H122	H	0.592435	0.657338	0.305978
Br123	Br	0.391866	1.082632	-0.138740
Br124	Br	0.618460	1.119953	0.247963
Br125	Br	1.618612	0.185245	-0.474549
H126	H	1.679782	0.242027	-0.674496
Br127	Br	1.282807	0.633948	-0.525500
H128	H	0.827680	0.243246	0.175792
Br129	Br	0.391823	1.285767	0.474583
H130	H	0.330668	1.228985	0.674530
H131	H	1.418061	0.511634	-0.519673
H132	H	1.592555	0.383986	-0.694118
Br133	Br	1.391908	0.554156	0.138759
H134	H	0.743520	0.624963	-0.151040
H135	H	0.592332	0.959379	0.519710
Br136	Br	1.391939	0.351059	-0.247929
H137	H	1.203376	0.220529	-0.161733
Br138	Br	0.195550	0.879122	0.196286
H139	H	1.592470	0.384078	0.106769
Br140	Br	0.618449	0.837069	0.525541
Br141	Br	0.422162	0.879126	0.196345
Br142	Br	1.019171	0.161420	-0.202942
H143	H	0.829851	0.357379	-0.002770
H144	H	1.418081	0.355323	-0.106883
Br145	Br	1.008406	0.162804	0.195017
Br146	Br	1.016344	0.303147	-0.200986
H147	H	0.831322	0.357709	0.179794
Br148	Br	1.021061	0.299643	0.187200
