data_functionalizedCrystal
_audit_creation_method	'MofGen! by Chris Wilmer'
_symmetry_space_group_name_H-M	'P1'
_symmetry_Int_Tables_number	1
_symmetry_cell_setting	triclinic
loop_
_symmetry_equiv_pos_as_xyz
  x,y,z
_cell_length_a	17.019311
_cell_length_b	17.038272
_cell_length_c	15.072220
_cell_angle_alpha	89.999202
_cell_angle_beta	86.107786
_cell_angle_gamma	87.245400
loop_
_atom_site_label
_atom_site_type_symbol
_atom_site_fract_x
_atom_site_fract_y
_atom_site_fract_z
O1	O	1.053384	0.099621	-0.154265
O2	O	1.553384	0.599621	0.345735
O3	O	0.824569	0.112316	-0.136785
O4	O	1.324569	0.612316	0.363215
O5	O	0.937617	-0.007846	-0.145414
O6	O	1.437617	0.492154	0.354586
O7	O	0.940337	0.219783	-0.145636
O8	O	1.440337	0.719783	0.354364
O9	O	0.937587	-0.007839	0.002153
O10	O	1.437587	0.492161	0.502153
O11	O	0.824540	0.112323	0.010783
O12	O	1.324540	0.612323	0.510783
O13	O	1.053355	0.099627	-0.006698
O14	O	1.553355	0.599627	0.493302
Zn15	Zn	0.938943	0.105976	0.025472
Zn16	Zn	1.438943	0.605976	0.525472
Zn17	Zn	0.938981	0.105967	-0.168954
Zn18	Zn	1.438981	0.605967	0.331046
O19	O	0.940307	0.219789	0.001932
O20	O	1.440307	0.719789	0.501932
C21	C	0.795133	0.111837	-0.060753
C22	C	1.295133	0.611837	0.439247
C23	C	0.707464	0.110391	-0.054056
C24	C	1.207464	0.610391	0.445944
C25	C	0.211628	0.102236	-0.012142
C26	C	0.711628	0.602236	0.487858
C27	C	0.294002	0.103595	-0.018437
C28	C	0.794002	0.603595	0.481563
C29	C	0.335205	0.104265	-0.102025
C30	C	0.835205	0.604265	0.397975
C31	C	0.294030	0.103584	-0.179323
C32	C	0.794030	0.603584	0.320677
C33	C	0.211658	0.102230	-0.173027
C34	C	0.711658	0.602230	0.326973
C35	C	0.583917	0.108356	-0.125058
C36	C	1.083917	0.608356	0.374942
C37	C	0.666295	0.109707	-0.131348
C38	C	1.166295	0.609707	0.368652
C39	C	0.666261	0.109720	0.029539
C40	C	1.166261	0.609720	0.529539
C41	C	0.583888	0.108362	0.035827
C42	C	1.083888	0.608362	0.535827
C43	C	0.542720	0.107685	-0.041471
C44	C	1.042720	0.607685	0.458529
C45	C	0.419404	0.105652	-0.108461
C46	C	0.919404	0.605652	0.391539
C47	C	0.458522	0.106304	-0.035034
C48	C	0.958522	0.606304	0.464966
C49	C	0.935128	-0.036969	-0.071441
C50	C	1.435128	0.463031	0.428559
C51	C	0.927748	-0.123755	-0.070878
C52	C	1.427748	0.376245	0.429122
C53	C	0.995509	-0.173926	-0.076054
C54	C	1.495509	0.326074	0.423946
C55	C	0.988569	-0.255471	-0.075532
C56	C	1.488569	0.244529	0.424468
C57	C	0.913868	-0.286843	-0.069828
C58	C	1.413868	0.213157	0.430172
C59	C	0.846102	-0.236666	-0.064655
C60	C	1.346102	0.263334	0.435345
C61	C	0.853043	-0.155123	-0.065183
C62	C	1.353043	0.344877	0.434817
C63	C	0.889350	-0.532581	-0.067967
C64	C	1.389350	-0.032581	0.432033
C65	C	0.882415	-0.614130	-0.067437
C66	C	1.382415	-0.114130	0.432563
C67	C	1.024883	-0.632930	-0.078316
C68	C	1.524883	-0.132930	0.421684
C69	C	1.031816	-0.551384	-0.078838
C70	C	1.531816	-0.051384	0.421162
C71	C	0.964050	-0.501214	-0.073669
C72	C	1.464050	-0.001214	0.426331
C73	C	0.906773	-0.370195	-0.069292
C74	C	1.406773	0.129805	0.430708
C75	C	0.971146	-0.417864	-0.074212
C76	C	1.471146	0.082136	0.425788
C77	C	1.082791	0.100106	-0.082731
C78	C	1.582791	0.600106	0.417269
C79	C	1.170459	0.101553	-0.089434
C80	C	1.670459	0.601553	0.410566
C81	C	0.942796	0.248912	-0.072043
C82	C	1.442796	0.748912	0.427957
C83	C	0.950176	0.335699	-0.072612
C84	C	1.450176	0.835699	0.427388
N85	N	0.938922	0.105982	0.158162
N86	N	1.438922	0.605982	0.658162
N87	N	0.939008	0.105955	-0.301645
N88	N	1.439008	0.605955	0.198355
C89	C	0.938980	0.105964	0.517359
C90	C	1.438980	0.605964	1.017359
C91	C	0.878258	0.170045	0.484388
C92	C	1.378258	0.670045	0.984388
C93	C	0.878423	0.170279	0.381549
C94	C	1.378423	0.670279	0.881549
C95	C	0.938950	0.105973	0.339158
C96	C	1.438950	0.605973	0.839158
C97	C	1.022449	0.123699	0.370069
C98	C	1.522449	0.623699	0.870069
C99	C	1.022115	0.124155	0.472952
C100	C	1.522115	0.624155	0.972952
C101	C	0.916924	0.023966	0.481150
C102	C	1.416924	0.523966	0.981150
C103	C	0.915072	0.024515	0.378428
C104	C	1.415072	0.524515	0.878428
C105	C	0.938939	0.105976	0.238445
C106	C	1.438939	0.605976	0.738445
C107	C	0.938997	0.105963	0.618071
C108	C	1.438997	0.605963	1.118071
H109	H	0.327584	0.104134	-0.247382
H110	H	0.827584	0.604134	0.252618
O111	O	0.171727	0.101621	0.069126
O112	O	0.671727	0.601621	0.569126
C113	C	0.225733	0.102497	0.135995
C114	C	0.725733	0.602497	0.635995
H115	H	0.282851	0.128199	0.108043
H116	H	0.782851	0.628199	0.608043
H117	H	0.199464	0.140049	0.194258
H118	H	0.699464	0.640049	0.694258
H119	H	0.238554	0.039954	0.159757
H120	H	0.738554	0.539954	0.659757
O121	O	0.706226	0.110244	0.104645
O122	O	1.206226	0.610244	0.604645
C123	C	0.690460	0.042253	0.154806
C124	C	1.190460	0.542253	0.654806
H125	H	0.670892	-0.005427	0.109242
H126	H	1.170892	0.494573	0.609242
H127	H	0.746096	0.020431	0.187047
H128	H	1.246096	0.520431	0.687047
H129	H	0.641644	0.056774	0.208690
H130	H	1.141644	0.556774	0.708690
O131	O	1.078006	0.069608	0.336598
O132	O	1.578006	0.569608	0.836598
C133	C	1.135908	0.107657	0.283422
C134	C	1.635908	0.607657	0.783422
H135	H	1.136096	0.171982	0.304177
H136	H	1.636096	0.671982	0.804177
H137	H	1.196271	0.077932	0.292486
H138	H	1.696271	0.577932	0.792486
H139	H	1.122180	0.103823	0.210604
H140	H	1.622180	0.603823	0.710604
O141	O	0.171788	0.101535	-0.248198
O142	O	0.671788	0.601535	0.251802
C143	C	0.225815	0.102437	-0.323325
C144	C	0.725815	0.602437	0.176675
H145	H	0.286131	0.078660	-0.304353
H146	H	0.786131	0.578660	0.195647
H147	H	0.204481	0.064109	-0.377953
H148	H	0.704481	0.564109	0.122047
H149	H	0.230520	0.165270	-0.348420
H150	H	0.730520	0.665270	0.151580
H151	H	1.092646	-0.525847	-0.083482
H152	H	1.592646	-0.025847	0.416518
H153	H	0.550346	0.107799	0.103893
H154	H	1.050346	0.607799	0.603893
H155	H	1.040714	0.183953	0.495509
H156	H	1.540714	0.683953	0.995509
H157	H	0.327518	0.104150	0.044503
H158	H	0.827518	0.604150	0.544503
H159	H	0.699841	0.110259	-0.199419
H160	H	1.199841	0.610259	0.300581
O161	O	0.544059	0.107653	-0.200231
O162	O	1.044059	0.607653	0.299769
C163	C	0.598092	0.108547	-0.275354
C164	C	1.098092	0.608547	0.224646
H165	H	0.658408	0.084780	-0.256370
H166	H	1.158408	0.584780	0.243630
H167	H	0.576767	0.070206	-0.329975
H168	H	1.076767	0.570206	0.170025
H169	H	0.602792	0.171375	-0.300463
H170	H	1.102792	0.671375	0.199537
O171	O	1.068057	-0.143418	-0.081437
O172	O	1.568057	0.356582	0.418563
C173	C	1.076317	-0.096799	-0.005653
C174	C	1.576317	0.403201	0.494347
H175	H	1.033793	-0.116036	0.051014
H176	H	1.533793	0.383964	0.551014
H177	H	1.139392	-0.104193	0.015178
H178	H	1.639392	0.395807	0.515178
H179	H	1.062445	-0.032472	-0.021871
H180	H	1.562445	0.467528	0.478129
H181	H	0.845951	-0.395748	-0.064646
H182	H	1.345951	0.104252	0.435354
H183	H	0.816533	0.159731	0.361067
H184	H	1.316533	0.659731	0.861067
O185	O	1.077919	0.070487	0.498278
O186	O	1.577919	0.570487	0.998278
C187	C	1.060733	-0.004755	0.468250
C188	C	1.560733	0.495245	0.968250
H189	H	1.022414	0.001381	0.409237
H190	H	1.522414	0.501381	0.909237
H191	H	1.118023	-0.039147	0.446963
H192	H	1.618023	0.460853	0.946963
H193	H	1.027867	-0.037342	0.524266
H194	H	1.527867	0.462658	1.024266
O195	O	0.418595	0.105548	0.046210
O196	O	0.918595	0.605548	0.546210
C197	C	0.443082	0.038193	0.093270
C198	C	0.943082	0.538193	0.593270
H199	H	0.504359	0.016613	0.065722
H200	H	1.004359	0.516613	0.565722
H201	H	0.444893	0.053461	0.166720
H202	H	0.944893	0.553461	0.666720
H203	H	0.399797	-0.009957	0.085421
H204	H	0.899797	0.490043	0.585421
O205	O	0.459514	0.106403	-0.189605
O206	O	0.959514	0.606403	0.310395
C207	C	0.502758	0.174872	-0.197737
C208	C	1.002758	0.674872	0.302263
H209	H	0.513611	0.197648	-0.128727
H210	H	1.013611	0.697648	0.371273
H211	H	0.561682	0.160600	-0.236270
H212	H	1.061682	0.660600	0.263730
H213	H	0.467953	0.221732	-0.234789
H214	H	0.967953	0.721732	0.265211
H215	H	1.043748	-0.296317	-0.079744
H216	H	1.543748	0.203683	0.420256
O217	O	1.090626	-0.681776	-0.083377
O218	O	1.590626	-0.181776	0.416623
C219	C	1.068487	-0.760476	-0.081666
C220	C	1.568487	-0.260476	0.418334
H221	H	1.006326	-0.763534	-0.104853
H222	H	1.506326	-0.263534	0.395147
H223	H	1.111350	-0.797468	-0.127786
H224	H	1.611350	-0.297468	0.372214
H225	H	1.069882	-0.784065	-0.010980
H226	H	1.569882	-0.284065	0.489020
O227	O	0.895404	0.242288	0.513842
O228	O	1.395404	0.742288	1.013842
C229	C	0.840492	0.299138	0.483746
C230	C	1.340492	0.799138	0.983746
H231	H	0.784112	0.269704	0.468693
H232	H	1.284112	0.769704	0.968693
H233	H	0.826459	0.345818	0.537421
H234	H	1.326459	0.845818	1.037421
H235	H	0.866504	0.327864	0.420790
H236	H	1.366504	0.827864	0.920790
H237	H	0.821582	-0.639670	-0.062778
H238	H	1.321582	-0.139670	0.437222
H239	H	0.797864	-0.114274	-0.060968
H240	H	1.297864	0.385726	0.439032
O241	O	0.896000	0.242810	0.350720
O242	O	1.396000	0.742810	0.850720
C243	C	0.965218	0.236805	0.293696
C244	C	1.465218	0.736805	0.793696
H245	H	0.973794	0.174465	0.266084
H246	H	1.473794	0.674465	0.766084
H247	H	0.959798	0.280050	0.236470
H248	H	1.459798	0.780050	0.736470
H249	H	1.018033	0.251044	0.332422
H250	H	1.518033	0.751044	0.832422
H251	H	0.834170	-0.491742	-0.063758
H252	H	1.334170	0.008258	0.436242
O253	O	1.045138	0.194193	0.337647
O254	O	1.545138	0.694193	0.837647
C255	C	1.120231	0.209227	0.366048
C256	C	1.620231	0.709227	0.866048
H257	H	1.152251	0.151362	0.382773
H258	H	1.652251	0.651362	0.882773
H259	H	1.155797	0.240024	0.310701
H260	H	1.655797	0.740024	0.810701
H261	H	1.113366	0.248451	0.427634
H262	H	1.613366	0.748451	0.927634
O263	O	0.845469	0.003749	0.517635
O264	O	1.345469	0.503749	1.017635
C265	C	0.814313	0.063436	0.576542
C266	C	1.314313	0.563436	1.076542
H267	H	0.842200	0.121186	0.557848
H268	H	1.342200	0.621186	1.057848
H269	H	0.747755	0.070385	0.571980
H270	H	1.247755	0.570385	1.071980
H271	H	0.827790	0.047001	0.647431
H272	H	1.327790	0.547001	1.147431
H273	H	0.816182	0.159672	0.513892
H274	H	1.316182	0.659672	1.013892
H275	H	0.785279	-0.262216	-0.060016
H276	H	1.285279	0.237784	0.439984
H277	H	1.031967	-0.392317	-0.078875
H278	H	1.531967	0.107683	0.421125
H279	H	0.853622	0.011060	0.358751
H280	H	1.353622	0.511060	0.858751
O281	O	0.963999	-0.034939	0.343982
O282	O	1.463999	0.465061	0.843982
C283	C	1.021136	-0.004042	0.283293
C284	C	1.521136	0.495958	0.783293
H285	H	1.027972	0.060573	0.299253
H286	H	1.527972	0.560573	0.799253
H287	H	1.079986	-0.037964	0.288768
H288	H	1.579986	0.462036	0.788768
H289	H	1.001656	-0.009751	0.212784
H290	H	1.501656	0.490249	0.712784
H291	H	0.961141	-0.023720	0.502093
H292	H	1.461141	0.476280	1.002093
