data_functionalizedCrystal
_audit_creation_method	'MofGen! by Chris Wilmer'
_symmetry_space_group_name_H-M	'P1'
_symmetry_Int_Tables_number	1
_symmetry_cell_setting	triclinic
loop_
_symmetry_equiv_pos_as_xyz
  x,y,z
_cell_length_a	12.759395
_cell_length_b	13.897447
_cell_length_c	12.759387
_cell_angle_alpha	89.968815
_cell_angle_beta	89.982772
_cell_angle_gamma	90.021067
loop_
_atom_site_label
_atom_site_type_symbol
_atom_site_fract_x
_atom_site_fract_y
_atom_site_fract_z
Zn1	Zn	1.606199	-0.383927	-0.594000
Zn2	Zn	2.106199	0.116073	-0.094000
Zn3	Zn	1.606085	-0.545254	-0.418319
Zn4	Zn	2.106085	-0.045254	0.081681
Zn5	Zn	1.430508	-0.383979	-0.418337
Zn6	Zn	1.930508	0.116021	0.081663
Zn7	Zn	1.430475	-0.545186	-0.593958
Zn8	Zn	1.930475	-0.045186	-0.093958
O9	O	1.518317	-0.464586	-0.506154
O10	O	2.018317	0.035414	-0.006154
O11	O	1.753205	-0.405334	-0.570706
O12	O	2.253205	0.094666	-0.070706
O13	O	1.582760	-0.523910	-0.271300
O14	O	2.082760	-0.023910	0.228700
O15	O	1.453875	-0.248990	-0.441665
O16	O	1.953875	0.251010	0.058335
O17	O	1.753122	-0.523860	-0.441633
O18	O	2.253122	-0.023860	0.058367
O19	O	1.582955	-0.248952	-0.570724
O20	O	2.082955	0.251048	-0.070724
O21	O	1.453764	-0.405422	-0.271314
O22	O	1.953764	0.094578	0.228686
O23	O	1.283482	-0.405357	-0.441624
O24	O	1.783482	0.094643	0.058376
O25	O	1.453820	-0.523744	-0.740985
O26	O	1.953820	-0.023744	-0.240985
O27	O	1.283458	-0.523795	-0.570651
O28	O	1.783458	-0.023795	-0.070651
O29	O	1.582923	-0.405268	-0.741016
O30	O	2.082923	0.094732	-0.241016
O31	O	1.582729	-0.680226	-0.441592
O32	O	2.082729	-0.180226	0.058408
O33	O	1.453709	-0.680177	-0.570634
O34	O	1.953709	-0.180177	-0.070634
C35	C	1.245349	-0.464575	-0.506136
C36	C	1.745349	0.035425	-0.006136
C37	C	1.128573	-0.464593	-0.506153
C38	C	1.628573	0.035407	-0.006153
C39	C	1.518231	-0.715201	-0.506129
C40	C	2.018231	-0.215201	-0.006129
C41	C	1.518291	-0.822415	-0.506154
C42	C	2.018291	-0.322415	-0.006154
C43	C	1.128586	-0.588122	-0.640292
C44	C	1.628586	-0.088122	-0.140292
C45	C	1.073732	-0.649894	-0.707365
C46	C	1.573732	-0.149894	-0.207365
C47	C	0.964011	-0.649906	-0.707378
C48	C	1.464011	-0.149906	-0.207378
C49	C	0.909141	-0.588137	-0.640313
C50	C	1.409141	-0.088137	-0.140313
C51	C	0.963995	-0.526365	-0.573240
C52	C	1.463995	-0.026365	-0.073240
C53	C	1.073719	-0.526362	-0.573232
C54	C	1.573719	-0.026362	-0.073232
C55	C	0.963981	-0.402832	-0.439108
C56	C	1.463981	0.097168	0.060892
C57	C	1.073703	-0.402824	-0.439088
C58	C	1.573703	0.097176	0.060912
C59	C	0.909111	-0.341063	-0.372043
C60	C	1.409111	0.158937	0.127957
C61	C	0.963965	-0.279294	-0.304963
C62	C	1.463965	0.220706	0.195037
C63	C	1.073693	-0.279286	-0.304953
C64	C	1.573693	0.220714	0.195047
C65	C	1.128556	-0.341051	-0.372015
C66	C	1.628556	0.158949	0.127985
C67	C	1.518342	-0.909484	-0.506178
C68	C	2.018342	-0.409484	-0.006178
C69	C	1.518416	-1.018717	-0.506205
C70	C	2.018416	-0.518717	-0.006205
C71	C	1.792350	-0.464599	-0.506172
C72	C	2.292350	0.035401	-0.006172
C73	C	1.909127	-0.464604	-0.506180
C74	C	2.409127	0.035396	-0.006180
C75	C	1.518381	-0.464493	-0.780187
C76	C	2.018381	0.035507	-0.280187
C77	C	1.518408	-0.464453	-0.896964
C78	C	2.018408	0.035547	-0.396964
C79	C	1.518431	-0.212993	-0.506201
C80	C	2.018431	0.287007	-0.006201
C81	C	1.518480	-0.105779	-0.506221
C82	C	2.018480	0.394221	-0.006221
C83	C	1.652805	-0.587768	-1.116375
C84	C	2.152805	-0.087768	-0.616375
C85	C	1.719947	-0.649478	-1.061497
C86	C	2.219947	-0.149478	-0.561497
C87	C	1.719912	-0.649515	-0.951775
C88	C	2.219912	-0.149515	-0.451775
C89	C	1.652726	-0.587837	-0.896929
C90	C	2.152726	-0.087837	-0.396929
C91	C	1.585584	-0.526127	-0.951807
C92	C	2.085584	-0.026127	-0.451807
C93	C	1.585629	-0.526095	-1.061532
C94	C	2.085629	-0.026095	-0.561532
C95	C	1.451266	-0.402743	-0.951842
C96	C	1.951266	0.097257	-0.451842
C97	C	1.451304	-0.402700	-1.061564
C98	C	1.951304	0.097300	-0.561564
C99	C	1.384080	-0.341065	-0.896996
C100	C	1.884080	0.158935	-0.396996
C101	C	1.316942	-0.279348	-0.951875
C102	C	1.816942	0.220652	-0.451875
C103	C	1.316980	-0.279313	-1.061603
C104	C	1.816980	0.220687	-0.561603
C105	C	1.384162	-0.340989	-1.116442
C106	C	1.884162	0.159011	-0.616442
C107	C	1.518314	-0.464610	-0.233186
C108	C	2.018314	0.035390	0.266814
C109	C	1.518490	-0.464378	-0.116410
C110	C	2.018490	0.035622	0.383590
H111	H	1.217928	-0.588126	-0.640281
H112	H	1.717928	-0.088126	-0.140281
Br113	Br	1.811115	-0.733188	-1.135934
Br114	Br	2.311115	-0.233188	-0.635934
H115	H	1.262302	-0.229063	-1.106278
H116	H	1.762302	0.270937	-0.606278
Br117	Br	1.652876	-0.587705	-1.265284
Br118	Br	2.152876	-0.087705	-0.765284
Br119	Br	1.148128	-0.195439	-0.213929
Br120	Br	1.648128	0.304561	0.286071
Br121	Br	0.889561	-0.733731	-0.798414
Br122	Br	1.389561	-0.233731	-0.298414
H123	H	0.819800	-0.588144	-0.640338
H124	H	1.319800	-0.088144	-0.140338
Br125	Br	0.760202	-0.341069	-0.372068
Br126	Br	1.260202	0.158931	0.127932
H127	H	1.118420	-0.700184	-0.761969
H128	H	1.618420	-0.200184	-0.261969
H129	H	1.774591	-0.699760	-0.907093
H130	H	2.274591	-0.199760	-0.407093
Br131	Br	1.384227	-0.340940	-1.265351
Br132	Br	1.884227	0.159060	-0.765351
H133	H	1.384052	-0.341103	-0.807655
H134	H	1.884052	0.158897	-0.307655
H135	H	0.919281	-0.229002	-0.250370
H136	H	1.419281	0.270998	0.249630
Br137	Br	1.277465	-0.341052	-0.371999
Br138	Br	1.777465	0.158948	0.128001
Br139	Br	1.652667	-0.587900	-0.748020
Br140	Br	2.152667	-0.087900	-0.248020
Br141	Br	1.225774	-0.195648	-0.877437
Br142	Br	1.725774	0.304352	-0.377437
