data_functionalizedCrystal
_audit_creation_method	'MofGen! by Chris Wilmer'
_symmetry_space_group_name_H-M	'P1'
_symmetry_Int_Tables_number	1
_symmetry_cell_setting	triclinic
loop_
_symmetry_equiv_pos_as_xyz
  x,y,z
_cell_length_a	14.971486
_cell_length_b	10.654541
_cell_length_c	14.048226
_cell_angle_alpha	89.993817
_cell_angle_beta	89.998499
_cell_angle_gamma	84.049029
loop_
_atom_site_label
_atom_site_type_symbol
_atom_site_fract_x
_atom_site_fract_y
_atom_site_fract_z
O1	O	1.187837	0.163659	-0.079051
O2	O	0.927543	0.183258	-0.079076
O3	O	1.063676	-0.009345	-0.079057
O4	O	1.051704	0.356262	-0.079070
O5	O	1.063659	-0.009357	0.079264
O6	O	0.927526	0.183246	0.079245
O7	O	1.187820	0.163648	0.079271
Zn8	Zn	1.057671	0.173445	0.104395
Zn9	Zn	1.057692	0.173460	-0.104200
O10	O	1.051687	0.356251	0.079251
C11	C	0.894205	0.182376	0.000081
C12	C	0.794894	0.179749	0.000071
C13	C	0.738284	0.292898	0.000069
C14	C	0.644971	0.290423	0.000083
C15	C	0.608270	0.174797	0.000093
C16	C	0.664887	0.061639	0.000098
C17	C	0.758199	0.064116	0.000091
C18	C	0.470397	0.056485	0.000112
C19	C	0.377079	0.054008	0.000117
C20	C	0.357169	0.282792	0.000104
C21	C	0.450480	0.285268	0.000096
C22	C	0.507091	0.172110	0.000100
C23	C	1.062789	-0.056140	0.000103
C24	C	1.060160	-0.195555	0.000101
C25	C	1.222944	-0.225272	0.000129
C26	C	1.303097	-0.305626	0.000145
C27	C	1.300621	-0.436618	0.000142
C28	C	1.217984	-0.487256	0.000120
C29	C	1.137831	-0.406902	0.000104
C30	C	1.140315	-0.275909	0.000110
C31	C	0.975050	-0.377185	0.000069
C32	C	0.977523	-0.246194	0.000079
C33	C	0.892412	-0.427824	0.000047
C34	C	0.812257	-0.347470	0.000038
C35	C	0.814736	-0.216471	0.000042
C36	C	0.897370	-0.165839	0.000063
C37	C	1.221158	0.164530	0.000111
C38	C	1.320469	0.167157	0.000115
C39	C	1.052574	0.403045	0.000089
C40	C	1.055203	0.542460	0.000085
N41	N	1.057662	0.173434	0.246755
N42	N	1.057708	0.173461	-0.246561
C43	C	1.117961	0.088185	0.296582
C44	C	1.117967	0.088184	0.396240
C45	C	1.057678	0.173440	0.446069
C46	C	0.997373	0.258693	0.396235
C47	C	0.997363	0.258687	0.296579
C48	C	0.997398	0.258702	0.603950
C49	C	0.997409	0.258711	0.703612
C50	C	1.118003	0.088200	0.703610
C51	C	1.117993	0.088193	0.603954
C52	C	1.057688	0.173449	0.554127
H53	H	0.804290	-0.028022	0.000092
H54	H	0.948314	0.328133	0.744178
H55	H	0.516488	-0.035661	0.000116
H56	H	1.167059	0.018765	0.256018
C57	C	0.831677	0.428401	0.081432
C58	C	0.778625	0.419996	0.000054
H59	H	0.856584	0.506865	0.081419
H60	H	0.795692	0.422685	0.136636
H61	H	0.878745	0.361361	0.081421
H62	H	0.731553	0.487032	0.000068
H63	H	0.814612	0.425725	-0.055165
H64	H	0.598882	0.382560	0.000080
C65	C	0.543895	0.420764	0.081438
C66	C	0.490836	0.412356	0.000066
H67	H	0.568815	0.499219	0.081411
H68	H	0.507912	0.415073	0.136646
H69	H	0.590954	0.353710	0.081433
H70	H	0.443773	0.479405	0.000075
H71	H	0.526821	0.418059	-0.055156
C72	C	1.239525	0.061244	0.508306
C73	C	1.184250	-0.005514	0.451018
H74	H	1.280442	0.003395	0.542129
H75	H	1.272013	0.113583	0.469419
H76	H	1.203605	0.112014	0.552235
H77	H	1.220171	-0.056277	0.407084
H78	H	1.151759	-0.057874	0.489909
H79	H	0.311071	0.374929	0.000105
C80	C	0.878160	0.427219	0.386221
C81	C	0.931094	0.352401	0.451004
H82	H	0.837239	0.485066	0.420033
H83	H	0.915662	0.472483	0.347344
H84	H	0.845669	0.374847	0.347359
H85	H	0.963590	0.404773	0.489861
H86	H	0.893587	0.307135	0.489897
C87	C	1.270789	-0.045738	0.081542
C88	C	1.225667	-0.081285	0.000141
H89	H	1.272475	0.043154	0.081545
H90	H	1.240151	-0.069893	0.136731
H91	H	1.330350	-0.086353	0.081545
H92	H	1.166104	-0.040676	0.000142
H93	H	1.256304	-0.057116	-0.055062
H94	H	0.948260	0.328104	0.256012
H95	H	0.347201	-0.040145	0.000127
H96	H	0.948289	0.328122	0.563384
H97	H	1.365889	-0.502043	0.000147
C98	C	0.571507	-0.073866	-0.081279
C99	C	0.624549	-0.065461	0.000107
H100	H	0.546610	-0.152338	-0.081277
H101	H	0.524440	-0.006841	-0.081273
H102	H	0.607504	-0.068139	-0.136484
H103	H	0.588550	-0.071178	0.055312
H104	H	0.671622	-0.132505	0.000109
C105	C	1.400337	-0.175528	-0.081210
C106	C	1.393927	-0.249955	0.000171
H107	H	1.456409	-0.141156	-0.081190
H108	H	1.396004	-0.226004	-0.136412
H109	H	1.352950	-0.108932	-0.081208
H110	H	1.441310	-0.316557	0.000166
H111	H	1.398268	-0.199476	0.055388
C112	C	0.651598	-0.304945	-0.000002
C113	C	0.721430	-0.403132	0.000007
H114	H	0.595525	-0.339314	-0.000028
H115	H	0.655935	-0.254492	0.055212
H116	H	0.655968	-0.254451	-0.055209
H117	H	0.717064	-0.453620	0.055217
H118	H	0.717091	-0.453605	-0.055213
C119	C	1.258772	-0.682966	-0.081275
C120	C	1.215267	-0.631245	0.000107
H121	H	1.257097	-0.771859	-0.081279
H122	H	1.229276	-0.647835	-0.136477
H123	H	1.319453	-0.664295	-0.081253
H124	H	1.154583	-0.649908	0.000081
H125	H	1.244760	-0.666388	0.055323
H126	H	0.890403	-0.534485	0.000038
H127	H	0.749465	-0.151052	0.000025
C128	C	1.136384	-0.082692	0.815679
C129	C	1.184289	-0.005525	0.758370
H130	H	1.177309	-0.140553	0.849482
H131	H	1.100489	-0.031924	0.859617
H132	H	1.098875	-0.127950	0.776801
H133	H	1.221793	0.039740	0.797249
H134	H	1.220200	-0.056299	0.714427
C135	C	0.856622	0.029909	-0.081325
C136	C	0.900092	-0.021852	0.000070
H137	H	0.858300	0.118802	-0.081316
H138	H	0.886138	-0.005200	-0.136518
H139	H	0.795939	0.011244	-0.081331
H140	H	0.960777	-0.003195	0.000073
H141	H	0.870578	0.013269	0.055277
H142	H	1.167089	0.018778	0.563383
