data_functionalizedCrystal
_audit_creation_method	'MofGen! by Chris Wilmer'
_symmetry_space_group_name_H-M	'P1'
_symmetry_Int_Tables_number	1
_symmetry_cell_setting	triclinic
loop_
_symmetry_equiv_pos_as_xyz
  x,y,z
_cell_length_a	19.288840
_cell_length_b	16.992696
_cell_length_c	17.766277
_cell_angle_alpha	90.014127
_cell_angle_beta	89.983415
_cell_angle_gamma	93.102767
loop_
_atom_site_label
_atom_site_type_symbol
_atom_site_fract_x
_atom_site_fract_y
_atom_site_fract_z
O1	O	0.927058	-0.097701	-0.062734
O2	O	1.427058	0.402299	0.437266
O3	O	0.725565	-0.110914	-0.062710
O4	O	1.225565	0.389086	0.437290
O5	O	0.825504	0.009832	-0.062701
O6	O	1.325504	0.509832	0.437299
O7	O	0.827120	-0.218447	-0.062743
O8	O	1.327120	0.281553	0.437257
O9	O	0.825485	0.009838	0.062487
O10	O	1.325485	0.509838	0.562487
O11	O	0.725546	-0.110908	0.062478
O12	O	1.225546	0.389092	0.562478
O13	O	0.927039	-0.097695	0.062454
O14	O	1.427039	0.402305	0.562454
Cu15	Cu	0.826291	-0.104301	0.073897
Cu16	Cu	1.326291	0.395699	0.573897
Cu17	Cu	0.826314	-0.104308	-0.074153
Cu18	Cu	1.326314	0.395692	0.425847
O19	O	0.827101	-0.218441	0.062445
O20	O	1.327101	0.281559	0.562445
C21	C	0.699655	-0.110489	-0.000112
C22	C	1.199655	0.389511	0.499888
C23	C	0.622476	-0.109223	-0.000102
C24	C	1.122476	0.390777	0.499898
C25	C	0.586248	-0.108618	-0.068344
C26	C	1.086248	0.391382	0.431656
C27	C	0.513731	-0.107419	-0.068353
C28	C	1.013731	0.392581	0.431647
C29	C	0.477446	-0.106810	-0.000116
C30	C	0.977446	0.393190	0.499884
C31	C	0.513683	-0.107419	0.068135
C32	C	1.013683	0.392581	0.568135
C33	C	0.586198	-0.108626	0.068142
C34	C	1.086198	0.391374	0.568142
C35	C	0.365323	-0.058978	0.052161
C36	C	0.865323	0.441022	0.552161
C37	C	0.292810	-0.057767	0.052151
C38	C	0.792810	0.442233	0.552151
C39	C	0.253786	-0.103092	-0.000135
C40	C	0.753786	0.396908	0.499865
C41	C	0.287285	-0.149618	-0.052424
C42	C	0.787285	0.350382	0.447576
C43	C	0.359800	-0.150825	-0.052417
C44	C	0.859800	0.349175	0.447583
C45	C	0.398816	-0.105502	-0.000116
C46	C	0.898816	0.394498	0.499884
C47	C	0.138926	-0.101188	-0.068392
C48	C	0.638926	0.398812	0.431608
C49	C	0.066408	-0.099994	-0.068398
C50	C	0.566408	0.400006	0.431602
C51	C	0.066363	-0.099987	0.068092
C52	C	0.566363	0.400013	0.568092
C53	C	0.138879	-0.101188	0.068096
C54	C	0.638879	0.398812	0.568096
C55	C	0.175157	-0.101785	-0.000148
C56	C	0.675157	0.398215	0.499852
C57	C	0.823416	0.039040	-0.000103
C58	C	1.323416	0.539040	0.499897
C59	C	0.817215	0.126062	-0.000091
C60	C	1.317215	0.626062	0.499909
C61	C	0.877044	0.176520	-0.000091
C62	C	1.377044	0.676520	0.499909
C63	C	0.871213	0.258285	-0.000087
C64	C	1.371213	0.758285	0.499913
C65	C	0.805554	0.289591	-0.000077
C66	C	1.305554	0.789591	0.499923
C67	C	0.745721	0.239127	-0.000079
C68	C	1.245721	0.739127	0.499921
C69	C	0.751552	0.157363	-0.000089
C70	C	1.251552	0.657363	0.499911
C71	C	0.781386	0.533101	-0.000053
C72	C	1.281386	1.033101	0.499947
C73	C	0.775559	0.614871	-0.000041
C74	C	1.275559	1.114871	0.499959
C75	C	0.901052	0.634024	-0.000050
C76	C	1.401052	1.134024	0.499950
C77	C	0.906878	0.552258	-0.000055
C78	C	1.406878	1.052258	0.499945
C79	C	0.847045	0.501800	-0.000061
C80	C	1.347045	1.001800	0.499939
N81	N	0.799592	0.373168	-0.000070
N82	N	1.299592	0.873168	0.499930
N83	N	0.853007	0.418225	-0.000073
N84	N	1.353007	0.918225	0.499927
C85	C	0.952950	-0.098120	-0.000145
C86	C	1.452950	0.401880	0.499855
C87	C	1.030129	-0.099386	-0.000160
C88	C	1.530129	0.400614	0.499840
C89	C	0.829188	0.752351	-0.000122
C90	C	1.329188	1.252351	0.499878
C91	C	0.835388	0.665329	-0.000041
C92	C	1.335388	1.165329	0.499959
N93	N	0.826280	-0.104295	0.178027
N94	N	1.326280	0.395705	0.678027
N95	N	0.826330	-0.104308	-0.178283
N96	N	1.326330	0.395692	0.321717
C97	C	0.870550	-0.050855	0.217418
C98	C	1.370550	0.449145	0.717418
C99	C	0.870554	-0.050851	0.296220
C100	C	1.370554	0.449149	0.796220
C101	C	0.826295	-0.104302	0.335628
C102	C	1.326295	0.395698	0.835628
C103	C	0.782017	-0.157746	0.296228
C104	C	1.282017	0.342254	0.796228
C105	C	0.782010	-0.157743	0.217427
C106	C	1.282010	0.342257	0.717427
C107	C	0.821160	-0.175731	0.460453
C108	C	1.321160	0.324269	0.960453
C109	C	0.821172	-0.175735	0.539252
C110	C	1.321172	0.324265	1.039252
C111	C	0.826314	-0.104311	0.578674
C112	C	1.326314	0.395689	1.078674
C113	C	0.831459	-0.032880	0.539288
C114	C	1.331459	0.467120	1.039288
C115	C	0.831452	-0.032876	0.460487
C116	C	1.331452	0.467124	0.960487
C117	C	0.826298	-0.104311	0.421074
C118	C	1.326298	0.395689	0.921074
C119	C	0.870590	-0.050862	0.703511
C120	C	1.370590	0.449138	1.203511
C121	C	0.870589	-0.050858	0.782314
C122	C	1.370589	0.449142	1.282314
C123	C	0.782056	-0.157759	0.782320
C124	C	1.282056	0.342241	1.282320
C125	C	0.782054	-0.157757	0.703519
C126	C	1.282054	0.342243	1.203519
C127	C	0.826325	-0.104309	0.664119
C128	C	1.326325	0.395691	1.164119
H129	H	0.168465	-0.101683	-0.123960
H130	H	0.668465	0.398317	0.376040
C131	C	0.966864	0.689533	-0.000051
C132	C	1.466864	1.189533	0.499949
N133	N	1.016436	0.731342	-0.000055
N134	N	1.516436	1.231342	0.499945
C135	C	0.626149	-0.109273	-0.143415
C136	C	1.126149	0.390727	0.356585
N137	N	0.656204	-0.109765	-0.199959
N138	N	1.156204	0.390235	0.300041
H139	H	0.930511	0.151037	-0.000095
H140	H	1.430511	0.651037	0.499905
H141	H	0.835646	0.025281	0.571383
H142	H	1.335646	0.525281	1.071383
H143	H	0.702833	0.116280	-0.000089
H144	H	1.202833	0.616280	0.499911
C145	C	0.919242	0.007946	0.174083
C146	C	1.419242	0.507946	0.674083
N147	N	0.955915	0.052239	0.141441
N148	N	1.455915	0.552239	0.641441
H149	H	0.906604	-0.007332	0.328298
H150	H	1.406604	0.492668	0.828298
C151	C	0.919282	0.007937	0.660168
C152	C	1.419282	0.507937	1.160168
N153	N	0.955955	0.052227	0.627525
N154	N	1.455955	0.552227	1.127525
C155	C	0.919280	0.007947	0.825644
C156	C	1.419280	0.507947	1.325644
N157	N	0.955951	0.052244	0.858281
N158	N	1.455951	0.552244	1.358281
C159	C	0.837101	0.045697	0.417165
C160	C	1.337101	0.545697	0.917165
N161	N	0.841353	0.104879	0.384535
N162	N	1.341353	0.604879	0.884535
H163	H	0.732665	0.492028	-0.000057
H164	H	1.232665	0.992028	0.499943
H165	H	0.484136	-0.106925	0.123694
H166	H	0.984136	0.393075	0.623694
H167	H	0.745980	-0.201265	0.328317
H168	H	1.245980	0.298735	0.828317
C169	C	0.979108	0.517828	-0.000065
C170	C	1.479108	1.017828	0.499935
N171	N	1.033514	0.491896	-0.000070
N172	N	1.533514	0.991896	0.499930
C173	C	0.733372	-0.216556	0.825664
C174	C	1.233372	0.283444	1.325664
N175	N	0.696701	-0.260843	0.858315
N176	N	1.196701	0.239157	1.358315
C177	C	0.703326	0.649305	-0.000035
C178	C	1.203326	1.149305	0.499965
N179	N	0.648922	0.675241	-0.000032
N180	N	1.148922	1.175241	0.499968
C181	C	0.733407	-0.216603	0.660187
C182	C	1.233407	0.283397	1.160187
N183	N	0.696780	-0.260946	0.627550
N184	N	1.196780	0.239054	1.127550
C185	C	0.815506	-0.254311	0.582570
C186	C	1.315506	0.245689	1.082570
N187	N	0.811234	-0.313496	0.615195
N188	N	1.311234	0.186504	1.115195
H189	H	0.816960	-0.233897	0.428363
H190	H	1.316960	0.266103	0.928363
C191	C	0.733340	-0.216568	0.174096
C192	C	1.233340	0.283432	0.674096
N193	N	0.696693	-0.260889	0.141458
N194	N	1.196693	0.239111	0.641458
H195	H	0.387072	-0.188710	-0.094991
H196	H	0.887072	0.311290	0.405009
C197	C	0.473872	-0.106748	-0.143428
C198	C	0.973872	0.393252	0.356572
N199	N	0.443852	-0.106240	-0.199974
N200	N	0.943852	0.393760	0.300026
C201	C	0.244364	-0.199486	-0.109940
C202	C	0.744364	0.300514	0.390060
N203	N	0.212033	-0.237045	-0.153259
N204	N	0.712033	0.262955	0.346741
H205	H	0.036912	-0.099507	-0.123971
H206	H	0.536912	0.400493	0.376029
H207	H	0.036820	-0.099495	0.123652
H208	H	0.536820	0.400505	0.623652
H209	H	0.168377	-0.101676	0.123666
H210	H	0.668377	0.398324	0.623666
C211	C	0.626051	-0.109285	0.143217
C212	C	1.126051	0.390715	0.643217
N213	N	0.656070	-0.109778	0.199764
N214	N	1.156070	0.390222	0.699764
C215	C	0.255968	-0.006594	0.109676
C216	C	0.755968	0.493406	0.609676
N217	N	0.228219	0.031946	0.153008
N218	N	0.728219	0.531946	0.653008
C219	C	0.937030	0.313786	-0.000075
C220	C	1.437030	0.813786	0.499925
N221	N	0.986606	0.355589	-0.000063
N222	N	1.486606	0.855589	0.499937
H223	H	0.692259	0.264622	-0.000076
H224	H	1.192259	0.764622	0.499924
H225	H	0.397091	-0.022067	0.094742
H226	H	0.897091	0.477933	0.594742
