data_functionalizedCrystal
_audit_creation_method	'MofGen! by Chris Wilmer'
_symmetry_space_group_name_H-M	'P1'
_symmetry_Int_Tables_number	1
_symmetry_cell_setting	triclinic
loop_
_symmetry_equiv_pos_as_xyz
  x,y,z
_cell_length_a	14.908571
_cell_length_b	14.908520
_cell_length_c	14.908775
_cell_angle_alpha	90.203352
_cell_angle_beta	90.190472
_cell_angle_gamma	90.205961
loop_
_atom_site_label
_atom_site_type_symbol
_atom_site_fract_x
_atom_site_fract_y
_atom_site_fract_z
Zn1	Zn	1.320801	-0.400516	0.609276
Zn2	Zn	1.319734	-0.559463	0.467522
Zn3	Zn	1.179088	-0.401482	0.450324
Zn4	Zn	1.161785	-0.542202	0.608240
O5	O	1.245352	-0.475916	0.533840
O6	O	1.446069	-0.428420	0.598102
O7	O	1.307871	-0.546135	0.339827
O8	O	1.205574	-0.275941	0.464646
O9	O	1.445285	-0.545198	0.493956
O10	O	1.309690	-0.275232	0.581427
O11	O	1.204539	-0.430066	0.327193
O12	O	1.051383	-0.413329	0.463642
O13	O	1.176085	-0.515779	0.733790
O14	O	1.038671	-0.516716	0.579662
O15	O	1.292913	-0.411683	0.734551
O16	O	1.291094	-0.682586	0.492952
O17	O	1.175050	-0.669904	0.596337
C18	C	1.012510	-0.463255	0.519674
C19	C	0.912896	-0.457859	0.513635
C20	C	0.712521	-0.555563	0.622956
C21	C	0.618925	-0.550496	0.617286
C22	C	0.632107	-0.442652	0.496630
C23	C	0.725703	-0.447720	0.502300
C24	C	0.765906	-0.504178	0.565464
C25	C	0.859504	-0.509250	0.571130
C26	C	0.872684	-0.401402	0.450478
C27	C	0.779088	-0.396335	0.444808
C28	C	1.231101	-0.708763	0.546419
C29	C	1.225085	-0.808379	0.551835
C30	C	1.334730	-1.008713	0.454458
C31	C	1.329081	-1.102311	0.459544
C32	C	1.208142	-1.089176	0.567098
C33	C	1.213791	-0.995577	0.562012
C34	C	1.277087	-0.955350	0.505689
C35	C	1.282731	-0.861750	0.500598
C36	C	1.161797	-0.848616	0.608157
C37	C	1.156148	-0.942214	0.613243
C38	C	1.479103	-0.488627	0.548063
C39	C	1.578714	-0.494043	0.554124
C40	C	1.232688	-0.461698	0.767598
C41	C	1.227291	-0.455639	0.867212
C42	C	1.259681	-0.242159	0.521234
C43	C	1.265788	-0.142546	0.515861
C44	C	1.165891	-0.386671	1.001034
C45	C	1.170959	-0.392362	0.907438
C46	C	1.278561	-0.513227	0.920589
C47	C	1.273494	-0.507536	1.014185
C48	C	1.217156	-0.444257	1.054404
C49	C	1.212085	-0.438571	1.148002
C50	C	1.319692	-0.559431	1.161151
C51	C	1.324759	-0.565122	1.067555
C52	C	1.257959	-0.490099	1.300993
C53	C	1.263355	-0.496159	1.201379
H54	H	0.599356	-0.396681	0.445210
F55	F	1.390434	-1.159102	0.405018
F56	F	1.384719	-0.632460	1.024741
F57	F	0.736290	-0.336247	0.377591
F58	F	1.140794	-1.132005	0.627047
H59	H	1.104617	-0.974981	0.659103
F60	F	1.100436	-0.791816	0.662675
H61	H	1.166211	-0.387046	1.180747
F62	F	1.105937	-0.319323	1.043841
H63	H	1.129216	-0.345468	0.863987
H64	H	1.324435	-0.564740	0.887826
H65	H	1.334267	-0.828997	0.454735
H66	H	1.361440	-0.606317	1.204615
F67	F	0.755311	-0.615658	0.690171
H68	H	0.892236	-0.555223	0.622560
H69	H	0.575462	-0.592337	0.664103
H70	H	0.916161	-0.359563	0.403662
H71	H	1.386262	-0.975959	0.408590
