data_functionalizedCrystal
_audit_creation_method	'MofGen! by Chris Wilmer'
_symmetry_space_group_name_H-M	'P1'
_symmetry_Int_Tables_number	1
_symmetry_cell_setting	triclinic
loop_
_symmetry_equiv_pos_as_xyz
  x,y,z
_cell_length_a	17.038272
_cell_length_b	14.853567
_cell_length_c	13.330367
_cell_angle_alpha	90.000844
_cell_angle_beta	90.001882
_cell_angle_gamma	87.373243
loop_
_atom_site_label
_atom_site_type_symbol
_atom_site_fract_x
_atom_site_fract_y
_atom_site_fract_z
O1	O	-1.037627	-0.195788	-0.083284
O2	O	-0.537627	0.304212	0.416716
O3	O	-0.809993	-0.192680	-0.083314
O4	O	-0.309993	0.307320	0.416686
O5	O	-0.929891	-0.063462	-0.083301
O6	O	-0.429891	0.436538	0.416699
O7	O	-0.917730	-0.325006	-0.083297
O8	O	-0.417730	0.174994	0.416703
O9	O	-0.929873	-0.063457	0.083546
O10	O	-0.429873	0.436543	0.583546
O11	O	-0.809975	-0.192675	0.083534
O12	O	-0.309975	0.307325	0.583534
O13	O	-1.037610	-0.195784	0.083563
O14	O	-0.537610	0.304216	0.583563
Cu15	Cu	-0.923791	-0.194229	0.098783
Cu16	Cu	-0.423791	0.305771	0.598783
Cu17	Cu	-0.923812	-0.194234	-0.098533
Cu18	Cu	-0.423812	0.305766	0.401467
O19	O	-0.917712	-0.325002	0.083551
O20	O	-0.417712	0.174998	0.583551
C21	C	-0.780852	-0.189850	0.000106
C22	C	-0.280852	0.310150	0.500106
C23	C	-0.694048	-0.181414	0.000094
C24	C	-0.194048	0.318586	0.500094
C25	C	-0.929331	-0.029829	0.000120
C26	C	-0.429331	0.470171	0.500120
C27	C	-0.927680	0.070379	0.000111
C28	C	-0.427680	0.570379	0.500111
C29	C	-1.066751	-0.198614	0.000141
C30	C	-0.566751	0.301386	0.500141
C31	C	-1.153555	-0.207050	0.000147
C32	C	-0.653555	0.292950	0.500147
C33	C	-0.644036	-0.258867	0.000096
C34	C	-0.144036	0.241133	0.500096
C35	C	-0.562475	-0.250935	0.000110
C36	C	-0.062475	0.249065	0.500110
C37	C	-0.530928	-0.165549	0.000115
C38	C	-0.030928	0.334451	0.500115
C39	C	-0.580947	-0.088090	0.000115
C40	C	-0.080947	0.411910	0.500115
C41	C	-0.662506	-0.096023	0.000109
C42	C	-0.162506	0.403977	0.500109
C43	C	-0.285133	-0.137524	0.000141
C44	C	0.214867	0.362476	0.500141
C45	C	-0.203567	-0.129597	0.000144
C46	C	0.296433	0.370403	0.500144
C47	C	-0.185101	-0.292443	0.000141
C48	C	0.314899	0.207557	0.500141
C49	C	-0.266663	-0.300368	0.000128
C50	C	0.233337	0.199632	0.500128
C51	C	-0.316674	-0.222909	0.000135
C52	C	0.183326	0.277091	0.500135
C53	C	-0.447559	-0.157439	0.000125
C54	C	0.052441	0.342561	0.500125
C55	C	-0.400041	-0.231019	0.000131
C56	C	0.099959	0.268981	0.500131
C57	C	-0.918272	-0.358634	0.000128
C58	C	-0.418272	0.141366	0.500128
C59	C	-0.919923	-0.458842	0.000130
C60	C	-0.419923	0.041158	0.500130
N61	N	-0.923782	-0.194225	0.237564
N62	N	-0.423782	0.305775	0.737564
C63	C	-0.849478	0.488797	0.000120
C64	C	-0.349478	0.988797	0.500120
C65	C	-0.991919	0.499359	0.000138
C66	C	-0.491919	0.999359	0.500138
C67	C	-0.993472	0.405209	0.000132
C68	C	-0.493472	0.905209	0.500132
C69	C	-0.923026	0.352848	0.000122
C70	C	-0.423026	0.852848	0.500122
C71	C	-0.851028	0.394638	0.000117
C72	C	-0.351028	0.894638	0.500117
C73	C	-1.065468	0.363412	0.000147
C74	C	-0.565468	0.863412	0.500147
C75	C	-1.067024	0.269255	0.000143
C76	C	-0.567024	0.769255	0.500143
C77	C	-0.996578	0.216893	0.000125
C78	C	-0.496578	0.716893	0.500125
C79	C	-0.924577	0.258689	0.000119
C80	C	-0.424577	0.758689	0.500119
C81	C	-0.854131	0.206328	0.000108
C82	C	-0.354131	0.706328	0.500108
C83	C	-0.782129	0.248122	0.000095
C84	C	-0.282129	0.748122	0.500095
C85	C	-0.780582	0.342276	0.000099
C86	C	-0.280582	0.842276	0.500099
C87	C	-0.998125	0.122739	0.000121
C88	C	-0.498125	0.622739	0.500121
C89	C	-0.855682	0.112168	0.000106
C90	C	-0.355682	0.612168	0.500106
N91	N	-0.923827	-0.194231	-0.237315
N92	N	-0.423827	0.305769	0.262685
C93	C	-0.870719	-0.251428	0.710182
C94	C	-0.370719	0.248572	1.210182
C95	C	-0.976926	-0.137036	0.710161
C96	C	-0.476926	0.362964	1.210161
C97	C	-0.976917	-0.137032	0.605142
C98	C	-0.476917	0.362968	1.105142
C99	C	-0.923809	-0.194228	0.552639
C100	C	-0.423809	0.305772	1.052639
C101	C	-0.870710	-0.251428	0.605154
C102	C	-0.370710	0.248572	1.105154
C103	C	-1.030021	-0.079840	0.552620
C104	C	-0.530021	0.420160	1.052620
C105	C	-1.030014	-0.079835	0.447595
C106	C	-0.530014	0.420165	0.947595
C107	C	-0.976902	-0.137027	0.395090
C108	C	-0.476902	0.362973	0.895090
C109	C	-0.923800	-0.194229	0.447611
C110	C	-0.423800	0.305771	0.947611
C111	C	-0.870692	-0.251425	0.395107
C112	C	-0.370692	0.248575	0.895107
C113	C	-0.817586	-0.308622	0.447626
C114	C	-0.317586	0.191378	0.947626
C115	C	-0.817597	-0.308620	0.552648
C116	C	-0.317597	0.191380	1.052648
C117	C	-0.976890	-0.137029	0.290068
C118	C	-0.476890	0.362971	0.790068
C119	C	-0.870683	-0.251425	0.290079
C120	C	-0.370683	0.248575	0.790079
H121	H	-0.669714	-0.328397	0.000092
H122	H	-0.169714	0.171603	0.500092
H123	H	-1.020132	-0.090464	0.247312
H124	H	-0.520132	0.409536	0.747312
H125	H	-1.073255	-0.033261	0.404840
H126	H	-0.573255	0.466739	0.904840
H127	H	-0.827478	-0.297995	0.752945
H128	H	-0.327478	0.202005	1.252945
Cl129	Cl	-0.541287	0.019253	0.000127
Cl130	Cl	-0.041287	0.519253	0.500127
Cl131	Cl	-0.499605	-0.348310	0.000107
Cl132	Cl	0.000395	0.151690	0.500107
H133	H	-0.292342	-0.369898	0.000113
H134	H	0.207658	0.130102	0.500113
H135	H	-1.073263	-0.033277	0.595372
H136	H	-0.573263	0.466723	1.095372
Cl137	Cl	-1.154022	0.429239	0.000182
Cl138	Cl	-0.654022	0.929239	0.500182
Cl139	Cl	-0.767116	0.046351	0.000085
Cl140	Cl	-0.267116	0.546351	0.500085
H141	H	-1.125652	0.235235	0.000152
H142	H	-0.625652	0.735235	0.500152
H143	H	-0.827433	-0.297998	0.247337
H144	H	-0.327433	0.202002	0.747337
Cl145	Cl	-0.122225	-0.389813	0.000137
Cl146	Cl	0.377775	0.110187	0.500137
Cl147	Cl	-0.758966	0.541335	0.000093
Cl148	Cl	-0.258966	1.041335	0.500093
Cl149	Cl	-0.163910	-0.022246	0.000173
Cl150	Cl	0.336090	0.477754	0.500173
H151	H	-1.056748	0.088715	0.000139
H152	H	-0.556748	0.588715	0.500139
H153	H	-0.774361	-0.355189	0.595416
H154	H	-0.274361	0.144811	1.095416
Cl155	Cl	-0.407893	-0.050100	0.000126
Cl156	Cl	0.092107	0.449900	0.500126
Cl157	Cl	-0.693573	0.182286	0.000091
Cl158	Cl	-0.193573	0.682286	0.500091
H159	H	-0.774348	-0.355196	0.404866
H160	H	-0.274348	0.144804	0.904866
Cl161	Cl	-1.043693	-0.065141	0.776162
Cl162	Cl	-0.543693	0.434859	1.276162
Cl163	Cl	-0.690074	0.394822	0.000080
Cl164	Cl	-0.190074	0.894822	0.500080
H165	H	-1.049272	0.541997	0.000155
H166	H	-0.549272	1.041997	0.500155
H167	H	-0.325843	-0.074451	0.000147
H168	H	0.174157	0.425549	0.500147
H169	H	-0.703226	-0.032952	0.000107
H170	H	-0.203226	0.467048	0.500107
Cl171	Cl	-0.439701	-0.338358	0.000128
Cl172	Cl	0.060299	0.161642	0.500128
