data_functionalizedCrystal
_audit_creation_method	'MofGen! by Chris Wilmer'
_symmetry_space_group_name_H-M	'P1'
_symmetry_Int_Tables_number	1
_symmetry_cell_setting	triclinic
loop_
_symmetry_equiv_pos_as_xyz
  x,y,z
_cell_length_a	19.188930
_cell_length_b	19.188925
_cell_length_c	18.266242
_cell_angle_alpha	89.993996
_cell_angle_beta	89.977082
_cell_angle_gamma	83.143665
loop_
_atom_site_label
_atom_site_type_symbol
_atom_site_fract_x
_atom_site_fract_y
_atom_site_fract_z
O1	O	0.926148	0.087169	-0.061116
O2	O	1.259481	0.420502	0.272218
O3	O	1.592814	0.753836	0.605551
O4	O	0.722836	0.098903	-0.061065
O5	O	1.056169	0.432237	0.272268
O6	O	1.389503	0.765570	0.605601
O7	O	0.830361	-0.008620	-0.061088
O8	O	1.163694	0.324714	0.272245
O9	O	1.497028	0.658047	0.605579
O10	O	0.818623	0.194692	-0.061093
O11	O	1.151956	0.528025	0.272240
O12	O	1.485289	0.861359	0.605573
O13	O	0.830343	-0.008625	0.060674
O14	O	1.163676	0.324708	0.394007
O15	O	1.497009	0.658041	0.727341
O16	O	0.722818	0.098898	0.060697
O17	O	1.056151	0.432231	0.394030
O18	O	1.389485	0.765564	0.727363
O19	O	0.926129	0.087163	0.060646
O20	O	1.259463	0.420497	0.393980
O21	O	1.592796	0.753830	0.727313
Zn22	Zn	0.824471	0.093030	0.080004
Zn23	Zn	1.157804	0.426363	0.413337
Zn24	Zn	1.491137	0.759696	0.746670
Zn25	Zn	0.824495	0.093037	-0.080423
Zn26	Zn	1.157828	0.426370	0.252910
Zn27	Zn	1.491161	0.759704	0.586244
O28	O	0.818605	0.194687	0.060669
O29	O	1.151938	0.528020	0.394002
O30	O	1.485271	0.861353	0.727335
C31	C	0.696816	0.098520	-0.000178
C32	C	1.030149	0.431854	0.333155
C33	C	1.363483	0.765187	0.666489
C34	C	0.619311	0.097380	-0.000159
C35	C	0.952645	0.430713	0.333175
C36	C	1.285978	0.764046	0.666508
C37	C	0.829972	-0.034634	-0.000207
C38	C	1.163306	0.298700	0.333126
C39	C	1.496639	0.632033	0.666459
C40	C	0.828833	-0.112138	-0.000209
C41	C	1.162167	0.221195	0.333125
C42	C	1.495500	0.554528	0.666458
C43	C	0.574386	0.160471	-0.000172
C44	C	0.907720	0.493804	0.333161
C45	C	1.241053	0.827137	0.666495
C46	C	0.501563	0.159399	-0.000180
C47	C	0.834896	0.492732	0.333153
C48	C	1.168229	0.826066	0.666487
C49	C	0.473667	0.095233	-0.000189
C50	C	0.807001	0.428566	0.333144
C51	C	1.140334	0.761900	0.666477
C52	C	0.518602	0.032134	-0.000172
C53	C	0.851936	0.365467	0.333161
C54	C	1.185269	0.698800	0.666494
C55	C	0.591424	0.033207	-0.000157
C56	C	0.924758	0.366540	0.333176
C57	C	1.258091	0.699874	0.666510
N58	N	0.365694	0.046188	-0.041659
N59	N	0.699028	0.379521	0.291675
N60	N	1.032361	0.712854	0.625008
N61	N	0.296516	0.045172	-0.041675
N62	N	0.629849	0.378506	0.291659
N63	N	0.963182	0.711839	0.624992
C64	C	0.254259	0.091995	-0.000234
C65	C	0.587592	0.425328	0.333099
C66	C	0.920925	0.758661	0.666432
N67	N	0.283792	0.139882	0.041214
N68	N	0.617126	0.473215	0.374547
N69	N	0.950459	0.806548	0.707881
N70	N	0.352977	0.140899	0.041227
N71	N	0.686310	0.474233	0.374560
N72	N	1.019644	0.807566	0.707894
C73	C	0.394705	0.094062	-0.000206
C74	C	0.728038	0.427395	0.333128
C75	C	1.061371	0.760728	0.666461
C76	C	0.130369	0.153928	-0.000255
C77	C	0.463702	0.487261	0.333078
C78	C	0.797036	0.820595	0.666412
C79	C	0.057544	0.152854	-0.000258
C80	C	0.390878	0.486187	0.333075
C81	C	0.724211	0.819520	0.666408
C82	C	0.074586	0.025586	-0.000258
C83	C	0.407919	0.358920	0.333075
C84	C	0.741252	0.692253	0.666409
C85	C	0.147409	0.026663	-0.000247
C86	C	0.480742	0.359996	0.333086
C87	C	0.814075	0.693329	0.666419
C88	C	0.175296	0.090835	-0.000249
C89	C	0.508629	0.424169	0.333084
C90	C	0.841962	0.757502	0.666417
C91	C	0.884297	-0.673909	-0.000241
C92	C	1.217631	-0.340575	0.333093
C93	C	1.550964	-0.007242	0.666426
C94	C	0.885374	-0.601085	-0.000234
C95	C	1.218707	-0.267752	0.333099
C96	C	1.552040	0.065581	0.666432
C97	C	0.822282	-0.556151	-0.000219
C98	C	1.155615	-0.222818	0.333114
C99	C	1.488948	0.110516	0.666448
C100	C	0.758108	-0.584045	-0.000191
C101	C	1.091441	-0.250712	0.333142
C102	C	1.424775	0.082622	0.666475
C103	C	0.757033	-0.656867	-0.000190
C104	C	1.090367	-0.323534	0.333143
C105	C	1.423700	0.009800	0.666476
N106	N	0.776612	-0.435469	-0.041652
N107	N	1.109945	-0.102135	0.291681
N108	N	1.443278	0.231198	0.625014
N109	N	0.777637	-0.366291	-0.041655
N110	N	1.110970	-0.032958	0.291679
N111	N	1.444303	0.300375	0.625012
C112	C	0.825516	-0.336742	-0.000220
C113	C	1.158849	-0.003408	0.333113
C114	C	1.492182	0.329925	0.666446
N115	N	0.872341	-0.378984	0.041208
N116	N	1.205674	-0.045651	0.374541
N117	N	1.539008	0.287682	0.707874
N118	N	0.871318	-0.448168	0.041207
N119	N	1.204651	-0.114835	0.374540
N120	N	1.537985	0.218498	0.707873
C121	C	0.823440	-0.477187	-0.000220
C122	C	1.156773	-0.143853	0.333114
C123	C	1.490106	0.189480	0.666447
C124	C	0.890852	-0.229893	-0.000236
C125	C	1.224185	0.103441	0.333097
C126	C	1.557519	0.436774	0.666431
C127	C	0.891926	-0.157068	-0.000225
C128	C	1.225259	0.176265	0.333108
C129	C	1.558593	0.509599	0.666442
C130	C	0.764659	-0.140029	-0.000189
C131	C	1.097992	0.193305	0.333144
C132	C	1.431325	0.526638	0.666477
C133	C	0.763587	-0.212852	-0.000193
C134	C	1.096920	0.120481	0.333140
C135	C	1.430253	0.453814	0.666474
C136	C	0.826685	-0.257780	-0.000220
C137	C	1.160019	0.075553	0.333114
C138	C	1.493352	0.408886	0.666447
C139	C	0.952150	0.087546	-0.000243
C140	C	1.285483	0.420880	0.333091
C141	C	1.618816	0.754213	0.666424
C142	C	1.029654	0.088687	-0.000267
C143	C	1.362987	0.422020	0.333067
C144	C	1.696321	0.755354	0.666400
C145	C	0.818993	0.220700	-0.000213
C146	C	1.152326	0.554034	0.333120
C147	C	1.485660	0.887367	0.666453
C148	C	0.820132	0.298205	-0.000217
C149	C	1.153466	0.631538	0.333116
C150	C	1.486799	0.964872	0.666450
N151	N	0.824460	0.093024	0.189491
N152	N	1.157793	0.426358	0.522824
N153	N	1.491126	0.759691	0.856157
N154	N	0.824512	0.093037	-0.189910
N155	N	1.157845	0.426370	0.143423
N156	N	1.491178	0.759703	0.476757
C157	C	0.872087	0.045436	0.227790
C158	C	1.205420	0.378770	0.561123
C159	C	1.538754	0.712103	0.894456
C160	C	0.872092	0.045433	0.304435
C161	C	1.205425	0.378766	0.637768
C162	C	1.538758	0.712100	0.971101
C163	C	0.824475	0.093030	0.342778
C164	C	1.157808	0.426363	0.676111
C165	C	1.491142	0.759697	1.009444
C166	C	0.776839	0.140621	0.304469
C167	C	1.110172	0.473955	0.637803
C168	C	1.443505	0.807288	0.971136
C169	C	0.776831	0.140619	0.227826
C170	C	1.110164	0.473952	0.561159
C171	C	1.443498	0.807285	0.894493
N172	N	0.815398	0.154838	0.463110
N173	N	1.148732	0.488171	0.796443
N174	N	1.482065	0.821504	1.129776
N175	N	0.815410	0.154838	0.535918
N176	N	1.148743	0.488171	0.869251
N177	N	1.482076	0.821505	1.202584
C178	C	0.824495	0.093040	0.573700
C179	C	1.157828	0.426373	0.907033
C180	C	1.491161	0.759707	1.240367
N181	N	0.833581	0.031240	0.535924
N182	N	1.166915	0.364573	0.869257
N183	N	1.500248	0.697906	1.202590
N184	N	0.833573	0.031240	0.463109
N185	N	1.166906	0.364573	0.796442
N186	N	1.500240	0.697906	1.129775
C187	C	0.824478	0.093038	0.425885
C188	C	1.157811	0.426371	0.759218
C189	C	1.491145	0.759705	1.092551
C190	C	0.872130	0.045445	0.695106
C191	C	1.205463	0.378778	1.028439
C192	C	1.538796	0.712111	1.361773
C193	C	0.872129	0.045440	0.771752
C194	C	1.205463	0.378774	1.105086
C195	C	1.538796	0.712107	1.438419
C196	C	0.776880	0.140635	0.771786
C197	C	1.110213	0.473968	1.105119
C198	C	1.443546	0.807301	1.438452
C199	C	0.776877	0.140633	0.695141
C200	C	1.110210	0.473966	1.028474
C201	C	1.443543	0.807300	1.361808
C202	C	0.824505	0.093039	0.656806
C203	C	1.157839	0.426372	0.990139
C204	C	1.491172	0.759705	1.323472
H205	H	0.597087	0.212725	-0.000175
H206	H	0.930420	0.546059	0.333158
H207	H	1.263754	0.879392	0.666492
H208	H	0.944179	-0.134365	-0.000240
H209	H	1.277512	0.198968	0.333094
H210	H	1.610846	0.532301	0.666427
H211	H	0.713288	-0.103444	-0.000170
H212	H	1.046621	0.229890	0.333163
H213	H	1.379954	0.563223	0.666496
C214	C	0.452136	0.228807	-0.000203
C215	C	0.785469	0.562140	0.333130
C216	C	1.118802	0.895473	0.666464
N217	N	0.414910	0.281085	-0.000224
N218	N	0.748243	0.614418	0.333109
N219	N	1.081576	0.947752	0.666443
C220	C	0.161047	0.224519	-0.000248
C221	C	0.494381	0.557852	0.333085
C222	C	0.827714	0.891185	0.666419
N223	N	0.184152	0.277688	-0.000241
N224	N	0.517485	0.611022	0.333092
N225	N	0.850819	0.944355	0.666425
C226	C	0.924474	-0.006926	0.185625
C227	C	1.257807	0.326408	0.518959
C228	C	1.591140	0.659741	0.852292
N229	N	0.963929	-0.046367	0.153866
N230	N	1.297263	0.286966	0.487199
N231	N	1.630596	0.620299	0.820532
H232	H	0.706738	-0.547455	-0.000176
H233	H	1.040072	-0.214121	0.333157
H234	H	1.373405	0.119212	0.666490
H235	H	0.738067	0.179374	0.335692
H236	H	1.071401	0.512708	0.669025
H237	H	1.404734	0.846041	1.002359
C238	C	0.692999	-0.243528	-0.000176
C239	C	1.026332	0.089805	0.333157
C240	C	1.359666	0.423138	0.666491
N241	N	0.639829	-0.266632	-0.000162
N242	N	0.973163	0.066701	0.333171
N243	N	1.306496	0.400034	0.666504
C244	C	0.724501	0.192993	0.813959
C245	C	1.057834	0.526326	1.147292
C246	C	1.391168	0.859659	1.480625
N247	N	0.685048	0.232429	0.845727
N248	N	1.018381	0.565763	1.179060
N249	N	1.351715	0.899096	1.512394
C250	C	0.686444	-0.687542	-0.000169
C251	C	1.019777	-0.354209	0.333164
C252	C	1.353111	-0.020876	0.666497
N253	N	0.633275	-0.710648	-0.000156
N254	N	0.966608	-0.377314	0.333177
N255	N	1.299941	-0.043981	0.666510
H256	H	0.937626	-0.578376	-0.000253
H257	H	1.270959	-0.245042	0.333080
H258	H	1.604293	0.088291	0.666413
H259	H	0.020966	0.204232	-0.000265
H260	H	0.354299	0.537566	0.333068
H261	H	0.687633	0.870899	0.666402
C262	C	0.924515	-0.006916	0.652935
C263	C	1.257848	0.326417	0.986268
C264	C	1.591182	0.659751	1.319601
N265	N	0.963971	-0.046356	0.621173
N266	N	1.297305	0.286978	0.954507
N267	N	1.630638	0.620311	1.287840
H268	H	0.051874	-0.026659	-0.000311
H269	H	0.385207	0.306674	0.333022
H270	H	0.718541	0.640008	0.666355
H271	H	0.738046	0.179371	0.196642
H272	H	1.071379	0.512705	0.529976
H273	H	1.404713	0.846038	0.863309
H274	H	0.495885	-0.020111	-0.000190
H275	H	0.829219	0.313222	0.333143
H276	H	1.162552	0.646556	0.666477
H277	H	0.910877	0.006680	0.335623
H278	H	1.244210	0.340013	0.668957
H279	H	1.577543	0.673346	1.002290
C280	C	0.960261	-0.279316	-0.000257
C281	C	1.293595	0.054017	0.333077
C282	C	1.626928	0.387351	0.666410
N283	N	1.012541	-0.316540	-0.000271
N284	N	1.345874	0.016794	0.333062
N285	N	1.679208	0.350127	0.666396
C286	C	0.196829	-0.042744	-0.000241
C287	C	0.530162	0.290590	0.333092
C288	C	0.863495	0.623923	0.666425
N289	N	0.234052	-0.095024	-0.000236
N290	N	0.567385	0.238310	0.333098
N291	N	0.900719	0.571643	0.666431
H292	H	0.738097	0.179386	0.663956
H293	H	1.071430	0.512720	0.997289
H294	H	1.404763	0.846053	1.330623
C295	C	0.924514	-0.006925	0.813881
C296	C	1.257848	0.326408	1.147214
C297	C	1.591181	0.659742	1.480548
N298	N	0.963969	-0.046371	0.845613
N299	N	1.297302	0.286963	1.178946
N300	N	1.630636	0.620296	1.512280
H301	H	0.628003	-0.018171	-0.000147
H302	H	0.961337	0.315162	0.333187
H303	H	1.294670	0.648496	0.666520
H304	H	0.935677	-0.710485	-0.000259
H305	H	1.269011	-0.377152	0.333075
H306	H	1.602344	-0.043818	0.666408
