data_functionalizedCrystal
_audit_creation_method	'MofGen! by Chris Wilmer'
_symmetry_space_group_name_H-M	'P1'
_symmetry_Int_Tables_number	1
_symmetry_cell_setting	triclinic
loop_
_symmetry_equiv_pos_as_xyz
  x,y,z
_cell_length_a	25.639239
_cell_length_b	17.077404
_cell_length_c	17.077396
_cell_angle_alpha	90.021457
_cell_angle_beta	89.968926
_cell_angle_gamma	89.962210
loop_
_atom_site_label
_atom_site_type_symbol
_atom_site_fract_x
_atom_site_fract_y
_atom_site_fract_z
Zn1	Zn	-0.208163	-1.199968	-0.443869
Zn2	Zn	-0.295601	-1.199839	-0.312598
Zn3	Zn	-0.208180	-1.068700	-0.312613
Zn4	Zn	-0.295568	-1.068632	-0.443817
O5	O	-0.251878	-1.134285	-0.378224
O6	O	-0.219769	-1.309798	-0.426472
O7	O	-0.284025	-1.182418	-0.202753
O8	O	-0.135012	-1.086196	-0.330053
O9	O	-0.284009	-1.309703	-0.330027
O10	O	-0.135000	-1.182638	-0.426487
O11	O	-0.219797	-1.086071	-0.202764
O12	O	-0.219765	-0.958844	-0.330002
O13	O	-0.283953	-1.086080	-0.553671
O14	O	-0.283969	-0.958794	-0.426397
O15	O	-0.219737	-1.182572	-0.553709
O16	O	-0.368762	-1.182352	-0.329975
O17	O	-0.368738	-1.085954	-0.426382
C18	C	-0.251866	-0.930337	-0.378196
C19	C	-0.251873	-0.843087	-0.378202
C20	C	-0.285354	-0.802092	-0.428313
C21	C	-0.285354	-0.720111	-0.428323
C22	C	-0.251876	-0.679128	-0.378217
C23	C	-0.218391	-0.720129	-0.328104
C24	C	-0.218389	-0.802108	-0.328099
C25	C	-0.218399	-0.549259	-0.328117
C26	C	-0.218402	-0.467275	-0.328121
C27	C	-0.285365	-0.467262	-0.428341
C28	C	-0.285362	-0.549241	-0.428336
C29	C	-0.251878	-0.590237	-0.378221
C30	C	-0.387721	-1.134153	-0.378188
C31	C	-0.445835	-1.134168	-0.378199
C32	C	-0.806198	-1.184610	-0.328111
C33	C	-0.860802	-1.184641	-0.328122
O34	O	-0.889039	-1.227391	-0.285495
N35	N	-0.888117	-1.134423	-0.378276
C36	C	-0.860825	-1.084177	-0.428429
O37	O	-0.889073	-1.041467	-0.471091
C38	C	-0.806222	-1.084151	-0.428422
C39	C	-0.778909	-1.134367	-0.378259
C40	C	-0.778885	-1.234822	-0.277952
C41	C	-0.724285	-1.234790	-0.277941
C42	C	-0.696997	-1.184547	-0.328088
C43	C	-0.724309	-1.134335	-0.378247
C44	C	-0.778931	-1.033910	-0.478579
C45	C	-0.724324	-1.033889	-0.478567
C46	C	-0.697011	-1.084104	-0.428404
C47	C	-0.642420	-1.084060	-0.428383
N48	N	-0.615105	-1.134278	-0.378229
C49	C	-0.642393	-1.184521	-0.328081
C50	C	-0.975496	-1.084236	-0.428441
C51	C	-1.030098	-1.084258	-0.428445
C52	C	-1.030071	-1.184722	-0.328138
C53	C	-0.975468	-1.184696	-0.328131
C54	C	-0.948181	-1.134454	-0.378287
C55	C	-0.527728	-1.184450	-0.328061
C56	C	-0.473123	-1.184412	-0.328052
C57	C	-0.473155	-1.083951	-0.428361
C58	C	-0.527755	-1.083986	-0.428368
C59	C	-0.555041	-1.134242	-0.378215
O60	O	-0.614149	-1.041334	-0.470990
O61	O	-0.614139	-1.227232	-0.285434
C62	C	-0.115505	-1.134439	-0.378277
C63	C	-0.057391	-1.134505	-0.378300
C64	C	-0.251840	-1.134333	-0.582969
C65	C	-0.251823	-1.134353	-0.670218
C66	C	-0.251887	-0.339029	-0.378245
C67	C	-0.251883	-0.426279	-0.378232
C68	C	-0.218383	-1.184598	-0.711230
C69	C	-0.218366	-1.184608	-0.793211
C70	C	-0.251791	-1.134375	-0.834178
C71	C	-0.285233	-1.084124	-0.793160
C72	C	-0.285247	-1.084111	-0.711181
C73	C	-0.285201	-1.084156	-0.964031
C74	C	-0.285188	-1.084169	-1.046015
C75	C	-0.218320	-1.184652	-1.046060
C76	C	-0.218334	-1.184639	-0.964081
C77	C	-0.251777	-1.134389	-0.923069
C78	C	-0.251879	-1.134283	-0.174276
C79	C	-0.251748	-1.134415	-0.087027
H80	H	-0.191128	-0.582636	-0.287315
H81	H	-0.450928	-1.043040	-0.469188
C82	C	-0.808962	-0.978671	-0.533766
N83	N	-0.831581	-0.937062	-0.575338
H84	H	-1.052299	-1.225636	-0.287308
C85	C	-0.181532	-1.239927	-1.091174
N86	N	-0.153827	-1.281561	-1.125158
C87	C	-0.945485	-1.028965	-0.483623
N88	N	-0.922883	-0.987340	-0.525191
H89	H	-0.312618	-0.686736	-0.469127
H90	H	-0.702109	-0.992977	-0.519413
H91	H	-0.549994	-1.043099	-0.469217
H92	H	-0.801098	-1.275740	-0.237116
C93	C	-0.322193	-0.594321	-0.483450
N94	N	-0.349934	-0.628275	-0.524964
H95	H	-0.312627	-0.433879	-0.469148
C96	C	-0.181611	-1.239858	-0.666173
N97	N	-0.153911	-1.281479	-0.632239
H98	H	-0.191119	-1.225547	-0.930727
H99	H	-0.312426	-1.043225	-0.930641
C100	C	-0.181563	-0.675045	-0.272989
N101	N	-0.153825	-0.641088	-0.231473
H102	H	-0.191135	-0.433908	-0.287330
H103	H	-0.450887	-1.225303	-0.287200
H104	H	-0.312447	-1.043221	-0.826523
C105	C	-0.181559	-0.847203	-0.272971
N106	N	-0.153816	-0.881168	-0.231448
C107	C	-0.322035	-1.028839	-0.666069
N108	N	-0.349743	-0.987204	-0.632091
H109	H	-0.953233	-1.225586	-0.287284
H110	H	-0.549938	-1.225375	-0.287223
C111	C	-1.060135	-1.029010	-0.483621
N112	N	-1.082758	-0.987398	-0.525185
C113	C	-0.181580	-1.239883	-0.838320
N114	N	-0.153871	-1.281519	-0.872295
C115	C	-0.321955	-1.028906	-1.091078
N116	N	-0.349647	-0.987280	-1.125019
H117	H	-0.702050	-1.275682	-0.237096
H118	H	-0.312618	-0.835454	-0.469112
