data_functionalizedCrystal
_audit_creation_method	'MofGen! by Chris Wilmer'
_symmetry_space_group_name_H-M	'P1'
_symmetry_Int_Tables_number	1
_symmetry_cell_setting	triclinic
loop_
_symmetry_equiv_pos_as_xyz
  x,y,z
_cell_length_a	14.044220
_cell_length_b	8.965430
_cell_length_c	14.044220
_cell_angle_alpha	89.999476
_cell_angle_beta	86.811122
_cell_angle_gamma	89.999271
loop_
_atom_site_label
_atom_site_type_symbol
_atom_site_fract_x
_atom_site_fract_y
_atom_site_fract_z
O1	O	1.277167	0.123887	-0.230160
O2	O	1.000496	0.123924	-0.221855
O3	O	1.134679	0.123891	-0.087672
O4	O	1.142984	0.123920	-0.364343
O5	O	1.134667	-0.124188	-0.087680
O6	O	1.000484	-0.124155	-0.221863
O7	O	1.277156	-0.124192	-0.230169
Cu8	Cu	1.138819	-0.146825	-0.226017
Cu9	Cu	1.138833	0.146557	-0.226007
O10	O	1.142973	-0.124159	-0.364352
C11	C	0.964868	-0.000111	-0.218223
C12	C	0.858725	-0.000097	-0.207379
N13	N	1.138816	-0.353174	-0.226024
C14	C	0.664388	-0.000128	-0.187553
C15	C	0.613258	-0.000127	-0.264467
C16	C	0.505122	-0.000144	-0.253435
C17	C	0.772534	-0.000111	-0.198583
C18	C	1.076738	-0.450465	-0.288055
C19	C	1.164577	-0.549888	-0.313875
C20	C	1.051015	-0.549878	-0.200216
C21	C	1.226701	-0.450409	-0.251891
C22	C	1.113080	-0.450390	-0.138189
C23	C	1.200977	-0.549768	-0.163977
C24	C	1.312783	-0.000154	-0.233800
C25	C	1.418926	-0.000158	-0.244645
C26	C	1.131037	-0.000148	-0.052054
C27	C	1.120193	-0.000149	0.054088
N28	N	1.138842	0.352906	-0.225993
C29	C	1.146614	-0.000116	-0.399969
C30	C	1.157459	-0.000106	-0.506112
C31	C	1.100366	-0.000125	0.248426
C32	C	1.177281	-0.000130	0.299556
C33	C	1.166249	-0.000117	0.407692
C34	C	1.111397	-0.000138	0.140280
H35	H	0.650697	-0.000112	-0.338600
Cl36	Cl	1.282139	-0.616677	-0.082969
H37	H	1.251414	-0.000040	0.262117
H38	H	1.026239	-0.000111	0.285863
H39	H	0.976752	-0.593575	-0.178401
H40	H	0.626951	-0.000144	-0.113425
H41	H	1.186362	-0.593592	-0.388143
Cl42	Cl	0.995776	-0.383135	-0.369129
H43	H	1.300988	-0.406899	-0.273794
Cl44	Cl	1.079406	-0.382854	-0.023557
