data_functionalizedCrystal
_audit_creation_method	'MofGen! by Chris Wilmer'
_symmetry_space_group_name_H-M	'P1'
_symmetry_Int_Tables_number	1
_symmetry_cell_setting	triclinic
loop_
_symmetry_equiv_pos_as_xyz
  x,y,z
_cell_length_a	15.995350
_cell_length_b	15.995350
_cell_length_c	12.996460
_cell_angle_alpha	89.998059
_cell_angle_beta	90.002563
_cell_angle_gamma	83.492375
loop_
_atom_site_label
_atom_site_type_symbol
_atom_site_fract_x
_atom_site_fract_y
_atom_site_fract_z
O1	O	1.110988	0.107921	0.085474
O2	O	0.867213	0.121248	0.085495
O3	O	0.995764	-0.007303	0.085483
O4	O	0.982437	0.236472	0.085486
O5	O	0.995748	-0.007296	-0.085651
O6	O	0.867196	0.121256	-0.085639
O7	O	1.110972	0.107928	-0.085659
Cu8	Cu	0.989083	0.114593	-0.101275
Cu9	Cu	0.989102	0.114584	0.101111
O10	O	0.982420	0.236480	-0.085648
C11	C	0.836010	0.120701	-0.000069
C12	C	0.743060	0.119049	-0.000061
C13	C	0.995205	-0.038494	-0.000082
C14	C	0.993553	-0.131444	-0.000076
C15	C	0.405312	0.113117	-0.000083
C16	C	0.452746	0.021565	-0.000466
C17	C	0.549436	0.023217	-0.000073
C18	C	0.572873	0.116060	-0.000073
C19	C	0.531795	0.161212	0.097650
C20	C	0.435159	0.158912	0.097724
C21	C	0.434801	0.160812	-0.096887
C22	C	0.531747	0.160790	-0.098171
C23	C	0.667570	0.117727	-0.000063
C24	C	0.310614	0.111452	-0.000085
C25	C	0.987621	-0.469192	-0.000079
C26	C	0.896069	-0.421758	0.000313
C27	C	0.897721	-0.325068	-0.000073
C28	C	0.990564	-0.301631	-0.000077
C29	C	1.035711	-0.342705	-0.097804
C30	C	1.033411	-0.439340	-0.097886
C31	C	1.035321	-0.439707	0.096725
C32	C	1.035299	-0.342762	0.098017
C33	C	0.992231	-0.206934	-0.000079
C34	C	0.985956	-0.563890	-0.000083
C35	C	1.142175	0.108476	-0.000093
C36	C	1.235125	0.110127	-0.000094
C37	C	0.982980	0.267671	-0.000080
C38	C	0.984631	0.360621	-0.000080
N39	N	0.989075	0.114598	-0.243622
C40	C	0.989079	0.114601	-0.336728
C41	C	0.989086	0.114595	-0.453533
C42	C	0.989097	0.114586	-0.546631
C43	C	0.989106	0.114581	-0.663444
N44	N	0.989116	0.114572	0.243458
H45	H	0.577858	-0.012275	-0.070124
F46	F	0.851002	-0.288638	-0.091787
H47	H	0.859484	-0.440293	0.070396
F48	F	1.123549	-0.481221	0.097582
H49	H	0.559056	0.127830	-0.170466
H50	H	0.545920	0.229421	0.101283
F51	F	0.992487	-0.306761	0.192527
F52	F	0.996200	-0.466549	0.193543
F53	F	0.990359	-0.463260	-0.193365
H54	H	1.100627	-0.471588	-0.102323
F55	F	0.393006	0.246766	0.103522
F56	F	0.411235	0.115865	0.193205
H57	H	0.434217	-0.015027	-0.070546
F58	F	0.585836	-0.023306	0.091794
H59	H	0.560176	0.129845	0.170376
H60	H	0.547111	0.228494	-0.104074
F61	F	0.393288	0.249040	-0.097752
H62	H	0.433159	-0.014865	0.069228
H63	H	0.414259	0.130885	-0.170958
F64	F	0.851334	-0.287919	0.091494
H65	H	0.859632	-0.441349	-0.069373
H66	H	1.103919	-0.328579	-0.101441
H67	H	1.004340	-0.314320	-0.170527
F68	F	1.123794	-0.322679	0.105732
