data_functionalizedCrystal
_audit_creation_method	'MofGen! by Chris Wilmer'
_symmetry_space_group_name_H-M	'P1'
_symmetry_Int_Tables_number	1
_symmetry_cell_setting	triclinic
loop_
_symmetry_equiv_pos_as_xyz
  x,y,z
_cell_length_a	27.731994
_cell_length_b	14.971486
_cell_length_c	13.448316
_cell_angle_alpha	89.993189
_cell_angle_beta	89.999318
_cell_angle_gamma	83.117331
loop_
_atom_site_label
_atom_site_type_symbol
_atom_site_fract_x
_atom_site_fract_y
_atom_site_fract_z
O1	O	0.641436	0.106198	-0.082551
O2	O	0.500714	0.122431	-0.082584
O3	O	0.574846	-0.015946	-0.082559
O4	O	0.567303	0.244576	-0.082575
O5	O	0.574837	-0.015954	0.082824
O6	O	0.500704	0.122423	0.082800
O7	O	0.641427	0.106190	0.082833
Cu8	Cu	0.571065	0.114306	0.097917
Cu9	Cu	0.571076	0.114316	-0.097668
O10	O	0.567294	0.244568	0.082808
C11	C	0.574504	-0.049269	0.000132
C12	C	0.573493	-0.148550	0.000131
C13	C	0.482700	0.122094	0.000104
C14	C	0.429039	0.121091	0.000091
C15	C	0.617045	-0.206479	0.000142
C16	C	0.616092	-0.299763	0.000132
C17	C	0.571587	-0.335116	0.000118
C18	C	0.528033	-0.277180	0.000104
C19	C	0.528986	-0.183898	0.000107
C20	C	0.526049	-0.471610	0.000100
C21	C	0.525096	-0.564899	0.000098
C22	C	0.613155	-0.587476	0.000125
C23	C	0.614108	-0.494194	0.000128
C24	C	0.570553	-0.436264	0.000116
C25	C	0.096286	0.114766	0.090281
C26	C	-0.105389	0.110951	0.090292
O27	O	-0.131469	0.110415	0.166962
N28	N	-0.130601	0.110482	0.000142
C29	C	-0.105391	0.110960	-0.090018
O30	O	-0.131462	0.110464	-0.166697
C31	C	0.096284	0.114769	-0.090029
C32	C	0.121493	0.115247	0.000128
C33	C	0.121495	0.115243	0.180430
C34	C	0.171911	0.116202	0.180426
C35	C	0.197117	0.116683	0.090273
C36	C	0.171909	0.116206	0.000124
C37	C	0.121494	0.115241	-0.180188
C38	C	0.171917	0.116191	-0.180182
C39	C	0.197125	0.116669	-0.090026
C40	C	0.247531	0.117645	-0.090033
N41	N	0.272743	0.118115	0.000118
C42	C	0.247536	0.117633	0.090271
C43	C	-0.211273	0.108963	-0.090006
C44	C	-0.261692	0.108012	-0.090004
C45	C	-0.261687	0.108001	0.090307
C46	C	-0.211268	0.108958	0.090304
C47	C	-0.186061	0.109432	0.000144
C48	C	0.353412	0.119647	0.090256
C49	C	0.403832	0.120609	0.090244
C50	C	0.403823	0.120616	-0.090066
C51	C	0.353407	0.119658	-0.090055
C52	C	0.328204	0.119171	0.000114
O53	O	0.273642	0.118171	-0.166662
O54	O	0.273617	0.118109	0.166938
C55	C	0.045871	0.113807	0.090285
C56	C	0.020662	0.113330	0.000135
C57	C	0.045869	0.113811	-0.090017
C58	C	-0.029757	0.112379	0.000138
C59	C	-0.054964	0.111898	0.090291
C60	C	-0.029752	0.112367	0.180441
C61	C	0.020664	0.113326	0.180438
C62	C	0.020657	0.113342	-0.180168
C63	C	-0.029759	0.112384	-0.180157
C64	C	-0.054966	0.111903	-0.090004
C65	C	0.659440	0.106528	0.000143
C66	C	0.713101	0.107531	0.000149
C67	C	0.567636	0.277891	0.000115
C68	C	0.568647	0.377172	0.000109
N69	N	0.571060	0.114298	0.235482
N70	N	0.571084	0.114316	-0.235233
C71	C	0.603897	0.053050	0.287533
C72	C	0.603900	0.053049	0.391636
C73	C	0.571068	0.114302	0.443686
C74	C	0.538229	0.175553	0.391628
C75	C	0.538224	0.175549	0.287526
C76	C	0.538242	0.175559	0.608608
C77	C	0.538247	0.175565	0.712716
C78	C	0.603918	0.053059	0.712717
C79	C	0.603913	0.053055	0.608616
C80	C	0.571074	0.114308	0.556565
H81	H	0.653285	-0.177703	0.000160
H82	H	0.511484	0.225423	0.245147
H83	H	0.488856	-0.593680	0.000103
H84	H	0.630634	0.003174	0.245160
C85	C	0.478139	-0.407887	0.000089
C86	C	0.466681	-0.340663	0.085969
C87	C	0.418772	-0.276940	0.085965
C88	C	0.382320	-0.280441	0.000081
C89	C	0.393776	-0.347667	-0.085805
C90	C	0.441686	-0.411390	-0.085801
H91	H	0.493666	-0.338069	0.149551
H92	H	0.410291	-0.227175	0.149544
H93	H	0.346855	-0.233269	0.000078
H94	H	0.366792	-0.350261	-0.149387
H95	H	0.450166	-0.461156	-0.149380
H96	H	0.630657	0.003185	0.755104
H97	H	0.651555	-0.346926	0.000143
H98	H	0.511494	0.225424	0.434013
H99	H	0.491797	-0.305972	0.000086
C100	C	0.640027	-0.014321	0.551356
C101	C	0.621097	-0.082477	0.479802
C102	C	0.657210	-0.149854	0.422540
C103	C	0.712253	-0.149076	0.436831
C104	C	0.731186	-0.080918	0.508388
C105	C	0.695073	-0.013540	0.565650
H106	H	0.580349	-0.083055	0.469220
H107	H	0.643195	-0.200310	0.369569
H108	H	0.738986	-0.198953	0.394443
H109	H	0.771934	-0.080340	0.518971
H110	H	0.709088	0.036915	0.618622
C111	C	0.663063	-0.455305	0.000141
C112	C	0.699253	-0.477453	0.086025
C113	C	0.748209	-0.438566	0.086033
C114	C	0.760975	-0.377531	0.000157
C115	C	0.724784	-0.355380	-0.085733
C116	C	0.675828	-0.394267	-0.085742
H117	H	0.689803	-0.522638	0.149601
H118	H	0.774999	-0.454964	0.149616
H119	H	0.797215	-0.348744	0.000164
H120	H	0.734234	-0.310195	-0.149310
H121	H	0.649038	-0.377869	-0.149324
C122	C	0.502129	0.242939	0.769969
C123	C	0.466004	0.310303	0.712711
C124	C	0.429885	0.377678	0.769961
C125	C	0.429890	0.377689	0.884469
C126	C	0.466016	0.310322	0.941732
C127	C	0.502136	0.242947	0.884482
H128	H	0.465999	0.310298	0.627940
H129	H	0.403142	0.427548	0.727570
H130	H	0.403152	0.427564	0.926848
H131	H	0.466021	0.310328	1.026503
H132	H	0.528878	0.193078	0.926874
C133	C	0.199643	0.116717	-0.279361
C134	C	0.239753	0.039678	-0.304157
C135	C	0.267479	0.040209	-0.403334
C136	C	0.255094	0.117778	-0.477715
C137	C	0.214981	0.194823	-0.452921
C138	C	0.187256	0.194293	-0.353744
H139	H	0.248923	-0.017748	-0.249094
H140	H	0.297172	-0.016825	-0.421688
H141	H	0.275618	0.118171	-0.551132
H142	H	0.205812	0.252250	-0.507984
H143	H	0.157562	0.251327	-0.335391
H144	H	0.648618	-0.634648	0.000131
C145	C	0.481080	-0.120171	0.000096
C146	C	0.444631	-0.123674	-0.085794
C147	C	0.396723	-0.059948	-0.085810
C148	C	0.385264	0.007282	0.000063
C149	C	0.421713	0.010788	0.085960
C150	C	0.469621	-0.052939	0.085977
H151	H	0.453114	-0.173444	-0.149368
H152	H	0.369741	-0.062543	-0.149397
H153	H	0.349799	0.054456	0.000051
H154	H	0.413231	0.060558	0.149535
H155	H	0.496603	-0.050343	0.149563
H156	H	0.424355	0.121002	0.163664
H157	H	0.332897	0.119258	0.163680
H158	H	0.192432	0.116586	0.253841
H159	H	0.100977	0.114849	0.253847
H160	H	-0.190746	0.109349	0.163717
C161	C	0.431555	0.121142	-0.189233
C162	C	0.419179	0.198706	-0.263624
C163	C	0.446913	0.199225	-0.362793
C164	C	0.487022	0.122179	-0.387570
C165	C	0.499400	0.044609	-0.313177
C166	C	0.471667	0.044090	-0.214008
H167	H	0.389486	0.255745	-0.245284
H168	H	0.437749	0.256648	-0.417863
H169	H	0.507552	0.122563	-0.460980
H170	H	0.529093	-0.012430	-0.331516
H171	H	0.480830	-0.013333	-0.158938
H172	H	-0.282214	0.107637	-0.163418
C173	C	-0.289419	0.107465	0.189478
C174	C	-0.329532	0.184500	0.214274
C175	C	-0.357265	0.183955	0.313439
C176	C	-0.344887	0.106375	0.387810
C177	C	-0.304772	0.029334	0.363016
C178	C	-0.277039	0.029879	0.263851
H179	H	-0.338697	0.241935	0.159219
H180	H	-0.386961	0.240987	0.331793
H181	H	-0.365417	0.105972	0.461218
H182	H	-0.295607	-0.028101	0.418071
H183	H	-0.247343	-0.027153	0.245497
C184	C	-0.183553	0.109492	-0.189192
C185	C	-0.185047	0.031672	-0.263566
C186	C	-0.157330	0.032206	-0.362752
C187	C	-0.128119	0.110561	-0.387565
C188	C	-0.126623	0.188386	-0.313190
C189	C	-0.154340	0.187852	-0.214003
H190	H	-0.206673	-0.026336	-0.245199
H191	H	-0.158438	-0.025406	-0.417810
H192	H	-0.107601	0.110956	-0.460989
H193	H	-0.104998	0.246394	-0.331556
H194	H	-0.153232	0.245464	-0.158945
C195	C	0.093776	0.114711	-0.279366
C196	C	0.106166	0.037140	-0.353722
C197	C	0.078450	0.036609	-0.452908
C198	C	0.038343	0.113649	-0.477737
C199	C	0.025950	0.191226	-0.403378
C200	C	0.053667	0.191757	-0.304193
H201	H	0.135858	-0.019895	-0.335344
H202	H	0.087624	-0.020819	-0.507953
H203	H	0.017825	0.113257	-0.551161
H204	H	-0.003741	0.248261	-0.421757
H205	H	0.044493	0.249185	-0.249147
H206	H	0.041184	0.113715	0.253852
H207	H	0.332880	0.119283	-0.163468
H208	H	-0.050284	0.111980	0.253847
H209	H	-0.050280	0.112002	-0.253579
H210	H	0.630637	0.003175	0.434016
H211	H	0.041175	0.113731	-0.253583
H212	H	0.511499	0.225435	0.566231
