data_functionalizedCrystal
_audit_creation_method	'MofGen! by Chris Wilmer'
_symmetry_space_group_name_H-M	'P1'
_symmetry_Int_Tables_number	1
_symmetry_cell_setting	triclinic
loop_
_symmetry_equiv_pos_as_xyz
  x,y,z
_cell_length_a	14.853569
_cell_length_b	17.666332
_cell_length_c	14.853568
_cell_angle_alpha	89.998117
_cell_angle_beta	96.364624
_cell_angle_gamma	90.007377
loop_
_atom_site_label
_atom_site_type_symbol
_atom_site_fract_x
_atom_site_fract_y
_atom_site_fract_z
O1	O	1.196370	0.062906	-0.117712
O2	O	1.696370	0.562906	0.382288
O3	O	0.933911	0.062914	-0.131732
O4	O	1.433911	0.562914	0.368268
O5	O	1.072151	0.062913	0.006507
O6	O	1.572151	0.562913	0.506507
O7	O	1.058130	0.062906	-0.255952
O8	O	1.558130	0.562906	0.244048
O9	O	1.072127	-0.062983	0.006515
O10	O	1.572127	0.437017	0.506515
O11	O	0.933887	-0.062983	-0.131725
O12	O	1.433887	0.437017	0.368275
O13	O	1.196346	-0.062991	-0.117705
O14	O	1.696346	0.437009	0.382295
Cu15	Cu	1.065114	-0.074482	-0.124714
Cu16	Cu	1.565114	0.425518	0.375286
Cu17	Cu	1.065143	0.074405	-0.124723
Cu18	Cu	1.565143	0.574405	0.375277
O19	O	1.058106	-0.062990	-0.255945
O20	O	1.558106	0.437010	0.244055
C21	C	0.900310	-0.000033	-0.131093
C22	C	1.400310	0.499967	0.368907
C23	C	0.800227	-0.000030	-0.129189
C24	C	1.300227	0.499970	0.370811
C25	C	0.763850	-0.000025	-0.046178
C26	C	1.263850	0.499975	0.453822
C27	C	0.742561	-0.000038	-0.210410
C28	C	1.242561	0.499962	0.289590
C29	C	0.648527	-0.000039	-0.208624
C30	C	1.148527	0.499961	0.291376
C31	C	0.612150	-0.000034	-0.125613
C32	C	1.112150	0.499966	0.374387
C33	C	0.669807	-0.000028	-0.044389
C34	C	1.169807	0.499972	0.455611
C35	C	0.590862	-0.000052	-0.289847
C36	C	1.090862	0.499948	0.210153
C37	C	0.496822	-0.000054	-0.288064
C38	C	0.996822	0.499946	0.211936
C39	C	0.460444	-0.000043	-0.205052
C40	C	0.960444	0.499957	0.294948
C41	C	0.518107	-0.000037	-0.123824
C42	C	1.018107	0.499963	0.376176
C43	C	0.481730	-0.000032	-0.040813
C44	C	0.981730	0.499968	0.459187
C45	C	0.539393	-0.000020	0.040415
C46	C	1.039393	0.499980	0.540415
C47	C	0.633429	-0.000018	0.038623
C48	C	1.133429	0.499982	0.538623
C49	C	0.366407	-0.000046	-0.203259
C50	C	0.866407	0.499954	0.296741
C51	C	0.387688	-0.000035	-0.039024
C52	C	0.887688	0.499965	0.460976
N53	N	1.065101	-0.179202	-0.124708
N54	N	1.565101	0.320798	0.375292
C55	C	1.126333	-0.218812	-0.063525
C56	C	1.626333	0.281188	0.436475
C57	C	1.126338	-0.298059	-0.063521
C58	C	1.626338	0.201941	0.436479
C59	C	1.065120	-0.337694	-0.124714
C60	C	1.565120	0.162306	0.375286
C61	C	1.003876	-0.298074	-0.185902
C62	C	1.503876	0.201926	0.314098
C63	C	1.003866	-0.218828	-0.185898
C64	C	1.503866	0.281172	0.314102
N65	N	1.053744	-0.462114	-0.204472
N66	N	1.553744	0.037886	0.295528
N67	N	1.053758	-0.537395	-0.204473
N68	N	1.553758	-0.037395	0.295527
C69	C	1.065143	-0.576458	-0.124727
C70	C	1.565143	-0.076458	0.375273
N71	N	1.076531	-0.537396	-0.044978
N72	N	1.576531	-0.037396	0.455022
N73	N	1.076521	-0.462109	-0.044979
N74	N	1.576521	0.037891	0.455021
C75	C	1.065123	-0.423623	-0.124725
C76	C	1.565123	0.076377	0.375275
C77	C	1.126385	-0.701997	-0.063535
C78	C	1.626385	-0.201997	0.436465
C79	C	1.126384	-0.781246	-0.063529
C80	C	1.626384	-0.281246	0.436471
C81	C	1.003925	-0.781260	-0.185918
C82	C	1.503925	-0.281260	0.314082
C83	C	1.003922	-0.702012	-0.185916
C84	C	1.503922	-0.202012	0.314084
C85	C	1.065157	-0.662386	-0.124725
C86	C	1.565157	-0.162386	0.375275
C87	C	1.229947	-0.000042	-0.118344
C88	C	1.729947	0.499958	0.381656
C89	C	1.330030	-0.000041	-0.120249
C90	C	1.830030	0.499959	0.379751
C91	C	1.071504	-0.000032	0.040100
C92	C	1.571504	0.499968	0.540100
C93	C	1.069599	-0.000025	0.140183
C94	C	1.569599	0.499975	0.640183
N95	N	1.065164	0.179125	-0.124723
N96	N	1.565164	0.679125	0.375277
C97	C	0.979433	-0.000031	0.552718
C98	C	1.479433	0.499969	1.052718
C99	C	1.143666	-0.000036	0.573998
C100	C	1.643666	0.499964	1.073998
C101	C	1.145456	-0.000033	0.479964
C102	C	1.645456	0.499967	0.979964
C103	C	1.064233	-0.000030	0.422303
C104	C	1.564233	0.499970	0.922303
C105	C	0.981221	-0.000030	0.458675
C106	C	1.481221	0.499970	0.958675
C107	C	1.228467	-0.000040	0.443584
C108	C	1.728467	0.499960	0.943584
C109	C	1.230261	-0.000038	0.349545
C110	C	1.730261	0.499962	0.849545
C111	C	1.149037	-0.000029	0.291882
C112	C	1.649037	0.499971	0.791882
C113	C	1.066021	-0.000029	0.328260
C114	C	1.566021	0.499971	0.828260
C115	C	0.984799	-0.000026	0.270598
C116	C	1.484799	0.499974	0.770598
C117	C	0.901782	-0.000020	0.306974
C118	C	1.401782	0.499980	0.806974
C119	C	0.899997	-0.000022	0.401012
C120	C	1.399997	0.499978	0.901012
C121	C	1.150822	-0.000028	0.197845
C122	C	1.650822	0.499972	0.697845
C123	C	0.986587	-0.000025	0.176556
C124	C	1.486587	0.499975	0.676556
C125	C	1.058753	-0.000040	0.710463
C126	C	1.558753	0.499960	1.210463
C127	C	1.060655	-0.000034	0.610379
C128	C	1.560655	0.499966	1.110379
H129	H	0.509762	-0.000011	0.108003
H130	H	1.009762	0.499989	0.608003
H131	H	0.772185	-0.000047	-0.277994
H132	H	1.272185	0.499953	0.222006
H133	H	1.176192	-0.186550	-0.013698
H134	H	1.676192	0.313450	0.486302
H135	H	0.954077	-0.813530	-0.235740
H136	H	1.454077	-0.313530	0.264260
H137	H	0.954029	-0.330349	-0.235725
H138	H	1.454029	0.169651	0.264275
O139	O	0.819820	0.000122	0.032748
O140	O	1.319820	0.500122	0.532748
C141	C	0.803298	0.065318	0.083139
C142	C	1.303298	0.565318	0.583139
H143	H	0.771222	0.110884	0.035575
H144	H	1.271222	0.610884	0.535575
H145	H	0.869968	0.087214	0.119208
H146	H	1.369968	0.587214	0.619208
H147	H	0.755348	0.050577	0.135380
H148	H	1.255348	0.550577	0.635380
H149	H	1.176203	-0.330316	-0.013697
H150	H	1.676203	0.169684	0.486303
H151	H	1.297858	-0.000042	0.319937
H152	H	1.797858	0.499958	0.819937
O153	O	0.689405	0.000124	0.117545
O154	O	1.189405	0.500124	0.617545
C155	C	0.672900	0.065322	0.167941
C156	C	1.172900	0.565322	0.667941
H157	H	0.640824	0.110892	0.120383
H158	H	1.140824	0.610892	0.620383
H159	H	0.739577	0.087210	0.204003
H160	H	1.239577	0.587210	0.704003
H161	H	0.624955	0.050584	0.220189
H162	H	1.124955	0.550584	0.720189
O163	O	0.310360	-0.000192	-0.282130
O164	O	0.810360	0.499808	0.217870
C165	C	0.255303	-0.065385	-0.285986
C166	C	0.755303	0.434615	0.214014
H167	H	0.289675	-0.110953	-0.239916
H168	H	0.789675	0.389047	0.260084
H169	H	0.244822	-0.087282	-0.358589
H170	H	0.744822	0.412718	0.141411
H171	H	0.186895	-0.050640	-0.262574
H172	H	0.686895	0.449360	0.237426
O173	O	0.626248	0.000065	-0.370451
O174	O	1.126248	0.500065	0.129549
C175	C	0.680035	0.065256	-0.376406
C176	C	1.180035	0.565256	0.123594
H177	H	0.657731	0.110842	-0.329294
H178	H	1.157731	0.610842	0.170706
H179	H	0.671707	0.087122	-0.449063
H180	H	1.171707	0.587122	0.050937
H181	H	0.754159	0.050519	-0.355679
H182	H	1.254159	0.550519	0.144321
O183	O	0.440943	-0.000026	-0.367048
O184	O	0.940943	0.499974	0.132952
C185	C	0.493216	-0.000051	-0.440697
C186	C	0.993216	0.499949	0.059303
H187	H	0.563374	0.023783	-0.417900
H188	H	1.063374	0.523783	0.082100
H189	H	0.458610	0.036498	-0.497616
H190	H	0.958610	0.536498	0.002384
H191	H	0.499935	-0.060452	-0.466130
H192	H	0.999935	0.439548	0.033870
H193	H	1.218413	-0.000037	0.168232
H194	H	1.718413	0.499963	0.668232
H195	H	0.832409	-0.000018	0.430638
H196	H	1.332409	0.499982	0.930638
H197	H	0.954002	-0.186577	-0.235721
H198	H	1.454002	0.313423	0.264279
O199	O	1.185892	-0.663616	-0.004004
O200	O	1.685892	-0.163616	0.495996
C201	C	1.239949	-0.715575	0.049992
C202	C	1.739949	-0.215575	0.549992
H203	H	1.202992	-0.772070	0.051078
H204	H	1.702992	-0.272070	0.551078
H205	H	1.253612	-0.692678	0.121966
H206	H	1.753612	-0.192678	0.621966
H207	H	1.306955	-0.723991	0.020597
H208	H	1.806955	-0.223991	0.520597
O209	O	0.944414	-0.663648	-0.245443
O210	O	1.444414	-0.163648	0.254557
C211	C	0.890364	-0.715620	-0.299440
C212	C	1.390364	-0.215620	0.200560
H213	H	0.927331	-0.772103	-0.300529
H214	H	1.427331	-0.272103	0.199471
H215	H	0.876695	-0.692722	-0.371413
H216	H	1.376695	-0.192722	0.128587
H217	H	0.823361	-0.724063	-0.270044
H218	H	1.323361	-0.224063	0.229956
O219	O	0.352462	0.000072	0.041671
O220	O	0.852462	0.500072	0.541671
C221	C	0.381899	0.065292	0.091167
C222	C	0.881899	0.565292	0.591167
H223	H	0.447150	0.087032	0.066514
H224	H	0.947150	0.587032	0.566514
H225	H	0.394854	0.050636	0.166230
H226	H	0.894854	0.550636	0.666230
H227	H	0.327499	0.110944	0.080783
H228	H	0.827499	0.610944	0.580783
O229	O	0.822801	-0.000049	0.251087
O230	O	1.322801	0.499951	0.751087
C231	C	0.749143	-0.000022	0.303349
C232	C	1.249143	0.499978	0.803349
H233	H	0.771927	-0.023856	0.373506
H234	H	1.271927	0.476144	0.873506
H235	H	0.692222	-0.036569	0.268732
H236	H	1.192222	0.463431	0.768732
H237	H	0.723719	0.060380	0.310071
H238	H	1.223719	0.560380	0.810071
O239	O	0.907769	0.000012	0.120418
O240	O	1.407769	0.500012	0.620418
C241	C	0.927143	-0.000011	0.029616
C242	C	1.427143	0.499989	0.529616
H243	H	0.997965	0.023819	0.025916
H244	H	1.497965	0.523819	0.525916
H245	H	0.875387	0.036542	-0.012921
H246	H	1.375387	0.536542	0.487079
H247	H	0.923743	-0.060411	0.002430
H248	H	1.423743	0.439589	0.502430
H249	H	1.176244	-0.813497	-0.013702
H250	H	1.676244	-0.313497	0.486298
O251	O	0.898872	-0.000060	0.588197
O252	O	1.398872	0.499940	1.088197
C253	C	0.914703	-0.000038	0.683561
C254	C	1.414703	0.499962	1.183561
H255	H	0.985025	-0.023875	0.705556
H256	H	1.485025	0.476125	1.205556
H257	H	0.861571	-0.036586	0.712504
H258	H	1.361571	0.463414	1.212504
H259	H	0.910315	0.060362	0.709738
H260	H	1.410315	0.560362	1.209738
O261	O	1.222535	0.000093	0.630044
O262	O	1.722535	0.500093	1.130044
C263	C	1.226413	0.065283	0.685096
C264	C	1.726413	0.565283	1.185096
H265	H	1.180363	0.110859	0.650719
H266	H	1.680363	0.610859	1.150719
H267	H	1.299023	0.087167	0.695582
H268	H	1.799023	0.587167	1.195582
H269	H	1.202989	0.050537	0.753504
H270	H	1.702989	0.550537	1.253504
H271	H	1.294594	-0.000050	0.490539
H272	H	1.794594	0.499950	0.990539
