data_functionalizedCrystal
_audit_creation_method	'MofGen! by Chris Wilmer'
_symmetry_space_group_name_H-M	'P1'
_symmetry_Int_Tables_number	1
_symmetry_cell_setting	triclinic
loop_
_symmetry_equiv_pos_as_xyz
  x,y,z
_cell_length_a	25.639239
_cell_length_b	16.625548
_cell_length_c	16.625539
_cell_angle_alpha	89.977655
_cell_angle_beta	90.031255
_cell_angle_gamma	89.961455
loop_
_atom_site_label
_atom_site_type_symbol
_atom_site_fract_x
_atom_site_fract_y
_atom_site_fract_z
Zn1	Zn	-0.208152	-1.232590	0.455931
Zn2	Zn	0.125182	-0.899256	0.789264
Zn3	Zn	0.458515	-0.565923	1.122598
Zn4	Zn	-0.295590	-1.232455	0.321091
Zn5	Zn	0.037744	-0.899121	0.654425
Zn6	Zn	0.371077	-0.565788	0.987758
Zn7	Zn	-0.208170	-1.097751	0.321107
Zn8	Zn	0.125163	-0.764418	0.654441
Zn9	Zn	0.458497	-0.431085	0.987774
Zn10	Zn	-0.295558	-1.097684	0.455877
Zn11	Zn	0.037775	-0.764350	0.789210
Zn12	Zn	0.371109	-0.431017	1.122544
O13	O	-0.251867	-1.165120	0.388502
O14	O	0.081466	-0.831786	0.721835
O15	O	0.414799	-0.498453	1.055168
O16	O	-0.219756	-1.345404	0.438060
O17	O	0.113577	-1.012071	0.771393
O18	O	0.446910	-0.678737	1.104727
O19	O	-0.284014	-1.214558	0.208261
O20	O	0.049319	-0.881224	0.541594
O21	O	0.382652	-0.547891	0.874928
O22	O	-0.135002	-1.115723	0.339021
O23	O	0.198331	-0.782389	0.672355
O24	O	0.531664	-0.449056	1.005688
O25	O	-0.283997	-1.345305	0.338994
O26	O	0.049337	-1.011972	0.672327
O27	O	0.382670	-0.678638	1.005661
O28	O	-0.134989	-1.214788	0.438076
O29	O	0.198344	-0.881455	0.771409
O30	O	0.531678	-0.548121	1.104742
O31	O	-0.219787	-1.115592	0.208273
O32	O	0.113546	-0.782259	0.541606
O33	O	0.446879	-0.448925	0.874939
O34	O	-0.219756	-0.984910	0.338969
O35	O	0.113577	-0.651577	0.672302
O36	O	0.446910	-0.318243	1.005636
O37	O	-0.283942	-1.115607	0.568717
O38	O	0.049391	-0.782274	0.902050
O39	O	0.382724	-0.448941	1.235383
O40	O	-0.283960	-0.984860	0.437984
O41	O	0.049373	-0.651527	0.771317
O42	O	0.382707	-0.318194	1.104650
O43	O	-0.219726	-1.214722	0.568756
O44	O	0.113608	-0.881389	0.902090
O45	O	0.446941	-0.548056	1.235423
O46	O	-0.368751	-1.214492	0.338942
O47	O	-0.035417	-0.881159	0.672275
O48	O	0.297916	-0.547825	1.005608
O49	O	-0.368727	-1.115477	0.437968
O50	O	-0.035394	-0.782143	0.771301
O51	O	0.297939	-0.448810	1.104635
C52	C	-0.251857	-0.955629	0.388473
C53	C	0.081476	-0.622296	0.721806
C54	C	0.414810	-0.288962	1.055139
C55	C	-0.251865	-0.866008	0.388479
C56	C	0.081468	-0.532675	0.721813
C57	C	0.414802	-0.199341	1.055146
C58	C	-0.251864	-0.537832	0.388504
C59	C	0.081469	-0.204499	0.721837
C60	C	0.414803	0.128834	1.055170
C61	C	-0.251863	-0.629141	0.388494
C62	C	0.081470	-0.295807	0.721828
C63	C	0.414804	0.037526	1.055161
C64	C	-0.251865	-0.701917	0.388491
C65	C	0.081468	-0.368584	0.721824
C66	C	0.414802	-0.035250	1.055157
C67	C	-0.251863	-0.793231	0.388483
C68	C	0.081470	-0.459898	0.721816
C69	C	0.414803	-0.126565	1.055149
C70	C	-0.387710	-1.164984	0.388465
C71	C	-0.054377	-0.831651	0.721798
C72	C	0.278957	-0.498318	1.055131
C73	C	-0.445824	-1.165000	0.388476
C74	C	-0.112491	-0.831667	0.721809
C75	C	0.220843	-0.498333	1.055143
C76	C	-0.806187	-1.216812	0.337026
C77	C	-0.472853	-0.883478	0.670360
C78	C	-0.139520	-0.550145	1.003693
C79	C	-0.860791	-1.216843	0.337037
C80	C	-0.527458	-0.883510	0.670371
C81	C	-0.194124	-0.550176	1.003704
O82	O	-0.889027	-1.260755	0.293253
O83	O	-0.555694	-0.927421	0.626586
O84	O	-0.222361	-0.594088	0.959919
N85	N	-0.888106	-1.165262	0.388555
N86	N	-0.554773	-0.831928	0.721888
N87	N	-0.221440	-0.498595	1.055222
C88	C	-0.860815	-1.113651	0.440071
C89	C	-0.527481	-0.780318	0.773405
C90	C	-0.194148	-0.446985	1.106738
O91	O	-0.889063	-1.069780	0.483893
O92	O	-0.555729	-0.736447	0.817226
O93	O	-0.222396	-0.403114	1.150559
C94	C	-0.806211	-1.113625	0.440064
C95	C	-0.472878	-0.780291	0.773397
C96	C	-0.139545	-0.446958	1.106731
C97	C	-0.778899	-1.165204	0.388537
C98	C	-0.445565	-0.831870	0.721870
C99	C	-0.112232	-0.498537	1.055204
C100	C	-0.778874	-1.268387	0.285504
C101	C	-0.445541	-0.935054	0.618838
C102	C	-0.112207	-0.601721	0.952171
C103	C	-0.724273	-1.268355	0.285493
C104	C	-0.390940	-0.935022	0.618826
C105	C	-0.057607	-0.601688	0.952159
C106	C	-0.696985	-1.216747	0.337003
C107	C	-0.363652	-0.883413	0.670336
C108	C	-0.030319	-0.550080	1.003670
C109	C	-0.724298	-1.165171	0.388525
C110	C	-0.390965	-0.831838	0.721859
C111	C	-0.057632	-0.498505	1.055192
C112	C	-0.778921	-1.062019	0.491584
C113	C	-0.445587	-0.728686	0.824917
C114	C	-0.112254	-0.395352	1.158250
C115	C	-0.724314	-1.061997	0.491572
C116	C	-0.390980	-0.728664	0.824906
C117	C	-0.057647	-0.395331	1.158239
C118	C	-0.697001	-1.113576	0.440045
C119	C	-0.363668	-0.780243	0.773379
C120	C	-0.030334	-0.446910	1.106712
C121	C	-0.642410	-1.113531	0.440024
C122	C	-0.309076	-0.780197	0.773358
C123	C	0.024257	-0.446864	1.106691
N124	N	-0.615094	-1.165112	0.388506
N125	N	-0.281761	-0.831779	0.721840
N126	N	0.051572	-0.498445	1.055173
C127	C	-0.642382	-1.216720	0.336996
C128	C	-0.309049	-0.883387	0.670329
C129	C	0.024284	-0.550054	1.003662
C130	C	-0.975485	-1.113712	0.440084
C131	C	-0.642152	-0.780379	0.773417
C132	C	-0.308819	-0.447045	1.106750
C133	C	-1.030088	-1.113734	0.440088
C134	C	-0.696754	-0.780401	0.773421
C135	C	-0.363421	-0.447067	1.106754
C136	C	-1.030060	-1.216927	0.337054
C137	C	-0.696727	-0.883594	0.670388
C138	C	-0.363393	-0.550260	1.003721
C139	C	-0.975457	-1.216900	0.337047
C140	C	-0.642123	-0.883567	0.670380
C141	C	-0.308790	-0.550234	1.003714
C142	C	-0.948170	-1.165293	0.388566
C143	C	-0.614836	-0.831960	0.721899
C144	C	-0.281503	-0.498627	1.055233
C145	C	-0.527717	-1.216648	0.336975
C146	C	-0.194384	-0.883314	0.670308
C147	C	0.138950	-0.549981	1.003641
C148	C	-0.473112	-1.216608	0.336965
C149	C	-0.139778	-0.883275	0.670299
C150	C	0.193555	-0.549941	1.003632
C151	C	-0.473144	-1.113418	0.440001
C152	C	-0.139811	-0.780085	0.773335
C153	C	0.193523	-0.446752	1.106668
C154	C	-0.527745	-1.113454	0.440008
C155	C	-0.194411	-0.780121	0.773341
C156	C	0.138922	-0.446788	1.106675
C157	C	-0.555030	-1.165076	0.388492
C158	C	-0.221697	-0.831742	0.721825
C159	C	0.111637	-0.498409	1.055159
O160	O	-0.614139	-1.069644	0.483789
O161	O	-0.280805	-0.736310	0.817122
O162	O	0.052528	-0.402977	1.150456
O163	O	-0.614128	-1.260591	0.293189
O164	O	-0.280794	-0.927258	0.626523
O165	O	0.052539	-0.593924	0.959856
C166	C	-0.115494	-1.165278	0.388556
C167	C	0.217839	-0.831945	0.721890
C168	C	0.551172	-0.498611	1.055223
C169	C	-0.057380	-1.165345	0.388580
C170	C	0.275953	-0.832012	0.721913
C171	C	0.609286	-0.498679	1.055246
C172	C	-0.251828	-1.165172	0.598811
C173	C	0.081505	-0.831839	0.932144
C174	C	0.414838	-0.498506	1.265477
C175	C	-0.251812	-1.165195	0.688432
C176	C	0.081522	-0.831861	1.021765
C177	C	0.414855	-0.498528	1.355098
C178	C	-0.251875	-0.375429	0.388523
C179	C	0.081459	-0.042095	0.721857
C180	C	0.414792	0.291238	1.055190
C181	C	-0.251869	-0.465050	0.388513
C182	C	0.081464	-0.131716	0.721846
C183	C	0.414798	0.201617	1.055180
C184	C	-0.251868	-1.165114	0.179011
C185	C	0.081465	-0.831781	0.512344
C186	C	0.414798	-0.498447	0.845677
C187	C	-0.251738	-1.165248	0.089390
C188	C	0.081596	-0.831915	0.422723
C189	C	0.414929	-0.498581	0.756057
C190	C	-0.251753	-1.165232	1.016608
C191	C	0.081580	-0.831898	1.349941
C192	C	0.414913	-0.498565	1.683274
C193	C	-0.251771	-1.165219	0.925299
C194	C	0.081562	-0.831886	1.258632
C195	C	0.414895	-0.498553	1.591966
C196	C	-0.251783	-1.165214	0.852523
C197	C	0.081550	-0.831880	1.185856
C198	C	0.414884	-0.498547	1.519189
C199	C	-0.251800	-1.165200	0.761208
C200	C	0.081533	-0.831867	1.094542
C201	C	0.414867	-0.498534	1.427875
H202	H	-0.450875	-1.258610	0.295003
H203	H	-0.117542	-0.925277	0.628336
H204	H	0.215791	-0.591943	0.961670
Cl205	Cl	-0.438829	-1.048547	0.504758
Cl206	Cl	-0.105496	-0.715214	0.838091
Cl207	Cl	0.227837	-0.381881	1.171425
Cl208	Cl	-0.690014	-0.997117	0.556344
Cl209	Cl	-0.356680	-0.663783	0.889678
Cl210	Cl	-0.023347	-0.330450	1.223011
H211	H	-0.801149	-1.020014	0.533539
H212	H	-0.467816	-0.686680	0.866872
H213	H	-0.134483	-0.353347	1.200205
H214	H	-0.549926	-1.258684	0.295027
H215	H	-0.216593	-0.925351	0.628361
H216	H	0.116740	-0.592017	0.961694
Cl217	Cl	-1.064375	-1.281805	0.272296
Cl218	Cl	-0.731042	-0.948472	0.605630
Cl219	Cl	-0.397708	-0.615139	0.938963
H220	H	-0.702039	-1.310357	0.243537
H221	H	-0.368705	-0.977024	0.576871
H222	H	-0.035372	-0.643691	0.910204
H223	H	-0.801086	-1.310417	0.243558
H224	H	-0.467752	-0.977084	0.576891
H225	H	-0.134419	-0.643751	0.910225
H226	H	-0.953222	-1.258901	0.295090
H227	H	-0.619889	-0.925568	0.628423
H228	H	-0.286555	-0.592234	0.961757
Cl229	Cl	-1.064417	-1.048879	0.504858
Cl230	Cl	-0.731083	-0.715546	0.838191
Cl231	Cl	-0.397750	-0.382213	1.171524
Cl232	Cl	-0.941187	-1.048821	0.504850
Cl233	Cl	-0.607854	-0.715488	0.838184
Cl234	Cl	-0.274521	-0.382154	1.171517
Cl235	Cl	-0.562082	-1.048595	0.504769
Cl236	Cl	-0.228748	-0.715262	0.838102
Cl237	Cl	0.104585	-0.381928	1.171436
