data_functionalizedCrystal
_audit_creation_method	'MofGen! by Chris Wilmer'
_symmetry_space_group_name_H-M	'P1'
_symmetry_Int_Tables_number	1
_symmetry_cell_setting	triclinic
loop_
_symmetry_equiv_pos_as_xyz
  x,y,z
_cell_length_a	6.817900
_cell_length_b	11.102244
_cell_length_c	14.125286
_cell_angle_alpha	94.649566
_cell_angle_beta	100.396688
_cell_angle_gamma	108.604870
loop_
_atom_site_label
_atom_site_type_symbol
_atom_site_fract_x
_atom_site_fract_y
_atom_site_fract_z
V1	V	-4.017300	-0.174857	-0.299988
V2	V	-3.517300	0.325143	0.200012
O3	O	-3.978132	0.009412	-0.294280
O4	O	-3.478132	0.509412	0.205720
O5	O	-3.994716	-0.347683	-0.297934
O6	O	-3.494716	0.152317	0.202066
O7	O	-3.952986	-0.171724	-0.430824
O8	O	-3.452986	0.328276	0.069176
O9	O	-4.020150	-0.167765	-0.160470
O10	O	-3.520150	0.332235	0.339530
V11	V	-4.499645	-0.152869	-0.283301
V12	V	-3.999645	0.347131	0.216699
O13	O	-4.281143	-0.223090	-0.336593
O14	O	-3.781143	0.276910	0.163407
O15	O	-4.685999	-0.104635	-0.246696
O16	O	-4.185999	0.395365	0.253304
O17	O	-4.299022	0.019958	-0.285355
O18	O	-3.799022	0.519958	0.214645
O19	O	-4.656209	-0.337138	-0.289009
O20	O	-4.156209	0.162862	0.210991
O21	O	-4.614191	-0.159961	-0.422819
O22	O	-4.114191	0.340039	0.077181
O23	O	-4.340752	-0.156001	-0.152465
O24	O	-3.840752	0.343999	0.347535
C25	C	-3.846512	-0.389829	-0.293201
C26	C	-3.346512	0.110171	0.206799
C27	C	-3.909227	-0.531114	-0.292393
C28	C	-3.409227	-0.031114	0.207607
C29	C	-3.906194	-0.579638	-0.203908
C30	C	-3.406194	-0.079638	0.296092
C31	C	-3.965133	-0.712392	-0.203160
C32	C	-3.465133	-0.212392	0.296840
C33	C	-4.030130	-0.748088	-0.379392
C34	C	-3.530130	-0.248088	0.120608
C35	C	-3.971205	-0.615336	-0.380139
C36	C	-3.471205	-0.115336	0.119861
C37	C	-3.868660	-0.559030	-0.102161
C38	C	-3.368660	-0.059030	0.397839
C39	C	-3.927599	-0.691785	-0.101414
C40	C	-3.427599	-0.191785	0.398586
C41	C	-3.793280	-0.165374	-0.462714
C42	C	-3.293280	0.334626	0.037286
C43	C	-3.822151	-0.163956	-0.569674
C44	C	-3.322151	0.336044	-0.069674
C45	C	-4.061305	-0.166532	-0.817796
C46	C	-3.561305	0.333468	-0.317796
C47	C	-3.875020	-0.161192	-0.765481
C48	C	-3.375020	0.338808	-0.265481
C49	C	-3.845604	-0.162730	-0.656524
C50	C	-3.345604	0.337270	-0.156524
C51	C	-4.090728	-0.164994	-0.926763
C52	C	-3.590728	0.335006	-0.426763
C53	C	-4.110569	0.062096	-0.290085
C54	C	-3.610569	0.562096	0.209915
C55	C	-4.027091	0.203380	-0.290899
C56	C	-3.527091	0.703380	0.209101
C57	C	-4.163801	-0.162356	-0.120569
C58	C	-3.663801	0.337644	0.379431
C59	C	-4.114168	-0.163768	-0.013609
C60	C	-3.614168	0.336232	0.486391
H61	H	-4.080597	-0.816678	-0.450831
H62	H	-3.580597	-0.316678	0.049169
H63	H	-4.198686	-0.172259	-0.780756
H64	H	-3.698686	0.327741	-0.280756
H65	H	-3.737626	-0.155463	-0.802523
H66	H	-3.237626	0.344537	-0.302523
H67	H	-3.973696	-0.575835	-0.452192
H68	H	-3.473696	-0.075835	0.047808
H69	H	-3.789068	-0.714944	-0.058467
H70	H	-3.289068	-0.214944	0.441533
Br71	Br	-3.577845	-0.471203	-0.043599
Br72	Br	-3.077845	0.028797	0.456401
Br73	Br	-4.051504	-0.494048	-0.043526
Br74	Br	-3.551504	0.005952	0.456474
Br75	Br	-4.179611	-0.758291	-0.054745
Br76	Br	-3.679611	-0.258291	0.445255
