data_functionalizedCrystal
_audit_creation_method	'MofGen! by Chris Wilmer'
_symmetry_space_group_name_H-M	'P1'
_symmetry_Int_Tables_number	1
_symmetry_cell_setting	triclinic
loop_
_symmetry_equiv_pos_as_xyz
  x,y,z
_cell_length_a	23.532361
_cell_length_b	23.532407
_cell_length_c	14.421503
_cell_angle_alpha	89.999621
_cell_angle_beta	89.996704
_cell_angle_gamma	82.839173
loop_
_atom_site_label
_atom_site_type_symbol
_atom_site_fract_x
_atom_site_fract_y
_atom_site_fract_z
O1	O	0.755280	0.069001	-0.077028
O2	O	0.589413	0.079032	-0.077052
O3	O	0.677348	-0.008916	-0.077022
O4	O	0.667345	0.156949	-0.077057
O5	O	0.677334	-0.008903	0.077201
O6	O	0.589399	0.079045	0.077172
O7	O	0.755266	0.069014	0.077195
Cu8	Cu	0.672331	0.074030	0.091265
Cu9	Cu	0.672348	0.074015	-0.091122
O10	O	0.667330	0.156962	0.077166
C11	C	0.568189	0.078787	0.000057
C12	C	0.504971	0.078032	0.000049
C13	C	0.231735	0.074721	-0.084012
C14	C	0.291135	0.075436	-0.084014
O15	O	0.321867	0.075780	-0.155509
N16	N	0.320832	0.075804	0.000053
C17	C	0.291128	0.075452	0.084129
O18	O	0.321843	0.075830	0.155634
C19	C	0.231730	0.074733	0.084130
C20	C	0.202035	0.074370	0.000057
C21	C	0.202040	0.074358	-0.168078
C22	C	0.142644	0.073644	-0.168075
C23	C	0.112943	0.073293	-0.084006
C24	C	0.142639	0.073657	0.000060
C25	C	0.202027	0.074376	0.168204
C26	C	0.142625	0.073657	0.168199
C27	C	0.112930	0.073294	0.084126
C28	C	0.053543	0.072592	0.084132
N29	N	0.023845	0.072224	0.000064
C30	C	0.053545	0.072574	-0.084005
C31	C	0.415868	0.076961	0.084119
C32	C	0.475265	0.077684	0.084119
C33	C	0.475267	0.077667	-0.084025
C34	C	0.415869	0.076948	-0.084023
C35	C	0.386171	0.076593	0.000052
C36	C	-0.071190	0.071076	-0.083993
C37	C	-0.130592	0.070364	-0.083982
C38	C	-0.130589	0.070378	0.084160
C39	C	-0.071193	0.071093	0.084151
C40	C	-0.041495	0.071440	0.000067
O41	O	0.022773	0.072245	0.155589
O42	O	0.022824	0.072188	-0.155498
C43	C	0.677086	-0.030126	0.000092
C44	C	0.676320	-0.093343	0.000099
C45	C	0.723555	-0.492454	0.000055
C46	C	0.722844	-0.551854	0.000048
O47	O	0.766630	-0.588606	0.000020
N48	N	0.670566	-0.574471	0.000041
C49	C	0.618997	-0.537685	0.000032
O50	O	0.574465	-0.562377	0.000025
C51	C	0.619709	-0.478286	0.000032
C52	C	0.671990	-0.455672	0.000049
C53	C	0.775832	-0.469839	0.000070
C54	C	0.776543	-0.410443	0.000079
C55	C	0.724977	-0.373662	0.000073
C56	C	0.672701	-0.396276	0.000057
C57	C	0.568140	-0.441501	0.000017
C58	C	0.568857	-0.382099	0.000017
C59	C	0.621137	-0.359485	0.000033
C60	C	0.621847	-0.300099	0.000060
N61	N	0.674124	-0.277481	0.000067
C62	C	0.725690	-0.314263	0.000073
C63	C	0.617505	-0.662427	0.000029
C64	C	0.616793	-0.721825	0.000035
C65	C	0.720640	-0.735990	0.000049
C66	C	0.721352	-0.676591	0.000050
C67	C	0.669783	-0.639810	0.000036
C68	C	0.727179	-0.189526	0.000093
C69	C	0.727886	-0.130124	0.000105
C70	C	0.624039	-0.115965	0.000086
C71	C	0.623332	-0.175361	0.000078
C72	C	0.674907	-0.212141	0.000078
O73	O	0.578083	-0.263312	0.000084
O74	O	0.770214	-0.289562	0.000068
C75	C	0.776489	0.069258	0.000084
C76	C	0.839708	0.070014	0.000087
C77	C	0.667592	0.178171	0.000050
C78	C	0.668358	0.241388	0.000037
N79	N	0.672323	0.074041	0.219547
N80	N	0.672360	0.074000	-0.219403
C81	C	0.631654	0.114690	0.469187
C82	C	0.683055	0.125444	0.530994
C83	C	0.672337	0.074027	0.408708
C84	C	0.620950	0.063286	0.530995
C85	C	0.672346	0.074015	0.591430
C86	C	0.723763	0.084807	0.469155
C87	C	0.661624	0.022627	0.469150
C88	C	0.713062	0.033359	0.530929
C89	C	0.672331	0.074036	0.303447
C90	C	0.672357	0.074007	0.696688
H91	H	0.118471	0.073346	-0.236536
C92	C	0.788431	-0.041285	0.492278
C93	C	0.759559	-0.013071	0.567306
H94	H	0.817139	-0.069944	0.514739
H95	H	0.761989	-0.058591	0.455201
H96	H	0.805754	-0.014454	0.456020
H97	H	0.742232	-0.039901	0.603560
H98	H	0.786005	0.004235	0.604398
C99	C	0.525914	0.043971	0.492810
C100	C	0.562281	0.051019	0.567662
H101	H	0.489696	0.036397	0.515446
H102	H	0.521202	0.077943	0.456590
H103	H	0.542179	0.012785	0.455639
H104	H	0.546018	0.082209	0.604829
H105	H	0.566992	0.017043	0.603897
C106	C	0.599862	-0.028909	0.377646
C107	C	0.649360	-0.036026	0.432437
H108	H	0.592289	-0.065118	0.354975
H109	H	0.568375	-0.012346	0.413895
H110	H	0.605357	-0.004441	0.326898
H111	H	0.643863	-0.060490	0.483188
H112	H	0.680854	-0.052597	0.396186
C113	C	0.695682	0.183309	0.664763
C114	C	0.695296	0.184114	0.567679
H115	H	0.703239	0.219530	0.687408
H116	H	0.659456	0.175404	0.686836
H117	H	0.724620	0.154452	0.685886
H118	H	0.666355	0.212968	0.546556
H119	H	0.731527	0.192027	0.545598
C120	C	0.535760	-0.085593	-0.079218
C121	C	0.567360	-0.075527	0.000073
H122	H	0.500768	-0.060629	-0.079228
H123	H	0.557222	-0.078771	-0.132981
H124	H	0.527853	-0.124205	-0.079211
H125	H	0.575271	-0.036916	0.000062
H126	H	0.545893	-0.082345	0.053849
C127	C	-0.124613	0.070417	-0.250189
C128	C	-0.163232	0.069963	-0.176402
H129	H	-0.144763	0.070165	-0.307242
H130	H	-0.105980	0.103910	-0.246700
H131	H	-0.096911	0.037478	-0.246674
H132	H	-0.190931	0.102904	-0.179913
H133	H	-0.181874	0.036466	-0.179893
H134	H	0.226195	0.074670	0.236666
H135	H	0.226216	0.074642	-0.236541
C136	C	0.002281	0.022908	-0.181565
C137	C	-0.038554	0.071461	-0.176419
H138	H	0.022425	0.023148	-0.238628
H139	H	0.028472	0.023230	-0.131513
H140	H	-0.016363	-0.010583	-0.178057
H141	H	-0.019910	0.104953	-0.179920
H142	H	-0.064749	0.071144	-0.226485
C143	C	0.421852	0.077006	-0.250221
C144	C	0.383232	0.076545	-0.176438
H145	H	0.401704	0.076753	-0.307276
H146	H	0.440481	0.110501	-0.246728
H147	H	0.449557	0.044069	-0.246707
H148	H	0.355529	0.109484	-0.179949
H149	H	0.364594	0.043046	-0.179933
H150	H	0.391690	0.076679	0.152587
H151	H	-0.154782	0.070095	0.152607
C152	C	0.148594	0.073741	0.334403
C153	C	0.109981	0.073269	0.260619
H154	H	0.128440	0.073506	0.391457
H155	H	0.176293	0.040805	0.330909
H156	H	0.167230	0.107237	0.330889
H157	H	0.091349	0.039771	0.264129
H158	H	0.082272	0.106208	0.264115
H159	H	0.575509	-0.632483	0.000026
H160	H	0.499460	0.077952	-0.152478
C161	C	0.520921	-0.526253	-0.000016
C162	C	0.510671	-0.466348	-0.000012
H163	H	0.485439	-0.541590	-0.000031
H164	H	0.542144	-0.538895	-0.053785
H165	H	0.542125	-0.538899	0.053778
H166	H	0.489470	-0.453702	-0.053809
H167	H	0.489438	-0.453700	0.053763
C168	C	0.469281	0.077627	0.250318
C169	C	0.507901	0.078087	0.176534
H170	H	0.489430	0.077870	0.307372
H171	H	0.441583	0.110562	0.246811
H172	H	0.450646	0.044131	0.246817
H173	H	0.526534	0.111586	0.180032
H174	H	0.535610	0.045148	0.180043
H175	H	-0.047015	0.071399	0.152610
C176	C	0.830465	-0.150101	0.000111
C177	C	0.785357	-0.105269	0.000115
H178	H	0.865944	-0.134756	0.000110
H179	H	0.828023	-0.172975	0.053886
H180	H	0.828025	-0.172973	-0.053676
H181	H	0.787795	-0.082399	0.053907
H182	H	0.787800	-0.082386	-0.053666
H183	H	0.767233	0.093939	0.442105
C184	C	0.786651	-0.264531	-0.079188
C185	C	0.783871	-0.229948	0.000096
H186	H	0.821651	-0.289483	-0.079182
H187	H	0.755424	-0.286506	-0.079191
H188	H	0.784773	-0.241057	-0.132960
H189	H	0.785745	-0.253423	0.053870
H190	H	0.815107	-0.207972	0.000109
C191	C	0.879116	-0.430429	0.000083
C192	C	0.834012	-0.385591	0.000084
H193	H	0.914597	-0.415088	0.000078
H194	H	0.876672	-0.453299	0.053860
H195	H	0.876673	-0.453302	-0.053703
H196	H	0.836453	-0.362721	0.053873
H197	H	0.836458	-0.362711	-0.053699
H198	H	0.817825	-0.499782	0.000072
H199	H	0.763923	-0.658183	0.000062
H200	H	0.762627	-0.765949	0.000051
H201	H	0.574220	-0.740232	0.000038
H202	H	0.526862	-0.352154	0.000004
H203	H	0.580761	-0.193774	0.000091
H204	H	0.597285	0.149104	0.442077
