data_functionalizedCrystal
_audit_creation_method	'MofGen! by Chris Wilmer'
_symmetry_space_group_name_H-M	'P1'
_symmetry_Int_Tables_number	1
_symmetry_cell_setting	triclinic
loop_
_symmetry_equiv_pos_as_xyz
  x,y,z
_cell_length_a	15.944551
_cell_length_b	15.944551
_cell_length_c	15.021413
_cell_angle_alpha	89.996935
_cell_angle_beta	89.997174
_cell_angle_gamma	96.501262
loop_
_atom_site_label
_atom_site_type_symbol
_atom_site_fract_x
_atom_site_fract_y
_atom_site_fract_z
O1	O	1.114529	-0.108321	-0.073941
O2	O	0.869979	-0.121677	-0.073964
O3	O	0.998932	0.007276	-0.073944
O4	O	0.985576	-0.237274	-0.073961
O5	O	0.998912	0.007257	0.074121
O6	O	0.869959	-0.121695	0.074101
O7	O	1.114508	-0.108339	0.074123
Zn8	Zn	0.992230	-0.115020	0.097620
Zn9	Zn	0.992257	-0.114996	-0.097461
O10	O	0.985555	-0.237292	0.074103
C11	C	0.838675	-0.121132	0.000066
C12	C	0.745429	-0.119470	0.000057
C13	C	0.998367	0.038561	0.000089
C14	C	0.996705	0.131807	0.000089
C15	C	0.530572	-0.035565	0.000081
C16	C	0.469562	-0.074518	-0.072926
C17	C	0.574703	-0.116462	0.000068
C18	C	0.469564	-0.074556	0.073054
C19	C	0.409790	-0.113551	0.000083
C20	C	0.514921	-0.155438	-0.072998
C21	C	0.514930	-0.155464	0.073047
C22	C	0.453937	-0.194476	0.000023
C23	C	0.669705	-0.118137	0.000059
C24	C	0.314789	-0.111883	0.000085
C25	C	1.145813	-0.108885	0.000092
C26	C	1.239059	-0.110547	0.000094
C27	C	0.986120	-0.268577	0.000069
C28	C	0.987782	-0.361823	0.000063
N29	N	0.992218	-0.115036	0.230758
C30	C	0.912801	0.346663	0.000069
C31	C	0.951753	0.407672	0.073077
C32	C	0.993698	0.302533	0.000082
C33	C	0.951792	0.407673	-0.072903
C34	C	0.990787	0.467445	0.000071
C35	C	1.032672	0.362313	0.073150
C36	C	1.032700	0.362308	-0.072895
C37	C	1.071711	0.423298	0.000131
C38	C	0.995372	0.207530	0.000089
C39	C	0.989119	0.562446	0.000070
N40	N	0.992276	-0.114973	-0.230598
C41	C	0.932581	-0.174636	0.470432
C42	C	1.008481	-0.190943	0.529772
C43	C	0.992239	-0.115015	0.412365
C44	C	0.916360	-0.098727	0.529766
C45	C	0.992253	-0.114997	0.587789
C46	C	1.068178	-0.131360	0.470398
C47	C	0.976006	-0.039111	0.470387
C48	C	1.051962	-0.055386	0.529701
C49	C	0.992230	-0.115028	0.311307
C50	C	0.992271	-0.114984	0.688844
H51	H	0.449461	-0.040295	-0.134642
H52	H	0.534918	-0.189621	-0.134787
H53	H	0.420779	-0.261683	-0.000023
H54	H	1.066896	0.342185	-0.134615
O55	O	0.839763	-0.082245	0.560725
C56	C	0.785789	-0.071506	0.488271
H57	H	0.825189	-0.052578	0.426648
H58	H	0.744355	-0.133277	0.474868
C59	C	0.681185	-0.025151	0.586157
C60	C	0.729577	-0.001896	0.510473
H61	H	0.646507	0.017785	0.599853
H62	H	0.717546	-0.032388	0.634972
H63	H	0.646664	-0.076627	0.574979
H64	H	0.764104	0.049573	0.521656
H65	H	0.693220	0.005352	0.461661
O66	O	0.910981	0.431506	-0.146604
C67	C	0.883212	0.359604	-0.197841
H68	H	0.923329	0.306788	-0.181636
H69	H	0.814284	0.337958	-0.181718
C70	C	0.842523	0.446518	-0.317382
C71	C	0.891801	0.381650	-0.297484
H72	H	0.847818	0.460116	-0.378846
H73	H	0.861229	0.494960	-0.282862
H74	H	0.785088	0.428471	-0.303939
H75	H	0.949236	0.399702	-0.310916
H76	H	0.873106	0.333212	-0.332009
O77	O	0.872545	-0.234940	0.439417
C78	C	0.889983	-0.314854	0.469696
H79	H	0.959967	-0.312487	0.486336
H80	H	0.850946	-0.332844	0.531808
C81	C	0.781270	-0.383947	0.375952
C82	C	0.867228	-0.381043	0.396382
H83	H	0.767231	-0.424778	0.330731
H84	H	0.769519	-0.330108	0.355554
H85	H	0.748750	-0.398937	0.427718
H86	H	0.899747	-0.366044	0.344619
H87	H	0.878984	-0.434882	0.416769
H88	H	0.449470	-0.040332	0.134773
O89	O	0.832656	0.307022	0.000025
C90	C	0.789724	0.331116	-0.076232
H91	H	0.821080	0.394489	-0.101411
H92	H	0.792280	0.281374	-0.130381
C93	C	0.658507	0.261187	-0.021448
C94	C	0.697014	0.339026	-0.052369
H95	H	0.601319	0.266063	-0.006730
H96	H	0.687431	0.244951	0.029927
H97	H	0.660645	0.219743	-0.066578
H98	H	0.694885	0.380466	-0.007236
H99	H	0.668088	0.355269	-0.103736
H100	H	1.132368	-0.145206	0.444430
H101	H	0.917528	0.427772	0.134794
H102	H	1.022224	-0.255126	0.555856
O103	O	0.538924	-0.196135	0.146766
C104	C	0.516062	-0.153285	0.223592
H105	H	0.509297	-0.084802	0.206106
H106	H	0.453420	-0.185059	0.250228
C107	C	0.593154	-0.240176	0.316630
C108	C	0.584853	-0.156063	0.295155
H109	H	0.635585	-0.241893	0.360775
H110	H	0.608554	-0.269048	0.264871
H111	H	0.540948	-0.266645	0.338821
H112	H	0.637055	-0.129599	0.272954
H113	H	0.569463	-0.127187	0.346911
H114	H	1.066851	0.342314	0.134941
O115	O	1.112327	0.004688	0.560519
C116	C	1.192179	-0.012785	0.530086
H117	H	1.189780	-0.082789	0.513527
H118	H	1.210040	0.026178	0.467892
C119	C	1.261464	0.096041	0.623561
C120	C	1.258519	0.010059	0.603231
H121	H	1.302388	0.110135	0.668678
H122	H	1.207667	0.107815	0.644062
H123	H	1.276346	0.128499	0.571726
H124	H	1.243628	-0.022398	0.655062
H125	H	1.312316	-0.001721	0.582740
O126	O	0.959484	0.037361	0.439129
C127	C	0.886009	0.027089	0.386208
H128	H	0.875578	-0.040461	0.360221
H129	H	0.829368	0.040627	0.427961
C130	C	0.909163	0.171794	0.339018
C131	C	0.896356	0.088830	0.307095
H132	H	0.915543	0.209882	0.290219
H133	H	0.958663	0.178717	0.374674
H134	H	0.861959	0.183064	0.373812
H135	H	0.943563	0.077558	0.272310
H136	H	0.846863	0.081907	0.271430
O137	O	1.151944	0.462719	0.000232
C138	C	1.209514	0.401805	0.000982
H139	H	1.177329	0.340068	0.029358
H140	H	1.231525	0.390886	-0.069859
C141	C	1.325672	0.509241	0.024314
C142	C	1.286144	0.433416	0.059173
H143	H	1.372943	0.528740	0.060206
H144	H	1.286887	0.550280	0.023805
H145	H	1.344007	0.500131	-0.034719
H146	H	1.267800	0.442529	0.118201
H147	H	1.324928	0.392378	0.059693
H148	H	0.563905	0.031573	-0.000005
