data_functionalizedCrystal
_audit_creation_method	'MofGen! by Chris Wilmer'
_symmetry_space_group_name_H-M	'P1'
_symmetry_Int_Tables_number	1
_symmetry_cell_setting	triclinic
loop_
_symmetry_equiv_pos_as_xyz
  x,y,z
_cell_length_a	19.188930
_cell_length_b	15.995350
_cell_length_c	14.472310
_cell_angle_alpha	90.001162
_cell_angle_beta	89.973109
_cell_angle_gamma	83.318578
loop_
_atom_site_label
_atom_site_type_symbol
_atom_site_fract_x
_atom_site_fract_y
_atom_site_fract_z
O1	O	-0.926420	-0.104528	0.077134
O2	O	-0.723145	-0.118600	0.077070
O3	O	-0.830339	0.010344	0.077103
O4	O	-0.819226	-0.233472	0.077101
O5	O	-0.830312	0.010337	-0.076580
O6	O	-0.723117	-0.118607	-0.076612
O7	O	-0.926393	-0.104535	-0.076548
Cu8	Cu	-0.824752	-0.111572	-0.090613
Cu9	Cu	-0.824785	-0.111563	0.091134
O10	O	-0.819198	-0.233479	-0.076581
C11	C	-0.829866	0.041533	0.000263
C12	C	-0.828489	0.134479	0.000268
C13	C	-0.697119	-0.118148	0.000221
C14	C	-0.619611	-0.116780	0.000196
C15	C	-0.952419	-0.104987	0.000303
C16	C	-1.029927	-0.106355	0.000333
C17	C	-0.574880	-0.192440	0.000210
C18	C	-0.502052	-0.191155	0.000220
C19	C	-0.473960	-0.114205	0.000235
C20	C	-0.518701	-0.038535	0.000216
C21	C	-0.591526	-0.039823	0.000197
N22	N	-0.365839	-0.055384	0.052577
N23	N	-0.296658	-0.054167	0.052598
C24	C	-0.254541	-0.110322	0.000292
N25	N	-0.284219	-0.167754	-0.052024
N26	N	-0.353407	-0.168974	-0.052040
C27	C	-0.394994	-0.112801	0.000256
C28	C	-0.130842	-0.184594	0.000315
C29	C	-0.058014	-0.183306	0.000320
C30	C	-0.074664	-0.030684	0.000325
C31	C	-0.147491	-0.031974	0.000311
C32	C	-0.175575	-0.108932	0.000311
C33	C	-0.819671	-0.264669	0.000260
C34	C	-0.821049	-0.357614	0.000261
N35	N	-0.824735	-0.111578	-0.218444
C36	C	-0.823542	0.472208	0.000263
C37	C	-0.747200	0.424495	0.000584
C38	C	-0.748578	0.327809	0.000238
C39	C	-0.825996	0.304657	0.000266
C40	C	-0.863634	0.345868	-0.087480
C41	C	-0.861717	0.442496	-0.087555
C42	C	-0.863325	0.442869	0.087211
C43	C	-0.863307	0.345924	0.088371
C44	C	-0.827386	0.209964	0.000265
C45	C	-0.822153	0.566901	0.000259
C46	C	-0.824784	-0.111560	-0.592535
C47	C	-0.767234	-0.180325	-0.553387
C48	C	-0.767367	-0.180575	-0.446299
C49	C	-0.824759	-0.111569	-0.406944
C50	C	-0.897609	-0.130384	-0.445758
C51	C	-0.897286	-0.130872	-0.552880
C52	C	-0.810134	-0.023774	-0.553069
C53	C	-0.808463	-0.024366	-0.445943
C54	C	-0.824749	-0.111572	-0.302056
C55	C	-0.824799	-0.111558	-0.697423
N56	N	-0.824808	-0.111551	0.218965
H57	H	-0.597741	-0.255105	0.000212
H58	H	-0.495823	0.024118	0.000241
N59	N	-0.639778	0.041785	0.000177
H60	H	-0.610934	0.090730	0.000184
H61	H	-0.670385	0.044581	0.057142
N62	N	-0.825323	0.466600	-0.174459
H63	H	-0.782444	0.494375	-0.157466
H64	H	-0.858512	0.507062	-0.211741
N65	N	-0.009766	-0.264916	0.000342
H66	H	0.040631	-0.252425	0.000351
H67	H	-0.018833	-0.298473	-0.056628
H68	H	-0.920511	0.331950	-0.090723
N69	N	-0.865710	0.044019	-0.586608
H70	H	-0.891244	0.072245	-0.531850
H71	H	-0.900175	0.017986	-0.627182
H72	H	-0.465625	-0.252768	0.000229
H73	H	-0.919764	0.330769	0.093690
N74	N	-0.937884	0.485205	0.088015
H75	H	-0.971432	0.441044	0.085973
H76	H	-0.945813	0.523207	0.032360
H77	H	-0.941448	-0.082747	-0.578772
N78	N	-0.955701	-0.065804	-0.411985
H79	H	-0.979851	-0.035729	-0.466631
H80	H	-0.935255	-0.023678	-0.371086
H81	H	-0.754874	-0.010081	-0.420577
H82	H	-0.183912	0.029637	0.000305
H83	H	-0.838377	0.463320	0.153719
H84	H	-0.153710	-0.247257	0.000302
H85	H	-0.847657	0.029183	-0.419157
H86	H	-0.758165	-0.005616	-0.580154
H87	H	-0.051792	0.031970	0.000394
H88	H	-0.718990	0.299282	0.063137
N89	N	-0.826903	0.309647	0.174363
H90	H	-0.786411	0.266658	0.156334
H91	H	-0.861285	0.281775	0.213321
N92	N	-0.706789	0.448895	0.083928
H93	H	-0.737572	0.491118	0.122288
H94	H	-0.663862	0.474675	0.062893
H95	H	-0.837470	0.317387	-0.152798
H96	H	-0.712908	-0.169342	-0.579192
H97	H	-0.910196	-0.194886	-0.577851
N98	N	-0.706941	0.450289	-0.082324
H99	H	-0.737939	0.492748	-0.120090
H100	H	-0.691710	0.399121	-0.121447
H101	H	-0.718768	0.299832	-0.062787
H102	H	-0.713216	-0.169404	-0.420060
N103	N	-0.935954	0.485493	-0.092808
H104	H	-0.969779	0.441650	-0.095071
H105	H	-0.941531	0.521395	-0.150328
N106	N	-0.779472	-0.266148	-0.588978
H107	H	-0.822130	-0.260677	-0.630356
H108	H	-0.787344	-0.304072	-0.535100
N109	N	-0.779624	-0.266950	-0.412435
H110	H	-0.826343	-0.281241	-0.435988
H111	H	-0.779692	-0.267523	-0.342653
H112	H	-0.910828	-0.193666	-0.418916
