data_functionalizedCrystal
_audit_creation_method	'MofGen! by Chris Wilmer'
_symmetry_space_group_name_H-M	'P1'
_symmetry_Int_Tables_number	1
_symmetry_cell_setting	triclinic
loop_
_symmetry_equiv_pos_as_xyz
  x,y,z
_cell_length_a	12.811457
_cell_length_b	14.853568
_cell_length_c	13.930277
_cell_angle_alpha	90.002897
_cell_angle_beta	84.572862
_cell_angle_gamma	96.160114
loop_
_atom_site_label
_atom_site_type_symbol
_atom_site_fract_x
_atom_site_fract_y
_atom_site_fract_z
O1	O	1.392835	-0.121423	-0.041440
O2	O	1.087274	-0.134628	-0.014837
O3	O	1.248216	0.003183	-0.028844
O4	O	1.231893	-0.259233	-0.027433
O5	O	1.248200	0.003179	-0.188505
O6	O	1.087258	-0.134631	-0.174498
O7	O	1.392819	-0.121427	-0.201101
Zn8	Zn	1.240036	-0.128030	-0.213149
Zn9	Zn	1.240057	-0.128025	-0.002789
O10	O	1.231877	-0.259237	-0.187093
C11	C	1.048161	-0.133890	-0.091263
C12	C	0.931642	-0.131674	-0.081118
C13	C	0.712673	-0.127499	-0.236135
C14	C	0.603192	-0.125417	-0.226608
C15	C	0.603199	-0.125422	-0.052537
C16	C	0.712680	-0.127504	-0.062064
C17	C	0.767412	-0.128544	-0.153866
C18	C	0.876894	-0.130632	-0.163393
C19	C	0.876900	-0.130631	0.010678
C20	C	0.767420	-0.128549	0.020205
C21	C	1.247469	0.036771	-0.108607
C22	C	1.245252	0.136861	-0.108404
C23	C	1.140278	0.549675	-0.099277
C24	C	1.331481	0.570445	-0.115923
C25	C	1.333566	0.476406	-0.116101
C26	C	1.239005	0.418997	-0.107867
C27	C	1.142359	0.455627	-0.099457
C28	C	1.430209	0.439768	-0.124521
C29	C	1.432297	0.345724	-0.124699
C30	C	1.337735	0.288313	-0.116459
C31	C	1.241086	0.324948	-0.108047
C32	C	1.146525	0.267539	-0.099814
C33	C	1.049875	0.304173	-0.091395
C34	C	1.047797	0.398216	-0.091216
C35	C	1.339813	0.194270	-0.116637
C36	C	1.148607	0.173491	-0.099994
C37	C	1.431932	-0.122165	-0.124673
C38	C	1.548451	-0.124380	-0.134812
N39	N	1.240029	-0.128033	-0.356714
C40	C	1.232624	0.707174	-0.107325
C41	C	1.234839	0.607084	-0.107510
C42	C	1.168755	-0.189036	-0.400774
C43	C	1.311311	-0.067026	-0.413160
C44	C	1.311322	-0.067022	-0.513656
C45	C	1.240047	-0.128025	-0.557716
C46	C	1.168761	-0.189033	-0.501280
C47	C	1.382600	-0.006010	-0.570100
C48	C	1.382613	-0.006003	-0.670603
C49	C	1.311342	-0.067012	-0.714665
C50	C	1.240054	-0.128022	-0.658222
C51	C	1.168779	-0.189025	-0.702282
C52	C	1.097495	-0.250041	-0.645841
C53	C	1.097491	-0.250041	-0.545342
C54	C	1.311347	-0.067011	-0.815164
C55	C	1.168786	-0.189022	-0.802788
N56	N	1.240072	-0.128015	0.140776
H57	H	0.722842	-0.127699	0.094948
C58	C	0.937123	-0.131781	0.101180
N59	N	0.982483	-0.132650	0.169344
C60	C	1.538613	0.305436	-0.133953
N61	N	1.618692	0.275090	-0.140919
C62	C	1.534219	0.502923	-0.133583
N63	N	1.612562	0.550496	-0.140409
H64	H	1.369380	-0.017329	-0.861113
H65	H	1.440656	0.043678	-0.716551
H66	H	1.408468	0.617193	-0.122634
C67	C	1.389685	0.000095	-0.364688
N68	N	1.448713	0.050658	-0.328174
C69	C	0.945861	0.241011	-0.082339
N70	N	0.867521	0.193434	-0.075516
C71	C	0.542981	-0.124275	-0.317111
N72	N	0.497630	-0.123417	-0.385281
C73	C	1.044579	0.110348	-0.090933
N74	N	0.966225	0.062788	-0.084109
H75	H	1.110749	-0.238702	-0.838655
H76	H	0.558619	-0.124561	0.022204
C77	C	0.941491	0.438521	-0.081977
N78	N	0.861422	0.468882	-0.075025
H79	H	1.039458	-0.299707	-0.681726
C80	C	1.033967	0.589973	-0.090025
N81	N	0.953894	0.620326	-0.083061
C82	C	1.446121	0.153977	-0.125898
N83	N	1.526199	0.123629	-0.132870
H84	H	0.757235	-0.128357	-0.310884
C85	C	1.019078	-0.317146	-0.483250
N86	N	0.960015	-0.367685	-0.436478
H87	H	1.110719	-0.238717	-0.354818
H88	H	0.921455	-0.131484	-0.238143
C89	C	1.460961	0.061120	-0.521625
N90	N	1.519975	0.111694	-0.485108
