data_functionalizedCrystal
_audit_creation_method	'MofGen! by Chris Wilmer'
_symmetry_space_group_name_H-M	'P1'
_symmetry_Int_Tables_number	1
_symmetry_cell_setting	triclinic
loop_
_symmetry_equiv_pos_as_xyz
  x,y,z
_cell_length_a	14.519709
_cell_length_b	19.288865
_cell_length_c	18.366186
_cell_angle_alpha	89.988521
_cell_angle_beta	89.996571
_cell_angle_gamma	83.408197
loop_
_atom_site_label
_atom_site_type_symbol
_atom_site_fract_x
_atom_site_fract_y
_atom_site_fract_z
O1	O	1.223296	0.091051	-0.060464
O2	O	1.723296	0.591051	0.439536
O3	O	0.954751	0.101773	-0.060487
O4	O	1.454751	0.601773	0.439513
O5	O	1.096783	-0.004690	-0.060460
O6	O	1.596783	0.495310	0.439540
O7	O	1.081264	0.197514	-0.060490
O8	O	1.581264	0.697514	0.439510
O9	O	1.096759	-0.004696	0.060639
O10	O	1.596759	0.495304	0.560639
O11	O	0.954727	0.101768	0.060613
O12	O	1.454727	0.601768	0.560613
O13	O	1.223272	0.091046	0.060636
O14	O	1.723272	0.591046	0.560636
Zn15	Zn	1.088995	0.096406	0.079851
Zn16	Zn	1.588995	0.596406	0.579851
Zn17	Zn	1.089027	0.096413	-0.079702
Zn18	Zn	1.589027	0.596413	0.420298
O19	O	1.081240	0.197509	0.060609
O20	O	1.581240	0.697509	0.560609
C21	C	1.096272	-0.030571	0.000092
C22	C	1.596272	0.469429	0.500092
C23	C	1.094773	-0.107680	0.000098
C24	C	1.594773	0.392320	0.500098
C25	C	0.920382	0.101271	0.000060
C26	C	1.420382	0.601271	0.500060
C27	C	0.818010	0.099773	0.000052
C28	C	1.318010	0.599773	0.500052
C29	C	1.178111	-0.152077	0.000109
C30	C	1.678111	0.347923	0.500109
C31	C	1.176702	-0.224529	0.000097
C32	C	1.676702	0.275471	0.500097
C33	C	1.091951	-0.252581	0.000089
C34	C	1.591951	0.247419	0.500089
C35	C	1.008602	-0.208175	0.000074
C36	C	1.508602	0.291825	0.500074
C37	C	1.010013	-0.135725	0.000079
C38	C	1.510013	0.364275	0.500079
C39	C	1.025319	-0.361110	0.042502
C40	C	1.525319	0.138890	0.542502
C41	C	1.023911	-0.433560	0.042502
C42	C	1.523911	0.066440	0.542502
C43	C	1.087597	-0.476043	0.000073
C44	C	1.587597	0.023957	0.500073
C45	C	1.152705	-0.446068	-0.042348
C46	C	1.652705	0.053932	0.457652
C47	C	1.154116	-0.373618	-0.042343
C48	C	1.654116	0.126382	0.457657
C49	C	1.090412	-0.331141	0.000084
C50	C	1.590412	0.168859	0.500084
C51	C	1.169414	-0.599000	0.000070
C52	C	1.669414	-0.099000	0.500070
C53	C	1.168002	-0.671454	0.000054
C54	C	1.668002	-0.171454	0.500054
C55	C	0.999899	-0.655098	0.000038
C56	C	1.499899	-0.155098	0.500038
C57	C	1.001314	-0.582647	0.000047
C58	C	1.501314	-0.082647	0.500047
C59	C	1.086073	-0.554602	0.000066
C60	C	1.586073	-0.054602	0.500066
C61	C	0.443150	0.094261	0.000086
C62	C	0.943150	0.594261	0.500086
C63	C	0.547448	0.095792	0.000076
C64	C	1.047448	0.595792	0.500076
C65	C	0.630577	0.097017	0.000068
C66	C	1.130577	0.597017	0.500068
C67	C	0.734882	0.098548	0.000060
C68	C	1.234882	0.598548	0.500060
C69	C	1.257640	0.091548	0.000087
C70	C	1.757640	0.591548	0.500087
C71	C	1.360012	0.093045	0.000091
C72	C	1.860012	0.593045	0.500091
C73	C	1.081751	0.223390	0.000056
C74	C	1.581751	0.723390	0.500056
C75	C	1.083250	0.300499	0.000045
C76	C	1.583250	0.800499	0.500045
N77	N	1.088981	0.096401	0.188742
N78	N	1.588981	0.596401	0.688742
N79	N	1.089049	0.096413	-0.188594
N80	N	1.589049	0.596413	0.311406
C81	C	1.151893	0.049282	0.226855
C82	C	1.651893	0.549282	0.726855
C83	C	1.151899	0.049279	0.303082
C84	C	1.651899	0.549279	0.803082
C85	C	1.089001	0.096406	0.341195
C86	C	1.589001	0.596406	0.841195
C87	C	1.026077	0.143529	0.303074
C88	C	1.526077	0.643529	0.803074
C89	C	1.026067	0.143526	0.226847
C90	C	1.526067	0.643526	0.726847
C91	C	1.076656	0.159650	0.461945
C92	C	1.576656	0.659650	0.961945
C93	C	1.076672	0.159654	0.538170
C94	C	1.576672	0.659654	1.038170
C95	C	1.089027	0.096415	0.576303
C96	C	1.589027	0.596415	1.076303
C97	C	1.101385	0.033170	0.538201
C98	C	1.601385	0.533170	1.038201
C99	C	1.101375	0.033167	0.461974
C100	C	1.601375	0.533167	0.961974
C101	C	1.089005	0.096415	0.423850
C102	C	1.589005	0.596415	0.923850
C103	C	1.151949	0.049289	0.697070
C104	C	1.651949	0.549289	1.197070
C105	C	1.151949	0.049285	0.773299
C106	C	1.651949	0.549285	1.273299
C107	C	1.026131	0.143541	0.773289
C108	C	1.526131	0.643541	1.273289
C109	C	1.026128	0.143539	0.697061
C110	C	1.526128	0.643539	1.197061
C111	C	1.089041	0.096414	0.658956
C112	C	1.589041	0.596414	1.158956
H113	H	1.247128	-0.129248	0.000122
H114	H	1.747128	0.370752	0.500122
H115	H	0.970893	-0.457959	0.077039
H116	H	1.470893	0.042041	0.577039
C117	C	0.897868	-0.356024	0.126377
C118	C	1.397868	0.143976	0.626377
C119	C	0.955305	-0.314416	0.089141
C120	C	1.455305	0.185584	0.589141
H121	H	0.854648	-0.327196	0.155169
H122	H	1.354648	0.172804	0.655169
H123	H	0.865449	-0.381173	0.092259
H124	H	1.365449	0.118827	0.592259
H125	H	0.934556	-0.387911	0.156967
H126	H	1.434556	0.112089	0.656967
H127	H	0.918617	-0.282532	0.058547
H128	H	1.418617	0.217468	0.558547
H129	H	0.987726	-0.289255	0.123264
H130	H	1.487726	0.210745	0.623264
C131	C	0.900810	-0.727068	-0.062230
C132	C	1.400810	-0.227068	0.437770
C133	C	0.906738	-0.685925	0.000027
C134	C	1.406738	-0.185925	0.500027
H135	H	0.843296	-0.746104	-0.062235
H136	H	1.343296	-0.246104	0.437765
H137	H	0.904861	-0.699132	-0.104448
H138	H	1.404861	-0.199132	0.395552
H139	H	0.950247	-0.763879	-0.062219
H140	H	1.450247	-0.263879	0.437781
H141	H	0.857305	-0.649111	0.000013
H142	H	1.357305	-0.149111	0.500013
H143	H	0.902678	-0.713863	0.042256
H144	H	1.402678	-0.213863	0.542256
H145	H	1.244568	-0.260683	0.000103
H146	H	1.744568	0.239317	0.500103
H147	H	1.111445	-0.018325	0.569246
H148	H	1.611445	0.481675	1.069246
H149	H	0.939597	-0.231020	0.000066
H150	H	1.439597	0.268980	0.500066
H151	H	1.203119	0.010908	0.195832
H152	H	1.703119	0.510908	0.695832
C153	C	1.240480	-0.789774	0.000041
C154	C	1.740480	-0.289774	0.500041
C155	C	1.259614	-0.720259	0.000058
C156	C	1.759614	-0.220259	0.500058
H157	H	1.297040	-0.819904	0.000038
H158	H	1.797040	-0.319904	0.500038
H159	H	1.205712	-0.798299	0.042263
H160	H	1.705712	-0.298299	0.542263
H161	H	1.205724	-0.798267	-0.042197
H162	H	1.705724	-0.298267	0.457803
H163	H	1.294365	-0.711765	0.042300
H164	H	1.794365	-0.211765	0.542300
H165	H	1.294397	-0.711731	-0.042168
H166	H	1.794397	-0.211731	0.457832
C167	C	0.971476	0.263694	0.673569
C168	C	1.471476	0.763694	1.173569
C169	C	0.956982	0.195343	0.655164
C170	C	1.456982	0.695343	1.155164
H171	H	0.928788	0.295675	0.647700
H172	H	1.428788	0.795675	1.147700
H173	H	0.962477	0.270434	0.724415
H174	H	1.462477	0.770434	1.224415
H175	H	1.032992	0.271330	0.661063
H176	H	1.532992	0.771330	1.161063
H177	H	0.895468	0.187706	0.667675
H178	H	1.395468	0.687706	1.167675
H179	H	0.965973	0.188600	0.604307
H180	H	1.465973	0.688600	1.104307
C181	C	1.276306	-0.043884	0.704733
C182	C	1.776306	0.456116	1.204733
C183	C	1.221092	-0.002517	0.655179
C184	C	1.721092	0.497483	1.155179
H185	H	1.318987	-0.075869	0.678872
H186	H	1.818987	0.424131	1.178872
H187	H	1.309359	-0.014917	0.734452
H188	H	1.809359	0.485083	1.234452
H189	H	1.238017	-0.068930	0.734476
H190	H	1.738017	0.431070	1.234476
H191	H	1.259381	0.022533	0.625440
H192	H	1.759381	0.522533	1.125440
H193	H	1.188037	-0.031488	0.625448
H194	H	1.688037	0.468512	1.125448
H195	H	1.203177	0.010912	0.804331
H196	H	1.703177	0.510912	1.304331
H197	H	1.203131	0.010907	0.334119
H198	H	1.703131	0.510907	0.834119
H199	H	1.066616	0.211151	0.569187
H200	H	1.566616	0.711151	1.069187
C201	C	1.125789	-0.091858	0.469651
C202	C	1.625789	0.408142	0.969651
C203	C	1.114944	-0.036347	0.420092
C204	C	1.614944	0.463653	0.920092
H205	H	1.134156	-0.134773	0.443793
H206	H	1.634156	0.365227	0.943793
H207	H	1.178468	-0.087918	0.499371
H208	H	1.678468	0.412082	0.999371
H209	H	1.072087	-0.090533	0.499393
H210	H	1.572087	0.409467	0.999393
H211	H	1.168648	-0.037668	0.390354
H212	H	1.668648	0.462332	0.890354
H213	H	1.062259	-0.040288	0.390360
H214	H	1.562259	0.459712	0.890360
C215	C	1.281273	-0.393249	-0.126224
C216	C	1.781273	0.106751	0.373776
C217	C	1.225669	-0.340668	-0.088977
C218	C	1.725669	0.159332	0.411023
H219	H	1.325440	-0.372905	-0.155019
H220	H	1.825440	0.127095	0.344981
H221	H	1.312603	-0.424614	-0.092112
H222	H	1.812603	0.075386	0.407888
H223	H	1.243483	-0.417881	-0.156812
H224	H	1.743483	0.082119	0.343188
H225	H	1.263458	-0.316040	-0.058385
H226	H	1.763458	0.183960	0.441615
H227	H	1.194337	-0.309292	-0.123094
H228	H	1.694337	0.190708	0.376906
C229	C	0.971410	0.263685	0.326512
C230	C	1.471410	0.763685	0.826512
C231	C	0.956935	0.195333	0.344961
C232	C	1.456935	0.695333	0.844961
H233	H	0.928715	0.295665	0.352368
H234	H	1.428715	0.795665	0.852368
H235	H	1.032916	0.271332	0.338999
H236	H	1.532916	0.771332	0.838999
H237	H	0.962399	0.270416	0.275658
H238	H	1.462399	0.770416	0.775658
H239	H	0.965952	0.188600	0.395815
H240	H	1.465952	0.688600	0.895815
H241	H	0.895414	0.187684	0.332479
H242	H	1.395414	0.687684	0.832479
H243	H	0.974915	0.181911	0.804320
H244	H	1.474915	0.681911	1.304320
H245	H	0.942147	-0.099576	0.000070
H246	H	1.442147	0.400424	0.500070
C247	C	1.005650	0.238019	0.141106
C248	C	1.505650	0.738019	0.641106
C249	C	0.956916	0.195328	0.184949
C250	C	1.456916	0.695328	0.684949
H251	H	0.962958	0.269998	0.115236
H252	H	1.462958	0.769998	0.615236
H253	H	1.043923	0.263067	0.170835
H254	H	1.543923	0.763067	0.670835
H255	H	1.043108	0.209945	0.107504
H256	H	1.543108	0.709945	0.607504
H257	H	0.919462	0.223402	0.218555
H258	H	1.419462	0.723402	0.718555
H259	H	0.918627	0.170278	0.155217
H260	H	1.418627	0.670278	0.655217
H261	H	1.066579	0.211150	0.430904
H262	H	1.566579	0.711150	0.930904
H263	H	1.238430	-0.576166	0.000082
H264	H	1.738430	-0.076166	0.500082
C265	C	1.174898	-0.529817	-0.139290
C266	C	1.674898	-0.029817	0.360710
C267	C	1.222714	-0.492752	-0.088997
C268	C	1.722714	0.007248	0.411003
H269	H	1.218119	-0.558635	-0.168090
H270	H	1.718119	-0.058635	0.331910
H271	H	1.135936	-0.558037	-0.114028
H272	H	1.635936	-0.058037	0.385972
H273	H	1.138220	-0.497913	-0.169870
H274	H	1.638220	0.002087	0.330130
H275	H	1.259386	-0.524657	-0.058414
H276	H	1.759386	-0.024657	0.441586
H277	H	1.261691	-0.464530	-0.114261
H278	H	1.761691	0.035470	0.385739
H279	H	0.933451	-0.546498	0.000042
H280	H	1.433451	-0.046498	0.500042
