data_functionalizedCrystal
_audit_creation_method	'MofGen! by Chris Wilmer'
_symmetry_space_group_name_H-M	'P1'
_symmetry_Int_Tables_number	1
_symmetry_cell_setting	triclinic
loop_
_symmetry_equiv_pos_as_xyz
  x,y,z
_cell_length_a	17.077404
_cell_length_b	16.959454
_cell_length_c	17.077396
_cell_angle_alpha	89.975265
_cell_angle_beta	89.981638
_cell_angle_gamma	90.018045
loop_
_atom_site_label
_atom_site_type_symbol
_atom_site_fract_x
_atom_site_fract_y
_atom_site_fract_z
Zn1	Zn	1.200070	-0.314724	-0.443839
Zn2	Zn	1.199983	-0.446912	-0.312582
Zn3	Zn	1.068802	-0.314747	-0.312590
Zn4	Zn	1.068776	-0.446860	-0.443808
O5	O	1.134408	-0.380811	-0.378205
O6	O	1.309905	-0.332272	-0.426437
O7	O	1.182556	-0.429411	-0.202736
O8	O	1.086262	-0.204133	-0.330017
O9	O	1.309842	-0.429390	-0.330003
O10	O	1.182704	-0.204116	-0.426445
O11	O	1.086178	-0.332310	-0.202742
O12	O	0.958951	-0.332260	-0.329986
O13	O	1.086218	-0.429301	-0.553659
O14	O	0.958933	-0.429323	-0.426392
O15	O	1.182679	-0.332221	-0.553682
O16	O	1.182532	-0.557516	-0.329973
O17	O	1.086134	-0.557478	-0.426384
C18	C	0.930460	-0.380788	-0.378187
C19	C	0.843210	-0.380798	-0.378198
C20	C	1.134342	-0.586177	-0.378191
C21	C	1.134386	-0.674034	-0.378212
C22	C	0.802254	-0.330319	-0.428488
C23	C	0.720273	-0.330324	-0.428492
C24	C	0.679251	-0.380813	-0.378209
C25	C	0.720213	-0.431294	-0.327913
C26	C	0.802192	-0.431285	-0.327906
C27	C	0.549343	-0.431312	-0.327933
C28	C	0.467358	-0.431323	-0.327941
C29	C	0.467424	-0.330351	-0.428518
C30	C	0.549403	-0.330342	-0.428511
C31	C	0.590360	-0.380824	-0.378217
C32	C	1.084287	-1.045519	-0.428401
C33	C	1.184748	-1.045499	-0.328089
C34	C	1.184720	-0.962953	-0.328081
C35	C	1.134474	-0.921687	-0.378234
C36	C	1.084256	-0.962966	-0.428393
C37	C	1.234932	-0.921668	-0.277917
C38	C	1.234906	-0.839117	-0.277907
C39	C	1.184664	-0.797849	-0.328064
C40	C	1.134444	-0.839133	-0.378226
C41	C	1.084198	-0.797866	-0.428379
C42	C	1.033981	-0.839149	-0.478546
C43	C	1.034013	-0.921698	-0.478550
C44	C	1.184632	-0.715300	-0.328060
C45	C	1.084167	-0.715313	-0.428372
C46	C	1.339152	-0.380834	-0.378223
C47	C	1.426402	-0.380844	-0.378231
C48	C	1.134455	-0.380753	-0.582949
C49	C	1.134476	-0.380728	-0.670199
C50	C	1.134495	-0.174643	-0.378235
C51	C	1.134532	-0.086786	-0.378248
C52	C	1.184705	-0.330174	-0.711202
C53	C	1.184714	-0.330148	-0.793183
C54	C	1.134498	-0.380680	-0.834158
C55	C	1.084263	-0.431236	-0.793149
C56	C	1.084250	-0.431257	-0.711170
C57	C	1.084295	-0.431188	-0.964019
C58	C	1.084309	-0.431168	-1.046004
C59	C	1.184758	-0.330079	-1.046032
C60	C	1.184746	-0.330100	-0.964053
C61	C	1.134512	-0.380657	-0.923050
C62	C	1.134406	-0.380812	-0.174257
C63	C	1.134538	-0.380614	-0.087008
H64	H	0.835649	-0.289207	-0.469437
H65	H	1.275834	-0.955273	-0.237080
H66	H	1.275796	-0.805510	-0.237060
O67	O	1.238909	-0.275600	-0.919858
H68	H	1.278826	-0.310998	-0.882515
H69	H	1.043341	-0.472415	-0.677786
O70	O	1.030093	-0.485732	-0.837341
H71	H	1.065211	-0.525949	-0.874686
O72	O	1.238944	-1.089994	-0.273994
H73	H	1.300534	-1.074088	-0.287516
O74	O	0.593654	-0.275882	-0.482737
H75	H	0.551404	-0.240771	-0.517704
O76	O	0.423256	-0.275892	-0.482758
H77	H	0.385906	-0.311321	-0.522634
O78	O	1.238898	-0.275627	-0.837406
H79	H	1.203792	-0.235388	-0.874750
H80	H	0.433960	-0.472436	-0.286996
O81	O	0.979839	-0.966221	-0.532640
H82	H	0.988292	-1.030554	-0.524207
O83	O	1.030114	-0.485717	-0.919793
H84	H	0.990183	-0.450341	-0.882449
H85	H	1.225659	-0.288912	-1.079421
H86	H	0.686930	-0.289220	-0.469445
O87	O	0.593523	-0.485758	-0.273687
H88	H	0.577789	-0.547814	-0.287052
O89	O	1.029964	-0.670803	-0.482456
H90	H	0.995047	-0.713380	-0.517331
O91	O	1.238803	-0.670778	-0.273971
H92	H	1.230345	-0.606443	-0.282394
H93	H	0.686806	-0.472399	-0.286968
H94	H	1.225599	-0.289028	-0.677846
H95	H	1.043416	-0.472313	-1.079364
H96	H	0.835537	-0.472390	-0.286955
H97	H	0.993067	-0.805540	-0.519377
H98	H	1.043404	-1.079135	-0.469247
