data_functionalizedCrystal
_audit_creation_method	'MofGen! by Chris Wilmer'
_symmetry_space_group_name_H-M	'P1'
_symmetry_Int_Tables_number	1
_symmetry_cell_setting	triclinic
loop_
_symmetry_equiv_pos_as_xyz
  x,y,z
_cell_length_a	12.594517
_cell_length_b	29.839131
_cell_length_c	12.594509
_cell_angle_alpha	90.042620
_cell_angle_beta	90.022214
_cell_angle_gamma	90.034660
loop_
_atom_site_label
_atom_site_type_symbol
_atom_site_fract_x
_atom_site_fract_y
_atom_site_fract_z
Zn1	Zn	1.627125	-0.178847	0.601779
Zn2	Zn	1.626956	-0.253981	0.423755
Zn3	Zn	1.449129	-0.178865	0.423805
Zn4	Zn	1.449052	-0.253950	0.601683
O5	O	1.538066	-0.216411	0.512755
O6	O	1.776049	-0.188819	0.578183
O7	O	1.603329	-0.244038	0.274816
O8	O	1.472844	-0.115996	0.447474
O9	O	1.775925	-0.244020	0.447390
O10	O	1.603617	-0.115982	0.578231
O11	O	1.472680	-0.188851	0.274852
O12	O	1.300173	-0.188820	0.447381
O13	O	1.472712	-0.243966	0.750641
O14	O	1.300116	-0.243984	0.578067
O15	O	1.603542	-0.188788	0.750712
O16	O	1.603254	-0.316844	0.447297
O17	O	1.472548	-0.316821	0.578020
C18	C	1.261525	-0.216401	0.512720
C19	C	1.143219	-0.216408	0.512730
C20	C	1.003202	-0.186371	0.441812
C21	C	1.074070	-0.175425	0.538945
C22	C	1.073923	-0.227333	0.415608
C23	C	1.003301	-0.205458	0.609992
C24	C	1.003148	-0.257386	0.486589
C25	C	1.073984	-0.246455	0.583789
C26	C	1.537903	-0.333133	0.512666
C27	C	1.537931	-0.383068	0.512663
C28	C	1.606144	-0.692669	0.580937
C29	C	1.606260	-0.880342	0.581001
O30	O	1.664098	-0.904571	0.638984
N31	N	1.538246	-0.903853	0.512874
C32	C	1.470194	-0.880442	0.444730
O33	O	1.412340	-0.904746	0.386792
C34	C	1.470074	-0.692770	0.444672
C35	C	1.538100	-0.669262	0.512797
C36	C	1.674163	-0.669161	0.649057
C37	C	1.674138	-0.622245	0.649037
C38	C	1.606093	-0.598838	0.580896
C39	C	1.538074	-0.622346	0.512776
C40	C	1.402017	-0.669361	0.376534
C41	C	1.401992	-0.622440	0.376528
C42	C	1.470017	-0.598931	0.444653
C43	C	1.470004	-0.552024	0.444614
N44	N	1.538018	-0.528513	0.512742
C45	C	1.606062	-0.551920	0.580883
C46	C	1.470264	-0.978973	0.444763
C47	C	1.470295	-1.025891	0.444776
C48	C	1.606359	-1.025787	0.581050
C49	C	1.606333	-0.978869	0.581031
C50	C	1.538277	-0.955462	0.512891
C51	C	1.606004	-0.453394	0.580834
C52	C	1.605976	-0.406475	0.580804
C53	C	1.469908	-0.406582	0.444535
C54	C	1.469940	-0.453498	0.444560
C55	C	1.537991	-0.476903	0.512718
O56	O	1.412188	-0.527766	0.386670
O57	O	1.663891	-0.527609	0.638829
C58	C	1.606170	-0.739584	0.580958
C59	C	1.538151	-0.763093	0.512838
C60	C	1.470106	-0.739686	0.444698
C61	C	1.538182	-0.810011	0.512851
C62	C	1.606226	-0.833418	0.580992
C63	C	1.674240	-0.809907	0.649120
C64	C	1.674214	-0.762992	0.649099
C65	C	1.402093	-0.763196	0.376570
C66	C	1.402124	-0.810112	0.376595
C67	C	1.470169	-0.833519	0.444736
C68	C	1.815686	-0.216421	0.512792
C69	C	1.933992	-0.216425	0.512807
C70	C	1.538137	-0.216371	0.790377
C71	C	1.538167	-0.216355	0.908682
C72	C	1.538258	-0.099232	0.512869
C73	C	1.538339	-0.049298	0.512917
C74	C	1.538056	-0.216417	0.236214
C75	C	1.538232	-0.216308	0.117910
C76	C	1.467031	-0.246349	0.977897
C77	C	1.564143	-0.257326	1.048682
C78	C	1.441131	-0.205350	1.048696
C79	C	1.635330	-0.227353	0.977909
C80	C	1.512252	-0.175359	0.977917
C81	C	1.609431	-0.186320	1.048670
H82	H	0.971974	-0.292022	0.464411
Cl83	Cl	1.702455	-0.147128	1.096353
H84	H	1.490270	-0.140719	0.946808
H85	H	1.661765	-1.044853	0.636531
Cl86	Cl	1.762104	-0.241759	0.930111
H87	H	1.359042	-0.196062	1.079790
Cl88	Cl	1.121825	-0.241590	0.288749
Cl89	Cl	1.691851	-0.949320	0.666678
H90	H	1.729527	-0.603108	0.704513
H91	H	0.972127	-0.160943	0.381881
H92	H	1.661374	-0.387336	0.636279
H93	H	1.104865	-0.271864	0.643863
Cl94	Cl	1.598040	-0.310821	1.096677
H95	H	1.414510	-0.387517	0.389052
H96	H	1.661411	-0.472445	0.636342
Cl97	Cl	1.759714	-0.698578	0.734735
Cl98	Cl	1.384788	-1.055438	0.359116
Cl99	Cl	1.384696	-0.949554	0.359096
Cl100	Cl	0.955610	-0.191139	0.736890
Cl101	Cl	1.316489	-0.698902	0.290890
H102	H	1.346569	-0.603384	0.321042
H103	H	1.414556	-0.472639	0.389079
Cl104	Cl	1.122155	-0.121933	0.573151
H105	H	1.729607	-0.743855	0.704573
H106	H	1.729648	-0.828973	0.704599
H107	H	1.346731	-0.829248	0.321110
H108	H	1.406921	-0.271753	0.946823
Cl109	Cl	1.316537	-0.733777	0.290903
