data_functionalizedCrystal
_audit_creation_method	'MofGen! by Chris Wilmer'
_symmetry_space_group_name_H-M	'P1'
_symmetry_Int_Tables_number	1
_symmetry_cell_setting	triclinic
loop_
_symmetry_equiv_pos_as_xyz
  x,y,z
_cell_length_a	10.654546
_cell_length_b	23.532407
_cell_length_c	9.130313
_cell_angle_alpha	90.009707
_cell_angle_beta	90.007851
_cell_angle_gamma	83.666134
loop_
_atom_site_label
_atom_site_type_symbol
_atom_site_fract_x
_atom_site_fract_y
_atom_site_fract_z
O1	O	-1.665303	-0.079973	-0.122088
O2	O	-1.299582	-0.087596	-0.122037
O3	O	-1.493471	-0.000924	-0.122023
O4	O	-1.471414	-0.166644	-0.122102
O5	O	-1.493468	-0.000927	0.121576
O6	O	-1.299580	-0.087598	0.121562
O7	O	-1.665300	-0.079975	0.121511
Cu8	Cu	-1.482440	-0.083787	0.143779
Cu9	Cu	-1.482443	-0.083784	-0.144305
O10	O	-1.471412	-0.166647	0.121497
C11	C	-1.252801	-0.087037	-0.000231
C12	C	-1.113410	-0.085364	-0.000209
C13	C	-1.032308	-0.136395	-0.000249
C14	C	-0.901337	-0.134819	-0.000263
C15	C	-0.932584	-0.031178	-0.000203
C16	C	-1.063552	-0.032754	-0.000179
C17	C	-1.014266	-0.196231	-0.000289
C18	C	-0.883295	-0.194655	-0.000303
N19	N	-1.482447	-0.083789	0.346401
C20	C	-1.492908	0.020294	-0.000216
C21	C	-1.491219	0.083522	-0.000194
C22	C	-0.712082	-0.080535	-0.000278
C23	C	-0.851471	-0.082212	-0.000247
C24	C	-1.471975	-0.187865	-0.000314
C25	C	-1.473664	-0.251093	-0.000346
C26	C	-1.369516	0.350482	-0.000268
C27	C	-1.371085	0.291071	-0.000257
O28	O	-1.274539	0.254955	-0.000290
N29	N	-1.486351	0.267695	-0.000256
C30	C	-1.600057	0.303732	-0.000282
O31	O	-1.698244	0.278393	-0.000281
C32	C	-1.598487	0.363141	-0.000303
C33	C	-1.483213	0.386515	-0.000289
C34	C	-1.254251	0.373855	-0.000256
C35	C	-1.252683	0.433262	-0.000264
C36	C	-1.366380	0.469295	-0.000285
C37	C	-1.481644	0.445921	-0.000297
C38	C	-1.712191	0.399178	-0.000339
C39	C	-1.710611	0.458590	-0.000361
C40	C	-1.595337	0.481964	-0.000347
C41	C	-1.593773	0.541360	-0.000326
N42	N	-1.478506	0.564737	-0.000327
C43	C	-1.364810	0.528704	-0.000306
C44	C	-1.603345	0.178968	-0.000239
C45	C	-1.604916	0.119560	-0.000207
C46	C	-1.375944	0.106903	-0.000185
C47	C	-1.374374	0.166313	-0.000207
C48	C	-1.488078	0.202345	-0.000240
C49	C	-1.361525	0.653462	-0.000323
C50	C	-1.359967	0.712874	-0.000325
C51	C	-1.588939	0.725526	-0.000354
C52	C	-1.590498	0.666119	-0.000344
C53	C	-1.476781	0.630088	-0.000333
O54	O	-1.690268	0.577511	-0.000300
O55	O	-1.266638	0.554051	-0.000326
N56	N	-1.482446	-0.083778	-0.346928
C57	C	-1.568322	-0.045424	0.423059
C58	C	-1.568319	-0.045417	0.576396
C59	C	-1.396561	-0.122145	0.576403
C60	C	-1.396559	-0.122148	0.423069
C61	C	-1.667489	-0.001127	0.423057
C62	C	-1.667486	-0.001120	0.576393
H63	H	-1.266093	0.731901	-0.000307
F64	F	-1.240494	0.615123	-0.000310
H65	H	-1.280508	0.185339	-0.000189
F66	F	-1.709937	0.763884	-0.000366
H67	H	-0.837050	-0.212740	0.104860
H68	H	-1.158815	0.452286	-0.000265
H69	H	-0.840849	-0.217200	-0.102264
F70	F	-0.879509	0.024810	-0.000170
F71	F	-1.133228	0.335515	-0.000239
F72	F	-1.149864	0.021559	-0.000108
F73	F	-1.254937	0.068544	-0.000164
F74	F	-1.727607	0.094691	-0.000201
F75	F	-1.051640	-0.226822	0.132943
F76	F	-1.724374	0.217312	-0.000259
H77	H	-1.806059	0.380158	-0.000351
F78	F	-1.060090	-0.221132	-0.137770
H79	H	-1.803205	0.487926	-0.000396
F80	F	-1.713184	0.641242	-0.000313
F81	F	-1.786091	-0.019261	0.360860
H82	H	-1.647433	0.042644	0.381461
F83	F	-1.305157	-0.162967	0.658010
H84	H	-1.326622	-0.153383	0.360655
H85	H	-1.638283	0.040243	0.623965
F86	F	-1.793229	-0.013868	0.630771
