data_functionalizedCrystal
_audit_creation_method	'MofGen! by Chris Wilmer'
_symmetry_space_group_name_H-M	'P1'
_symmetry_Int_Tables_number	1
_symmetry_cell_setting	triclinic
loop_
_symmetry_equiv_pos_as_xyz
  x,y,z
_cell_length_a	42.784839
_cell_length_b	42.784841
_cell_length_c	42.784893
_cell_angle_alpha	90.002418
_cell_angle_beta	59.997780
_cell_angle_gamma	119.999863
loop_
_atom_site_label
_atom_site_type_symbol
_atom_site_fract_x
_atom_site_fract_y
_atom_site_fract_z
O1	O	0.275695	-0.214412	-0.009300
O2	O	0.211692	-0.168961	0.009253
O3	O	0.275692	-0.168961	-0.054750
O4	O	0.211694	-0.214412	0.054702
O5	O	0.223708	-0.220945	-0.054749
O6	O	0.159708	-0.220945	0.009253
O7	O	0.223710	-0.266397	-0.009300
Zn8	Zn	0.183455	-0.251924	-0.000023
Zn9	Zn	0.251947	-0.183433	-0.000024
O10	O	0.159710	-0.266396	0.054703
C11	C	0.051021	-0.022778	0.028112
C12	C	0.013142	-0.041761	0.028375
C13	C	0.051018	-0.079378	0.028116
C14	C	0.013139	-0.098275	0.028379
C15	C	-0.005578	-0.079377	0.028112
C16	C	0.069652	-0.041762	0.028379
C17	C	0.152948	0.113708	0.017863
C18	C	0.173786	0.152360	0.014965
C19	C	0.155902	0.171750	0.013509
C20	C	0.178499	0.213661	0.010359
C21	C	0.117177	0.152485	0.014953
C22	C	0.096339	0.113835	0.017857
C23	C	0.114226	0.094447	0.019312
C24	C	-0.131813	-0.113936	0.017859
C25	C	-0.167567	-0.131750	0.014961
C26	C	-0.185502	-0.169024	0.013506
C27	C	-0.224264	-0.188340	0.010358
C28	C	-0.167685	-0.188485	0.014954
C29	C	-0.131938	-0.170675	0.017859
C30	C	-0.114002	-0.133396	0.019309
C31	C	0.152939	-0.113943	0.017877
C32	C	0.173778	-0.131757	0.014977
C33	C	0.155892	-0.169032	0.013523
C34	C	0.178486	-0.188349	0.010377
C35	C	0.117170	-0.188491	0.014967
C36	C	0.096334	-0.170675	0.017865
C37	C	0.114220	-0.133401	0.019323
C38	C	0.091629	0.052537	0.022456
C39	C	0.073617	0.019131	0.024964
C40	C	0.073613	-0.098693	0.024971
C41	C	0.091623	-0.114089	0.022466
C42	C	-0.044339	-0.098690	0.024964
C43	C	-0.075237	-0.114084	0.022456
O44	O	-0.327856	-0.266388	-0.009322
O45	O	-0.236954	-0.220935	0.009228
O46	O	-0.236950	-0.220939	-0.054773
O47	O	-0.327860	-0.266385	0.054680
O48	O	-0.236948	-0.168954	-0.054776
O49	O	-0.236952	-0.168950	0.009225
O50	O	-0.327854	-0.214403	-0.009325
Zn51	Zn	-0.282403	-0.183423	-0.000050
Zn52	Zn	-0.282405	-0.251916	-0.000046
O53	O	-0.327858	-0.214400	0.054676
C54	C	0.384390	-0.079141	-0.361606
C55	C	0.422270	-0.041526	-0.380503
C56	C	0.384390	-0.079141	-0.305008
C57	C	0.422270	-0.041526	-0.323990
C58	C	0.440988	-0.022543	-0.361606
C59	C	0.365758	-0.098038	-0.323991
C60	C	0.282465	-0.170819	-0.396168
C61	C	0.261627	-0.188759	-0.413983
C62	C	0.279513	-0.169420	-0.451257
C63	C	0.256917	-0.188867	-0.470572
C64	C	0.318239	-0.132140	-0.470717
C65	C	0.339076	-0.114205	-0.452905
C66	C	0.321187	-0.133546	-0.415628
C67	C	0.567227	0.113942	-0.453282
C68	C	0.602981	0.152594	-0.471222
C69	C	0.620916	0.171985	-0.451883
C70	C	0.659678	0.213894	-0.471328
C71	C	0.603097	0.152719	-0.414603
C72	C	0.567349	0.114068	-0.396667
C73	C	0.549414	0.094682	-0.416011
C74	C	0.282465	-0.170819	-0.168522
C75	C	0.261624	-0.188757	-0.129868
C76	C	0.279510	-0.169418	-0.110479
C77	C	0.256914	-0.188865	-0.068568
C78	C	0.318233	-0.132140	-0.129742
C79	C	0.339070	-0.114203	-0.168394
C80	C	0.321184	-0.133548	-0.187782
C81	C	0.343783	-0.114094	-0.396315
C82	C	0.361794	-0.098590	-0.380920
C83	C	0.361794	-0.098590	-0.263099
C84	C	0.343783	-0.114094	-0.229693
C85	C	0.479750	0.019366	-0.381054
C86	C	0.510649	0.052771	-0.396557
C87	C	0.440758	-0.356212	-0.028193
C88	C	0.422041	-0.393827	-0.028459
C89	C	0.384158	-0.356213	-0.028190
C90	C	0.365526	-0.393828	-0.028456
C91	C	0.384160	-0.412810	-0.028193
C92	C	0.422038	-0.337315	-0.028456
C93	C	0.567000	-0.264532	-0.017949
C94	C	0.602755	-0.246591	-0.015053
C95	C	0.620692	-0.265931	-0.013601
C96	C	0.659455	-0.246483	-0.010453
C97	C	0.602873	-0.303210	-0.015048
C98	C	0.567125	-0.321146	-0.017949
C99	C	0.549188	-0.301805	-0.019399
C100	C	0.339356	-0.549295	-0.017951
C101	C	0.318645	-0.587947	-0.015055
C102	C	0.279915	-0.607338	-0.013597
C103	C	0.257452	-0.649247	-0.010452
C104	C	0.261899	-0.588073	-0.015042
C105	C	0.282613	-0.549422	-0.017945
C106	C	0.321343	-0.530035	-0.019397
C107	C	0.339344	-0.264537	-0.017936
C108	C	0.318628	-0.246599	-0.015032
C109	C	0.279898	-0.265939	-0.013577
C110	C	0.257433	-0.246493	-0.010426
C111	C	0.261884	-0.303217	-0.015022
C112	C	0.282601	-0.321153	-0.017924
C113	C	0.321334	-0.301808	-0.019385
C114	C	0.510421	-0.321258	-0.022542
C115	C	0.479522	-0.336762	-0.025048
C116	C	0.361696	-0.336765	-0.025041
C117	C	0.343793	-0.321261	-0.022532
C118	C	0.361701	-0.454719	-0.025047
C119	C	0.343799	-0.488125	-0.022541
O120	O	0.223728	0.336934	-0.009323
O121	O	0.159726	0.227482	0.009227
O122	O	0.223729	0.291478	-0.054775
O123	O	0.159725	0.272938	0.054678
O124	O	0.275711	0.291477	-0.054771
O125	O	0.211707	0.227481	0.009230
O126	O	0.275710	0.336932	-0.009320
Zn127	Zn	0.251962	0.282206	-0.000045
Zn128	Zn	0.183474	0.282208	-0.000049
O129	O	0.211707	0.272936	0.054681
O130	O	0.763271	0.337164	-0.496871
O131	O	0.672367	0.227713	-0.451422
O132	O	0.672365	0.291711	-0.451418
O133	O	0.763273	0.273165	-0.496876
O134	O	0.672366	0.291712	-0.503402
O135	O	0.672368	0.227714	-0.503407
O136	O	0.763272	0.337165	-0.548856
Zn137	Zn	0.717820	0.282440	-0.534385
Zn138	Zn	0.717819	0.282438	-0.465893
O139	O	0.763275	0.273167	-0.548860
O140	O	0.211690	-0.214417	-0.548617
O141	O	0.275691	-0.168962	-0.503167
O142	O	0.211689	-0.168964	-0.503163
O143	O	0.275692	-0.214415	-0.548621
O144	O	0.159706	-0.220947	-0.451179
O145	O	0.223708	-0.220945	-0.451183
O146	O	0.159707	-0.266400	-0.496633
Zn147	Zn	0.183454	-0.251926	-0.465654
Zn148	Zn	0.251944	-0.183436	-0.534146
O149	O	0.223709	-0.266398	-0.496637
C150	C	-0.005343	-0.412572	0.361558
C151	C	0.013375	-0.393590	0.380456
C152	C	0.051255	-0.355974	0.304961
C153	C	0.069887	-0.337077	0.323944
C154	C	0.051254	-0.355974	0.361560
C155	C	0.013375	-0.393589	0.323943
C156	C	-0.131582	-0.549057	0.396116
C157	C	-0.167336	-0.587709	0.413930
C158	C	-0.185271	-0.607098	0.451205
C159	C	-0.224034	-0.649009	0.470519
C160	C	-0.167452	-0.587833	0.470666
C161	C	-0.131705	-0.549184	0.452854
C162	C	-0.113770	-0.529796	0.415578
C163	C	0.096061	-0.321414	0.453239
C164	C	0.116773	-0.303600	0.471179
C165	C	0.155502	-0.266327	0.451842
C166	C	0.177965	-0.247011	0.471288
C167	C	0.173517	-0.246866	0.414562
C168	C	0.152802	-0.264677	0.396625
C169	C	0.114073	-0.301955	0.415968
C170	C	0.096064	-0.321412	0.168474
C171	C	0.116779	-0.303599	0.129820
C172	C	0.155508	-0.266324	0.110432
C173	C	0.177972	-0.247009	0.068521
C174	C	0.173522	-0.246865	0.129696
C175	C	0.152807	-0.264680	0.168348
C176	C	0.114075	-0.301953	0.187735
C177	C	-0.075004	-0.487887	0.396265
C178	C	-0.044106	-0.454481	0.380871
C179	C	0.073715	-0.336660	0.263052
C180	C	0.091618	-0.321265	0.229646
C181	C	0.073714	-0.336661	0.381009
C182	C	0.091616	-0.321267	0.396513
C183	C	0.051046	-0.022794	-0.361634
C184	C	0.069679	-0.041778	-0.380530
C185	C	-0.005555	-0.079390	-0.305034
C186	C	0.013163	-0.098288	-0.324016
C187	C	0.051045	-0.079393	-0.361631
C188	C	0.013164	-0.041775	-0.324018
C189	C	0.095858	0.113693	-0.396200
C190	C	0.116571	0.152344	-0.414015
C191	C	0.155302	0.171732	-0.451290
C192	C	0.177767	0.213642	-0.470607
C193	C	0.173317	0.152465	-0.470750
C194	C	0.152600	0.113815	-0.452936
C195	C	0.113869	0.094429	-0.415659
C196	C	0.152973	-0.113959	-0.453306
C197	C	0.173810	-0.131775	-0.471245
C198	C	0.155926	-0.169048	-0.451906
C199	C	0.178519	-0.188366	-0.471350
C200	C	0.117198	-0.188507	-0.414626
C201	C	0.096358	-0.170694	-0.396690
C202	C	0.114251	-0.133416	-0.416035
C203	C	-0.131801	-0.113944	-0.168548
C204	C	-0.167554	-0.131755	-0.129895
C205	C	-0.185491	-0.169029	-0.110504
C206	C	-0.224255	-0.188343	-0.068593
C207	C	-0.167671	-0.188490	-0.129767
C208	C	-0.131918	-0.170677	-0.168418
C209	C	-0.113988	-0.133404	-0.187808
C210	C	0.091411	0.052521	-0.396344
C211	C	0.073508	0.019115	-0.380949
C212	C	-0.044320	-0.098701	-0.263125
C213	C	-0.075220	-0.114094	-0.229719
C214	C	0.073641	-0.098707	-0.381079
C215	C	0.091652	-0.114103	-0.396582
C216	C	-0.615853	-0.356193	0.361535
C217	C	-0.634487	-0.393808	0.380433
C218	C	-0.559253	-0.356195	0.304938
C219	C	-0.577972	-0.393810	0.323921
C220	C	-0.615854	-0.412792	0.361537
C221	C	-0.577972	-0.337297	0.323920
C222	C	-0.660661	-0.264512	0.396093
C223	C	-0.681373	-0.246571	0.413906
C224	C	-0.720104	-0.265909	0.451181
C225	C	-0.742568	-0.246461	0.470495
C226	C	-0.738120	-0.303189	0.470643
C227	C	-0.717405	-0.321125	0.452831
C228	C	-0.678674	-0.301785	0.415554
C229	C	-0.717784	-0.549275	0.453218
C230	C	-0.738622	-0.587926	0.471159
C231	C	-0.720740	-0.607319	0.451822
C232	C	-0.743333	-0.649227	0.471268
C233	C	-0.682012	-0.588055	0.414542
C234	C	-0.661170	-0.549403	0.396604
C235	C	-0.679063	-0.530016	0.415946
C236	C	-0.433006	-0.264522	0.168449
C237	C	-0.397253	-0.246585	0.129796
C238	C	-0.379317	-0.265926	0.110407
C239	C	-0.340553	-0.246480	0.068496
C240	C	-0.397138	-0.303204	0.129672
C241	C	-0.432891	-0.321139	0.168324
C242	C	-0.450820	-0.301793	0.187711
C243	C	-0.656216	-0.321238	0.396242
C244	C	-0.638314	-0.336743	0.380848
C245	C	-0.520488	-0.336748	0.263028
C246	C	-0.489588	-0.321245	0.229622
C247	C	-0.638451	-0.454700	0.380987
C248	C	-0.656463	-0.488106	0.396492
C249	C	0.440756	0.310302	-0.361620
C250	C	0.422038	0.310564	-0.380518
C251	C	0.384160	0.310312	-0.305026
C252	C	0.365528	0.310574	-0.324010
C253	C	0.384159	0.310303	-0.361624
C254	C	0.422038	0.310573	-0.324006
C255	C	0.566989	0.300046	-0.396172
C256	C	0.602741	0.297145	-0.413984
C257	C	0.620675	0.295684	-0.451257
C258	C	0.659436	0.292531	-0.470569
C259	C	0.602857	0.297127	-0.470719
C260	C	0.567111	0.300033	-0.452909
C261	C	0.549177	0.301493	-0.415634
C262	C	0.339351	0.300042	-0.453303
C263	C	0.318640	0.297142	-0.471244
C264	C	0.279912	0.295690	-0.451908
C265	C	0.257449	0.292541	-0.471354
C266	C	0.261899	0.297143	-0.414629
C267	C	0.282613	0.300049	-0.396692
C268	C	0.321341	0.301496	-0.416033
C269	C	0.339354	0.300088	-0.168540
C270	C	0.318640	0.297192	-0.129888
C271	C	0.279912	0.295742	-0.110501
C272	C	0.257450	0.292601	-0.068591
C273	C	0.261898	0.297184	-0.129766
C274	C	0.282612	0.300078	-0.168417
C275	C	0.321344	0.301533	-0.187802
C276	C	0.510413	0.304640	-0.396323
C277	C	0.479516	0.307151	-0.380931
C278	C	0.361701	0.307173	-0.263117
C279	C	0.343799	0.304671	-0.229712
C280	C	0.361700	0.307154	-0.381073
C281	C	0.343798	0.304644	-0.396578
O282	O	0.275503	0.336913	-0.548651
O283	O	0.211494	0.227461	-0.503201
O284	O	0.275490	0.291455	-0.503192
O285	O	0.211507	0.272919	-0.548659
O286	O	0.223502	0.291457	-0.451211
O287	O	0.159506	0.227463	-0.451219
O288	O	0.223515	0.336915	-0.496669
Zn289	Zn	0.183256	0.282189	-0.465691
Zn290	Zn	0.251753	0.282187	-0.534179
O291	O	0.159519	0.272921	-0.496677
C292	C	0.051032	0.254111	0.361530
C293	C	0.013154	0.253851	0.380425
C294	C	0.051031	0.254102	0.304932
C295	C	0.013153	0.253842	0.323913
C296	C	-0.005564	0.254113	0.361527
C297	C	0.069663	0.253840	0.323916
C298	C	0.152954	0.264360	0.396096
C299	C	0.173791	0.267260	0.413911
C300	C	0.155906	0.268721	0.451185
C301	C	0.178502	0.271871	0.470501
C302	C	0.117182	0.267279	0.470643
C303	C	0.096345	0.264374	0.452830
C304	C	0.114233	0.262915	0.415555
C305	C	-0.131796	0.264379	0.453195
C306	C	-0.167548	0.267281	0.471133
C307	C	-0.185483	0.268734	0.451793
C308	C	-0.224243	0.271886	0.471236
C309	C	-0.167664	0.267282	0.414515
C310	C	-0.131919	0.264374	0.396581
C311	C	-0.113984	0.262925	0.415925
C312	C	0.152952	0.264325	0.168451
C313	C	0.173792	0.267221	0.129798
C314	C	0.155907	0.268673	0.110407
C315	C	0.178502	0.271814	0.068498
C316	C	0.117186	0.267232	0.129669
C317	C	0.096350	0.264339	0.168320
C318	C	0.114234	0.262881	0.187709
C319	C	0.091638	0.259769	0.396240
C320	C	0.073627	0.257260	0.380845
C321	C	0.073626	0.257242	0.263024
C322	C	0.091636	0.259743	0.229619
C323	C	-0.044324	0.257264	0.380973
C324	C	-0.075221	0.259775	0.396474
H325	H	0.102606	-0.218843	0.013783
O326	O	-0.664622	-0.606858	0.395698
C327	C	-0.663114	-0.606173	0.362008
H328	H	-0.662970	-0.580998	0.353003
H329	H	-0.631826	-0.602945	0.338217
H330	H	-0.693327	-0.634019	0.367559
H331	H	0.437930	-0.026285	-0.308746
H332	H	-0.666703	-0.216219	0.398058
H333	H	0.332799	-0.116397	-0.501067
O334	O	0.211441	0.268719	0.395029
C335	C	0.245989	0.303290	0.391539
H336	H	0.231468	0.314694	0.414807
H337	H	0.267944	0.297935	0.394780
H338	H	0.266490	0.325197	0.362211
O339	O	0.058753	-0.189598	0.019216
C340	C	0.067427	-0.199116	-0.014385
H341	H	0.097538	-0.199957	-0.027454
H342	H	0.037567	-0.228394	-0.007090
H343	H	0.074189	-0.176695	-0.035783
O344	O	0.376677	-0.077987	-0.471854
C345	C	0.388002	-0.064766	-0.508576
H346	H	0.357249	-0.081432	-0.508542
H347	H	0.402156	-0.033009	-0.516490
H348	H	0.413759	-0.069164	-0.530391
O349	O	0.440662	-0.412061	-0.028920
C350	C	0.409776	-0.445048	0.003877
H351	H	0.374879	-0.454547	0.015173
H352	H	0.413622	-0.468979	-0.003894
H353	H	0.415852	-0.438295	0.026873
H354	H	-0.562304	-0.409050	0.308680
O355	O	0.336198	0.295861	-0.111209
C356	C	0.379324	0.329455	-0.129414
H357	H	0.382956	0.353233	-0.146096
H358	H	0.385553	0.338595	-0.106950
H359	H	0.404336	0.323704	-0.149916
O360	O	-0.005615	-0.023642	0.028898
C361	C	-0.043125	-0.048477	0.029066
H362	H	-0.056046	-0.079399	0.040820
H363	H	-0.069926	-0.043950	0.047897
H364	H	-0.033737	-0.042162	-0.001384
O365	O	0.329179	-0.411947	-0.028987
C366	C	0.316661	-0.387119	-0.029149
H367	H	0.346411	-0.356195	-0.040890
H368	H	0.304178	-0.391639	-0.047988
H369	H	0.289274	-0.393447	0.001300
O370	O	0.170348	0.094877	0.019215
C371	C	0.180782	0.081219	-0.011989
H372	H	0.185541	0.098991	-0.035855
H373	H	0.212560	0.083648	-0.022988
H374	H	0.152683	0.049973	-0.002358
O375	O	0.058398	-0.357594	0.187344
C376	C	0.023923	-0.357504	0.218423
H377	H	0.031728	-0.327591	0.212825
H378	H	-0.008389	-0.378740	0.221847
H379	H	0.020553	-0.366111	0.245729
O380	O	0.211410	0.171020	0.013546
C381	C	0.222722	0.145617	0.015461
H382	H	0.207172	0.121266	0.005508
H383	H	0.260199	0.161624	-0.003812
H384	H	0.209944	0.133420	0.046235
O385	O	0.058227	0.094915	-0.359996
C386	C	0.046775	0.120209	-0.346639
H387	H	0.062254	0.144592	-0.372073
H388	H	0.009287	0.104113	-0.328427
H389	H	0.059522	0.132373	-0.328615
O390	O	0.058398	-0.357598	0.472018
C391	C	0.023922	-0.357499	0.475432
H392	H	0.038524	-0.331514	0.452188
H393	H	0.002011	-0.384753	0.472094
H394	H	0.003352	-0.356152	0.504774
O395	O	0.549636	0.301477	-0.359969
C396	C	0.573020	0.299571	-0.346609
H397	H	0.607360	0.309523	-0.372042
H398	H	0.576201	0.318850	-0.328400
H399	H	0.554410	0.268801	-0.328583
H400	H	-0.447603	-0.248768	0.184232
O401	O	0.440893	-0.023393	-0.417368
C402	C	0.416240	-0.048228	-0.430054
H403	H	0.381144	-0.070968	-0.404313
H404	H	0.415183	-0.031151	-0.449511
H405	H	0.432455	-0.062646	-0.446595
O406	O	0.377007	0.301509	-0.472072
C407	C	0.411490	0.336079	-0.475489
H408	H	0.396895	0.347476	-0.452254
H409	H	0.433387	0.330726	-0.472139
H410	H	0.432072	0.357990	-0.504837
O411	O	0.376688	-0.077996	-0.187051
C412	C	0.387999	-0.064767	-0.161648
H413	H	0.372459	-0.090269	-0.137303
H414	H	0.425475	-0.046554	-0.177657
H415	H	0.375208	-0.046781	-0.149441
O416	O	0.099736	0.171258	0.013560
C417	C	0.061097	0.145971	0.015448
H418	H	0.046936	0.115216	0.029541
H419	H	0.035663	0.152300	0.033042
H420	H	0.069447	0.149948	-0.014709
H421	H	-0.117415	0.263190	0.366230
H422	H	0.335269	-0.128941	-0.308748
H423	H	0.552629	0.098160	-0.469035
O424	O	0.224020	-0.224973	-0.111217
C425	C	0.212696	-0.238194	-0.136615
H426	H	0.243452	-0.221531	-0.167334
H427	H	0.198535	-0.269952	-0.130373
H428	H	0.186946	-0.233789	-0.132676
O429	O	-0.185157	-0.224723	-0.110935
C430	C	-0.230018	-0.248811	-0.097280
H431	H	-0.236107	-0.235794	-0.115053
H432	H	-0.238587	-0.278158	-0.099713
H433	H	-0.251634	-0.251960	-0.066033
H434	H	0.230362	0.296001	-0.113978
O435	O	-0.185050	0.268759	0.395718
C436	C	-0.181564	0.303323	0.392314
H437	H	-0.153858	0.325433	0.394521
H438	H	-0.173906	0.314394	0.363421
H439	H	-0.214107	0.298089	0.416245
O440	O	0.210981	0.171331	-0.506931
C441	C	0.245458	0.202410	-0.506846
H442	H	0.237651	0.196817	-0.476931
H443	H	0.277767	0.205827	-0.528078
H444	H	0.248833	0.229717	-0.515460
H445	H	0.617482	-0.318952	-0.013867
O446	O	0.265165	0.301470	-0.187184
C447	C	0.291758	0.304345	-0.225457
H448	H	0.311362	0.292720	-0.227601
H449	H	0.269851	0.287009	-0.235222
H450	H	0.315564	0.335631	-0.244496
O451	O	0.058743	0.262948	0.187083
C452	C	0.044181	0.260073	0.225357
H453	H	0.073265	0.271697	0.227504
H454	H	0.029847	0.277411	0.235120
H455	H	0.017659	0.228787	0.244397
H456	H	0.102624	0.268416	0.113879
O457	O	0.620352	0.295757	-0.506942
C458	C	0.665209	0.326968	-0.531035
H459	H	0.678574	0.337504	-0.513105
H460	H	0.684934	0.317525	-0.552846
H461	H	0.668391	0.351112	-0.546636
H462	H	0.101900	0.168027	-0.398169
O463	O	0.440789	-0.300441	-0.028975
C464	C	0.478295	-0.287763	-0.029133
H465	H	0.491223	-0.305761	-0.040888
H466	H	0.505093	-0.256436	-0.047960
H467	H	0.468897	-0.290839	0.001319
O468	O	0.170376	0.262926	0.359895
C469	C	0.209024	0.264828	0.346539
H470	H	0.207975	0.254879	0.371974
H471	H	0.211135	0.245546	0.328333
H472	H	0.239214	0.295597	0.328510
O473	O	0.170325	-0.245818	0.187062
C474	C	0.180832	-0.266514	0.200714
H475	H	0.185521	-0.285688	0.183009
H476	H	0.212667	-0.245683	0.198178
H477	H	0.152804	-0.284906	0.231992
O478	O	0.211104	-0.210641	0.395833
C479	C	0.203978	-0.186551	0.416600
H480	H	0.175515	-0.204482	0.447896
H481	H	0.235231	-0.164736	0.414513
H482	H	0.195428	-0.170955	0.404185
H483	H	0.167518	0.263140	0.184235
H484	H	-0.664969	-0.409045	0.411340
O485	O	0.099290	-0.322443	0.111081
C486	C	0.088766	-0.301751	0.097450
H487	H	0.109570	-0.270424	0.094511
H488	H	0.096001	-0.303947	0.068338
H489	H	0.052217	-0.314148	0.118480
O490	O	-0.623030	-0.245663	0.359889
C491	C	-0.611576	-0.208919	0.346530
H492	H	-0.627057	-0.200012	0.371963
H493	H	-0.574088	-0.187528	0.328320
H494	H	-0.624322	-0.209503	0.328504
H495	H	0.552607	0.301210	-0.468757
O496	O	0.105966	-0.023593	0.028959
C497	C	0.096087	-0.012976	0.062098
H498	H	0.058868	-0.032078	0.084839
H499	H	0.113606	-0.016428	0.073522
H500	H	0.107799	0.018160	0.054732
O501	O	-0.184866	-0.112859	0.013503
C502	C	-0.181358	-0.109362	-0.021065
H503	H	-0.178716	-0.132633	-0.032471
H504	H	-0.211906	-0.112590	-0.015704
H505	H	-0.150617	-0.080037	-0.042974
H506	H	0.332793	-0.116391	-0.113952
H507	H	-0.117201	-0.533500	0.468702
H508	H	0.100165	-0.026535	-0.411435
O509	O	-0.005250	-0.411784	0.305722
C510	C	0.025658	-0.413671	0.272727
H511	H	0.051471	-0.411195	0.276190
H512	H	0.007898	-0.442162	0.268658
H513	H	0.042597	-0.389183	0.246653
H514	H	0.617241	0.295963	-0.398133
O515	O	-0.776276	-0.606695	0.507348
C516	C	-0.810819	-0.637753	0.507319
H517	H	-0.796292	-0.646499	0.481396
H518	H	-0.832777	-0.662949	0.534630
H519	H	-0.831319	-0.628927	0.505908
H520	H	-0.629638	-0.533721	0.366252
O521	O	0.549858	-0.357363	-0.019333
C522	C	0.573360	-0.370584	-0.017440
H523	H	0.589993	-0.353918	-0.003353
H524	H	0.549519	-0.402340	0.000161
H525	H	0.599573	-0.366185	-0.047595
H526	H	-0.002525	-0.129181	0.028805
O527	O	0.336194	-0.210382	-0.013647
C528	C	0.374815	-0.197160	-0.015547
H529	H	0.388869	-0.213825	-0.029638
H530	H	0.400331	-0.165403	-0.033148
H531	H	0.366476	-0.201559	0.014607
O532	O	0.211377	-0.112808	0.013597
C533	C	0.222699	-0.076087	0.015496
H534	H	0.191945	-0.076121	0.029581
H535	H	0.236849	-0.068174	0.033102
H536	H	0.248459	-0.054272	-0.014657
H537	H	0.205059	-0.216514	0.113907
H538	H	0.617704	0.168507	-0.398859
H539	H	0.167269	0.098131	-0.468782
O540	O	0.376980	-0.245795	-0.019372
C541	C	0.391397	-0.269622	-0.022236
H542	H	0.377448	-0.291980	-0.034653
H543	H	0.429049	-0.251584	-0.041777
H544	H	0.379352	-0.284569	0.007404
O545	O	0.440751	0.311133	-0.417410
C546	C	0.453406	0.344273	-0.440676
H547	H	0.458048	0.367020	-0.426206
H548	H	0.485794	0.355684	-0.469623
H549	H	0.426611	0.336914	-0.445014
H550	H	0.333308	0.295959	-0.501595
H551	H	0.335046	0.310999	-0.308768
O552	O	0.224310	-0.606934	-0.013678
C553	C	0.231435	-0.620575	-0.044894
H554	H	0.259901	-0.623405	-0.055428
H555	H	0.200184	-0.649741	-0.035456
H556	H	0.239982	-0.599611	-0.069038
H557	H	-0.562326	-0.306401	0.308670
H558	H	0.167506	-0.083593	0.019063
H559	H	0.267931	-0.351506	-0.019101
H560	H	-0.447397	-0.351491	0.184007
O561	O	-0.114612	-0.189602	-0.187076
C562	C	-0.099201	-0.199117	-0.168885
H563	H	-0.117083	-0.199955	-0.137935
H564	H	-0.105916	-0.228396	-0.169465
H565	H	-0.062143	-0.176696	-0.184546
O566	O	0.265161	-0.189561	-0.187417
C567	C	0.291852	-0.165734	-0.225660
H568	H	0.326625	-0.143375	-0.234068
H569	H	0.293358	-0.183773	-0.245274
H570	H	0.277157	-0.150790	-0.228563
O571	O	0.058755	0.095095	0.019211
C572	C	0.065817	0.081462	-0.012005
H573	H	0.094205	0.078524	-0.022529
H574	H	0.034509	0.052350	-0.002573
H575	H	0.074447	0.102489	-0.036155
H576	H	0.102103	-0.319447	0.501532
O577	O	-0.775785	-0.321983	0.506823
C578	C	-0.810261	-0.325382	0.506736
H579	H	-0.802452	-0.323171	0.476820
H580	H	-0.842571	-0.354273	0.527967
H581	H	-0.813638	-0.301450	0.515349
O582	O	-0.379983	-0.210367	0.111145
C583	C	-0.403482	-0.197144	0.136543
H584	H	-0.420116	-0.213811	0.167262
H585	H	-0.379639	-0.165388	0.130304
H586	H	-0.429693	-0.201540	0.132601
H587	H	-0.732075	-0.351477	0.468678
O588	O	-0.005593	-0.135164	-0.305785
C589	C	-0.043101	-0.147841	-0.268439
H590	H	-0.056023	-0.129837	-0.267266
H591	H	-0.069902	-0.179166	-0.260470
H592	H	-0.033709	-0.144770	-0.247381
O593	O	0.224050	-0.224991	-0.395120
C594	C	0.231091	-0.249151	-0.415816
H595	H	0.267969	-0.236138	-0.434991
H596	H	0.212794	-0.278450	-0.394985
H597	H	0.218204	-0.252402	-0.434207
H598	H	0.167543	-0.083608	-0.469060
H599	H	0.267943	-0.533739	-0.019121
O600	O	-0.005480	-0.023542	-0.305897
C601	C	0.019190	0.013804	-0.330725
H602	H	0.038366	0.014976	-0.361651
H603	H	-0.004165	0.021775	-0.326199
H604	H	0.043319	0.034859	-0.324402
H605	H	-0.182293	-0.218837	0.013775
O606	O	0.224306	-0.321967	-0.013679
C607	C	0.231426	-0.301193	-0.044884
H608	H	0.268307	-0.282083	-0.068745
H609	H	0.213086	-0.321969	-0.055891
H610	H	0.218641	-0.282730	-0.035251
O611	O	-0.114460	-0.077733	0.019285
C612	C	-0.137845	-0.064374	0.017378
H613	H	-0.172184	-0.089806	0.027331
H614	H	-0.141027	-0.046162	0.036655
H615	H	-0.119235	-0.046350	-0.013394
O616	O	-0.114671	-0.189625	0.019245
C617	C	-0.138173	-0.226348	0.017349
H618	H	-0.154804	-0.226314	0.003261
H619	H	-0.114331	-0.234265	-0.000251
H620	H	-0.164386	-0.248160	0.047505
H621	H	0.267896	-0.186572	-0.365817
O622	O	0.211438	-0.112812	-0.507448
C623	C	0.222753	-0.076096	-0.520676
H624	H	0.207200	-0.067295	-0.495173
H625	H	0.260229	-0.054629	-0.538876
H626	H	0.209981	-0.076673	-0.538676
H627	H	0.370892	0.301275	-0.184323
H628	H	0.552400	-0.248780	-0.019131
H629	H	0.102633	-0.218858	-0.398880
O630	O	0.058755	-0.189642	-0.360472
C631	C	0.047428	-0.226365	-0.347249
H632	H	0.078181	-0.226332	-0.363915
H633	H	0.033271	-0.234278	-0.315492
H634	H	0.021673	-0.248178	-0.351649
H635	H	0.617485	0.168277	-0.501573
H636	H	0.100368	-0.306171	0.308703
O637	O	-0.005603	0.253332	0.417300
C638	C	-0.043112	0.253167	0.429973
H639	H	-0.056032	0.241411	0.411971
H640	H	-0.069914	0.234339	0.461300
H641	H	-0.033723	0.283616	0.426898
H642	H	0.552845	0.098385	-0.366316
H643	H	0.617258	-0.216240	-0.013873
H644	H	0.064816	0.263199	0.468675
O645	O	0.376987	-0.530515	-0.019380
C646	C	0.388441	-0.555806	-0.017476
H647	H	0.372962	-0.580192	-0.027430
H648	H	0.425930	-0.539710	-0.036755
H649	H	0.375696	-0.567968	0.013294
H650	H	-0.002298	-0.408829	0.411365
H651	H	-0.382532	-0.318952	0.113884
H652	H	0.437704	0.310998	-0.308766
H653	H	-0.182059	-0.115906	-0.114213
O654	O	0.336166	-0.606659	-0.013715
C655	C	0.346672	-0.620310	-0.044919
H656	H	0.351357	-0.602608	-0.068779
H657	H	0.378510	-0.617773	-0.055927
H658	H	0.318646	-0.651589	-0.035284
O659	O	0.224312	0.295784	-0.395902
C660	C	0.231439	0.326997	-0.416672
H661	H	0.259903	0.337525	-0.447967
H662	H	0.200187	0.317559	-0.414586
H663	H	0.239989	0.351145	-0.404258
H664	H	0.267945	0.301232	-0.366341
O665	O	-0.114230	-0.530278	0.359913
C666	C	-0.137616	-0.555569	0.346555
H667	H	-0.171955	-0.579955	0.371988
H668	H	-0.140798	-0.539473	0.328346
H669	H	-0.119006	-0.567731	0.328528
H670	H	-0.181841	-0.603391	0.398082
O671	O	-0.184838	-0.606701	0.506846
C672	C	-0.181354	-0.637779	0.506759
H673	H	-0.153649	-0.632184	0.476844
H674	H	-0.173695	-0.641197	0.527992
H675	H	-0.213898	-0.665086	0.515372
H676	H	0.167470	-0.248829	0.366274
H677	H	0.205322	0.268398	0.114116
H678	H	-0.002510	0.253416	0.308669
O679	O	-0.114420	-0.077728	-0.187320
C680	C	-0.137816	-0.064372	-0.162032
H681	H	-0.154484	-0.080968	-0.131276
H682	H	-0.113890	-0.032611	-0.168360
H683	H	-0.163991	-0.068737	-0.166013
O684	O	-0.735208	-0.530495	0.472068
C685	C	-0.773860	-0.555785	0.508813
H686	H	-0.772813	-0.580170	0.517720
H687	H	-0.775975	-0.539688	0.530205
H688	H	-0.804047	-0.567948	0.508228
O689	O	0.106015	0.253315	0.305796
C690	C	0.118535	0.253161	0.330624
H691	H	0.088784	0.241414	0.361549
H692	H	0.131032	0.234331	0.326100
H693	H	0.145914	0.283613	0.324298
O694	O	0.099871	0.268769	0.506822
C695	C	0.131038	0.303334	0.506731
H696	H	0.155360	0.325436	0.476813
H697	H	0.113226	0.314417	0.527958
H698	H	0.149729	0.298097	0.515348
O699	O	-0.114445	0.262953	0.472048
C700	C	-0.137831	0.264864	0.508791
H701	H	-0.172169	0.254914	0.517695
H702	H	-0.141016	0.245588	0.530186
H703	H	-0.119219	0.295636	0.508204
O704	O	-0.184853	0.268751	0.507320
C705	C	-0.181336	0.303325	0.507285
H706	H	-0.178681	0.314719	0.481359
H707	H	-0.211886	0.297976	0.534594
H708	H	-0.150599	0.325236	0.505873
