data_functionalizedCrystal
_audit_creation_method	'MofGen! by Chris Wilmer'
_symmetry_space_group_name_H-M	'P1'
_symmetry_Int_Tables_number	1
_symmetry_cell_setting	triclinic
loop_
_symmetry_equiv_pos_as_xyz
  x,y,z
_cell_length_a	10.686220
_cell_length_b	12.759394
_cell_length_c	10.686551
_cell_angle_alpha	94.406554
_cell_angle_beta	89.691918
_cell_angle_gamma	94.396533
loop_
_atom_site_label
_atom_site_type_symbol
_atom_site_fract_x
_atom_site_fract_y
_atom_site_fract_z
Zn1	Zn	1.972288	-0.256139	0.562381
Zn2	Zn	1.956059	-0.446299	0.352619
Zn3	Zn	1.746406	-0.283015	0.368698
Zn4	Zn	1.762489	-0.444170	0.578397
O5	O	1.859311	-0.357405	0.465524
O6	O	2.145677	-0.271007	0.521124
O7	O	1.914725	-0.436778	0.179206
O8	O	1.776431	-0.132423	0.394417
O9	O	2.133754	-0.410717	0.367013
O10	O	1.942386	-0.112677	0.536715
O11	O	1.760695	-0.316813	0.191020
O12	O	1.572998	-0.314749	0.409947
O13	O	1.803842	-0.407088	0.751818
O14	O	1.584814	-0.433149	0.564012
O15	O	1.957980	-0.268943	0.740052
O16	O	1.930320	-0.593043	0.382543
O17	O	1.788105	-0.591479	0.548421
C18	C	1.533390	-0.376635	0.490463
C19	C	1.393962	-0.384885	0.501162
C20	C	1.859233	-0.630379	0.465499
C21	C	1.859318	-0.747149	0.465522
C22	C	2.007536	-0.748709	0.292904
C23	C	2.081679	-0.804347	0.206608
C24	C	2.081755	-0.914062	0.206636
C25	C	2.007683	-0.968141	0.292973
C26	C	1.933540	-0.912503	0.379270
C27	C	1.933469	-0.802786	0.379229
C28	C	1.785331	-0.910942	0.551891
C29	C	1.785246	-0.801228	0.551859
C30	C	1.711259	-0.965022	0.638228
C31	C	1.637107	-0.909384	0.724521
C32	C	1.637033	-0.799663	0.724488
C33	C	1.711103	-0.745590	0.638155
C34	C	2.186504	-0.338102	0.440489
C35	C	2.325934	-0.329875	0.429820
C36	C	1.884515	-0.334780	0.792725
C37	C	1.895256	-0.325138	0.932158
C38	C	1.859425	-0.083362	0.465573
C39	C	1.859473	0.033420	0.465595
C40	C	1.834276	-0.379863	0.139591
C41	C	1.823778	-0.389194	0.000139
H42	H	1.374359	-0.276469	0.360555
H43	H	1.345530	-0.438301	0.570423
H44	H	1.754370	-0.451414	0.951670
O45	O	2.153512	-0.751657	0.122792
C46	C	2.137575	-0.642886	0.141284
H47	H	2.043887	-0.630832	0.189706
H48	H	2.217064	-0.602659	0.202440
C49	C	2.254413	-0.609497	-0.046011
C50	C	2.139339	-0.594692	0.013452
H51	H	2.255507	-0.579766	-0.124862
H52	H	2.265155	-0.682777	-0.058468
H53	H	2.320642	-0.575974	0.004965
H54	H	2.073114	-0.628225	-0.037517
H55	H	2.128586	-0.521416	0.025897
H56	H	1.964678	-0.262921	0.980633
H57	H	2.142135	-0.959362	0.136372
O58	O	2.007869	-1.074723	0.292802
C59	C	2.089224	-1.112230	0.198151
H60	H	2.101155	-1.053050	0.123500
H61	H	2.184508	-1.122764	0.240973
C62	C	2.018610	-1.291598	0.229443
C63	C	2.033256	-1.218916	0.137750
H64	H	1.984091	-1.357409	0.192187
H65	H	1.963803	-1.266330	0.293215
H66	H	2.098019	-1.300364	0.265120
H67	H	1.953847	-1.210142	0.102085
H68	H	2.088049	-1.244186	0.073970
O69	O	1.565312	-0.961848	0.808550
C70	C	1.602226	-0.924687	0.931499
H71	H	1.702904	-0.888084	0.930228
H72	H	1.537417	-0.862751	0.969368
C73	C	1.470443	-1.062159	1.017922
C74	C	1.594101	-1.017211	1.016363
H75	H	1.465426	-1.119231	1.070273
H76	H	1.445569	-1.087194	0.935090
H77	H	1.416449	-1.010536	1.049477
H78	H	1.648090	-1.068830	0.984794
H79	H	1.618983	-0.992187	1.099192
H80	H	1.711332	-1.054357	0.638250
O81	O	1.565124	-0.745453	0.808269
C82	C	1.580906	-0.637021	0.789713
H83	H	1.674572	-0.619099	0.741280
H84	H	1.501371	-0.614981	0.728540
C85	C	1.464018	-0.594573	0.976988
C86	C	1.579064	-0.572559	0.917511
H87	H	1.462876	-0.554808	1.055818
H88	H	1.453380	-0.667626	0.989488
H89	H	1.397751	-0.576206	0.925998
H90	H	1.645327	-0.590938	0.968494
H91	H	1.589713	-0.499508	0.905023
H92	H	2.007464	-0.659376	0.292858
H93	H	1.711041	-0.656256	0.638113
