data_functionalizedCrystal
_audit_creation_method	'MofGen! by Chris Wilmer'
_symmetry_space_group_name_H-M	'P1'
_symmetry_Int_Tables_number	1
_symmetry_cell_setting	triclinic
loop_
_symmetry_equiv_pos_as_xyz
  x,y,z
_cell_length_a	12.837943
_cell_length_b	14.044220
_cell_length_c	11.892095
_cell_angle_alpha	94.243827
_cell_angle_beta	85.689438
_cell_angle_gamma	94.008909
loop_
_atom_site_label
_atom_site_type_symbol
_atom_site_fract_x
_atom_site_fract_y
_atom_site_fract_z
O1	O	1.404549	0.242985	-0.093990
O2	O	1.101609	0.230709	-0.093996
O3	O	1.248531	0.098452	-0.093982
O4	O	1.257627	0.375241	-0.094004
O5	O	1.236280	0.109461	0.094025
O6	O	1.089357	0.241718	0.094010
O7	O	1.392297	0.253993	0.094017
Zn8	Zn	1.238882	0.249603	0.123864
Zn9	Zn	1.255024	0.235099	-0.123843
O10	O	1.245375	0.386250	0.094002
C11	C	1.056479	0.232067	0.000007
C12	C	0.940259	0.219699	0.000005
C13	C	0.713048	0.368378	0.000009
C14	C	0.603848	0.356763	0.000008
C15	C	0.612657	0.184853	0.000009
C16	C	0.721856	0.196469	0.000011
C17	C	0.772048	0.288234	0.000008
C18	C	0.881251	0.299849	0.000001
C19	C	0.890056	0.127940	0.000011
C20	C	0.780857	0.116324	0.000010
C21	C	1.238425	0.068282	0.000022
C22	C	1.226550	-0.038016	0.000023
C23	C	1.204843	-0.232639	0.000006
C24	C	1.289060	-0.282665	0.000005
C25	C	1.276982	-0.390960	-0.000005
C26	C	1.216919	-0.124334	0.000016
C27	C	1.437428	0.252635	0.000012
C28	C	1.553649	0.265002	0.000006
C29	C	1.255482	0.416420	-0.000004
C30	C	1.267357	0.522717	-0.000012
N31	N	1.227873	0.259502	0.292917
N32	N	1.266041	0.225193	-0.292896
C33	C	1.342643	0.156258	0.529576
C34	C	1.334956	0.163185	0.647917
C35	C	1.204807	0.280277	0.647942
C36	C	1.212494	0.273350	0.529601
C37	C	1.281415	0.211340	0.470422
C38	C	1.289107	0.204418	0.352079
C39	C	1.158954	0.321505	0.352106
C40	C	1.151267	0.328432	0.470447
H41	H	0.753915	0.443098	0.000005
H42	H	1.370237	-0.244167	-0.000070
H43	H	1.123677	-0.271140	0.000002
H44	H	1.345229	0.153929	0.303896
C45	C	1.418457	0.088054	0.464473
C46	C	1.405591	-0.020003	0.480747
C47	C	1.481408	-0.088207	0.415647
C48	C	1.570092	-0.048355	0.334272
C49	C	1.582962	0.059708	0.317994
C50	C	1.507144	0.127912	0.383094
H51	H	1.339939	-0.049509	0.540989
H52	H	1.471881	-0.168202	0.427698
H53	H	1.626216	-0.098844	0.286081
H54	H	1.648614	0.089214	0.257752
H55	H	1.516672	0.207907	0.371043
H56	H	1.384812	0.118331	0.696076
H57	H	1.148686	0.330757	0.696141
C58	C	1.091599	0.382099	0.287032
C59	C	1.013485	0.332734	0.205690
C60	C	0.946138	0.393329	0.140615
C61	C	0.956904	0.503290	0.156881
C62	C	1.035021	0.552661	0.238227
C63	C	1.102369	0.492066	0.303303
H64	H	1.005512	0.251329	0.193646
H65	H	0.888310	0.356781	0.080397
H66	H	0.907050	0.548146	0.108709
H67	H	1.042994	0.634066	0.250272
H68	H	1.160196	0.528614	0.363520
C69	C	0.725638	0.015387	0.000009
C70	C	0.645415	-0.010530	0.097633
C71	C	0.590199	-0.111470	0.097627
C72	C	0.615206	-0.186491	-0.000003
C73	C	0.695433	-0.160576	-0.097635
C74	C	0.750649	-0.059637	-0.097629
H75	H	0.626900	0.045007	0.169911
H76	H	0.530810	-0.130654	0.169901
H77	H	0.574331	-0.261213	-0.000007
H78	H	0.713947	-0.216113	-0.169913
H79	H	0.810038	-0.040453	-0.169903
H80	H	0.922115	0.374569	0.000002
H81	H	0.555814	0.422025	0.000011
H82	H	0.571765	0.110147	0.000104
H83	H	0.938107	0.062681	0.000003
H84	H	1.095149	0.378917	0.518645
