data_functionalizedCrystal
_audit_creation_method	'MofGen! by Chris Wilmer'
_symmetry_space_group_name_H-M	'P1'
_symmetry_Int_Tables_number	1
_symmetry_cell_setting	triclinic
loop_
_symmetry_equiv_pos_as_xyz
  x,y,z
_cell_length_a	15.995292
_cell_length_b	10.540539
_cell_length_c	9.616153
_cell_angle_alpha	90.000094
_cell_angle_beta	89.991962
_cell_angle_gamma	96.002946
loop_
_atom_site_label
_atom_site_type_symbol
_atom_site_fract_x
_atom_site_fract_y
_atom_site_fract_z
O1	O	1.111995	-0.163261	-0.115677
O2	O	0.868335	-0.183543	-0.115670
O3	O	0.995724	0.011383	-0.115672
O4	O	0.984606	-0.358186	-0.115675
O5	O	0.995706	0.011379	0.115619
O6	O	0.868317	-0.183547	0.115621
O7	O	1.111978	-0.163265	0.115615
Zn8	Zn	0.990145	-0.173407	0.152340
Zn9	Zn	0.990168	-0.173401	-0.152396
O10	O	0.984589	-0.358191	0.115616
C11	C	0.837125	-0.182719	-0.000024
C12	C	0.744158	-0.180245	-0.000022
C13	C	0.406365	-0.171147	-0.000037
C14	C	0.430518	-0.311839	-0.000555
C15	C	0.527210	-0.314513	-0.000028
C16	C	0.573948	-0.175661	-0.000030
C17	C	0.544415	-0.105324	0.132044
C18	C	0.447615	-0.103630	0.132149
C19	C	0.447762	-0.100753	-0.130873
C20	C	0.544286	-0.105966	-0.132612
C21	C	0.668659	-0.178205	-0.000022
C22	C	0.311654	-0.168599	-0.000037
C23	C	0.994881	0.058672	-0.000029
C24	C	0.992387	0.199585	-0.000036
C25	C	1.143187	-0.164088	-0.000035
C26	C	1.236155	-0.166563	-0.000046
C27	C	0.985431	-0.405480	-0.000030
C28	C	0.987926	-0.546393	-0.000032
N29	N	0.990135	-0.173410	0.360315
C30	C	0.896801	0.381668	-0.000553
C31	C	0.899330	0.235085	-0.000032
C32	C	1.037160	0.261870	0.132041
C33	C	1.033984	0.408370	0.132153
C34	C	1.035897	0.408919	-0.130869
C35	C	1.036754	0.261950	-0.132615
N36	N	0.990184	-0.173388	-0.360371
C37	C	0.921782	-0.277338	0.580686
C38	C	0.921933	-0.277722	0.419518
C39	C	1.077678	-0.202312	0.418762
C40	C	1.077306	-0.203047	0.579980
C41	C	0.971817	-0.040229	0.580228
C42	C	0.969807	-0.041122	0.419001
H43	H	0.575672	-0.003148	0.136953
H44	H	0.909329	-0.012428	0.620967
H45	H	0.864099	0.191988	-0.094711
H46	H	0.933435	-0.375598	0.621183
H47	H	0.905406	-0.019187	0.380803
H48	H	1.093369	-0.300158	0.617566
C49	C	1.128415	0.230527	-0.143389
N50	N	1.197459	0.206865	-0.151490
H51	H	1.129837	-0.130318	0.618967
H52	H	1.129822	-0.128616	0.380409
C53	C	1.099860	-0.332023	0.364214
N54	N	1.116560	-0.429727	0.323136
H55	H	1.000880	0.436102	0.230885
C56	C	1.032665	0.068272	0.364594
N57	N	1.080022	0.150663	0.323627
H58	H	0.860049	0.409753	-0.095268
H59	H	0.933739	-0.376540	0.380937
C60	C	0.847341	0.421739	0.126718
N61	N	0.810094	0.451909	0.222590
C62	C	0.834053	-0.254486	0.366134
N63	N	0.767857	-0.236992	0.325932
C64	C	0.851385	0.177993	0.128094
N65	N	0.815272	0.134993	0.224606
C66	C	0.391747	-0.384697	0.126688
N67	N	0.362544	-0.439570	0.222530
H68	H	0.545938	-0.369934	0.094809
H69	H	0.856532	-0.260403	0.619499
C70	C	1.039188	0.064278	0.631730
N71	N	1.089933	0.142982	0.670531
C72	C	0.571888	-0.171324	0.264834
N73	N	0.592576	-0.221044	0.364849
C74	C	0.409963	-0.160303	-0.266115
N75	N	0.381494	-0.205173	-0.367973
C76	C	0.393141	-0.385105	-0.128511
N77	N	0.364982	-0.440290	-0.224891
C78	C	0.553376	-0.388855	-0.127982
N79	N	0.573082	-0.444829	-0.224377
H80	H	1.003994	0.220632	-0.230323
C81	C	0.411765	-0.169468	0.265515
N82	N	0.384767	-0.219068	0.365964
C83	C	1.129477	0.232944	0.138696
N84	N	1.199008	0.211146	0.143712
H85	H	1.005787	0.440051	-0.230975
C86	C	1.124394	0.474447	0.140267
N87	N	1.192490	0.524211	0.146388
C88	C	0.427121	0.035726	0.140258
N89	N	0.411689	0.140687	0.146374
H90	H	1.006044	0.218831	0.230331
C91	C	0.569803	-0.175143	-0.264615
N92	N	0.589031	-0.227246	-0.364038
C93	C	0.588000	0.030958	-0.143384
N94	N	0.620923	0.134097	-0.151485
H95	H	1.103112	0.457090	-0.131759
C96	C	0.428019	0.039149	-0.132085
N97	N	0.413143	0.144518	-0.132989
