data_functionalizedCrystal
_audit_creation_method	'MofGen! by Chris Wilmer'
_symmetry_space_group_name_H-M	'P1'
_symmetry_Int_Tables_number	1
_symmetry_cell_setting	triclinic
loop_
_symmetry_equiv_pos_as_xyz
  x,y,z
_cell_length_a	16.109301
_cell_length_b	19.288865
_cell_length_c	17.766277
_cell_angle_alpha	90.011603
_cell_angle_beta	90.006641
_cell_angle_gamma	83.298864
loop_
_atom_site_label
_atom_site_type_symbol
_atom_site_fract_x
_atom_site_fract_y
_atom_site_fract_z
O1	O	-1.102832	-0.089282	-0.062555
O2	O	-0.602832	0.410718	0.437445
O3	O	-0.860732	-0.100392	-0.062569
O4	O	-0.360732	0.399608	0.437431
O5	O	-0.988778	0.006277	-0.062547
O6	O	-0.488778	0.506277	0.437453
O7	O	-0.974787	-0.195951	-0.062577
O8	O	-0.474787	0.304049	0.437423
O9	O	-0.988755	0.006282	0.062642
O10	O	-0.488755	0.506282	0.562642
O11	O	-0.860710	-0.100387	0.062620
O12	O	-0.360710	0.399613	0.562620
O13	O	-1.102810	-0.089276	0.062633
O14	O	-0.602810	0.410724	0.562633
Cu15	Cu	-0.981758	-0.094831	0.074057
Cu16	Cu	-0.481758	0.405169	0.574057
Cu17	Cu	-0.981784	-0.094838	-0.073993
Cu18	Cu	-0.481784	0.405162	0.426007
O19	O	-0.974764	-0.195945	0.062611
O20	O	-0.474764	0.304055	0.562611
C21	C	-0.988316	0.032157	0.000050
C22	C	-0.488316	0.532157	0.500050
C23	C	-0.986965	0.109264	0.000056
C24	C	-0.486965	0.609264	0.500056
C25	C	-0.829748	-0.099940	0.000024
C26	C	-0.329748	0.400060	0.500024
C27	C	-0.737457	-0.098590	0.000020
C28	C	-0.237457	0.401410	0.500020
C29	C	-1.133794	-0.089729	0.000039
C30	C	-0.633794	0.410271	0.500039
C31	C	-1.226085	-0.091078	0.000038
C32	C	-0.726085	0.408922	0.500038
C33	C	-0.514979	-0.158748	0.000020
C34	C	-0.014979	0.341252	0.500020
C35	C	-0.428263	-0.157475	0.000025
C36	C	0.071737	0.342525	0.500025
C37	C	-0.448570	-0.030916	0.000041
C38	C	0.051430	0.469084	0.500041
C39	C	-0.535284	-0.032190	0.000041
C40	C	-0.035284	0.467810	0.500041
C41	C	-0.568486	-0.096108	0.000027
C42	C	-0.068486	0.403892	0.500027
C43	C	-0.395056	-0.093561	0.000031
C44	C	0.104944	0.406439	0.500031
C45	C	-0.301034	-0.092180	0.000037
C46	C	0.198966	0.407820	0.500037
C47	C	-0.662513	-0.097489	0.000023
C48	C	-0.162513	0.402511	0.500023
C49	C	-0.975226	-0.221825	0.000013
C50	C	-0.475226	0.278175	0.500013
C51	C	-0.976577	-0.298932	0.000002
C52	C	-0.476577	0.201068	0.500002
N53	N	-0.981745	-0.094826	0.178188
N54	N	-0.481745	0.405174	0.678188
C55	C	-1.062096	0.153781	0.000064
C56	C	-0.562096	0.653781	0.500064
C57	C	-1.060827	0.226231	0.000052
C58	C	-0.560827	0.726231	0.500052
C59	C	-0.984421	0.254161	0.000047
C60	C	-0.484421	0.754161	0.500047
C61	C	-0.909280	0.209634	0.000036
C62	C	-0.409280	0.709634	0.500036
C63	C	-0.910552	0.137185	0.000040
C64	C	-0.410552	0.637185	0.500040
C65	C	-0.924350	0.362593	0.043895
C66	C	-0.424350	0.862593	0.543895
C67	C	-0.923082	0.435041	0.043895
C68	C	-0.423082	0.935041	0.543895
C69	C	-0.980496	0.477616	0.000030
C70	C	-0.480496	0.977616	0.500030
C71	C	-1.039193	0.447735	-0.043825
C72	C	-0.539193	0.947735	0.456175
C73	C	-1.040465	0.375287	-0.043821
C74	C	-0.540465	0.875287	0.456179
C75	C	-0.983034	0.332718	0.000042
C76	C	-0.483034	0.832718	0.500042
C77	C	-1.054256	0.600692	0.000024
C78	C	-0.554256	1.100692	0.500024
C79	C	-1.052983	0.673143	0.000007
C80	C	-0.552983	1.173143	0.500007
C81	C	-0.901434	0.656544	-0.000002
C82	C	-0.401434	1.156544	0.499998
C83	C	-0.902709	0.584095	0.000008
C84	C	-0.402709	1.084095	0.500008
C85	C	-0.979122	0.556173	0.000024
C86	C	-0.479122	1.056173	0.500024
N87	N	-0.981803	-0.094837	-0.178123
N88	N	-0.481803	0.405163	0.321877
C89	C	-1.038462	-0.047616	0.217584
C90	C	-0.538462	0.452384	0.717584
C91	C	-1.038467	-0.047613	0.296386
C92	C	-0.538467	0.452387	0.796386
C93	C	-0.981763	-0.094832	0.335788
C94	C	-0.481763	0.405168	0.835788
C95	C	-0.925035	-0.142045	0.296382
C96	C	-0.425035	0.357955	0.796382
C97	C	-0.925026	-0.142042	0.217582
C98	C	-0.425026	0.357958	0.717582
C99	C	-0.970632	-0.158093	0.460616
C100	C	-0.470632	0.341907	0.960616
C101	C	-0.970647	-0.158096	0.539415
C102	C	-0.470647	0.341904	1.039415
C103	C	-0.981785	-0.094840	0.578834
C104	C	-0.481785	0.405160	1.078834
C105	C	-0.992926	-0.031577	0.539445
C106	C	-0.492926	0.468423	1.039445
C107	C	-0.992917	-0.031575	0.460645
C108	C	-0.492917	0.468425	0.960645
C109	C	-0.981765	-0.094840	0.421234
C110	C	-0.481765	0.405160	0.921234
C111	C	-1.038510	-0.047623	0.703677
C112	C	-0.538510	0.452377	1.203677
C113	C	-1.038509	-0.047619	0.782480
C114	C	-0.538509	0.452381	1.282480
C115	C	-0.925081	-0.142057	0.782475
C116	C	-0.425081	0.357943	1.282475
C117	C	-0.925078	-0.142055	0.703673
C118	C	-0.425078	0.357945	1.203673
C119	C	-0.981797	-0.094839	0.664279
C120	C	-0.481797	0.405161	1.164279
H121	H	-0.542008	-0.210794	0.000014
H122	H	-0.042008	0.289206	0.500014
H123	H	-0.878865	-0.180490	0.328467
H124	H	-0.378865	0.319510	0.828467
C125	C	-0.858518	0.467906	0.092129
C126	C	-0.358518	0.967906	0.592129
H127	H	-0.865989	0.517151	0.085852
H128	H	-0.365989	1.017151	0.585852
H129	H	-0.803726	0.450006	0.076699
H130	H	-0.303726	0.950006	0.576699
H131	H	-0.866020	0.456844	0.143601
H132	H	-0.366020	0.956844	0.643601
C133	C	-0.369408	-0.226379	0.000011
C134	C	0.130592	0.273621	0.500011
H135	H	-0.401604	-0.264626	-0.000003
H136	H	0.098396	0.235374	0.499997
H137	H	-0.335153	-0.228514	0.043667
H138	H	0.164847	0.271486	0.543667
H139	H	-0.335165	-0.228513	-0.043651
H140	H	0.164835	0.271487	0.456349
C141	C	-0.412045	0.039388	0.000047
C142	C	0.087955	0.539388	0.500047
H143	H	-0.352737	0.031177	0.000037
H144	H	0.147263	0.531177	0.500037
H145	H	-0.430420	0.065186	0.043704
H146	H	0.069580	0.565186	0.543704
H147	H	-0.430435	0.065173	-0.043613
H148	H	0.069565	0.565173	0.456387
C149	C	-0.958398	-0.227681	0.582736
C150	C	-0.458398	0.272319	1.082736
H151	H	-0.951750	-0.265354	0.547975
H152	H	-0.451750	0.234646	1.047975
H153	H	-1.005891	-0.231552	0.613463
H154	H	-0.505891	0.268448	1.113463
H155	H	-0.909984	-0.229073	0.613487
H156	H	-0.409984	0.270927	1.113487
H157	H	-0.841529	0.547848	0.000005
H158	H	-0.341529	1.047848	0.500005
C159	C	-1.138302	0.569971	0.000033
C160	C	-0.638302	1.069971	0.500033
H161	H	-1.128300	0.520447	0.000045
H162	H	-0.628300	1.020447	0.500045
H163	H	-1.169235	0.585241	-0.043623
H164	H	-0.669235	1.085241	0.456377
H165	H	-1.169218	0.585266	0.043695
H166	H	-0.669218	1.085266	0.543695
H167	H	-1.001995	0.019932	0.571539
H168	H	-0.501995	0.519932	1.071539
C169	C	-0.862706	-0.193998	0.660331
C170	C	-0.362706	0.306002	1.160331
H171	H	-0.870820	-0.187233	0.607758
H172	H	-0.370820	0.312767	1.107758
H173	H	-0.871566	-0.240355	0.673235
H174	H	-0.371566	0.259645	1.173235
H175	H	-0.807245	-0.186442	0.673254
H176	H	-0.307245	0.313558	1.173254
H177	H	-0.578853	0.018823	0.000049
H178	H	-0.078853	0.518823	0.500049
C179	C	-0.958386	-0.227679	0.417262
C180	C	-0.458386	0.272321	0.917262
H181	H	-0.951766	-0.265355	0.452005
H182	H	-0.451766	0.234645	0.952005
H183	H	-0.909970	-0.229077	0.386529
H184	H	-0.409970	0.270923	0.886529
H185	H	-1.005880	-0.231540	0.386515
H186	H	-0.505880	0.268460	0.886515
H187	H	-0.878840	-0.180487	0.185504
H188	H	-0.378840	0.319513	0.685504
C189	C	-1.146147	0.123070	0.000069
C190	C	-0.646147	0.623070	0.500069
H191	H	-1.190711	0.159963	0.000064
H192	H	-0.690711	0.659963	0.500064
H193	H	-1.149790	0.095159	0.043724
H194	H	-0.649790	0.595159	0.543724
H195	H	-1.149798	0.095147	-0.043594
H196	H	-0.649798	0.595147	0.456406
C197	C	-1.143474	0.275208	0.000066
C198	C	-0.643474	0.775208	0.500066
H199	H	-1.189164	0.248202	0.000081
H200	H	-0.689164	0.748202	0.500081
H201	H	-1.146141	0.303809	-0.043589
H202	H	-0.646141	0.803809	0.456411
H203	H	-1.146110	0.303820	0.043729
H204	H	-0.646110	0.803820	0.543729
H205	H	-1.088256	0.350962	-0.079530
H206	H	-0.588256	0.850962	0.420470
C207	C	-1.102348	0.494557	-0.092084
C208	C	-0.602348	0.994557	0.407916
H209	H	-1.093179	0.541984	-0.085815
H210	H	-0.593179	1.041984	0.414185
H211	H	-1.157562	0.488715	-0.076663
H212	H	-0.657562	0.988715	0.423337
H213	H	-1.095250	0.481866	-0.143551
H214	H	-0.595250	0.981866	0.356449
H215	H	-1.114166	0.709389	0.000010
H216	H	-0.614166	1.209389	0.500010
H217	H	-1.084644	-0.009169	0.185512
H218	H	-0.584644	0.490831	0.685512
C219	C	-1.100888	0.004319	0.660340
C220	C	-0.600888	0.504319	1.160340
H221	H	-1.134660	0.032444	0.695093
H222	H	-0.634660	0.532444	1.195093
H223	H	-1.135399	-0.020674	0.629587
H224	H	-0.635399	0.479326	1.129587
H225	H	-1.071082	0.033242	0.629614
H226	H	-0.571082	0.533242	1.129614
H227	H	-0.839224	0.679284	-0.000009
H228	H	-0.339224	1.179284	0.499991
C229	C	-0.825237	0.240354	0.000033
C230	C	-0.325237	0.740354	0.500033
H231	H	-0.835239	0.289878	0.000040
H232	H	-0.335239	0.789878	0.500040
H233	H	-0.794319	0.225064	-0.043624
H234	H	-0.294319	0.725064	0.456376
H235	H	-0.794306	0.225079	0.043693
H236	H	-0.294306	0.725079	0.543693
C237	C	-1.100896	0.004316	0.825820
C238	C	-0.600896	0.504316	1.325820
H239	H	-1.092772	-0.002440	0.878394
H240	H	-0.592772	0.497560	1.378394
H241	H	-1.156350	-0.003243	0.812897
H242	H	-0.656350	0.496757	1.312897
H243	H	-1.092040	0.050679	0.812916
H244	H	-0.592040	0.550679	1.312916
H245	H	-0.877594	0.327934	0.079619
H246	H	-0.377594	0.827934	0.579619
C247	C	-0.827906	0.088212	0.000033
C248	C	-0.327906	0.588212	0.500033
H249	H	-0.839607	0.041065	0.000033
H250	H	-0.339607	0.541065	0.500033
H251	H	-0.796552	0.096685	0.043683
H252	H	-0.296552	0.596685	0.543683
H253	H	-0.796578	0.096665	-0.043634
H254	H	-0.296578	0.596665	0.456366
C255	C	-1.100859	0.004318	0.339731
C256	C	-0.600859	0.504318	0.839731
H257	H	-1.134639	0.032436	0.304983
H258	H	-0.634639	0.532436	0.804983
H259	H	-1.071070	0.033240	0.370487
H260	H	-0.571070	0.533240	0.870487
H261	H	-1.135373	-0.020688	0.370455
H262	H	-0.635373	0.479312	0.870455
C263	C	-0.862708	-0.193996	0.825808
C264	C	-0.362708	0.306004	1.325808
H265	H	-0.870838	-0.187240	0.878381
H266	H	-0.370838	0.312760	1.378381
H267	H	-0.807250	-0.186439	0.812905
H268	H	-0.307250	0.313561	1.312905
H269	H	-0.871565	-0.240358	0.812880
H270	H	-0.371565	0.259642	1.312880
H271	H	-1.001986	0.019936	0.428578
H272	H	-0.501986	0.519936	0.928578
