data_functionalizedCrystal
_audit_creation_method	'MofGen! by Chris Wilmer'
_symmetry_space_group_name_H-M	'P1'
_symmetry_Int_Tables_number	1
_symmetry_cell_setting	triclinic
loop_
_symmetry_equiv_pos_as_xyz
  x,y,z
_cell_length_a	17.699083
_cell_length_b	10.540539
_cell_length_c	16.776229
_cell_angle_alpha	89.995514
_cell_angle_beta	89.998886
_cell_angle_gamma	83.904253
loop_
_atom_site_label
_atom_site_type_symbol
_atom_site_fract_x
_atom_site_fract_y
_atom_site_fract_z
O1	O	1.005122	0.160520	-0.066173
O2	O	1.505122	0.660520	0.433827
O3	O	0.784880	0.181404	-0.066198
O4	O	1.284880	0.681404	0.433802
O5	O	0.900026	-0.013836	-0.066184
O6	O	1.400026	0.486164	0.433816
O7	O	0.889976	0.355761	-0.066187
O8	O	1.389976	0.855761	0.433813
O9	O	0.900010	-0.013848	0.066393
O10	O	1.400010	0.486152	0.566393
O11	O	0.784864	0.181392	0.066378
O12	O	1.284864	0.681392	0.566378
O13	O	1.005107	0.160508	0.066404
O14	O	1.505107	0.660508	0.566404
Zn15	Zn	0.894983	0.170948	0.087440
Zn16	Zn	1.394983	0.670948	0.587440
Zn17	Zn	0.895003	0.170964	-0.087235
Zn18	Zn	1.395003	0.670964	0.412765
O19	O	0.889961	0.355749	0.066389
O20	O	1.389961	0.855749	0.566389
C21	C	0.756670	0.180650	0.000087
C22	C	1.256670	0.680650	0.500087
C23	C	0.672637	0.178405	0.000077
C24	C	1.172637	0.678405	0.500077
C25	C	0.624761	0.293007	0.000076
C26	C	1.124761	0.793007	0.500076
C27	C	0.545804	0.290890	0.000086
C28	C	1.045804	0.790890	0.500086
C29	C	0.514725	0.174170	0.000092
C30	C	1.014725	0.674170	0.500092
C31	C	0.562607	0.059559	0.000095
C32	C	1.062607	0.559559	0.500095
C33	C	0.641562	0.061677	0.000090
C34	C	1.141562	0.561677	0.500090
C35	C	0.244188	0.051014	0.000115
C36	C	0.744188	0.551014	0.500115
C37	C	0.165226	0.048904	0.000117
C38	C	0.665226	0.548904	0.500117
C39	C	0.148430	0.280227	0.000111
C40	C	0.648430	0.780227	0.500111
C41	C	0.227386	0.282345	0.000106
C42	C	0.727386	0.782345	0.500106
C43	C	0.275261	0.167735	0.000113
C44	C	0.775261	0.667735	0.500113
C45	C	0.360875	0.170032	0.000104
C46	C	0.860875	0.670032	0.500104
C47	C	0.429112	0.171872	0.000096
C48	C	0.929112	0.671872	0.500096
C49	C	0.899264	-0.061131	0.000103
C50	C	1.399264	0.438869	0.500103
C51	C	0.897009	-0.202038	0.000098
C52	C	1.397009	0.297962	0.500098
C53	C	0.810610	-0.383885	-0.000209
C54	C	1.310610	0.116115	0.499791
C55	C	0.812896	-0.237308	0.000089
C56	C	1.312896	0.262692	0.500089
C57	C	0.937480	-0.264443	0.075811
C58	C	1.437480	0.235557	0.575811
C59	C	0.934609	-0.410935	0.075874
C60	C	1.434609	0.089065	0.575874
C61	C	0.936337	-0.411471	-0.074890
C62	C	1.436337	0.088529	0.425110
C63	C	0.937112	-0.264503	-0.075891
C64	C	1.437112	0.235497	0.424109
C65	C	1.033316	0.161263	0.000117
C66	C	1.533316	0.661263	0.500117
C67	C	1.117349	0.163508	0.000122
C68	C	1.617349	0.663508	0.500122
C69	C	0.890722	0.403044	0.000101
C70	C	1.390722	0.903044	0.500101
C71	C	0.892977	0.543951	0.000100
C72	C	1.392977	1.043951	0.500100
N73	N	0.894974	0.170937	0.206652
N74	N	1.394974	0.670937	0.706652
N75	N	0.895018	0.170966	-0.206446
N76	N	1.395018	0.670966	0.293554
C77	C	0.945977	0.084520	0.248375
C78	C	1.445977	0.584520	0.748375
C79	C	0.945981	0.084519	0.331827
C80	C	1.445981	0.584519	0.831827
C81	C	0.894986	0.170942	0.373555
C82	C	1.394986	0.670942	0.873555
C83	C	0.843978	0.257363	0.331825
C84	C	1.343978	0.757363	0.831825
C85	C	0.843971	0.257357	0.248375
C86	C	1.343971	0.757357	0.748375
C87	C	0.844005	0.257388	0.668372
C88	C	1.344005	0.757388	1.168372
C89	C	0.844018	0.257390	0.751829
C90	C	1.344018	0.757390	1.251829
C91	C	0.946016	0.084550	0.751825
C92	C	1.446016	0.584550	1.251825
C93	C	0.946009	0.084544	0.668374
C94	C	1.446009	0.584544	1.168374
C95	C	0.894998	0.170960	0.626652
C96	C	1.394998	0.670960	1.126652
C97	C	0.894993	0.170958	0.536164
C98	C	1.394993	0.670958	1.036164
C99	C	0.894994	0.170950	0.464041
C100	C	1.394994	0.670950	0.964041
H101	H	0.252686	0.377390	0.000098
H102	H	0.752686	0.877390	0.500098
C103	C	0.787918	0.352471	0.622485
C104	C	1.287918	0.852471	1.122485
H105	H	0.795212	0.340095	0.566808
H106	H	1.295212	0.840095	1.066808
H107	H	0.796609	0.437161	0.636162
H108	H	1.296609	0.937161	1.136162
H109	H	0.737328	0.338809	0.636164
H110	H	1.237328	0.838809	1.136164
H111	H	0.139925	-0.046149	0.000122
H112	H	0.639925	0.453851	0.500122
H113	H	0.909121	-0.442521	-0.132275
H114	H	1.409121	0.057479	0.367725
C115	C	0.765725	-0.421684	-0.073554
C116	C	1.265725	0.078316	0.426446
H117	H	0.716180	-0.377091	-0.072628
H118	H	1.216180	0.122909	0.427372
H119	H	0.762074	-0.510934	-0.072553
H120	H	1.262074	-0.010934	0.427447
H121	H	0.791226	-0.400324	-0.120737
H122	H	1.291226	0.099676	0.379263
H123	H	0.680543	-0.031644	0.000090
H124	H	1.180543	0.468356	0.500090
H125	H	0.506826	0.384211	0.000085
H126	H	1.006826	0.884211	0.500085
H127	H	0.537295	-0.035477	0.000111
H128	H	1.037295	0.464523	0.500111
C129	C	0.765897	-0.423862	0.072720
C130	C	1.265897	0.076138	0.572720
H131	H	0.797209	-0.484338	0.103358
H132	H	1.297209	0.015662	0.603358
H133	H	0.722131	-0.460936	0.055309
H134	H	1.222131	0.039064	0.555309
H135	H	0.750781	-0.350969	0.104497
H136	H	1.250781	0.149031	0.604497
H137	H	0.109440	0.373548	0.000109
H138	H	0.609440	0.873548	0.500109
C139	C	1.002072	-0.010549	0.202482
C140	C	1.502072	0.489451	0.702482
H141	H	1.032442	-0.062023	0.239287
H142	H	1.532442	0.437977	0.739287
H143	H	1.033819	0.035040	0.169919
H144	H	1.533819	0.535040	0.669919
H145	H	0.974554	-0.063338	0.169938
H146	H	1.474554	0.436662	0.669938
C147	C	0.787886	0.352429	0.377723
C148	C	1.287886	0.852429	0.877723
H149	H	0.795199	0.340066	0.433399
H150	H	1.295199	0.840066	0.933399
H151	H	0.737300	0.338752	0.364056
H152	H	1.237300	0.838752	0.864056
H153	H	0.796565	0.437130	0.364036
H154	H	1.296565	0.937130	0.864036
H155	H	0.283159	-0.042309	0.000121
H156	H	0.783159	0.457691	0.500121
C157	C	0.899488	-0.206224	0.151920
C158	C	1.399488	0.293776	0.651920
H159	H	0.924382	-0.244604	0.197420
H160	H	1.424382	0.255396	0.697420
H161	H	0.847502	-0.221180	0.152594
H162	H	1.347502	0.278820	0.652594
H163	H	0.903151	-0.116966	0.152704
H164	H	1.403151	0.383034	0.652704
C165	C	0.769867	-0.178952	-0.073221
C166	C	1.269867	0.321048	0.426779
H167	H	0.750826	-0.244820	-0.103452
H168	H	1.250826	0.255180	0.396548
H169	H	0.803452	-0.136164	-0.105251
H170	H	1.303452	0.363836	0.394749
H171	H	0.728759	-0.119886	-0.056182
H172	H	1.228759	0.380114	0.443818
H173	H	0.987536	0.014174	0.634403
H174	H	1.487536	0.514174	1.134403
C175	C	0.769570	-0.180107	0.073526
C176	C	1.269570	0.319893	0.573526
H177	H	0.750508	-0.246466	0.103297
H178	H	1.250508	0.253534	0.603297
H179	H	0.728473	-0.120898	0.056644
H180	H	1.228473	0.379102	0.556644
H181	H	0.803010	-0.137685	0.105957
H182	H	1.303010	0.362315	0.605957
C183	C	0.787871	0.352416	0.202475
C184	C	1.287871	0.852416	0.702475
H185	H	0.795165	0.340027	0.146799
H186	H	1.295165	0.840027	0.646799
H187	H	0.796544	0.437118	0.216142
H188	H	1.296544	0.937118	0.716142
H189	H	0.737287	0.338726	0.216160
H190	H	1.237287	0.838726	0.716160
C191	C	0.658942	0.421401	0.000070
C192	C	1.158942	0.921401	0.500070
H193	H	0.619118	0.489350	0.000078
H194	H	1.119118	0.989350	0.500078
H195	H	0.689392	0.427044	-0.046164
H196	H	1.189392	0.927044	0.453836
H197	H	0.689394	0.427031	0.046306
H198	H	1.189394	0.927031	0.546306
H199	H	0.904687	-0.438592	0.132464
H200	H	1.404687	0.061408	0.632464
H201	H	0.995102	-0.460010	0.079316
H202	H	1.495102	0.039990	0.579316
C203	C	1.020923	-0.235767	0.079632
C204	C	1.520923	0.264233	0.579632
H205	H	1.031846	-0.185355	0.034982
H206	H	1.531846	0.314645	0.534982
H207	H	1.053320	-0.313618	0.078935
H208	H	1.553320	0.186382	0.578935
H209	H	1.029078	-0.190609	0.127335
H210	H	1.529078	0.309391	0.627335
H211	H	0.907500	-0.223098	-0.131901
H212	H	1.407500	0.276902	0.368099
H213	H	0.987511	0.014151	0.365798
H214	H	1.487511	0.514151	0.865798
H215	H	0.998438	-0.241403	-0.080455
H216	H	1.498438	0.258597	0.419545
C217	C	1.018407	-0.476778	-0.075577
C218	C	1.518407	0.023222	0.424423
H219	H	1.026240	-0.530956	-0.030412
H220	H	1.526240	-0.030956	0.469588
H221	H	1.052942	-0.413724	-0.073913
H222	H	1.552942	0.086276	0.426087
H223	H	1.026664	-0.525973	-0.122825
H224	H	1.526664	-0.025973	0.377175
H225	H	0.987549	0.014181	0.785804
H226	H	1.487549	0.514181	1.285804
H227	H	0.802489	0.327768	0.785802
H228	H	1.302489	0.827768	1.285802
