data_functionalizedCrystal
_audit_creation_method	'MofGen! by Chris Wilmer'
_symmetry_space_group_name_H-M	'P1'
_symmetry_Int_Tables_number	1
_symmetry_cell_setting	triclinic
loop_
_symmetry_equiv_pos_as_xyz
  x,y,z
_cell_length_a	15.944499
_cell_length_b	14.421503
_cell_length_c	14.044220
_cell_angle_alpha	89.996304
_cell_angle_beta	88.333243
_cell_angle_gamma	90.010221
loop_
_atom_site_label
_atom_site_type_symbol
_atom_site_fract_x
_atom_site_fract_y
_atom_site_fract_z
O1	O	1.123692	0.077170	0.122002
O2	O	0.880269	0.077160	0.137125
O3	O	0.998326	0.077156	-0.008420
O4	O	1.005634	0.077175	0.267548
O5	O	0.998307	-0.077067	-0.008399
O6	O	0.880249	-0.077063	0.137147
O7	O	1.123672	-0.077053	0.122024
Cu8	Cu	1.001959	-0.091140	0.129588
Cu9	Cu	1.001982	0.091247	0.129562
O10	O	1.005614	-0.077049	0.267570
C11	C	0.848918	0.000047	0.136517
C12	C	0.755530	0.000043	0.134661
N13	N	1.001948	-0.219421	0.129605
C14	C	0.470326	0.000063	0.219219
C15	C	0.528073	0.076102	0.175253
C16	C	0.419389	0.000064	0.127917
C17	C	0.528038	-0.075951	0.175250
C18	C	0.584546	0.000052	0.131235
C19	C	0.475906	0.076166	0.083925
C20	C	0.475865	-0.075955	0.083935
C21	C	0.533591	0.000103	0.039902
C22	C	0.324246	0.000072	0.126008
C23	C	0.679687	0.000051	0.133137
C24	C	0.947345	-0.469073	0.196875
C25	C	1.024624	-0.530871	0.215261
C26	C	1.001967	-0.408583	0.129582
C27	C	0.924710	-0.530878	0.111218
C28	C	1.001978	-0.591304	0.129563
C29	C	1.079287	-0.469020	0.148011
C30	C	0.979320	-0.469022	0.043931
C31	C	1.056651	-0.530792	0.062281
C32	C	1.001959	-0.303321	0.129596
C33	C	1.001995	-0.696563	0.129548
C34	C	1.155023	0.000062	0.122632
C35	C	1.248410	0.000072	0.124489
C36	C	0.995118	0.000044	-0.043723
C37	C	0.985576	0.000042	-0.148948
N38	N	1.001998	0.219528	0.129537
C39	C	0.968133	0.000055	-0.341607
C40	C	1.035804	0.000061	-0.399250
C41	C	1.026098	0.000068	-0.506452
C42	C	0.977837	0.000048	-0.234395
C43	C	1.008823	0.000066	0.302873
C44	C	1.018364	0.000073	0.408097
H45	H	0.442669	0.000141	0.294991
H46	H	0.902913	0.000055	-0.372766
H47	H	0.551072	0.140388	0.213864
C48	C	0.812251	-0.534996	0.001244
C49	C	0.836506	-0.567560	0.090247
H50	H	0.757799	-0.557645	-0.011698
H51	H	0.811502	-0.469141	0.001687
H52	H	0.850998	-0.556133	-0.046620
H53	H	0.797762	-0.546417	0.138113
H54	H	0.837249	-0.633428	0.089812
H55	H	0.550998	-0.140233	0.213891
H56	H	1.101029	0.000125	-0.368088
C57	C	0.954443	-0.335223	-0.052986
C58	C	0.953420	-0.432306	-0.053807
H59	H	0.938451	-0.312556	-0.113327
H60	H	0.916199	-0.313180	-0.005060
H61	H	1.009379	-0.314092	-0.040031
H62	H	0.898482	-0.453437	-0.066755
H63	H	0.991665	-0.454358	-0.101748
H64	H	0.453047	0.140523	0.045335
C65	C	1.163750	-0.378533	0.252019
C66	C	1.167521	-0.432535	0.169151
H67	H	1.218221	-0.356023	0.265090
H68	H	1.126922	-0.327685	0.243229
H69	H	1.143562	-0.415277	0.303942
H70	H	1.187704	-0.395789	0.117226
H71	H	1.204362	-0.483391	0.177935
H72	H	0.452851	-0.140247	0.045359
C73	C	0.544318	0.079830	-0.110048
C74	C	0.570729	0.000151	-0.062471
H75	H	0.567251	0.079863	-0.173246
H76	H	0.484814	0.080335	-0.111794
H77	H	0.562991	0.133331	-0.077377
H78	H	0.552050	-0.053350	-0.095138
H79	H	0.630245	-0.000362	-0.060730
C80	C	0.927973	-0.377708	0.338724
C81	C	0.885065	-0.432473	0.273752
H82	H	0.889525	-0.355108	0.386180
H83	H	0.969822	-0.413953	0.367885
H84	H	0.953663	-0.326914	0.306167
H85	H	0.859381	-0.483272	0.306307
H86	H	0.843201	-0.396227	0.244588
C87	C	0.985827	-0.622371	0.352424
C88	C	1.050495	-0.567557	0.313028
H89	H	1.001798	-0.645020	0.412780
H90	H	0.936332	-0.586145	0.359934
H91	H	0.975505	-0.673132	0.311282
H92	H	1.060813	-0.516791	0.354167
H93	H	1.100004	-0.603784	0.305523
H94	H	1.102902	-0.557722	0.005362
