data_functionalizedCrystal
_audit_creation_method	'MofGen! by Chris Wilmer'
_symmetry_space_group_name_H-M	'P1'
_symmetry_Int_Tables_number	1
_symmetry_cell_setting	triclinic
loop_
_symmetry_equiv_pos_as_xyz
  x,y,z
_cell_length_a	12.759401
_cell_length_b	16.120484
_cell_length_c	12.759393
_cell_angle_alpha	92.864008
_cell_angle_beta	89.979062
_cell_angle_gamma	92.926992
loop_
_atom_site_label
_atom_site_type_symbol
_atom_site_fract_x
_atom_site_fract_y
_atom_site_fract_z
Zn1	Zn	1.584985	-0.331832	-0.615183
Zn2	Zn	1.918318	0.001501	-0.281849
Zn3	Zn	2.251651	0.334834	0.051484
Zn4	Zn	1.575933	-0.471268	-0.448395
Zn5	Zn	1.909266	-0.137934	-0.115062
Zn6	Zn	2.242600	0.195399	0.218271
Zn7	Zn	1.409280	-0.331877	-0.439521
Zn8	Zn	1.742614	0.001457	-0.106187
Zn9	Zn	2.075947	0.334790	0.227146
Zn10	Zn	1.400336	-0.471209	-0.624029
Zn11	Zn	1.733670	-0.137876	-0.290695
Zn12	Zn	2.067003	0.195457	0.042638
O13	O	1.492634	-0.401546	-0.531782
O14	O	1.825967	-0.068213	-0.198449
O15	O	2.159300	0.265120	0.134885
O16	O	1.730804	-0.350334	-0.593070
O17	O	2.064138	-0.017001	-0.259737
O18	O	2.397471	0.316332	0.073597
O19	O	1.553781	-0.452820	-0.300200
O20	O	1.887115	-0.119487	0.033134
O21	O	2.220448	0.213847	0.366467
O22	O	1.440119	-0.215205	-0.455406
O23	O	1.773452	0.118128	-0.122073
O24	O	2.106786	0.451461	0.211260
O25	O	1.724154	-0.452777	-0.470532
O26	O	2.057488	-0.119444	-0.137199
O27	O	2.390821	0.213890	0.196135
O28	O	1.569208	-0.215173	-0.584465
O29	O	1.902542	0.118161	-0.251131
O30	O	2.235875	0.451494	0.082202
O31	O	1.431342	-0.350410	-0.293680
O32	O	1.764676	-0.017077	0.039654
O33	O	2.098009	0.316257	0.372987
O34	O	1.261073	-0.350354	-0.463984
O35	O	1.594407	-0.017020	-0.130651
O36	O	1.927740	0.316313	0.202683
O37	O	1.424875	-0.452678	-0.769874
O38	O	1.758208	-0.119344	-0.436540
O39	O	2.091542	0.213989	-0.103207
O40	O	1.254502	-0.452721	-0.599541
O41	O	1.587835	-0.119387	-0.266208
O42	O	1.921169	0.213946	0.067125
O43	O	1.560535	-0.350278	-0.763375
O44	O	1.893869	-0.016945	-0.430041
O45	O	2.227202	0.316389	-0.096708
O46	O	1.545108	-0.587925	-0.479110
O47	O	1.878442	-0.254592	-0.145776
O48	O	2.211775	0.078741	0.187557
O49	O	1.416098	-0.587883	-0.608147
O50	O	1.749432	-0.254549	-0.274813
O51	O	2.082765	0.078784	0.058520
C52	C	1.219667	-0.401536	-0.531760
C53	C	1.553000	-0.068203	-0.198427
C54	C	1.886333	0.265130	0.134906
C55	C	1.102889	-0.401552	-0.531777
C56	C	1.436223	-0.068219	-0.198444
C57	C	1.769556	0.265115	0.134889
C58	C	1.044628	-0.454936	-0.602261
C59	C	1.377961	-0.121602	-0.268928
C60	C	1.711295	0.211731	0.064405
C61	C	0.934904	-0.454939	-0.602282
C62	C	1.268237	-0.121606	-0.268949
C63	C	1.601570	0.211728	0.064384
C64	C	0.941712	-0.348172	-0.461326
C65	C	1.275045	-0.014839	-0.127993
C66	C	1.608378	0.318494	0.205341
C67	C	1.051434	-0.348166	-0.461311
C68	C	1.384768	-0.014832	-0.127978
C69	C	1.718101	0.318501	0.205356
C70	C	1.478679	-0.618154	-0.545574
C71	C	1.812012	-0.284821	-0.212241
C72	C	2.145346	0.048513	0.121093
C73	C	1.472805	-0.710820	-0.551509
C74	C	1.806139	-0.377486	-0.218176
C75	C	2.139472	-0.044153	0.115157
C76	C	1.462088	-0.880481	-0.562368
C77	C	1.795421	-0.547147	-0.229034
C78	C	2.128755	-0.213814	0.104299
C79	C	1.523367	-0.921772	-0.501213
C80	C	1.856701	-0.588438	-0.167880
C81	C	2.190034	-0.255105	0.165453
C82	C	1.517404	-1.016177	-0.507255
C83	C	1.850737	-0.682843	-0.173921
C84	C	2.184071	-0.349510	0.159412
C85	C	1.468050	-0.786067	-0.556327
C86	C	1.801383	-0.452734	-0.222994
C87	C	2.134716	-0.119400	0.110339
C88	C	1.766666	-0.401557	-0.531804
C89	C	2.099999	-0.068224	-0.198471
C90	C	2.433333	0.265109	0.134863
C91	C	1.883442	-0.401562	-0.531814
C92	C	2.216776	-0.068229	-0.198480
C93	C	2.550109	0.265105	0.134853
C94	C	1.492717	-0.401466	-0.805810
C95	C	1.826051	-0.068133	-0.472477
C96	C	2.159384	0.265200	-0.139144
C97	C	1.492753	-0.401432	-0.922585
C98	C	1.826086	-0.068099	-0.589251
C99	C	2.159420	0.265234	-0.255918
C100	C	1.506671	-0.184093	-0.517959
C101	C	1.840004	0.149240	-0.184625
C102	C	2.173338	0.482574	0.148708
C103	C	1.512653	-0.091427	-0.512068
C104	C	1.845986	0.241906	-0.178735
C105	C	2.179320	0.575239	0.154598
C106	C	1.563397	-0.348104	-0.974064
C107	C	1.896730	-0.014771	-0.640730
C108	C	2.230063	0.318562	-0.307397
C109	C	1.563417	-0.348068	-1.083786
C110	C	1.896750	-0.014735	-0.750452
C111	C	2.230084	0.318598	-0.417119
C112	C	1.422146	-0.454696	-1.090540
C113	C	1.755479	-0.121362	-0.757207
C114	C	2.088813	0.211971	-0.423874
C115	C	1.422122	-0.454727	-0.980820
C116	C	1.755455	-0.121393	-0.647487
C117	C	2.088788	0.211940	-0.314153
C118	C	1.492614	-0.401566	-0.258816
C119	C	1.825948	-0.068233	0.074518
C120	C	2.159281	0.265101	0.407851
C121	C	1.492797	-0.401365	-0.142027
C122	C	1.826131	-0.068032	0.191307
C123	C	2.159464	0.265301	0.524640
H124	H	1.086519	-0.498404	-0.659642
H125	H	1.419853	-0.165071	-0.326309
H126	H	1.753186	0.168262	0.007024
H127	H	1.364587	-0.498152	-0.938905
H128	H	1.697921	-0.164819	-0.605572
H129	H	2.031254	0.168514	-0.272238
H130	H	0.887472	-0.498408	-0.659679
H131	H	1.220805	-0.165075	-0.326346
H132	H	1.554139	0.168259	0.006987
Br133	Br	1.618273	-0.862523	-0.406383
Br134	Br	1.951606	-0.529190	-0.073050
Br135	Br	2.284940	-0.195856	0.260283
H136	H	1.405150	-0.916029	-0.619256
H137	H	1.738483	-0.582696	-0.285922
H138	H	2.071817	-0.249362	0.047411
Br139	Br	1.326297	-0.527023	-1.169580
Br140	Br	1.659631	-0.193690	-0.836247
Br141	Br	1.992964	0.139643	-0.502914
H142	H	1.098873	-0.304689	-0.403914
H143	H	1.432206	0.028644	-0.070581
H144	H	1.765539	0.361978	0.262753
Br145	Br	1.659251	-0.275775	-0.895033
Br146	Br	1.992584	0.057559	-0.561700
Br147	Br	2.325918	0.390892	-0.228366
H148	H	1.620941	-0.304642	-1.125695
H149	H	1.954274	0.028692	-0.792361
H150	H	2.287607	0.362025	-0.459028
Br151	Br	0.871873	-0.275723	-0.365698
Br152	Br	1.205207	0.057610	-0.032364
Br153	Br	1.538540	0.390944	0.300969
