data_functionalizedCrystal
_audit_creation_method	'MofGen! by Chris Wilmer'
_symmetry_space_group_name_H-M	'P1'
_symmetry_Int_Tables_number	1
_symmetry_cell_setting	triclinic
loop_
_symmetry_equiv_pos_as_xyz
  x,y,z
_cell_length_a	14.971482
_cell_length_b	14.048226
_cell_length_c	10.654550
_cell_angle_alpha	89.993740
_cell_angle_beta	95.951231
_cell_angle_gamma	90.005902
loop_
_atom_site_label
_atom_site_type_symbol
_atom_site_fract_x
_atom_site_fract_y
_atom_site_fract_z
O1	O	1.187840	0.079148	-0.163637
O2	O	0.927546	0.079153	-0.183240
O3	O	1.063677	0.079144	0.009365
O4	O	1.051708	0.079156	-0.356242
O5	O	1.063661	-0.079177	0.009377
O6	O	0.927529	-0.079169	-0.183229
O7	O	1.187823	-0.079173	-0.163625
Zn8	Zn	1.057673	-0.104308	-0.173425
Zn9	Zn	1.057695	0.104287	-0.173440
O10	O	1.051691	-0.079165	-0.356231
C11	C	0.894208	-0.000008	-0.182359
C12	C	0.794896	-0.000006	-0.179734
C13	C	0.748236	-0.086308	-0.178491
C14	C	0.654924	-0.086309	-0.176005
C15	C	0.608273	-0.000007	-0.174770
C16	C	0.654940	0.086302	-0.176009
C17	C	0.748252	0.086302	-0.178486
C18	C	0.460450	0.086295	-0.170849
C19	C	0.367133	0.086296	-0.168374
C20	C	0.367123	-0.086315	-0.168368
C21	C	0.460434	-0.086315	-0.170845
C22	C	0.507094	-0.000006	-0.172086
N23	N	1.057665	-0.246669	-0.173414
C24	C	1.117963	-0.296490	-0.088164
C25	C	1.117969	-0.396148	-0.088163
C26	C	1.057681	-0.445982	-0.173420
C27	C	0.997376	-0.396153	-0.258674
C28	C	0.997366	-0.296498	-0.258668
C29	C	0.997402	-0.603868	-0.258683
C30	C	0.997412	-0.703530	-0.258692
C31	C	1.118005	-0.703518	-0.088179
C32	C	1.117995	-0.603862	-0.088172
C33	C	1.057691	-0.554040	-0.173429
C34	C	1.221161	-0.000011	-0.164507
C35	C	1.320472	-0.000006	-0.167132
C36	C	1.062790	-0.000016	0.056159
C37	C	1.060161	-0.000014	0.195574
N38	N	1.057711	0.246648	-0.173441
C39	C	1.052578	-0.000003	-0.403025
C40	C	1.055208	0.000002	-0.542440
C41	C	1.140313	-0.000015	0.275921
C42	C	1.137837	-0.000004	0.406916
C43	C	0.975050	0.000006	0.377203
C44	C	0.977526	0.000001	0.246211
H45	H	0.786241	0.156578	-0.179500
C46	C	0.931038	-0.241691	-0.352448
C47	C	0.864753	-0.296503	-0.446273
C48	C	0.798419	-0.241697	-0.540051
C49	C	0.798371	-0.132080	-0.540004
C50	C	0.864659	-0.077262	-0.446175
C51	C	0.930993	-0.132067	-0.352397
H52	H	0.864786	-0.377654	-0.446311
H53	H	0.749349	-0.282278	-0.609510
H54	H	0.749267	-0.091510	-0.609425
H55	H	0.864626	0.003889	-0.446137
H56	H	0.980063	-0.091486	-0.282939
H57	H	0.912253	0.000005	0.180789
C58	C	1.231207	-0.000023	0.220218
C59	C	1.298008	-0.082233	0.250505
C60	C	1.388905	-0.082237	0.194806
C61	C	1.413001	-0.000030	0.108820
C62	C	1.346200	0.082186	0.078528
C63	C	1.255303	0.082190	0.134227
H64	H	1.280171	-0.143093	0.314161
H65	H	1.438356	-0.143100	0.217230
H66	H	1.480289	-0.000033	0.067588
H67	H	1.364036	0.143046	0.014872
H68	H	1.205852	0.143053	0.111803
H69	H	0.616939	-0.156585	-0.174973
H70	H	0.786211	-0.156585	-0.179507
C71	C	1.226006	-0.000008	0.495296
C72	C	1.293480	-0.082229	0.489560
C73	C	1.381654	-0.082232	0.577940
C74	C	1.402355	-0.000014	0.672057
C75	C	1.334880	0.082212	0.677797
C76	C	1.246706	0.082215	0.589417
H77	H	1.278157	-0.143097	0.419886
H78	H	1.431603	-0.143102	0.573691
H79	H	1.467626	-0.000016	0.737482
H80	H	1.350202	0.143080	0.747472
H81	H	1.196756	0.143085	0.593667
H82	H	0.907772	0.000017	0.418448
C83	C	0.931087	-0.758345	-0.352468
C84	C	0.862396	-0.826881	-0.303230
C85	C	0.796069	-0.881694	-0.397008
C86	C	0.798433	-0.867970	-0.540023
C87	C	0.867126	-0.799431	-0.589268
C88	C	0.933454	-0.744618	-0.495490
H89	H	0.860644	-0.837043	-0.197356
H90	H	0.745218	-0.932431	-0.360553
H91	H	0.749333	-0.908546	-0.609443
H92	H	0.868879	-0.789269	-0.695143
H93	H	0.984305	-0.693881	-0.531945
C94	C	0.511744	-0.181253	-0.172176
C95	C	0.489428	-0.252470	-0.280774
C96	C	0.540735	-0.347411	-0.282087
C97	C	0.614358	-0.371136	-0.174801
C98	C	0.636678	-0.299918	-0.066195
C99	C	0.585371	-0.204976	-0.064882
H100	H	0.434924	-0.234909	-0.360200
H101	H	0.524212	-0.400132	-0.362485
H102	H	0.652339	-0.441418	-0.175773
H103	H	0.691182	-0.317479	0.013231
H104	H	0.601894	-0.152256	0.015516
H105	H	1.167106	-0.744089	-0.018760
H106	H	0.329152	0.156570	-0.167369
C107	C	0.315805	-0.181260	-0.166995
C108	C	0.242164	-0.204993	-0.274252
C109	C	0.190843	-0.299935	-0.272886
C110	C	0.213163	-0.371143	-0.164263
C111	C	0.286808	-0.347412	-0.056998
C112	C	0.338129	-0.252470	-0.058364
H113	H	0.225638	-0.152279	-0.354668
H114	H	0.136326	-0.317502	-0.352291
H115	H	0.175172	-0.441425	-0.163252
H116	H	0.303334	-0.400126	0.023418
H117	H	0.392646	-0.234903	0.021041
H118	H	0.498439	0.156577	-0.171860
H119	H	0.616951	0.156570	-0.174995
H120	H	1.167061	-0.255922	-0.018743
H121	H	1.167068	-0.436712	-0.018745
C122	C	1.184312	-0.549040	0.005607
C123	C	1.148760	-0.480545	0.101727
C124	C	1.215075	-0.425721	0.195509
C125	C	1.316942	-0.439391	0.193170
C126	C	1.352499	-0.507889	0.097045
C127	C	1.286184	-0.562713	0.003263
H128	H	1.073347	-0.470422	0.103463
H129	H	1.188752	-0.375014	0.266667
H130	H	1.366033	-0.398807	0.262592
H131	H	1.427912	-0.518012	0.095310
H132	H	1.312507	-0.613420	-0.067894
H133	H	0.948293	-0.563306	-0.328104
H134	H	0.948283	-0.436734	-0.328088
