data_functionalizedCrystal
_audit_creation_method	'MofGen! by Chris Wilmer'
_symmetry_space_group_name_H-M	'P1'
_symmetry_Int_Tables_number	1
_symmetry_cell_setting	triclinic
loop_
_symmetry_equiv_pos_as_xyz
  x,y,z
_cell_length_a	21.295420
_cell_length_b	21.295417
_cell_length_c	18.215384
_cell_angle_alpha	89.899621
_cell_angle_beta	89.937690
_cell_angle_gamma	90.026289
loop_
_atom_site_label
_atom_site_type_symbol
_atom_site_fract_x
_atom_site_fract_y
_atom_site_fract_z
Zn1	Zn	0.962590	-0.250263	-0.416094
Zn2	Zn	1.295923	0.083071	-0.082760
Zn3	Zn	1.629256	0.416404	0.250573
Zn4	Zn	0.962423	-0.355659	-0.293018
Zn5	Zn	1.295756	-0.022326	0.040315
Zn6	Zn	1.629090	0.311008	0.373649
Zn7	Zn	0.857244	-0.250400	-0.293041
Zn8	Zn	1.190577	0.082933	0.040292
Zn9	Zn	1.523910	0.416267	0.373626
Zn10	Zn	0.857282	-0.355490	-0.416043
Zn11	Zn	1.190616	-0.022157	-0.082710
Zn12	Zn	1.523949	0.311177	0.250623
O13	O	0.909885	-0.302953	-0.354549
O14	O	1.243218	0.030380	-0.021216
O15	O	1.576551	0.363714	0.312118
O16	O	1.050657	-0.264257	-0.399779
O17	O	1.383990	0.069076	-0.066445
O18	O	1.717324	0.402410	0.266888
O19	O	0.948385	-0.341824	-0.190036
O20	O	1.281718	-0.008491	0.143297
O21	O	1.615051	0.324842	0.476630
O22	O	0.871272	-0.162292	-0.309395
O23	O	1.204605	0.171041	0.023939
O24	O	1.537938	0.504374	0.357272
O25	O	1.050534	-0.341691	-0.309356
O26	O	1.383868	-0.008358	0.023978
O27	O	1.717201	0.324975	0.357311
O28	O	0.948669	-0.162191	-0.399801
O29	O	1.282002	0.171142	-0.066468
O30	O	1.615336	0.504475	0.266866
O31	O	0.871110	-0.264491	-0.190053
O32	O	1.204443	0.068842	0.143280
O33	O	1.537777	0.402176	0.476613
O34	O	0.769159	-0.264327	-0.309346
O35	O	1.102493	0.069006	0.023987
O36	O	1.435826	0.402339	0.357321
O37	O	0.871338	-0.341403	-0.519035
O38	O	1.204671	-0.008070	-0.185701
O39	O	1.538004	0.325263	0.147632
O40	O	0.769188	-0.341537	-0.399715
O41	O	1.102521	-0.008203	-0.066382
O42	O	1.435855	0.325130	0.266951
O43	O	0.948707	-0.264093	-0.519072
O44	O	1.282040	0.069240	-0.185738
O45	O	1.615373	0.402574	0.147595
O46	O	0.948422	-0.443726	-0.309307
O47	O	1.281755	-0.110393	0.024026
O48	O	1.615089	0.222941	0.357360
O49	O	0.871176	-0.443602	-0.399693
O50	O	1.204509	-0.110269	-0.066360
O51	O	1.537843	0.223065	0.266973
C52	C	0.746333	-0.302929	-0.354528
C53	C	1.079666	0.030404	-0.021195
C54	C	1.413000	0.363738	0.312138
C55	C	0.676365	-0.302934	-0.354537
C56	C	1.009698	0.030400	-0.021203
C57	C	1.343032	0.363733	0.312130
C58	C	0.176970	-0.262728	-0.401720
C59	C	0.510304	0.070606	-0.068387
C60	C	0.843637	0.403939	0.264947
C61	C	0.242713	-0.262723	-0.401720
C62	C	0.576046	0.070610	-0.068386
C63	C	0.909379	0.403944	0.264947
C64	C	0.275526	-0.302972	-0.354566
C65	C	0.608859	0.030361	-0.021233
C66	C	0.942192	0.363695	0.312101
C67	C	0.242590	-0.343240	-0.307422
C68	C	0.575924	-0.009907	0.025911
C69	C	0.909257	0.323426	0.359244
C70	C	0.176849	-0.343248	-0.307429
C71	C	0.510182	-0.009915	0.025904
C72	C	0.843516	0.323418	0.359238
N73	N	0.378679	-0.307783	-0.290126
N74	N	0.712012	0.025550	0.043207
N75	N	1.045346	0.358883	0.376541
N76	N	0.441131	-0.307772	-0.290122
N77	N	0.774464	0.025561	0.043211
N78	N	1.107797	0.358894	0.376545
C79	C	0.473600	-0.302951	-0.354544
C80	C	0.806934	0.030382	-0.021211
C81	C	1.140267	0.363715	0.312122
N82	N	0.441259	-0.298130	-0.418973
N83	N	0.774593	0.035203	-0.085639
N84	N	1.107926	0.368537	0.247694
N85	N	0.378802	-0.298138	-0.418976
N86	N	0.712135	0.035195	-0.085643
N87	N	1.045469	0.368529	0.247691
C88	C	0.346811	-0.302968	-0.354554
C89	C	0.680144	0.030365	-0.021221
C90	C	1.013478	0.363698	0.312113
C91	C	0.577813	-0.262684	-0.401689
C92	C	0.911146	0.070650	-0.068356
C93	C	1.244480	0.403983	0.264978
C94	C	0.643557	-0.262684	-0.401690
C95	C	0.976890	0.070650	-0.068357
C96	C	1.310223	0.403983	0.264977
C97	C	0.643433	-0.343197	-0.307386
C98	C	0.976766	-0.009864	0.025947
C99	C	1.310100	0.323469	0.359281
C100	C	0.577691	-0.343201	-0.307391
C101	C	0.911024	-0.009868	0.025942
C102	C	1.244357	0.323466	0.359275
C103	C	0.544885	-0.302941	-0.354542
C104	C	0.878218	0.030392	-0.021208
C105	C	1.211551	0.363726	0.312125
C106	C	0.909802	-0.466505	-0.354508
C107	C	1.243135	-0.133171	-0.021175
C108	C	1.576469	0.200162	0.312158
C109	C	0.909824	-0.536473	-0.354515
C110	C	1.243158	-0.203139	-0.021182
C111	C	1.576491	0.130194	0.312151
C112	C	0.950082	-0.569383	-0.307499
C113	C	1.283416	-0.236050	0.025834
C114	C	1.616749	0.097284	0.359167
C115	C	0.950112	-0.635126	-0.307516
C116	C	1.283445	-0.301792	0.025817
C117	C	1.616779	0.031541	0.359151
C118	C	0.909872	-0.667955	-0.354541
C119	C	1.243206	-0.334622	-0.021207
C120	C	1.576539	-0.001289	0.312126
C121	C	0.869611	-0.635037	-0.401566
C122	C	1.202945	-0.301704	-0.068232
C123	C	1.536278	0.031630	0.265101
C124	C	0.869588	-0.569296	-0.401553
C125	C	1.202921	-0.235962	-0.068220
C126	C	1.536254	0.097371	0.265114
N127	N	0.854808	-0.771211	-0.360144
N128	N	1.188142	-0.437878	-0.026811
N129	N	1.521475	-0.104544	0.306523
N130	N	0.854833	-0.833663	-0.360152
N131	N	1.188166	-0.500329	-0.026819
N132	N	1.521500	-0.166996	0.306515
C133	C	0.909943	-0.866030	-0.354583
C134	C	1.243276	-0.532696	-0.021250
C135	C	1.576609	-0.199363	0.312084
N136	N	0.965028	-0.833586	-0.348992
N137	N	1.298362	-0.500253	-0.015658
N138	N	1.631695	-0.166920	0.317675
N139	N	0.965003	-0.771129	-0.348980
N140	N	1.298337	-0.437796	-0.015647
N141	N	1.631670	-0.104463	0.317687
C142	C	0.909894	-0.739241	-0.354560
C143	C	1.243227	-0.405907	-0.021227
C144	C	1.576561	-0.072574	0.312107
C145	C	0.950236	-0.970226	-0.307583
C146	C	1.283569	-0.636892	0.025751
C147	C	1.616903	-0.303559	0.359084
C148	C	0.950267	-1.035969	-0.307604
C149	C	1.283600	-0.702636	0.025729
C150	C	1.616933	-0.369303	0.359062
C151	C	0.869761	-1.035879	-0.401650
C152	C	1.203094	-0.702546	-0.068317
C153	C	1.536427	-0.369213	0.265017
C154	C	0.869736	-0.970137	-0.401632
C155	C	1.203069	-0.636804	-0.068299
C156	C	1.536402	-0.303470	0.265034
C157	C	0.909973	-0.937314	-0.354595
C158	C	1.243306	-0.603981	-0.021261
C159	C	1.576639	-0.270647	0.312072
C160	C	1.074075	-0.302978	-0.354570
C161	C	1.407408	0.030356	-0.021237
C162	C	1.740742	0.363689	0.312096
C163	C	1.144043	-0.302988	-0.354579
C164	C	1.477376	0.030345	-0.021246
C165	C	1.810710	0.363679	0.312087
C166	C	0.910045	-0.302714	-0.546502
C167	C	1.243378	0.030619	-0.213169
C168	C	1.576712	0.363953	0.120164
C169	C	0.910114	-0.302612	-0.628302
C170	C	1.243447	0.030721	-0.294968
C171	C	1.576780	0.364055	0.038365
C172	C	0.909985	-0.138763	-0.354606
C173	C	1.243318	0.194571	-0.021273
C174	C	1.576651	0.527904	0.312061
C175	C	0.910027	-0.068794	-0.354630
C176	C	1.243361	0.264539	-0.021297
C177	C	1.576694	0.597872	0.312036
C178	C	0.909761	-0.303146	-0.163342
C179	C	1.243094	0.030188	0.169991
C180	C	1.576428	0.363521	0.503324
C181	C	0.909815	-0.303070	-0.081544
C182	C	1.243148	0.030263	0.251790
C183	C	1.576481	0.363597	0.585123
C184	C	0.869949	-0.343421	0.106871
C185	C	1.203283	-0.010088	0.440205
C186	C	1.536616	0.323246	0.773538
C187	C	0.869999	-0.343342	0.183730
C188	C	1.203332	-0.010009	0.517063
C189	C	1.536665	0.323324	0.850397
C190	C	0.949981	-0.262257	0.183278
C191	C	1.283314	0.071076	0.516611
C192	C	1.616647	0.404410	0.849945
C193	C	0.949928	-0.262333	0.106421
C194	C	1.283261	0.071001	0.439754
C195	C	1.616594	0.404334	0.773087
C196	C	0.909913	-0.302918	0.068220
C197	C	1.243247	0.030415	0.401553
C198	C	1.576580	0.363748	0.734886
C199	C	0.910015	-0.302764	0.221935
C200	C	1.243348	0.030569	0.555269
C201	C	1.576682	0.363903	0.888602
C202	C	0.910069	-0.302679	0.305269
C203	C	1.243402	0.030655	0.638602
C204	C	1.576735	0.363988	0.971935
C205	C	0.909859	-0.303003	-0.015119
C206	C	1.243192	0.030330	0.318214
C207	C	1.576525	0.363664	0.651547
H208	H	0.150040	-0.376034	-0.269041
H209	H	0.483373	-0.042701	0.064293
H210	H	0.816707	0.290632	0.397626
H211	H	0.837454	-0.376322	0.215197
H212	H	1.170788	-0.042989	0.548530
H213	H	1.504121	0.290345	0.881864
Br214	Br	1.004752	-0.679800	-0.243704
Br215	Br	1.338085	-0.346466	0.089629
Br216	Br	1.671418	-0.013133	0.422962
Br217	Br	1.004271	-0.207167	0.235127
Br218	Br	1.337605	0.126166	0.568460
Br219	Br	1.670938	0.459499	0.901794
Br220	Br	0.815005	-0.679589	-0.465391
Br221	Br	1.148338	-0.346256	-0.132058
Br222	Br	1.481672	-0.012923	0.201275
Br223	Br	1.004840	-0.925676	-0.243745
Br224	Br	1.338173	-0.592343	0.089588
Br225	Br	1.671506	-0.259010	0.422922
Br226	Br	1.004170	-0.207363	0.053960
Br227	Br	1.337504	0.125971	0.387293
Br228	Br	1.670837	0.459304	0.720626
Br229	Br	0.814948	-0.524628	-0.465367
Br230	Br	1.148282	-0.191295	-0.132033
Br231	Br	1.481615	0.142038	0.201300
H232	H	0.836951	-0.943340	-0.439914
H233	H	1.170285	-0.610006	-0.106581
H234	H	1.503618	-0.276673	0.226753
Br235	Br	0.533000	-0.397834	-0.243401
Br236	Br	0.866334	-0.064501	0.089933
Br237	Br	1.199667	0.268833	0.423266
H238	H	0.837366	-0.376467	0.075770
H239	H	1.170699	-0.043134	0.409104
H240	H	1.504033	0.290200	0.742437
Br241	Br	1.004914	-1.080635	-0.243799
Br242	Br	1.338247	-0.747302	0.089535
Br243	Br	1.671581	-0.413968	0.422868
H244	H	0.269527	-0.229935	-0.440106
H245	H	0.602861	0.103398	-0.106773
H246	H	0.936194	0.436731	0.226560
Br247	Br	0.815155	-1.080427	-0.465478
Br248	Br	1.148488	-0.747093	-0.132145
Br249	Br	1.481822	-0.413760	0.201188
Br250	Br	0.132450	-0.208094	-0.465714
Br251	Br	0.465784	0.125240	-0.132381
Br252	Br	0.799117	0.458573	0.200952
H253	H	0.551101	-0.229902	-0.440081
H254	H	0.884434	0.103432	-0.106748
H255	H	1.217768	0.436765	0.226585
Br256	Br	0.287120	-0.397869	-0.243433
Br257	Br	0.620453	-0.064536	0.089901
Br258	Br	0.953787	0.268798	0.423234
Br259	Br	1.004698	-0.524840	-0.243673
Br260	Br	1.338031	-0.191507	0.089660
Br261	Br	1.671364	0.141826	0.422993
Br262	Br	0.687957	-0.397830	-0.243399
Br263	Br	1.021291	-0.064496	0.089934
Br264	Br	1.354624	0.268837	0.423268
Br265	Br	0.688245	-0.208047	-0.465681
Br266	Br	1.021579	0.125287	-0.132347
Br267	Br	1.354912	0.458620	0.200986
