data_functionalizedCrystal
_audit_creation_method	'MofGen! by Chris Wilmer'
_symmetry_space_group_name_H-M	'P1'
_symmetry_Int_Tables_number	1
_symmetry_cell_setting	triclinic
loop_
_symmetry_equiv_pos_as_xyz
  x,y,z
_cell_length_a	14.519731
_cell_length_b	10.654541
_cell_length_c	9.130307
_cell_angle_alpha	90.000178
_cell_angle_beta	89.995718
_cell_angle_gamma	95.913609
loop_
_atom_site_label
_atom_site_type_symbol
_atom_site_fract_x
_atom_site_fract_y
_atom_site_fract_z
O1	O	0.129519	-1.666607	-0.121758
O2	O	0.629519	-1.166607	0.378242
O3	O	0.141862	-1.301010	-0.121771
O4	O	0.641862	-0.801010	0.378229
O5	O	0.001504	-1.493488	-0.121751
O6	O	0.501504	-0.993488	0.378249
O7	O	0.269878	-1.474129	-0.121778
O8	O	0.769878	-0.974129	0.378222
O9	O	0.001502	-1.493482	0.121848
O10	O	0.501502	-0.993482	0.621848
O11	O	0.141861	-1.301004	0.121828
O12	O	0.641861	-0.801004	0.621828
O13	O	0.129518	-1.666601	0.121841
O14	O	0.629518	-1.166601	0.621841
Cu15	Cu	0.135689	-1.483802	0.144077
Cu16	Cu	0.635689	-0.983802	0.644077
Cu17	Cu	0.135691	-1.483809	-0.144007
Cu18	Cu	0.635691	-0.983809	0.355993
O19	O	0.269876	-1.474123	0.121821
O20	O	0.769876	-0.974123	0.621821
C21	C	0.140956	-1.254218	0.000027
C22	C	0.640956	-0.754218	0.500027
C23	C	0.138246	-1.114800	0.000022
C24	C	0.638246	-0.614800	0.500022
N25	N	0.135687	-1.483806	0.346700
N26	N	0.635687	-0.983806	0.846700
C27	C	-0.032861	-1.492578	0.000049
C28	C	0.467139	-0.992578	0.500049
C29	C	-0.135256	-1.489860	0.000050
C30	C	0.364744	-0.989860	0.500050
C31	C	-0.218411	-1.487651	0.000046
C32	C	0.281589	-0.987651	0.500046
C33	C	-0.322734	-1.484891	0.000035
C34	C	0.177266	-0.984891	0.500035
C35	C	-0.405885	-1.482701	0.000025
C36	C	0.094115	-0.982701	0.500025
C37	C	-0.510214	-1.479942	0.000017
C38	C	-0.010214	-0.979942	0.500017
C39	C	0.304241	-1.475033	0.000018
C40	C	0.804241	-0.975033	0.500018
C41	C	0.406635	-1.477751	0.000007
C42	C	0.906635	-0.977751	0.500007
C43	C	0.130424	-1.713393	0.000040
C44	C	0.630424	-1.213393	0.500040
C45	C	0.133134	-1.852811	0.000035
C46	C	0.633134	-1.352811	0.500035
C47	C	0.306082	-1.085233	-0.000013
C48	C	0.806082	-0.585233	0.499987
C49	C	0.388724	-1.004953	-0.000037
C50	C	0.888724	-0.504953	0.499963
C51	C	0.386172	-0.873959	-0.000038
C52	C	0.886172	-0.373959	0.499962
C53	C	0.300969	-0.823244	-0.000011
C54	C	0.800969	-0.323244	0.499989
C55	C	0.218328	-0.903524	0.000012
C56	C	0.718328	-0.403524	0.500012
C57	C	0.220889	-1.034519	0.000009
C58	C	0.720889	-0.534519	0.500009
C59	C	0.050493	-0.933091	0.000058
C60	C	0.550493	-0.433091	0.500058
C61	C	0.053043	-1.064085	0.000049
C62	C	0.553043	-0.564085	0.500049
C63	C	-0.034710	-0.882376	0.000085
C64	C	0.465290	-0.382376	0.500085
C65	C	-0.117353	-0.962657	0.000098
C66	C	0.382647	-0.462657	0.500098
C67	C	-0.114797	-1.093658	0.000097
C68	C	0.385203	-0.593658	0.500097
C69	C	-0.029598	-1.144366	0.000072
C70	C	0.470402	-0.644366	0.500072
N71	N	0.135685	-1.483815	-0.346630
N72	N	0.635685	-0.983815	0.153370
C73	C	0.011436	-1.654314	0.346708
C74	C	0.511436	-1.154314	0.846708
C75	C	-0.050686	-1.739576	0.423378
C76	C	0.449314	-1.239576	0.923378
C77	C	-0.050687	-1.739589	0.576712
C78	C	0.449313	-1.239589	1.076712
C79	C	0.011440	-1.654327	0.653378
C80	C	0.511440	-1.154327	1.153378
C81	C	0.073563	-1.569065	0.576707
C82	C	0.573563	-1.069065	1.076707
C83	C	0.073559	-1.569064	0.423370
C84	C	0.573559	-1.069064	0.923370
C85	C	0.197808	-1.398553	0.576699
C86	C	0.697808	-0.898553	1.076699
C87	C	0.197815	-1.398544	0.423366
C88	C	0.697815	-0.898544	0.923366
C89	C	0.259935	-1.313291	0.653366
C90	C	0.759935	-0.813291	1.153366
C91	C	0.322064	-1.228033	0.576695
C92	C	0.822064	-0.728033	1.076695
C93	C	0.322063	-1.228025	0.423352
C94	C	0.822063	-0.728025	0.923352
C95	C	0.259937	-1.313282	0.346695
C96	C	0.759937	-0.813282	0.846695
H97	H	0.308169	-1.191893	-0.000045
H98	H	0.808169	-0.691893	0.499955
C99	C	0.390389	-1.134246	0.661037
C100	C	0.890389	-0.634246	1.161037
N101	N	0.441852	-1.063603	0.724569
N102	N	0.941852	-0.563603	1.224569
H103	H	-0.036782	-0.775713	0.000092
H104	H	0.463218	-0.275713	0.500092
H105	H	0.458094	-1.046259	-0.000055
H106	H	0.958094	-0.546259	0.499945
H107	H	-0.101276	-1.809012	0.639137
H108	H	0.398724	-1.309012	1.139137
C109	C	0.259929	-1.313279	0.178024
C110	C	0.759929	-0.813279	0.678024
N111	N	0.259917	-1.313277	0.050979
N112	N	0.759917	-0.813277	0.550979
C113	C	0.477080	-0.785648	-0.000064
C114	C	0.977080	-0.285648	0.499936
N115	N	0.545553	-0.719132	-0.000085
N116	N	1.045553	-0.219132	0.499915
C117	C	0.011419	-1.654323	0.822049
C118	C	0.511419	-1.154323	1.322049
N119	N	0.011400	-1.654315	0.949094
N120	N	0.511400	-1.154315	1.449094
C121	C	-0.119038	-1.833340	0.339034
C122	C	0.380962	-1.333340	0.839034
N123	N	-0.170526	-1.903955	0.275510
N124	N	0.329474	-1.403955	0.775510
C125	C	0.298167	-0.679146	0.000003
C126	C	0.798167	-0.179146	0.500003
N127	N	0.296055	-0.570610	0.000013
N128	N	0.796055	-0.070610	0.500013
H129	H	-0.186718	-0.921353	0.000118
H130	H	0.313282	-0.421353	0.500118
C131	C	0.390419	-1.134248	0.339027
C132	C	0.890419	-0.634248	0.839027
N133	N	0.441914	-1.063621	0.275518
N134	N	0.941914	-0.563621	0.775518
H135	H	-0.027509	-1.251026	0.000055
H136	H	0.472491	-0.751026	0.500055
C137	C	-0.205712	-1.181957	0.000124
C138	C	0.294288	-0.681957	0.500124
N139	N	-0.274191	-1.248460	0.000142
N140	N	0.225809	-0.748460	0.500142
H141	H	0.259928	-1.313300	0.778218
H142	H	0.759928	-0.813300	1.278218
H143	H	0.011438	-1.654323	0.221855
H144	H	0.511438	-1.154323	0.721855
