data_functionalizedCrystal
_audit_creation_method	'MofGen! by Chris Wilmer'
_symmetry_space_group_name_H-M	'P1'
_symmetry_Int_Tables_number	1
_symmetry_cell_setting	triclinic
loop_
_symmetry_equiv_pos_as_xyz
  x,y,z
_cell_length_a	14.908783
_cell_length_b	17.637651
_cell_length_c	14.908308
_cell_angle_alpha	81.356405
_cell_angle_beta	89.788727
_cell_angle_gamma	103.762219
loop_
_atom_site_label
_atom_site_type_symbol
_atom_site_fract_x
_atom_site_fract_y
_atom_site_fract_z
Zn1	Zn	1.285512	-0.276155	-0.520588
Zn2	Zn	1.267236	-0.400174	-0.340031
Zn3	Zn	1.144010	-0.275301	-0.361768
Zn4	Zn	1.104987	-0.415293	-0.477972
O5	O	1.200436	-0.341731	-0.425090
O6	O	1.410208	-0.286637	-0.505376
O7	O	1.259572	-0.376924	-0.218719
O8	O	1.186761	-0.164925	-0.409768
O9	O	1.396780	-0.377753	-0.372721
O10	O	1.290721	-0.165553	-0.526453
O11	O	1.169039	-0.285181	-0.234689
O12	O	1.011713	-0.299841	-0.368444
O13	O	1.120251	-0.403521	-0.607820
O14	O	0.983043	-0.402692	-0.453818
O15	O	1.252882	-0.301297	-0.639131
O16	O	1.221733	-0.512669	-0.331397
O17	O	1.102530	-0.523776	-0.432741
C18	C	0.964417	-0.352815	-0.408866
C19	C	0.863441	-0.357577	-0.401942
C20	C	0.687635	-0.271794	-0.527203
C21	C	0.592760	-0.276266	-0.520701
C22	C	0.578815	-0.370988	-0.382432
C23	C	0.673690	-0.366516	-0.388934
C24	C	0.728097	-0.316918	-0.461323
C25	C	0.822973	-0.312451	-0.467828
C26	C	0.809027	-0.407168	-0.329556
C27	C	0.714152	-0.411640	-0.323054
C28	C	1.155937	-0.546871	-0.375107
C29	C	1.136981	-0.634628	-0.353760
C30	C	1.345013	-0.924619	-0.587584
C31	C	1.327173	-1.007081	-0.567507
C32	C	1.219004	-1.006525	-0.445899
C33	C	1.236838	-0.924061	-0.465963
C34	C	1.299843	-0.883114	-0.536807
C35	C	1.191668	-0.882556	-0.415185
C36	C	1.209497	-0.800100	-0.435251
C37	C	1.272497	-0.759148	-0.506093
C38	C	1.317672	-0.800658	-0.556872
C39	C	1.128659	-0.923505	-0.344346
C40	C	1.083488	-0.882000	-0.293568
C41	C	1.101322	-0.799542	-0.313629
C42	C	1.164322	-0.758590	-0.384472
C43	C	1.056147	-0.758032	-0.262850
C44	C	1.073976	-0.675575	-0.282916
C45	C	1.182151	-0.676133	-0.404537
C46	C	1.437377	-0.330604	-0.441377
C47	C	1.538347	-0.325862	-0.448318
C48	C	1.184252	-0.354191	-0.656578
C49	C	1.177356	-0.359500	-0.755225
C50	C	1.245132	-0.135789	-0.475289
C51	C	1.264179	-0.048029	-0.496681
C52	C	1.302507	-0.263014	-0.973202
C53	C	1.296030	-0.268000	-1.065891
C54	C	1.157924	-0.374454	-1.033292
C55	C	1.164400	-0.369468	-0.940604
C56	C	1.236695	-0.313747	-0.910563
C57	C	1.243174	-0.308765	-0.817872
C58	C	1.105065	-0.415215	-0.785276
C59	C	1.098588	-0.420201	-0.877965
C60	C	1.216621	-0.329260	-0.194519
C61	C	1.223742	-0.323719	-0.095939
H62	H	1.233463	-0.642792	-0.462219
C63	C	1.386979	-0.755612	-0.634805
N64	N	1.439176	-0.721684	-0.693506
H65	H	1.302041	-0.263395	-0.793415
H66	H	1.032188	-0.915350	-0.235889
C67	C	1.292111	-0.668442	-0.528164
N68	N	1.306885	-0.600122	-0.544787
H69	H	1.349619	-0.226686	-1.116890
C70	C	0.747484	-0.217241	-0.606834
N71	N	0.792561	-0.176150	-0.666813
H72	H	1.361375	-0.217648	-0.948742
H73	H	0.841979	-0.443918	-0.275917
H74	H	1.051478	-0.456528	-0.734264
C75	C	1.149762	-1.051570	-0.367921
N76	N	1.097632	-1.085494	-0.309166
H77	H	1.099065	-0.419819	-1.057769
H78	H	1.037193	-0.641782	-0.241568
C79	C	1.414320	-0.879573	-0.665517
N80	N	1.466516	-0.845645	-0.724218
C81	C	1.376869	-1.052733	-0.623373
N82	N	1.414298	-1.087118	-0.665451
H83	H	1.114135	-0.990647	-0.328019
H84	H	1.004842	-0.791383	-0.205175
C85	C	1.019063	-0.481486	-0.911023
N86	N	0.959163	-0.527646	-0.935921
H87	H	0.559821	-0.239519	-0.574346
H88	H	0.534504	-0.411358	-0.323489
C89	C	0.882820	-0.257891	-0.547455
N90	N	0.927895	-0.216791	-0.607429
H91	H	0.669842	-0.452018	-0.264115
