data_functionalizedCrystal
_audit_creation_method	'MofGen! by Chris Wilmer'
_symmetry_space_group_name_H-M	'P1'
_symmetry_Int_Tables_number	1
_symmetry_cell_setting	triclinic
loop_
_symmetry_equiv_pos_as_xyz
  x,y,z
_cell_length_a	16.120530
_cell_length_b	21.295417
_cell_length_c	21.295411
_cell_angle_alpha	90.021644
_cell_angle_beta	92.920962
_cell_angle_gamma	87.125778
loop_
_atom_site_label
_atom_site_type_symbol
_atom_site_fract_x
_atom_site_fract_y
_atom_site_fract_z
Zn1	Zn	1.274543	-0.299555	0.404646
Zn2	Zn	1.607876	0.033779	0.737980
Zn3	Zn	1.941210	0.367112	1.071313
Zn4	Zn	1.274414	-0.404801	0.299367
Zn5	Zn	1.607747	-0.071468	0.632700
Zn6	Zn	1.941081	0.261865	0.966033
Zn7	Zn	1.135115	-0.294209	0.294060
Zn8	Zn	1.468448	0.039125	0.627393
Zn9	Zn	1.801781	0.372458	0.960727
Zn10	Zn	1.135074	-0.399442	0.399270
Zn11	Zn	1.468407	-0.066108	0.732604
Zn12	Zn	1.801741	0.267225	1.065937
O13	O	1.204786	-0.349502	0.349336
O14	O	1.538120	-0.016168	0.682669
O15	O	1.871453	0.317165	1.016002
O16	O	1.391191	-0.317996	0.395151
O17	O	1.724525	0.015337	0.728485
O18	O	2.057858	0.348670	1.061818
O19	O	1.255898	-0.390137	0.210572
O20	O	1.589232	-0.056803	0.543905
O21	O	1.922565	0.276530	0.877239
O22	O	1.153681	-0.206831	0.308758
O23	O	1.487014	0.126502	0.642092
O24	O	1.820348	0.459836	0.975425
O25	O	1.391097	-0.395321	0.317803
O26	O	1.724430	-0.061987	0.651136
O27	O	2.057763	0.271346	0.984470
O28	O	1.256119	-0.210759	0.390006
O29	O	1.589452	0.122575	0.723339
O30	O	1.922785	0.455908	1.056672
O31	O	1.153556	-0.308885	0.206673
O32	O	1.486889	0.024449	0.540006
O33	O	1.820222	0.357782	0.873340
O34	O	1.018444	-0.303688	0.303546
O35	O	1.351777	0.029646	0.636879
O36	O	1.685110	0.362979	0.970212
O37	O	1.153612	-0.386186	0.488074
O38	O	1.486945	-0.052853	0.821408
O39	O	1.820279	0.280481	1.154741
O40	O	1.018414	-0.381002	0.380843
O41	O	1.351747	-0.047669	0.714177
O42	O	1.685081	0.285665	1.047510
O43	O	1.256079	-0.312799	0.492024
O44	O	1.589413	0.020534	0.825357
O45	O	1.922746	0.353868	1.158691
O46	O	1.255859	-0.492177	0.312590
O47	O	1.589192	-0.158844	0.645924
O48	O	1.922526	0.174489	0.979257
O49	O	1.153487	-0.488239	0.385989
O50	O	1.486820	-0.154906	0.719322
O51	O	1.820153	0.178427	1.052656
C52	C	0.988179	-0.341184	0.341036
C53	C	1.321512	-0.007850	0.674369
C54	C	1.654845	0.325483	1.007702
C55	C	0.895513	-0.337640	0.337500
C56	C	1.228846	-0.004307	0.670833
C57	C	1.562180	0.329027	1.004166
C58	C	0.725852	-0.331156	0.331050
C59	C	1.059185	0.002177	0.664383
C60	C	1.392518	0.335510	0.997716
C61	C	0.684562	-0.367893	0.367668
C62	C	1.017895	-0.034560	0.701001
C63	C	1.351228	0.298773	1.034335
C64	C	0.590156	-0.364286	0.364079
C65	C	0.923490	-0.030952	0.697412
C66	C	1.256823	0.302381	1.030746
C67	C	0.820266	-0.334763	0.334638
C68	C	1.153599	-0.001430	0.667971
C69	C	1.486932	0.331904	1.001304
C70	C	1.204677	-0.513049	0.349297
C71	C	1.538010	-0.179716	0.682630
C72	C	1.871344	0.153618	1.015963
C73	C	1.204707	-0.583018	0.349304
C74	C	1.538040	-0.249685	0.682637
C75	C	1.871373	0.083648	1.015971
C76	C	1.258059	-0.617916	0.311128
C77	C	1.591393	-0.284583	0.644462
C78	C	1.924726	0.048750	0.977795
C79	C	1.258098	-0.683660	0.311144
C80	C	1.591432	-0.350327	0.644477
C81	C	1.924765	-0.016994	0.977811
C82	C	1.204770	-0.714503	0.349328
C83	C	1.538103	-0.381170	0.682661
C84	C	1.871437	-0.047837	1.015995
C85	C	1.151413	-0.679597	0.387512
C86	C	1.484747	-0.346264	0.720845
C87	C	1.818080	-0.012931	1.054178
C88	C	1.151382	-0.613855	0.387499
C89	C	1.484715	-0.280521	0.720833
C90	C	1.818049	0.052812	1.054166
N91	N	1.131839	-0.814973	0.351332
N92	N	1.465172	-0.481640	0.684666
N93	N	1.798506	-0.148307	1.017999
N94	N	1.131872	-0.877426	0.351340
N95	N	1.465205	-0.544093	0.684674
N96	N	1.798538	-0.210759	1.018007
C97	C	1.204863	-0.912581	0.349368
C98	C	1.538197	-0.579248	0.682701
C99	C	1.871530	-0.245915	1.016034
N100	N	1.277823	-0.882925	0.347375
N101	N	1.611156	-0.549592	0.680708
N102	N	1.944490	-0.216258	1.014042
N103	N	1.277790	-0.820467	0.347364
N104	N	1.611123	-0.487133	0.680697
N105	N	1.944456	-0.153800	1.014030
C106	C	1.204799	-0.785790	0.349346
C107	C	1.538132	-0.452456	0.682679
C108	C	1.871465	-0.119123	1.016012
C109	C	1.258263	-1.018767	0.311207
C110	C	1.591596	-0.685433	0.644540
C111	C	1.924929	-0.352100	0.977874
C112	C	1.258303	-1.084512	0.311227
C113	C	1.591637	-0.751179	0.644561
C114	C	1.924970	-0.417845	0.977894
C115	C	1.151611	-1.080447	0.387591
C116	C	1.484944	-0.747114	0.720925
C117	C	1.818278	-0.413781	1.054258
C118	C	1.151578	-1.014704	0.387575
C119	C	1.484911	-0.681370	0.720908
C120	C	1.818245	-0.348037	1.054241
C121	C	1.204903	-0.983867	0.349379
C122	C	1.538236	-0.650534	0.682713
C123	C	1.871569	-0.317201	1.016046
C124	C	1.422240	-0.357853	0.357669
C125	C	1.755573	-0.024519	0.691002
C126	C	2.088907	0.308814	1.024335
C127	C	1.514906	-0.361411	0.361220
C128	C	1.848239	-0.028078	0.694553
C129	C	2.181572	0.305255	1.027886
C130	C	1.204856	-0.349491	0.513529
C131	C	1.538189	-0.016158	0.846862
C132	C	1.871522	0.317176	1.180195
C133	C	1.204885	-0.349486	0.583498
C134	C	1.538218	-0.016153	0.916831
C135	C	1.871552	0.317180	1.250165
C136	C	1.204919	-0.185316	0.349390
C137	C	1.538252	0.148017	0.682723
C138	C	1.871585	0.481350	1.016056
C139	C	1.204975	-0.115350	0.349413
C140	C	1.538309	0.217983	0.682746
C141	C	1.871642	0.551316	1.016079
C142	C	1.204765	-0.349469	0.185783
C143	C	1.538099	-0.016135	0.519117
C144	C	1.871432	0.317198	0.852450
C145	C	1.204898	-0.349302	0.115821
C146	C	1.538231	-0.015969	0.449154
C147	C	1.871564	0.317365	0.782487
C148	C	1.258237	-0.311272	0.618422
C149	C	1.591571	0.022061	0.951755
C150	C	1.924904	0.355395	1.285089
C151	C	1.258236	-0.311245	0.684165
C152	C	1.591570	0.022089	1.017498
C153	C	1.924903	0.355422	1.350831
C154	C	1.204892	-0.349443	0.714981
C155	C	1.538225	-0.016110	1.048314
C156	C	1.871558	0.317223	1.381648
C157	C	1.151529	-0.387660	0.680048
C158	C	1.484862	-0.054327	1.013382
C159	C	1.818195	0.279007	1.346715
C160	C	1.151526	-0.387682	0.614307
C161	C	1.484859	-0.054348	0.947640
C162	C	1.818192	0.278985	1.280974
N163	N	1.198459	-0.404264	0.817950
N164	N	1.531793	-0.070931	1.151284
N165	N	1.865126	0.262402	1.484617
N166	N	1.198467	-0.404242	0.880402
N167	N	1.531801	-0.070909	1.213735
N168	N	1.865134	0.262424	1.547069
C169	C	1.204897	-0.349380	0.913056
C170	C	1.538230	-0.016046	1.246389
C171	C	1.871563	0.317287	1.579723
N172	N	1.211334	-0.294539	0.880899
N173	N	1.544668	0.038794	1.214233
N174	N	1.878001	0.372127	1.547566
N175	N	1.211331	-0.294562	0.818442
N176	N	1.544664	0.038771	1.151775
N177	N	1.877997	0.372104	1.485109
C178	C	1.204889	-0.349424	0.786266
C179	C	1.538222	-0.016091	1.119599
C180	C	1.871555	0.317243	1.452933
C181	C	1.258251	-0.311132	1.019266
C182	C	1.591584	0.022201	1.352599
C183	C	1.924918	0.355534	1.685932
C184	C	1.258244	-0.311104	1.085009
C185	C	1.591577	0.022229	1.418342
C186	C	1.924911	0.355563	1.751676
C187	C	1.151541	-0.387525	1.080892
C188	C	1.484874	-0.054192	1.414225
C189	C	1.818207	0.279142	1.747558
C190	C	1.151543	-0.387548	1.015149
C191	C	1.484877	-0.054214	1.348483
C192	C	1.818210	0.279119	1.681816
C193	C	1.204903	-0.349353	0.984340
C194	C	1.538236	-0.016019	1.317674
C195	C	1.871569	0.317314	1.651007
H196	H	0.690303	-0.296998	0.297006
H197	H	1.023636	0.036335	0.630340
H198	H	1.356969	0.369668	0.963673
H199	H	1.301481	-0.592811	0.280029
H200	H	1.634815	-0.259478	0.613362
H201	H	1.968148	0.073855	0.946696
Br202	Br	1.079132	-0.439359	1.122706
Br203	Br	1.412465	-0.106025	1.456039
Br204	Br	1.745799	0.227308	1.789373
Br205	Br	0.743811	-0.424826	0.424420
Br206	Br	1.077145	-0.091492	0.757753
Br207	Br	1.410478	0.241841	1.091086
H208	H	1.301686	-0.280170	0.593342
H209	H	1.635019	0.053164	0.926675
H210	H	1.968353	0.386497	1.260008
Br211	Br	1.330627	-0.976913	0.259370
Br212	Br	1.663961	-0.643580	0.592703
Br213	Br	1.997294	-0.310247	0.926036
H214	H	1.108076	-0.418799	0.585872
H215	H	1.441409	-0.085466	0.919205
H216	H	1.774742	0.247867	1.252538
H217	H	1.301547	-0.712080	0.280057
H218	H	1.634881	-0.378746	0.613390
H219	H	1.968214	-0.045413	0.946724
H220	H	1.108194	-1.105559	0.418684
H221	H	1.441527	-0.772226	0.752018
H222	H	1.774860	-0.438893	1.085351
Br223	Br	1.079045	-0.721454	0.439339
Br224	Br	1.412378	-0.388120	0.772672
Br225	Br	1.745712	-0.054787	1.106005
H226	H	1.107935	-0.585440	0.418587
H227	H	1.441268	-0.252107	0.751921
H228	H	1.774602	0.081227	1.085254
Br229	Br	1.079165	-0.967339	0.439386
Br230	Br	1.412498	-0.634005	0.772719
Br231	Br	1.745831	-0.300672	1.106053
H232	H	1.301755	-1.112925	0.280141
H233	H	1.635088	-0.779592	0.613475
H234	H	1.968421	-0.446259	0.946808
Br235	Br	1.330628	-0.259362	0.731571
Br236	Br	1.663961	0.073971	1.064904
Br237	Br	1.997294	0.407304	1.398238
H238	H	1.108092	-0.418760	0.705143
H239	H	1.441426	-0.085426	1.038476
H240	H	1.774759	0.247907	1.371810
H241	H	1.301695	-0.280028	0.994179
H242	H	1.635028	0.053305	1.327513
H243	H	1.968361	0.386639	1.660846
H244	H	1.301689	-0.279981	1.113443
H245	H	1.635022	0.053352	1.446777
H246	H	1.968355	0.386685	1.780110
Br247	Br	1.079134	-0.439414	0.967749
Br248	Br	1.412467	-0.106081	1.301082
Br249	Br	1.745800	0.227252	1.634416
