data_functionalizedCrystal
_audit_creation_method	'MofGen! by Chris Wilmer'
_symmetry_space_group_name_H-M	'P1'
_symmetry_Int_Tables_number	1
_symmetry_cell_setting	triclinic
loop_
_symmetry_equiv_pos_as_xyz
  x,y,z
_cell_length_a	12.594517
_cell_length_b	12.594516
_cell_length_c	14.908854
_cell_angle_alpha	86.675285
_cell_angle_beta	93.287506
_cell_angle_gamma	90.007702
loop_
_atom_site_label
_atom_site_type_symbol
_atom_site_fract_x
_atom_site_fract_y
_atom_site_fract_z
Zn1	Zn	1.592569	-0.389119	-0.509896
Zn2	Zn	2.092569	0.110881	-0.009896
Zn3	Zn	1.602747	-0.577398	-0.359044
Zn4	Zn	2.102747	-0.077398	0.140956
Zn5	Zn	1.424845	-0.399419	-0.359075
Zn6	Zn	1.924845	0.100581	0.140925
Zn7	Zn	1.414569	-0.567044	-0.509882
Zn8	Zn	1.914569	-0.067044	-0.009882
O9	O	1.508682	-0.483245	-0.434474
O10	O	2.008682	0.016755	0.065526
O11	O	1.742865	-0.414117	-0.489878
O12	O	2.242865	0.085883	0.010122
O13	O	1.587709	-0.562432	-0.232803
O14	O	2.087709	-0.062432	0.267197
O15	O	1.447135	-0.249105	-0.379101
O16	O	1.947135	0.250895	0.120899
O17	O	1.750343	-0.552445	-0.379048
O18	O	2.250343	-0.052445	0.120952
O19	O	1.570360	-0.241538	-0.489908
O20	O	2.070360	0.258462	0.010092
O21	O	1.457005	-0.431671	-0.232826
O22	O	1.957005	0.068329	0.267174
O23	O	1.274536	-0.421632	-0.379087
O24	O	1.774536	0.078368	0.120913
O25	O	1.429620	-0.534799	-0.636129
O26	O	1.929620	-0.034799	-0.136129
O27	O	1.266986	-0.544786	-0.489884
O28	O	1.766986	-0.044786	0.010116
O29	O	1.560396	-0.404078	-0.636139
O30	O	2.060396	0.095922	-0.136139
O31	O	1.577744	-0.724971	-0.379034
O32	O	2.077744	-0.224971	0.120966
O33	O	1.439490	-0.717365	-0.489854
O34	O	1.939490	-0.217365	0.010146
C35	C	1.232140	-0.483204	-0.434488
C36	C	1.732140	0.016796	0.065512
C37	C	1.113833	-0.483210	-0.434515
C38	C	1.613833	0.016790	0.065485
C39	C	1.040512	-0.550341	-0.494661
C40	C	1.540512	-0.050341	0.005339
C41	C	0.968186	-0.451785	-0.516849
C42	C	1.468186	0.048215	-0.016849
C43	C	0.975363	-0.581848	-0.412307
C44	C	1.475363	-0.081848	0.087693
C45	C	1.043062	-0.384599	-0.456746
C46	C	1.543062	0.115401	0.043254
C47	C	1.050247	-0.514731	-0.352166
C48	C	1.550247	-0.014731	0.147834
C49	C	0.977955	-0.416110	-0.374323
C50	C	1.477955	0.083890	0.125677
C51	C	1.508634	-0.759787	-0.434458
C52	C	2.008634	-0.259787	0.065542
C53	C	1.508709	-0.878091	-0.434482
C54	C	2.008709	-0.378091	0.065518
C55	C	1.583983	-0.951438	-0.374271
C56	C	2.083983	-0.451438	0.125729
C57	C	1.604386	-1.016532	-0.456610
C58	C	2.104386	-0.516532	0.043390
C59	C	1.488436	-1.023792	-0.352195
C60	C	1.988436	-0.523792	0.147805
C61	C	1.529158	-0.941623	-0.516864
C62	C	2.029158	-0.441623	-0.016864
C63	C	1.413167	-0.948881	-0.412393
C64	C	1.913167	-0.448881	0.087607
C65	C	1.433528	-1.013939	-0.494789
C66	C	1.933528	-0.513939	0.005211
C67	C	1.786304	-0.483287	-0.434461
C68	C	2.286304	0.016713	0.065539
C69	C	1.904610	-0.483305	-0.434455
C70	C	2.404610	0.016695	0.065545
C71	C	1.492726	-0.467135	-0.669783
C72	C	1.992726	0.032865	-0.169783
C73	C	1.485927	-0.460269	-0.770058
C74	C	1.985927	0.039731	-0.270058
C75	C	1.508758	-0.205622	-0.434510
C76	C	2.008758	0.294378	0.065490
C77	C	1.508791	-0.087315	-0.434525
C78	C	2.008791	0.412685	0.065475
C79	C	1.609277	-0.583526	-0.958462
C80	C	2.109277	-0.083526	-0.458462
C81	C	1.602891	-0.577079	-1.052679
C82	C	2.102891	-0.077079	-0.552679
C83	C	1.466777	-0.440923	-1.052710
C84	C	1.966777	0.059077	-0.552710
C85	C	1.473163	-0.447370	-0.958493
C86	C	1.973163	0.052630	-0.458493
C87	C	1.544413	-0.518675	-0.911373
C88	C	2.044413	-0.018675	-0.411373
C89	C	1.550793	-0.525127	-0.817154
C90	C	2.050793	-0.025127	-0.317154
C91	C	1.414685	-0.388966	-0.817187
C92	C	1.914685	0.111034	-0.317187
C93	C	1.408300	-0.382519	-0.911404
C94	C	1.908300	0.117481	-0.411404
C95	C	1.524638	-0.499216	-0.200081
C96	C	2.024638	0.000784	0.299919
C97	C	1.531643	-0.505781	-0.099807
C98	C	2.031643	-0.005781	0.400193
H99	H	1.068113	-0.606990	-0.545590
H100	H	1.568113	-0.106990	-0.045590
H101	H	1.332360	-0.919093	-0.393662
H102	H	1.832360	-0.419093	0.106338
Br103	Br	0.932274	-0.321448	-0.289502
Br104	Br	1.432274	0.178552	0.210498
Br105	Br	1.370102	-0.344146	-1.116675
Br106	Br	1.870102	0.155854	-0.616675
H107	H	1.086130	-0.541385	-0.282571
H108	H	1.586130	-0.041385	0.217429
H109	H	1.361867	-0.336161	-0.778836
H110	H	1.861867	0.163839	-0.278836
H111	H	1.647647	-0.923854	-0.323399
H112	H	2.147647	-0.423854	0.176601
H113	H	1.608814	-0.583183	-0.778790
H114	H	2.108814	-0.083183	-0.278790
H115	H	0.932325	-0.425158	-0.586464
H116	H	1.432325	0.074842	-0.086464
H117	H	1.685218	-1.046299	-0.475317
H118	H	2.185218	-0.546299	0.024683
Br119	Br	1.557967	-0.882003	-0.632912
Br120	Br	2.057967	-0.382003	-0.132912
Br121	Br	1.327479	-1.059578	-0.579780
Br122	Br	1.827479	-0.559578	-0.079780
H123	H	1.072716	-0.301193	-0.475583
H124	H	1.572716	0.198807	0.024417
Br125	Br	1.311612	-0.285748	-0.975361
Br126	Br	1.811612	0.214252	-0.475361
H127	H	1.667297	-0.641581	-0.920096
H128	H	2.167297	-0.141581	-0.420096
Br129	Br	0.925705	-0.720813	-0.381041
Br130	Br	1.425705	-0.220813	0.118959
Br131	Br	1.459799	-1.083644	-0.236182
Br132	Br	1.959799	-0.583644	0.263818
H133	H	1.655711	-0.629886	-1.091016
H134	H	2.155711	-0.129886	-0.591016
