data_functionalizedCrystal
_audit_creation_method	'MofGen! by Chris Wilmer'
_symmetry_space_group_name_H-M	'P1'
_symmetry_Int_Tables_number	1
_symmetry_cell_setting	triclinic
loop_
_symmetry_equiv_pos_as_xyz
  x,y,z
_cell_length_a	23.532407
_cell_length_b	23.532407
_cell_length_c	22.610064
_cell_angle_alpha	89.999397
_cell_angle_beta	89.997161
_cell_angle_gamma	82.848678
loop_
_atom_site_label
_atom_site_type_symbol
_atom_site_fract_x
_atom_site_fract_y
_atom_site_fract_z
O1	O	0.755263	0.069127	-0.049117
O2	O	1.255263	0.569127	0.450883
O3	O	0.589400	0.079130	-0.049135
O4	O	1.089400	0.579130	0.450865
O5	O	0.677333	-0.008803	-0.049114
O6	O	1.177333	0.491197	0.450886
O7	O	0.667330	0.157060	-0.049137
O8	O	1.167330	0.657060	0.450863
O9	O	0.677318	-0.008790	0.049255
O10	O	1.177318	0.491210	0.549255
O11	O	0.589385	0.079143	0.049234
O12	O	1.089385	0.579143	0.549234
O13	O	0.755248	0.069140	0.049252
O14	O	1.255248	0.569140	0.549252
Zn15	Zn	0.672314	0.074144	0.064862
Zn16	Zn	1.172314	0.574144	0.564862
Zn17	Zn	0.672334	0.074127	-0.064744
Zn18	Zn	1.172334	0.574127	0.435256
O19	O	0.667315	0.157073	0.049232
O20	O	1.167315	0.657073	0.549232
C21	C	0.568176	0.078882	0.000048
C22	C	1.068176	0.578882	0.500048
C23	C	0.504959	0.078116	0.000041
C24	C	1.004959	0.578116	0.500041
C25	C	0.105856	0.125350	0.000061
C26	C	0.605856	0.625350	0.500061
C27	C	0.046456	0.124638	0.000065
C28	C	0.546456	0.624638	0.500065
O29	O	0.009711	0.168424	0.000081
O30	O	0.509711	0.668424	0.500081
N31	N	0.023830	0.072362	0.000071
N32	N	0.523830	0.572362	0.500071
C33	C	0.060607	0.020794	0.000080
C34	C	0.560607	0.520794	0.500080
O35	O	0.035908	-0.023737	0.000086
O36	O	0.535908	0.476263	0.500086
C37	C	0.120006	0.021506	0.000080
C38	C	0.620006	0.521506	0.500080
C39	C	0.142629	0.073785	0.000068
C40	C	0.642629	0.573785	0.500068
C41	C	0.128479	0.177625	0.000050
C42	C	0.628479	0.677625	0.500050
C43	C	0.187876	0.178336	0.000045
C44	C	0.687876	0.678336	0.500045
C45	C	0.224649	0.126772	0.000052
C46	C	0.724649	0.626772	0.500052
C47	C	0.202025	0.074497	0.000063
C48	C	0.702025	0.574497	0.500063
C49	C	0.156783	-0.030062	0.000093
C50	C	0.656783	0.469938	0.500093
C51	C	0.216185	-0.029345	0.000094
C52	C	0.716185	0.470655	0.500094
C53	C	0.238808	0.022934	0.000082
C54	C	0.738808	0.522934	0.500082
C55	C	0.298194	0.023643	0.000065
C56	C	0.798194	0.523643	0.500065
N57	N	0.320820	0.075920	0.000059
N58	N	0.820820	0.575920	0.500059
C59	C	0.284048	0.127484	0.000052
C60	C	0.784048	0.627484	0.500052
C61	C	-0.064135	0.019302	0.000080
C62	C	0.435865	0.519302	0.500080
C63	C	-0.123533	0.018589	0.000075
C64	C	0.376467	0.518589	0.500075
C65	C	-0.137680	0.122434	0.000061
C66	C	0.362320	0.622434	0.500061
C67	C	-0.078281	0.123146	0.000062
C68	C	0.421719	0.623146	0.500062
C69	C	-0.041509	0.071578	0.000074
C70	C	0.458491	0.571578	0.500074
C71	C	0.408784	0.128974	0.000042
C72	C	0.908784	0.628974	0.500042
C73	C	0.468186	0.129680	0.000034
C74	C	0.968186	0.629680	0.500034
C75	C	0.482329	0.025836	0.000051
C76	C	0.982329	0.525836	0.500051
C77	C	0.422932	0.025129	0.000055
C78	C	0.922932	0.525129	0.500055
C79	C	0.386160	0.076702	0.000052
C80	C	0.886160	0.576702	0.500052
O81	O	0.334974	-0.020119	0.000052
O82	O	0.834974	0.479881	0.500052
O83	O	0.308755	0.172007	0.000054
O84	O	0.808755	0.672007	0.500054
C85	C	0.677071	-0.030013	0.000072
C86	C	1.177071	0.469987	0.500072
C87	C	0.676305	-0.093230	0.000076
C88	C	1.176305	0.406770	0.500076
C89	C	0.723539	-0.492333	0.000049
C90	C	1.223539	0.007667	0.500049
C91	C	0.722827	-0.551733	0.000044
C92	C	1.222827	-0.051733	0.500044
O93	O	0.766613	-0.588478	0.000027
O94	O	1.266613	-0.088478	0.500027
N95	N	0.670551	-0.574359	0.000039
N96	N	1.170551	-0.074359	0.500039
C97	C	0.618983	-0.537582	0.000032
C98	C	1.118983	-0.037582	0.500032
O99	O	0.574452	-0.562281	0.000027
O100	O	1.074452	-0.062281	0.500027
C101	C	0.619695	-0.478182	0.000033
C102	C	1.119695	0.021818	0.500033
C103	C	0.671974	-0.455560	0.000044
C104	C	1.171974	0.044440	0.500044
C105	C	0.775814	-0.469710	0.000060
C106	C	1.275814	0.030290	0.500060
C107	C	0.776525	-0.410313	0.000065
C108	C	1.276525	0.089687	0.500065
C109	C	0.724961	-0.373540	0.000060
C110	C	1.224961	0.126460	0.500060
C111	C	0.672685	-0.396164	0.000050
C112	C	1.172685	0.103836	0.500050
C113	C	0.568127	-0.441406	0.000022
C114	C	1.068127	0.058594	0.500022
C115	C	0.568844	-0.382004	0.000021
C116	C	1.068844	0.117996	0.500021
C117	C	0.621123	-0.359381	0.000033
C118	C	1.121123	0.140619	0.500033
C119	C	0.621832	-0.299995	0.000050
C120	C	1.121832	0.200005	0.500050
N121	N	0.674109	-0.277368	0.000056
N122	N	1.174109	0.222632	0.500056
C123	C	0.725673	-0.314141	0.000061
C124	C	1.225673	0.185859	0.500061
C125	C	0.617491	-0.662324	0.000031
C126	C	1.117491	-0.162324	0.500031
C127	C	0.616778	-0.721722	0.000034
C128	C	1.116778	-0.221722	0.500034
C129	C	0.720623	-0.735869	0.000045
C130	C	1.220623	-0.235869	0.500045
C131	C	0.721335	-0.676470	0.000046
C132	C	1.221335	-0.176470	0.500046
C133	C	0.669767	-0.639698	0.000036
C134	C	1.169767	-0.139698	0.500036
C135	C	0.727163	-0.189405	0.000073
C136	C	1.227163	0.310595	0.500073
C137	C	0.727869	-0.130003	0.000081
C138	C	1.227869	0.369997	0.500081
C139	C	0.624025	-0.115860	0.000067
C140	C	1.124025	0.384140	0.500067
C141	C	0.623318	-0.175257	0.000062
C142	C	1.123318	0.324743	0.500062
C143	C	0.674891	-0.212029	0.000063
C144	C	1.174891	0.287971	0.500063
O145	O	0.578070	-0.263215	0.000065
O146	O	1.078070	0.236785	0.500065
O147	O	0.770196	-0.289433	0.000058
O148	O	1.270196	0.210567	0.500058
C149	C	0.776472	0.069388	0.000069
C150	C	1.276472	0.569388	0.500069
C151	C	0.839689	0.070154	0.000071
C152	C	1.339689	0.570154	0.500071
C153	C	0.667577	0.178283	0.000045
C154	C	1.167577	0.678283	0.500045
C155	C	0.668343	0.241500	0.000036
C156	C	1.168343	0.741500	0.500036
N157	N	0.672304	0.074155	0.153314
N158	N	1.172304	0.574155	0.653314
N159	N	0.672349	0.074111	-0.153196
N160	N	1.172349	0.574111	0.346804
C161	C	0.711273	0.035196	0.561965
C162	C	1.211273	0.535196	1.061965
C163	C	0.711276	0.035192	0.623884
C164	C	1.211276	0.535192	1.123884
O165	O	0.744384	0.002076	0.655911
O166	O	1.244384	0.502076	1.155911
N167	N	0.672334	0.074115	0.654851
N168	N	1.172334	0.574115	1.154851
C169	C	0.633383	0.113041	0.623895
C170	C	1.133383	0.613041	1.123895
O171	O	0.600259	0.146147	0.655920
O172	O	1.100259	0.646147	1.155920
C173	C	0.633377	0.113042	0.561976
C174	C	1.133377	0.613042	1.061976
C175	C	0.672326	0.074120	0.531013
C176	C	1.172326	0.574120	1.031013
C177	C	0.750218	-0.003724	0.531001
C178	C	1.250218	0.496276	1.031001
C179	C	0.750215	-0.003719	0.469085
C180	C	1.250215	0.496281	0.969085
C181	C	0.711268	0.035206	0.438133
C182	C	1.211268	0.535206	0.938133
C183	C	0.672323	0.074125	0.469097
C184	C	1.172323	0.574125	0.969097
C185	C	0.594424	0.151965	0.531021
C186	C	1.094424	0.651965	1.031021
C187	C	0.594422	0.151962	0.469098
C188	C	1.094422	0.651962	0.969098
C189	C	0.633370	0.113040	0.438134
C190	C	1.133370	0.613040	0.938134
C191	C	0.633374	0.113054	0.376229
C192	C	1.133374	0.613054	0.876229
N193	N	0.672316	0.074131	0.345262
N194	N	1.172316	0.574131	0.845262
C195	C	0.711263	0.035207	0.376214
C196	C	1.211263	0.535207	0.876214
C197	C	0.633396	0.113035	0.753928
C198	C	1.133396	0.613035	1.253928
C199	C	0.633403	0.113037	0.815846
C200	C	1.133403	0.613037	1.315846
C201	C	0.711296	0.035187	0.815831
C202	C	1.211296	0.535187	1.315831
C203	C	0.711291	0.035188	0.753913
C204	C	1.211291	0.535188	1.253913
C205	C	0.672338	0.074112	0.722962
C206	C	1.172338	0.574112	1.222962
C207	C	0.711255	0.035220	0.246187
C208	C	1.211255	0.535220	0.746187
C209	C	0.711251	0.035230	0.184266
C210	C	1.211251	0.535230	0.684266
C211	C	0.633357	0.113078	0.184286
C212	C	1.133357	0.613078	0.684286
C213	C	0.633363	0.113071	0.246202
C214	C	1.133363	0.613071	0.746202
C215	C	0.672314	0.074137	0.277151
C216	C	1.172314	0.574137	0.777151
O217	O	0.600281	0.146152	0.344163
O218	O	1.100281	0.646152	0.844163
O219	O	0.744376	0.002101	0.344182
O220	O	1.244376	0.502101	0.844182
H221	H	0.512280	-0.016146	0.000054
H222	H	1.012280	0.483854	0.500054
H223	H	0.562709	0.183658	0.556223
H224	H	1.062709	0.683658	1.056223
Br225	Br	0.798825	-0.099305	0.000097
Br226	Br	1.298825	0.400695	0.500097
Br227	Br	0.580552	0.165871	0.857861
Br228	Br	1.080552	0.665871	1.357861
H229	H	0.601677	0.144736	0.728731
H230	H	1.101677	0.644736	1.228731
H231	H	-0.059867	0.165717	0.000055
H232	H	0.440133	0.665717	0.500055
H233	H	0.743005	0.003494	0.728706
H234	H	1.243005	0.503494	1.228706
Br235	Br	0.790604	-0.785787	0.000050
Br236	Br	1.290604	-0.285787	0.500050
Br237	Br	0.392228	-0.045822	0.000074
Br238	Br	0.892228	0.454178	0.500074
Br239	Br	0.803080	-0.056557	0.572997
Br240	Br	1.303080	0.443443	1.072997
Br241	Br	0.541551	0.204788	0.427097
Br242	Br	1.041551	0.704788	0.927097
H243	H	0.582043	-0.085909	0.000065
H244	H	1.082043	0.414091	0.500065
Br245	Br	0.764115	-0.017593	0.142247
Br246	Br	1.264115	0.482407	0.642247
Br247	Br	0.358890	0.198967	0.000039
Br248	Br	0.858890	0.698967	0.500039
Br249	Br	-0.154227	-0.052364	0.000074
Br250	Br	0.345773	0.447636	0.500074
Br251	Br	-0.014235	-0.050690	0.000090
Br252	Br	0.485765	0.449310	0.500090
H253	H	0.742973	0.003516	0.271379
H254	H	1.242973	0.503516	0.771379
Br255	Br	0.797156	-0.239299	0.000074
Br256	Br	1.297156	0.260701	0.500074
H257	H	-0.167632	0.164421	0.000059
H258	H	0.332368	0.664421	0.500059
Br259	Br	0.803072	-0.056546	0.427070
Br260	Br	1.303072	0.443454	0.927070
H261	H	0.601653	0.144770	0.271413
H262	H	1.101653	0.644770	0.771413
Br263	Br	0.580503	0.165904	0.142270
Br264	Br	1.080503	0.665904	0.642270
H265	H	0.486602	0.172255	0.000024
H266	H	0.986602	0.672255	0.500024
Br267	Br	0.764153	-0.017639	0.857851
Br268	Br	1.264153	0.482361	1.357851
Br269	Br	0.078583	0.247615	0.000041
Br270	Br	0.578583	0.747615	0.500041
Br271	Br	0.218568	0.249291	0.000031
Br272	Br	0.718568	0.749291	0.500031
H273	H	0.138375	-0.072634	0.000103
H274	H	0.638375	0.427366	0.500103
Br275	Br	0.847480	-0.379621	0.000064
Br276	Br	1.347480	0.120379	0.500064
Br277	Br	0.845804	-0.519606	0.000066
Br278	Br	1.345804	-0.019606	0.500066
H279	H	0.574207	-0.740136	0.000035
H280	H	1.074207	-0.240136	0.500035
H281	H	0.246123	-0.071339	0.000104
H282	H	0.746123	0.428661	0.500104
H283	H	0.575496	-0.632386	0.000028
H284	H	1.075496	-0.132386	0.500028
Br285	Br	0.792288	-0.645775	0.000062
Br286	Br	1.292288	-0.145775	0.500062
Br287	Br	0.497171	-0.472092	0.000004
Br288	Br	0.997171	0.027908	0.500004
Br289	Br	0.498854	-0.332101	0.000005
Br290	Br	0.998854	0.167899	0.500005
Br291	Br	0.552367	-0.205961	0.000060
Br292	Br	1.052367	0.294039	0.500060
