data_functionalizedCrystal
_audit_creation_method	'MofGen! by Chris Wilmer'
_symmetry_space_group_name_H-M	'P1'
_symmetry_Int_Tables_number	1
_symmetry_cell_setting	triclinic
loop_
_symmetry_equiv_pos_as_xyz
  x,y,z
_cell_length_a	21.395362
_cell_length_b	16.959454
_cell_length_c	21.395355
_cell_angle_alpha	89.987004
_cell_angle_beta	89.956060
_cell_angle_gamma	90.035955
loop_
_atom_site_label
_atom_site_type_symbol
_atom_site_fract_x
_atom_site_fract_y
_atom_site_fract_z
Zn1	Zn	0.957906	-0.314438	-0.354610
Zn2	Zn	0.957828	-0.446599	-0.249842
Zn3	Zn	0.853121	-0.314475	-0.249811
Zn4	Zn	0.853109	-0.446615	-0.354547
O5	O	0.905491	-0.380532	-0.302202
O6	O	1.045573	-0.331947	-0.340751
O7	O	0.943910	-0.429081	-0.162160
O8	O	0.867058	-0.203859	-0.263726
O9	O	1.045516	-0.429045	-0.263779
O10	O	0.944043	-0.203832	-0.340721
O11	O	0.866982	-0.332010	-0.162137
O12	O	0.765441	-0.332026	-0.263665
O13	O	0.867039	-0.429073	-0.442233
O14	O	0.765433	-0.429109	-0.340614
O15	O	0.944032	-0.331963	-0.442279
O16	O	0.943899	-0.557212	-0.263718
O17	O	0.866963	-0.557224	-0.340645
C18	C	0.742703	-0.380574	-0.302130
C19	C	0.673062	-0.380610	-0.302114
C20	C	0.905438	-0.585898	-0.302192
C21	C	0.905473	-0.673755	-0.302208
C22	C	0.640361	-0.431228	-0.342121
C23	C	0.574925	-0.431209	-0.342149
C24	C	0.542194	-0.380580	-0.302158
C25	C	0.574903	-0.329952	-0.262148
C26	C	0.640337	-0.329967	-0.262126
C27	C	0.438468	-0.374212	-0.245752
C28	C	0.373035	-0.374203	-0.245774
C29	C	0.340373	-0.380528	-0.302227
C30	C	0.373152	-0.386881	-0.358661
C31	C	0.438586	-0.386896	-0.358639
C32	C	0.471241	-0.380557	-0.302178
C33	C	0.236719	-0.431128	-0.342268
C34	C	0.171283	-0.431103	-0.342297
C35	C	0.171261	-0.329850	-0.262291
C36	C	0.236697	-0.329871	-0.262267
C37	C	0.269422	-0.380514	-0.302255
C38	C	0.865488	-1.045266	-0.342254
C39	C	0.945668	-1.045194	-0.262215
C40	C	0.945646	-0.962648	-0.262209
C41	C	0.905544	-0.921407	-0.302226
C42	C	0.865464	-0.962713	-0.342248
C43	C	0.985721	-0.921337	-0.222184
C44	C	0.985700	-0.838786	-0.222176
C45	C	0.945601	-0.797544	-0.262196
C46	C	0.905520	-0.838854	-0.302220
C47	C	0.865418	-0.797613	-0.342236
C48	C	0.825339	-0.838922	-0.382264
C49	C	0.825365	-0.921471	-0.382268
C50	C	0.945575	-0.714995	-0.262192
C51	C	0.865393	-0.715060	-0.342230
C52	C	1.068914	-0.380490	-0.302276
C53	C	1.138555	-0.380473	-0.302307
C54	C	0.905543	-0.380516	-0.465626
C55	C	0.905565	-0.380509	-0.535267
C56	C	0.905561	-0.174363	-0.302227
C57	C	0.905590	-0.086507	-0.302237
C58	C	0.945654	-0.329942	-0.568005
C59	C	0.945653	-0.329908	-0.633441
C60	C	0.905570	-0.380455	-0.666135
C61	C	0.865473	-0.431026	-0.633389
C62	C	0.865471	-0.431053	-0.567955
C63	C	0.900604	-0.451628	-0.769805
C64	C	0.900611	-0.451602	-0.835238
C65	C	0.905574	-0.380371	-0.867956
C66	C	0.910543	-0.309164	-0.835234
C67	C	0.910540	-0.309191	-0.769800
C68	C	0.905568	-0.380431	-0.737088
C69	C	0.945664	-0.329763	-0.971647
C70	C	0.945659	-0.329728	-1.037084
C71	C	0.865482	-0.430853	-1.037031
C72	C	0.865484	-0.430881	-0.971596
C73	C	0.905578	-0.380337	-0.938908
C74	C	0.905475	-0.380491	-0.139415
C75	C	0.905574	-0.380275	-0.069774
H76	H	0.667002	-0.472465	-0.374683
H77	H	0.978297	-0.288725	-0.660101
F78	F	0.895328	-0.527387	-0.870057
H79	H	0.465056	-0.369058	-0.199778
H80	H	0.832859	-1.078904	-0.374845
H81	H	0.914584	-0.251211	-0.743160
H82	H	0.263322	-0.288656	-0.229686
H83	H	0.144659	-0.472321	-0.374880
H84	H	0.832823	-0.472230	-0.541300
F85	F	0.782658	-0.795022	-0.424848
H86	H	0.978303	-0.288545	-1.063738
F87	F	0.895337	-0.527449	-0.734990
H88	H	0.832739	-0.681487	-0.374819
F89	F	0.782713	-0.965440	-0.424863
F90	F	0.988344	-1.089087	-0.219629
H91	H	0.346351	-0.369035	-0.199822
H92	H	0.832835	-0.472179	-0.660014
H93	H	0.914585	-0.251161	-0.861872
F94	F	0.473469	-0.393653	-0.418699
H95	H	0.978307	-0.288603	-0.945031
F96	F	0.338396	-0.393610	-0.418749
F97	F	0.540115	-0.485086	-0.384732
H98	H	1.018365	-0.954921	-0.189600
H99	H	0.832839	-0.472002	-1.063651
H100	H	1.018335	-0.805157	-0.189584
H101	H	0.548248	-0.288728	-0.229588
H102	H	0.144612	-0.288624	-0.229733
F103	F	0.271550	-0.485022	-0.384829
F104	F	0.675141	-0.276090	-0.219543
F105	F	0.822818	-0.484705	-0.936752
H106	H	0.978204	-0.681365	-0.229599
H107	H	0.978301	-0.288784	-0.541395
