data_functionalizedCrystal
_audit_creation_method	'MofGen! by Chris Wilmer'
_symmetry_space_group_name_H-M	'P1'
_symmetry_Int_Tables_number	1
_symmetry_cell_setting	triclinic
loop_
_symmetry_equiv_pos_as_xyz
  x,y,z
_cell_length_a	21.295420
_cell_length_b	21.295417
_cell_length_c	12.594509
_cell_angle_alpha	89.967280
_cell_angle_beta	90.021167
_cell_angle_gamma	89.973890
loop_
_atom_site_label
_atom_site_type_symbol
_atom_site_fract_x
_atom_site_fract_y
_atom_site_fract_z
Zn1	Zn	0.962345	0.250620	0.601822
Zn2	Zn	0.962259	0.355898	0.423830
Zn3	Zn	0.857075	0.250644	0.423852
Zn4	Zn	0.857043	0.355852	0.601760
O5	O	0.909680	0.303253	0.512816
O6	O	1.050423	0.264594	0.578228
O7	O	0.948283	0.341966	0.274887
O8	O	0.871089	0.162551	0.447495
O9	O	1.050360	0.341942	0.447458
O10	O	0.948430	0.162533	0.578249
O11	O	0.871005	0.264635	0.274903
O12	O	0.768981	0.264590	0.447435
O13	O	0.871034	0.341863	0.750714
O14	O	0.768957	0.341886	0.578144
O15	O	0.948399	0.264549	0.750760
O16	O	0.948252	0.443981	0.447398
O17	O	0.870950	0.443947	0.578122
C18	C	0.746129	0.303236	0.512785
C19	C	0.676161	0.303244	0.512798
C20	C	0.176707	0.343575	0.580810
C21	C	0.242449	0.343576	0.580799
C22	C	0.275321	0.303268	0.512849
C23	C	0.242445	0.262968	0.444887
C24	C	0.176704	0.262973	0.444892
N25	N	0.378560	0.248151	0.504842
N26	N	0.441011	0.248148	0.504842
C27	C	0.473396	0.303250	0.512827
N28	N	0.440970	0.358356	0.520831
N29	N	0.378513	0.358359	0.520836
C30	C	0.346606	0.303258	0.512835
C31	C	0.577550	0.343551	0.580768
C32	C	0.643293	0.343552	0.580749
C33	C	0.643288	0.262938	0.444843
C34	C	0.577545	0.262943	0.444856
C35	C	0.544680	0.303248	0.512824
C36	C	0.909605	0.466805	0.512774
C37	C	0.909631	0.536773	0.512792
C38	C	0.950077	1.036228	0.444959
C39	C	0.950053	0.970485	0.444930
C40	C	0.909764	0.937612	0.512925
C41	C	0.869483	0.970487	0.580934
C42	C	0.869504	1.036229	0.580953
N43	N	0.904872	0.834355	0.606056
N44	N	0.904857	0.771904	0.606035
C45	C	0.909700	0.739538	0.512869
N46	N	0.914571	0.771982	0.419724
N47	N	0.914590	0.834439	0.419747
C48	C	0.909737	0.866327	0.512911
C49	C	0.949949	0.635385	0.444828
C50	C	0.949921	0.569641	0.444798
C51	C	0.869355	0.569645	0.580811
C52	C	0.869379	0.635387	0.580832
C53	C	0.909680	0.668253	0.512842
C54	C	1.073871	0.303271	0.512847
C55	C	1.143839	0.303278	0.512861
C56	C	0.909722	0.303198	0.790437
C57	C	0.909740	0.303175	0.908743
C58	C	0.909771	1.139063	0.512895
C59	C	0.909804	1.069095	0.512963
C60	C	0.909675	0.303263	0.236275
C61	C	0.909779	0.303109	0.117970
C62	C	0.867675	0.345202	0.977971
C63	C	0.925110	0.360584	1.048759
C64	C	0.852349	0.287754	1.048754
C65	C	0.967206	0.318587	0.977972
C66	C	0.894406	0.245731	0.977961
C67	C	0.951882	0.261091	1.048717
H68	H	0.550784	0.230126	0.389527
N69	N	1.028135	0.334974	0.939146
N70	N	1.057799	0.297386	0.881773
H71	H	1.100830	0.308959	0.854351
H72	H	0.982849	0.943720	0.389551
N73	N	0.676857	0.221756	0.375447
N74	N	0.669540	0.163675	0.382681
H75	H	0.693250	0.134589	0.333666
H76	H	0.938101	0.409135	1.079858
N77	N	0.828357	1.069805	0.650411
N78	N	0.770271	1.062514	0.643247
H79	H	0.741211	1.086228	0.692302
N80	N	0.543983	0.384733	0.650180
N81	N	0.551301	0.442813	0.642943
H82	H	0.527596	0.471900	0.691965
N83	N	0.991249	1.069789	0.375512
N84	N	1.027208	1.040430	0.314801
H85	H	1.056288	1.064133	0.265755
H86	H	0.982714	0.542881	0.389414
H87	H	0.832129	0.380798	0.946909
N88	N	0.991110	0.668952	0.375363
N89	N	1.027058	0.639595	0.314633
H90	H	1.056126	0.663300	0.265568
N91	N	0.676860	0.384726	0.650159
N92	N	0.647505	0.420708	0.710833
H93	H	0.671211	0.449789	0.759856
H94	H	0.836678	0.943719	0.636295
H95	H	0.836587	0.662148	0.636212
H96	H	0.836548	0.542880	0.636169
N97	N	0.276034	0.384746	0.650198
N98	N	0.268675	0.442829	0.642977
H99	H	0.292394	0.471905	0.691990
H100	H	0.987513	0.225522	1.079584
N101	N	0.878085	0.184841	0.938926
N102	N	0.825981	0.161388	0.961563
H103	H	0.814447	0.118383	0.933995
N104	N	0.791440	0.271427	1.087739
N105	N	0.747826	0.260255	1.024053
H106	H	0.704806	0.248729	1.051581
N107	N	0.143147	0.384748	0.650243
N108	N	0.172507	0.420726	0.710908
H109	H	0.148804	0.449805	0.759946
N110	N	0.276031	0.221793	0.375496
N111	N	0.312738	0.181704	0.413066
H112	H	0.336459	0.152624	0.364055
N113	N	0.143136	0.221806	0.375471
N114	N	0.172490	0.185823	0.314798
H115	H	0.148782	0.156747	0.265768
