data_functionalizedCrystal
_audit_creation_method	'MofGen! by Chris Wilmer'
_symmetry_space_group_name_H-M	'P1'
_symmetry_Int_Tables_number	1
_symmetry_cell_setting	triclinic
loop_
_symmetry_equiv_pos_as_xyz
  x,y,z
_cell_length_a	21.295419
_cell_length_b	21.295417
_cell_length_c	21.295411
_cell_angle_alpha	89.978356
_cell_angle_beta	90.024539
_cell_angle_gamma	89.954692
loop_
_atom_site_label
_atom_site_type_symbol
_atom_site_fract_x
_atom_site_fract_y
_atom_site_fract_z
Zn1	Zn	0.962356	0.250432	0.355911
Zn2	Zn	0.962258	0.355684	0.250637
Zn3	Zn	0.857079	0.250460	0.250656
Zn4	Zn	0.857048	0.355695	0.355868
O5	O	0.909685	0.303068	0.303268
O6	O	1.050432	0.264378	0.341956
O7	O	0.948278	0.341733	0.162550
O8	O	0.871098	0.162367	0.264645
O9	O	1.050360	0.341706	0.264611
O10	O	0.948444	0.162347	0.341975
O11	O	0.871003	0.264425	0.162564
O12	O	0.768985	0.264436	0.264603
O13	O	0.871045	0.341724	0.443963
O14	O	0.768963	0.341751	0.341902
O15	O	0.948414	0.264388	0.443995
O16	O	0.948248	0.443775	0.264570
O17	O	0.870951	0.443783	0.341883
C18	C	0.746133	0.303098	0.303250
C19	C	0.676165	0.303126	0.303258
C20	C	0.643358	0.262927	0.343593
C21	C	0.577616	0.262910	0.343596
C22	C	0.544683	0.303104	0.303269
C23	C	0.577498	0.343305	0.262926
C24	C	0.643239	0.343317	0.262920
N25	N	0.441407	0.358181	0.298349
N26	N	0.378956	0.358168	0.298359
C27	C	0.346608	0.303071	0.303283
N28	N	0.379071	0.247985	0.308210
N29	N	0.441528	0.247999	0.308205
C30	C	0.473397	0.303095	0.303271
C31	C	0.242516	0.262850	0.343624
C32	C	0.176772	0.262832	0.343622
C33	C	0.176655	0.343233	0.262955
C34	C	0.242397	0.343245	0.262953
C35	C	0.275324	0.303055	0.303291
C36	C	0.909603	0.466619	0.303233
C37	C	0.909625	0.536588	0.303239
C38	C	0.909737	0.303055	0.467458
C39	C	0.909760	0.303049	0.537426
C40	C	1.073875	0.303038	0.303286
C41	C	1.143843	0.303025	0.303294
C42	C	0.909785	0.138878	0.303317
C43	C	0.909828	0.068909	0.303338
C44	C	0.949909	0.569429	0.263024
C45	C	0.949939	0.635172	0.263038
C46	C	0.909673	0.668070	0.303261
C47	C	0.869385	0.635220	0.343485
C48	C	0.869361	0.569479	0.343474
N49	N	0.854606	0.771351	0.308054
N50	N	0.854630	0.833802	0.308061
C51	C	0.909743	0.866145	0.303297
N52	N	0.964832	0.833676	0.298514
N53	N	0.964807	0.771219	0.298504
C54	C	0.909694	0.739355	0.303278
C55	C	0.950063	0.970272	0.263095
C56	C	0.950093	1.036016	0.263113
C57	C	0.869534	1.036063	0.343557
C58	C	0.869510	0.970321	0.343541
C59	C	0.909773	0.937429	0.303307
C60	C	0.909669	0.303036	0.139716
C61	C	0.909769	0.302864	0.069749
C62	C	0.950044	0.262778	0.570311
C63	C	0.950043	0.262751	0.636053
C64	C	0.909764	0.303006	0.668909
C65	C	0.869472	0.343279	0.636017
C66	C	0.869470	0.343301	0.570276
N67	N	0.904908	0.358075	0.772124
N68	N	0.904914	0.358052	0.834576
C69	C	0.909768	0.302942	0.866984
N70	N	0.914629	0.247853	0.834581
N71	N	0.914626	0.247876	0.772124
C72	C	0.909762	0.302986	0.740194
C73	C	0.950054	0.262638	0.971154
C74	C	0.950049	0.262610	1.036897
C75	C	0.869481	0.343143	1.036860
C76	C	0.869483	0.343166	0.971118
C77	C	0.909773	0.302914	0.938268
H78	H	0.269109	0.375982	0.230110
H79	H	0.982696	0.542651	0.230264
C80	C	0.679327	0.387543	0.218548
N81	N	0.706510	0.420857	0.185129
C82	C	0.541270	0.387518	0.218567
N83	N	0.513983	0.420820	0.185153
C84	C	0.994364	0.218452	0.672233
N85	N	1.027749	0.185088	0.699482
C86	C	0.679574	0.218708	0.387958
N87	N	0.706852	0.185400	0.421372
C88	C	0.994362	0.934089	0.218846
N89	N	1.027731	0.906838	0.185519
H90	H	0.982745	0.661917	0.230289
C91	C	0.140432	0.387446	0.218594
N92	N	0.113146	0.420747	0.185180
H93	H	0.982902	1.062754	0.230366
H94	H	0.836752	1.062848	0.376310
C95	C	0.825090	0.671410	0.387728
N96	N	0.791726	0.698668	0.421054
C97	C	0.994367	0.218355	0.935017
N98	N	1.027743	0.185000	0.907801
C99	C	0.541521	0.218690	0.387974
N100	N	0.514336	0.185385	0.421401
H101	H	0.836703	0.943579	0.376286
C102	C	0.825051	0.533352	0.387724
N103	N	0.791679	0.506140	0.421057
H104	H	0.982850	0.230001	0.543569
H105	H	0.982852	0.229813	1.063670
H106	H	0.836675	0.376052	0.662773
H107	H	0.836679	0.375913	1.063611
C108	C	0.278737	0.218635	0.387990
N109	N	0.306017	0.185330	0.421406
H110	H	0.836683	0.375963	0.944343
C111	C	0.140685	0.218607	0.387996
N112	N	0.113503	0.185297	0.421420
C113	C	0.825154	0.387605	0.534102
N114	N	0.791775	0.420977	0.506855
