data_functionalizedCrystal
_audit_creation_method	'MofGen! by Chris Wilmer'
_symmetry_space_group_name_H-M	'P1'
_symmetry_Int_Tables_number	1
_symmetry_cell_setting	triclinic
loop_
_symmetry_equiv_pos_as_xyz
  x,y,z
_cell_length_a	19.188930
_cell_length_b	13.339070
_cell_length_c	12.376457
_cell_angle_alpha	75.601917
_cell_angle_beta	101.267846
_cell_angle_gamma	99.387037
loop_
_atom_site_label
_atom_site_type_symbol
_atom_site_fract_x
_atom_site_fract_y
_atom_site_fract_z
O1	O	-0.960520	-0.106678	-0.094379
O2	O	-0.760527	-0.123681	-0.094302
O3	O	-0.837571	0.031980	-0.094328
O4	O	-0.883477	-0.262339	-0.094352
O5	O	-0.818309	-0.006883	0.093691
O6	O	-0.741266	-0.162544	0.093717
O7	O	-0.941258	-0.145541	0.093640
Zn8	Zn	-0.838204	-0.160213	0.123530
Zn9	Zn	-0.863582	-0.109010	-0.124192
O10	O	-0.864215	-0.301202	0.093666
C11	C	-0.724777	-0.142565	-0.000283
C12	C	-0.646946	-0.140919	-0.000253
C13	C	-0.820186	0.050203	-0.000317
C14	C	-0.797072	0.162402	-0.000313
C15	C	-0.977009	-0.126657	-0.000382
C16	C	-1.054841	-0.128301	-0.000419
C17	C	-0.619911	-0.232248	-0.000278
C18	C	-0.546784	-0.230694	-0.000290
C19	C	-0.500698	-0.137802	-0.000300
C20	C	-0.527740	-0.046463	-0.000268
C21	C	-0.600864	-0.048021	-0.000245
N22	N	-0.385373	-0.053564	-0.064331
N23	N	-0.315909	-0.052089	-0.064356
C24	C	-0.280378	-0.133100	-0.000369
N25	N	-0.316939	-0.215654	0.063629
N26	N	-0.386410	-0.217131	0.063649
C27	C	-0.421406	-0.136101	-0.000325
C28	C	-0.174051	-0.222750	-0.000406
C29	C	-0.100923	-0.221193	-0.000411
C30	C	-0.081881	-0.036957	-0.000401
C31	C	-0.155007	-0.038519	-0.000384
C32	C	-0.201089	-0.131416	-0.000392
C33	C	-0.881600	-0.319425	-0.000347
C34	C	-0.904714	-0.431622	-0.000359
N35	N	-0.820889	-0.195156	0.292595
C36	C	-0.976793	0.528004	-0.000381
C37	C	-0.998510	0.422587	-0.000379
C38	C	-0.948153	0.357535	-0.000363
C39	C	-0.876074	0.397911	-0.000348
C40	C	-0.854353	0.503337	-0.000342
C41	C	-0.825713	0.332869	-0.000323
C42	C	-0.753634	0.373244	-0.000309
C43	C	-0.731917	0.478660	-0.000303
C44	C	-0.782275	0.543711	-0.000319
C45	C	-0.847434	0.227443	-0.000330
C46	C	-0.724994	0.202776	-0.000290
C47	C	-0.703276	0.308193	-0.000293
N48	N	-0.880901	-0.074058	-0.293257
C49	C	-0.921090	0.007078	0.647546
C50	C	-0.933205	0.031536	0.529202
C51	C	-0.905126	-0.025135	0.470044
C52	C	-0.864932	-0.106268	0.529242
C53	C	-0.852821	-0.130733	0.647598
C54	C	-0.836858	-0.162946	0.470096
C55	C	-0.796663	-0.244079	0.529294
C56	C	-0.784554	-0.268540	0.647638
C57	C	-0.812632	-0.211869	0.706796
C58	C	-0.848969	-0.138481	0.351740
C59	C	-0.780700	-0.276292	0.351793
C60	C	-0.768585	-0.300750	0.470136
H61	H	-0.657427	-0.307892	-0.000287
H62	H	-0.802766	-0.231779	0.803161
H63	H	-0.751832	-0.334610	0.695837
H64	H	-0.177019	0.035852	-0.000370
O65	O	-0.916930	-0.001209	0.355086
C66	C	-0.971803	0.109472	0.185224
C67	C	-0.958478	0.082493	0.315419
H68	H	-1.005408	0.177133	0.153114
H69	H	-0.918378	0.132596	0.153074
H70	H	-1.001532	0.038598	0.153099
H71	H	-0.928773	0.153326	0.347640
H72	H	-1.011926	0.059329	0.347492
O73	O	-0.729588	-0.379562	0.527822
C74	C	-0.680641	-0.478274	0.710173
C75	C	-0.724831	-0.389011	0.644986
H76	H	-0.676769	-0.485928	0.804911
H77	H	-0.707788	-0.554429	0.686977
H78	H	-0.624602	-0.460497	0.686878
H79	H	-0.780876	-0.406688	0.668246
H80	H	-0.697628	-0.312883	0.668187
H81	H	-0.965931	0.097592	0.481007
O82	O	-0.633225	0.347267	-0.000123
C83	C	-0.511953	0.338363	0.097349
C84	C	-0.591257	0.293999	0.097285
H85	H	-0.478001	0.295330	0.176107
H86	H	-0.494049	0.327774	0.018725
H87	H	-0.505106	0.424892	0.097293
H88	H	-0.598163	0.207461	0.097381
H89	H	-0.609123	0.304669	0.175902
O90	O	-1.068493	0.383276	-0.000201
C91	C	-1.154085	0.258395	0.097139
C92	C	-1.074802	0.302835	0.097094
H93	H	-1.159210	0.193335	0.175781
H94	H	-1.186379	0.322936	0.097197
H95	H	-1.175360	0.225967	0.018414
H96	H	-1.053462	0.335253	0.175806
H97	H	-1.042558	0.238258	0.096977
O98	O	-0.948312	0.062286	0.704891
C99	C	-0.951401	0.230684	0.741179
C100	C	-0.920532	0.168286	0.676140
H101	H	-0.928942	0.316393	0.717976
H102	H	-1.012219	0.222626	0.717858
H103	H	-0.935857	0.199204	0.835925
H104	H	-0.936023	0.199723	0.581379
H105	H	-0.859720	0.176344	0.699555
H106	H	-0.757838	-0.322441	0.303627
H107	H	-0.490213	0.029174	-0.000292
O108	O	-1.025791	0.591038	-0.000347
C109	C	-1.149531	0.604411	-0.000458
C110	C	-1.094107	0.532903	-0.000470
H111	H	-1.204779	0.557442	-0.000581
H112	H	-1.134408	0.638097	0.078249
H113	H	-1.150438	0.670661	-0.079122
H114	H	-1.093171	0.466599	0.078141
H115	H	-1.109250	0.499297	-0.079229
H116	H	-0.906121	0.194580	-0.000341
H117	H	-0.764596	0.629553	-0.000325
H118	H	-0.673225	0.511528	-0.000283
H119	H	-0.683988	0.149810	-0.000272
O120	O	-0.969174	0.255147	-0.000512
C121	C	-0.976770	0.117238	-0.097946
C122	C	-0.952913	0.233209	-0.097903
H123	H	-0.963647	0.099470	-0.176691
H124	H	-0.947450	0.066842	-0.019309
H125	H	-1.036931	0.099562	-0.097904
H126	H	-0.892762	0.250984	-0.097985
H127	H	-0.982285	0.283543	-0.176534
H128	H	-0.524767	-0.305067	-0.000308
H129	H	-0.881695	-0.072423	0.303552
H130	H	-0.622875	0.026352	-0.000225
H131	H	-0.211572	-0.298396	-0.000396
H132	H	-0.078912	-0.295569	-0.000425
O133	O	-0.037215	0.053357	-0.000359
C134	C	-0.026052	0.235940	-0.000410
C135	C	-0.076718	0.133723	-0.000438
H136	H	-0.057973	0.300947	-0.000499
H137	H	0.016729	0.225077	0.078285
H138	H	0.000594	0.257480	-0.079086
H139	H	-0.103414	0.112125	0.078184
H140	H	-0.119456	0.144641	-0.079185
