data_functionalizedCrystal
_audit_creation_method	'MofGen! by Chris Wilmer'
_symmetry_space_group_name_H-M	'P1'
_symmetry_Int_Tables_number	1
_symmetry_cell_setting	triclinic
loop_
_symmetry_equiv_pos_as_xyz
  x,y,z
_cell_length_a	29.839135
_cell_length_b	29.839131
_cell_length_c	16.625539
_cell_angle_alpha	90.032094
_cell_angle_beta	90.023821
_cell_angle_gamma	90.043950
loop_
_atom_site_label
_atom_site_type_symbol
_atom_site_fract_x
_atom_site_fract_y
_atom_site_fract_z
Zn1	Zn	0.686757	-0.178822	0.455958
Zn2	Zn	0.686678	-0.253953	0.321116
Zn3	Zn	0.611628	-0.178841	0.321131
Zn4	Zn	0.611587	-0.253929	0.455899
O5	O	0.649163	-0.216386	0.388526
O6	O	0.749613	-0.188790	0.438090
O7	O	0.676707	-0.244007	0.208286
O8	O	0.621645	-0.115972	0.339047
O9	O	0.749555	-0.243989	0.339022
O10	O	0.676841	-0.115958	0.438104
O11	O	0.621568	-0.188823	0.208297
O12	O	0.548756	-0.188800	0.338989
O13	O	0.621574	-0.243948	0.568739
O14	O	0.548726	-0.243967	0.438003
O15	O	0.676801	-0.188767	0.568783
O16	O	0.676667	-0.316817	0.338965
O17	O	0.621498	-0.316800	0.437988
C18	C	0.532440	-0.216383	0.388492
C19	C	0.482506	-0.216392	0.388496
C20	C	0.172889	-0.187688	0.440186
C21	C	-0.014784	-0.187691	0.440209
O22	O	-0.039025	-0.163276	0.484120
N23	N	-0.038280	-0.216387	0.388556
C24	C	-0.014854	-0.245082	0.336889
O25	O	-0.039145	-0.269486	0.292948
C26	C	0.172818	-0.245076	0.336862
C27	C	0.196311	-0.216382	0.388525
C28	C	0.196383	-0.158996	0.491845
C29	C	0.243298	-0.158997	0.491841
C30	C	0.266720	-0.187691	0.440180
C31	C	0.243227	-0.216383	0.388522
C32	C	0.196242	-0.273768	0.285192
C33	C	0.243163	-0.273763	0.285188
C34	C	0.266657	-0.245069	0.336851
C35	C	0.313564	-0.245078	0.336858
N36	N	0.337060	-0.216382	0.388511
C37	C	0.313638	-0.187689	0.440173
C38	C	-0.113385	-0.245083	0.336907
C39	C	-0.160303	-0.245085	0.336915
C40	C	-0.160229	-0.187694	0.440235
C41	C	-0.113310	-0.187695	0.440231
C42	C	-0.089889	-0.216388	0.388561
C43	C	0.412164	-0.187694	0.440163
C44	C	0.459083	-0.187699	0.440157
C45	C	0.459006	-0.245088	0.336835
C46	C	0.412090	-0.245085	0.336843
C47	C	0.388670	-0.216384	0.388509
O48	O	0.337835	-0.269477	0.292963
O49	O	0.337937	-0.163281	0.484094
C50	C	0.125974	-0.187687	0.440190
C51	C	0.102480	-0.216379	0.388531
C52	C	0.125902	-0.245073	0.336870
C53	C	0.055563	-0.216381	0.388539
C54	C	0.032141	-0.187688	0.440200
C55	C	0.055636	-0.158992	0.491854
C56	C	0.102552	-0.158993	0.491851
C57	C	0.102407	-0.273768	0.285216
C58	C	0.055491	-0.273765	0.285224
C59	C	0.032069	-0.245072	0.336886
C60	C	0.649081	-0.333109	0.388486
C61	C	0.649088	-0.383043	0.388496
C62	C	0.677941	-0.692683	0.337040
C63	C	0.677997	-0.880356	0.337071
O64	O	0.702464	-0.904618	0.293290
N65	N	0.649256	-0.903828	0.388587
C66	C	0.620501	-0.880379	0.440102
O67	O	0.596060	-0.904650	0.483926
C68	C	0.620448	-0.692707	0.440074
C69	C	0.649188	-0.669238	0.388549
C70	C	0.706679	-0.669214	0.285519
C71	C	0.706663	-0.622298	0.285509
C72	C	0.677909	-0.598852	0.337019
C73	C	0.649172	-0.622322	0.388539
C74	C	0.591696	-0.669259	0.491593
C75	C	0.591686	-0.622338	0.491583
C76	C	0.620426	-0.598868	0.440058
C77	C	0.620402	-0.551961	0.440038
N78	N	0.649143	-0.528489	0.388523
C79	C	0.677897	-0.551935	0.337013
C80	C	0.620530	-0.978910	0.440112
C81	C	0.620543	-1.025828	0.440118
C82	C	0.678039	-1.025801	0.337088
C83	C	0.678024	-0.978883	0.337078
C84	C	0.649271	-0.955438	0.388596
C85	C	0.677861	-0.453409	0.336994
C86	C	0.677841	-0.406489	0.336986
C87	C	0.620347	-0.406520	0.440019
C88	C	0.620365	-0.453435	0.440025
C89	C	0.649125	-0.476879	0.388510
O90	O	0.595951	-0.527670	0.483803
O91	O	0.702342	-0.527656	0.293208
C92	C	0.677957	-0.739599	0.337050
C93	C	0.649219	-0.763068	0.388570
C94	C	0.620466	-0.739623	0.440080
C95	C	0.649232	-0.809986	0.388576
C96	C	0.677985	-0.833432	0.337067
C97	C	0.706726	-0.809960	0.285551
C98	C	0.706711	-0.763044	0.285540
C99	C	0.591725	-0.763095	0.491596
C100	C	0.591743	-0.810010	0.491602
C101	C	0.620496	-0.833456	0.440092
C102	C	0.766341	-0.216390	0.388561
C103	C	0.816275	-0.216392	0.388576
C104	C	0.649192	-0.216353	0.598835
C105	C	0.649204	-0.216339	0.688456
C106	C	0.649256	-0.099208	0.388584
C107	C	0.649296	-0.049274	0.388608
C108	C	0.649159	-0.216387	0.179035
C109	C	0.649234	-0.216275	0.089415
C110	C	0.649225	-0.216288	1.016632
C111	C	0.649218	-0.216304	0.925324
C112	C	0.649215	-0.216314	0.852547
C113	C	0.649207	-0.216329	0.761233
H114	H	-0.094185	-0.164328	0.482298
C115	C	0.359461	-0.127260	0.451591
C116	C	0.386426	-0.156147	0.496959
H117	H	0.343575	-0.107785	0.486659
H118	H	0.338751	-0.144345	0.420838
H119	H	0.377772	-0.110053	0.416515
H120	H	0.368115	-0.173357	0.532031
H121	H	0.407139	-0.139061	0.527726
H122	H	0.596935	-0.387423	0.481956
H123	H	0.597136	-1.044933	0.482068
H124	H	0.701244	-0.387382	0.295025
H125	H	0.121676	-0.135627	0.533920
C126	C	0.041231	-0.137204	0.628464
C127	C	0.029884	-0.127452	0.548642
H128	H	0.025329	-0.117734	0.663516
H129	H	0.072531	-0.133091	0.635856
H130	H	0.033522	-0.167399	0.640155
H131	H	0.037596	-0.097258	0.536948
H132	H	-0.001423	-0.131561	0.541246
C133	C	0.585485	-0.862733	0.600071
C134	C	0.560150	-0.835806	0.548244
H135	H	0.565983	-0.878658	0.635038
H136	H	0.605041	-0.844394	0.630932
H137	H	0.602607	-0.883413	0.569388
H138	H	0.543030	-0.815123	0.578927
H139	H	0.540586	-0.854146	0.517380
H140	H	-0.094320	-0.268450	0.294829
C141	C	0.767187	-0.862648	0.274506
C142	C	0.738348	-0.835730	0.228944
H143	H	0.786713	-0.878554	0.239566
H144	H	0.750070	-0.883341	0.305173
H145	H	0.784341	-0.844302	0.309669
H146	H	0.721191	-0.854076	0.193785
H147	H	0.755466	-0.815035	0.198263
C148	C	0.296088	-0.152819	0.600329
C149	C	0.269116	-0.127451	0.548627
H150	H	0.312021	-0.133341	0.635389
H151	H	0.316756	-0.169901	0.569568
H152	H	0.277774	-0.172415	0.631105
H153	H	0.287430	-0.107857	0.517847
H154	H	0.248445	-0.110362	0.579391
C155	C	0.143663	-0.152832	0.600342
C156	C	0.170642	-0.127455	0.548641
H157	H	0.127773	-0.133360	0.635408
H158	H	0.161962	-0.172427	0.631104
H159	H	0.122952	-0.169916	0.569574
H160	H	0.191355	-0.110374	0.579409
H161	H	0.152341	-0.107853	0.517876
H162	H	-0.179307	-0.164331	0.482300
C163	C	0.060143	-0.330489	0.183084
C164	C	0.029671	-0.305308	0.228429
H165	H	0.044202	-0.349957	0.148015
H166	H	0.078434	-0.347700	0.218157
H167	H	0.078453	-0.310886	0.152316
H168	H	0.011362	-0.324911	0.259202
H169	H	0.011371	-0.288096	0.193351
H170	H	0.701282	-0.472491	0.295047
H171	H	0.478210	-0.164332	0.482230
H172	H	0.730113	-0.743939	0.243584
C173	C	0.416733	-0.301816	0.234719
C174	C	0.386263	-0.276629	0.280061
H175	H	0.400790	-0.321286	0.199658
H176	H	0.435024	-0.319024	0.269795
H177	H	0.435043	-0.282216	0.203943
H178	H	0.367955	-0.296228	0.310841
H179	H	0.367964	-0.259419	0.244981
H180	H	0.177122	-0.297134	0.243121
H181	H	0.262231	-0.297129	0.243110
H182	H	0.597115	-0.959824	0.482065
H183	H	0.121472	-0.297134	0.243145
C184	C	-0.155651	-0.301811	0.234785
C185	C	-0.186123	-0.276630	0.280130
H186	H	-0.171592	-0.321282	0.199722
H187	H	-0.137356	-0.319018	0.269858
H188	H	-0.137344	-0.282208	0.204010
H189	H	-0.204428	-0.296233	0.310909
H190	H	-0.204426	-0.259421	0.245053
H191	H	0.478084	-0.268451	0.294775
H192	H	0.730066	-0.603192	0.243555
C193	C	0.614106	-0.506166	0.548481
C194	C	0.588772	-0.479239	0.496653
H195	H	0.594603	-0.522096	0.583440
H196	H	0.633658	-0.487827	0.579350
H197	H	0.631233	-0.526842	0.517798
H198	H	0.571648	-0.458560	0.527336
H199	H	0.569213	-0.497579	0.465781
H200	H	0.730096	-0.688298	0.243574
H201	H	0.701426	-0.959777	0.295123
H202	H	0.701451	-1.044899	0.295147
C203	C	0.534890	-0.767843	0.593424
C204	C	0.560112	-0.737328	0.548213
H205	H	0.515369	-0.751936	0.628372
H206	H	0.554461	-0.786106	0.624306
H207	H	0.517730	-0.786178	0.558252
H208	H	0.577275	-0.718995	0.583385
H209	H	0.540539	-0.719057	0.517328
H210	H	0.568272	-0.603252	0.533538
H211	H	0.568291	-0.688360	0.533547
