data_functionalizedCrystal
_audit_creation_method	'MofGen! by Chris Wilmer'
_symmetry_space_group_name_H-M	'P1'
_symmetry_Int_Tables_number	1
_symmetry_cell_setting	triclinic
loop_
_symmetry_equiv_pos_as_xyz
  x,y,z
_cell_length_a	10.723024
_cell_length_b	9.198806
_cell_length_c	10.723024
_cell_angle_alpha	89.997723
_cell_angle_beta	95.532131
_cell_angle_gamma	90.003661
loop_
_atom_site_label
_atom_site_type_symbol
_atom_site_fract_x
_atom_site_fract_y
_atom_site_fract_z
O1	O	1.657188	0.120879	-0.175025
O2	O	2.157188	0.620879	0.324975
O3	O	1.294035	0.120884	-0.191778
O4	O	1.794035	0.620884	0.308222
O5	O	1.483988	0.120876	-0.001825
O6	O	1.983988	0.620876	0.498175
O7	O	1.467235	0.120887	-0.364978
O8	O	1.967235	0.620887	0.135022
O9	O	1.483973	-0.120909	-0.001824
O10	O	1.983973	0.379091	0.498176
O11	O	1.294020	-0.120901	-0.191777
O12	O	1.794020	0.379099	0.308223
O13	O	1.657173	-0.120906	-0.175023
O14	O	2.157173	0.379094	0.324977
Cu15	Cu	1.475595	-0.142981	-0.183400
Cu16	Cu	1.975595	0.357019	0.316600
Cu17	Cu	1.475613	0.142958	-0.183402
Cu18	Cu	1.975613	0.642958	0.316598
O19	O	1.467220	-0.120898	-0.364976
O20	O	1.967220	0.379102	0.135024
C21	C	1.247528	-0.000008	-0.190558
C22	C	1.747528	0.499992	0.309442
C23	C	1.108974	-0.000007	-0.186911
C24	C	1.608974	0.499993	0.313089
N25	N	1.475592	-0.344095	-0.183398
N26	N	1.975592	0.155905	0.316602
C27	C	1.033991	-0.000002	-0.293198
C28	C	1.533991	0.499998	0.206802
C29	C	0.890788	-0.000001	-0.289431
C30	C	1.390788	0.499999	0.210569
C31	C	1.548356	-0.416291	-0.255759
C32	C	2.048356	0.083709	0.244241
C33	C	1.548376	-0.583703	-0.255758
C34	C	2.048376	-0.083703	0.244242
C35	C	1.703680	-0.000011	-0.176243
C36	C	2.203680	0.499989	0.323757
C37	C	1.842234	-0.000003	-0.179891
C38	C	2.342234	0.499997	0.320109
C39	C	1.482762	-0.000015	0.044675
C40	C	1.982762	0.499985	0.544675
C41	C	1.479114	-0.000010	0.183229
C42	C	1.979114	0.499990	0.683229
N43	N	1.475626	0.344072	-0.183394
N44	N	1.975626	0.844072	0.316606
C45	C	1.468447	-0.000004	-0.411477
C46	C	1.968447	0.499996	0.088523
C47	C	1.472094	0.000000	-0.550031
C48	C	1.972094	0.500000	-0.050031
C49	C	1.585401	-0.000009	0.258212
C50	C	2.085401	0.499991	0.758212
C51	C	1.581634	-0.000004	0.401415
C52	C	2.081634	0.499996	0.901415
H53	H	1.075814	-0.000008	-0.386984
H54	H	1.575814	0.499992	0.113016
C55	C	1.712107	-0.000021	0.201719
C56	C	2.212107	0.499979	0.701719
N57	N	1.807545	-0.000036	0.159170
N58	N	2.307545	0.499964	0.659170
H59	H	0.826355	0.000009	-0.380421
H60	H	1.326355	0.500009	0.119579
C61	C	1.391521	-0.572064	-0.099633
C62	C	1.891521	-0.072064	0.400367
N63	N	1.328196	-0.508887	-0.036520
N64	N	1.828196	-0.008887	0.463480
C65	C	0.929269	-0.000012	-0.056957
C66	C	1.429269	0.499988	0.443043
N67	N	0.994833	-0.000022	0.035637
N68	N	1.494833	0.499978	0.535637
H69	H	1.413313	-0.406225	-0.121443
H70	H	1.913313	0.093775	0.378557
H71	H	1.672624	-0.000010	0.465848
H72	H	2.172624	0.499990	0.965848
H73	H	1.610644	-0.354161	-0.317706
H74	H	2.110644	0.145839	0.182294
C75	C	1.349160	0.000001	0.362934
C76	C	1.849160	0.500001	0.862934
N77	N	1.256566	0.000005	0.297370
N78	N	1.756566	0.500005	0.797370
H79	H	1.067152	0.000028	-0.093125
H80	H	1.567152	0.500028	0.406875
H81	H	1.610665	-0.645791	-0.317715
H82	H	2.110665	-0.145791	0.182285
H83	H	1.385328	0.000001	0.225051
H84	H	1.885328	0.500001	0.725051
