data_functionalizedCrystal
_audit_creation_method	'MofGen! by Chris Wilmer'
_symmetry_space_group_name_H-M	'P1'
_symmetry_Int_Tables_number	1
_symmetry_cell_setting	triclinic
loop_
_symmetry_equiv_pos_as_xyz
  x,y,z
_cell_length_a	10.540539
_cell_length_b	14.971486
_cell_length_c	14.048226
_cell_angle_alpha	90.001501
_cell_angle_beta	89.995726
_cell_angle_gamma	95.930190
loop_
_atom_site_label
_atom_site_type_symbol
_atom_site_fract_x
_atom_site_fract_y
_atom_site_fract_z
O1	O	0.165423	-1.187879	-0.079046
O2	O	0.185233	-0.927591	-0.079072
O3	O	-0.009446	-1.063673	-0.079057
O4	O	0.360102	-1.051796	-0.079061
O5	O	-0.009457	-1.063657	0.079264
O6	O	0.185221	-0.927574	0.079249
O7	O	0.165412	-1.187862	0.079275
Zn8	Zn	0.175315	-1.057716	0.104399
Zn9	Zn	0.175330	-1.057737	-0.104196
O10	O	0.360090	-1.051780	0.079260
C11	C	0.184341	-0.894253	0.000085
C12	C	0.181686	-0.794940	0.000076
C13	C	-0.056745	-1.062774	0.000101
C14	C	-0.197662	-1.060109	0.000096
N15	N	0.175303	-1.057707	0.246760
C16	C	-0.379931	-0.958001	-0.000269
C17	C	-0.233343	-0.960702	0.000087
C18	C	-0.259870	-1.107939	0.090510
C19	C	-0.406376	-1.104547	0.090586
C20	C	-0.406904	-1.106587	-0.089455
C21	C	-0.259932	-1.107503	-0.090650
C22	C	0.407389	-1.052679	0.000099
C23	C	0.548307	-1.055344	0.000099
C24	C	0.166303	-1.221200	0.000115
C25	C	0.168958	-1.320512	0.000119
C26	C	0.296055	-0.738360	0.000076
C27	C	0.293553	-0.645046	0.000090
C28	C	0.176681	-0.608315	0.000097
C29	C	0.062303	-0.664903	0.000100
C30	C	0.064807	-0.758215	0.000092
C31	C	0.057094	-0.470412	0.000113
C32	C	0.054590	-0.377093	0.000119
C33	C	0.285839	-0.357242	0.000111
C34	C	0.288343	-0.450554	0.000103
C35	C	0.173965	-0.507136	0.000104
N36	N	0.175331	-1.057753	-0.246557
C37	C	0.089135	-1.117984	0.296584
C38	C	0.089135	-1.117990	0.396242
C39	C	0.175309	-1.057723	0.446073
C40	C	0.261481	-0.997440	0.396242
C41	C	0.261475	-0.997430	0.296586
C42	C	0.261491	-0.997466	0.603956
C43	C	0.261499	-0.997476	0.703619
C44	C	0.089150	-1.118025	0.703612
C45	C	0.089144	-1.118016	0.603956
C46	C	0.175318	-1.057733	0.554132
H47	H	-0.190308	-0.923066	-0.064725
H48	H	-0.032856	-0.634990	0.000119
H49	H	0.386683	-0.598981	0.000089
C50	C	0.411657	-0.295001	0.000115
N51	N	0.506418	-0.248116	0.000115
H52	H	0.018984	-1.167109	0.744185
H53	H	0.383510	-0.480457	0.000088
C54	C	-0.005688	-1.184278	0.451044
N55	N	-0.077124	-1.234200	0.492321
H56	H	0.331670	-0.948400	0.744186
C57	C	0.356274	-0.931142	0.549151
N58	N	0.427663	-0.881188	0.507873
H59	H	-0.454944	-1.178389	-0.090056
C60	C	-0.228332	-1.205419	-0.098014
N61	N	-0.204535	-1.279175	-0.103551
C62	C	0.356277	-0.931128	0.241780
N63	N	0.427685	-0.881188	0.200501
C64	C	-0.073975	-0.336692	0.000128
N65	N	-0.170812	-0.306262	0.000135
H66	H	-0.408080	-0.918739	-0.065107
H67	H	-0.036045	-0.516479	0.000115
C68	C	-0.061008	-0.820454	0.000089
N69	N	-0.155775	-0.867332	0.000089
C70	C	-0.005666	-1.184283	0.241779
N71	N	-0.077077	-1.234219	0.200502
H72	H	0.018981	-1.167094	0.563384
H73	H	-0.409699	-0.918886	0.064198
H74	H	-0.191162	-0.922789	0.065001
H75	H	-0.434179	-1.069184	0.158165
H76	H	-0.455156	-1.176039	0.094694
H77	H	-0.216898	-1.074700	0.157786
C78	C	-0.230765	-1.206556	0.095076
N79	N	-0.208833	-1.280832	0.098518
C80	C	-0.204118	-1.060270	-0.181014
N81	N	-0.162083	-1.024685	-0.249074
C82	C	-0.449024	-1.063129	-0.182033
N83	N	-0.480746	-1.030386	-0.251759
C84	C	0.424625	-0.778754	0.000069
N85	N	0.521468	-0.809176	0.000069
H86	H	0.331642	-0.948365	0.436820
