data_functionalizedCrystal
_audit_creation_method	'MofGen! by Chris Wilmer'
_symmetry_space_group_name_H-M	'P1'
_symmetry_Int_Tables_number	1
_symmetry_cell_setting	triclinic
loop_
_symmetry_equiv_pos_as_xyz
  x,y,z
_cell_length_a	16.109301
_cell_length_b	12.837942
_cell_length_c	15.186229
_cell_angle_alpha	89.996774
_cell_angle_beta	89.999362
_cell_angle_gamma	89.145211
loop_
_atom_site_label
_atom_site_type_symbol
_atom_site_fract_x
_atom_site_fract_y
_atom_site_fract_z
O1	O	1.113716	0.133240	-0.073172
O2	O	0.872971	0.149822	-0.073186
O3	O	0.988005	-0.009370	-0.073174
O4	O	0.998681	0.292432	-0.073184
O5	O	0.987996	-0.009372	0.073283
O6	O	0.872962	0.149820	0.073271
O7	O	1.113707	0.133238	0.073285
Zn8	Zn	0.993333	0.141528	0.096532
Zn9	Zn	0.993345	0.141531	-0.096432
O10	O	0.998673	0.292430	0.073273
C11	C	0.841938	0.149149	0.000041
C12	C	0.749483	0.147135	0.000036
C13	C	0.534343	0.236914	0.000043
C14	C	0.447471	0.235014	0.000049
C15	C	0.452341	0.046138	0.000051
C16	C	0.539211	0.048040	0.000052
C17	C	0.580209	0.143431	0.000043
C18	C	0.406468	0.139629	0.000048
C19	C	0.312278	0.137568	0.000055
C20	C	0.674405	0.145492	0.000039
C21	C	0.984394	-0.047991	0.000054
C22	C	0.973637	-0.163064	0.000052
C23	C	1.102954	-0.404066	0.000041
C24	C	1.092851	-0.512188	0.000039
C25	C	0.943328	-0.487433	0.000040
C26	C	0.953431	-0.379311	0.000042
C27	C	1.033247	-0.337632	0.000044
C28	C	1.043349	-0.229507	0.000052
C29	C	0.893827	-0.204754	0.000046
C30	C	0.883724	-0.312876	0.000044
C31	C	1.144739	0.133911	0.000056
C32	C	1.237195	0.135924	0.000056
C33	C	1.002284	0.331050	0.000043
C34	C	1.013041	0.446124	0.000040
N35	N	0.993331	0.141526	0.228224
N36	N	0.993352	0.141526	-0.228125
C37	C	1.044289	0.071059	0.453952
C38	C	1.044292	0.071057	0.546142
C39	C	0.942388	0.211996	0.546141
C40	C	0.942382	0.211992	0.453953
C41	C	0.993337	0.141525	0.407861
C42	C	0.993346	0.141526	0.592239
C43	C	0.993348	0.141524	0.692195
C44	C	0.993334	0.141526	0.307898
H45	H	0.567721	0.314588	0.000043
C46	C	0.856627	-0.532549	0.000164
C47	C	0.813964	-0.498777	0.075499
C48	C	0.734089	-0.540304	0.075634
H49	H	0.860475	-0.606455	0.000202
H50	H	0.827529	-0.509703	-0.050884
H51	H	0.843055	-0.521630	0.126534
H52	H	0.810094	-0.424878	0.075477
H53	H	0.704990	-0.517457	0.024586
H54	H	0.737944	-0.614207	0.075670
H55	H	0.705129	-0.517388	0.126744
C56	C	0.886929	0.288383	0.596141
C57	C	0.803897	0.271521	0.573745
C58	C	0.752784	0.341861	0.619796
H59	H	0.901325	0.357615	0.581066
H60	H	0.894175	0.278287	0.657655
H61	H	0.796655	0.281625	0.512245
H62	H	0.789475	0.202303	0.588822
H63	H	0.760030	0.331766	0.681309
H64	H	0.767187	0.411089	0.604717
H65	H	0.696440	0.330424	0.604612
H66	H	0.818741	-0.346827	0.000039
C67	C	0.397821	0.336624	0.000000
C68	C	0.452322	0.420564	-0.000029
C69	C	0.406615	0.514187	-0.000084
H70	H	0.363825	0.339958	0.051060
H71	H	0.363847	0.339866	-0.051092
H72	H	0.486282	0.417324	0.051058
H73	H	0.486318	0.417265	-0.051085
H74	H	0.372641	0.517429	-0.051177
H75	H	0.372621	0.517510	0.050977
H76	H	0.443587	0.571151	-0.000112
H77	H	0.418949	-0.031526	0.000064
H78	H	1.085779	0.013679	0.416427
C79	C	0.887198	0.288559	0.403792
C80	C	0.936509	0.352007	0.350841
C81	C	0.885703	0.422537	0.304613
H82	H	0.856842	0.330632	0.444344
H83	H	0.849648	0.251283	0.367785
H84	H	0.974045	0.389280	0.386846
H85	H	0.966865	0.309963	0.310272
H86	H	0.848153	0.385262	0.268605
H87	H	0.855349	0.464603	0.345171
H88	H	0.919152	0.465589	0.268674
C89	C	1.130071	-0.184452	0.000004
C90	C	1.188954	-0.265781	-0.000027
C91	C	1.268852	-0.224320	-0.000088
H92	H	1.137244	-0.142808	0.051062
H93	H	1.137159	-0.142814	-0.051090
H94	H	1.181869	-0.307401	0.051062
H95	H	1.181809	-0.307432	-0.051081
H96	H	1.275940	-0.182682	-0.051182
H97	H	1.276016	-0.182676	0.050971
H98	H	1.308814	-0.279494	-0.000117
H99	H	0.837067	-0.150651	0.000055
C100	C	1.168504	-0.584368	-0.000143
C101	C	1.167084	-0.647139	-0.075505
C102	C	1.236770	-0.713634	-0.075710
H103	H	1.167744	-0.627165	0.050869
H104	H	1.217504	-0.544092	-0.000190
H105	H	1.118097	-0.687411	-0.075450
H106	H	1.167855	-0.604371	-0.126529
H107	H	1.285770	-0.673358	-0.075757
H108	H	1.236004	-0.756423	-0.024695
H109	H	1.235820	-0.756225	-0.126846
H110	H	0.576557	-0.028091	0.000055
C111	C	1.099704	-0.005494	0.596025
C112	C	1.144338	-0.067185	0.535925
C113	C	1.195401	-0.137710	0.581844
H114	H	1.066472	-0.048757	0.631995
H115	H	1.137311	0.031783	0.631965
H116	H	1.106736	-0.104460	0.500000
H117	H	1.177586	-0.023951	0.499953
H118	H	1.233008	-0.100433	0.617784
H119	H	1.162162	-0.180966	0.617812
H120	H	1.225697	-0.179569	0.541073
H121	H	1.167943	-0.370130	0.000051
