data_functionalizedCrystal
_audit_creation_method	'MofGen! by Chris Wilmer'
_symmetry_space_group_name_H-M	'P1'
_symmetry_Int_Tables_number	1
_symmetry_cell_setting	triclinic
loop_
_symmetry_equiv_pos_as_xyz
  x,y,z
_cell_length_a	17.699083
_cell_length_b	16.176319
_cell_length_c	17.699104
_cell_angle_alpha	90.007741
_cell_angle_beta	96.712734
_cell_angle_gamma	89.999042
loop_
_atom_site_label
_atom_site_type_symbol
_atom_site_fract_x
_atom_site_fract_y
_atom_site_fract_z
O1	O	-1.004086	0.068624	0.095712
O2	O	-0.783708	0.068653	0.108164
O3	O	-0.900115	0.068630	-0.008250
O4	O	-0.887679	0.068647	0.212126
O5	O	-0.900099	-0.068863	-0.008257
O6	O	-0.783692	-0.068840	0.108157
O7	O	-1.004070	-0.068869	0.095705
Cu8	Cu	-0.893880	-0.081409	0.101930
Cu9	Cu	-0.893899	0.081193	0.101939
O10	O	-0.887663	-0.068846	0.212119
C11	C	-0.755503	-0.000090	0.107715
C12	C	-0.671485	-0.000079	0.106376
N13	N	-0.893872	-0.195774	0.101924
C14	C	-0.622869	-0.000074	0.174709
C15	C	-0.543926	-0.000084	0.173446
C16	C	-0.513600	-0.000093	0.103851
C17	C	-0.562222	-0.000101	0.035513
C18	C	-0.641164	-0.000097	0.036776
C19	C	-0.243859	-0.000119	0.030418
C20	C	-0.164911	-0.000121	0.029160
C21	C	-0.146621	-0.000106	0.167088
C22	C	-0.225563	-0.000102	0.168351
C23	C	-0.274178	-0.000114	0.100014
C24	C	-0.359777	-0.000105	0.101383
C25	C	-0.428002	-0.000097	0.102480
C26	C	-0.945432	-0.239048	0.050396
C27	C	-0.945436	-0.325595	0.050396
C28	C	-0.893883	-0.368867	0.101926
C29	C	-0.842317	-0.325586	0.153456
C30	C	-0.842310	-0.239041	0.153453
C31	C	-0.842343	-0.674614	0.153470
C32	C	-0.842355	-0.761166	0.153471
C33	C	-0.945469	-0.761169	0.050413
C34	C	-0.945462	-0.674624	0.050410
C35	C	-0.893894	-0.631351	0.101936
C36	C	-0.893889	-0.537507	0.101936
C37	C	-0.893890	-0.462709	0.101931
C38	C	-0.032275	-0.000122	0.096155
C39	C	-0.116293	-0.000122	0.097493
C40	C	-0.899659	-0.000116	-0.036450
C41	C	-0.898314	-0.000116	-0.120467
N42	N	-0.893912	0.195558	0.101940
C43	C	-0.959058	-0.000101	-0.645338
C44	C	-0.960317	-0.000108	-0.566395
C45	C	-0.891982	-0.000101	-0.517777
C46	C	-0.822383	-0.000095	-0.548107
C47	C	-0.821125	-0.000093	-0.627049
C48	C	-0.827456	-0.000103	-0.229741
C49	C	-0.828720	-0.000102	-0.150794
C50	C	-0.966648	-0.000118	-0.169086
C51	C	-0.965390	-0.000116	-0.248029
C52	C	-0.895792	-0.000114	-0.278352
C53	C	-0.894427	-0.000108	-0.363951
C54	C	-0.893345	-0.000102	-0.432179
C55	C	-0.888120	-0.000098	0.240319
C56	C	-0.889464	-0.000092	0.324337
H57	H	-0.504346	-0.000079	0.229090
H58	H	-0.987416	-0.203822	0.008437
H59	H	-0.766743	-0.000094	-0.508516
C60	C	-1.036873	-0.000107	-0.533042
C61	C	-1.093599	-0.071500	-0.551456
C62	C	-1.170160	-0.071497	-0.518106
C63	C	-1.189996	-0.000101	-0.466341
C64	C	-1.133269	0.071297	-0.447924
C65	C	-1.056708	0.071294	-0.481275
H66	H	-1.078917	-0.124357	-0.589777
H67	H	-1.212153	-0.124351	-0.531739
H68	H	-1.246671	-0.000099	-0.441654
H69	H	-1.147951	0.124153	-0.409603
H70	H	-1.014715	0.124148	-0.467641
H71	H	-1.021036	-0.000118	-0.287610
C72	C	-1.002155	-0.373201	-0.006281
C73	C	-1.058885	-0.325612	-0.062946
C74	C	-1.115605	-0.373220	-0.119624
C75	C	-1.115595	-0.468417	-0.119639
C76	C	-1.058862	-0.516011	-0.062972
C77	C	-1.002142	-0.468403	-0.006293
H78	H	-1.058895	-0.255137	-0.062937
H79	H	-1.157603	-0.337987	-0.161573
H80	H	-1.157582	-0.503659	-0.161596
H81	H	-1.058852	-0.586486	-0.062980
H82	H	-0.960145	-0.503636	0.035655
H83	H	-0.800356	-0.639389	0.195426
H84	H	-0.800371	-0.796396	0.195435
H85	H	-0.537525	-0.000120	-0.021153
H86	H	-0.987456	-0.796411	0.008455
C87	C	-0.785594	-0.191436	0.210135
C88	C	-0.728912	-0.239030	0.266845
C89	C	-0.672191	-0.191427	0.323526
C90	C	-0.672152	-0.096230	0.323499
C91	C	-0.728836	-0.048631	0.266787
C92	C	-0.785557	-0.096234	0.210105
H93	H	-0.728939	-0.309505	0.266867
H94	H	-0.630230	-0.226664	0.365508
H95	H	-0.630164	-0.060992	0.365458
H96	H	-0.728809	0.021844	0.266764
H97	H	-0.827518	-0.060998	0.168123
H98	H	-0.680747	-0.000100	-0.018868
H99	H	-0.800337	-0.360823	0.195411
H100	H	-0.647554	-0.000065	0.231382
H101	H	-0.107028	-0.000101	0.222732
C102	C	-0.297328	-0.000118	-0.044752
C103	C	-0.263968	-0.000117	-0.121303
C104	C	-0.317442	-0.000112	-0.196477
C105	C	-0.404277	-0.000107	-0.195099
C106	C	-0.437641	-0.000108	-0.118544
C107	C	-0.384167	-0.000113	-0.043371
H108	H	-0.199684	-0.000120	-0.122326
H109	H	-0.292743	-0.000111	-0.253147
H110	H	-0.443861	-0.000103	-0.250747
H111	H	-0.501926	-0.000105	-0.117521
H112	H	-0.408867	-0.000114	0.013300
C113	C	-0.750900	-0.000090	-0.263090
C114	C	-0.675735	-0.000073	-0.209610
C115	C	-0.599175	-0.000058	-0.242962
C116	C	-0.597780	-0.000058	-0.329794
C117	C	-0.672948	-0.000075	-0.383279
C118	C	-0.749508	-0.000090	-0.349927
H119	H	-0.676766	-0.000072	-0.145327
H120	H	-0.543531	-0.000045	-0.203368
H121	H	-0.541106	-0.000047	-0.354483
H122	H	-0.671917	-0.000076	-0.447562
H123	H	-0.805152	-0.000103	-0.389521
H124	H	-0.250249	-0.000091	0.225023
H125	H	-0.140223	-0.000130	-0.027517
H126	H	-0.987444	-0.639395	0.008451
H127	H	-1.014705	-0.000100	-0.684918
H128	H	-1.023319	-0.000108	-0.144388
H129	H	-0.773070	-0.000098	-0.111210
H130	H	-0.764455	-0.000093	-0.651738
