data_functionalizedCrystal
_audit_creation_method	'MofGen! by Chris Wilmer'
_symmetry_space_group_name_H-M	'P1'
_symmetry_Int_Tables_number	1
_symmetry_cell_setting	triclinic
loop_
_symmetry_equiv_pos_as_xyz
  x,y,z
_cell_length_a	6.817900
_cell_length_b	7.076028
_cell_length_c	23.753515
_cell_angle_alpha	92.840650
_cell_angle_beta	100.076835
_cell_angle_gamma	117.700652
loop_
_atom_site_label
_atom_site_type_symbol
_atom_site_fract_x
_atom_site_fract_y
_atom_site_fract_z
V1	V	-4.183403	-0.666194	-0.078248
O2	O	-4.184822	-0.652272	0.004698
O3	O	-4.117607	-0.662830	-0.156054
O4	O	-4.210729	-0.956200	-0.076633
O5	O	-4.091055	-0.356871	-0.075273
V6	V	-4.659473	-0.629051	-0.068375
O7	O	-4.461011	-0.747668	-0.099904
O8	O	-4.832062	-0.547577	-0.046719
O9	O	-4.502062	-0.632415	0.009431
O10	O	-4.775450	-0.642973	-0.151321
O11	O	-4.869217	-0.938373	-0.071350
O12	O	-4.408940	-0.339045	-0.069990
C13	C	-3.955925	-0.652628	-0.175035
C14	C	-3.983921	-0.651811	-0.238640
C15	C	-4.015418	-0.452910	-0.505658
C16	C	-3.989128	-0.453659	-0.445894
O17	O	-3.899449	-0.287834	-0.408260
N18	N	-4.065376	-0.649478	-0.423909
C19	C	-4.167899	-0.844560	-0.461691
O20	O	-4.230337	-1.011188	-0.437504
C21	C	-4.194172	-0.843808	-0.521454
C22	C	-4.117939	-0.647977	-0.543436
C23	C	-3.939189	-0.257095	-0.527640
C24	C	-3.965481	-0.256347	-0.587400
C25	C	-4.068002	-0.451414	-0.625178
C26	C	-4.144230	-0.647229	-0.603196
C27	C	-4.296680	-1.038886	-0.559235
C28	C	-4.322946	-1.038117	-0.619002
C29	C	-4.246712	-0.842286	-0.640983
C30	C	-4.273043	-0.841548	-0.700734
N31	N	-4.196796	-0.645728	-0.722719
C32	C	-4.094275	-0.450661	-0.684941
C33	C	-4.112713	-0.846125	-0.336185
C34	C	-4.086455	-0.846880	-0.276423
C35	C	-3.907682	-0.455978	-0.260630
C36	C	-3.933956	-0.455225	-0.320392
C37	C	-4.036465	-0.650305	-0.358170
C38	C	-4.149498	-0.449105	-0.810442
C39	C	-4.175809	-0.448375	-0.870209
C40	C	-4.354568	-0.839275	-0.885997
C41	C	-4.328271	-0.840007	-0.826236
C42	C	-4.225722	-0.644905	-0.788459
O43	O	-4.362692	-1.007287	-0.738402
O44	O	-4.031826	-0.284059	-0.709137
C45	C	-4.208283	-0.268386	-0.072900
C46	C	-4.081678	-0.026840	-0.073720
C47	C	-4.327083	-0.642611	0.028409
C48	C	-4.278330	-0.643442	0.092013
H49	H	-4.065988	-0.290233	-0.779691
H50	H	-3.903393	-0.096880	-0.605292
H51	H	-3.871872	-0.295762	-0.338285
H52	H	-3.824193	-0.297143	-0.229859
Br53	Br	-4.431780	-1.105782	-0.796403
H54	H	-4.113728	-0.288899	-0.888102
Br55	Br	-3.800038	0.007677	-0.476380
Br56	Br	-4.189972	-1.112664	-0.246600
Br57	Br	-4.493710	-1.103997	-0.937278
H58	H	-4.196205	-1.004993	-0.366941
H59	H	-4.358748	-1.198352	-0.541349
H60	H	-4.406412	-1.196978	-0.649758
