data_functionalizedCrystal
_audit_creation_method	'MofGen! by Chris Wilmer'
_symmetry_space_group_name_H-M	'P1'
_symmetry_Int_Tables_number	1
_symmetry_cell_setting	triclinic
loop_
_symmetry_equiv_pos_as_xyz
  x,y,z
_cell_length_a	14.395555
_cell_length_b	14.809374
_cell_length_c	14.809374
_cell_angle_alpha	60.797835
_cell_angle_beta	89.999658
_cell_angle_gamma	67.427378
loop_
_atom_site_label
_atom_site_type_symbol
_atom_site_fract_x
_atom_site_fract_y
_atom_site_fract_z
Zr1	Zr	1.026059	0.955241	-0.203699
O2	O	0.912267	1.113157	-0.350855
O3	O	1.044832	0.777475	-0.145622
O4	O	1.082830	0.926624	-0.332163
O5	O	0.862621	0.993504	-0.031916
O6	O	1.235698	0.926630	-0.332167
O7	O	0.874269	0.964008	-0.164314
O8	O	1.167727	0.659830	0.001521
O9	O	0.930593	1.260304	-0.365603
O10	O	1.186386	0.857949	-0.136520
O11	O	1.063609	0.879956	-0.037710
O12	O	1.108347	1.055560	-0.257338
O13	O	0.985570	1.077568	-0.158528
Zr14	Zr	1.251289	1.002292	0.007455
Zr15	Zr	1.269866	0.955251	-0.203705
Zr16	Zr	1.007481	1.002283	0.007461
Zr17	Zr	1.055286	1.189923	-0.227221
Zr18	Zr	1.222062	0.767610	0.030977
O19	O	1.232516	1.180058	-0.050621
O20	O	1.258930	1.113171	-0.350864
O21	O	0.885853	1.180045	-0.050613
O22	O	1.365080	0.844376	0.154612
O23	O	1.391495	0.777489	-0.145631
O24	O	1.018418	0.844362	0.154620
O25	O	1.414726	0.964029	-0.164328
O26	O	1.194517	1.030909	0.135920
O27	O	1.041649	1.030903	0.135923
O28	O	1.403078	0.993525	-0.031929
O29	O	1.124387	1.260312	-0.365608
O30	O	1.152960	0.697221	0.169365
O31	O	1.346755	0.697229	0.169360
O32	O	1.361521	0.659837	0.001516
O33	O	0.915826	1.297696	-0.197759
O34	O	1.109621	1.297703	-0.197764
O35	O	1.169000	0.901973	0.061094
O36	O	1.291777	0.879965	-0.037716
O37	O	1.213738	1.077577	-0.158533
O38	O	1.090962	1.099584	-0.059723
C39	C	1.102115	0.685215	-0.068699
C40	C	1.089707	0.585587	-0.058714
C41	C	0.833708	0.978755	-0.098114
C42	C	0.730205	0.978751	-0.098112
C43	C	1.145081	0.530252	-0.103278
C44	C	1.132259	0.427280	-0.092959
C45	C	0.712167	0.871004	-0.032238
C46	C	0.623171	0.939565	0.000810
C47	C	0.634771	0.910200	-0.131132
C48	C	0.642568	1.047325	-0.065009
C49	C	0.654185	1.017931	-0.197001
C50	C	0.565184	1.086575	-0.163985
C51	C	1.443640	0.978778	-0.098129
C52	C	1.547142	0.978782	-0.098132
C53	C	1.161911	0.919925	-0.362251
C54	C	1.169798	0.899954	-0.451894
C55	C	1.175232	1.272318	-0.127544
C56	C	1.187640	1.371946	-0.137530
C57	C	1.134601	0.989080	-0.551793
C58	C	1.142751	0.968441	-0.644445
C59	C	1.115436	1.037608	0.166007
C60	C	1.107550	1.057579	0.255650
C61	C	1.407081	0.685227	-0.068707
C62	C	1.498176	0.585603	-0.058724
C63	C	1.078878	0.744057	0.195430
C64	C	1.058584	0.664399	0.295058
C65	C	1.383844	0.744069	0.195422
C66	C	1.467052	0.664415	0.295048
C67	C	0.893504	1.213464	-0.391666
C68	C	0.810296	1.293118	-0.491292
C69	C	0.870267	1.272306	-0.127536
C70	C	0.779172	1.371931	-0.137520
C71	C	1.198470	1.213476	-0.391673
C72	C	1.218764	1.293134	-0.491302
C73	C	1.485943	0.527323	-0.105620
C74	C	1.571530	0.433724	-0.096260
C75	C	1.669348	0.398401	-0.039999
C76	C	1.681580	0.456689	0.006897
C77	C	1.595995	0.550292	-0.002469
C78	C	1.104066	0.638485	0.393429
C79	C	1.084994	0.563652	0.487047
C80	C	1.020445	0.514729	0.482293
C81	C	0.974958	0.540650	0.383912
C82	C	0.994024	0.615487	0.290295
C83	C	1.570226	0.615521	0.290256
C84	C	1.648421	0.540688	0.383856
C85	C	1.623439	0.514745	0.482247
C86	C	1.520255	0.563648	0.487037
C87	C	1.442063	0.638485	0.393438
C88	C	0.707123	1.342024	-0.486500
C89	C	0.628932	1.416885	-0.580103
C90	C	0.653915	1.442833	-0.678495
C91	C	0.757098	1.393924	-0.683284
C92	C	0.835288	1.319071	-0.589683
C93	C	0.791407	1.430217	-0.090634
C94	C	0.705825	1.523837	-0.100019
C95	C	0.608007	1.559164	-0.156284
C96	C	0.595774	1.500871	-0.203175
C97	C	0.681357	1.407258	-0.193796
C98	C	1.283317	1.342035	-0.486513
C99	C	1.302406	1.416872	-0.580116
C100	C	1.256934	1.442813	-0.678506
C101	C	1.192377	1.393903	-0.683291
C102	C	1.173296	1.319061	-0.589690
H103	H	1.201986	0.559104	-0.149067
H104	H	1.071383	1.149168	-0.761293
H105	H	0.646782	1.105269	-0.036994
H106	H	0.686761	1.320902	-0.406393
H107	H	0.590237	1.503785	-0.754703
F108	F	0.794688	0.751938	0.040650
F109	F	1.057885	0.389564	-0.033092
F110	F	1.596838	0.643122	0.185549
H111	H	1.098440	1.080662	-0.568728
F112	F	1.190035	0.848727	-0.622296
F113	F	0.668318	1.345228	-0.243697
H114	H	1.320349	1.320928	-0.406408
H115	H	0.871046	1.401465	-0.044811
H116	H	0.502185	1.177767	-0.219696
H117	H	0.777428	1.415061	-0.763407
H118	H	1.205968	0.808372	-0.434959
F119	F	0.672716	1.061159	-0.306273
H120	H	1.561550	0.386276	-0.134450
H121	H	0.922401	0.500805	0.380058
H122	H	1.406304	0.556079	-0.151446
H123	H	1.354970	1.456689	-0.576199
H124	H	1.739028	0.322181	-0.032379
H125	H	0.609031	0.906454	0.084431
H126	H	0.544921	1.456696	-0.576183
F127	F	0.945615	0.643052	0.185606
H128	H	1.761235	0.427915	0.052705
F129	F	1.706669	0.435093	0.581857
F130	F	1.000163	0.435080	0.581939
H131	H	1.605969	0.597733	0.035727
H132	H	1.732432	0.500877	0.379937
H133	H	1.272480	1.503756	-0.754715
F134	F	1.493682	0.536026	0.591763
H135	H	1.156625	0.678312	0.397319
H136	H	0.538329	1.635391	-0.163912
F137	F	1.143982	1.421530	-0.788016
H138	H	1.120727	1.279253	-0.593603
F139	F	1.332257	0.690510	0.398555
H140	H	1.244549	0.400796	-0.183322
H141	H	1.122042	0.542558	0.567144
H142	H	0.919294	1.279250	-0.593597
F143	F	0.718864	1.585858	-0.050102
H144	H	1.032809	0.556726	-0.012918
F145	F	0.629131	0.834414	-0.167627
H146	H	0.516120	1.529649	-0.248986
