data_functionalizedCrystal
_audit_creation_method	'MofGen! by Chris Wilmer'
_symmetry_space_group_name_H-M	'P1'
_symmetry_Int_Tables_number	1
_symmetry_cell_setting	triclinic
loop_
_symmetry_equiv_pos_as_xyz
  x,y,z
_cell_length_a	27.731993
_cell_length_b	27.732048
_cell_length_c	26.809956
_cell_angle_alpha	90.024325
_cell_angle_beta	90.008964
_cell_angle_gamma	82.631525
loop_
_atom_site_label
_atom_site_type_symbol
_atom_site_fract_x
_atom_site_fract_y
_atom_site_fract_z
O1	O	0.640955	0.057400	0.041351
O2	O	0.500157	0.066173	0.041382
O3	O	0.574929	-0.008611	0.041356
O4	O	0.566183	0.132184	0.041377
O5	O	0.574902	-0.008631	-0.041603
O6	O	0.500131	0.066153	-0.041577
O7	O	0.640928	0.057380	-0.041609
Zn8	Zn	0.570525	0.061764	-0.054765
Zn9	Zn	0.570560	0.061790	0.054538
O10	O	0.566157	0.132164	-0.041582
C11	C	0.482137	0.065983	-0.000094
C12	C	0.428480	0.065441	-0.000082
C13	C	0.045335	0.061521	0.045114
C14	C	0.246992	0.063588	0.045128
O15	O	0.273077	0.063846	0.083588
N16	N	0.272198	0.063836	-0.000092
C17	C	0.246987	0.063564	-0.045319
O18	O	0.273054	0.063817	-0.083781
C19	C	0.045331	0.061493	-0.045332
C20	C	0.020127	0.061251	-0.000109
C21	C	0.020131	0.061278	0.090333
C22	C	-0.030281	0.060764	0.090329
C23	C	-0.055489	0.060493	0.045106
C24	C	-0.030285	0.060736	-0.000113
C25	C	0.020121	0.061217	-0.090558
C26	C	-0.030296	0.060698	-0.090558
C27	C	-0.055500	0.060456	-0.045335
C28	C	-0.105905	0.059952	-0.045340
N29	N	-0.131110	0.059704	-0.000120
C30	C	-0.105902	0.059975	0.045103
C31	C	0.352859	0.064652	-0.045309
C32	C	0.403272	0.065170	-0.045306
C33	C	0.403274	0.065194	0.045141
C34	C	0.352859	0.064679	0.045138
C35	C	0.327653	0.064404	-0.000089
C36	C	-0.211771	0.058896	0.045091
C37	C	-0.262187	0.058383	0.045083
C38	C	-0.262184	0.058357	-0.045363
C39	C	-0.211773	0.058872	-0.045356
C40	C	-0.186567	0.059139	-0.000124
O41	O	-0.132020	0.059689	-0.083780
O42	O	-0.131977	0.059711	0.083559
C43	C	0.095746	0.062035	0.045118
C44	C	0.120950	0.062279	-0.000101
C45	C	0.095742	0.062008	-0.045325
C46	C	0.171364	0.062797	-0.000098
C47	C	0.196572	0.063068	0.045125
C48	C	0.171366	0.062820	0.090345
C49	C	0.120954	0.062306	0.090341
C50	C	0.120948	0.062255	-0.090545
C51	C	0.171360	0.062770	-0.090537
C52	C	0.196568	0.063041	-0.045314
C53	C	0.574732	-0.026628	-0.000125
C54	C	0.574179	-0.080282	-0.000129
C55	C	0.614884	-0.419105	-0.000113
C56	C	0.612833	-0.620765	-0.000105
O57	O	0.650055	-0.652028	-0.000092
N58	N	0.568497	-0.639880	-0.000096
C59	C	0.524670	-0.608577	-0.000085
O60	O	0.486912	-0.629462	-0.000072
C61	C	0.526721	-0.406918	-0.000089
C62	C	0.571061	-0.387806	-0.000103
C63	C	0.659220	-0.399993	-0.000126
C64	C	0.659732	-0.349581	-0.000131
C65	C	0.615909	-0.318282	-0.000122
C66	C	0.571573	-0.337394	-0.000108
C67	C	0.482895	-0.375616	-0.000074
C68	C	0.483412	-0.325199	-0.000074
C69	C	0.527751	-0.306087	-0.000089
C70	C	0.528262	-0.255683	-0.000103
N71	N	0.572598	-0.236568	-0.000112
C72	C	0.616422	-0.267867	-0.000122
C73	C	0.523596	-0.714450	-0.000084
C74	C	0.523083	-0.764865	-0.000084
C75	C	0.611246	-0.777049	-0.000103
C76	C	0.611759	-0.726634	-0.000107
C77	C	0.567932	-0.695335	-0.000093
C78	C	0.617494	-0.161999	-0.000132
C79	C	0.618002	-0.111582	-0.000138
C80	C	0.529839	-0.099401	-0.000117
C81	C	0.529331	-0.149814	-0.000113
C82	C	0.573162	-0.181112	-0.000118
O83	O	0.491060	-0.224392	-0.000111
O84	O	0.654174	-0.246972	-0.000124
C85	C	0.614372	-0.469517	-0.000108
C86	C	0.570036	-0.488630	-0.000094
C87	C	0.526213	-0.457331	-0.000085
C88	C	0.569523	-0.539044	-0.000094
C89	C	0.613346	-0.570343	-0.000103
C90	C	0.657683	-0.551228	-0.000113
C91	C	0.658195	-0.500817	-0.000117
C92	C	0.481876	-0.476446	-0.000075
C93	C	0.481368	-0.526858	-0.000071
C94	C	0.525191	-0.558157	-0.000081
C95	C	0.658949	0.057570	-0.000132
C96	C	0.712605	0.058113	-0.000140
C97	C	0.566353	0.150181	-0.000100
C98	C	0.566906	0.203836	-0.000093
N99	N	0.570505	0.061745	-0.129360
C100	C	0.541454	0.032657	-0.526251
C101	C	0.541431	0.032643	-0.317374
O102	O	0.516699	0.007870	-0.290379
N103	N	0.570524	0.061753	-0.291239
C104	C	0.599628	0.090865	-0.317327
O105	O	0.624376	0.115620	-0.290305
C106	C	0.599653	0.090875	-0.526204
C107	C	0.570554	0.061768	-0.552336
C108	C	0.512358	0.003551	-0.552383
C109	C	0.512362	0.003557	-0.604600
C110	C	0.541462	0.032668	-0.630684
C111	C	0.570558	0.061773	-0.604552
C112	C	0.628758	0.119984	-0.552291
C113	C	0.628763	0.119984	-0.604513
C114	C	0.599664	0.090876	-0.630645
C115	C	0.599662	0.090890	-0.682853
N116	N	0.570569	0.061781	-0.708987
C117	C	0.541469	0.032670	-0.682903
C118	C	0.599612	0.090858	-0.207664
C119	C	0.599605	0.090856	-0.155445
C120	C	0.541409	0.032634	-0.155495
C121	C	0.541414	0.032639	-0.207715
C122	C	0.570519	0.061749	-0.233798
C123	C	0.541479	0.032684	-0.792561
C124	C	0.541484	0.032694	-0.844782
C125	C	0.599682	0.090914	-0.844727
C126	C	0.599675	0.090906	-0.792511
C127	C	0.570572	0.061787	-0.766429
O128	O	0.624386	0.115646	-0.709879
O129	O	0.516732	0.007910	-0.709934
C130	C	0.541450	0.032651	-0.474035
C131	C	0.570546	0.061756	-0.447903
C132	C	0.599646	0.090868	-0.473987
C133	C	0.570539	0.061755	-0.395684
C134	C	0.541439	0.032643	-0.369600
C135	C	0.512346	0.003534	-0.395734
C136	C	0.512350	0.003540	-0.447951
C137	C	0.628739	0.119977	-0.447853
C138	C	0.628732	0.119969	-0.395637
C139	C	0.599632	0.090858	-0.369552
N140	N	0.570584	0.061805	0.129134
H141	H	-0.282718	0.058139	-0.082183
F142	F	0.630649	0.121882	-0.764698
H143	H	0.652465	0.143688	-0.625748
H144	H	0.517781	0.008973	-0.771331
F145	F	0.326040	0.064420	0.093270
F146	F	-0.184952	0.059180	0.093231
F147	F	-0.289008	0.058127	0.093218
F148	F	0.481393	-0.027426	-0.632405
F149	F	0.046951	0.061565	0.138470
F150	F	0.094137	0.062048	0.138474
H151	H	0.445259	-0.542414	-0.000064
H152	H	0.693365	-0.576721	-0.000122
F153	F	0.510511	0.001713	-0.872590
H154	H	0.423807	0.065416	0.081964
H155	H	0.488661	-0.020157	-0.531151
F156	F	0.430090	0.065438	-0.093438
F157	F	0.630648	0.121897	-0.872497
F158	F	0.436764	-0.291891	-0.000059
H159	H	0.191876	0.062972	-0.127366
H160	H	0.652427	0.143677	-0.374364
F161	F	0.326038	0.064364	-0.093448
H162	H	0.694908	-0.425472	-0.000132
F163	F	0.435231	-0.443141	-0.000064
F164	F	0.482140	-0.170155	-0.000106
H165	H	0.517719	0.008937	-0.228988
H166	H	0.494160	-0.073909	-0.000111
F167	F	0.510439	0.001651	-0.127725
H168	H	0.486977	-0.780421	-0.000081
F169	F	0.705387	-0.480483	-0.000130
F170	F	0.435702	-0.395945	-0.000057
F171	F	0.658950	-0.706298	-0.000122
F172	F	0.664144	-0.195301	-0.000138
H173	H	0.040633	0.061414	-0.127384
H174	H	-0.050817	0.060479	-0.127387
H175	H	0.623294	0.114564	-0.134173
F176	F	0.481379	-0.027441	-0.475756
H177	H	0.488650	-0.020167	-0.374487
H178	H	0.623314	0.114564	-0.228896
F179	F	0.659712	0.150963	-0.475607
F180	F	0.659721	0.150974	-0.524491
F181	F	0.706924	-0.329247	-0.000136
F182	F	-0.057098	0.060502	0.138462
H183	H	0.191898	0.063044	0.127167
F184	F	-0.184949	0.059137	-0.093487
H185	H	0.100429	0.062032	-0.127372
H186	H	0.654110	-0.096024	-0.000151
F187	F	0.476946	-0.681145	-0.000069
F188	F	0.657886	-0.810369	-0.000112
