data_functionalizedCrystal
_audit_creation_method	'MofGen! by Chris Wilmer'
_symmetry_space_group_name_H-M	'P1'
_symmetry_Int_Tables_number	1
_symmetry_cell_setting	triclinic
loop_
_symmetry_equiv_pos_as_xyz
  x,y,z
_cell_length_a	19.077105
_cell_length_b	14.908520
_cell_length_c	14.908858
_cell_angle_alpha	89.778004
_cell_angle_beta	90.849215
_cell_angle_gamma	91.150228
loop_
_atom_site_label
_atom_site_type_symbol
_atom_site_fract_x
_atom_site_fract_y
_atom_site_fract_z
Zn1	Zn	1.032621	-0.378634	-0.585050
Zn2	Zn	1.532621	0.121366	-0.085050
Zn3	Zn	1.031758	-0.537647	-0.443317
Zn4	Zn	1.531758	-0.037647	0.056683
Zn5	Zn	0.921809	-0.381979	-0.428699
Zn6	Zn	1.421809	0.118021	0.071301
Zn7	Zn	0.908314	-0.522932	-0.586931
Zn8	Zn	1.408314	-0.022932	-0.086931
O9	O	0.973625	-0.455298	-0.510999
O10	O	1.473625	0.044702	-0.010999
O11	O	1.130543	-0.404486	-0.571580
O12	O	1.630543	0.095514	-0.071580
O13	O	1.022460	-0.524555	-0.315841
O14	O	1.522460	-0.024555	0.184159
O15	O	0.942517	-0.255999	-0.442535
O16	O	1.442517	0.244001	0.057465
O17	O	1.129910	-0.521312	-0.467449
O18	O	1.629910	-0.021312	0.032551
O19	O	1.023930	-0.253542	-0.557405
O20	O	1.523930	0.246458	-0.057405
O21	O	0.941680	-0.410187	-0.305102
O22	O	1.441680	0.089813	0.194898
O23	O	0.821982	-0.395918	-0.444358
O24	O	1.321982	0.104082	0.055642
O25	O	0.919517	-0.496232	-0.712218
O26	O	1.419517	0.003768	-0.212218
O27	O	0.812067	-0.499476	-0.560610
O28	O	1.312067	0.000524	-0.060610
O29	O	1.010844	-0.390218	-0.710836
O30	O	1.510844	0.109782	-0.210836
O31	O	1.009375	-0.661231	-0.469272
O32	O	1.509375	-0.161231	0.030728
O33	O	0.918681	-0.650420	-0.574784
O34	O	1.418681	-0.150420	-0.074784
C35	C	0.791605	-0.446464	-0.501102
C36	C	1.291605	0.053536	-0.001102
C37	C	0.713733	-0.442705	-0.496891
C38	C	1.213733	0.057295	0.003109
C39	C	0.672005	-0.494947	-0.555353
C40	C	1.172005	0.005053	-0.055353
C41	C	0.598838	-0.491403	-0.551400
C42	C	1.098838	0.008597	-0.051400
C43	C	0.567399	-0.435621	-0.488979
C44	C	1.067399	0.064379	0.011021
C45	C	0.609132	-0.383372	-0.430514
C46	C	1.109132	0.116628	0.069486
C47	C	0.682299	-0.386912	-0.434472
C48	C	1.182299	0.113088	0.065528
C49	C	0.349126	-0.419238	-0.470663
C50	C	0.849126	0.080762	0.029337
C51	C	0.275954	-0.415704	-0.466707
C52	C	0.775954	0.084296	0.033293
C53	C	0.265664	-0.523734	-0.587594
C54	C	0.765664	-0.023734	-0.087594
C55	C	0.338833	-0.527273	-0.591544
C56	C	0.838833	-0.027273	-0.091544
C57	C	0.380560	-0.475021	-0.533082
C58	C	0.880560	0.024979	-0.033082
N59	N	0.492610	-0.431999	-0.484934
N60	N	0.992610	0.068001	0.015066
N61	N	0.455348	-0.478639	-0.537131
N62	N	0.955348	0.021361	-0.037131
C63	C	0.962488	-0.688375	-0.523839
C64	C	1.462488	-0.188375	-0.023839
C65	C	0.957786	-0.788088	-0.529366
C66	C	1.457786	-0.288088	-0.029366
C67	C	1.043479	-0.986654	-0.429978
C68	C	1.543479	-0.486654	0.070022
C69	C	1.039063	-1.080343	-0.435168
C70	C	1.539063	-0.580343	0.064832
C71	C	0.944544	-1.069158	-0.544939
C72	C	1.444544	-0.569158	-0.044939
C73	C	0.948959	-0.975468	-0.539749
C74	C	1.448959	-0.475468	-0.039749
C75	C	0.998428	-0.934220	-0.482266
C76	C	1.498428	-0.434220	0.017734
C77	C	1.002839	-0.840529	-0.477072
C78	C	1.502839	-0.340529	0.022928
C79	C	0.908324	-0.829345	-0.586847
C80	C	1.408324	-0.329345	-0.086847
C81	C	0.903908	-0.923034	-0.592037
C82	C	1.403908	-0.423034	-0.092037
C83	C	1.156357	-0.464167	-0.520935
C84	C	1.656357	0.035833	-0.020935
C85	C	1.234226	-0.467947	-0.525169
C86	C	1.734226	0.032053	-0.025169
C87	C	0.963772	-0.441211	-0.744987
C88	C	1.463772	0.058789	-0.244987
C89	C	0.959573	-0.435207	-0.844699
C90	C	1.459573	0.064793	-0.344699
C91	C	0.984825	-0.221310	-0.498130
C92	C	1.484825	0.278690	0.001870
C93	C	0.989597	-0.121599	-0.492646
C94	C	1.489597	0.378401	0.007354
C95	C	0.911602	-0.367203	-0.979646
C96	C	1.411602	0.132797	-0.479646
C97	C	0.915544	-0.372842	-0.885958
C98	C	1.415544	0.127158	-0.385958
C99	C	0.999663	-0.491936	-0.897135
C100	C	1.499663	0.008064	-0.397135
C101	C	0.995720	-0.486297	-0.990824
C102	C	1.495720	0.013703	-0.490824
C103	C	0.951687	-0.423930	-1.032076
C104	C	1.451687	0.076070	-0.532076
C105	C	0.947741	-0.418296	-1.125766
C106	C	1.447741	0.081704	-0.625766
C107	C	1.031862	-0.537385	-1.136941
C108	C	1.531862	-0.037385	-0.636941
C109	C	1.035805	-0.543024	-1.043253
C110	C	1.535805	-0.043024	-0.543253
C111	C	0.983484	-0.469268	-0.277920
C112	C	1.483484	0.030732	0.222080
C113	C	0.987831	-0.475025	-0.178202
C114	C	1.487831	0.024975	0.321798
H115	H	0.697597	-0.540375	-0.606180
H116	H	1.197597	-0.040375	-0.106180
C117	C	0.395020	-0.361769	-0.406356
C118	C	0.895020	0.138231	0.093644
H119	H	0.443098	-0.371854	-0.417656
H120	H	0.943098	0.128146	0.082344
H121	H	0.384936	-0.377852	-0.346129
H122	H	0.884936	0.122148	0.153871
H123	H	0.385347	-0.300136	-0.415624
H124	H	0.885347	0.199864	0.084376
H125	H	0.882904	-0.326647	-0.843273
H126	H	1.382904	0.173353	-0.343273
H127	H	1.083753	-0.953070	-0.383166
H128	H	1.583753	-0.453070	0.116834
H129	H	1.075750	-1.123032	-0.392591
H130	H	1.575750	-0.623032	0.107409
C131	C	0.849495	-0.968413	-0.655259
C132	C	1.349495	-0.468413	-0.155259
H133	H	0.853314	-1.031721	-0.650858
H134	H	1.353314	-0.531721	-0.150858
H135	H	0.857887	-0.949890	-0.715250
H136	H	1.357887	-0.449890	-0.215250
H137	H	0.803708	-0.951631	-0.638659
H138	H	1.303708	-0.451631	-0.138659
C139	C	0.552937	-0.548871	-0.615704
C140	C	1.052937	-0.048871	-0.115704
H141	H	0.504859	-0.538767	-0.604416
H142	H	1.004859	-0.038767	-0.104416
H143	H	0.562603	-0.610501	-0.606443
H144	H	1.062603	-0.110501	-0.106443
H145	H	0.563024	-0.532783	-0.675935
H146	H	1.063024	-0.032783	-0.175935
C147	C	0.373410	-0.588628	-0.660212
C148	C	0.873410	-0.088628	-0.160212
H149	H	0.338079	-0.619229	-0.694470
H150	H	0.838079	-0.119229	-0.194470
H151	H	0.401532	-0.631112	-0.629528
H152	H	0.901532	-0.131112	-0.129528
H153	H	0.401945	-0.553388	-0.699014
H154	H	0.901945	-0.053388	-0.199014
C155	C	1.084234	-0.611626	-0.997871
C156	C	1.584234	-0.111626	-0.497871
H157	H	1.080838	-0.606865	-0.934564
H158	H	1.580838	-0.106865	-0.434564
H159	H	1.131288	-0.599865	-1.015061
H160	H	1.631288	-0.099865	-0.515061
H161	H	1.070441	-0.670481	-1.015981
H162	H	1.570441	-0.170481	-0.515981
H163	H	0.231683	-0.566274	-0.635192
H164	H	0.731683	-0.066274	-0.135192
H165	H	0.904274	-1.102758	-0.591746
H166	H	1.404274	-0.602758	-0.091746
C167	C	1.048096	-0.560529	-0.851747
C168	C	1.548096	-0.060529	-0.351747
H169	H	1.044700	-0.555761	-0.788441
H170	H	1.544700	-0.055761	-0.288441
H171	H	1.095149	-0.548761	-0.868938
H172	H	1.595149	-0.048761	-0.368938
H173	H	1.034309	-0.619388	-0.869851
H174	H	1.534309	-0.119388	-0.369851
C175	C	0.241373	-0.354335	-0.398047
C176	C	0.741373	0.145665	0.101953
H177	H	0.276702	-0.323715	-0.363802
H178	H	0.776702	0.176285	0.136198
H179	H	0.212837	-0.389563	-0.359244
H180	H	0.712837	0.110437	0.140756
H181	H	0.213252	-0.311853	-0.428745
H182	H	0.713252	0.188147	0.071255
H183	H	0.911887	-0.367513	-1.159351
H184	H	1.411887	0.132487	-0.659351
C185	C	1.075960	-0.599785	-1.194615
C186	C	1.575960	-0.099785	-0.694615
H187	H	1.067310	-0.587493	-1.256322
H188	H	1.567310	-0.087493	-0.756322
H189	H	1.063471	-0.660486	-1.182016
H190	H	1.563471	-0.160486	-0.682016
H191	H	1.124309	-0.589857	-1.181098
H192	H	1.624309	-0.089857	-0.681098
H193	H	0.875746	-0.316424	-1.013234
H194	H	1.375746	0.183576	-0.513234
C195	C	0.574552	-0.322016	-0.361850
C196	C	1.074552	0.177984	0.138150
H197	H	0.525000	-0.327397	-0.367857
H198	H	1.025000	0.172603	0.132143
H199	H	0.588863	-0.261544	-0.372403
H200	H	1.088863	0.238456	0.127597
H201	H	0.588452	-0.339270	-0.302919
H202	H	1.088452	0.160730	0.197081
C203	C	0.858767	-0.771666	-0.644369
C204	C	1.358767	-0.271666	-0.144369
H205	H	0.868483	-0.709959	-0.633051
H206	H	1.368483	-0.209959	-0.133051
H207	H	0.811534	-0.785594	-0.629485
H208	H	1.311534	-0.285594	-0.129485
H209	H	0.865724	-0.783851	-0.706063
H210	H	1.365724	-0.283851	-0.206063
H211	H	0.716273	-0.344366	-0.386871
H212	H	1.216273	0.155634	0.113129
H213	H	1.043117	-0.806946	-0.430263
H214	H	1.543117	-0.306946	0.069737
