data_functionalizedCrystal
_audit_creation_method	'MofGen! by Chris Wilmer'
_symmetry_space_group_name_H-M	'P1'
_symmetry_Int_Tables_number	1
_symmetry_cell_setting	triclinic
loop_
_symmetry_equiv_pos_as_xyz
  x,y,z
_cell_length_a	18.101398
_cell_length_b	18.101397
_cell_length_c	18.101389
_cell_angle_alpha	90.021047
_cell_angle_beta	90.024327
_cell_angle_gamma	90.015732
loop_
_atom_site_label
_atom_site_type_symbol
_atom_site_fract_x
_atom_site_fract_y
_atom_site_fract_z
Zn1	Zn	1.132176	-0.295001	0.418825
Zn2	Zn	1.465509	0.038333	0.752159
Zn3	Zn	1.798842	0.371666	1.085492
Zn4	Zn	1.132095	-0.418826	0.294978
Zn5	Zn	1.465428	-0.085493	0.628311
Zn6	Zn	1.798761	0.247840	0.961645
Zn7	Zn	1.008335	-0.294993	0.294986
Zn8	Zn	1.341668	0.038340	0.628320
Zn9	Zn	1.675001	0.371674	0.961653
Zn10	Zn	1.008308	-0.418795	0.418767
Zn11	Zn	1.341642	-0.085461	0.752100
Zn12	Zn	1.674975	0.247872	1.085433
O13	O	1.070228	-0.356904	0.356889
O14	O	1.403562	-0.023570	0.690222
O15	O	1.736895	0.309763	1.023556
O16	O	1.235798	-0.311443	0.402418
O17	O	1.569131	0.021890	0.735751
O18	O	1.902465	0.355224	1.069084
O19	O	1.115655	-0.402410	0.191346
O20	O	1.448988	-0.069076	0.524680
O21	O	1.782321	0.264257	0.858013
O22	O	1.024807	-0.191361	0.311442
O23	O	1.358141	0.141972	0.644775
O24	O	1.691474	0.475305	0.978109
O25	O	1.235738	-0.402417	0.311428
O26	O	1.569072	-0.069084	0.644761
O27	O	1.902405	0.264250	0.978094
O28	O	1.115793	-0.191367	0.402426
O29	O	1.449126	0.141967	0.735759
O30	O	1.782460	0.475300	1.069092
O31	O	1.024729	-0.311430	0.191352
O32	O	1.358062	0.021903	0.524686
O33	O	1.691395	0.355237	0.858019
O34	O	0.904698	-0.311399	0.311385
O35	O	1.238032	0.021934	0.644718
O36	O	1.571365	0.355268	0.978052
O37	O	1.024763	-0.402363	0.522407
O38	O	1.358096	-0.069030	0.855741
O39	O	1.691429	0.264304	1.189074
O40	O	0.904679	-0.402356	0.402326
O41	O	1.238012	-0.069022	0.735659
O42	O	1.571346	0.264311	1.068992
O43	O	1.115767	-0.311412	0.522450
O44	O	1.449101	0.021921	0.855784
O45	O	1.782434	0.355254	1.189117
O46	O	1.115629	-0.522455	0.311371
O47	O	1.448963	-0.189122	0.644704
O48	O	1.782296	0.144212	0.978037
O49	O	1.024684	-0.522432	0.402318
O50	O	1.358017	-0.189098	0.735651
O51	O	1.691351	0.144235	1.068984
C52	C	0.877818	-0.356874	0.356850
C53	C	1.211151	-0.023540	0.690184
C54	C	1.544484	0.309793	1.023517
C55	C	0.795504	-0.356879	0.356851
C56	C	1.128837	-0.023545	0.690185
C57	C	1.462170	0.309788	1.023518
C58	C	1.070165	-0.549314	0.356853
C59	C	1.403498	-0.215981	0.690186
C60	C	1.736832	0.117352	1.023520
C61	C	1.070206	-0.631628	0.356863
C62	C	1.403539	-0.298295	0.690196
C63	C	1.736872	0.035038	1.023529
C64	C	0.496413	-0.356925	0.356914
C65	C	0.829746	-0.023592	0.690247
C66	C	1.163079	0.309742	1.023580
C67	C	0.527725	-0.299411	0.299975
C68	C	0.861059	0.033922	0.633309
C69	C	1.194392	0.367255	0.966642
C70	C	0.613344	-0.299566	0.299732
C71	C	0.946677	0.033768	0.633066
C72	C	1.280010	0.367101	0.966399
C73	C	0.644795	-0.356901	0.356883
C74	C	0.978129	-0.023568	0.690216
C75	C	1.311462	0.309765	1.023549
C76	C	0.613692	-0.434909	0.335555
C77	C	0.947025	-0.101576	0.668888
C78	C	1.280358	0.231757	1.002221
C79	C	0.528046	-0.434590	0.335159
C80	C	0.861380	-0.101256	0.668492
C81	C	1.194713	0.232077	1.001825
C82	C	0.528024	-0.337109	0.435314
C83	C	0.861357	-0.003775	0.768647
C84	C	1.194690	0.329558	1.101981
C85	C	0.613674	-0.335371	0.434886
C86	C	0.947008	-0.002038	0.768220
C87	C	1.280341	0.331295	1.101553
C88	C	0.728655	-0.356893	0.356867
C89	C	1.061988	-0.023559	0.690200
C90	C	1.395321	0.309774	1.023533
C91	C	0.412553	-0.356939	0.356928
C92	C	0.745887	-0.023605	0.690261
C93	C	1.079220	0.309728	1.023595
C94	C	1.070300	-0.930719	0.356930
C95	C	1.403634	-0.597386	0.690263
C96	C	1.736967	-0.264053	1.023597
C97	C	1.127361	-0.899378	0.299555
C98	C	1.460694	-0.566045	0.632889
C99	C	1.794027	-0.232711	0.966222
C100	C	1.127559	-0.813759	0.299704
C101	C	1.460892	-0.480426	0.633037
C102	C	1.794225	-0.147093	0.966371
C103	C	1.070253	-0.782337	0.356896
C104	C	1.403587	-0.449003	0.690229
C105	C	1.736920	-0.115670	1.023563
C106	C	1.091409	-0.813359	0.434959
C107	C	1.424743	-0.480025	0.768292
C108	C	1.758076	-0.146692	1.101625
C109	C	1.091851	-0.899004	0.434646
C110	C	1.425184	-0.565670	0.767979
C111	C	1.758517	-0.232337	1.101313
C112	C	0.991931	-0.899218	0.336918
C113	C	1.325265	-0.565885	0.670251
C114	C	1.658598	-0.232552	1.003584
C115	C	0.992318	-0.813569	0.335175
C116	C	1.325652	-0.480235	0.668509
C117	C	1.658985	-0.146902	1.001842
C118	C	1.070226	-0.698477	0.356881
C119	C	1.403559	-0.365144	0.690215
C120	C	1.736892	-0.031811	1.023548
C121	C	1.070330	-1.014579	0.356950
C122	C	1.403663	-0.681245	0.690283
C123	C	1.736996	-0.347912	1.023617
C124	C	1.263390	-0.356934	0.356928
C125	C	1.596724	-0.023601	0.690262
C126	C	1.930057	0.309732	1.023595
C127	C	1.345704	-0.356948	0.356945
C128	C	1.679038	-0.023614	0.690278
C129	C	2.012371	0.309719	1.023612
C130	C	1.070271	-0.356885	0.550051
C131	C	1.403605	-0.023552	0.883384
C132	C	1.736938	0.309782	1.216718
C133	C	1.070289	-0.356877	0.632365
C134	C	1.403623	-0.023544	0.965698
C135	C	1.736956	0.309790	1.299032
C136	C	1.070312	-0.163742	0.356941
C137	C	1.403645	0.169592	0.690275
C138	C	1.736979	0.502925	1.023608
C139	C	1.070348	-0.081428	0.356964
C140	C	1.403681	0.251906	0.690297
C141	C	1.737015	0.585239	1.023630
C142	C	1.070228	-0.356869	0.164479
C143	C	1.403562	-0.023536	0.497812
C144	C	1.736895	0.309798	0.831145
C145	C	1.070354	-0.356668	0.082165
C146	C	1.403687	-0.023335	0.415498
C147	C	1.737020	0.309998	0.748832
C148	C	1.070333	-0.356738	0.931456
C149	C	1.403666	-0.023405	1.264790
C150	C	1.736999	0.309928	1.598123
C151	C	1.012878	-0.413780	0.900104
C152	C	1.346211	-0.080447	1.233437
C153	C	1.679544	0.252887	1.566771
C154	C	1.013033	-0.414045	0.814486
C155	C	1.346366	-0.080711	1.147819
C156	C	1.679700	0.252622	1.481152
C157	C	1.070310	-0.356807	0.783074
C158	C	1.403644	-0.023474	1.116407
C159	C	1.736977	0.309860	1.449740
C160	C	1.148340	-0.377998	0.814178
C161	C	1.481673	-0.044664	1.147512
C162	C	1.815006	0.288669	1.480845
C163	C	1.148020	-0.378372	0.899823
C164	C	1.481353	-0.045039	1.233157
C165	C	1.814686	0.288295	1.566490
C166	C	1.050437	-0.278379	0.899884
C167	C	1.383770	0.054954	1.233218
C168	C	1.717103	0.388288	1.566551
C169	C	1.048701	-0.278832	0.814233
C170	C	1.382034	0.054502	1.147566
C171	C	1.715367	0.387835	1.480900
C172	C	1.070303	-0.356845	0.699214
C173	C	1.403636	-0.023511	1.032547
C174	C	1.736969	0.309822	1.365881
C175	C	1.070345	-0.356702	1.015316
C176	C	1.403679	-0.023369	1.348649
C177	C	1.737012	0.309964	1.681983
H178	H	0.634373	-0.241719	0.313102
H179	H	0.967707	0.091614	0.646435
H180	H	1.301040	0.424948	0.979768
F181	F	0.937017	-0.396622	0.927005
F182	F	1.270351	-0.063288	1.260338
F183	F	1.603684	0.270045	1.593671
F184	F	1.099411	-0.220332	0.786294
F185	F	1.432745	0.113002	1.119627
F186	F	1.766078	0.446335	1.452961
H187	H	1.149135	-0.918930	0.451597
H188	H	1.482468	-0.585597	0.784931
H189	H	1.815801	-0.252264	1.118264
H190	H	0.635110	-0.452008	0.278859
H191	H	0.968443	-0.118675	0.612192
H192	H	1.301776	0.214659	0.945526
F193	F	0.971463	-0.787072	0.260089
F194	F	1.304797	-0.453739	0.593422
F195	F	1.638130	-0.120405	0.926755
F196	F	0.973641	-0.257946	0.787667
F197	F	1.306974	0.075387	1.121001
F198	F	1.640308	0.408720	1.454334
F199	F	0.500970	-0.492498	0.386996
F200	F	0.834303	-0.159164	0.720329
F201	F	1.167636	0.174169	1.053663
F202	F	0.933758	-0.785621	0.385795
F203	F	1.267091	-0.452288	0.719128
F204	F	1.600424	-0.118954	1.052462
H205	H	1.165496	-0.434671	0.792734
H206	H	1.498829	-0.101337	1.126067
H207	H	1.832163	0.231996	1.459400
F208	F	1.039881	-0.926103	0.492421
F209	F	1.373215	-0.592769	0.825755
F210	F	1.706548	-0.259436	1.159088
F211	F	0.641657	-0.386137	0.493310
F212	F	0.974991	-0.052804	0.826643
F213	F	1.308324	0.280529	1.159977
H214	H	1.185095	-0.920853	0.312645
H215	H	1.518428	-0.587520	0.645978
H216	H	1.851761	-0.254186	0.979312
F217	F	0.936361	-0.925713	0.391536
F218	F	1.269694	-0.592379	0.724869
F219	F	1.603028	-0.259046	1.058203
H220	H	0.955171	-0.400783	0.793454
H221	H	1.288505	-0.067450	1.126787
H222	H	1.621838	0.265883	1.460120
F223	F	0.640312	-0.492420	0.388067
F224	F	0.973645	-0.159087	0.721401
F225	F	1.306978	0.174246	1.054734
H226	H	0.506441	-0.281216	0.454705
H227	H	0.839775	0.052117	0.788038
H228	H	1.173108	0.385451	1.121371
F229	F	1.203435	-0.786913	0.317015
F230	F	1.536768	-0.453580	0.650349
F231	F	1.870102	-0.120247	0.983682
H232	H	1.051120	-0.793003	0.478857
H233	H	1.384453	-0.459670	0.812190
H234	H	1.717786	-0.126337	1.145524
H235	H	1.025884	-0.471508	0.921627
H236	H	1.359217	-0.138174	1.254960
H237	H	1.692550	0.195159	1.588294
F238	F	1.105134	-0.222829	0.926388
F239	F	1.438467	0.110504	1.259721
F240	F	1.771800	0.443837	1.593054
H241	H	0.634008	-0.277966	0.450968
H242	H	0.967341	0.055367	0.784302
H243	H	1.300674	0.388701	1.117635
F244	F	0.501557	-0.391861	0.490766
F245	F	0.834891	-0.058528	0.824100
F246	F	1.168224	0.274805	1.157433
H247	H	1.192280	-0.338629	0.920566
H248	H	1.525613	-0.005296	1.253899
H249	H	1.858946	0.328038	1.587232
F250	F	0.966774	-0.927516	0.263805
F251	F	1.300107	-0.594183	0.597138
F252	F	1.633440	-0.260850	0.930472
F253	F	0.500825	-0.223569	0.317256
F254	F	0.834159	0.109765	0.650589
F255	F	1.167492	0.443098	0.983922
H256	H	1.114323	-0.792787	0.241822
H257	H	1.447656	-0.459454	0.575155
H258	H	1.780990	-0.126120	0.908489
F259	F	1.165446	-0.785259	0.457491
F260	F	1.498779	-0.451926	0.790824
F261	F	1.832112	-0.118592	1.124158
H262	H	1.114285	-0.920010	0.241500
H263	H	1.447618	-0.586677	0.574833
H264	H	1.780952	-0.253344	0.908167
H265	H	1.026170	-0.472127	0.794001
H266	H	1.359503	-0.138794	1.127334
H267	H	1.692836	0.194540	1.460667
F268	F	1.170062	-0.453243	0.925942
F269	F	1.503396	-0.119910	1.259275
F270	F	1.836729	0.213424	1.592609
F271	F	1.205799	-0.325401	0.787590
F272	F	1.539132	0.007933	1.120923
F273	F	1.872466	0.341266	1.454256
F274	F	0.977356	-0.253146	0.928097
F275	F	1.310689	0.080187	1.261430
F276	F	1.644023	0.413520	1.594764
H277	H	0.506178	-0.312363	0.242220
H278	H	0.839512	0.020971	0.575553
H279	H	1.172845	0.354304	0.908886
H280	H	0.508038	-0.451397	0.277844
H281	H	0.841371	-0.118063	0.611178
H282	H	1.174704	0.215270	0.944511
F283	F	0.640084	-0.316684	0.223799
F284	F	0.973418	0.016649	0.557132
F285	F	1.306751	0.349983	0.890465
