data_functionalizedCrystal
_audit_creation_method	'MofGen! by Chris Wilmer'
_symmetry_space_group_name_H-M	'P1'
_symmetry_Int_Tables_number	1
_symmetry_cell_setting	triclinic
loop_
_symmetry_equiv_pos_as_xyz
  x,y,z
_cell_length_a	15.538191
_cell_length_b	14.853567
_cell_length_c	13.330367
_cell_angle_alpha	90.000844
_cell_angle_beta	90.008791
_cell_angle_gamma	65.453512
loop_
_atom_site_label
_atom_site_type_symbol
_atom_site_fract_x
_atom_site_fract_y
_atom_site_fract_z
O1	O	-1.249533	0.292685	-0.083456
O2	O	-0.975411	0.188632	-0.083448
O3	O	-1.119794	0.374293	-0.083455
O4	O	-1.105150	0.107024	-0.083449
O5	O	-1.119773	0.374289	0.083392
O6	O	-0.975390	0.188628	0.083399
O7	O	-1.249512	0.292681	0.083391
Cu8	Cu	-1.112449	0.240654	0.098630
Cu9	Cu	-1.112474	0.240659	-0.098686
O10	O	-1.105129	0.107020	0.083399
C11	C	-0.940319	0.177744	-0.000023
C12	C	-0.835787	0.145316	-0.000021
N13	N	-1.112438	0.240654	0.237411
C14	C	-1.284604	0.303569	-0.000035
C15	C	-1.389135	0.335997	-0.000045
C16	C	-0.547575	0.467476	-0.000044
C17	C	-0.449350	0.436983	-0.000044
C18	C	-0.427131	0.265464	-0.000040
C19	C	-0.525357	0.295943	-0.000035
C20	C	-0.585572	0.396951	-0.000038
C21	C	-0.563354	0.225418	-0.000029
C22	C	-0.661571	0.255895	-0.000029
C23	C	-0.721792	0.356897	-0.000036
C24	C	-0.683789	0.427428	-0.000039
C25	C	-0.503137	0.124411	-0.000033
C26	C	-0.541133	0.053885	-0.000027
C27	C	-0.639353	0.084362	-0.000020
C28	C	-0.699574	0.185365	-0.000026
C29	C	-0.677355	0.013832	-0.000017
C30	C	-0.775573	0.044309	-0.000017
C31	C	-0.797791	0.215842	-0.000027
C32	C	-1.119120	0.407662	-0.000034
C33	C	-1.117132	0.507093	-0.000043
C34	C	-1.105803	0.073651	-0.000024
C35	C	-1.107791	-0.025780	-0.000022
C36	C	-1.022959	0.888697	-0.000021
C37	C	-1.194490	0.966314	-0.000026
C38	C	-1.196360	0.872895	-0.000032
C39	C	-1.111528	0.787371	-0.000031
C40	C	-1.024826	0.795267	-0.000024
C41	C	-1.283060	0.864991	-0.000029
C42	C	-1.284933	0.771567	-0.000034
C43	C	-1.200100	0.686041	-0.000040
C44	C	-1.113395	0.693942	-0.000034
C45	C	-1.028563	0.608418	-0.000033
C46	C	-0.941857	0.616316	-0.000034
C47	C	-0.939993	0.709742	-0.000030
C48	C	-1.201964	0.592616	-0.000044
C49	C	-1.030430	0.514989	-0.000036
N50	N	-1.112492	0.240669	-0.237468
C51	C	-1.048538	0.158471	0.710037
C52	C	-1.176435	0.322862	0.709999
C53	C	-1.176424	0.322861	0.604981
C54	C	-1.112470	0.240664	0.552486
C55	C	-1.048527	0.158467	0.605009
C56	C	-1.240373	0.405052	0.552449
C57	C	-1.240365	0.405054	0.447424
C58	C	-1.176406	0.322859	0.394928
C59	C	-1.112460	0.240659	0.447458
C60	C	-1.048506	0.158462	0.394963
C61	C	-0.984554	0.076264	0.447491
C62	C	-0.984568	0.076271	0.552513
C63	C	-1.176392	0.322851	0.289906
C64	C	-1.048495	0.158457	0.289935
H65	H	-0.846822	0.298092	-0.000023
H66	H	-1.292447	0.471972	0.595194
C67	C	-0.927811	0.003281	0.713519
C68	C	-0.914286	-0.014080	0.610253
H69	H	-0.884427	-0.052502	0.749166
H70	H	-0.917506	0.060076	0.730732
H71	H	-0.990669	0.014027	0.730694
H72	H	-0.851429	-0.024818	0.593077
H73	H	-0.924584	-0.070891	0.593033
H74	H	-0.801766	0.381710	-0.000049
H75	H	-0.932486	0.009336	0.404738
H76	H	-1.263556	1.035951	-0.000019
H77	H	-0.996413	0.091524	0.247200
H78	H	-0.952365	0.895133	-0.000026
H79	H	-1.352125	0.934629	-0.000021
C80	C	-1.302819	0.485339	0.300422
C81	C	-1.246680	0.413194	0.232168
H82	H	-1.346208	0.541118	0.264775
H83	H	-1.336735	0.458888	0.341369
H84	H	-1.263583	0.504951	0.341402
H85	H	-1.285915	0.393577	0.191193
H86	H	-1.212761	0.439649	0.191204
H87	H	-1.292437	0.471984	0.404663
C88	C	-0.860972	0.818491	-0.000003
C89	C	-0.844693	0.718428	-0.000017
H90	H	-0.802137	0.823853	0.000015
H91	H	-0.895902	0.849744	-0.058185
H92	H	-0.895905	0.849731	0.058183
H93	H	-0.809765	0.687189	-0.058206
H94	H	-0.809748	0.687161	0.058171
C95	C	-0.695899	0.593932	-0.000049
C96	C	-0.749988	0.538458	-0.000046
H97	H	-0.736769	0.662473	-0.000063
H98	H	-0.657127	0.578483	0.058134
H99	H	-0.657130	0.578471	-0.058233
H100	H	-0.788752	0.553913	0.058143
H101	H	-0.788776	0.553913	-0.058235
H102	H	-0.996467	0.091549	0.752808
H103	H	-0.423163	0.099600	-0.000035
C104	C	-0.417797	-0.079902	-0.085787
C105	C	-0.474937	-0.057138	-0.000019
H106	H	-0.376928	-0.148443	-0.085774
H107	H	-0.456583	-0.064457	-0.143959
H108	H	-0.381115	-0.042254	-0.085783
H109	H	-0.511624	-0.094781	-0.000027
H110	H	-0.436146	-0.072594	0.058168
C111	C	-0.351776	0.502228	0.085722
C112	C	-0.407584	0.514514	-0.000046
H113	H	-0.325988	0.550088	0.085714
H114	H	-0.389623	0.510556	0.143894
H115	H	-0.301857	0.437711	0.085714
H116	H	-0.457507	0.579029	-0.000035
H117	H	-0.369735	0.506194	-0.058233
H118	H	-1.228509	0.389782	0.752744
H119	H	-0.596607	0.549726	-0.000041
C120	C	-1.386554	0.711548	-0.085819
C121	C	-1.380236	0.762887	-0.000044
H122	H	-1.445389	0.706184	-0.085823
H123	H	-1.382268	0.746390	-0.143986
H124	H	-1.336296	0.647244	-0.085809
H125	H	-1.430491	0.827193	-0.000058
H126	H	-1.384532	0.728046	0.058138
H127	H	-0.628314	-0.068408	-0.000024
H128	H	-1.272558	0.586189	-0.000036
H129	H	-0.378091	0.183224	-0.000041
H130	H	-0.961348	0.445357	-0.000039
C131	C	-0.873154	-0.020924	-0.085773
C132	C	-0.817348	-0.033209	-0.000004
H133	H	-0.898940	-0.068786	-0.085767
H134	H	-0.923064	0.043585	-0.085771
H135	H	-0.835298	-0.029258	-0.143950
H136	H	-0.855206	-0.024868	0.058174
H137	H	-0.767431	-0.097735	0.000004
H138	H	-0.872787	0.546671	-0.000026
