data_functionalizedCrystal
_audit_creation_method	'MofGen! by Chris Wilmer'
_symmetry_space_group_name_H-M	'P1'
_symmetry_Int_Tables_number	1
_symmetry_cell_setting	triclinic
loop_
_symmetry_equiv_pos_as_xyz
  x,y,z
_cell_length_a	10.654549
_cell_length_b	15.186229
_cell_length_c	10.654550
_cell_angle_alpha	90.003596
_cell_angle_beta	84.484854
_cell_angle_gamma	90.002342
loop_
_atom_site_label
_atom_site_type_symbol
_atom_site_fract_x
_atom_site_fract_y
_atom_site_fract_z
O1	O	1.667840	0.073208	0.176395
O2	O	1.302361	0.073214	0.193202
O3	O	1.493503	0.073205	0.002059
O4	O	1.476697	0.073217	0.367538
O5	O	1.493490	-0.073252	0.002056
O6	O	1.302348	-0.073243	0.193199
O7	O	1.667827	-0.073249	0.176392
Zn8	Zn	1.485085	-0.096499	0.184795
Zn9	Zn	1.485102	0.096464	0.184799
O10	O	1.476684	-0.073240	0.367535
C11	C	1.255557	-0.000014	0.191966
C12	C	1.116113	-0.000011	0.188275
N13	N	1.485083	-0.228192	0.184792
C14	C	0.905599	-0.000012	0.297338
C15	C	1.036619	-0.000006	0.300816
C16	C	1.064581	-0.000013	0.072247
C17	C	0.933563	-0.000012	0.068770
C18	C	1.569750	-0.453919	0.100183
C19	C	1.569754	-0.546108	0.100180
C20	C	1.400438	-0.546110	0.269405
C21	C	1.400429	-0.453922	0.269401
C22	C	1.485092	-0.407829	0.184792
C23	C	1.485105	-0.592206	0.184793
C24	C	1.485109	-0.692162	0.184790
C25	C	1.485087	-0.307866	0.184792
C26	C	1.714631	-0.000019	0.177628
C27	C	1.854074	-0.000016	0.181319
C28	C	1.492263	-0.000023	-0.044740
C29	C	1.488571	-0.000021	-0.184183
N30	N	1.485115	0.228157	0.184792
C31	C	1.601113	-0.000023	-0.263669
C32	C	1.597636	-0.000012	-0.394690
C33	C	1.369067	-0.000002	-0.366727
C34	C	1.372544	-0.000006	-0.235708
C35	C	1.477925	-0.000010	0.414334
C36	C	1.481617	-0.000006	0.553777
H37	H	0.840882	-0.000014	0.388983
H38	H	1.689279	-0.000011	-0.459403
H39	H	1.331485	-0.416393	0.338300
H40	H	1.638688	-0.583632	0.031283
H41	H	1.274601	0.000009	-0.408694
H42	H	1.129316	-0.000012	-0.019386
H43	H	1.280894	-0.000002	-0.170987
H44	H	1.638686	-0.416392	0.031287
H45	H	1.078563	-0.000002	0.395290
H46	H	0.891613	-0.000013	-0.025712
H47	H	1.331509	-0.583648	0.338294
H48	H	1.695589	-0.000033	-0.221722
