data_functionalizedCrystal
_audit_creation_method	'MofGen! by Chris Wilmer'
_symmetry_space_group_name_H-M	'P1'
_symmetry_Int_Tables_number	1
_symmetry_cell_setting	triclinic
loop_
_symmetry_equiv_pos_as_xyz
  x,y,z
_cell_length_a	10.723024
_cell_length_b	10.723022
_cell_length_c	9.198806
_cell_angle_alpha	89.997988
_cell_angle_beta	89.996352
_cell_angle_gamma	84.467548
loop_
_atom_site_label
_atom_site_type_symbol
_atom_site_fract_x
_atom_site_fract_y
_atom_site_fract_z
O1	O	1.657187	0.175025	-0.120879
O2	O	1.294034	0.191778	-0.120884
O3	O	1.483988	0.001825	-0.120876
O4	O	1.467233	0.364978	-0.120887
O5	O	1.483973	0.001824	0.120909
O6	O	1.294019	0.191777	0.120901
O7	O	1.657172	0.175024	0.120906
Cu8	Cu	1.475594	0.183401	0.142981
Cu9	Cu	1.475612	0.183401	-0.142958
O10	O	1.467218	0.364977	0.120898
C11	C	1.247527	0.190558	0.000008
C12	C	1.108973	0.186911	0.000007
C13	C	1.482762	-0.044675	0.000015
C14	C	1.479115	-0.183229	0.000010
C15	C	1.033990	0.293199	0.000002
C16	C	0.890786	0.289431	0.000001
C17	C	1.703679	0.176243	0.000011
C18	C	1.842233	0.179891	0.000003
C19	C	1.369575	-0.231790	0.000006
C20	C	1.365803	-0.374993	0.000001
C21	C	1.468444	0.411477	0.000004
C22	C	1.472091	0.550031	-0.000000
N23	N	1.475591	0.183400	0.344095
N24	N	1.475625	0.183393	-0.344072
C25	C	1.555347	0.103292	0.416295
C26	C	1.555366	0.103288	0.583707
H27	H	1.075811	0.386984	0.000008
Br28	Br	0.783401	0.441098	-0.000023
H29	H	1.272016	-0.416805	-0.000010
H30	H	1.565883	-0.408165	-0.000051
H31	H	0.906659	0.088896	-0.000003
H32	H	1.067151	0.093125	-0.000028
H33	H	1.623653	0.034709	0.645796
Br34	Br	1.217911	-0.124394	0.000020
H35	H	1.570103	-0.247672	0.000016
Br36	Br	1.361816	0.297723	0.552459
H37	H	1.623611	0.034707	0.354171
H38	H	1.407318	0.251975	0.406220
