data_functionalizedCrystal
_audit_creation_method	'MofGen! by Chris Wilmer'
_symmetry_space_group_name_H-M	'P1'
_symmetry_Int_Tables_number	1
_symmetry_cell_setting	triclinic
loop_
_symmetry_equiv_pos_as_xyz
  x,y,z
_cell_length_a	25.639239
_cell_length_b	18.215407
_cell_length_c	25.639234
_cell_angle_alpha	89.990915
_cell_angle_beta	90.021106
_cell_angle_gamma	89.965694
loop_
_atom_site_label
_atom_site_type_symbol
_atom_site_fract_x
_atom_site_fract_y
_atom_site_fract_z
Zn1	Zn	-0.208263	-1.124938	0.295593
Zn2	Zn	0.125070	-0.791605	0.628927
Zn3	Zn	0.458403	-0.458271	0.962260
Zn4	Zn	-0.295686	-1.124836	0.208158
Zn5	Zn	0.037648	-0.791502	0.541491
Zn6	Zn	0.370981	-0.458169	0.874824
Zn7	Zn	-0.208259	-1.001889	0.208174
Zn8	Zn	0.125074	-0.668556	0.541507
Zn9	Zn	0.458407	-0.335223	0.874840
Zn10	Zn	-0.295663	-1.001807	0.295564
Zn11	Zn	0.037670	-0.668474	0.628897
Zn12	Zn	0.371004	-0.335140	0.962230
O13	O	-0.251968	-1.063368	0.251872
O14	O	0.081365	-0.730034	0.585205
O15	O	0.414699	-0.396701	0.918539
O16	O	-0.219871	-1.227909	0.284000
O17	O	0.113462	-0.894575	0.617334
O18	O	0.446795	-0.561242	0.950667
O19	O	-0.284096	-1.108518	0.134995
O20	O	0.049237	-0.775185	0.468328
O21	O	0.382570	-0.441851	0.801661
O22	O	-0.135095	-1.018289	0.219789
O23	O	0.198239	-0.684956	0.553122
O24	O	0.531572	-0.351623	0.886456
O25	O	-0.284100	-1.227833	0.219762
O26	O	0.049233	-0.894500	0.553095
O27	O	0.382567	-0.561167	0.886428
O28	O	-0.135098	-1.108693	0.284016
O29	O	0.198236	-0.775360	0.617349
O30	O	0.531569	-0.442026	0.950683
O31	O	-0.219865	-1.018190	0.135006
O32	O	0.113469	-0.684857	0.468340
O33	O	0.446802	-0.351523	0.801673
O34	O	-0.219843	-0.898894	0.219761
O35	O	0.113491	-0.565561	0.553094
O36	O	0.446824	-0.232228	0.886427
O37	O	-0.284061	-1.018149	0.368733
O38	O	0.049272	-0.684816	0.702066
O39	O	0.382605	-0.351482	1.035400
O40	O	-0.284057	-0.898834	0.283966
O41	O	0.049276	-0.565500	0.617299
O42	O	0.382609	-0.232167	0.950632
O43	O	-0.219849	-1.108613	0.368755
O44	O	0.113484	-0.775280	0.702088
O45	O	0.446817	-0.441946	1.035421
O46	O	-0.368848	-1.108438	0.219733
O47	O	-0.035515	-0.775105	0.553067
O48	O	0.297819	-0.441771	0.886400
O49	O	-0.368831	-1.018050	0.283950
O50	O	-0.035498	-0.684716	0.617284
O51	O	0.297836	-0.351383	0.950617
C52	C	-0.251947	-0.872161	0.251862
C53	C	0.081386	-0.538828	0.585195
C54	C	0.414719	-0.205495	0.918529
C55	C	-0.251951	-0.790362	0.251870
C56	C	0.081382	-0.457029	0.585203
C57	C	0.414715	-0.123696	0.918537
C58	C	-0.218572	-0.602207	0.285371
C59	C	0.114761	-0.268873	0.618704
C60	C	0.448095	0.064460	0.952038
C61	C	-0.218575	-0.525348	0.285372
C62	C	0.114759	-0.192015	0.618706
C63	C	0.448092	0.141319	0.952039
C64	C	-0.285356	-0.525280	0.218377
C65	C	0.047978	-0.191947	0.551711
C66	C	0.381311	0.141386	0.885044
C67	C	-0.285350	-0.602138	0.218374
C68	C	0.047983	-0.268804	0.551707
C69	C	0.381317	0.064529	0.885040
C70	C	-0.251959	-0.640599	0.251874
C71	C	0.081374	-0.307266	0.585207
C72	C	0.414708	0.026068	0.918540
C73	C	-0.251967	-0.486883	0.251878
C74	C	0.081366	-0.153549	0.585212
C75	C	0.414699	0.179784	0.918545
C76	C	-0.251971	-0.403549	0.251880
C77	C	0.081363	-0.070216	0.585213
C78	C	0.414696	0.263118	0.918546
C79	C	-0.251955	-0.723938	0.251872
C80	C	0.081378	-0.390605	0.585205
C81	C	0.414712	-0.057271	0.918538
C82	C	-0.387810	-1.063244	0.251848
C83	C	-0.054477	-0.729910	0.585181
C84	C	0.278856	-0.396577	0.918515
C85	C	-0.445924	-1.063258	0.251855
C86	C	-0.112591	-0.729925	0.585189
C87	C	0.220742	-0.396591	0.918522
C88	C	-0.806284	-1.110556	0.218491
C89	C	-0.472950	-0.777222	0.551825
C90	C	-0.139617	-0.443889	0.885158
C91	C	-0.860888	-1.110584	0.218498
C92	C	-0.527555	-0.777251	0.551832
C93	C	-0.194221	-0.443917	0.885165
O94	O	-0.889121	-1.150670	0.190105
O95	O	-0.555788	-0.817337	0.523438
O96	O	-0.222455	-0.484003	0.856771
N97	N	-0.888207	-1.063497	0.251907
N98	N	-0.554874	-0.730164	0.585240
N99	N	-0.221540	-0.396830	0.918573
C100	C	-0.860919	-1.016383	0.285314
C101	C	-0.527585	-0.683050	0.618647
C102	C	-0.194252	-0.349717	0.951981
O103	O	-0.889170	-0.976335	0.313732
O104	O	-0.555836	-0.643002	0.647065
O105	O	-0.222503	-0.309668	0.980398
C106	C	-0.806315	-1.016359	0.285309
C107	C	-0.472982	-0.683026	0.618643
C108	C	-0.139649	-0.349692	0.951976
C109	C	-0.778999	-1.063444	0.251895
C110	C	-0.445666	-0.730111	0.585228
C111	C	-0.112333	-0.396777	0.918562
C112	C	-0.778968	-1.157638	0.185080
C113	C	-0.445634	-0.824304	0.518413
C114	C	-0.112301	-0.490971	0.851747
C115	C	-0.724367	-1.157608	0.185073
C116	C	-0.391034	-0.824275	0.518406
C117	C	-0.057700	-0.490941	0.851739
C118	C	-0.697083	-1.110496	0.218476
C119	C	-0.363749	-0.777163	0.551810
C120	C	-0.030416	-0.443830	0.885143
C121	C	-0.724399	-1.063414	0.251887
C122	C	-0.391065	-0.730081	0.585221
C123	C	-0.057732	-0.396748	0.918554
C124	C	-0.779028	-0.969250	0.318719
C125	C	-0.445695	-0.635916	0.652052
C126	C	-0.112361	-0.302583	0.985386
C127	C	-0.724421	-0.969230	0.318712
C128	C	-0.391088	-0.635896	0.652045
C129	C	-0.057754	-0.302563	0.985378
C130	C	-0.697105	-1.016315	0.285297
C131	C	-0.363772	-0.682982	0.618631
C132	C	-0.030438	-0.349648	0.951964
C133	C	-0.642514	-1.016273	0.285284
C134	C	-0.309180	-0.682940	0.618617
C135	C	0.024153	-0.349607	0.951950
N136	N	-0.615195	-1.063360	0.251875
N137	N	-0.281862	-0.730027	0.585208
N138	N	0.051472	-0.396694	0.918542
C139	C	-0.642479	-1.110472	0.218471
C140	C	-0.309146	-0.777139	0.551805
C141	C	0.024187	-0.443805	0.885138
C142	C	-0.975589	-1.016439	0.285322
C143	C	-0.642256	-0.683105	0.618656
C144	C	-0.308923	-0.349772	0.951989
C145	C	-1.030192	-1.016459	0.285325
C146	C	-0.696858	-0.683125	0.618658
C147	C	-0.363525	-0.349792	0.951991
C148	C	-1.030157	-1.110661	0.218509
C149	C	-0.696824	-0.777327	0.551843
C150	C	-0.363490	-0.443994	0.885176
C151	C	-0.975554	-1.110637	0.218505
C152	C	-0.642220	-0.777303	0.551838
C153	C	-0.308887	-0.443970	0.885171
C154	C	-0.948270	-1.063526	0.251914
C155	C	-0.614937	-0.730193	0.585247
C156	C	-0.281604	-0.396859	0.918580
C157	C	-0.527814	-1.110406	0.218458
C158	C	-0.194481	-0.777072	0.551791
C159	C	0.138852	-0.443739	0.885124
C160	C	-0.473209	-1.110370	0.218452
C161	C	-0.139876	-0.777036	0.551785
C162	C	0.193458	-0.443703	0.885118
C163	C	-0.473248	-1.016171	0.285269
C164	C	-0.139915	-0.682837	0.618602
C165	C	0.193419	-0.349504	0.951935
C166	C	-0.527849	-1.016204	0.285273
C167	C	-0.194515	-0.682870	0.618606
C168	C	0.138818	-0.349537	0.951940
C169	C	-0.555130	-1.063327	0.251866
C170	C	-0.221797	-0.729994	0.585199
C171	C	0.111536	-0.396660	0.918533
O172	O	-0.614246	-0.976210	0.313664
O173	O	-0.280912	-0.642877	0.646998
O174	O	0.052421	-0.309543	0.980331
O175	O	-0.614222	-1.150520	0.190064
O176	O	-0.280888	-0.817187	0.523397
O177	O	0.052445	-0.483854	0.856730
C178	C	-0.115595	-1.063512	0.251908
C179	C	0.217739	-0.730178	0.585241
C180	C	0.551072	-0.396845	0.918574
C181	C	-0.057481	-1.063573	0.251923
C182	C	0.275853	-0.730240	0.585256
C183	C	0.609186	-0.396907	0.918589
C184	C	-0.251953	-1.063383	0.388245
C185	C	0.081380	-0.730050	0.721578
C186	C	0.414714	-0.396717	1.054912
C187	C	-0.251947	-1.063390	0.446359
C188	C	0.081387	-0.730057	0.779693
C189	C	0.414720	-0.396723	1.113026
C190	C	-0.251983	-0.255320	0.251881
C191	C	0.081350	0.078013	0.585215
C192	C	0.414684	0.411346	0.918548
C193	C	-0.251975	-0.337119	0.251882
C194	C	0.081358	-0.003786	0.585215
C195	C	0.414692	0.329547	0.918549
C196	C	-0.251945	-1.063394	0.116030
C197	C	0.081388	-0.730061	0.449363
C198	C	0.414722	-0.396728	0.782696
C199	C	-0.251804	-1.063530	0.057916
C200	C	0.081529	-0.730197	0.391249
C201	C	0.414863	-0.396864	0.724583
C202	C	-0.285316	-1.016334	0.697536
C203	C	0.048017	-0.683001	1.030869
C204	C	0.381350	-0.349668	1.364202
C205	C	-0.285328	-1.016322	0.642931
C206	C	0.048005	-0.682988	0.976265
C207	C	0.381339	-0.349655	1.309598
O208	O	-0.313752	-0.976243	0.614680
O209	O	0.019581	-0.642910	0.948014
O210	O	0.352915	-0.309576	1.281347
N211	N	-0.251905	-1.063418	0.615633
N212	N	0.081429	-0.730085	0.948966
N213	N	0.414762	-0.396751	1.282300
C214	C	-0.218463	-1.110525	0.642942
C215	C	0.114870	-0.777192	0.976275
C216	C	0.448203	-0.443858	1.309609
O217	O	-0.190035	-1.150583	0.614709
O218	O	0.143298	-0.817249	0.948042
O219	O	0.476632	-0.483916	1.281375
C220	C	-0.218449	-1.110534	0.697545
C221	C	0.114884	-0.777200	1.030879
C222	C	0.448217	-0.443867	1.364212
C223	C	-0.251879	-1.063439	0.724841
C224	C	0.081455	-0.730106	1.058174
C225	C	0.414788	-0.396773	1.391508
C226	C	-0.318743	-0.969243	0.724831
C227	C	0.014591	-0.635910	1.058165
C228	C	0.347924	-0.302577	1.391498
C229	C	-0.318731	-0.969258	0.779432
C230	C	0.014602	-0.635924	1.112765
C231	C	0.347935	-0.302591	1.446098
C232	C	-0.285294	-1.016363	0.806737
C233	C	0.048040	-0.683029	1.140070
C234	C	0.381373	-0.349696	1.473404
C235	C	-0.251868	-1.063454	0.779441
C236	C	0.081466	-0.730120	1.112775
C237	C	0.414799	-0.396787	1.446108
C238	C	-0.185006	-1.157637	0.724853
C239	C	0.148327	-0.824303	1.058187
C240	C	0.481661	-0.490970	1.391520
C241	C	-0.184994	-1.157641	0.779460
C242	C	0.148339	-0.824307	1.112794
C243	C	0.481672	-0.490974	1.446127
C244	C	-0.218424	-1.110547	0.806756
C245	C	0.114909	-0.777213	1.140089
C246	C	0.448243	-0.443880	1.473422
C247	C	-0.218419	-1.110573	0.861347
C248	C	0.114914	-0.777239	1.194680
C249	C	0.448248	-0.443906	1.528014
N250	N	-0.251842	-1.063476	0.888645
N251	N	0.081491	-0.730143	1.221979
N252	N	0.414824	-0.396810	1.555312
C253	C	-0.285280	-1.016371	0.861340
C254	C	0.048054	-0.683038	1.194674
C255	C	0.381387	-0.349705	1.528007
C256	C	-0.218495	-1.110502	0.528271
C257	C	0.114839	-0.777169	0.861605
C258	C	0.448172	-0.443836	1.194938
C259	C	-0.218511	-1.110498	0.473669
C260	C	0.114822	-0.777165	0.807002
C261	C	0.448156	-0.443831	1.140336
C262	C	-0.285375	-1.016293	0.473662
C263	C	0.047958	-0.682960	0.806996
C264	C	0.381292	-0.349627	1.140329
C265	C	-0.285361	-1.016302	0.528266
C266	C	0.047972	-0.682969	0.861599
C267	C	0.381306	-0.349635	1.194932
C268	C	-0.251918	-1.063406	0.555570
C269	C	0.081415	-0.730073	0.888903
C270	C	0.414748	-0.396739	1.222236
C271	C	-0.285254	-1.016405	0.976005
C272	C	0.048079	-0.683071	1.309339
C273	C	0.381413	-0.349738	1.642672
C274	C	-0.285241	-1.016425	1.030611
C275	C	0.048092	-0.683092	1.363944
C276	C	0.381425	-0.349758	1.697277
C277	C	-0.218376	-1.110627	1.030613
C278	C	0.114958	-0.777293	1.363946
C279	C	0.448291	-0.443960	1.697280
C280	C	-0.218390	-1.110609	0.976012
C281	C	0.114943	-0.777276	1.309346
C282	C	0.448277	-0.443943	1.642679
C283	C	-0.251831	-1.063492	0.948710
C284	C	0.081502	-0.730159	1.282043
C285	C	0.414836	-0.396826	1.615376
O286	O	-0.190008	-1.150629	0.889633
O287	O	0.143326	-0.817295	1.222966
O288	O	0.476659	-0.483962	1.556299
O289	O	-0.313699	-0.976314	0.889580
O290	O	0.019635	-0.642980	1.222914
O291	O	0.352968	-0.309647	1.556247
H292	H	-0.550021	-1.148780	0.191256
H293	H	-0.216687	-0.815446	0.524589
H294	H	0.116646	-0.482113	0.857922
C295	C	-0.945871	-1.161639	0.182164
C296	C	-0.612538	-0.828306	0.515498
C297	C	-0.279204	-0.494972	0.848831
C298	C	-0.914575	-1.119993	0.148613
C299	C	-0.581241	-0.786660	0.481947
C300	C	-0.247908	-0.453327	0.815280
C301	C	-0.887232	-1.166954	0.115124
C302	C	-0.553898	-0.833620	0.448458
C303	C	-0.220565	-0.500287	0.781791
H304	H	-0.924499	-1.193692	0.202121
H305	H	-0.591166	-0.860359	0.535454
H306	H	-0.257832	-0.527026	0.868788
H307	H	-0.969929	-1.189684	0.162241
H308	H	-0.636596	-0.856351	0.495574
H309	H	-0.303262	-0.523017	0.828908
H310	H	-0.890519	-1.091961	0.168535
H311	H	-0.557186	-0.758627	0.501868
H312	H	-0.223853	-0.425294	0.835201
H313	H	-0.935934	-1.087942	0.128645
H314	H	-0.602600	-0.754609	0.461979
H315	H	-0.269267	-0.421275	0.795312
H316	H	-0.911290	-1.194999	0.095201
H317	H	-0.577956	-0.861665	0.428534
H318	H	-0.244623	-0.528332	0.761868
H319	H	-0.865863	-1.199005	0.135085
H320	H	-0.532529	-0.865671	0.468419
H321	H	-0.199196	-0.532338	0.801752
H322	H	-0.865998	-1.138704	0.092353
H323	H	-0.532664	-0.805371	0.425686
H324	H	-0.199331	-0.472037	0.759020
C325	C	-0.443458	-1.161415	0.182192
C326	C	-0.110125	-0.828081	0.515525
C327	C	0.223209	-0.494748	0.848859
C328	C	-0.389798	-1.151296	0.189321
C329	C	-0.056464	-0.817963	0.522655
C330	C	0.276869	-0.484630	0.855988
C331	C	-0.362377	-1.198298	0.155925
C332	C	-0.029044	-0.864964	0.489258
C333	C	0.304289	-0.531631	0.822592
H334	H	-0.452306	-1.210888	0.189844
H335	H	-0.118973	-0.877555	0.523177
H336	H	0.214360	-0.544221	0.856510
H337	H	-0.452403	-1.150677	0.147046
H338	H	-0.119070	-0.817344	0.480379
H339	H	0.214263	-0.484010	0.813713
H340	H	-0.380856	-1.162039	0.224459
H341	H	-0.047523	-0.828706	0.557793
H342	H	0.285811	-0.495372	0.891126
H343	H	-0.380934	-1.101833	0.181666
H344	H	-0.047601	-0.768499	0.514999
H345	H	0.285733	-0.435166	0.848333
H346	H	-0.371323	-1.187560	0.120779
H347	H	-0.037990	-0.854227	0.454112
H348	H	0.295344	-0.520893	0.787446
H349	H	-0.371230	-1.247768	0.163579
H350	H	-0.037897	-0.914435	0.496913
H351	H	0.295437	-0.581101	0.830246
H352	H	-0.325966	-1.191434	0.160754
H353	H	0.007367	-0.858101	0.494087
H354	H	0.340700	-0.524767	0.827421
H355	H	-0.702129	-1.195951	0.157865
H356	H	-0.368796	-0.862617	0.491199
H357	H	-0.035463	-0.529284	0.824532
C358	C	-0.321569	-0.965126	0.557966
C359	C	0.011764	-0.631793	0.891299
C360	C	0.345098	-0.298460	1.224632
C361	C	-0.291955	-0.918001	0.589324
C362	C	0.041378	-0.584667	0.922658
C363	C	0.374712	-0.251334	1.255991
C364	C	-0.325293	-0.870852	0.616694
C365	C	0.008040	-0.537519	0.950027
C366	C	0.341374	-0.204185	1.283360
H367	H	-0.341497	-0.937004	0.533939
H368	H	-0.008164	-0.603671	0.867273
H369	H	0.325170	-0.270338	1.200606
H370	H	-0.344340	-0.993236	0.579295
H371	H	-0.011006	-0.659903	0.912629
H372	H	0.322327	-0.326569	1.245962
H373	H	-0.269193	-0.889894	0.567996
H374	H	0.064140	-0.556560	0.901330
H375	H	0.397473	-0.223227	1.234663
H376	H	-0.272028	-0.946102	0.613360
H377	H	0.061305	-0.612769	0.946693
H378	H	0.394639	-0.279436	1.280027
H379	H	-0.348064	-0.898962	0.638023
H380	H	-0.014730	-0.565629	0.971357
H381	H	0.318603	-0.232295	1.304690
H382	H	-0.345219	-0.842735	0.592664
H383	H	-0.011886	-0.509402	0.925997
H384	H	0.321447	-0.176069	1.259330
H385	H	-0.305205	-0.838877	0.637977
H386	H	0.028128	-0.505543	0.971310
H387	H	0.361461	-0.172210	1.304644
C388	C	-0.321676	-0.483481	0.182099
C389	C	0.011657	-0.150148	0.515432
C390	C	0.344990	0.183186	0.848766
C391	C	-0.355241	-0.439360	0.211648
C392	C	-0.021908	-0.106026	0.544982
C393	C	0.311425	0.227307	0.878315
C394	C	-0.388713	-0.400853	0.178248
C395	C	-0.055380	-0.067519	0.511581
C396	C	0.277953	0.265814	0.844915
H397	H	-0.301708	-0.453444	0.159345
H398	H	0.031625	-0.120110	0.492678
H399	H	0.364959	0.213223	0.826012
H400	H	-0.341590	-0.517332	0.162157
H401	H	-0.008257	-0.183998	0.495490
H402	H	0.325077	0.149335	0.828823
H403	H	-0.335330	-0.405513	0.231582
H404	H	-0.001996	-0.072180	0.564915
H405	H	0.331337	0.261154	0.898248
H406	H	-0.375221	-0.469379	0.234401
H407	H	-0.041888	-0.136045	0.567735
H408	H	0.291445	0.197288	0.901068
H409	H	-0.408627	-0.434704	0.158306
H410	H	-0.075294	-0.101370	0.491639
H411	H	0.258040	0.231963	0.824972
H412	H	-0.368741	-0.370820	0.155495
H413	H	-0.035407	-0.037486	0.488829
H414	H	0.297926	0.295847	0.822162
H415	H	-0.411494	-0.370917	0.198292
H416	H	-0.078161	-0.037584	0.531626
H417	H	0.255172	0.295749	0.864959
H418	H	-0.801177	-1.196005	0.157879
H419	H	-0.467843	-0.862672	0.491212
H420	H	-0.134510	-0.529339	0.824545
H421	H	-0.953378	-0.978070	0.312526
H422	H	-0.620044	-0.644736	0.645860
H423	H	-0.286711	-0.311403	0.979193
H424	H	-0.191262	-1.148866	0.550499
H425	H	0.142071	-0.815533	0.883832
H426	H	0.475404	-0.482199	1.217166
H427	H	-0.345971	-0.930880	0.702605
H428	H	-0.012638	-0.597547	1.035939
H429	H	0.320695	-0.264214	1.369272
H430	H	-0.312538	-0.633398	0.191093
H431	H	0.020795	-0.300064	0.524427
H432	H	0.354128	0.033269	0.857760
C433	C	-0.694894	-0.918001	0.355007
C434	C	-0.361561	-0.584667	0.688341
C435	C	-0.028228	-0.251334	1.021674
C436	C	-0.730508	-0.876765	0.384260
C437	C	-0.397175	-0.543431	0.717593
C438	C	-0.063842	-0.210098	1.050926
C439	C	-0.703329	-0.829559	0.417695
C440	C	-0.369995	-0.496226	0.751028
C441	C	-0.036662	-0.162893	1.084362
H442	H	-0.673562	-0.946039	0.377849
H443	H	-0.340229	-0.612705	0.711182
H444	H	-0.006895	-0.279372	1.044515
H445	H	-0.673636	-0.885900	0.335000
H446	H	-0.340303	-0.552567	0.668333
H447	H	-0.006969	-0.219234	1.001666
H448	H	-0.751758	-0.908861	0.404266
H449	H	-0.418424	-0.575527	0.737599
H450	H	-0.085091	-0.242194	1.070932
H451	H	-0.751842	-0.848712	0.361432
H452	H	-0.418508	-0.515378	0.694765
H453	H	-0.085175	-0.182045	1.028099
H454	H	-0.682070	-0.797459	0.397687
H455	H	-0.348737	-0.464126	0.731021
H456	H	-0.015404	-0.130793	1.064354
H457	H	-0.681998	-0.857603	0.440533
H458	H	-0.348664	-0.524270	0.773866
H459	H	-0.015331	-0.190937	1.107199
H460	H	-0.727489	-0.801571	0.437543
H461	H	-0.394155	-0.468237	0.770876
H462	H	-0.060822	-0.134904	1.104210
C463	C	-0.182347	-0.643872	0.321822
C464	C	0.150986	-0.310539	0.655156
C465	C	0.484319	0.022795	0.988489
C466	C	-0.193796	-0.625169	0.373533
C467	C	0.139537	-0.291836	0.706866
C468	C	0.472870	0.041498	1.040200
C469	C	-0.160431	-0.663527	0.407126
C470	C	0.172902	-0.330194	0.740459
C471	C	0.506236	0.003139	1.073792
H472	H	-0.187093	-0.695156	0.317096
H473	H	0.146241	-0.361822	0.650429
H474	H	0.479574	-0.028489	0.983762
H475	H	-0.147199	-0.631283	0.314264
H476	H	0.186134	-0.297950	0.647597
H477	H	0.519467	0.035384	0.980930
H478	H	-0.228936	-0.637763	0.381089
H479	H	0.104398	-0.304430	0.714422
H480	H	0.437731	0.028903	1.047756
H481	H	-0.189048	-0.573892	0.378276
H482	H	0.144285	-0.240559	0.711610
H483	H	0.477619	0.092775	1.044943
H484	H	-0.125283	-0.650938	0.399567
H485	H	0.208050	-0.317605	0.732900
H486	H	0.541384	0.015729	1.066234
H487	H	-0.165179	-0.714809	0.402394
H488	H	0.168155	-0.381476	0.735728
H489	H	0.501488	-0.048142	1.069061
H490	H	-0.168191	-0.650838	0.442215
H491	H	0.165142	-0.317504	0.775548
H492	H	0.498476	0.015829	1.108881
H493	H	-0.157784	-1.195986	0.702639
H494	H	0.175549	-0.862653	1.035972
H495	H	0.508882	-0.529320	1.369305
H496	H	-0.157758	-1.195996	0.801689
H497	H	0.175575	-0.862663	1.135022
H498	H	0.508908	-0.529330	1.468355
C499	C	-0.182412	-0.483572	0.321774
C500	C	0.150921	-0.150238	0.655107
C501	C	0.484254	0.183095	0.988441
C502	C	-0.212067	-0.439422	0.355225
C503	C	0.121267	-0.106088	0.688558
C504	C	0.454600	0.227245	1.021891
C505	C	-0.178770	-0.400920	0.388762
C506	C	0.154563	-0.067587	0.722095
C507	C	0.487897	0.265746	1.055428
H508	H	-0.162515	-0.517403	0.341773
H509	H	0.170819	-0.184070	0.675106
H510	H	0.504152	0.149263	1.008440
H511	H	-0.159611	-0.453558	0.301831
H512	H	0.173722	-0.120225	0.635165
H513	H	0.507055	0.213109	0.968498
H514	H	-0.234858	-0.469433	0.375165
H515	H	0.098475	-0.136099	0.708499
H516	H	0.431808	0.197234	1.041832
H517	H	-0.231963	-0.405576	0.335240
H518	H	0.101370	-0.072243	0.668573
H519	H	0.434704	0.261091	1.001907
H520	H	-0.155969	-0.370907	0.368819
H521	H	0.177364	-0.037573	0.702152
H522	H	0.510698	0.295760	1.035485
H523	H	-0.158874	-0.434758	0.408757
H524	H	0.174459	-0.101424	0.742090
H525	H	0.507793	0.231909	1.075423
H526	H	-0.198885	-0.370955	0.411458
H527	H	0.134448	-0.037622	0.744792
H528	H	0.467782	0.295711	1.078125
H529	H	-0.191173	-1.148963	0.953787
H530	H	0.142161	-0.815629	1.287120
H531	H	0.475494	-0.482296	1.620454
H532	H	-1.052382	-1.149024	0.191312
H533	H	-0.719049	-0.815691	0.524645
H534	H	-0.385715	-0.482358	0.857979
H535	H	-0.191153	-1.148981	1.052855
H536	H	0.142180	-0.815648	1.386188
H537	H	0.475513	-0.482314	1.719521
C538	C	-0.557535	-0.964987	0.321461
C539	C	-0.224202	-0.631653	0.654794
C540	C	0.109131	-0.298320	0.988128
C541	C	-0.588924	-0.917852	0.291835
C542	C	-0.255591	-0.584518	0.625168
C543	C	0.077742	-0.251185	0.958502
C544	C	-0.616269	-0.870658	0.325157
C545	C	-0.282935	-0.537325	0.658490
C546	C	0.050398	-0.203992	0.991824
H547	H	-0.578845	-0.993041	0.344275
H548	H	-0.245512	-0.659707	0.677609
H549	H	0.087821	-0.326374	1.010942
H550	H	-0.533478	-0.936881	0.341342
H551	H	-0.200145	-0.603548	0.674675
H552	H	0.133188	-0.270214	1.008009
H553	H	-0.612979	-0.945954	0.271963
H554	H	-0.279645	-0.612621	0.605296
H555	H	0.053688	-0.279288	0.938629
H556	H	-0.567628	-0.889781	0.269022
H557	H	-0.234294	-0.556448	0.602355
H558	H	0.099039	-0.223115	0.935688
H559	H	-0.592212	-0.842553	0.345038
H560	H	-0.258878	-0.509219	0.678372
H561	H	0.074455	-0.175886	1.011705
H562	H	-0.637576	-0.898719	0.347970
H563	H	-0.304242	-0.565385	0.681303
H564	H	0.029091	-0.232052	1.014637
H565	H	-0.637566	-0.838667	0.305061
H566	H	-0.304232	-0.505334	0.638394
H567	H	0.029101	-0.172001	0.971727
H568	H	-0.451025	-0.977811	0.312464
H569	H	-0.117691	-0.644477	0.645797
H570	H	0.215642	-0.311144	0.979131
H571	H	-1.052428	-0.978110	0.312529
H572	H	-0.719094	-0.644777	0.645862
H573	H	-0.385761	-0.311444	0.979196
H574	H	-0.312466	-0.978075	1.052832
H575	H	0.020868	-0.644742	1.386166
H576	H	0.354201	-0.311408	1.719499
C577	C	-0.321627	-0.965234	0.946462
C578	C	0.011707	-0.631900	1.279796
C579	C	0.345040	-0.298567	1.613129
C580	C	-0.350907	-0.924020	0.982063
C581	C	-0.017573	-0.590687	1.315396
C582	C	0.315760	-0.257353	1.648729
C583	C	-0.384428	-0.876889	0.954867
C584	C	-0.051095	-0.543556	1.288201
C585	C	0.282238	-0.210223	1.621534
H586	H	-0.301696	-0.933111	0.925159
H587	H	0.031637	-0.599778	1.258492
H588	H	0.364970	-0.266444	1.591826
H589	H	-0.344443	-0.993348	0.925174
H590	H	-0.011110	-0.660015	1.258507
H591	H	0.322224	-0.326681	1.591840
H592	H	-0.328093	-0.895908	1.003342
H593	H	0.005240	-0.562575	1.336676
H594	H	0.338573	-0.229241	1.670009
H595	H	-0.370848	-0.956123	1.003367
H596	H	-0.037514	-0.622790	1.336700
H597	H	0.295819	-0.289457	1.670034
H598	H	-0.407245	-0.905003	0.933579
H599	H	-0.073911	-0.571670	1.266912
H600	H	0.259422	-0.238337	1.600245
H601	H	-0.364494	-0.844771	0.933565
H602	H	-0.031161	-0.511438	1.266898
H603	H	0.302173	-0.178105	1.600232
H604	H	-0.404302	-0.848925	0.979018
H605	H	-0.070969	-0.515592	1.312351
H606	H	0.262364	-0.182258	1.645684
C607	C	-0.321620	-0.965172	0.443916
C608	C	0.011714	-0.631839	0.777249
C609	C	0.345047	-0.298505	1.110582
C610	C	-0.314462	-0.975234	0.390255
C611	C	0.018871	-0.641901	0.723589
C612	C	0.352205	-0.308567	1.056922
C613	C	-0.347834	-0.928151	0.362836
C614	C	-0.014501	-0.594817	0.696169
C615	C	0.318832	-0.261484	1.029503
H616	H	-0.356771	-0.975855	0.452793
H617	H	-0.023438	-0.642522	0.786126
H618	H	0.309895	-0.309188	1.119460
H619	H	-0.313953	-0.915719	0.452833
H620	H	0.019380	-0.582386	0.786166
H621	H	0.352713	-0.249052	1.119500
H622	H	-0.322132	-1.024676	0.381342
H623	H	0.011201	-0.691342	0.714675
H624	H	0.344534	-0.358009	1.048008
H625	H	-0.279317	-0.964546	0.381363
H626	H	0.054016	-0.631212	0.714696
H627	H	0.387349	-0.297879	1.048029
H628	H	-0.340168	-0.878698	0.371753
H629	H	-0.006835	-0.545364	0.705086
H630	H	0.326499	-0.212031	1.038420
H631	H	-0.382984	-0.938838	0.371717
H632	H	-0.049651	-0.605504	0.705051
H633	H	0.283683	-0.272171	1.038384
H634	H	-0.342979	-0.934966	0.326425
H635	H	-0.009646	-0.601633	0.659758
H636	H	0.323688	-0.268300	0.993091
H637	H	-0.801260	-0.930904	0.345926
H638	H	-0.467926	-0.597571	0.679259
H639	H	-0.134593	-0.264238	1.012593
H640	H	-0.345952	-0.930907	0.801651
H641	H	-0.012618	-0.597573	1.134984
H642	H	0.320715	-0.264240	1.468318
C643	C	-0.182163	-1.161664	0.444132
C644	C	0.151170	-0.828330	0.777465
C645	C	0.484504	-0.494997	1.110799
C646	C	-0.152871	-1.202903	0.479738
C647	C	0.180462	-0.869570	0.813072
C648	C	0.513795	-0.536236	1.146405
C649	C	-0.119374	-1.250036	0.452550
C650	C	0.213960	-0.916702	0.785884
C651	C	0.547293	-0.583369	1.119217
H652	H	-0.202111	-1.193770	0.422826
H653	H	0.131222	-0.860437	0.756159
H654	H	0.464556	-0.527104	1.089492
H655	H	-0.159353	-1.133550	0.422847
H656	H	0.173980	-0.800216	0.756180
H657	H	0.507314	-0.466883	1.089513
H658	H	-0.175678	-1.231015	0.501014
H659	H	0.157655	-0.897682	0.834348
H660	H	0.490988	-0.564348	1.167681
H661	H	-0.132912	-1.170816	0.501046
H662	H	0.200421	-0.837483	0.834379
H663	H	0.533754	-0.504149	1.167713
H664	H	-0.096564	-1.221922	0.431265
H665	H	0.236770	-0.888588	0.764599
H666	H	0.570103	-0.555255	1.097932
H667	H	-0.139326	-1.282137	0.431245
H668	H	0.194007	-0.948804	0.764578
H669	H	0.527341	-0.615471	1.097912
H670	H	-0.099492	-1.278017	0.476705
H671	H	0.233841	-0.944684	0.810038
H672	H	0.567175	-0.611350	1.143372
