data_functionalizedCrystal
_audit_creation_method	'MofGen! by Chris Wilmer'
_symmetry_space_group_name_H-M	'P1'
_symmetry_Int_Tables_number	1
_symmetry_cell_setting	triclinic
loop_
_symmetry_equiv_pos_as_xyz
  x,y,z
_cell_length_a	12.759401
_cell_length_b	14.908520
_cell_length_c	12.759393
_cell_angle_alpha	93.262473
_cell_angle_beta	89.981504
_cell_angle_gamma	93.320696
loop_
_atom_site_label
_atom_site_type_symbol
_atom_site_fract_x
_atom_site_fract_y
_atom_site_fract_z
Zn1	Zn	1.582067	-0.359100	-0.618083
Zn2	Zn	1.571798	-0.509987	-0.452530
Zn3	Zn	1.406366	-0.359147	-0.442425
Zn4	Zn	1.396199	-0.509917	-0.628166
O5	O	1.489108	-0.434538	-0.535301
O6	O	1.727726	-0.379125	-0.596130
O7	O	1.549811	-0.490026	-0.304171
O8	O	1.438226	-0.232897	-0.457278
O9	O	1.720181	-0.489981	-0.474499
O10	O	1.567313	-0.232862	-0.586332
O11	O	1.428268	-0.379205	-0.296748
O12	O	1.257997	-0.379138	-0.467055
O13	O	1.420898	-0.489862	-0.773847
O14	O	1.250528	-0.489908	-0.603519
O15	O	1.557454	-0.379058	-0.766438
O16	O	1.539952	-0.636222	-0.484277
O17	O	1.410940	-0.636171	-0.613317
C18	C	1.216142	-0.434521	-0.535286
C19	C	1.099364	-0.434536	-0.535305
C20	C	1.040634	-0.492306	-0.606257
C21	C	0.930909	-0.492318	-0.606269
C22	C	0.938654	-0.376786	-0.464369
C23	C	1.048377	-0.376771	-0.464363
C24	C	1.036161	-0.559010	-0.688179
C25	C	0.926436	-0.559022	-0.688191
C26	C	1.473257	-0.668930	-0.551010
C27	C	1.466573	-0.769204	-0.557766
C28	C	1.588489	-0.957621	-0.436200
C29	C	1.582212	-1.051837	-0.442544
C30	C	1.447746	-1.051854	-0.576803
C31	C	1.454024	-0.957638	-0.570459
C32	C	1.524397	-0.910524	-0.500154
C33	C	1.530668	-0.816307	-0.493805
C34	C	1.396208	-0.816325	-0.628069
C35	C	1.389931	-0.910541	-0.634413
C36	C	1.763140	-0.434555	-0.535317
C37	C	1.879916	-0.434563	-0.535324
C38	C	1.489187	-0.434447	-0.809328
C39	C	1.489221	-0.434408	-0.926102
C40	C	1.505049	-0.199231	-0.519553
C41	C	1.511842	-0.098957	-0.512842
C42	C	1.560336	-0.376707	-0.977108
C43	C	1.560363	-0.376674	-1.086830
C44	C	1.418158	-0.492052	-1.094531
C45	C	1.418126	-0.492079	-0.984811
C46	C	1.642440	-0.310097	-0.972663
C47	C	1.642467	-0.310064	-1.082385
C48	C	1.489093	-0.434563	-0.262335
C49	C	1.489280	-0.434348	-0.145545
H50	H	1.065707	-0.625345	-0.663346
O51	O	1.321713	-0.956411	-0.702759
C52	C	1.300410	-1.062663	-0.851789
C53	C	1.377784	-1.010790	-0.774443
H54	H	1.345715	-1.106626	-0.909778
H55	H	1.242577	-1.106907	-0.806535
H56	H	1.255654	-1.012799	-0.896357
H57	H	1.422613	-1.060589	-0.729855
H58	H	1.435548	-0.966532	-0.819756
H59	H	0.894118	-0.534082	-0.763869
O60	O	1.379536	-1.097730	-0.645151
C61	C	1.358261	-1.203991	-0.794175
C62	C	1.435621	-1.152106	-0.716827
H63	H	1.403577	-1.247952	-0.852158
H64	H	1.300431	-1.248239	-0.748924
H65	H	1.313500	-1.154135	-0.838752
H66	H	1.480455	-1.201897	-0.672230
H67	H	1.493383	-1.107844	-0.762138
H68	H	0.891935	-0.628875	-0.670947
H69	H	1.360215	-0.539062	-0.943286
H70	H	1.587966	-0.777948	-0.436557
O71	O	1.656926	-0.911989	-0.367878
C72	C	1.789570	-0.921912	-0.235315
C73	C	1.712131	-0.973700	-0.312665
H74	H	1.834208	-0.971782	-0.190639
H75	H	1.847494	-0.877752	-0.280568
H76	H	1.744275	-0.877852	-0.177421
H77	H	1.757339	-1.017809	-0.370577
H78	H	1.654208	-1.017803	-0.267343
O79	O	1.349206	-0.548047	-1.151724
C80	C	1.286185	-0.599100	-1.324164
C81	C	1.364345	-0.535652	-1.259526
H82	H	1.298383	-0.589087	-1.411333
H83	H	1.299701	-0.671871	-1.307534
H84	H	1.202548	-0.583267	-1.301462
H85	H	1.448012	-0.551403	-1.282190
H86	H	1.350738	-0.462900	-1.276162
H87	H	1.344016	-0.777969	-0.680141
O88	O	1.622262	-0.226727	-0.931508
C89	C	1.684246	-0.098001	-0.821211
C90	C	1.707243	-0.192395	-0.867766
H91	H	1.752928	-0.070223	-0.769648
H92	H	1.672942	-0.051341	-0.887541
H93	H	1.609795	-0.102587	-0.771918
H94	H	1.781703	-0.187895	-0.917048
H95	H	1.718482	-0.239018	-0.801387
H96	H	1.718025	-0.335143	-0.940308
O97	O	1.613109	-0.230797	-1.117521
C98	C	1.557761	-0.081926	-1.071152
C99	C	1.591019	-0.171636	-1.031215
H100	H	1.539871	-0.034077	-1.001396
H101	H	1.624096	-0.050518	-1.119309
H102	H	1.484617	-0.094798	-1.122332
H103	H	1.664138	-0.158842	-0.979994
H104	H	1.524622	-0.203017	-0.983116
H105	H	1.722578	-0.328777	-1.113419
H106	H	0.897128	-0.329755	-0.406611
O107	O	1.105268	-0.320615	-0.395350
C108	C	1.101371	-0.205968	-0.254668
C109	C	1.036814	-0.269539	-0.332752
H110	H	1.046054	-0.164643	-0.204052
H111	H	1.149908	-0.247269	-0.202340
H112	H	1.155960	-0.158883	-0.299865
H113	H	0.982167	-0.316637	-0.287640
H114	H	0.988347	-0.228182	-0.385079
O115	O	1.073056	-0.536726	-0.783843
C116	C	1.030035	-0.496257	-0.958201
C117	C	0.988111	-0.521462	-0.849907
H118	H	0.961376	-0.483927	-1.011650
H119	H	1.083926	-0.432587	-0.948813
H120	H	1.075847	-0.553666	-0.994333
H121	H	0.942252	-0.464111	-0.813714
H122	H	0.934274	-0.585159	-0.859362
O123	O	1.644612	-1.097611	-0.380587
C124	C	1.779403	-1.203875	-0.373798
C125	C	1.708787	-1.152087	-0.444077
H126	H	1.831290	-1.247945	-0.425101
H127	H	1.830849	-1.154036	-0.322508
H128	H	1.728283	-1.248031	-0.321746
H129	H	1.759825	-1.107929	-0.496193
H130	H	1.657334	-1.201974	-0.495297
