data_functionalizedCrystal
_audit_creation_method	'MofGen! by Chris Wilmer'
_symmetry_space_group_name_H-M	'P1'
_symmetry_Int_Tables_number	1
_symmetry_cell_setting	triclinic
loop_
_symmetry_equiv_pos_as_xyz
  x,y,z
_cell_length_a	33.428889
_cell_length_b	33.428139
_cell_length_c	33.424847
_cell_angle_alpha	60.004234
_cell_angle_beta	60.008465
_cell_angle_gamma	59.994972
loop_
_atom_site_label
_atom_site_type_symbol
_atom_site_fract_x
_atom_site_fract_y
_atom_site_fract_z
O1	O	0.055565	-0.584504	0.488714
O2	O	0.020982	-0.455083	0.393778
O3	O	0.102943	-0.536959	0.393689
O4	O	-0.026396	-0.502628	0.488803
O5	O	0.130140	-0.509767	0.420792
O6	O	0.048179	-0.427891	0.420881
O7	O	0.082762	-0.557312	0.515817
Cu8	Cu	0.067954	-0.490119	0.470823
Cu9	Cu	0.035790	-0.522276	0.438771
O10	O	0.000801	-0.475436	0.515906
N11	N	0.090577	-0.467504	0.493370
N12	N	0.013171	-0.544895	0.416225
C13	C	0.143377	-0.280390	0.546067
C14	C	0.143515	-0.414755	0.680369
C15	C	0.143392	-0.414735	0.546069
C16	C	0.277766	-0.414702	0.545966
C17	C	0.158177	-0.324719	0.560828
C18	C	0.158255	-0.399967	0.636038
C19	C	0.233434	-0.399936	0.560773
C20	C	0.158186	-0.399955	0.560829
C21	C	0.124540	-0.223964	0.527278
C22	C	0.124565	-0.433545	0.527281
C23	C	0.177014	-0.381145	0.579617
C24	C	0.359814	-0.400540	0.502735
C25	C	0.411105	-0.417624	0.485606
C26	C	0.411136	-0.500620	0.517255
C27	C	0.359845	-0.483534	0.534385
C28	C	0.136887	-0.198305	0.476855
C29	C	0.119761	-0.147011	0.459777
C30	C	0.077945	-0.147038	0.543547
C31	C	0.095072	-0.198332	0.560625
C32	C	0.074134	-0.421169	0.539710
C33	C	0.057023	-0.438269	0.522625
C34	C	0.140770	-0.480120	0.480694
C35	C	0.157883	-0.463020	0.497773
C36	C	0.074339	-0.421208	0.762475
C37	C	0.057288	-0.438323	0.813768
C38	C	0.141075	-0.480183	0.813699
C39	C	0.158125	-0.463069	0.762404
C40	C	0.124756	-0.433580	0.736794
C41	C	0.334186	-0.433494	0.527123
C42	C	-0.173769	-0.597444	0.363037
C43	C	-0.039302	-0.597595	0.228856
C44	C	-0.039496	-0.597587	0.363300
C45	C	-0.039512	-0.731889	0.363237
C46	C	-0.129442	-0.612265	0.348329
C47	C	-0.054138	-0.612351	0.273187
C48	C	-0.054257	-0.687554	0.348440
C49	C	-0.054247	-0.612346	0.348477
C50	C	-0.230191	-0.578579	0.381758
C51	C	-0.020722	-0.578803	0.382168
C52	C	-0.073020	-0.631130	0.329609
C53	C	-0.053713	-0.813916	0.406386
C54	C	-0.036654	-0.865210	0.423504
C55	C	0.046338	-0.865293	0.391984
C56	C	0.029278	-0.813999	0.374865
C57	C	-0.255900	-0.590938	0.432169
C58	C	-0.307191	-0.573786	0.449185
C59	C	-0.307060	-0.531922	0.365377
C60	C	-0.255769	-0.549074	0.348360
C61	C	-0.033081	-0.528377	0.369764
C62	C	-0.016014	-0.511306	0.386922
C63	C	0.025770	-0.595083	0.428877
C64	C	0.008703	-0.612156	0.411725
C65	C	-0.032755	-0.528393	0.146761
C66	C	-0.015585	-0.511324	0.095468
C67	C	0.026262	-0.595106	0.095516
C68	C	0.009094	-0.612174	0.146811
C69	C	-0.020417	-0.578816	0.172432
C70	C	-0.020748	-0.788312	0.382068
N71	N	0.436037	-0.467415	0.493101
O72	O	0.592642	-0.471896	0.376066
O73	O	0.592838	-0.567146	0.505347
O74	O	0.592754	-0.566928	0.423360
O75	O	0.592727	-0.472113	0.458053
O76	O	0.511269	-0.539835	0.450606
O77	O	0.511353	-0.540052	0.532594
O78	O	0.511157	-0.444802	0.403312
Cu79	Cu	0.503815	-0.489954	0.470441
Cu80	Cu	0.600180	-0.521995	0.438219
O81	O	0.511242	-0.445020	0.485300
N82	N	0.667959	-0.544533	0.415554
N83	N	0.090544	-0.122107	0.493359
O84	O	-0.026406	0.034587	0.488773
O85	O	0.102877	0.034627	0.393499
O86	O	0.020848	0.034591	0.393771
O87	O	0.055623	0.034623	0.488500
O88	O	0.048051	-0.046899	0.420925
O89	O	0.130080	-0.046864	0.420653
O90	O	0.000796	-0.046903	0.515927
Cu91	Cu	0.067922	-0.054324	0.470769
Cu92	Cu	0.035752	0.042048	0.438656
O93	O	0.082825	-0.046867	0.515655
N94	N	0.013123	0.109830	0.416068
N95	N	0.090892	-0.467554	0.838649
O96	O	0.086330	-0.584488	0.995334
O97	O	-0.008902	-0.455160	0.995379
O98	O	-0.008679	-0.537172	0.995355
O99	O	0.086107	-0.502475	0.995358
O100	O	0.018452	-0.509990	0.913868
O101	O	0.018230	-0.427978	0.913891
O102	O	0.113461	-0.557306	0.913847
Cu103	Cu	0.068323	-0.490160	0.906429
Cu104	Cu	0.036237	-0.522306	1.002797
O105	O	0.113239	-0.475293	0.913870
N106	N	0.013667	-0.544916	1.070577
C107	C	0.031339	-0.425179	0.394250
C108	C	0.132837	-0.526572	0.394139
C109	C	0.072405	-0.587216	0.515344
C110	C	-0.029093	-0.485823	0.515455
C111	C	0.552119	-0.566716	0.535258
C112	C	0.552016	-0.566447	0.433726
C113	C	0.551873	-0.445232	0.373402
C114	C	0.551980	-0.445502	0.474933
C115	C	0.132731	-0.006013	0.393923
C116	C	0.031182	-0.006158	0.394293
C117	C	-0.029092	-0.006163	0.515469
C118	C	0.072491	-0.006119	0.515133
C119	C	-0.008451	-0.425276	0.954641
C120	C	-0.008170	-0.526833	0.954596
C121	C	0.113010	-0.587190	0.954585
C122	C	0.112735	-0.485627	0.954611
H123	H	0.016234	-0.428240	0.834672
O124	O	0.551715	-0.409508	0.329147
C125	C	0.509493	-0.368246	0.335654
H126	H	0.480039	-0.380087	0.371549
H127	H	0.519019	-0.340574	0.336776
C128	C	0.526468	-0.330015	0.248670
C129	C	0.490290	-0.344559	0.292755
H130	H	0.514623	-0.315402	0.222207
H131	H	0.554914	-0.357813	0.244285
H132	H	0.534402	-0.306957	0.249612
H133	H	0.482361	-0.367620	0.291815
H134	H	0.461842	-0.316764	0.297138
H135	H	-0.038348	-0.388133	0.954654
O136	O	0.552100	-0.602380	0.579573
C137	C	0.509930	-0.615584	0.601285
H138	H	0.480393	-0.584130	0.585117
H139	H	0.519489	-0.649601	0.593781
C140	C	0.527134	-0.665180	0.676841
C141	C	0.490854	-0.626545	0.656985
H142	H	0.515368	-0.671943	0.711199
H143	H	0.555546	-0.656286	0.662212
H144	H	0.535096	-0.693522	0.670582
H145	H	0.482897	-0.598202	0.663238
H146	H	0.462441	-0.635435	0.671616
H147	H	0.552029	-0.596233	0.426301
H148	H	0.169783	-0.005775	0.363939
O149	O	0.081222	-0.631532	0.550963
C150	C	0.075766	-0.625140	0.592254
H151	H	0.081109	-0.589230	0.580480
H152	H	0.037495	-0.624121	0.619995
C153	C	0.107724	-0.712150	0.630249
C154	C	0.114290	-0.668046	0.615788
H155	H	0.131485	-0.738617	0.644767
H156	H	0.111398	-0.716456	0.602431
H157	H	0.075830	-0.711293	0.653364
H158	H	0.146181	-0.668901	0.592668
H159	H	0.110622	-0.663741	0.643602
H160	H	0.551974	-0.415718	0.482355
O161	O	0.022232	-0.006203	0.358852
C162	C	-0.025930	-0.006215	0.376721
H163	H	-0.038798	-0.021631	0.418456
H164	H	-0.051297	0.032871	0.364329
C165	C	-0.011087	-0.019270	0.305346
C166	C	-0.026890	-0.038208	0.356605
H167	H	-0.011680	-0.039003	0.292936
H168	H	0.021361	-0.019260	0.293306
H169	H	-0.032228	0.013301	0.295026
H170	H	-0.005745	-0.070776	0.366925
H171	H	-0.059334	-0.038224	0.368647
O172	O	-0.073422	-0.006145	0.551089
C173	C	-0.103930	-0.006170	0.533481
H174	H	-0.090683	0.009251	0.491746
H175	H	-0.102602	-0.045268	0.545949
C176	C	-0.173213	0.006847	0.605043
C177	C	-0.156946	0.025791	0.553783
H178	H	-0.205917	0.026560	0.617568
H179	H	-0.152659	0.006862	0.616907
H180	H	-0.172103	-0.025735	0.615427
H181	H	-0.158051	0.058369	0.543400
H182	H	-0.177502	0.025782	0.541918
O183	O	0.081464	-0.006140	0.550596
C184	C	0.129621	-0.006114	0.532722
H185	H	0.152782	-0.021531	0.501264
H186	H	0.128888	0.032985	0.519057
C187	C	0.123483	-0.019136	0.612788
C188	C	0.151931	-0.038077	0.574153
H189	H	0.137244	-0.038851	0.638345
H190	H	0.091038	-0.019153	0.624831
H191	H	0.122875	0.013445	0.601394
H192	H	0.152533	-0.070655	0.585546
H193	H	0.184377	-0.038067	0.562114
H194	H	-0.037935	-0.534246	0.954563
H195	H	0.047002	-0.397168	0.563734
O196	O	-0.073428	-0.477011	0.551042
C197	C	-0.103888	-0.428874	0.533335
H198	H	-0.080302	-0.405601	0.501862
H199	H	-0.128640	-0.429624	0.519742
C200	C	-0.164555	-0.435301	0.613528
C201	C	-0.135586	-0.406715	0.574874
H202	H	-0.184109	-0.421633	0.639152
H203	H	-0.144035	-0.467733	0.625458
H204	H	-0.185177	-0.435924	0.602194
H205	H	-0.114960	-0.406098	0.586207
H206	H	-0.156103	-0.374283	0.562948
O207	O	0.148697	-0.631501	0.954634
C208	C	0.161858	-0.653200	0.996839
H209	H	0.151929	-0.623490	1.010920
H210	H	0.141302	-0.679939	1.026386
C211	C	0.229607	-0.717404	0.966709
C212	C	0.217416	-0.680914	0.984002
H213	H	0.263878	-0.734501	0.958792
H214	H	0.220740	-0.702786	0.938276
H215	H	0.212474	-0.739682	0.991335
H216	H	0.234545	-0.658633	0.959375
H217	H	0.226288	-0.695528	1.012431
H218	H	0.142514	-0.478200	0.954606
H219	H	-0.057039	-0.501216	0.345698
O220	O	0.177154	-0.535216	0.358489
C221	C	0.198883	-0.501572	0.345297
H222	H	0.169193	-0.467675	0.355171
H223	H	0.225609	-0.519316	0.365878
C224	C	0.263087	-0.528273	0.277621
C225	C	0.226621	-0.486639	0.289744
H226	H	0.280199	-0.519063	0.243354
H227	H	0.248449	-0.550941	0.286509
H228	H	0.285354	-0.543056	0.294776
H229	H	0.204352	-0.471860	0.272595
H230	H	0.241256	-0.463968	0.280852
O231	O	0.041903	-0.392633	0.737621
C232	C	0.012244	-0.418537	0.750187
H233	H	0.032071	-0.459574	0.764266
H234	H	-0.023774	-0.407630	0.779984
C235	C	-0.022635	-0.355730	0.687354
C236	C	0.001719	-0.406133	0.704642
H237	H	-0.029130	-0.348077	0.659261
H238	H	-0.002655	-0.338277	0.678889
H239	H	-0.052647	-0.346647	0.712189
H240	H	0.031732	-0.415214	0.679810
H241	H	-0.018257	-0.423587	0.713102
O242	O	0.173507	-0.508894	0.838558
C243	C	0.203171	-0.551899	0.825993
H244	H	0.183350	-0.559031	0.811907
H245	H	0.239191	-0.547226	0.796202
C246	C	0.238035	-0.586795	0.888837
C247	C	0.213690	-0.595557	0.871541
H248	H	0.244526	-0.613725	0.916932
H249	H	0.218052	-0.557821	0.897301
H250	H	0.268049	-0.582900	0.864007
H251	H	0.183674	-0.599446	0.896369
H252	H	0.233668	-0.624533	0.863082
O253	O	0.207087	-0.475061	0.737383
C254	C	0.214983	-0.453625	0.686619
H255	H	0.181311	-0.445898	0.679642
H256	H	0.221804	-0.417838	0.672061
C257	C	0.301239	-0.498479	0.668825
C258	C	0.259883	-0.488993	0.660256
H259	H	0.328936	-0.520294	0.652562
H260	H	0.295920	-0.512919	0.703026
H261	H	0.306916	-0.468654	0.656694
H262	H	0.254203	-0.518816	0.672393
H263	H	0.265203	-0.474558	0.626057
O264	O	0.173115	-0.508823	0.452096
C265	C	0.165750	-0.554429	0.475398
H266	H	0.147176	-0.561500	0.516523
H267	H	0.141518	-0.553968	0.460297
C268	C	0.238344	-0.586633	0.415185
C269	C	0.215534	-0.595320	0.465696
H270	H	0.269052	-0.611857	0.409199
H271	H	0.243305	-0.555907	0.399485
H272	H	0.218145	-0.586249	0.402607
H273	H	0.235730	-0.595699	0.478272
H274	H	0.210577	-0.626048	0.481398
H275	H	0.015959	-0.428182	0.532734
O276	O	0.022437	-0.380808	0.358721
C277	C	-0.025709	-0.350420	0.376514
H278	H	-0.048920	-0.374069	0.407986
H279	H	-0.024967	-0.325686	0.390135
C280	C	-0.019443	-0.289644	0.296381
C281	C	-0.047952	-0.318691	0.335033
H282	H	-0.033163	-0.270070	0.270794
H283	H	0.012995	-0.310116	0.284394
H284	H	-0.018827	-0.269037	0.307738
H285	H	-0.048562	-0.339301	0.323676
H286	H	-0.080390	-0.298221	0.347017
H287	H	0.338981	-0.510371	0.554246
O288	O	0.206888	-0.475097	0.485667
C289	C	0.232625	-0.504765	0.455945
H290	H	0.208168	-0.523428	0.462513
H291	H	0.243636	-0.481084	0.415771
C292	C	0.308939	-0.521029	0.460808
C293	C	0.278902	-0.543954	0.468878
H294	H	0.337486	-0.545201	0.468784
H295	H	0.291600	-0.501039	0.480830
H296	H	0.318110	-0.501295	0.427330
H297	H	0.269727	-0.563682	0.502357
H298	H	0.296241	-0.563948	0.448862
O299	O	0.334811	-0.351942	0.495705
C300	C	0.284044	-0.343927	0.516062
H301	H	0.277039	-0.375280	0.518537
H302	H	0.269517	-0.342116	0.554289
C303	C	0.266279	-0.256754	0.480274
C304	C	0.257675	-0.295261	0.483311
H305	H	0.250012	-0.226734	0.460074
H306	H	0.300481	-0.262154	0.466561
H307	H	0.254173	-0.255251	0.512132
H308	H	0.269786	-0.296767	0.451455
H309	H	0.223474	-0.289860	0.497018
O310	O	0.435986	-0.549246	0.524366
C311	C	0.402367	-0.574669	0.549554
H312	H	0.365812	-0.552302	0.570590
H313	H	0.396887	-0.580605	0.522125
C314	C	0.467324	-0.652107	0.559867
C315	C	0.422428	-0.624637	0.585708
H316	H	0.479699	-0.682931	0.582167
H317	H	0.489974	-0.634980	0.542896
H318	H	0.462751	-0.657049	0.537011
H319	H	0.427003	-0.619691	0.608560
H320	H	0.399779	-0.641765	0.602684
H321	H	0.431972	-0.390789	0.465748
H322	H	0.129813	-0.126117	0.418717
O323	O	0.165438	-0.223180	0.444442
C324	C	0.139507	-0.210640	0.414809
H325	H	0.098478	-0.196555	0.434643
H326	H	0.150393	-0.180854	0.378772
C327	C	0.202295	-0.273501	0.379968
C328	C	0.151901	-0.256207	0.404331
H329	H	0.209941	-0.301608	0.373502
H330	H	0.219766	-0.281949	0.399931
H331	H	0.211360	-0.248675	0.349940
H332	H	0.142838	-0.281030	0.434361
H333	H	0.134428	-0.247764	0.384373
O334	O	0.049311	-0.122213	0.576006
C335	C	0.042104	-0.155861	0.624174
H336	H	0.047840	-0.192427	0.624082
H337	H	0.069427	-0.161309	0.638839
C338	C	-0.017473	-0.090955	0.657220
C339	C	-0.010431	-0.135864	0.657107
H340	H	-0.049878	-0.078619	0.677535
H341	H	-0.012616	-0.068285	0.624768
H342	H	0.005300	-0.095501	0.669439
H343	H	-0.033200	-0.131316	0.644882
H344	H	-0.015293	-0.158533	0.689558
H345	H	-0.025639	-0.470264	0.074572
O346	O	0.083137	-0.223332	0.609590
C347	C	0.104596	-0.274103	0.617517
H348	H	0.112274	-0.281110	0.583879
H349	H	0.140409	-0.288628	0.624283
C350	C	0.059855	-0.291869	0.703788
C351	C	0.069282	-0.300476	0.662476
H352	H	0.038074	-0.308137	0.731522
H353	H	0.045399	-0.257664	0.698449
H354	H	0.089703	-0.303973	0.709420
H355	H	0.039436	-0.288366	0.656841
H356	H	0.083733	-0.334679	0.667815
O357	O	-0.061353	-0.495967	0.171624
C358	C	-0.035452	-0.466336	0.159133
H359	H	0.005584	-0.486179	0.145098
H360	H	-0.046319	-0.430303	0.129326
C361	C	-0.098315	-0.431468	0.221950
C362	C	-0.047913	-0.455841	0.204715
H363	H	-0.106003	-0.424992	0.250066
H364	H	-0.115766	-0.451429	0.230364
H365	H	-0.107364	-0.401443	0.197107
H366	H	-0.038866	-0.485868	0.229556
H367	H	-0.030461	-0.435884	0.196306
O368	O	0.054852	-0.627490	0.070605
C369	C	0.031597	-0.620075	0.040858
H370	H	-0.009523	-0.601420	0.056255
H371	H	0.046775	-0.595892	0.001994
C372	C	0.091744	-0.692752	0.021155
C373	C	0.041238	-0.669845	0.040068
H374	H	0.097692	-0.723452	0.020665
H375	H	0.107412	-0.697747	0.041194
H376	H	0.104386	-0.672595	-0.011230
H377	H	0.028598	-0.689999	0.072454
H378	H	0.025568	-0.664854	0.020034
H379	H	0.019144	-0.653235	0.167709
H380	H	-0.026079	-0.470245	0.376824
H381	H	0.049734	-0.622248	0.452940
H382	H	0.056124	-0.793157	0.355062
O383	O	0.020687	-0.661151	0.423855
C384	C	0.003064	-0.682427	0.475226
H385	H	-0.001985	-0.658111	0.493196
H386	H	-0.033592	-0.686201	0.486762
C387	C	0.046348	-0.763281	0.469414
C388	C	0.040152	-0.733418	0.491484
H389	H	0.069225	-0.794736	0.479443
H390	H	0.058220	-0.748948	0.434804
H391	H	0.015799	-0.766421	0.479029
H392	H	0.070699	-0.730274	0.481864
H393	H	0.028286	-0.747752	0.526093
O394	O	0.094948	-0.890224	0.384902
C395	C	0.121473	-0.877713	0.334274
H396	H	0.096311	-0.863591	0.313026
H397	H	0.136213	-0.847964	0.322844
C398	C	0.195428	-0.940653	0.349207
C399	C	0.164525	-0.923312	0.323112
H400	H	0.221986	-0.968780	0.342322
H401	H	0.177559	-0.949081	0.383317
H402	H	0.207707	-0.915858	0.339680
H403	H	0.152242	-0.948104	0.332644
H404	H	0.182393	-0.914889	0.289004
O405	O	-0.068713	-0.890032	0.447063
C406	C	-0.092672	-0.877493	0.415610
H407	H	-0.091449	-0.840263	0.386411
H408	H	-0.073502	-0.906373	0.397250
C409	C	-0.147894	-0.920801	0.481357
C410	C	-0.146396	-0.875073	0.445497
H411	H	-0.181033	-0.919311	0.499792
H412	H	-0.131752	-0.929251	0.502548
H413	H	-0.131917	-0.944863	0.466052
H414	H	-0.162368	-0.851013	0.460802
H415	H	-0.162542	-0.866619	0.424309
O416	O	-0.102288	-0.788902	0.413287
C417	C	-0.109183	-0.759245	0.367465
H418	H	-0.073890	-0.751606	0.338935
H419	H	-0.119272	-0.778994	0.356027
C420	C	-0.194109	-0.719872	0.406444
C421	C	-0.150763	-0.710487	0.371403
H422	H	-0.219759	-0.689796	0.408873
H423	H	-0.189465	-0.739853	0.437315
H424	H	-0.202510	-0.736331	0.396908
H425	H	-0.142360	-0.694033	0.380943
H426	H	-0.155407	-0.690501	0.340534
H427	H	-0.235077	-0.614964	0.459366
H428	H	-0.327887	-0.507903	0.338181
O429	O	-0.332093	-0.585859	0.498172
C430	C	-0.298517	-0.615574	0.523999
H431	H	-0.261937	-0.634250	0.499575
H432	H	-0.293079	-0.591928	0.535097
C433	C	-0.363528	-0.631807	0.600210
C434	C	-0.318601	-0.654749	0.570213
H435	H	-0.375917	-0.655971	0.628718
H436	H	-0.386150	-0.611786	0.582810
H437	H	-0.358991	-0.612103	0.609453
H438	H	-0.323140	-0.674447	0.560966
H439	H	-0.295981	-0.674774	0.587613
H440	H	-0.234840	-0.539009	0.307312
