data_functionalizedCrystal
_audit_creation_method	'MofGen! by Chris Wilmer'
_symmetry_space_group_name_H-M	'P1'
_symmetry_Int_Tables_number	1
_symmetry_cell_setting	triclinic
loop_
_symmetry_equiv_pos_as_xyz
  x,y,z
_cell_length_a	14.971486
_cell_length_b	14.044220
_cell_length_c	14.048226
_cell_angle_alpha	89.992807
_cell_angle_beta	89.998499
_cell_angle_gamma	88.401503
loop_
_atom_site_label
_atom_site_type_symbol
_atom_site_fract_x
_atom_site_fract_y
_atom_site_fract_z
O1	O	1.196679	0.123538	-0.079053
O2	O	0.937444	0.138332	-0.079079
O3	O	1.063171	-0.007054	-0.079057
O4	O	1.070953	0.268924	-0.079075
O5	O	1.063153	-0.007063	0.079264
O6	O	0.937427	0.138323	0.079242
O7	O	1.196662	0.123529	0.079268
Zn8	Zn	1.067042	0.130925	0.104392
Zn9	Zn	1.067064	0.130936	-0.104203
O10	O	1.070936	0.268915	0.079246
C11	C	0.904059	0.137666	0.000078
C12	C	0.804606	0.135683	0.000069
C13	C	1.059755	-0.042377	0.000104
C14	C	1.049594	-0.147614	0.000104
C15	C	0.754109	0.221093	0.000064
C16	C	0.660662	0.219225	0.000079
C17	C	0.617714	0.131945	0.000090
C18	C	0.668218	0.046528	0.000097
C19	C	0.761663	0.048398	0.000090
C20	C	0.473449	0.042638	0.000111
C21	C	0.379997	0.040767	0.000117
C22	C	0.372448	0.213465	0.000100
C23	C	0.465893	0.215334	0.000092
C24	C	0.516390	0.129917	0.000097
C25	C	1.031018	-0.340297	0.000088
C26	C	1.103085	-0.397848	0.000093
C27	C	1.092748	-0.505063	0.000084
C28	C	1.041353	-0.233071	0.000097
C29	C	1.230047	0.124195	0.000109
C30	C	1.329501	0.126178	0.000112
C31	C	1.074351	0.304238	0.000083
C32	C	1.084512	0.409475	0.000077
N33	N	1.067033	0.130916	0.246753
N34	N	1.067080	0.130937	-0.246564
C35	C	1.122726	0.066566	0.296581
C36	C	1.122732	0.066566	0.396238
C37	C	1.067049	0.130921	0.446066
C38	C	1.011350	0.195274	0.396232
C39	C	1.011340	0.195269	0.296576
C40	C	1.011376	0.195281	0.603946
C41	C	1.011387	0.195287	0.703609
C42	C	1.122768	0.066577	0.703608
C43	C	1.122758	0.066573	0.603953
C44	C	1.067060	0.130927	0.554125
H45	H	0.789070	0.292167	0.000054
H46	H	0.514561	-0.026919	0.000117
H47	H	1.172546	-0.366598	0.000036
H48	H	0.802776	-0.021152	0.000093
H49	H	0.633242	-0.024537	0.000121
C50	C	0.938479	-0.382140	0.000132
C51	C	0.946497	-0.481706	0.000154
C52	C	0.861271	-0.520297	0.000212
H53	H	0.906822	-0.361482	-0.055061
H54	H	0.906888	-0.361448	0.055367
H55	H	0.978075	-0.502390	-0.055075
H56	H	0.978138	-0.502390	0.055343
H57	H	0.829680	-0.499604	0.055446
H58	H	0.829621	-0.499631	-0.054983
H59	H	0.866700	-0.587855	0.000235
H60	H	1.168073	0.014165	0.256017
H61	H	1.168080	0.014166	0.436808
H62	H	0.619551	0.288775	0.000074
C63	C	1.183245	-0.003403	0.550023
C64	C	1.232008	-0.059779	0.614987
C65	C	1.287727	-0.124261	0.565342
H66	H	1.223271	0.030654	0.511131
H67	H	1.147932	-0.042974	0.511180
H68	H	1.267318	-0.020213	0.653814
H69	H	1.192005	-0.093857	0.653881
H70	H	1.252414	-0.163832	0.526499
H71	H	1.327747	-0.090197	0.526452
H72	H	1.320813	-0.162526	0.609413
C73	C	1.183087	-0.003409	0.757749
C74	C	1.130820	-0.061547	0.814957
C75	C	1.186356	-0.126032	0.864837
H76	H	1.223061	0.030647	0.796694
H77	H	1.216233	-0.041786	0.713828
H78	H	1.097689	-0.023174	0.858873
H79	H	1.090848	-0.095624	0.776036
H80	H	1.219502	-0.164409	0.820916
H81	H	1.226327	-0.091967	0.903776
H82	H	1.150900	-0.165491	0.903652
C83	C	0.512359	0.310190	0.000126
C84	C	0.448138	0.384596	0.000150
C85	C	0.490909	0.471990	0.000197
H86	H	0.548651	0.314644	-0.055072
H87	H	0.548636	0.314554	0.055356
H88	H	0.411877	0.380234	-0.055074
H89	H	0.411843	0.380173	0.055344
H90	H	0.527186	0.476354	0.055426
H91	H	0.527200	0.476434	-0.055002
H92	H	0.447342	0.522485	0.000221
H93	H	0.966043	0.247691	0.744173
H94	H	0.966018	0.247683	0.563379
C95	C	0.950837	0.264993	0.450452
C96	C	0.892077	0.214401	0.507703
C97	C	0.836329	0.278597	0.557673
H98	H	0.917580	0.303345	0.406613
H99	H	0.986143	0.304500	0.489370
H100	H	0.856774	0.174910	0.468789
H101	H	0.925310	0.176052	0.551560
H102	H	0.871635	0.318104	0.596590
H103	H	0.803077	0.316945	0.513826
H104	H	0.796459	0.244279	0.596530
C105	C	0.950844	0.265245	0.242645
C106	C	0.902099	0.321624	0.307609
C107	C	0.846365	0.386103	0.257965
H108	H	0.910808	0.231186	0.203778
H109	H	0.986146	0.304814	0.203777
H110	H	0.866799	0.282060	0.346461
H111	H	0.942112	0.355704	0.346478
H112	H	0.881668	0.425673	0.219097
H113	H	0.806335	0.352036	0.219100
H114	H	0.813291	0.424370	0.302035
H115	H	0.331329	0.283015	0.000099
H116	H	0.345032	-0.030303	0.000127
