data_functionalizedCrystal
_audit_creation_method	'MofGen! by Chris Wilmer'
_symmetry_space_group_name_H-M	'P1'
_symmetry_Int_Tables_number	1
_symmetry_cell_setting	triclinic
loop_
_symmetry_equiv_pos_as_xyz
  x,y,z
_cell_length_a	19.805407
_cell_length_b	19.121111
_cell_length_c	19.805399
_cell_angle_alpha	87.586854
_cell_angle_beta	89.982197
_cell_angle_gamma	87.532387
loop_
_atom_site_label
_atom_site_type_symbol
_atom_site_fract_x
_atom_site_fract_y
_atom_site_fract_z
Zn1	Zn	1.023225	0.279680	-0.394183
Zn2	Zn	1.018306	0.397133	-0.285822
Zn3	Zn	0.910039	0.279694	-0.281012
Zn4	Zn	0.905171	0.397090	-0.398971
O5	O	0.964186	0.338399	-0.339997
O6	O	1.117289	0.295273	-0.379818
O7	O	1.003923	0.381578	-0.190468
O8	O	0.929150	0.181408	-0.292007
O9	O	1.113675	0.381564	-0.300206
O10	O	1.012307	0.181398	-0.375154
O11	O	0.924380	0.295296	-0.186934
O12	O	0.814678	0.295255	-0.296649
O13	O	0.920853	0.381491	-0.493051
O14	O	0.811101	0.381505	-0.383313
O15	O	1.007587	0.295231	-0.489534
O16	O	0.999203	0.495411	-0.304848
O17	O	0.916083	0.495380	-0.387978
C18	C	0.788331	0.338377	-0.339979
C19	C	0.713098	0.338385	-0.339989
C20	C	0.679633	0.293532	-0.381512
C21	C	0.608945	0.293536	-0.381515
C22	C	0.571722	0.338396	-0.339997
C23	C	0.605192	0.383251	-0.298469
C24	C	0.675880	0.383243	-0.298464
C25	C	0.320117	0.383282	-0.298492
C26	C	0.249425	0.383288	-0.298502
C27	C	0.253183	0.293575	-0.381543
C28	C	0.323870	0.293567	-0.381537
C29	C	0.357334	0.338419	-0.340007
C30	C	0.433983	0.338414	-0.340003
C31	C	0.495075	0.338406	-0.340004
C32	C	0.956599	0.520880	-0.347469
C33	C	0.953416	0.598946	-0.350689
C34	C	0.995230	0.635614	-0.308956
C35	C	0.992240	0.708966	-0.311988
C36	C	0.947432	0.745647	-0.356750
C37	C	0.905616	0.708973	-0.398487
C38	C	0.908610	0.635623	-0.395458
C39	C	0.936229	0.967116	-0.368062
C40	C	0.933237	1.040472	-0.371086
C41	C	1.019861	1.040459	-0.284588
C42	C	1.022849	0.967108	-0.281560
C43	C	0.981035	0.930440	-0.323300
C44	C	0.944373	0.820624	-0.359848
C45	C	0.984098	0.855465	-0.320204
C46	C	1.140727	0.338422	-0.340015
C47	C	1.215959	0.338431	-0.340022
C48	C	0.971814	1.155206	-0.332518
C49	C	0.975051	1.077140	-0.329354
C50	C	0.964225	0.338355	-0.516538
C51	C	0.964242	0.338336	-0.591769
C52	C	1.009406	0.293418	-0.625283
C53	C	1.009413	0.293398	-0.695970
C54	C	0.964261	0.338299	-0.733143
C55	C	0.919093	0.383219	-0.699625
C56	C	0.919082	0.383236	-0.628938
C57	C	0.919133	0.383154	-0.984695
C58	C	0.919149	0.383136	-1.055387
C59	C	1.009465	0.293316	-1.051727
C60	C	1.009454	0.293332	-0.981041
C61	C	0.964284	0.338249	-0.947529
C62	C	0.964275	0.338270	-0.870881
C63	C	0.964272	0.338283	-0.809790
C64	C	0.964187	0.338393	-0.164140
C65	C	0.964309	0.338214	-0.088902
H66	H	0.225928	0.257052	-0.415356
H67	H	0.882299	0.419805	-0.601652
H68	H	1.046242	0.256740	-1.079022
O69	O	0.863509	0.596074	-0.440472
H70	H	0.873123	0.538907	-0.430852
O71	O	1.043565	0.596049	-0.260685
H72	H	1.031422	0.610173	-0.208133
O73	O	1.058113	0.244990	-0.585195
H74	H	1.050525	0.252552	-0.530411
H75	H	0.354173	0.257040	-0.415347
O76	O	1.058129	0.244955	-0.732120
H77	H	1.089531	0.213743	-0.694396
H78	H	0.219120	0.419821	-0.264691
H79	H	1.046225	0.256771	-0.950778
O80	O	0.870439	0.431559	-1.095485
H81	H	0.839021	0.462789	-1.060306
O82	O	0.870384	0.431561	-0.948551
H83	H	0.838982	0.462771	-0.986277
H84	H	0.907889	0.850498	-0.396292
H85	H	0.882326	0.419776	-0.729896
H86	H	0.709935	0.257003	-0.415322
O87	O	0.857287	0.748530	-0.446770
H88	H	0.804747	0.734493	-0.434535
H89	H	1.026289	0.738818	-0.278004
O90	O	1.032428	0.815907	-0.271927
H91	H	1.084971	0.829933	-0.284167
O92	O	0.572847	0.245159	-0.426299
H93	H	0.610606	0.213970	-0.455173
O94	O	1.071183	0.927543	-0.233288
H95	H	1.099763	0.965365	-0.204782
H96	H	0.347355	0.419804	-0.264676
H97	H	0.896757	1.070335	-0.407549
O98	O	0.565050	0.431636	-0.253686
H99	H	0.510274	0.424112	-0.260669
H100	H	1.053904	1.070321	-0.250607
O101	O	0.711980	0.431617	-0.253676
H102	H	0.696139	0.486759	-0.267457
O103	O	0.891112	0.927571	-0.413058
H104	H	0.859441	0.965403	-0.444679
