data_functionalizedCrystal
_audit_creation_method	'MofGen! by Chris Wilmer'
_symmetry_space_group_name_H-M	'P1'
_symmetry_Int_Tables_number	1
_symmetry_cell_setting	triclinic
loop_
_symmetry_equiv_pos_as_xyz
  x,y,z
_cell_length_a	19.121215
_cell_length_b	19.121063
_cell_length_c	19.121242
_cell_angle_alpha	94.950219
_cell_angle_beta	85.000193
_cell_angle_gamma	95.002544
loop_
_atom_site_label
_atom_site_type_symbol
_atom_site_fract_x
_atom_site_fract_y
_atom_site_fract_z
Zn1	Zn	1.082278	-0.252928	-0.454183
Zn2	Zn	1.582278	0.247072	0.045817
Zn3	Zn	1.072553	-0.365976	-0.341135
Zn4	Zn	1.572553	0.134024	0.158865
Zn5	Zn	0.959604	-0.252939	-0.331502
Zn6	Zn	1.459604	0.247061	0.168498
Zn7	Zn	0.959551	-0.375563	-0.454119
Zn8	Zn	1.459551	0.124437	0.045881
O9	O	1.018497	-0.311851	-0.395235
O10	O	1.518497	0.188149	0.104765
O11	O	1.179620	-0.263907	-0.443246
O12	O	1.679620	0.236093	0.056754
O13	O	1.053523	-0.346974	-0.241230
O14	O	1.553523	0.153026	0.258770
O15	O	0.979969	-0.154308	-0.343772
O16	O	1.479969	0.345692	0.156228
O17	O	1.172475	-0.346962	-0.360190
O18	O	1.672475	0.153038	0.139810
O19	O	1.070097	-0.154300	-0.433905
O20	O	1.570097	0.345700	0.066095
O21	O	0.970540	-0.263926	-0.234153
O22	O	1.470540	0.236074	0.265847
O23	O	0.860966	-0.273223	-0.343709
O24	O	1.360966	0.226777	0.156291
O25	O	0.979878	-0.363303	-0.552754
O26	O	1.479878	0.136697	-0.052754
O27	O	0.860926	-0.363314	-0.433795
O28	O	1.360926	0.136686	0.066205
O29	O	1.070046	-0.273203	-0.552802
O30	O	1.570046	0.226797	-0.052802
O31	O	1.053471	-0.465877	-0.360127
O32	O	1.553471	0.034123	0.139873
O33	O	0.970448	-0.472921	-0.443135
O34	O	1.470448	0.027079	0.056865
C35	C	0.835372	-0.319311	-0.387700
C36	C	1.335372	0.180689	0.112300
C37	C	0.757030	-0.322519	-0.384494
C38	C	1.257030	0.177481	0.115506
C39	C	0.313760	-0.342833	-0.364211
C40	C	0.813760	0.157167	0.135789
C41	C	0.387370	-0.339814	-0.367218
C42	C	0.887370	0.160186	0.132782
C43	C	0.427897	-0.295139	-0.412041
C44	C	0.927897	0.204861	0.087959
C45	C	0.394810	-0.253474	-0.453855
C46	C	0.894810	0.246526	0.046145
C47	C	0.321201	-0.256490	-0.450844
C48	C	0.821201	0.243510	0.049156
C49	C	0.650335	-0.283870	-0.423296
C50	C	1.150335	0.216130	0.076704
C51	C	0.723948	-0.280859	-0.426306
C52	C	1.223948	0.219141	0.073694
C53	C	0.716503	-0.367199	-0.339668
C54	C	1.216503	0.132801	0.160332
C55	C	0.642893	-0.370214	-0.336664
C56	C	1.142893	0.129786	0.163336
C57	C	0.609813	-0.328546	-0.378475
C58	C	1.109813	0.171454	0.121525
C59	C	0.503139	-0.292053	-0.415117
C60	C	1.003139	0.207947	0.084883
C61	C	0.534572	-0.331628	-0.375394
C62	C	1.034572	0.168372	0.124606
C63	C	1.010918	-0.494972	-0.402685
C64	C	1.510918	0.005028	0.097315
C65	C	1.007742	-0.573311	-0.405899
C66	C	1.507742	-0.073311	0.094101
C67	C	1.049512	-0.606424	-0.364229
C68	C	1.549512	-0.106424	0.135771
C69	C	1.046528	-0.680031	-0.367256
C70	C	1.546528	-0.180031	0.132744
C71	C	1.001771	-0.720524	-0.411949
C72	C	1.501771	-0.220524	0.088051
C73	C	0.960000	-0.687406	-0.453623
C74	C	1.460000	-0.187406	0.046377
C75	C	0.962988	-0.613800	-0.450600
C76	C	1.462988	-0.113800	0.049400
C77	C	0.990591	-0.942951	-0.423242
C78	C	1.490591	-0.442951	0.076758
C79	C	0.987605	-1.016562	-0.426260
C80	C	1.487605	-0.516562	0.073740
C81	C	1.074135	-1.009182	-0.339894
C82	C	1.574135	-0.509182	0.160106
C83	C	1.077115	-0.935575	-0.336871
C84	C	1.577115	-0.435575	0.163129
C85	C	1.035346	-0.902463	-0.378548
C86	C	1.535346	-0.402463	0.121452
C87	C	0.998719	-0.795763	-0.415042
C88	C	1.498719	-0.295763	0.084958
C89	C	1.038402	-0.827226	-0.375458
C90	C	1.538402	-0.327226	0.124542
C91	C	1.202336	-0.304364	-0.402800
C92	C	1.702336	0.195636	0.097200
C93	C	1.280678	-0.301173	-0.406023
C94	C	1.780678	0.198827	0.093977
C95	C	1.026041	-0.319321	-0.579066
C96	C	1.526041	0.180679	-0.079066
C97	C	1.029255	-0.322505	-0.657403
C98	C	1.529255	0.177495	-0.157403
C99	C	1.026124	-0.128015	-0.387771
C100	C	1.526124	0.371985	0.112229
C101	C	1.029375	-0.049675	-0.384591
C102	C	1.529375	0.450325	0.115409
C103	C	1.049643	-0.342711	-1.100654
C104	C	1.549643	0.157289	-0.600654
C105	C	1.046612	-0.339716	-1.027046
C106	C	1.546612	0.160284	-0.527046
C107	C	1.001896	-0.294977	-0.986566
C108	C	1.501896	0.205023	-0.486566
C109	C	0.960203	-0.253235	-1.019696
C110	C	1.460203	0.246765	-0.519696
C111	C	0.963230	-0.256234	-1.093302
C112	C	1.463230	0.243766	-0.593302
C113	C	0.990590	-0.283762	-0.764139
C114	C	1.490590	0.216238	-0.264139
C115	C	0.987567	-0.280764	-0.690529
C116	C	1.487567	0.219236	-0.190529
C117	C	1.073976	-0.367247	-0.697884
C118	C	1.573976	0.132753	-0.197884
C119	C	1.077002	-0.370239	-0.771491
C120	C	1.577002	0.129761	-0.271491
C121	C	1.035307	-0.328500	-0.804615
C122	C	1.535307	0.171500	-0.304615
C123	C	0.998799	-0.291913	-0.911327
C124	C	1.498799	0.208087	-0.411327
C125	C	1.038401	-0.331568	-0.879852
C126	C	1.538401	0.168432	-0.379852
C127	C	1.011025	-0.304358	-0.212119
C128	C	1.511025	0.195642	0.287881
C129	C	1.007954	-0.300971	-0.133779
C130	C	1.507954	0.199029	0.366221
H131	H	0.623410	-0.249945	-0.457345
H132	H	1.123410	0.250055	0.042655
H133	H	1.113414	-0.406671	-0.804446
H134	H	1.613414	0.093329	-0.304446
H135	H	0.929284	-0.222244	-1.120271
H136	H	1.429284	0.277756	-0.620271
H137	H	0.928975	-0.586841	-0.484533
H138	H	1.428975	-0.086841	0.015467
C139	C	1.092509	-0.385598	-0.990612
C140	C	1.592509	0.114402	-0.490612
N141	N	1.127093	-0.420146	-0.963170
N142	N	1.627093	0.079854	-0.463170
H143	H	0.609900	-0.406592	-0.300163
H144	H	1.109900	0.093408	0.199837
H145	H	1.074807	-0.367996	-0.912814
H146	H	1.574807	0.132004	-0.412814
H147	H	1.080541	-0.706988	-0.333324
H148	H	1.580541	-0.206988	0.166676
C149	C	0.269187	-0.391979	-0.314901
C150	C	0.769187	0.108021	0.185099
N151	N	0.235616	-0.428995	-0.277757
N152	N	0.735616	0.071005	0.222243
H153	H	0.956580	-0.915998	-0.457175
H154	H	1.456580	-0.415998	0.042825
C155	C	0.439393	-0.204328	-0.503158
C156	C	0.939393	0.295672	-0.003158
N157	N	0.472972	-0.167311	-0.540296
N158	N	0.972972	0.332689	-0.040296
C159	C	0.284812	-0.210662	-0.496842
C160	C	0.784812	0.289338	0.003158
N161	N	0.257405	-0.176142	-0.531488
N162	N	0.757405	0.323858	-0.031488
H163	H	0.743445	-0.401121	-0.305628
H164	H	1.243445	0.098879	0.194372
C165	C	0.423756	-0.385644	-0.321222
C166	C	0.923756	0.114356	0.178778
N167	N	0.451162	-0.420164	-0.286574
N168	N	0.951162	0.079836	0.213426
C169	C	0.944734	-0.237836	-0.800566
C170	C	1.444734	0.262164	-0.300566
N171	N	0.910196	-0.203239	-0.828005
N172	N	1.410196	0.296761	-0.328005
C173	C	0.547726	-0.242913	-0.464423
C174	C	1.047726	0.257087	0.035577
N175	N	0.581311	-0.205899	-0.501559
N176	N	1.081311	0.294101	-0.001559
H177	H	1.086059	-0.379139	-1.133608
H178	H	1.586059	0.120861	-0.633608
C179	C	0.949480	-0.840312	-0.464195
C180	C	1.449480	-0.340312	0.035805
N181	N	0.912391	-0.873870	-0.501216
N182	N	1.412391	-0.373870	-0.001216
H183	H	0.501572	-0.368001	-0.338898
H184	H	1.001572	0.131999	0.161102
H185	H	1.085954	-0.573458	-0.327832
H186	H	1.585954	-0.073458	0.172168
C187	C	1.120079	-1.045610	-0.294054
C188	C	1.620079	-0.545610	0.205946
N189	N	1.154688	-1.073049	-0.259528
N190	N	1.654688	-0.573049	0.240472
H191	H	1.113559	-0.902606	-0.300478
H192	H	1.613559	-0.402606	0.199522
H193	H	0.951167	-1.049531	-0.462668
H194	H	1.451167	-0.549531	0.037332
C195	C	0.910764	-0.731952	-0.502784
C196	C	1.410764	-0.231952	-0.002784
N197	N	0.873676	-0.765502	-0.539810
N198	N	1.373676	-0.265502	-0.039810
C199	C	1.087632	-0.782681	-0.326296
C200	C	1.587632	-0.282681	0.173704
N201	N	1.124709	-0.749124	-0.289263
N202	N	1.624709	-0.249124	0.210737
H203	H	1.107921	-0.401229	-0.670906
H204	H	1.607921	0.098771	-0.170906
H205	H	0.951155	-0.244327	-0.657571
H206	H	1.451155	0.255673	-0.157571
C207	C	0.911021	-0.204015	-0.975165
C208	C	1.411021	0.295985	-0.475165
N209	N	0.873980	-0.166937	-0.941624
N210	N	1.373980	0.333063	-0.441624
H211	H	0.756944	-0.244474	-0.462805
H212	H	1.256944	0.255526	0.037195
H213	H	0.962391	-0.255485	-0.878360
H214	H	1.462391	0.244515	-0.378360
