data_functionalizedCrystal
_audit_creation_method	'MofGen! by Chris Wilmer'
_symmetry_space_group_name_H-M	'P1'
_symmetry_Int_Tables_number	1
_symmetry_cell_setting	triclinic
loop_
_symmetry_equiv_pos_as_xyz
  x,y,z
_cell_length_a	18.215407
_cell_length_b	18.215405
_cell_length_c	18.215407
_cell_angle_alpha	90.015953
_cell_angle_beta	90.009037
_cell_angle_gamma	90.025333
loop_
_atom_site_label
_atom_site_type_symbol
_atom_site_fract_x
_atom_site_fract_y
_atom_site_fract_z
Zn1	Zn	1.124994	-0.293089	0.416102
Zn2	Zn	1.624994	0.206911	0.916102
Zn3	Zn	1.124925	-0.416129	0.293031
Zn4	Zn	1.624925	0.083871	0.793031
Zn5	Zn	1.001949	-0.293082	0.293050
Zn6	Zn	1.501949	0.206918	0.793050
Zn7	Zn	1.001892	-0.416119	0.416055
Zn8	Zn	1.501892	0.083881	0.916055
O9	O	1.063440	-0.354605	0.354559
O10	O	1.563440	0.145395	0.854559
O11	O	1.227969	-0.309418	0.399788
O12	O	1.727969	0.190582	0.899788
O13	O	1.108607	-0.399807	0.190049
O14	O	1.608607	0.100193	0.690049
O15	O	1.018324	-0.190098	0.309401
O16	O	1.518324	0.309902	0.809401
O17	O	1.227918	-0.399815	0.309368
O18	O	1.727918	0.100185	0.809368
O19	O	1.108724	-0.190104	0.399807
O20	O	1.608724	0.309896	0.899807
O21	O	1.018258	-0.309405	0.190063
O22	O	1.518258	0.190595	0.690063
O23	O	0.898957	-0.309396	0.309355
O24	O	1.398957	0.190604	0.809355
O25	O	1.018226	-0.399798	0.519046
O26	O	1.518226	0.100202	1.019046
O27	O	0.898915	-0.399791	0.399727
O28	O	1.398915	0.100209	0.899727
O29	O	1.108668	-0.309408	0.519080
O30	O	1.608668	0.190592	1.019080
O31	O	1.108552	-0.519112	0.309322
O32	O	1.608552	-0.019112	0.809322
O33	O	1.018160	-0.519105	0.399708
O34	O	1.518160	-0.019105	0.899708
C35	C	0.872234	-0.354592	0.354538
C36	C	1.372234	0.145408	0.854538
C37	C	0.790435	-0.354605	0.354547
C38	C	1.290435	0.145395	0.854547
C39	C	0.602238	-0.401747	0.401544
C40	C	1.102238	0.098253	0.901544
C41	C	0.525379	-0.401750	0.401553
C42	C	1.025379	0.098250	0.901553
C43	C	0.525394	-0.307476	0.307591
C44	C	1.025394	0.192524	0.807591
C45	C	0.602251	-0.307470	0.307586
C46	C	1.102251	0.192530	0.807586
C47	C	0.640671	-0.354610	0.354562
C48	C	1.140671	0.145390	0.854562
C49	C	0.486955	-0.354618	0.354576
C50	C	0.986955	0.145382	0.854576
C51	C	0.403622	-0.354620	0.354585
C52	C	0.903622	0.145380	0.854585
C53	C	0.724010	-0.354607	0.354553
C54	C	1.224010	0.145393	0.854553
C55	C	1.063362	-0.545811	0.354524
C56	C	1.563362	-0.045811	0.854524
C57	C	1.063396	-0.627610	0.354534
C58	C	1.563396	-0.127610	0.854534
C59	C	1.110574	-0.815783	0.307556
C60	C	1.610574	-0.315783	0.807556
C61	C	1.110607	-0.892642	0.307574
C62	C	1.610607	-0.392642	0.807574
C63	C	1.016400	-0.892674	0.401616
C64	C	1.516400	-0.392674	0.901616
C65	C	1.016372	-0.815817	0.401601
C66	C	1.516372	-0.315817	0.901601
C67	C	1.063457	-0.777373	0.354567
C68	C	1.563457	-0.277373	0.854567
C69	C	1.063519	-0.931090	0.354600
C70	C	1.563519	-0.431090	0.854600
C71	C	1.063554	-1.014423	0.354619
C72	C	1.563554	-0.514423	0.854619
C73	C	1.063423	-0.694035	0.354548
C74	C	1.563423	-0.194035	0.854548
C75	C	1.255393	-0.354618	0.354581
C76	C	1.755393	0.145382	0.854581
C77	C	1.337192	-0.354624	0.354590
C78	C	1.837192	0.145376	0.854590
C79	C	1.063449	-0.354603	0.546512
C80	C	1.563449	0.145397	1.046512
C81	C	1.063452	-0.354602	0.628311
C82	C	1.563452	0.145398	1.128311
C83	C	1.063538	-0.162652	0.354611
C84	C	1.563538	0.337348	0.854611
C85	C	1.063580	-0.080853	0.354633
C86	C	1.563580	0.419147	0.854633
C87	C	1.110525	-0.307542	0.893388
C88	C	1.610525	0.192458	1.393388
C89	C	1.110530	-0.307542	0.816529
C90	C	1.610530	0.192458	1.316529
C91	C	1.016358	-0.401674	0.816483
C92	C	1.516358	0.098326	1.316483
C93	C	1.016357	-0.401678	0.893340
C94	C	1.516357	0.098322	1.393340
C95	C	1.063439	-0.354608	0.931791
C96	C	1.563439	0.145392	1.431791
C97	C	1.063445	-0.354604	0.778075
C98	C	1.563445	0.145396	1.278075
C99	C	1.063451	-0.354604	0.694741
C100	C	1.563451	0.145396	1.194741
C101	C	1.063435	-0.354608	1.015130
C102	C	1.563435	0.145392	1.515130
C103	C	1.063428	-0.354619	1.163353
C104	C	1.563428	0.145381	1.663353
C105	C	1.063433	-0.354609	1.081554
C106	C	1.563433	0.145391	1.581554
H107	H	1.148915	-0.784484	0.269260
H108	H	1.648915	-0.284484	0.769260
H109	H	0.978003	-0.784542	0.439886
H110	H	1.478003	-0.284542	0.939886
N111	N	1.161302	-0.256775	0.934861
N112	N	1.661302	0.243225	1.434861
H113	H	1.191131	-0.226960	0.898868
H114	H	1.691131	0.273040	1.398868
H115	H	1.195347	-0.286730	0.966749
H116	H	1.695347	0.213270	1.466749
H117	H	0.633544	-0.269081	0.269327
H118	H	1.133544	0.230919	0.769327
H119	H	0.978013	-0.440008	0.924609
H120	H	1.478013	0.059992	1.424609
H121	H	1.148975	-0.923912	0.269294
H122	H	1.648975	-0.423912	0.769294
H123	H	1.148873	-0.269217	0.785265
H124	H	1.648873	0.230783	1.285265
H125	H	0.978024	-0.439996	0.785167
H126	H	1.478024	0.060004	1.285167
N127	N	0.643679	-0.452588	0.452209
N128	N	1.143679	0.047412	0.952209
H129	H	0.607666	-0.482448	0.481974
H130	H	1.107666	0.017552	0.981974
H131	H	0.675587	-0.422681	0.486317
H132	H	1.175587	0.077319	0.986317
N133	N	0.483926	-0.452593	0.452224
N134	N	0.983926	0.047407	0.952224
H135	H	0.519930	-0.482454	0.481979
H136	H	1.019930	0.017546	0.981979
H137	H	0.452018	-0.486604	0.422204
H138	H	0.952018	0.013396	0.922204
H139	H	0.978064	-0.923985	0.439908
H140	H	1.478064	-0.423985	0.939908
H141	H	0.494103	-0.269097	0.269344
H142	H	0.994103	0.230903	0.769344
