data_functionalizedCrystal
_audit_creation_method	'MofGen! by Chris Wilmer'
_symmetry_space_group_name_H-M	'P1'
_symmetry_Int_Tables_number	1
_symmetry_cell_setting	triclinic
loop_
_symmetry_equiv_pos_as_xyz
  x,y,z
_cell_length_a	15.944551
_cell_length_b	14.519709
_cell_length_c	13.596369
_cell_angle_alpha	89.993066
_cell_angle_beta	89.999164
_cell_angle_gamma	83.589442
loop_
_atom_site_label
_atom_site_type_symbol
_atom_site_fract_x
_atom_site_fract_y
_atom_site_fract_z
O1	O	1.114698	0.118943	-0.081691
O2	O	1.614698	0.618943	0.418309
O3	O	0.870169	0.133607	-0.081716
O4	O	1.370169	0.633607	0.418284
O5	O	0.998917	-0.007975	-0.081694
O6	O	1.498917	0.492025	0.418306
O7	O	0.985950	0.260525	-0.081713
O8	O	1.485950	0.760525	0.418287
O9	O	0.998904	-0.007982	0.081889
O10	O	1.498904	0.492018	0.581889
O11	O	0.870156	0.133600	0.081867
O12	O	1.370156	0.633600	0.581867
O13	O	1.114685	0.118936	0.081892
O14	O	1.614685	0.618936	0.581892
Zn15	Zn	0.992419	0.126267	0.107852
Zn16	Zn	1.492419	0.626267	0.607852
Zn17	Zn	0.992435	0.126276	-0.107676
Zn18	Zn	1.492435	0.626276	0.392324
O19	O	0.985937	0.260518	0.081870
O20	O	1.485937	0.760518	0.581870
C21	C	0.998306	-0.042337	0.000098
C22	C	1.498306	0.457663	0.500098
C23	C	0.996495	-0.144715	0.000098
C24	C	1.496495	0.355285	0.500098
C25	C	0.838868	0.132995	0.000073
C26	C	1.338868	0.632995	0.500073
C27	C	0.745619	0.131170	0.000064
C28	C	1.245619	0.631170	0.500064
C29	C	0.989829	-0.519599	0.000072
C30	C	1.489829	-0.019599	0.500072
C31	C	0.991680	-0.415295	0.000080
C32	C	1.491680	0.084705	0.500080
C33	C	0.993162	-0.332161	0.000086
C34	C	1.493162	0.167839	0.500086
C35	C	0.995013	-0.227849	0.000092
C36	C	1.495013	0.272151	0.500092
C37	C	0.530629	0.039048	0.000089
C38	C	1.030629	0.539048	0.500089
C39	C	0.469677	0.081830	-0.080569
C40	C	0.969677	0.581830	0.419431
C41	C	0.574889	0.127868	0.000075
C42	C	1.074889	0.627868	0.500075
C43	C	0.469687	0.081844	0.080711
C44	C	0.969687	0.581844	0.580711
C45	C	0.409971	0.124672	0.000091
C46	C	0.909971	0.624672	0.500091
C47	C	0.515165	0.170674	-0.080649
C48	C	1.015165	0.670674	0.419351
C49	C	0.515181	0.170675	0.080703
C50	C	1.015181	0.670675	0.580703
C51	C	0.454247	0.213522	0.000025
C52	C	0.954247	0.713522	0.500025
C53	C	0.669894	0.129706	0.000065
C54	C	1.169894	0.629706	0.500065
C55	C	0.314967	0.122840	0.000094
C56	C	0.814967	0.622840	0.500094
C57	C	1.145986	0.119548	0.000101
C58	C	1.645986	0.619548	0.500101
C59	C	1.239235	0.121373	0.000104
C60	C	1.739235	0.621373	0.500104
C61	C	0.986548	0.294880	0.000076
C62	C	1.486548	0.794880	0.500076
C63	C	0.988359	0.397258	0.000070
C64	C	1.488359	0.897258	0.500070
N65	N	0.992413	0.126259	0.254944
N66	N	1.492413	0.626259	0.754944
N67	N	0.992448	0.126276	-0.254767
N68	N	1.492448	0.626276	0.245233
C69	C	0.992434	0.126277	0.656235
C70	C	1.492434	0.626277	1.156235
C71	C	0.992426	0.126275	0.544583
C72	C	1.492426	0.626275	1.044583
C73	C	0.992424	0.126269	0.455593
C74	C	1.492424	0.626269	0.955593
C75	C	0.992415	0.126266	0.343934
C76	C	1.492415	0.626266	0.843934
H77	H	0.563855	-0.034665	-0.000005
H78	H	1.063855	0.465335	0.499995
Br79	Br	0.399155	0.336506	-0.000052
Br80	Br	0.899155	0.836506	0.499948
H81	H	0.535213	0.208216	-0.148914
H82	H	1.035213	0.708216	0.351086
H83	H	0.535361	0.208208	0.148892
H84	H	1.035361	0.708208	0.648892
Br85	Br	0.436108	0.019200	0.194362
Br86	Br	0.936108	0.519200	0.694362
H87	H	0.449518	0.044266	-0.148754
H88	H	0.949518	0.544266	0.351246
