data_functionalizedCrystal
_audit_creation_method	'MofGen! by Chris Wilmer'
_symmetry_space_group_name_H-M	'P1'
_symmetry_Int_Tables_number	1
_symmetry_cell_setting	triclinic
loop_
_symmetry_equiv_pos_as_xyz
  x,y,z
_cell_length_a	9.065218
_cell_length_b	9.130313
_cell_length_c	10.654550
_cell_angle_alpha	89.995631
_cell_angle_beta	84.750408
_cell_angle_gamma	89.996409
loop_
_atom_site_label
_atom_site_type_symbol
_atom_site_fract_x
_atom_site_fract_y
_atom_site_fract_z
O1	O	1.959393	-0.121803	0.184159
O2	O	1.530025	-0.121805	0.199265
O3	O	1.754581	-0.121795	0.009012
O4	O	1.734837	-0.121813	0.374412
O5	O	1.754566	0.121804	0.009006
O6	O	1.530010	0.121794	0.199259
O7	O	1.959377	0.121796	0.184153
Cu8	Cu	1.744692	0.144037	0.191706
Cu9	Cu	1.744710	-0.144046	0.191712
O10	O	1.734822	0.121786	0.374406
C11	C	1.475039	-0.000006	0.197810
C12	C	1.311220	-0.000006	0.193469
N13	N	1.744690	0.346660	0.191700
N14	N	1.744724	-0.346669	0.191708
C15	C	2.014364	-0.000006	0.185608
C16	C	2.178183	-0.000015	0.189949
C17	C	1.753124	0.000004	-0.037795
C18	C	1.748786	0.000002	-0.177255
C19	C	1.844157	0.423316	0.107492
C20	C	1.844171	0.576653	0.107493
C21	C	1.645246	0.576664	0.275920
C22	C	1.645226	0.423330	0.275913
C23	C	1.881001	0.000002	-0.256217
C24	C	1.876917	-0.000016	-0.387254
C25	C	1.608391	-0.000028	-0.360354
C26	C	1.612477	-0.000021	-0.229320
C27	C	1.736279	-0.000016	0.421213
C28	C	1.740616	-0.000024	0.560673
H29	H	1.925165	0.639063	0.038922
C30	C	1.460298	0.000187	-0.416712
C31	C	1.380264	0.125491	-0.376706
C32	C	1.243823	0.125732	-0.428579
H33	H	1.476585	0.000261	-0.506059
H34	H	1.405734	-0.084719	-0.389667
H35	H	1.434817	0.210376	-0.403758
H36	H	1.363938	0.125444	-0.287366
H37	H	1.189258	0.040826	-0.401534
H38	H	1.260124	0.125802	-0.517924
H39	H	1.189497	0.210742	-0.401433
H40	H	1.984580	-0.000019	-0.451541
C41	C	1.537031	0.659836	0.367203
C42	C	1.391838	0.622603	0.345081
C43	C	1.292110	0.699205	0.429137
H44	H	1.553696	0.634755	0.451271
H45	H	1.551192	0.762149	0.355139
H46	H	1.377683	0.520313	0.357155
H47	H	1.375126	0.647688	0.261029
H48	H	1.306272	0.801517	0.417074
H49	H	1.308789	0.674117	0.513200
H50	H	1.193587	0.673963	0.414132
C51	C	1.468805	-0.000248	-0.143729
C52	C	1.386806	-0.125560	-0.167499
C53	C	1.254446	-0.125817	-0.088690
H54	H	1.490552	-0.000321	-0.058194
H55	H	1.412878	0.084653	-0.159701
H56	H	1.442721	-0.210439	-0.151518
H57	H	1.365019	-0.125514	-0.253019
H58	H	1.198519	-0.040915	-0.104662
H59	H	1.276208	-0.125886	-0.003159
H60	H	1.198787	-0.210832	-0.104815
H61	H	1.925144	0.360896	0.038920
C62	C	2.028947	0.000309	-0.199619
C63	C	2.039155	0.125658	-0.125217
C64	C	2.175433	0.125994	-0.073078
H65	H	2.036275	-0.084537	-0.148965
H66	H	2.107146	0.000382	-0.265384
H67	H	1.960978	0.125572	-0.059461
H68	H	2.031854	0.210524	-0.175843
H69	H	2.253632	0.126067	-0.138843
H70	H	2.182749	0.041143	-0.022431
H71	H	2.182383	0.211047	-0.022601
H72	H	1.564221	0.360912	0.344485
