data_functionalizedCrystal
_audit_creation_method	'MofGen! by Chris Wilmer'
_symmetry_space_group_name_H-M	'P1'
_symmetry_Int_Tables_number	1
_symmetry_cell_setting	triclinic
loop_
_symmetry_equiv_pos_as_xyz
  x,y,z
_cell_length_a	14.044191
_cell_length_b	11.792254
_cell_length_c	10.268362
_cell_angle_alpha	90.004525
_cell_angle_beta	89.998454
_cell_angle_gamma	91.304813
loop_
_atom_site_label
_atom_site_type_symbol
_atom_site_fract_x
_atom_site_fract_y
_atom_site_fract_z
O1	O	-0.130045	1.519112	0.108289
O2	O	0.203288	1.852446	0.441622
O3	O	0.536622	2.185779	0.774955
O4	O	-0.143429	1.190030	0.108290
O5	O	0.189904	1.523363	0.441624
O6	O	0.523238	1.856697	0.774957
O7	O	0.001273	1.349627	0.108292
O8	O	0.334607	1.682961	0.441625
O9	O	0.667940	2.016294	0.774959
O10	O	-0.274747	1.359515	0.108287
O11	O	0.058586	1.692848	0.441620
O12	O	0.391919	2.026181	0.774954
O13	O	0.001279	1.349612	-0.108309
O14	O	0.334613	1.682945	0.225025
O15	O	0.667946	2.016278	0.558358
O16	O	-0.143423	1.190014	-0.108310
O17	O	0.189910	1.523348	0.225023
O18	O	0.523244	1.856681	0.558356
O19	O	-0.130039	1.519097	-0.108312
O20	O	0.203294	1.852430	0.225021
O21	O	0.536628	2.185763	0.558355
Cu22	Cu	-0.136730	1.354554	-0.128088
Cu23	Cu	0.196603	1.687887	0.205245
Cu24	Cu	0.529936	2.021221	0.538578
Cu25	Cu	-0.136738	1.354573	0.128067
Cu26	Cu	0.196596	1.687906	0.461400
Cu27	Cu	0.529929	2.021239	0.794734
O28	O	-0.274741	1.359499	-0.108314
O29	O	0.058592	1.692832	0.225020
O30	O	0.391925	2.026166	0.558353
C31	C	-0.142583	1.147652	-0.000009
C32	C	0.190750	1.480986	0.333324
C33	C	0.524084	1.814319	0.666657
C34	C	-0.140059	1.021402	-0.000008
C35	C	0.193274	1.354736	0.333325
C36	C	0.526607	1.688069	0.666658
C37	C	-0.138009	0.918873	-0.000003
C38	C	0.195324	1.252206	0.333331
C39	C	0.528658	1.585540	0.666664
C40	C	-0.135445	0.790246	-0.000002
C41	C	0.197888	1.123579	0.333331
C42	C	0.531222	1.456912	0.666665
C43	C	-0.310081	1.363832	-0.000014
C44	C	0.023252	1.697166	0.333320
C45	C	0.356585	2.030499	0.666653
C46	C	-0.415374	1.376735	-0.000015
C47	C	-0.082041	1.710068	0.333318
C48	C	0.251293	2.043401	0.666651
C49	C	-0.665309	1.308817	-0.000004
C50	C	-0.331975	1.642151	0.333330
C51	C	0.001358	1.975484	0.666663
C52	C	-0.608153	1.400304	-0.000006
C53	C	-0.274820	1.733637	0.333327
C54	C	0.058513	2.066971	0.666660
C55	C	-0.500881	1.387187	-0.000011
C56	C	-0.167548	1.720520	0.333322
C57	C	0.165785	2.053854	0.666655
C58	C	-0.772591	1.321933	0.000001
C59	C	-0.439258	1.655266	0.333335
C60	C	-0.105924	1.988600	0.666668
C61	C	0.036613	1.345294	-0.000005
C62	C	0.369947	1.678627	0.333328
C63	C	0.703280	2.011961	0.666662
C64	C	0.141906	1.332392	0.000005
C65	C	0.475239	1.665725	0.333339
C66	C	0.808573	1.999059	0.666672
C67	C	-0.130885	1.561474	-0.000009
C68	C	0.202448	1.894808	0.333324
C69	C	0.535782	2.228141	0.666658
C70	C	-0.133409	1.687724	-0.000002
C71	C	0.199925	2.021058	0.333332
C72	C	0.533258	2.354391	0.666665
N73	N	-0.136725	1.354549	-0.308254
N74	N	0.196609	1.687882	0.025079
N75	N	0.529942	2.021216	0.358412
C76	C	-0.136736	1.354567	-0.573925
C77	C	0.196598	1.687900	-0.240592
C78	C	0.529931	2.021233	0.092742
C79	C	-0.136732	1.354554	-0.426087
C80	C	0.196601	1.687887	-0.092754
C81	C	0.529934	2.021220	0.240580
N82	N	-0.136736	1.354586	0.308233
N83	N	0.196598	1.687919	0.641566
N84	N	0.529931	2.021252	0.974899
H85	H	-0.639785	1.488480	0.000087
H86	H	-0.306452	1.821813	0.333421
H87	H	0.026881	2.155146	0.666754
O88	O	-0.623421	1.192021	-0.000032
O89	O	-0.290088	1.525354	0.333301
O90	O	0.043246	1.858688	0.666635
H91	H	-0.544516	1.199919	-0.000053
H92	H	-0.211183	1.533252	0.333280
H93	H	0.122150	1.866586	0.666613
