data_functionalizedCrystal
_audit_creation_method	'MofGen! by Chris Wilmer'
_symmetry_space_group_name_H-M	'P1'
_symmetry_Int_Tables_number	1
_symmetry_cell_setting	triclinic
loop_
_symmetry_equiv_pos_as_xyz
  x,y,z
_cell_length_a	18.215405
_cell_length_b	11.169417
_cell_length_c	18.215399
_cell_angle_alpha	90.016030
_cell_angle_beta	90.030551
_cell_angle_gamma	90.026135
loop_
_atom_site_label
_atom_site_type_symbol
_atom_site_fract_x
_atom_site_fract_y
_atom_site_fract_z
Zn1	Zn	-0.292967	1.834800	0.416028
Zn2	Zn	-0.042967	2.084800	0.666028
Zn3	Zn	0.207033	2.334800	0.916028
Zn4	Zn	0.457033	2.584800	1.166028
Zn5	Zn	-0.416039	1.834650	0.292956
Zn6	Zn	-0.166039	2.084650	0.542956
Zn7	Zn	0.083961	2.334650	0.792956
Zn8	Zn	0.333961	2.584650	1.042956
Zn9	Zn	-0.292993	1.634098	0.292983
Zn10	Zn	-0.042993	1.884098	0.542983
Zn11	Zn	0.207007	2.134098	0.792983
Zn12	Zn	0.457007	2.384098	1.042983
Zn13	Zn	-0.415999	1.634042	0.415989
Zn14	Zn	-0.165999	1.884042	0.665989
Zn15	Zn	0.084001	2.134042	0.915989
Zn16	Zn	0.334001	2.384042	1.165989
O17	O	-0.354500	1.734398	0.354489
O18	O	-0.104500	1.984398	0.604489
O19	O	0.145500	2.234398	0.854489
O20	O	0.395500	2.484398	1.104489
O21	O	-0.309299	2.002730	0.399707
O22	O	-0.059299	2.252730	0.649707
O23	O	0.190701	2.502730	0.899707
O24	O	0.440701	2.752730	1.149707
O25	O	-0.399744	1.808007	0.189975
O26	O	-0.149744	2.058007	0.439975
O27	O	0.100256	2.308007	0.689975
O28	O	0.350256	2.558007	0.939975
O29	O	-0.190005	1.660807	0.309333
O30	O	0.059995	1.910807	0.559333
O31	O	0.309995	2.160807	0.809333
O32	O	0.559995	2.410807	1.059333
O33	O	-0.399719	2.002620	0.309287
O34	O	-0.149719	2.252620	0.559287
O35	O	0.100281	2.502620	0.809287
O36	O	0.350281	2.752620	1.059287
O37	O	-0.189986	1.808262	0.399733
O38	O	0.060014	2.058262	0.649733
O39	O	0.310014	2.308262	0.899733
O40	O	0.560014	2.558262	1.149733
O41	O	-0.309343	1.660662	0.189995
O42	O	-0.059343	1.910662	0.439995
O43	O	0.190657	2.160662	0.689995
O44	O	0.440657	2.410662	0.939995
O45	O	-0.309305	1.466141	0.309296
O46	O	-0.059305	1.716141	0.559296
O47	O	0.190695	1.966141	0.809296
O48	O	0.440695	2.216141	1.059296
O49	O	-0.399652	1.660712	0.518979
O50	O	-0.149652	1.910712	0.768979
O51	O	0.100348	2.160712	1.018979
O52	O	0.350348	2.410712	1.268979
O53	O	-0.399677	1.466100	0.399667
O54	O	-0.149677	1.716100	0.649667
O55	O	0.100323	1.966100	0.899667
O56	O	0.350323	2.216100	1.149667
O57	O	-0.309261	1.808208	0.519007
O58	O	-0.059261	2.058208	0.769007
O59	O	0.190739	2.308208	1.019007
O60	O	0.440739	2.558208	1.269007
O61	O	-0.519018	1.807953	0.309249
O62	O	-0.269018	2.057953	0.559249
O63	O	-0.019018	2.307953	0.809249
O64	O	0.230982	2.557953	1.059249
O65	O	-0.518989	1.660567	0.399641
O66	O	-0.268989	1.910567	0.649641
O67	O	-0.018989	2.160567	0.899641
O68	O	0.231011	2.410567	1.149641
C69	C	-0.354490	1.422573	0.354481
C70	C	-0.104490	1.672573	0.604481
C71	C	0.145510	1.922573	0.854481
C72	C	0.395510	2.172573	1.104481
C73	C	-0.354503	1.289173	0.354495
C74	C	-0.104503	1.539173	0.604495
C75	C	0.145497	1.789173	0.854495
C76	C	0.395497	2.039173	1.104495
C77	C	-0.545706	1.734271	0.354454
C78	C	-0.295706	1.984271	0.604454
C79	C	-0.045706	2.234271	0.854454
C80	C	0.204294	2.484271	1.104454
C81	C	-0.627505	1.734326	0.354463
C82	C	-0.377505	1.984326	0.604463
C83	C	-0.127505	2.234326	0.854463
C84	C	0.122495	2.484326	1.104463
C85	C	-0.815689	1.811250	0.307483
C86	C	-0.565689	2.061250	0.557483
C87	C	-0.315689	2.311250	0.807483
C88	C	-0.065689	2.561250	1.057483
C89	C	-0.892548	1.811304	0.307501
C90	C	-0.642548	2.061304	0.557501
C91	C	-0.392548	2.311304	0.807501
C92	C	-0.142548	2.561304	1.057501
C93	C	-0.892558	1.657698	0.401548
C94	C	-0.642558	1.907698	0.651548
C95	C	-0.392558	2.157698	0.901548
C96	C	-0.142558	2.407698	1.151548
C97	C	-0.815701	1.657651	0.401534
C98	C	-0.565701	1.907651	0.651534
C99	C	-0.315701	2.157651	0.901534
C100	C	-0.065701	2.407651	1.151534
C101	C	-0.777268	1.734426	0.354497
C102	C	-0.527268	1.984426	0.604497
C103	C	-0.277268	2.234426	0.854497
C104	C	-0.027268	2.484426	1.104497
C105	C	-0.930984	1.734526	0.354529
C106	C	-0.680984	1.984526	0.604529
C107	C	-0.430984	2.234526	0.854529
C108	C	-0.180984	2.484526	1.104529
C109	C	-1.014318	1.734584	0.354549
C110	C	-0.764318	1.984584	0.604549
C111	C	-0.514318	2.234584	0.854549
C112	C	-0.264318	2.484584	1.104549
C113	C	-0.693929	1.734370	0.354478
C114	C	-0.443929	1.984370	0.604478
C115	C	-0.193929	2.234370	0.854478
C116	C	0.056071	2.484370	1.104478
C117	C	-0.162547	1.734557	0.354541
C118	C	0.087453	1.984557	0.604541
C119	C	0.337453	2.234557	0.854541
C120	C	0.587453	2.484557	1.104541
C121	C	-0.080748	1.734626	0.354563
C122	C	0.169252	1.984626	0.604563
C123	C	0.419252	2.234626	0.854563
C124	C	0.669252	2.484626	1.104563
C125	C	-0.354510	2.047440	0.354498
C126	C	-0.104510	2.297440	0.604498
C127	C	0.145490	2.547440	0.854498
C128	C	0.395490	2.797440	1.104498
C129	C	-0.354515	2.180840	0.354502
C130	C	-0.104515	2.430840	0.604502
C131	C	0.145485	2.680840	0.854502
C132	C	0.395485	2.930840	1.104502
C133	C	-0.354449	1.734471	0.546442
C134	C	-0.104449	1.984471	0.796442
C135	C	0.145551	2.234471	1.046442
C136	C	0.395551	2.484471	1.296442
C137	C	-0.354427	1.734502	0.628241
C138	C	-0.104427	1.984502	0.878241
C139	C	0.145573	2.234502	1.128241
C140	C	0.395573	2.484502	1.378241
C141	C	-0.354497	1.734394	0.163283
C142	C	-0.104497	1.984394	0.413283
C143	C	0.145503	2.234394	0.663283
C144	C	0.395503	2.484394	0.913283
C145	C	-0.354311	1.734595	0.081484
C146	C	-0.104311	1.984595	0.331484
C147	C	0.145689	2.234595	0.581484
C148	C	0.395689	2.484595	0.831484
C149	C	-0.307317	1.811330	0.816451
C150	C	-0.057317	2.061330	1.066451
C151	C	0.192683	2.311330	1.316451
C152	C	0.442683	2.561330	1.566451
C153	C	-0.307295	1.811345	0.893310
C154	C	-0.057295	2.061345	1.143310
C155	C	0.192705	2.311345	1.393310
C156	C	0.442705	2.561345	1.643310
C157	C	-0.401424	1.657758	0.893269
C158	C	-0.151424	1.907758	1.143269
C159	C	0.098576	2.157758	1.393269
C160	C	0.348576	2.407758	1.643269
C161	C	-0.401441	1.657739	0.816412
C162	C	-0.151441	1.907739	1.066412
C163	C	0.098559	2.157739	1.316412
C164	C	0.348559	2.407739	1.566412
C165	C	-0.354389	1.734532	0.778005
C166	C	-0.104389	1.984532	1.028005
C167	C	0.145611	2.234532	1.278005
C168	C	0.395611	2.484532	1.528005
C169	C	-0.354350	1.734565	0.931721
C170	C	-0.104350	1.984565	1.181721
C171	C	0.145650	2.234565	1.431721
C172	C	0.395650	2.484565	1.681721
C173	C	-0.354327	1.734580	1.015055
C174	C	-0.104327	1.984580	1.265055
C175	C	0.145673	2.234580	1.515055
C176	C	0.395673	2.484580	1.765055
C177	C	-0.354410	1.734515	0.694666
C178	C	-0.104410	1.984515	0.944666
C179	C	0.145590	2.234515	1.194666
C180	C	0.395590	2.484515	1.444666
H181	H	-0.784399	1.873767	0.269183
H182	H	-0.534399	2.123767	0.519183
H183	H	-0.284399	2.373767	0.769183
H184	H	-0.034399	2.623767	1.019183
Cl185	Cl	-0.460618	1.561176	0.768075
Cl186	Cl	-0.210618	1.811176	1.018075
Cl187	Cl	0.039382	2.061176	1.268075
Cl188	Cl	0.289382	2.311176	1.518075
H189	H	-0.784416	1.595091	0.439822
H190	H	-0.534416	1.845091	0.689822
H191	H	-0.284416	2.095091	0.939822
H192	H	-0.034416	2.345091	1.189822
Cl193	Cl	-0.940878	1.561183	0.460675
Cl194	Cl	-0.690878	1.811183	0.710675
Cl195	Cl	-0.440878	2.061183	0.960675
Cl196	Cl	-0.190878	2.311183	1.210675
Cl197	Cl	-0.248123	1.907907	0.941639
Cl198	Cl	0.001877	2.157907	1.191639
Cl199	Cl	0.251877	2.407907	1.441639
Cl200	Cl	0.501877	2.657907	1.691639
H201	H	-0.269001	1.873857	0.785182
H202	H	-0.019001	2.123857	1.035182
H203	H	0.230999	2.373857	1.285182
H204	H	0.480999	2.623857	1.535182
H205	H	-0.439734	1.595239	0.924549
H206	H	-0.189734	1.845239	1.174549
H207	H	0.060266	2.095239	1.424549
H208	H	0.310266	2.345239	1.674549
H209	H	-0.923827	1.873864	0.269218
H210	H	-0.673827	2.123864	0.519218
H211	H	-0.423827	2.373864	0.769218
H212	H	-0.173827	2.623864	1.019218
