data_functionalizedCrystal
_audit_creation_method	'MofGen! by Chris Wilmer'
_symmetry_space_group_name_H-M	'P1'
_symmetry_Int_Tables_number	1
_symmetry_cell_setting	triclinic
loop_
_symmetry_equiv_pos_as_xyz
  x,y,z
_cell_length_a	11.169417
_cell_length_b	8.497374
_cell_length_c	11.169416
_cell_angle_alpha	89.994900
_cell_angle_beta	90.009278
_cell_angle_gamma	89.997930
loop_
_atom_site_label
_atom_site_type_symbol
_atom_site_fract_x
_atom_site_fract_y
_atom_site_fract_z
Zn1	Zn	-1.834730	0.892007	0.478049
Zn2	Zn	-1.501397	1.225341	0.811383
Zn3	Zn	-1.168063	1.558674	1.144716
Zn4	Zn	-1.834688	0.628226	0.678699
Zn5	Zn	-1.501355	0.961559	1.012033
Zn6	Zn	-1.168021	1.294892	1.345366
Zn7	Zn	-1.634085	0.628233	0.478025
Zn8	Zn	-1.300751	0.961566	0.811359
Zn9	Zn	-0.967418	1.294900	1.144692
Zn10	Zn	-1.634023	0.891955	0.678685
Zn11	Zn	-1.300690	1.225289	1.012019
Zn12	Zn	-0.967357	1.558622	1.345352
O13	O	-1.734381	0.760105	0.578365
O14	O	-1.401048	1.093439	0.911698
O15	O	-1.067715	1.426772	1.245031
O16	O	-2.002674	0.857035	0.504682
O17	O	-1.669341	1.190368	0.838015
O18	O	-1.336007	1.523701	1.171349
O19	O	-1.808086	0.407464	0.652076
O20	O	-1.474752	0.740798	0.985409
O21	O	-1.141419	1.074131	1.318742
O22	O	-1.660744	0.663248	0.310079
O23	O	-1.327410	0.996582	0.643412
O24	O	-0.994077	1.329915	0.976745
O25	O	-2.002643	0.663235	0.652099
O26	O	-1.669310	0.996569	0.985432
O27	O	-1.335977	1.329902	1.318765
O28	O	-1.808157	0.857042	0.310096
O29	O	-1.474824	1.190376	0.643430
O30	O	-1.141490	1.523709	0.976763
O31	O	-1.660703	0.407470	0.504641
O32	O	-1.327370	0.740803	0.837974
O33	O	-0.994036	1.074136	1.171308
O34	O	-1.466127	0.663198	0.504627
O35	O	-1.132793	0.996531	0.837961
O36	O	-0.799460	1.329865	1.171294
O37	O	-1.660639	1.112725	0.652075
O38	O	-1.327306	1.446058	0.985408
O39	O	-0.993973	1.779391	1.318741
O40	O	-1.466082	0.856953	0.652051
O41	O	-1.132748	1.190287	0.985385
O42	O	-0.799415	1.523620	1.318718
O43	O	-1.808098	1.112763	0.504668
O44	O	-1.474764	1.446096	0.838001
O45	O	-1.141431	1.779430	1.171335
O46	O	-1.808026	0.663185	0.846647
O47	O	-1.474693	0.996518	1.179981
O48	O	-1.141360	1.329852	1.513314
O49	O	-1.660599	0.856946	0.846637
O50	O	-1.327265	1.190279	1.179970
O51	O	-0.993932	1.523613	1.513303
C52	C	-1.422557	0.760072	0.578336
C53	C	-1.089223	1.093405	0.911669
C54	C	-0.755890	1.426738	1.245003
C55	C	-1.289157	0.760095	0.578353
C56	C	-0.955823	1.093428	0.911686
C57	C	-0.622490	1.426762	1.245019
C58	C	-1.047424	0.760127	0.578384
C59	C	-0.714090	1.093461	0.911718
C60	C	-0.380757	1.426794	1.245051
C61	C	-1.180824	0.760105	0.578367
C62	C	-0.847490	1.093438	0.911700
C63	C	-0.514157	1.426772	1.245034
C64	C	-1.734373	1.171586	0.578367
C65	C	-1.401039	1.504919	0.911700
C66	C	-1.067706	1.838252	1.245033
C67	C	-1.734375	1.350230	0.578379
C68	C	-1.401042	1.683563	0.911713
C69	C	-1.067709	2.016896	1.245046
C70	C	-1.734334	0.760093	0.890190
C71	C	-1.401001	1.093427	1.223523
C72	C	-1.067667	1.426760	1.556856
C73	C	-1.734423	0.760141	1.023589
C74	C	-1.401090	1.093474	1.356923
C75	C	-1.067757	1.426808	1.690256
C76	C	-1.734462	0.760152	0.265322
C77	C	-1.401129	1.093485	0.598656
C78	C	-1.067795	1.426819	0.931989
C79	C	-1.734496	0.760172	0.131922
C80	C	-1.401163	1.093505	0.465256
C81	C	-1.067830	1.426838	0.798589
