data_functionalizedCrystal
_audit_creation_method	'MofGen! by Chris Wilmer'
_symmetry_space_group_name_H-M	'P1'
_symmetry_Int_Tables_number	1
_symmetry_cell_setting	triclinic
loop_
_symmetry_equiv_pos_as_xyz
  x,y,z
_cell_length_a	10.654550
_cell_length_b	10.654550
_cell_length_c	9.730223
_cell_angle_alpha	89.995137
_cell_angle_beta	89.999957
_cell_angle_gamma	84.484937
loop_
_atom_site_label
_atom_site_type_symbol
_atom_site_fract_x
_atom_site_fract_y
_atom_site_fract_z
O1	O	1.667839	0.176399	-0.114189
O2	O	1.302361	0.193205	-0.114214
O3	O	1.493503	0.002062	-0.114190
O4	O	1.476697	0.367541	-0.114213
O5	O	1.493490	0.002057	0.114390
O6	O	1.302348	0.193199	0.114366
O7	O	1.667827	0.176393	0.114391
Zn8	Zn	1.485085	0.184796	0.150670
Zn9	Zn	1.485102	0.184802	-0.150494
O10	O	1.476684	0.367536	0.114367
C11	C	1.255556	0.191968	0.000072
C12	C	1.116113	0.188276	0.000063
C13	C	1.492263	-0.044738	0.000099
C14	C	1.488571	-0.184181	0.000099
C15	C	1.036628	0.300818	0.000060
C16	C	0.905607	0.297341	0.000084
C17	C	0.933570	0.068772	0.000109
C18	C	1.064588	0.072250	0.000094
C19	C	1.483352	-0.380737	0.124674
C20	C	1.486824	-0.249716	0.124691
C21	C	1.486832	-0.249673	-0.124519
C22	C	1.483350	-0.380691	-0.124535
C23	C	1.483353	-0.380762	0.268554
C24	C	1.486825	-0.249741	0.268571
C25	C	1.714631	0.177630	0.000101
C26	C	1.854074	0.181322	0.000101
C27	C	1.477925	0.414336	0.000074
C28	C	1.481617	0.553779	0.000066
N29	N	1.485083	0.184790	0.356207
N30	N	1.485114	0.184798	-0.356030
C31	C	1.569750	0.100188	0.428143
C32	C	1.569763	0.100189	0.572026
C33	C	1.400438	0.269404	0.572023
C34	C	1.400420	0.269396	0.428143
H35	H	0.840894	0.388984	0.000084
H36	H	1.575503	-0.224927	0.323822
C37	C	1.151046	-0.049850	-0.000120
C38	C	1.227094	-0.054512	-0.117708
C39	C	1.306765	-0.166956	-0.117938
H40	H	1.101754	-0.119550	-0.000180
H41	H	1.202817	-0.053249	0.079545
H42	H	1.175329	-0.051125	-0.197353
H43	H	1.276413	0.015163	-0.117673
H44	H	1.358536	-0.170356	-0.038272
H45	H	1.257463	-0.236648	-0.117994
H46	H	1.358381	-0.170129	-0.197713
H47	H	1.394675	-0.405591	0.323793
H48	H	1.638705	0.031297	0.630593
C49	C	1.092745	0.426695	0.000250
C50	C	1.167185	0.435356	0.117820
C51	C	1.218910	0.551292	0.118035
H52	H	1.026769	0.493333	0.000324
H53	H	1.143336	0.432815	-0.079428
H54	H	1.116597	0.429249	0.197477
H55	H	1.233181	0.368746	0.117772
H56	H	1.269501	0.557412	0.038357
H57	H	1.152926	0.617920	0.118105
H58	H	1.269432	0.557179	0.197798
C59	C	1.661713	0.008184	0.350288
C60	C	1.735839	-0.065930	0.444090
C61	C	1.820556	-0.150714	0.372425
H62	H	1.714496	0.053698	0.294139
H63	H	1.616108	-0.044590	0.294206
H64	H	1.781441	-0.013163	0.500149
H65	H	1.683091	-0.111471	0.500242
H66	H	1.774950	-0.203488	0.316344
H67	H	1.873330	-0.105190	0.316279
H68	H	1.870852	-0.201018	0.436059
H69	H	1.331508	0.338290	0.630608
C70	C	1.308436	0.361397	0.350278
C71	C	1.234325	0.435523	0.444068
C72	C	1.149589	0.520290	0.372389
H73	H	1.255646	0.315869	0.294162
H74	H	1.354027	0.414164	0.294162
H75	H	1.188737	0.382763	0.500160
H76	H	1.287081	0.481078	0.500187
H77	H	1.195180	0.573057	0.316273
H78	H	1.096807	0.474752	0.316275
H79	H	1.099302	0.570602	0.436015
C80	C	0.877382	-0.057069	0.000059
C81	C	0.745629	-0.036031	0.000031
C82	C	0.693830	-0.151928	-0.000037
H83	H	0.904464	-0.103555	0.079750
H84	H	0.904523	-0.103467	-0.079682
H85	H	0.718499	0.010347	0.079764
H86	H	0.718512	0.010435	-0.079654
H87	H	0.720971	-0.198326	-0.079778
H88	H	0.720921	-0.198405	0.079656
H89	H	0.604431	-0.137669	-0.000069
H90	H	1.488241	-0.196303	-0.225965
C91	C	1.481553	-0.451572	-0.259969
C92	C	1.483864	-0.366143	-0.369078
C93	C	1.482238	-0.431396	-0.493865
H94	H	1.407114	-0.493754	-0.265368
H95	H	1.553342	-0.511594	-0.265213
H96	H	1.412081	-0.306144	-0.363837
H97	H	1.558297	-0.323958	-0.363725
H98	H	1.554028	-0.491418	-0.499109
H99	H	1.407798	-0.473575	-0.499250
H100	H	1.483817	-0.373445	-0.567910
C101	C	1.602755	-0.449581	0.327921
C102	C	1.706690	-0.421479	0.249604
C103	C	1.816708	-0.484837	0.304258
H104	H	1.596423	-0.537884	0.325873
H105	H	1.613224	-0.423300	0.420171
H106	H	1.696223	-0.447767	0.157378
H107	H	1.713063	-0.333188	0.251646
H108	H	1.827178	-0.458556	0.396508
H109	H	1.810364	-0.573136	0.302207
H110	H	1.887243	-0.465770	0.251137
C111	C	1.367500	-0.181021	0.328225
C112	C	1.284902	-0.269047	0.367716
C113	C	1.174978	-0.205788	0.422687
H114	H	1.328043	-0.125999	0.260885
H115	H	1.388423	-0.133432	0.406091
H116	H	1.263977	-0.316615	0.289860
H117	H	1.324319	-0.324072	0.435069
H118	H	1.195901	-0.158199	0.500553
H119	H	1.135532	-0.150769	0.355340
H120	H	1.118927	-0.265504	0.449500
