data_functionalizedCrystal
_audit_creation_method	'MofGen! by Chris Wilmer'
_symmetry_space_group_name_H-M	'P1'
_symmetry_Int_Tables_number	1
_symmetry_cell_setting	triclinic
loop_
_symmetry_equiv_pos_as_xyz
  x,y,z
_cell_length_a	12.645331
_cell_length_b	29.839131
_cell_length_c	12.645324
_cell_angle_alpha	89.960499
_cell_angle_beta	89.978020
_cell_angle_gamma	90.040399
loop_
_atom_site_label
_atom_site_type_symbol
_atom_site_fract_x
_atom_site_fract_y
_atom_site_fract_z
Zn1	Zn	1.620549	-0.178832	-0.599388
Zn2	Zn	2.120549	0.321168	-0.099388
Zn3	Zn	1.620360	-0.253973	-0.422104
Zn4	Zn	2.120360	0.246027	0.077896
Zn5	Zn	1.443266	-0.178856	-0.422133
Zn6	Zn	1.943266	0.321144	0.077867
Zn7	Zn	1.443172	-0.253934	-0.599320
Zn8	Zn	1.943172	0.246066	-0.099320
O9	O	1.531837	-0.216399	-0.510736
O10	O	2.031837	0.283601	-0.010736
O11	O	1.768871	-0.188805	-0.575888
O12	O	2.268871	0.311195	-0.075888
O13	O	1.596828	-0.244034	-0.273761
O14	O	2.096828	0.255966	0.226239
O15	O	1.466902	-0.115986	-0.445687
O16	O	1.966902	0.384014	0.054313
O17	O	1.768732	-0.244011	-0.445638
O18	O	2.268732	0.255989	0.054362
O19	O	1.597151	-0.115968	-0.575916
O20	O	2.097151	0.384032	-0.075916
O21	O	1.466718	-0.188846	-0.273782
O22	O	1.966718	0.311154	0.226218
O23	O	1.294906	-0.188809	-0.445620
O24	O	1.794906	0.311191	0.054380
O25	O	1.466742	-0.243946	-0.747676
O26	O	1.966742	0.256054	-0.247676
O27	O	1.294837	-0.243969	-0.575799
O28	O	1.794837	0.256031	-0.075799
O29	O	1.597060	-0.188768	-0.747727
O30	O	2.097060	0.311232	-0.247727
O31	O	1.596737	-0.316835	-0.445571
O32	O	2.096737	0.183165	0.054429
O33	O	1.466558	-0.316807	-0.575771
O34	O	1.966558	0.183193	-0.075771
C35	C	1.256407	-0.216388	-0.510706
C36	C	1.756407	0.283612	-0.010706
C37	C	1.138577	-0.216394	-0.510718
C38	C	1.638577	0.283606	-0.010718
C39	C	0.971021	-0.181534	-0.429274
C40	C	1.471021	0.318466	0.070726
C41	C	1.093581	-0.181624	-0.428915
C42	C	1.593581	0.318376	0.071085
C43	C	1.094011	-0.263721	-0.480188
C44	C	1.594011	0.236279	0.019812
C45	C	0.971412	-0.263531	-0.479632
C46	C	1.471412	0.236469	0.020368
C47	C	0.971438	-0.204378	-0.623006
C48	C	1.471438	0.295622	-0.123006
C49	C	1.094045	-0.203321	-0.622382
C50	C	1.594045	0.296679	-0.122382
C51	C	1.531645	-0.333121	-0.510684
C52	C	2.031645	0.166879	-0.010684
C53	C	1.531660	-0.383056	-0.510697
C54	C	2.031660	0.116944	-0.010697
C55	C	1.599744	-0.692701	-0.443041
C56	C	2.099744	-0.192701	0.056959
C57	C	1.599875	-0.880374	-0.443082
C58	C	2.099875	-0.380374	0.056918
O59	O	1.657610	-0.904641	-0.385518
O60	O	2.157610	-0.404641	0.114482
N61	N	1.532057	-0.903841	-0.510816
N62	N	2.032057	-0.403841	-0.010816
C63	C	1.464205	-0.880386	-0.578550
C64	C	1.964205	-0.380386	-0.078550
O65	O	1.406532	-0.904652	-0.636171
O66	O	1.906532	-0.404652	-0.136171
C67	C	1.464081	-0.692714	-0.578514
C68	C	1.964081	-0.192714	-0.078514
C69	C	1.531896	-0.669250	-0.510767
C70	C	2.031896	-0.169250	-0.010767
C71	C	1.667555	-0.669237	-0.375300
C72	C	2.167555	-0.169237	0.124700
C73	C	1.667517	-0.622321	-0.375287
C74	C	2.167517	-0.122321	0.124713
C75	C	1.599669	-0.598870	-0.443013
C76	C	2.099669	-0.098870	0.056987
C77	C	1.531859	-0.622334	-0.510753
C78	C	2.031859	-0.122334	-0.010753
C79	C	1.396236	-0.669260	-0.646252
C80	C	1.896236	-0.169260	-0.146252
C81	C	1.396213	-0.622339	-0.646239
C82	C	1.896213	-0.122339	-0.146239
C83	C	1.464028	-0.598875	-0.578492
C84	C	1.964028	-0.098875	-0.078492
C85	C	1.463973	-0.551968	-0.578466
C86	C	1.963973	-0.051968	-0.078466
N87	N	1.531791	-0.528501	-0.510732
N88	N	2.031791	-0.028501	-0.010732
C89	C	1.599640	-0.551952	-0.443005
C90	C	2.099640	-0.051952	0.056995
C91	C	1.464274	-0.978917	-0.578563
C92	C	1.964274	-0.478917	-0.078563
C93	C	1.464304	-1.025835	-0.578571
C94	C	1.964304	-0.525835	-0.078571
C95	C	1.599975	-1.025819	-0.443104
C96	C	2.099975	-0.525819	0.056896
C97	C	1.599939	-0.978901	-0.443091
C98	C	2.099939	-0.478901	0.056909
C99	C	1.532093	-0.955450	-0.510829
C100	C	2.032093	-0.455450	-0.010829
C101	C	1.599555	-0.453427	-0.442981
C102	C	2.099555	0.046573	0.057019
C103	C	1.599508	-0.406507	-0.442970
C104	C	2.099508	0.093493	0.057030
C105	C	1.463842	-0.406526	-0.578441
C106	C	1.963842	0.093474	-0.078441
C107	C	1.463884	-0.453442	-0.578448
C108	C	1.963884	0.046558	-0.078448
C109	C	1.531749	-0.476891	-0.510715
C110	C	2.031749	0.023109	-0.010715
O111	O	1.406276	-0.527672	-0.636009
O112	O	1.906276	-0.027672	-0.136009
O113	O	1.657320	-0.527678	-0.385409
O114	O	2.157320	-0.027678	0.114591
C115	C	1.599782	-0.739616	-0.443054
C116	C	2.099782	-0.239616	0.056946
C117	C	1.531971	-0.763081	-0.510794
C118	C	2.031971	-0.263081	-0.010794
C119	C	1.464123	-0.739630	-0.578521
C120	C	1.964123	-0.239630	-0.078521
C121	C	1.532001	-0.809999	-0.510802
C122	C	2.032001	-0.309999	-0.010802
C123	C	1.599849	-0.833450	-0.443076
C124	C	2.099849	-0.333450	0.056924
C125	C	1.667667	-0.809983	-0.375341
C126	C	2.167667	-0.309983	0.124659
C127	C	1.667630	-0.763068	-0.375328
C128	C	2.167630	-0.263068	0.124672
C129	C	1.396305	-0.763096	-0.646256
C130	C	1.896305	-0.263096	-0.146256
C131	C	1.396347	-0.810012	-0.646263
C132	C	1.896347	-0.310012	-0.146263
C133	C	1.464195	-0.833463	-0.578536
C134	C	1.964195	-0.333463	-0.078536
C135	C	1.808342	-0.216410	-0.510768
C136	C	2.308342	0.283590	-0.010768
C137	C	1.926172	-0.216414	-0.510781
C138	C	2.426172	0.283586	-0.010781
C139	C	1.531911	-0.216350	-0.787242
C140	C	2.031911	0.283650	-0.287242
C141	C	1.531943	-0.216329	-0.905072
C142	C	2.031943	0.283671	-0.405072
C143	C	1.532058	-0.099220	-0.510812
C144	C	2.032058	0.400780	-0.010812
C145	C	1.532152	-0.049286	-0.510845
C146	C	2.032152	0.450714	-0.010845
C147	C	1.613945	-0.181610	-0.949986
C148	C	2.113945	0.318390	-0.449986
C149	C	1.614297	-0.181700	-1.072546
C150	C	2.114297	0.318300	-0.572546
C151	C	1.561853	-0.263696	-1.072938
C152	C	2.061853	0.236304	-0.572938
C153	C	1.562417	-0.263507	-0.950340
C154	C	2.062417	0.236493	-0.450340
C155	C	1.419890	-0.204072	-0.950246
C156	C	1.919890	0.295928	-0.450246
C157	C	1.420523	-0.203016	-1.072854
C158	C	1.920523	0.296984	-0.572854
C159	C	1.531823	-0.216415	-0.235307
C160	C	2.031823	0.283585	0.264693
C161	C	1.531997	-0.216309	-0.117477
C162	C	2.031997	0.283691	0.382523
H163	H	0.940166	-0.189401	-0.346601
H164	H	1.440166	0.310599	0.153399
F165	F	1.739873	-0.834950	-0.303259
F166	F	2.239873	-0.334950	0.196741
F167	F	0.933527	-0.237584	-0.702385
F168	F	1.433527	0.262416	-0.202385
H169	H	1.654732	-0.387404	-0.387799
H170	H	2.154732	0.112596	0.112201
H171	H	1.696504	-0.189637	-0.919188
H172	H	2.196504	0.310363	-0.419188
H173	H	1.697343	-0.189821	-1.101885
H174	H	2.197343	0.310179	-0.601885
H175	H	1.341056	-0.744006	-0.701408
H176	H	1.841056	-0.244006	-0.201408
H177	H	1.595646	-0.146570	-1.102663
H178	H	2.095646	0.353430	-0.602663
F179	F	1.132143	-0.157802	-0.652484
F180	F	1.632143	0.342198	-0.152484
H181	H	1.124657	-0.274103	-0.399026
H182	H	1.624657	0.225897	0.100974
F183	F	1.134079	-0.234106	-0.706008
F184	F	1.634079	0.265894	-0.206008
H185	H	1.122852	-0.189580	-0.345753
H186	H	1.622852	0.310420	0.154247
H187	H	1.392603	-0.170113	-0.919340
H188	H	1.892603	0.329887	-0.419340
F189	F	1.669462	-0.277058	-0.912970
F190	F	2.169462	0.222942	-0.412970
F191	F	1.391639	-0.381560	-0.650520
F192	F	1.891639	0.118440	-0.150520
H193	H	1.654820	-0.472513	-0.387828
H194	H	2.154820	0.027487	0.112172
F195	F	0.931100	-0.160056	-0.659293
F196	F	1.431100	0.339944	-0.159293
H197	H	0.941591	-0.146333	-0.448207
H198	H	1.441591	0.353667	0.051793
F199	F	1.486199	-0.298426	-1.110970
F200	F	1.986199	0.201574	-0.610970
F201	F	1.487718	-0.298482	-0.911495
F202	F	1.987718	0.201518	-0.411495
H203	H	0.942758	-0.273738	-0.397590
H204	H	1.442758	0.226262	0.102410
F205	F	1.324065	-0.694223	-0.718368
F206	F	1.824065	-0.194223	-0.218368
H207	H	1.722851	-0.743966	-0.320162
H208	H	2.222851	-0.243966	0.179838
F209	F	0.932626	-0.298652	-0.553836
F210	F	1.432626	0.201348	-0.053836
F211	F	1.324160	-0.834979	-0.718371
F212	F	1.824160	-0.334979	-0.218371
H213	H	1.595515	-0.146372	-0.920541
H214	H	2.095515	0.353628	-0.420541
F215	F	1.667741	-0.277475	-1.113077
F216	F	2.167741	0.222525	-0.613077
F217	F	1.336456	-0.233634	-1.112826
F218	F	1.836456	0.266366	-0.612826
H219	H	1.397999	-0.168143	-1.101969
H220	H	1.897999	0.331857	-0.601969
F221	F	1.672117	-0.953932	-0.370987
F222	F	2.172117	-0.453932	0.129013
H223	H	1.358800	-0.229358	-0.921195
H224	H	1.858800	0.270642	-0.421195
F225	F	1.132090	-0.298599	-0.555352
F226	F	1.632090	0.201401	-0.055352
F227	F	1.391688	-0.478415	-0.650532
F228	F	1.891688	0.021585	-0.150532
H229	H	1.655220	-1.044921	-0.387958
H230	H	2.155220	-0.544921	0.112042
F231	F	1.739708	-0.597355	-0.303193
F232	F	2.239708	-0.097355	0.196807
H233	H	1.722810	-0.688326	-0.320149
H234	H	2.222810	-0.188326	0.179851
F235	F	1.392114	-1.050802	-0.650664
F236	F	1.892114	-0.550802	-0.150664
H237	H	1.123715	-0.146529	-0.448053
H238	H	1.623715	0.353471	0.051947
F239	F	1.324001	-0.597385	-0.718339
F240	F	1.824001	-0.097385	-0.218339
F241	F	1.392056	-0.953965	-0.650662
F242	F	1.892056	-0.453965	-0.150662
