data_functionalizedCrystal
_audit_creation_method	'MofGen! by Chris Wilmer'
_symmetry_space_group_name_H-M	'P1'
_symmetry_Int_Tables_number	1
_symmetry_cell_setting	triclinic
loop_
_symmetry_equiv_pos_as_xyz
  x,y,z
_cell_length_a	17.640112
_cell_length_b	19.077068
_cell_length_c	19.076919
_cell_angle_alpha	94.470751
_cell_angle_beta	77.038285
_cell_angle_gamma	76.960565
loop_
_atom_site_label
_atom_site_type_symbol
_atom_site_fract_x
_atom_site_fract_y
_atom_site_fract_z
Zn1	Zn	1.196685	0.072021	0.185764
Zn2	Zn	1.696685	0.572021	0.685764
Zn3	Zn	1.196585	0.185193	0.072627
Zn4	Zn	1.696585	0.685193	0.572627
Zn5	Zn	1.067866	0.091489	0.092016
Zn6	Zn	1.567866	0.591489	0.592016
Zn7	Zn	1.056565	0.216177	0.216690
Zn8	Zn	1.556565	0.716177	0.716690
O9	O	1.129425	0.141220	0.141774
O10	O	1.629425	0.641220	0.641774
O11	O	1.309182	0.065919	0.149699
O12	O	1.809182	0.565919	0.649699
O13	O	1.184198	0.167944	-0.024326
O14	O	1.684198	0.667944	0.475674
O15	O	1.089725	-0.010638	0.099623
O16	O	1.589725	0.489362	0.599623
O17	O	1.309109	0.149066	0.066578
O18	O	1.809109	0.649066	0.566578
O19	O	1.184368	-0.024941	0.168500
O20	O	1.684368	0.475059	0.668500
O21	O	1.089628	0.099100	-0.010081
O22	O	1.589628	0.599100	0.489919
O23	O	0.953857	0.129144	0.129611
O24	O	1.453857	0.629144	0.629611
O25	O	1.070465	0.201873	0.312113
O26	O	1.570465	0.701873	0.812113
O27	O	0.945554	0.220751	0.221209
O28	O	1.445554	0.720751	0.721209
O29	O	1.173410	0.095963	0.289391
O30	O	1.673410	0.595963	0.789391
O31	O	1.173241	0.288848	0.096566
O32	O	1.673241	0.788848	0.596566
O33	O	1.070369	0.311612	0.202409
O34	O	1.570369	0.811612	0.702409
C35	C	1.120589	0.326037	0.150751
C36	C	1.620589	0.826037	0.650751
C37	C	1.116881	0.405090	0.154601
C38	C	1.616881	0.905090	0.654601
C39	C	0.920533	0.180423	0.180871
C40	C	1.420533	0.680423	0.680871
C41	C	0.831166	0.197212	0.197614
C42	C	1.331166	0.697212	0.697614
C43	C	1.120688	0.150203	0.327279
C44	C	1.620688	0.650203	0.827279
C45	C	1.116965	0.154030	0.406330
C46	C	1.616965	0.654030	0.906330
C47	C	0.558750	0.013664	0.014584
C48	C	1.058750	0.513664	0.514584
C49	C	0.474775	0.029455	0.030327
C50	C	0.974775	0.529455	0.530327
C51	C	0.466186	0.124963	0.125557
C52	C	0.966186	0.624963	0.625557
C53	C	0.550162	0.109178	0.109824
C54	C	1.050162	0.609178	0.609824
C55	C	0.596437	0.053528	0.054336
C56	C	1.096437	0.553528	0.554336
C57	C	0.587849	0.149042	0.149576
C58	C	1.087849	0.649042	0.649576
C59	C	0.671817	0.133261	0.133842
C60	C	1.171817	0.633261	0.633842
C61	C	0.718099	0.077615	0.078355
C62	C	1.218099	0.577615	0.578355
C63	C	0.680406	0.037747	0.038602
C64	C	1.180406	0.537747	0.538602
C65	C	0.541572	0.204695	0.205060
C66	C	1.041572	0.704695	0.705060
C67	C	0.579259	0.244559	0.244813
C68	C	1.079259	0.744559	0.744813
C69	C	0.663229	0.228775	0.229082
C70	C	1.163229	0.728775	0.729082
C71	C	0.709510	0.173129	0.173596
C72	C	1.209510	0.673129	0.673596
C73	C	0.700922	0.268643	0.268836
C74	C	1.200922	0.768643	0.768836
C75	C	0.784890	0.252861	0.253102
C76	C	1.284890	0.752861	0.753102
C77	C	0.793479	0.157347	0.157861
C78	C	1.293479	0.657347	0.657861
C79	C	1.339134	0.101865	0.102526
C80	C	1.839134	0.601865	0.602526
C81	C	1.428499	0.085094	0.085801
C82	C	1.928499	0.585094	0.585801
C83	C	1.138318	-0.044322	0.132775
C84	C	1.638318	0.455678	0.632775
C85	C	1.142107	-0.123389	0.128939
C86	C	1.642107	0.376611	0.628939
C87	C	1.168737	0.430349	0.101333
C88	C	1.668737	0.930349	0.601333
C89	C	1.165254	0.504628	0.104958
C90	C	1.665254	1.004628	0.604958
C91	C	1.109910	0.553647	0.161848
C92	C	1.609910	1.053647	0.661848
C93	C	1.058052	0.528384	0.215120
C94	C	1.558052	1.028384	0.715120
C95	C	1.061539	0.454106	0.211498
C96	C	1.561539	0.954106	0.711498
C97	C	1.093736	0.777070	0.178590
C98	C	1.593736	1.277070	0.678590
C99	C	1.090251	0.851352	0.182207
C100	C	1.590251	1.351352	0.682207
C101	C	1.197455	0.827590	0.072045
C102	C	1.697455	1.327590	0.572045
C103	C	1.200934	0.753312	0.068425
C104	C	1.700934	1.253312	0.568425
C105	C	1.149078	0.728055	0.121700
C106	C	1.649078	1.228055	0.621700
N107	N	1.106347	0.629573	0.165553
N108	N	1.606347	1.129573	0.665553
N109	N	1.152646	0.652130	0.117997
N110	N	1.652646	1.152130	0.617997
C111	C	1.138177	0.132213	-0.043020
C112	C	1.638177	0.632213	0.456980
C113	C	1.142066	0.128155	-0.122109
C114	C	1.642066	0.628155	0.377891
C115	C	1.168811	0.100689	0.431641
C116	C	1.668811	0.600689	0.931641
C117	C	1.165303	0.104285	0.505919
C118	C	1.665303	0.604285	1.005919
C119	C	1.109952	0.161225	0.554886
C120	C	1.609952	0.661225	1.054886
C121	C	1.058100	0.214569	0.529571
C122	C	1.558100	0.714569	1.029571
C123	C	1.061605	0.210970	0.455295
C124	C	1.561605	0.710970	0.955295
C125	C	1.093719	0.177900	0.778299
C126	C	1.593719	0.677900	1.278299
C127	C	1.090220	0.181496	0.852580
C128	C	1.590220	0.681496	1.352580
C129	C	1.197422	0.071211	0.828923
C130	C	1.697422	0.571211	1.328923
C131	C	1.200925	0.067619	0.754645
C132	C	1.700925	0.567619	1.254645
C133	C	1.149070	0.120961	0.729338
C134	C	1.649070	0.620961	1.229338
N135	N	1.106367	0.164903	0.630810
N136	N	1.606367	0.664903	1.130810
N137	N	1.152653	0.117279	0.653415
N138	N	1.652653	0.617279	1.153415
H139	H	0.831159	0.112022	0.112688
H140	H	1.331159	0.612022	0.612688
Cl141	Cl	0.996348	0.422353	0.278468
Cl142	Cl	1.496348	0.922353	0.778468
H143	H	1.012993	0.568302	0.261444
H144	H	1.512993	1.068302	0.761444
H145	H	1.213800	0.390441	0.055005
H146	H	1.713800	0.890441	0.555005
Cl147	Cl	0.996422	0.278029	0.423477
Cl148	Cl	1.496422	0.778029	0.923477
H149	H	1.245999	0.713401	0.022101
H150	H	1.745999	1.213401	0.522101
H151	H	0.786471	0.064768	0.065544
H152	H	1.286471	0.564768	0.565544
H153	H	0.428497	0.170275	0.170733
H154	H	0.928497	0.670275	0.670733
Cl155	Cl	1.230450	0.536377	0.037991
Cl156	Cl	1.730450	1.036377	0.537991
Cl157	Cl	1.230518	0.037249	0.537729
Cl158	Cl	1.730518	0.537249	1.037729
Cl159	Cl	0.832272	0.302978	0.303075
Cl160	Cl	1.332272	0.802978	0.803075
Cl161	Cl	0.521077	0.314524	0.314558
Cl162	Cl	1.021077	0.814524	0.814558
Cl163	Cl	1.270512	-0.003966	0.693092
Cl164	Cl	1.770512	0.496034	1.193092
Cl165	Cl	0.616932	-0.056301	-0.055169
Cl166	Cl	1.116932	0.443699	0.444831
H167	H	1.013030	0.260929	0.569447
H168	H	1.513030	0.760929	1.069447
H169	H	1.213886	0.054324	0.391776
H170	H	1.713886	0.554324	0.891776
H171	H	0.473199	0.217542	0.217869
H172	H	0.973199	0.717542	0.717869
Cl173	Cl	1.262645	0.859346	0.005079
Cl174	Cl	1.762645	1.359346	0.505079
H175	H	1.045193	0.891262	0.228544
H176	H	1.545193	1.391262	0.728544
Cl177	Cl	1.262603	0.004155	0.860744
Cl178	Cl	1.762603	0.504155	1.360744
Cl179	Cl	1.028544	0.745328	0.245563
Cl180	Cl	1.528544	1.245328	0.745563
Cl181	Cl	1.020626	0.253081	0.914139
Cl182	Cl	1.520626	0.753081	1.414139
Cl183	Cl	0.642737	0.338612	0.338576
Cl184	Cl	1.142737	0.838612	0.838576
H185	H	1.051507	0.221343	0.757702
H186	H	1.551507	0.721343	1.257702
H187	H	0.718086	-0.007579	-0.006572
H188	H	1.218086	0.492421	0.493428
H189	H	0.444094	-0.003016	-0.002044
H190	H	0.944094	0.496984	0.497956
