data_functionalizedCrystal
_audit_creation_method	'MofGen! by Chris Wilmer'
_symmetry_space_group_name_H-M	'P1'
_symmetry_Int_Tables_number	1
_symmetry_cell_setting	triclinic
loop_
_symmetry_equiv_pos_as_xyz
  x,y,z
_cell_length_a	16.625546
_cell_length_b	11.169417
_cell_length_c	11.169417
_cell_angle_alpha	89.999137
_cell_angle_beta	90.013698
_cell_angle_gamma	89.976653
loop_
_atom_site_label
_atom_site_type_symbol
_atom_site_fract_x
_atom_site_fract_y
_atom_site_fract_z
Zn1	Zn	-0.321114	-1.834637	0.678491
Zn2	Zn	-0.455918	-1.834550	0.477787
Zn3	Zn	-0.321105	-1.633989	0.477826
Zn4	Zn	-0.455911	-1.633887	0.678432
O5	O	-0.388512	-1.734266	0.578134
O6	O	-0.339003	-2.002575	0.651876
O7	O	-0.438034	-1.807951	0.309843
O8	O	-0.208274	-1.660684	0.504486
O9	O	-0.438043	-2.002511	0.504420
O10	O	-0.208281	-1.808099	0.651914
O11	O	-0.338988	-1.660600	0.309871
O12	O	-0.338980	-1.466026	0.504428
O13	O	-0.438030	-1.660511	0.846389
O14	O	-0.438021	-1.465951	0.651812
O15	O	-0.338996	-1.808001	0.846433
O16	O	-0.568749	-1.807853	0.504362
O17	O	-0.568744	-1.660427	0.651775
C18	C	-0.598003	-1.734152	0.578084
C19	C	-0.687624	-1.734213	0.578102
C20	C	-0.388513	-1.734254	0.891176
C21	C	-0.388514	-1.734249	1.024576
C22	C	-0.388500	-1.422441	0.578119
C23	C	-0.388514	-1.289041	0.578140
C24	C	-1.015800	-1.734423	0.578227
C25	C	-0.924491	-1.734361	0.578196
C26	C	-0.851715	-1.734317	0.578164
C27	C	-0.760400	-1.734257	0.578134
C28	C	-0.178203	-1.734412	0.578211
C29	C	-0.088582	-1.734475	0.578243
C30	C	-0.388525	-2.047308	0.578150
C31	C	-0.388530	-2.180708	0.578157
C32	C	-0.388525	-1.734263	1.266309
C33	C	-0.388515	-1.734252	1.132909
