data_functionalizedCrystal
_audit_creation_method	'MofGen! by Chris Wilmer'
_symmetry_space_group_name_H-M	'P1'
_symmetry_Int_Tables_number	1
_symmetry_cell_setting	triclinic
loop_
_symmetry_equiv_pos_as_xyz
  x,y,z
_cell_length_a	16.625546
_cell_length_b	12.827893
_cell_length_c	12.827885
_cell_angle_alpha	90.021189
_cell_angle_beta	89.964876
_cell_angle_gamma	89.979323
loop_
_atom_site_label
_atom_site_type_symbol
_atom_site_fract_x
_atom_site_fract_y
_atom_site_fract_z
Zn1	Zn	-0.321001	-1.597618	-0.590863
Zn2	Zn	0.012332	-1.264285	-0.257530
Zn3	Zn	0.345666	-0.930952	0.075803
Zn4	Zn	-0.455855	-1.597491	-0.416107
Zn5	Zn	-0.122522	-1.264157	-0.082774
Zn6	Zn	0.210811	-0.930824	0.250559
Zn7	Zn	-0.321036	-1.422860	-0.416131
Zn8	Zn	0.012297	-1.089526	-0.082798
Zn9	Zn	0.345630	-0.756193	0.250536
Zn10	Zn	-0.455791	-1.422823	-0.590801
Zn11	Zn	-0.122458	-1.089490	-0.257468
Zn12	Zn	0.210875	-0.756157	0.075865
O13	O	-0.388421	-1.510198	-0.503476
O14	O	-0.055088	-1.176865	-0.170142
O15	O	0.278246	-0.843531	0.163191
O16	O	-0.338902	-1.743837	-0.567698
O17	O	-0.005569	-1.410504	-0.234364
O18	O	0.327765	-1.077171	0.098969
O19	O	-0.438013	-1.574287	-0.269874
O20	O	-0.104679	-1.240954	0.063459
O21	O	0.228654	-0.907621	0.396792
O22	O	-0.208199	-1.446110	-0.439346
O23	O	0.125134	-1.112777	-0.106012
O24	O	0.458468	-0.779444	0.227321
O25	O	-0.437979	-1.743744	-0.439305
O26	O	-0.104645	-1.410410	-0.105972
O27	O	0.228688	-1.077077	0.227362
O28	O	-0.208173	-1.574505	-0.567721
O29	O	0.125160	-1.241171	-0.234387
O30	O	0.458493	-0.907838	0.098946
O31	O	-0.338962	-1.445987	-0.269892
O32	O	-0.005628	-1.112653	0.063442
O33	O	0.327705	-0.779320	0.396775
O34	O	-0.338900	-1.276619	-0.439286
O35	O	-0.005566	-0.943285	-0.105952
O36	O	0.327767	-0.609952	0.227381
O37	O	-0.437869	-1.446048	-0.737046
O38	O	-0.104536	-1.112715	-0.403712
O39	O	0.228797	-0.779382	-0.070379
O40	O	-0.437904	-1.276592	-0.567615
O41	O	-0.104570	-0.943259	-0.234282
O42	O	0.228763	-0.609925	0.099052
O43	O	-0.338840	-1.574469	-0.737091
O44	O	-0.005506	-1.241136	-0.403758
O45	O	0.327827	-0.907803	-0.070425
O46	O	-0.568679	-1.574252	-0.439245
O47	O	-0.235346	-1.240919	-0.105912
O48	O	0.097987	-0.907586	0.227422
O49	O	-0.568632	-1.445925	-0.567592
O50	O	-0.235299	-1.112591	-0.234259
O51	O	0.098035	-0.779258	0.099075
C52	C	-0.388399	-1.238688	-0.503447
C53	C	-0.055066	-0.905355	-0.170114
C54	C	0.278268	-0.572021	0.163220
C55	C	-0.388409	-1.122535	-0.503459
C56	C	-0.055076	-0.789202	-0.170126
C57	C	0.278258	-0.455868	0.163207
C58	C	-0.339468	-1.070796	-0.567089
C59	C	-0.006135	-0.737463	-0.233756
C60	C	0.327198	-0.404130	0.099578
C61	C	-0.339477	-0.950746	-0.567103
C62	C	-0.006144	-0.617413	-0.233770
C63	C	0.327189	-0.284079	0.099563
C64	C	-0.597912	-1.510099	-0.503432
C65	C	-0.264579	-1.176766	-0.170099
C66	C	0.068755	-0.843432	0.163235
C67	C	-0.687533	-1.510152	-0.503448
C68	C	-0.354200	-1.176819	-0.170115
C69	C	-0.020866	-0.843486	0.163218
C70	C	-1.015708	-1.510335	-0.503557
C71	C	-0.682375	-1.177001	-0.170224
C72	C	-0.349042	-0.843668	0.163110
C73	C	-0.924400	-1.510281	-0.503530
C74	C	-0.591067	-1.176947	-0.170196
C75	C	-0.257733	-0.843614	0.163137
C76	C	-0.851624	-1.510243	-0.503502
C77	C	-0.518290	-1.176909	-0.170169
C78	C	-0.184957	-0.843576	0.163164
C79	C	-0.760309	-1.510190	-0.503476
C80	C	-0.426976	-1.176857	-0.170143
C81	C	-0.093643	-0.843524	0.163191
C82	C	-0.178112	-1.510326	-0.503543
C83	C	0.155221	-1.176992	-0.170209
C84	C	0.488555	-0.843659	0.163124
C85	C	-0.088491	-1.510380	-0.503571
C86	C	0.244842	-1.177047	-0.170238
C87	C	0.578176	-0.843713	0.163096
C88	C	-0.388344	-1.510269	-0.776046
C89	C	-0.055010	-1.176936	-0.442713
C90	C	0.278323	-0.843602	-0.109379
C91	C	-0.388311	-1.510299	-0.892199
C92	C	-0.054977	-1.176966	-0.558866
C93	C	0.278356	-0.843633	-0.225533
C94	C	-0.388437	-0.782768	-0.503497
C95	C	-0.055104	-0.449435	-0.170164
C96	C	0.278230	-0.116101	0.163170
C97	C	-0.388427	-0.898921	-0.503485
C98	C	-0.055094	-0.565588	-0.170151
C99	C	0.278240	-0.232255	0.163182
C100	C	-0.339298	-1.573853	-0.944007
C101	C	-0.005965	-1.240520	-0.610673
C102	C	0.327369	-0.907186	-0.277340
C103	C	-0.339263	-1.573886	-1.064057
C104	C	-0.005929	-1.240553	-0.730724
C105	C	0.327404	-0.907219	-0.397390
C106	C	-0.388440	-1.510187	-0.231966
C107	C	-0.055107	-1.176854	0.101367
C108	C	0.278227	-0.843521	0.434701
C109	C	-0.388246	-1.510359	-0.115813
C110	C	-0.054912	-1.177026	0.217520
C111	C	0.278421	-0.843693	0.550853
H112	H	-0.430314	-1.077954	-0.448992
H113	H	-0.096981	-0.744620	-0.115658
H114	H	0.236353	-0.411287	0.217675
C115	C	-0.444963	-1.436819	-0.952343
C116	C	-0.111629	-1.103486	-0.619009
C117	C	0.221704	-0.770152	-0.285676
N118	N	-0.487635	-1.381471	-0.997641
N119	N	-0.154301	-1.048138	-0.664308
N120	N	0.179032	-0.714805	-0.330974
C121	C	-0.282640	-1.647327	-0.883863
C122	C	0.050693	-1.313993	-0.550530
C123	C	0.384026	-0.980660	-0.217197
N124	N	-0.239964	-1.702669	-0.838565
N125	N	0.093369	-1.369336	-0.505232
N126	N	0.426702	-1.036002	-0.171898
C127	C	-0.282570	-1.647393	-1.124243
C128	C	0.050763	-1.314059	-0.790910
C129	C	0.384097	-0.980726	-0.457576
N130	N	-0.239866	-1.702758	-1.169578
N131	N	0.093468	-1.369425	-0.836244
N132	N	0.426801	-1.036091	-0.502911
H133	H	-0.297559	-1.115378	-0.621551
H134	H	0.035775	-0.782044	-0.288217
H135	H	0.369108	-0.448711	0.045116
H136	H	-0.297580	-0.906252	-0.621583
H137	H	0.035753	-0.572919	-0.288249
H138	H	0.369087	-0.239585	0.045084
H139	H	-0.430334	-0.943409	-0.449012
H140	H	-0.097000	-0.610075	-0.115678
H141	H	0.236333	-0.276742	0.217655
H142	H	-0.430212	-1.455950	-1.071267
H143	H	-0.096879	-1.122616	-0.737934
H144	H	0.236454	-0.789283	-0.404600
