data_functionalizedCrystal
_audit_creation_method	'MofGen! by Chris Wilmer'
_symmetry_space_group_name_H-M	'P1'
_symmetry_Int_Tables_number	1
_symmetry_cell_setting	triclinic
loop_
_symmetry_equiv_pos_as_xyz
  x,y,z
_cell_length_a	18.215407
_cell_length_b	16.625546
_cell_length_c	18.215399
_cell_angle_alpha	89.968415
_cell_angle_beta	89.983176
_cell_angle_gamma	90.022916
loop_
_atom_site_label
_atom_site_type_symbol
_atom_site_fract_x
_atom_site_fract_y
_atom_site_fract_z
Zn1	Zn	1.125062	-0.320981	-0.416110
Zn2	Zn	1.458396	0.012352	-0.082776
Zn3	Zn	1.791729	0.345686	0.250557
Zn4	Zn	1.124983	-0.455827	-0.293041
Zn5	Zn	1.458316	-0.122494	0.040293
Zn6	Zn	1.791649	0.210840	0.373626
Zn7	Zn	1.002001	-0.321013	-0.293057
Zn8	Zn	1.335335	0.012320	0.040276
Zn9	Zn	1.668668	0.345654	0.373610
Zn10	Zn	1.001966	-0.455776	-0.416066
Zn11	Zn	1.335299	-0.122443	-0.082732
Zn12	Zn	1.668633	0.210890	0.250601
O13	O	1.063503	-0.388399	-0.354568
O14	O	1.396836	-0.055066	-0.021235
O15	O	1.730170	0.278267	0.312098
O16	O	1.228036	-0.338876	-0.399796
O17	O	1.561369	-0.005543	-0.066463
O18	O	1.894703	0.327790	0.266871
O19	O	1.108650	-0.437978	-0.190059
O20	O	1.441984	-0.104645	0.143275
O21	O	1.775317	0.228688	0.476608
O22	O	1.018374	-0.208176	-0.309405
O23	O	1.351707	0.125157	0.023928
O24	O	1.685041	0.458490	0.357261
O25	O	1.227977	-0.437947	-0.309378
O26	O	1.561311	-0.104614	0.023956
O27	O	1.894644	0.228720	0.357289
O28	O	1.108786	-0.208153	-0.399812
O29	O	1.442120	0.125180	-0.066478
O30	O	1.775453	0.458514	0.266855
O31	O	1.018297	-0.338931	-0.190070
O32	O	1.351630	-0.005598	0.143263
O33	O	1.684963	0.327736	0.476596
O34	O	0.899013	-0.338882	-0.309363
O35	O	1.232346	-0.005549	0.023971
O36	O	1.565679	0.327785	0.357304
O37	O	1.018314	-0.437861	-0.519056
O38	O	1.351647	-0.104528	-0.185722
O39	O	1.684980	0.228806	0.147611
O40	O	0.898987	-0.437892	-0.399737
O41	O	1.232320	-0.104559	-0.066403
O42	O	1.565653	0.228775	0.266930
O43	O	1.108752	-0.338827	-0.519088
O44	O	1.442085	-0.005494	-0.185755
O45	O	1.775419	0.327839	0.147579
O46	O	1.108616	-0.568653	-0.309335
O47	O	1.441949	-0.235319	0.023998
O48	O	1.775283	0.098014	0.357332
O49	O	1.018236	-0.568616	-0.399721
O50	O	1.351570	-0.235282	-0.066387
O51	O	1.684903	0.098051	0.266946
C52	C	0.872297	-0.388386	-0.354547
C53	C	1.205630	-0.055052	-0.021214
C54	C	1.538964	0.278281	0.312120
C55	C	0.790498	-0.388399	-0.354556
C56	C	1.123831	-0.055066	-0.021222
C57	C	1.457165	0.278268	0.312111
C58	C	0.602310	-0.440035	-0.401554
C59	C	0.935643	-0.106701	-0.068221
C60	C	1.268976	0.226632	0.265113
C61	C	0.525451	-0.440037	-0.401563
C62	C	0.858784	-0.106704	-0.068230
C63	C	1.192118	0.226629	0.265103
C64	C	0.525449	-0.336779	-0.307598
C65	C	0.858782	-0.003445	0.025735
C66	C	1.192115	0.329888	0.359068
C67	C	0.602306	-0.336773	-0.307593
C68	C	0.935639	-0.003439	0.025740
C69	C	1.268973	0.329894	0.359073
C70	C	0.640734	-0.388405	-0.354570
C71	C	0.974068	-0.055072	-0.021237
C72	C	1.307401	0.278261	0.312096
C73	C	0.487018	-0.388414	-0.354584
C74	C	0.820352	-0.055081	-0.021251
C75	C	1.153685	0.278253	0.312082
C76	C	0.403685	-0.388416	-0.354594
C77	C	0.737018	-0.055083	-0.021261
C78	C	1.070351	0.278250	0.312073
C79	C	0.724073	-0.388402	-0.354562
C80	C	1.057407	-0.055069	-0.021228
C81	C	1.390740	0.278265	0.312105
C82	C	1.063434	-0.597890	-0.354537
C83	C	1.396767	-0.264557	-0.021204
C84	C	1.730100	0.068776	0.312129
C85	C	1.063471	-0.687511	-0.354549
C86	C	1.396804	-0.354178	-0.021215
C87	C	1.730138	-0.020845	0.312118
C88	C	1.063599	-1.015687	-0.354625
C89	C	1.396933	-0.682354	-0.021292
C90	C	1.730266	-0.349020	0.312041
C91	C	1.063561	-0.924379	-0.354606
C92	C	1.396895	-0.591045	-0.021273
C93	C	1.730228	-0.257712	0.312060
C94	C	1.063535	-0.851602	-0.354587
C95	C	1.396868	-0.518269	-0.021253
C96	C	1.730201	-0.184935	0.312080
C97	C	1.063498	-0.760288	-0.354568
C98	C	1.396831	-0.426955	-0.021235
C99	C	1.730164	-0.093621	0.312098
C100	C	1.255456	-0.388414	-0.354590
C101	C	1.588789	-0.055081	-0.021257
C102	C	1.922123	0.278253	0.312077
C103	C	1.337255	-0.388420	-0.354599
C104	C	1.670588	-0.055087	-0.021266
C105	C	2.003922	0.278247	0.312068
C106	C	1.063538	-0.388335	-0.546521
C107	C	1.396871	-0.055002	-0.213188
C108	C	1.730205	0.278332	0.120145
C109	C	1.063553	-0.388308	-0.628320
C110	C	1.396886	-0.054974	-0.294987
C111	C	1.730219	0.278359	0.038347
C112	C	1.063593	-0.178091	-0.354615
C113	C	1.396926	0.155243	-0.021282
C114	C	1.730260	0.488576	0.312051
C115	C	1.063631	-0.088469	-0.354635
C116	C	1.396965	0.244864	-0.021302
C117	C	1.730298	0.578197	0.312031
C118	C	1.016545	-0.336699	-0.816521
C119	C	1.349879	-0.003366	-0.483188
C120	C	1.683212	0.329968	-0.149855
C121	C	1.016558	-0.336683	-0.893380
C122	C	1.349891	-0.003349	-0.560047
C123	C	1.683225	0.329984	-0.226713
C124	C	1.110648	-0.439820	-0.893357
C125	C	1.443981	-0.106487	-0.560024
C126	C	1.777315	0.226847	-0.226690
C127	C	1.110631	-0.439840	-0.816500
C128	C	1.443964	-0.106506	-0.483166
C129	C	1.777298	0.226827	-0.149833
C130	C	1.063581	-0.388275	-0.778084
C131	C	1.396914	-0.054941	-0.444750
C132	C	1.730247	0.278392	-0.111417
C133	C	1.063611	-0.388239	-0.931800
C134	C	1.396944	-0.054905	-0.598467
C135	C	1.730277	0.278428	-0.265133
C136	C	1.063625	-0.388221	-1.015134
C137	C	1.396958	-0.054888	-0.681800
C138	C	1.730291	0.278445	-0.348467
C139	C	1.063565	-0.388293	-0.694745
C140	C	1.396899	-0.054959	-0.361411
C141	C	1.730232	0.278374	-0.028078
C142	C	1.063511	-0.388405	-0.163362
C143	C	1.396844	-0.055072	0.169971
C144	C	1.730178	0.278261	0.503305
C145	C	1.063639	-0.388206	-0.081563
C146	C	1.396972	-0.054872	0.251770
C147	C	1.730305	0.278461	0.585103
H148	H	0.494151	-0.294743	-0.269350
H149	H	0.827484	0.038591	0.063983
H150	H	1.160817	0.371924	0.397316
F151	F	1.160693	-0.494740	-0.775589
F152	F	1.494026	-0.161406	-0.442256
F153	F	1.827359	0.171927	-0.108922
F154	F	0.643206	-0.494984	-0.451553
F155	F	0.976539	-0.161651	-0.118220
F156	F	1.309873	0.171682	0.215114
H157	H	0.494169	-0.482078	-0.439823
H158	H	0.827502	-0.148745	-0.106490
H159	H	1.160836	0.184589	0.226843
H160	H	0.633592	-0.294725	-0.269333
H161	H	0.966925	0.038608	0.064000
H162	H	1.300259	0.371942	0.397333
F163	F	0.966468	-0.281821	-0.775639
F164	F	1.299802	0.051512	-0.442306
F165	F	1.633135	0.384846	-0.108972
F166	F	0.966489	-0.281797	-0.934285
F167	F	1.299822	0.051536	-0.600952
F168	F	1.633155	0.384869	-0.267618
H169	H	1.148955	-0.481802	-0.924644
H170	H	1.482289	-0.148469	-0.591311
H171	H	1.815622	0.184865	-0.257978
