data_functionalizedCrystal
_audit_creation_method	'MofGen! by Chris Wilmer'
_symmetry_space_group_name_H-M	'P1'
_symmetry_Int_Tables_number	1
_symmetry_cell_setting	triclinic
loop_
_symmetry_equiv_pos_as_xyz
  x,y,z
_cell_length_a	10.489741
_cell_length_b	11.792241
_cell_length_c	10.268362
_cell_angle_alpha	90.000979
_cell_angle_beta	90.002404
_cell_angle_gamma	84.366295
loop_
_atom_site_label
_atom_site_type_symbol
_atom_site_fract_x
_atom_site_fract_y
_atom_site_fract_z
O1	O	-1.693510	-0.160130	-0.108220
O2	O	-1.193510	0.339870	0.391780
O3	O	-1.322263	-0.175161	-0.108241
O4	O	-0.822263	0.324839	0.391759
O5	O	-1.516896	-0.002500	-0.108221
O6	O	-1.016896	0.497500	0.391779
O7	O	-1.498877	-0.332792	-0.108240
O8	O	-0.998877	0.167208	0.391760
O9	O	-1.516875	-0.002507	0.108380
O10	O	-1.016875	0.497493	0.608380
O11	O	-1.322242	-0.175169	0.108360
O12	O	-0.822242	0.324831	0.608360
O13	O	-1.693489	-0.160138	0.108380
O14	O	-1.193489	0.339862	0.608380
Cu15	Cu	-1.507864	-0.167654	0.128148
Cu16	Cu	-1.007864	0.332346	0.628148
Cu17	Cu	-1.507888	-0.167645	-0.128008
Cu18	Cu	-1.007888	0.332355	0.371992
O19	O	-1.498857	-0.332800	0.108361
O20	O	-0.998857	0.167200	0.608361
C21	C	-1.274725	-0.174030	0.000057
C22	C	-0.774725	0.325970	0.500057
C23	C	-1.133107	-0.170633	0.000050
C24	C	-0.633107	0.329367	0.500050
C25	C	-1.515753	0.039791	0.000079
C26	C	-1.015753	0.539791	0.500079
C27	C	-1.512366	0.165813	0.000078
C28	C	-1.012366	0.665813	0.500078
C29	C	-1.741027	-0.161269	0.000080
C30	C	-1.241027	0.338731	0.500080
C31	C	-1.882645	-0.164666	0.000079
C32	C	-1.382645	0.335334	0.500079
C33	C	-1.065341	-0.060774	0.000068
C34	C	-0.565341	0.439226	0.500068
C35	C	-0.973048	-0.112667	-0.106727
C36	C	-0.473048	0.387333	0.393273
C37	C	-0.973061	-0.112700	0.106824
C38	C	-0.473061	0.387300	0.606824
C39	C	-1.042679	-0.222571	-0.106834
C40	C	-0.542679	0.277429	0.393166
C41	C	-1.042702	-0.222590	0.106813
C42	C	-0.542702	0.277410	0.606813
C43	C	-0.950436	-0.274563	-0.000009
C44	C	-0.450436	0.225437	0.499991
C45	C	-1.499999	-0.375090	0.000058
C46	C	-0.999999	0.124910	0.500058
C47	C	-1.503387	-0.501113	0.000051
C48	C	-1.003387	-0.001113	0.500051
N49	N	-1.507856	-0.167660	0.308313
N50	N	-1.007856	0.332340	0.808313
C51	C	-1.506136	0.396542	0.000055
C52	C	-1.006136	0.896542	0.500055
C53	C	-1.509598	0.268148	0.000067
C54	C	-1.009598	0.768148	0.500067
C55	C	-1.507864	-0.167662	0.426156
C56	C	-1.007864	0.332338	0.926156
C57	C	-1.507879	-0.167653	0.573994
C58	C	-1.007879	0.332347	1.073994
N59	N	-1.507897	-0.167639	0.691826
N60	N	-1.007897	0.332361	1.191826
H61	H	-1.115339	0.029538	-0.000060
H62	H	-0.615339	0.529538	0.499940
H63	H	-0.942200	-0.066179	-0.197012
H64	H	-0.442200	0.433821	0.302988
H65	H	-1.073357	-0.269016	-0.197224
H66	H	-0.573357	0.230984	0.302776
H67	H	-0.900704	-0.364970	-0.000072
H68	H	-0.400704	0.135030	0.499928
H69	H	-1.073581	-0.269039	0.197101
H70	H	-0.573581	0.230961	0.697101
O71	O	-0.932231	-0.051122	0.226434
O72	O	-0.432231	0.448878	0.726434
H73	H	-0.978703	0.037594	0.226204
H74	H	-0.478703	0.537594	0.726204
