data_functionalizedCrystal
_audit_creation_method	'MofGen! by Chris Wilmer'
_symmetry_space_group_name_H-M	'P1'
_symmetry_Int_Tables_number	1
_symmetry_cell_setting	triclinic
loop_
_symmetry_equiv_pos_as_xyz
  x,y,z
_cell_length_a	16.625548
_cell_length_b	18.050589
_cell_length_c	16.625539
_cell_angle_alpha	89.977040
_cell_angle_beta	89.982945
_cell_angle_gamma	90.029289
loop_
_atom_site_label
_atom_site_type_symbol
_atom_site_fract_x
_atom_site_fract_y
_atom_site_fract_z
Zn1	Zn	1.232620	-0.295651	-0.455929
Zn2	Zn	1.565954	0.037683	-0.122596
Zn3	Zn	1.899287	0.371016	0.210738
Zn4	Zn	1.232518	-0.419844	-0.321104
Zn5	Zn	1.565852	-0.086511	0.012229
Zn6	Zn	1.899185	0.246822	0.345562
Zn7	Zn	1.097790	-0.295675	-0.321109
Zn8	Zn	1.431124	0.037658	0.012224
Zn9	Zn	1.764457	0.370992	0.345557
Zn10	Zn	1.097739	-0.419806	-0.455894
Zn11	Zn	1.431072	-0.086472	-0.122561
Zn12	Zn	1.764406	0.246861	0.210773
O13	O	1.165167	-0.357744	-0.388509
O14	O	1.498500	-0.024411	-0.055176
O15	O	1.831834	0.308923	0.278158
O16	O	1.345439	-0.312131	-0.438056
O17	O	1.678772	0.021202	-0.104723
O18	O	2.012106	0.354535	0.228610
O19	O	1.214625	-0.403399	-0.208272
O20	O	1.547958	-0.070066	0.125061
O21	O	1.881292	0.263267	0.458394
O22	O	1.115740	-0.191747	-0.339010
O23	O	1.449073	0.141586	-0.005677
O24	O	1.782407	0.474920	0.327657
O25	O	1.345364	-0.403376	-0.339001
O26	O	1.678697	-0.070042	-0.005668
O27	O	2.012031	0.263291	0.327665
O28	O	1.214799	-0.191729	-0.438061
O29	O	1.548132	0.141604	-0.104728
O30	O	1.881466	0.474937	0.228605
O31	O	1.115641	-0.312173	-0.208276
O32	O	1.448974	0.021161	0.125057
O33	O	1.782308	0.354494	0.458390
O34	O	0.984951	-0.312135	-0.338976
O35	O	1.318285	0.021198	-0.005643
O36	O	1.651618	0.354532	0.327690
O37	O	1.115652	-0.403310	-0.568731
O38	O	1.448986	-0.069977	-0.235398
O39	O	1.782319	0.263357	0.097936
O40	O	0.984913	-0.403333	-0.438002
O41	O	1.318247	-0.070000	-0.104669
O42	O	1.651580	0.263333	0.228664
O43	O	1.214749	-0.312094	-0.568757
O44	O	1.548083	0.021240	-0.235423
O45	O	1.881416	0.354573	0.097910
O46	O	1.214575	-0.523764	-0.338968
O47	O	1.547909	-0.190430	-0.005634
O48	O	1.881242	0.142903	0.327699
O49	O	1.115554	-0.523735	-0.437997
O50	O	1.448887	-0.190402	-0.104664
O51	O	1.782220	0.142931	0.228669
C52	C	0.955676	-0.357733	-0.388487
C53	C	1.289009	-0.024400	-0.055153
C54	C	1.622343	0.308933	0.278180
C55	C	0.866055	-0.357747	-0.388496
C56	C	1.199388	-0.024413	-0.055163
C57	C	1.532722	0.308920	0.278171
C58	C	1.165070	-0.550696	-0.388496
C59	C	1.498403	-0.217363	-0.055162
C60	C	1.831736	0.115971	0.278171
C61	C	1.165102	-0.633242	-0.388517
C62	C	1.498435	-0.299908	-0.055184
C63	C	1.831768	0.033425	0.278150
C64	C	0.537879	-0.357751	-0.388531
C65	C	0.871213	-0.024418	-0.055197
C66	C	1.204546	0.308915	0.278136
C67	C	0.629188	-0.357748	-0.388518
C68	C	0.962521	-0.024415	-0.055185
C69	C	1.295854	0.308919	0.278148
C70	C	0.701964	-0.357749	-0.388513
C71	C	1.035298	-0.024416	-0.055179
C72	C	1.368631	0.308917	0.278154
C73	C	0.793279	-0.357745	-0.388502
C74	C	1.126612	-0.024412	-0.055168
C75	C	1.459945	0.308921	0.278165
C76	C	1.111307	-0.832704	-0.442350
C77	C	1.444640	-0.499371	-0.109017
C78	C	1.777973	-0.166037	0.224316
C79	C	1.091655	-0.882144	-0.368774
C80	C	1.424988	-0.548811	-0.035441
C81	C	1.758321	-0.215477	0.297892
C82	C	1.165181	-0.784372	-0.388528
C83	C	1.498514	-0.451039	-0.055194
C84	C	1.831848	-0.117705	0.278139
C85	C	1.184872	-0.882014	-0.462112
C86	C	1.518206	-0.548681	-0.128779
C87	C	1.851539	-0.215347	0.204555
C88	C	1.165256	-0.930357	-0.388544
C89	C	1.498589	-0.597024	-0.055211
C90	C	1.831923	-0.263690	0.278123
C91	C	1.145490	-0.832725	-0.314913
C92	C	1.478824	-0.499391	0.018421
C93	C	1.812157	-0.166058	0.351754
C94	C	1.238742	-0.832590	-0.408300
C95	C	1.572076	-0.499257	-0.074966
C96	C	1.905409	-0.165924	0.258367
C97	C	1.219118	-0.882008	-0.334673
C98	C	1.552452	-0.548675	-0.001340
C99	C	1.885785	-0.215341	0.331994
C100	C	1.165136	-0.700274	-0.388519
C101	C	1.498469	-0.366940	-0.055186
C102	C	1.831802	-0.033607	0.278148
C103	C	1.165301	-1.014454	-0.388544
C104	C	1.498635	-0.681120	-0.055211
C105	C	1.831968	-0.347787	0.278122
C106	C	1.375476	-0.357755	-0.388532
C107	C	1.708809	-0.024422	-0.055199
C108	C	2.042142	0.308912	0.278134
C109	C	1.465097	-0.357760	-0.388542
C110	C	1.798430	-0.024426	-0.055209
C111	C	2.131764	0.308907	0.278125
C112	C	1.165206	-0.357695	-0.598818
C113	C	1.498540	-0.024361	-0.265485
C114	C	1.831873	0.308972	0.067849
C115	C	1.165223	-0.357674	-0.688439
C116	C	1.498557	-0.024341	-0.355106
C117	C	1.831890	0.308993	-0.021773
C118	C	1.165287	-0.164038	-0.388540
C119	C	1.498620	0.169295	-0.055207
C120	C	1.831953	0.502628	0.278126
C121	C	1.165338	-0.081492	-0.388553
C122	C	1.498671	0.251841	-0.055220
C123	C	1.832004	0.585174	0.278113
C124	C	1.165236	-0.357658	-0.761222
C125	C	1.498570	-0.024324	-0.427888
C126	C	1.831903	0.309009	-0.094555
C127	C	1.165255	-0.357630	-0.852530
C128	C	1.498589	-0.024297	-0.519197
C129	C	1.831922	0.309037	-0.185864
C130	C	1.165274	-0.357604	-0.925307
C131	C	1.498608	-0.024270	-0.591973
C132	C	1.831941	0.309063	-0.258640
C133	C	1.165294	-0.357577	-1.016621
C134	C	1.498628	-0.024244	-0.683288
C135	C	1.831961	0.309090	-0.349954
C136	C	1.165174	-0.357739	-0.179018
C137	C	1.498507	-0.024406	0.154315
C138	C	1.831841	0.308928	0.487648
C139	C	1.165313	-0.357551	-0.089398
C140	C	1.498647	-0.024217	0.243936
C141	C	1.831980	0.309116	0.577269
H142	H	1.065680	-0.811054	-0.487802
H143	H	1.399013	-0.477721	-0.154469
H144	H	1.732347	-0.144388	0.178864
O145	O	1.125433	-0.806974	-0.240710
O146	O	1.458766	-0.473641	0.092623
O147	O	1.792100	-0.140307	0.425956
C148	C	1.032592	-0.734382	-0.162175
C149	C	1.365925	-0.401049	0.171159
C150	C	1.699259	-0.067715	0.504492
C151	C	1.055208	-0.763510	-0.246246
C152	C	1.388541	-0.430177	0.087087
C153	C	1.721875	-0.096843	0.420421
H154	H	0.975823	-0.699223	-0.166625
H155	H	1.309157	-0.365889	0.166709
H156	H	1.642490	-0.032556	0.500042
H157	H	1.021290	-0.783135	-0.120041
H158	H	1.354624	-0.449802	0.213292
H159	H	1.687957	-0.116469	0.546625
H160	H	1.083963	-0.699180	-0.137624
H161	H	1.417297	-0.365847	0.195709
H162	H	1.750630	-0.032514	0.529043
H163	H	1.003866	-0.798700	-0.270869
H164	H	1.337199	-0.465367	0.062464
H165	H	1.670533	-0.132033	0.395798
H166	H	1.066538	-0.714724	-0.288325
H167	H	1.399872	-0.381390	0.045009
H168	H	1.733205	-0.048057	0.378342
O169	O	1.017431	-0.908079	-0.348956
O170	O	1.350765	-0.574746	-0.015623
O171	O	1.684098	-0.241412	0.317710
C172	C	0.876688	-0.912346	-0.383227
C173	C	1.210021	-0.579012	-0.049894
C174	C	1.543355	-0.245679	0.283439
C175	C	0.960704	-0.882944	-0.405767
C176	C	1.294037	-0.549610	-0.072434
C177	C	1.627371	-0.216277	0.260900
H178	H	0.830798	-0.892023	-0.429137
H179	H	1.164131	-0.558689	-0.095803
H180	H	1.497465	-0.225356	0.237530
H181	H	0.877536	-0.975498	-0.382888
H182	H	1.210869	-0.642164	-0.049554
H183	H	1.544203	-0.308831	0.283779
H184	H	0.859524	-0.891240	-0.320927
H185	H	1.192858	-0.557906	0.012406
H186	H	1.526191	-0.224573	0.345740
H187	H	0.977919	-0.903995	-0.468072
H188	H	1.311253	-0.570661	-0.134738
H189	H	1.644586	-0.237328	0.198595
H190	H	0.959811	-0.819793	-0.406051
H191	H	1.293144	-0.486459	-0.072718
H192	H	1.626477	-0.153126	0.260616
H193	H	1.264710	-0.903520	-0.289111
H194	H	1.598044	-0.570187	0.044222
H195	H	1.931377	-0.236854	0.377555
O196	O	1.312872	-0.806634	-0.428412
O197	O	1.646206	-0.473301	-0.095079
O198	O	1.979539	-0.139967	0.238254
C199	C	1.417425	-0.802290	-0.528715
C200	C	1.750758	-0.468956	-0.195382
C201	C	2.084092	-0.135623	0.137952
C202	C	1.333459	-0.831722	-0.506036
C203	C	1.666792	-0.498388	-0.172702
C204	C	2.000126	-0.165055	0.160631
H205	H	1.434103	-0.822574	-0.591467
H206	H	1.767436	-0.489240	-0.258134
H207	H	2.100769	-0.155907	0.075199
H208	H	1.416837	-0.739138	-0.527988
H209	H	1.750170	-0.405805	-0.194654
H210	H	2.083504	-0.072471	0.138679
H211	H	1.463525	-0.823411	-0.483445
H212	H	1.796858	-0.490078	-0.150112
H213	H	2.130192	-0.156744	0.183221
H214	H	1.287312	-0.810655	-0.551283
H215	H	1.620645	-0.477322	-0.217950
H216	H	1.953979	-0.143989	0.115384
H217	H	1.334114	-0.894872	-0.506738
H218	H	1.667447	-0.561539	-0.173404
H219	H	2.000781	-0.228206	0.159929
O220	O	1.204617	-0.907756	-0.536402
O221	O	1.537951	-0.574423	-0.203068
O222	O	1.871284	-0.241089	0.130265
C223	C	1.170048	-0.911933	-0.677072
C224	C	1.503381	-0.578599	-0.343739
C225	C	1.836714	-0.245266	-0.010406
C226	C	1.147613	-0.882720	-0.592987
C227	C	1.480947	-0.549387	-0.259654
C228	C	1.814280	-0.216054	0.073680
H229	H	1.123963	-0.891716	-0.722841
H230	H	1.457296	-0.558383	-0.389508
H231	H	1.790630	-0.225050	-0.056175
H232	H	1.232264	-0.890678	-0.694426
H233	H	1.565597	-0.557345	-0.361093
H234	H	1.898930	-0.224011	-0.027759
H235	H	1.170499	-0.975083	-0.676185
H236	H	1.503832	-0.641750	-0.342852
H237	H	1.837165	-0.308417	-0.009519
H238	H	1.147116	-0.819572	-0.593810
H239	H	1.480450	-0.486239	-0.260476
H240	H	1.813783	-0.152906	0.072857
H241	H	1.085412	-0.904032	-0.575666
H242	H	1.418745	-0.570699	-0.242333
H243	H	1.752079	-0.237365	0.091000
