data_functionalizedCrystal
_audit_creation_method	'MofGen! by Chris Wilmer'
_symmetry_space_group_name_H-M	'P1'
_symmetry_Int_Tables_number	1
_symmetry_cell_setting	triclinic
loop_
_symmetry_equiv_pos_as_xyz
  x,y,z
_cell_length_a	16.109301
_cell_length_b	10.540539
_cell_length_c	14.586319
_cell_angle_alpha	89.998343
_cell_angle_beta	89.999213
_cell_angle_gamma	83.993486
loop_
_atom_site_label
_atom_site_type_symbol
_atom_site_fract_x
_atom_site_fract_y
_atom_site_fract_z
O1	O	1.104129	0.163159	-0.076178
O2	O	1.604129	0.663159	0.423822
O3	O	0.862191	0.183464	-0.076192
O4	O	1.362191	0.683464	0.423808
O5	O	0.988679	-0.011474	-0.076184
O6	O	1.488679	0.488526	0.423816
O7	O	0.977640	0.358096	-0.076186
O8	O	1.477640	0.858096	0.423814
O9	O	0.988670	-0.011477	0.076297
O10	O	1.488670	0.488523	0.576297
O11	O	0.862182	0.183461	0.076289
O12	O	1.362182	0.683461	0.576289
O13	O	1.104120	0.163156	0.076303
O14	O	1.604120	0.663156	0.576303
Cu15	Cu	0.983150	0.173308	0.090219
Cu16	Cu	1.483150	0.673308	0.590219
Cu17	Cu	0.983160	0.173312	-0.090108
Cu18	Cu	1.483160	0.673312	0.409892
O19	O	0.977631	0.358094	0.076294
O20	O	1.477631	0.858094	0.576294
C21	C	0.831206	0.182640	0.000047
C22	C	1.331206	0.682640	0.500047
C23	C	0.738896	0.180174	0.000041
C24	C	1.238896	0.680174	0.500041
C25	C	0.517296	0.290112	0.000051
C26	C	1.017296	0.790112	0.500051
C27	C	0.430561	0.287785	0.000057
C28	C	0.930561	0.787785	0.500057
C29	C	0.449021	0.056499	0.000055
C30	C	0.949021	0.556499	0.500055
C31	C	0.535754	0.058827	0.000055
C32	C	1.035754	0.558827	0.500055
C33	C	0.569889	0.175637	0.000049
C34	C	1.069889	0.675637	0.500049
C35	C	0.396421	0.170982	0.000054
C36	C	0.896421	0.670982	0.500054
C37	C	0.302380	0.168459	0.000060
C38	C	0.802380	0.668459	0.500060
C39	C	0.663936	0.178162	0.000044
C40	C	1.163936	0.678162	0.500044
C41	C	0.987847	-0.058767	0.000055
C42	C	1.487847	0.441233	0.500055
C43	C	0.985370	-0.199679	0.000050
C44	C	1.485370	0.300321	0.500050
C45	C	0.890460	-0.381753	-0.000298
C46	C	1.390460	0.118247	0.499702
C47	C	0.892971	-0.235171	0.000046
C48	C	1.392971	0.264829	0.500046
C49	C	1.029832	-0.261973	0.087127
C50	C	1.529832	0.238027	0.587127
C51	C	1.026678	-0.408472	0.087200
C52	C	1.526678	0.091528	0.587200
C53	C	1.028567	-0.409014	-0.086199
C54	C	1.528567	0.090986	0.413801
C55	C	1.029419	-0.262044	-0.087350
C56	C	1.529419	0.237956	0.412650
C57	C	1.135104	0.163980	0.000062
C58	C	1.635104	0.663980	0.500062
C59	C	1.227414	0.166446	0.000062
C60	C	1.727414	0.666446	0.500062
C61	C	0.978463	0.405386	0.000054
C62	C	1.478463	0.905386	0.500054
C63	C	0.980940	0.546299	0.000053
C64	C	1.480940	1.046299	0.500053
N65	N	0.983149	0.173305	0.217050
N66	N	1.483149	0.673305	0.717050
N67	N	0.983168	0.173305	-0.216939
N68	N	1.483168	0.673305	0.283061
C69	C	1.039177	0.087015	0.452060
C70	C	1.539177	0.587015	0.952060
C71	C	1.039179	0.087012	0.548042
C72	C	1.539179	0.587012	1.048042
C73	C	0.927134	0.259598	0.548044
C74	C	1.427134	0.759598	1.048044
C75	C	0.927129	0.259594	0.452064
C76	C	1.427129	0.759594	0.952064
C77	C	0.983154	0.173304	0.404075
C78	C	1.483154	0.673304	0.904075
C79	C	0.983163	0.173305	0.596036
C80	C	1.483163	0.673305	1.096036
C81	C	0.983165	0.173303	0.700103
C82	C	1.483165	0.673303	1.200103
C83	C	0.983151	0.173305	0.300001
C84	C	1.483151	0.673305	0.800001
H85	H	0.545085	0.385227	0.000052
H86	H	1.045085	0.885227	0.500052
H87	H	0.387743	0.381003	0.000060
H88	H	0.887743	0.881003	0.500060
Br89	Br	0.607137	-0.096544	0.000064
Br90	Br	1.107137	0.403456	0.500064
Br91	Br	0.402690	-0.102022	0.000060
Br92	Br	0.902690	0.397978	0.500060
H93	H	0.857986	-0.192068	-0.062374
H94	H	1.357986	0.307932	0.437626
Br95	Br	0.829625	-0.428545	-0.104378
Br96	Br	1.329625	0.071455	0.395622
H97	H	0.854105	-0.411444	0.061793
H98	H	1.354105	0.088556	0.561793
Br99	Br	0.851104	0.376704	0.613175
Br100	Br	1.351104	0.876704	1.113175
Br101	Br	0.834234	-0.164726	0.104247
Br102	Br	1.334234	0.335274	0.604247
Br103	Br	0.851087	0.376699	0.386933
Br104	Br	1.351087	0.876699	0.886933
H105	H	0.993812	-0.436204	0.152288
H106	H	1.493812	0.063796	0.652288
H107	H	1.093130	-0.457388	0.091154
H108	H	1.593130	0.042612	0.591154
H109	H	1.097687	-0.240586	0.090368
H110	H	1.597687	0.259414	0.590368
Br111	Br	1.115210	-0.030094	0.386936
Br112	Br	1.615210	0.469906	0.886936
Br113	Br	0.978345	-0.190245	0.195128
Br114	Br	1.478345	0.309755	0.695128
Br115	Br	0.978723	-0.460872	-0.196202
Br116	Br	1.478723	0.039128	0.303798
Br117	Br	0.975660	-0.192351	-0.194735
Br118	Br	1.475660	0.307649	0.305265
Br119	Br	1.141700	-0.223267	-0.096118
Br120	Br	1.641700	0.276733	0.403882
Br121	Br	1.115208	-0.030104	0.613163
Br122	Br	1.615208	0.469896	1.113163
Br123	Br	1.139803	-0.489311	-0.087171
Br124	Br	1.639803	0.010689	0.412829
