data_functionalizedCrystal
_audit_creation_method	'MofGen! by Chris Wilmer'
_symmetry_space_group_name_H-M	'P1'
_symmetry_Int_Tables_number	1
_symmetry_cell_setting	triclinic
loop_
_symmetry_equiv_pos_as_xyz
  x,y,z
_cell_length_a	13.032831
_cell_length_b	16.625546
_cell_length_c	13.032268
_cell_angle_alpha	82.855386
_cell_angle_beta	89.113023
_cell_angle_gamma	82.826778
loop_
_atom_site_label
_atom_site_type_symbol
_atom_site_fract_x
_atom_site_fract_y
_atom_site_fract_z
Zn1	Zn	1.498429	-0.544521	0.780776
Zn2	Zn	1.998429	-0.044521	1.280776
Zn3	Zn	1.520160	-0.664651	0.608784
Zn4	Zn	2.020160	-0.164651	1.108784
Zn5	Zn	1.348291	-0.510838	0.587021
Zn6	Zn	1.848291	-0.010838	1.087021
Zn7	Zn	1.326409	-0.660292	0.758909
Zn8	Zn	1.826409	-0.160292	1.258909
O9	O	1.423322	-0.595075	0.683873
O10	O	1.923322	-0.095075	1.183873
O11	O	1.645231	-0.576377	0.776220
O12	O	2.145231	-0.076377	1.276220
O13	O	1.515614	-0.631976	0.461981
O14	O	2.015614	-0.131976	0.961981
O15	O	1.368270	-0.402484	0.612767
O16	O	1.868270	0.097516	1.112767
O17	O	1.661197	-0.664636	0.649858
O18	O	2.161197	-0.164636	1.149858
O19	O	1.478576	-0.427231	0.755118
O20	O	1.978576	0.072769	1.255118
O21	O	1.389342	-0.518970	0.445992
O22	O	1.889342	-0.018970	0.945992
O23	O	1.201469	-0.514743	0.591563
O24	O	1.701469	-0.014743	1.091563
O25	O	1.330976	-0.657206	0.905725
O26	O	1.830976	-0.157206	1.405725
O27	O	1.185392	-0.624546	0.717849
O28	O	1.685392	-0.124546	1.217849
O29	O	1.457358	-0.572150	0.921791
O30	O	1.957358	-0.072150	1.421791
O31	O	1.494396	-0.776895	0.628654
O32	O	1.994396	-0.276895	1.128654
O33	O	1.352048	-0.773692	0.738951
O34	O	1.852048	-0.273692	1.238951
C35	C	1.156114	-0.565517	0.649972
C36	C	1.656114	-0.065517	1.149972
C37	C	1.041798	-0.552893	0.635494
C38	C	1.541798	-0.052893	1.135494
C39	C	0.982917	-0.601664	0.691429
C40	C	1.482917	-0.101664	1.191429
C41	C	0.864766	-0.588618	0.676466
C42	C	1.364766	-0.088618	1.176466
C43	C	1.423230	-0.804552	0.683817
C44	C	1.923230	-0.304552	1.183817
C45	C	1.423281	-0.894180	0.683840
C46	C	1.923281	-0.394180	1.183840
C47	C	1.423447	-1.222385	0.683970
C48	C	1.923447	-0.722385	1.183970
C49	C	1.423397	-1.131068	0.683936
C50	C	1.923397	-0.631068	1.183936
C51	C	1.423363	-1.058285	0.683904
C52	C	1.923363	-0.558285	1.183904
C53	C	1.423315	-0.966963	0.683872
C54	C	1.923315	-0.466963	1.183872
C55	C	1.691574	-0.624750	0.717906
C56	C	2.191574	-0.124750	1.217906
C57	C	1.805887	-0.637396	0.732409
C58	C	2.305887	-0.137396	1.232409
C59	C	1.389302	-0.617949	0.952117
C60	C	1.889302	-0.117949	1.452117
C61	C	1.374805	-0.627696	1.066427
C62	C	1.874805	-0.127696	1.566427
C63	C	1.423440	-0.384786	0.683954
C64	C	1.923440	0.115214	1.183954
C65	C	1.423490	-0.295173	0.683989
C66	C	1.923490	0.204827	1.183989
C67	C	1.457270	-0.572239	0.416679
C68	C	1.957270	-0.072239	0.916679
C69	C	1.471966	-0.562287	0.302395
C70	C	1.971966	-0.062287	0.802395
C71	C	1.430873	-0.589958	1.125339
C72	C	1.930873	-0.089958	1.625339
C73	C	1.415890	-0.600031	1.243485
C74	C	1.915890	-0.100031	1.743485
H75	H	0.842942	-0.688808	0.791385
H76	H	1.342942	-0.188808	1.291385
H77	H	1.489963	-0.550187	1.088309
H78	H	1.989963	-0.050187	1.588309
H79	H	0.827708	-0.537199	0.617501
H80	H	1.327708	-0.037199	1.117501
H81	H	1.004736	-0.501477	0.576533
H82	H	1.504736	-0.001477	1.076533
C83	C	1.336050	-0.653759	1.293493
C84	C	1.836050	-0.153759	1.793493
C85	C	1.371279	-0.728239	1.373002
C86	C	1.871279	-0.228239	1.873002
C87	C	1.291441	-0.781966	1.423012
C88	C	1.791441	-0.281966	1.923012
C89	C	1.176375	-0.761212	1.393512
C90	C	1.676375	-0.261212	1.893512
C91	C	1.141141	-0.686728	1.313998
C92	C	1.641141	-0.186728	1.813998
C93	C	1.220979	-0.633001	1.263989
C94	C	1.720979	-0.133001	1.763989
H95	H	1.456462	-0.743606	1.394843
H96	H	1.956462	-0.243606	1.894843
H97	H	1.317524	-0.837104	1.481873
H98	H	1.817524	-0.337104	1.981873
H99	H	1.117274	-0.800984	1.430532
H100	H	1.617274	-0.300984	1.930532
H101	H	1.055957	-0.671361	1.292157
H102	H	1.555957	-0.171361	1.792157
H103	H	1.194896	-0.577863	1.205128
H104	H	1.694896	-0.077863	1.705128
C105	C	1.032975	-0.671121	0.771092
C106	C	1.532975	-0.171121	1.271092
C107	C	1.112501	-0.738653	0.735670
C108	C	1.612501	-0.238653	1.235670
C109	C	1.162556	-0.808111	0.815335
C110	C	1.662556	-0.308111	1.315335
C111	C	1.133085	-0.810038	0.930422
C112	C	1.633085	-0.310038	1.430422
C113	C	1.053555	-0.742504	0.965850
C114	C	1.553555	-0.242504	1.465850
C115	C	1.003500	-0.673046	0.886185
C116	C	1.503500	-0.173046	1.386185
H117	H	1.134321	-0.737229	0.650470
H118	H	1.634321	-0.237229	1.150470
H119	H	1.221429	-0.858104	0.789108
H120	H	1.721429	-0.358104	1.289108
H121	H	1.170138	-0.861455	0.989395
H122	H	1.670138	-0.361455	1.489395
H123	H	1.031735	-0.743928	1.051050
H124	H	1.531735	-0.243928	1.551050
H125	H	0.944626	-0.623052	0.912411
H126	H	1.444626	-0.123052	1.412411
C127	C	1.551805	-0.508557	1.252391
C128	C	2.051805	-0.008557	1.752391
C129	C	1.516577	-0.434074	1.172885
C130	C	2.016577	0.065926	1.672885
C131	C	1.596414	-0.380344	1.122882
C132	C	2.096414	0.119656	1.622882
C133	C	1.711479	-0.401096	1.152385
C134	C	2.211479	0.098904	1.652385
C135	C	1.746713	-0.475582	1.231895
C136	C	2.246713	0.024418	1.731895
C137	C	1.666876	-0.529312	1.281898
C138	C	2.166876	-0.029312	1.781898
H139	H	1.431394	-0.418709	1.151041
H140	H	1.931394	0.081291	1.651041
H141	H	1.570331	-0.325204	1.064023
H142	H	2.070331	0.174796	1.564023
H143	H	1.770579	-0.361322	1.115370
H144	H	2.270579	0.138678	1.615370
H145	H	1.831896	-0.490948	1.253739
H146	H	2.331896	0.009052	1.753739
H147	H	1.692959	-0.584452	1.340757
H148	H	2.192959	-0.084452	1.840757
C149	C	1.294969	-0.681421	1.116440
C150	C	1.794969	-0.181421	1.616440
C151	C	1.330197	-0.755902	1.195949
C152	C	1.830197	-0.255902	1.695949
C153	C	1.250359	-0.809628	1.245959
C154	C	1.750359	-0.309628	1.745959
C155	C	1.135293	-0.788874	1.216459
C156	C	1.635293	-0.288874	1.716459
C157	C	1.100060	-0.714390	1.136946
C158	C	1.600060	-0.214390	1.636946
C159	C	1.179897	-0.660664	1.086936
C160	C	1.679897	-0.160664	1.586936
H161	H	1.415381	-0.771268	1.217790
H162	H	1.915381	-0.271268	1.717790
H163	H	1.276442	-0.864766	1.304820
H164	H	1.776442	-0.364766	1.804820
H165	H	1.076193	-0.828646	1.253479
H166	H	1.576193	-0.328646	1.753479
H167	H	1.014876	-0.699024	1.115104
H168	H	1.514876	-0.199024	1.615104
H169	H	1.153814	-0.605526	1.028075
H170	H	1.653814	-0.105526	1.528075
