data_functionalizedCrystal
_audit_creation_method	'MofGen! by Chris Wilmer'
_symmetry_space_group_name_H-M	'P1'
_symmetry_Int_Tables_number	1
_symmetry_cell_setting	triclinic
loop_
_symmetry_equiv_pos_as_xyz
  x,y,z
_cell_length_a	16.992694
_cell_length_b	10.654541
_cell_length_c	15.455313
_cell_angle_alpha	92.691200
_cell_angle_beta	87.142206
_cell_angle_gamma	87.576076
loop_
_atom_site_label
_atom_site_type_symbol
_atom_site_fract_x
_atom_site_fract_y
_atom_site_fract_z
O1	O	1.045242	0.261289	-0.072021
O2	O	1.545242	0.761289	0.427979
O3	O	0.816942	0.258364	-0.072047
O4	O	1.316942	0.758364	0.427953
O5	O	0.936342	0.077541	-0.072028
O6	O	1.436342	0.577541	0.427972
O7	O	0.925843	0.442112	-0.072040
O8	O	1.425843	0.942112	0.427960
O9	O	0.929514	0.087836	0.072233
O10	O	1.429514	0.587836	0.572233
O11	O	0.810114	0.268659	0.072214
O12	O	1.310114	0.768659	0.572214
O13	O	1.038414	0.271584	0.072240
O14	O	1.538414	0.771584	0.572240
Cu15	Cu	0.923641	0.271061	0.085399
Cu16	Cu	1.423641	0.771061	0.585399
Cu17	Cu	0.931716	0.258886	-0.085206
Cu18	Cu	1.431716	0.758886	0.414794
O19	O	0.919015	0.452407	0.072221
O20	O	1.419015	0.952407	0.572221
C21	C	0.784296	0.259751	0.000080
C22	C	1.284296	0.759751	0.500080
C23	C	0.697191	0.248531	0.000071
C24	C	1.197191	0.748531	0.500071
C25	C	0.647539	0.356782	0.000068
C26	C	1.147539	0.856782	0.500068
C27	C	0.565694	0.346233	0.000080
C28	C	1.065694	0.846233	0.500080
C29	C	0.533504	0.227433	0.000089
C30	C	1.033504	0.727433	0.500089
C31	C	0.583162	0.119174	0.000095
C32	C	1.083162	0.619174	0.500095
C33	C	0.665005	0.129724	0.000089
C34	C	1.165005	0.629724	0.500089
C35	C	0.289667	0.183707	0.000114
C36	C	0.789667	0.683707	0.500114
C37	C	0.207818	0.173165	0.000117
C38	C	0.707818	0.673165	0.500117
C39	C	0.190356	0.400226	0.000105
C40	C	0.690356	0.900226	0.500105
C41	C	0.272201	0.410765	0.000093
C42	C	0.772201	0.910765	0.500093
C43	C	0.321852	0.302507	0.000103
C44	C	0.821852	0.802507	0.500103
N45	N	0.449846	0.216648	0.000099
N46	N	0.949846	0.716648	0.500099
N47	N	0.405508	0.313293	0.000100
N48	N	0.905508	0.813293	0.500100
C49	C	0.932158	0.035824	0.000102
C50	C	1.432158	0.535824	0.500102
C51	C	0.929852	-0.103819	0.000100
C52	C	1.429852	0.396181	0.500100
C53	C	1.072627	-0.119450	0.000127
C54	C	1.572627	0.380550	0.500127
C55	C	1.142928	-0.192868	0.000142
C56	C	1.642928	0.307132	0.500142
C57	C	1.140757	-0.324074	0.000139
C58	C	1.640757	0.175926	0.500139
C59	C	1.068277	-0.381864	0.000119
C60	C	1.568277	0.118136	0.500119
C61	C	0.997977	-0.308446	0.000103
C62	C	1.497977	0.191554	0.500103
C63	C	1.000155	-0.177238	0.000109
C64	C	1.500155	0.322762	0.500109
C65	C	0.855204	-0.292816	0.000070
C66	C	1.355204	0.207184	0.500070
C67	C	0.857373	-0.161609	0.000079
C68	C	1.357373	0.338391	0.500079
C69	C	0.782725	-0.350606	0.000050
C70	C	1.282725	0.149394	0.500050
C71	C	0.712422	-0.277188	0.000041
C72	C	1.212422	0.222812	0.500041
C73	C	0.714596	-0.145974	0.000045
C74	C	1.214596	0.354026	0.500045
C75	C	0.787072	-0.088191	0.000064
C76	C	1.287072	0.411809	0.500064
C77	C	1.071061	0.270197	0.000111
C78	C	1.571061	0.770197	0.500111
C79	C	1.158166	0.281416	0.000115
C80	C	1.658166	0.781416	0.500115
C81	C	0.923199	0.494124	0.000089
C82	C	1.423199	0.994124	0.500089
C83	C	0.925505	0.633766	0.000085
C84	C	1.425505	1.133766	0.500085
N85	N	0.917967	0.279624	0.205394
N86	N	1.417967	0.779624	0.705394
N87	N	0.937396	0.250314	-0.205201
N88	N	1.437396	0.750314	0.294799
C89	C	0.968710	0.202836	0.250796
C90	C	1.468710	0.702836	0.750796
C91	C	0.964427	0.209324	0.341603
C92	C	1.464427	0.709324	0.841603
C93	C	0.909403	0.292608	0.387007
C94	C	1.409403	0.792608	0.887007
C95	C	0.858655	0.369399	0.341598
C96	C	1.358655	0.869399	0.841598
C97	C	0.862935	0.362903	0.250793
C98	C	1.362935	0.862903	0.750793
C99	C	0.890928	0.320610	0.658585
C100	C	1.390928	0.820610	1.158585
C101	C	0.886653	0.327102	0.749397
C102	C	1.386653	0.827102	1.249397
C103	C	0.992424	0.167025	0.749396
C104	C	1.492424	0.667025	1.249396
C105	C	0.996703	0.160543	0.658588
C106	C	1.496703	0.660543	1.158588
C107	C	0.945952	0.237329	0.613188
C108	C	1.445952	0.737329	1.113188
N109	N	0.905025	0.299244	0.479826
N110	N	1.405025	0.799244	0.979826
N111	N	0.950326	0.230685	0.520370
N112	N	1.450326	0.730685	1.020370
H113	H	0.149921	0.488363	0.000098
H114	H	0.649921	0.988363	0.500098
H115	H	0.653415	-0.324252	0.000018
H116	H	1.153415	0.175748	0.500018
Cl117	Cl	0.817475	0.431814	0.806470
Cl118	Cl	1.317475	0.931814	1.306470
Cl119	Cl	1.028218	0.112788	0.398682
Cl120	Cl	1.528218	0.612788	0.898682
Cl121	Cl	0.799137	0.459437	0.193717
Cl122	Cl	1.299137	0.959437	0.693717
H123	H	0.181613	0.076419	0.000124
H124	H	0.681613	0.576419	0.500124
H125	H	1.066517	-0.488700	0.000105
H126	H	1.566517	0.011300	0.500105
Cl127	Cl	0.779998	-0.515556	-0.000009
Cl128	Cl	1.279998	-0.015556	0.499991
H129	H	1.041507	0.092727	0.621623
H130	H	1.541507	0.592727	1.121623
H131	H	1.074401	-0.012615	0.000141
H132	H	1.574401	0.487385	0.500141
H133	H	0.330084	0.095555	0.000123
H134	H	0.830084	0.595555	0.500123
H135	H	0.849605	0.383135	0.621627
H136	H	1.349605	0.883135	1.121627
Cl137	Cl	0.789811	0.076754	0.000075
Cl138	Cl	1.289811	0.576754	0.500075
H139	H	0.673741	0.453522	0.000060
H140	H	1.173741	0.953522	0.500060
Cl141	Cl	1.037890	0.098137	0.193727
Cl142	Cl	1.537890	0.598137	0.693727
Cl143	Cl	0.503277	0.482327	0.000071
Cl144	Cl	1.003277	0.982327	0.500071
H145	H	1.033743	0.104508	0.786369
H146	H	1.533743	0.604508	1.286369
Cl147	Cl	0.727425	-0.006368	0.000096
Cl148	Cl	1.227425	0.493632	0.500096
Cl149	Cl	0.312663	0.560120	0.000076
Cl150	Cl	0.812663	1.060120	0.500076
Cl151	Cl	0.542694	-0.030176	0.000111
Cl152	Cl	1.042694	0.469824	0.500111
Cl153	Cl	0.789477	0.474093	0.398675
Cl154	Cl	1.289477	0.974093	0.898675
H155	H	1.201939	-0.145800	0.000167
H156	H	1.701939	0.354200	0.500167
Cl157	Cl	0.626212	-0.053688	0.000019
Cl158	Cl	1.126212	0.446312	0.500019
Cl159	Cl	1.229136	-0.416375	0.000151
Cl160	Cl	1.729136	0.083625	0.500151
