data_functionalizedCrystal
_audit_creation_method	'MofGen! by Chris Wilmer'
_symmetry_space_group_name_H-M	'P1'
_symmetry_Int_Tables_number	1
_symmetry_cell_setting	triclinic
loop_
_symmetry_equiv_pos_as_xyz
  x,y,z
_cell_length_a	8.497365
_cell_length_b	12.759401
_cell_length_c	12.759399
_cell_angle_alpha	89.984607
_cell_angle_beta	90.051436
_cell_angle_gamma	89.968757
loop_
_atom_site_label
_atom_site_type_symbol
_atom_site_fract_x
_atom_site_fract_y
_atom_site_fract_z
Zn1	Zn	-0.891902	1.606384	0.417995
Zn2	Zn	-0.628105	1.606238	0.593773
Zn3	Zn	-0.628135	1.430647	0.418110
Zn4	Zn	-0.891843	1.430673	0.593633
O5	O	-0.759996	1.518486	0.505878
O6	O	-0.856921	1.753386	0.441323
O7	O	-0.407346	1.582874	0.570578
O8	O	-0.663162	1.454009	0.271074
O9	O	-0.663110	1.753279	0.570467
O10	O	-0.856951	1.583122	0.270989
O11	O	-0.407369	1.453868	0.441519
O12	O	-0.663104	1.283630	0.441383
O13	O	-1.112613	1.454054	0.570228
O14	O	-0.856849	1.283649	0.570339
O15	O	-1.112657	1.583148	0.441187
O16	O	-0.663052	1.582899	0.740776
O17	O	-0.856819	1.453912	0.740673
C18	C	-0.759975	1.245518	0.505859
C19	C	-0.760003	1.128742	0.505876
C20	C	-0.759960	1.518421	0.778845
C21	C	-0.759998	1.518490	0.895622
C22	C	-0.860738	0.964186	0.573142
C23	C	-0.860721	1.073910	0.573130
C24	C	-0.659283	1.073843	0.438637
C25	C	-0.659292	0.964121	0.438655
C26	C	-0.350116	1.518410	0.505992
C27	C	-0.171473	1.518560	0.505777
C28	C	-0.760019	1.792519	0.505897
C29	C	-0.760029	1.909296	0.505906
C30	C	-0.760067	1.518579	0.231845
C31	C	-0.760097	1.518619	0.115068
C32	C	-0.659218	1.585730	0.950502
C33	C	-0.659271	1.585797	1.060226
C34	C	-0.860888	1.451376	1.060180
C35	C	-0.860842	1.451314	0.950458
H36	H	-0.942763	0.919550	0.627902
H37	H	-0.577208	1.640552	1.104905
N38	N	-0.969354	1.133105	0.645649
H39	H	-1.042565	1.178667	0.602988
H40	H	-0.905004	1.178533	0.694286
H41	H	-0.577276	0.919428	0.383902
N42	N	-0.550478	1.658197	0.891360
H43	H	-0.565737	1.647957	0.813523
H44	H	-0.437794	1.641884	0.910640
H45	H	-0.942989	1.396682	1.104840
N46	N	-0.969540	1.378788	0.891250
H47	H	-1.082288	1.395091	0.910242
H48	H	-0.944817	1.303765	0.910445
N49	N	-0.550640	1.132977	0.366103
H50	H	-0.565917	1.210815	0.376290
H51	H	-0.575391	1.113814	0.291086
