data_functionalizedCrystal
_audit_creation_method	'MofGen! by Chris Wilmer'
_symmetry_space_group_name_H-M	'P1'
_symmetry_Int_Tables_number	1
_symmetry_cell_setting	triclinic
loop_
_symmetry_equiv_pos_as_xyz
  x,y,z
_cell_length_a	14.044220
_cell_length_b	14.044220
_cell_length_c	12.996460
_cell_angle_alpha	89.993022
_cell_angle_beta	89.999501
_cell_angle_gamma	93.188878
loop_
_atom_site_label
_atom_site_type_symbol
_atom_site_fract_x
_atom_site_fract_y
_atom_site_fract_z
O1	O	1.277169	0.230169	-0.085462
O2	O	1.000498	0.221864	-0.085487
O3	O	1.134681	0.087681	-0.085465
O4	O	1.142987	0.364352	-0.085484
O5	O	1.134665	0.087671	0.085669
O6	O	1.000482	0.221854	0.085646
O7	O	1.277153	0.230160	0.085672
Cu8	Cu	1.138816	0.226006	0.101285
Cu9	Cu	1.138835	0.226017	-0.101100
O10	O	1.142971	0.364343	0.085650
C11	C	0.964868	0.218223	0.000076
C12	C	0.858725	0.207379	0.000067
C13	C	1.131037	0.052054	0.000102
C14	C	1.120193	-0.054088	0.000103
C15	C	0.664388	0.187553	0.000088
C16	C	0.613258	0.264467	0.000087
C17	C	0.505122	0.253435	0.000100
C18	C	0.772534	0.198583	0.000076
C19	C	1.100366	-0.248426	0.000086
C20	C	1.177281	-0.299556	0.000090
C21	C	1.166249	-0.407692	0.000081
C22	C	1.111397	-0.140280	0.000095
C23	C	1.312783	0.233800	0.000106
C24	C	1.418926	0.244645	0.000109
C25	C	1.146614	0.399969	0.000080
C26	C	1.157459	0.506112	0.000073
N27	N	1.138810	0.225998	0.243632
N28	N	1.138848	0.226018	-0.243447
C29	C	1.138834	0.226018	0.663447
C30	C	1.138825	0.226016	0.546642
C31	C	1.138822	0.226009	0.453543
C32	C	1.138812	0.226005	0.336731
H33	H	0.650697	0.338600	0.000077
H34	H	0.626951	0.113425	0.000099
H35	H	1.251414	-0.262117	0.000028
Cl36	Cl	0.985916	-0.306226	0.000070
