data_functionalizedCrystal
_audit_creation_method	'MofGen! by Chris Wilmer'
_symmetry_space_group_name_H-M	'P1'
_symmetry_Int_Tables_number	1
_symmetry_cell_setting	triclinic
loop_
_symmetry_equiv_pos_as_xyz
  x,y,z
_cell_length_a	19.377369
_cell_length_b	14.560432
_cell_length_c	19.377372
_cell_angle_alpha	90.000092
_cell_angle_beta	62.069167
_cell_angle_gamma	72.127378
loop_
_atom_site_label
_atom_site_type_symbol
_atom_site_fract_x
_atom_site_fract_y
_atom_site_fract_z
Zr1	Zr	0.939095	-0.001469	0.435800
O2	O	1.046522	-0.096194	0.323013
O3	O	0.808585	0.000993	0.485417
O4	O	0.949296	-0.152283	0.463727
O5	O	0.905815	0.208221	0.344703
O6	O	0.983599	-0.166295	0.557613
O7	O	0.905812	0.057082	0.344704
O8	O	0.731894	0.107887	0.596414
O9	O	1.157520	-0.065962	0.305903
O10	O	0.896415	0.023695	0.558472
O11	O	0.870817	0.146945	0.488405
O12	O	1.036486	-0.033518	0.462867
O13	O	1.010887	0.089732	0.392800
Zr14	Zr	0.993810	0.217231	0.585538
Zr15	Zr	0.993805	-0.023817	0.585539
Zr16	Zr	0.939100	0.239580	0.435799
Zr17	Zr	1.116124	0.046747	0.408511
Zr18	Zr	0.816782	0.169015	0.612827
O19	O	1.124320	0.214770	0.535921
O20	O	1.124313	-0.127970	0.535922
O21	O	1.046529	0.246546	0.323012
O22	O	0.886383	0.311956	0.698325
O23	O	0.886376	-0.030783	0.698326
O24	O	0.808592	0.343733	0.485416
O25	O	1.027090	0.007542	0.676635
O26	O	0.983609	0.368046	0.557612
O27	O	0.949306	0.382058	0.463725
O28	O	1.027093	0.158681	0.676635
O29	O	1.201007	-0.083726	0.424925
O30	O	0.731898	0.299488	0.596413
O31	O	0.775385	0.281724	0.715436
O32	O	0.775382	0.090123	0.715436
O33	O	1.157524	0.125639	0.305902
O34	O	1.201011	0.107876	0.424924
O35	O	0.896420	0.249280	0.558471
O36	O	0.922018	0.126030	0.628538
O37	O	1.062088	0.068818	0.532933
O38	O	1.036490	0.192068	0.462866
C39	C	0.745017	0.047570	0.544804
C40	C	0.669864	0.027101	0.556388
C41	C	0.898018	0.135835	0.323369
C42	C	0.874792	0.145323	0.259801
C43	C	0.966458	0.409396	0.510668
C44	C	0.966460	0.511727	0.510668
C45	C	0.355684	0.281732	0.411915
C46	C	0.285010	0.262564	0.422897
C47	C	0.311742	0.133901	0.496042
C48	C	0.382417	0.153061	0.485070
C49	C	0.404382	0.226977	0.443005
C50	C	0.431116	0.098306	0.516159
C51	C	0.501787	0.117461	0.505184
C52	C	0.523760	0.191372	0.463120
C53	C	0.475054	0.246133	0.432030
C54	C	0.409153	0.024385	0.558219
C55	C	0.457851	-0.030370	0.589308
C56	C	0.528521	-0.011210	0.578338
C57	C	0.550494	0.062701	0.536274
C58	C	0.577227	-0.065971	0.609428
C59	C	0.647899	-0.046815	0.598453
C60	C	0.621165	0.081856	0.525299
C61	C	1.187888	0.168193	0.476535
C62	C	1.263041	0.188662	0.464950
C63	C	0.966447	-0.193633	0.510670
C64	C	0.966445	-0.295965	0.510670
C65	C	1.112698	0.452013	0.410862
C66	C	1.185814	0.470232	0.360963
C67	C	1.185811	0.566383	0.360965
C68	C	1.112682	0.644321	0.410870
C69	C	1.039565	0.626103	0.460769
C70	C	1.039577	0.529946	0.460763
C71	C	0.893328	0.685817	0.560570
C72	C	0.893331	0.589666	0.560573
C73	C	0.820199	0.763755	0.610474
C74	C	0.747082	0.745536	0.660379
C75	C	0.747089	0.649378	0.660375
C76	C	0.820215	0.571447	0.610472
C77	C	1.163972	0.027201	-0.198784
C78	C	1.142129	0.036125	-0.258503
C79	C	0.995906	0.095850	-0.158689
C80	C	1.017738	0.086935	-0.098961
C81	C	1.101772	0.052609	-0.119015
C82	C	0.955537	0.112344	-0.019191
C83	C	0.977367	0.103425	0.040531
C84	C	1.061398	0.069098	0.020485
C85	C	1.123602	0.043691	-0.059292
C86	C	0.871503	0.146663	0.000861
C87	C	0.809303	0.172072	0.080630
C88	C	0.831133	0.163160	0.140355
C89	C	0.915163	0.128833	0.120309
C90	C	0.768928	0.188568	0.220132
C91	C	0.790758	0.179649	0.279855
C92	C	0.936993	0.119914	0.180032
C93	C	1.034887	0.079927	0.697969
C94	C	1.058113	0.070440	0.761537
C95	C	0.813451	0.019616	0.732104
C96	C	0.761524	-0.010340	0.807257
C97	C	0.745023	0.349085	0.544803
C98	C	0.669871	0.430947	0.556387
C99	C	0.813457	0.321131	0.732103
C100	C	0.761532	0.393506	0.807255
C101	C	1.119448	-0.105368	0.289235
C102	C	1.171374	-0.177743	0.214083
C103	C	1.119454	0.196147	0.289234
C104	C	1.171381	0.226103	0.214082
C105	C	1.187883	-0.133322	0.476536
C106	C	1.263034	-0.215184	0.464951
C107	C	0.723774	-0.077837	0.805975
C108	C	0.674991	-0.106003	0.876582
C109	C	0.663953	-0.066667	0.948470
C110	C	0.701709	0.000833	0.949749
C111	C	0.750497	0.028993	0.879143
C112	C	0.647944	0.522819	0.598401
C113	C	0.577340	0.599749	0.609282
C114	C	0.528662	0.584804	0.578153
C115	C	0.550595	0.492924	0.536133
C116	C	0.621201	0.415997	0.525248
C117	C	0.750511	0.363157	0.879129
C118	C	0.701734	0.431154	0.949747
C119	C	0.663973	0.529497	0.948491
C120	C	0.674997	0.559846	0.876610
C121	C	0.723779	0.491851	0.805992
C122	C	1.182403	-0.147392	0.142208
C123	C	1.231202	-0.215383	0.071587
C124	C	1.268967	-0.313725	0.072842
C125	C	1.257938	-0.344075	0.144724
C126	C	1.209144	-0.276084	0.215343
C127	C	1.209139	0.293591	0.215362
C128	C	1.257942	0.321736	0.144752
C129	C	1.268982	0.282397	0.072863
C130	C	1.231222	0.214901	0.071585
C131	C	1.182425	0.186752	0.142193
C132	C	1.311692	-0.200211	0.496091
C133	C	1.382301	-0.277124	0.485221
C134	C	1.404252	-0.369009	0.443206
C135	C	1.355586	-0.383983	0.412067
C136	C	1.284976	-0.307072	0.422941
H137	H	0.581308	0.206963	0.454181
N138	N	1.288019	-0.101119	0.541423
H139	H	1.235903	-0.054658	0.543595
H140	H	1.334931	-0.074654	0.513916
N141	N	0.611359	0.602829	1.024659
H142	H	0.610110	0.568671	1.070379
H143	H	0.552800	0.633124	1.033656
H144	H	1.240171	-0.190653	0.013066
H145	H	0.687546	0.808999	0.701003
H146	H	0.644246	0.639925	0.875599
N147	N	0.689793	0.043272	1.027288
H148	H	0.745703	0.026236	1.024594
H149	H	0.653123	0.015176	1.071778
N150	N	0.434164	-0.110099	0.634667
H151	H	0.382006	-0.113929	0.636900
H152	H	0.423668	-0.094782	0.690301
N153	N	0.678293	0.225588	0.241763
H154	H	0.650130	0.180466	0.273979
H155	H	0.673968	0.227386	0.191792
N156	N	1.141703	0.113962	0.140799
H157	H	1.102776	0.140816	0.118922
H158	H	1.109157	0.102114	0.196449
N159	N	1.298671	-0.450145	0.146072
H160	H	1.331250	-0.488603	0.090426
H161	H	1.254394	-0.477689	0.180788
N162	N	0.644881	0.316928	0.479882
H163	H	0.603337	0.319149	0.461801
H164	H	0.644877	0.266062	0.515318
H165	H	1.192786	0.015429	-0.323458
N166	N	0.634274	-0.178806	0.875193
H167	H	0.648667	-0.199440	0.818937
H168	H	0.571862	-0.147521	0.909309
N169	N	0.791244	0.257091	0.880487
H170	H	0.770495	0.214679	0.859236
H171	H	0.776849	0.248280	0.936752
N172	N	1.264673	0.586036	0.307153
H173	H	1.253570	0.658775	0.314731
H174	H	1.283761	0.561442	0.250179
N175	N	0.498085	0.476810	0.502566
H176	H	0.450028	0.539487	0.515846
H177	H	0.475848	0.423470	0.526287
H178	H	1.421918	-0.264913	0.510579
N179	N	1.112680	0.748026	0.410869
H180	H	1.096818	0.777664	0.465640
H181	H	1.071129	0.788078	0.395250
H182	H	0.492938	0.306323	0.397777
H183	H	0.820201	0.842045	0.610469
H184	H	1.461750	-0.431627	0.434357
H185	H	0.624224	-0.089604	1.005957
H186	H	1.308717	0.305326	0.015375
H187	H	1.245354	0.406765	0.320330
N188	N	0.791211	0.101795	0.880529
H189	H	0.746972	0.165543	0.915223
H190	H	0.823798	0.113587	0.824868
H191	H	1.240218	0.182877	0.013044
N192	N	1.379268	-0.483089	0.366752
H193	H	1.431385	-0.529530	0.364589
H194	H	1.389834	-0.476401	0.311092
H195	H	1.200165	-0.300809	0.273865
H196	H	0.373568	0.341923	0.377663
N197	N	0.668226	0.629730	0.714196
H198	H	0.621905	0.693694	0.745808
H199	H	0.677892	0.585895	0.751550
H200	H	1.245363	-0.319276	0.397579
H201	H	0.740108	0.200358	0.344808
H202	H	0.245361	0.307156	0.397575
H203	H	1.288679	0.376698	0.145808
N204	N	0.700434	0.538959	0.631984
H205	H	0.722725	0.592272	0.608275
H206	H	0.748452	0.476248	0.618714
N207	N	0.644854	0.161590	0.479938
H208	H	0.655394	0.146328	0.424279
H209	H	0.696997	0.165375	0.477766
N210	N	0.689848	0.398409	1.027268
H211	H	0.721166	0.325790	1.017343
H212	H	0.628601	0.412496	1.064574
H213	H	0.740883	0.200017	0.096948
H214	H	1.005422	0.091995	0.163700
H215	H	0.293851	0.073715	0.530288
H216	H	0.351610	0.008787	0.567148
H217	H	0.559338	-0.126160	0.643670
N218	N	0.735642	0.524590	0.728478
H219	H	0.772270	0.466600	0.683927
H220	H	0.762861	0.575903	0.718436
N221	N	0.553691	0.698840	0.654607
H222	H	0.595240	0.696623	0.672680
H223	H	0.496240	0.716508	0.702302
N224	N	0.452504	0.667774	0.589899
H225	H	0.469481	0.723851	0.565298
H226	H	0.412050	0.690612	0.648480
N227	N	0.700432	-0.105872	0.631980
H228	H	0.675792	-0.155602	0.660294
H229	H	0.701655	-0.060662	0.670596
H230	H	1.151653	-0.067323	0.141172
H231	H	1.308696	-0.369078	0.015334
N232	N	1.197239	0.336028	0.292892
H233	H	1.228571	0.383047	0.282977
H234	H	1.219161	0.281373	0.317371
H235	H	0.820229	0.493151	0.610468
H236	H	1.079170	0.061835	0.069118
N237	N	1.112540	0.348375	0.411084
H238	H	1.128349	0.318538	0.356387
H239	H	1.055057	0.348975	0.450376
H240	H	1.192031	0.015772	-0.075624
N241	N	0.735670	-0.120269	0.728445
H242	H	0.704351	-0.167303	0.738359
H243	H	0.796918	-0.156213	0.691144
N244	N	1.254609	-0.009805	-0.220406
H245	H	1.290705	-0.024543	-0.280003
H246	H	1.266854	-0.071432	-0.197802
H247	H	0.927486	0.123795	-0.142371
H248	H	0.853733	0.153916	-0.047772
