data_functionalizedCrystal
_audit_creation_method	'MofGen! by Chris Wilmer'
_symmetry_space_group_name_H-M	'P1'
_symmetry_Int_Tables_number	1
_symmetry_cell_setting	triclinic
loop_
_symmetry_equiv_pos_as_xyz
  x,y,z
_cell_length_a	18.101395
_cell_length_b	18.101398
_cell_length_c	18.215399
_cell_angle_alpha	90.027113
_cell_angle_beta	89.973154
_cell_angle_gamma	89.976925
loop_
_atom_site_label
_atom_site_type_symbol
_atom_site_fract_x
_atom_site_fract_y
_atom_site_fract_z
Zn1	Zn	-0.294993	-1.132123	-0.416276
Zn2	Zn	-0.044993	-0.882123	-0.166276
Zn3	Zn	0.205007	-0.632123	0.083724
Zn4	Zn	0.455007	-0.382123	0.333724
Zn5	Zn	-0.418840	-1.132018	-0.293213
Zn6	Zn	-0.168840	-0.882018	-0.043213
Zn7	Zn	0.081160	-0.632018	0.206787
Zn8	Zn	0.331160	-0.382018	0.456787
Zn9	Zn	-0.295000	-1.008281	-0.293207
Zn10	Zn	-0.045000	-0.758281	-0.043207
Zn11	Zn	0.205000	-0.508281	0.206793
Zn12	Zn	0.455000	-0.258281	0.456793
Zn13	Zn	-0.418780	-1.008232	-0.416221
Zn14	Zn	-0.168780	-0.758232	-0.166221
Zn15	Zn	0.081220	-0.508232	0.083779
Zn16	Zn	0.331220	-0.258232	0.333779
O17	O	-0.356903	-1.070163	-0.354729
O18	O	-0.106903	-0.820163	-0.104729
O19	O	0.143097	-0.570163	0.145271
O20	O	0.393097	-0.320163	0.395271
O21	O	-0.311444	-1.235742	-0.399977
O22	O	-0.061444	-0.985742	-0.149977
O23	O	0.188556	-0.735742	0.100023
O24	O	0.438556	-0.485742	0.350023
O25	O	-0.402440	-1.115581	-0.190228
O26	O	-0.152440	-0.865581	0.059772
O27	O	0.097560	-0.615581	0.309772
O28	O	0.347560	-0.365581	0.559772
O29	O	-0.191366	-1.024773	-0.309552
O30	O	0.058634	-0.774773	-0.059552
O31	O	0.308634	-0.524773	0.190448
O32	O	0.558634	-0.274773	0.440448
O33	O	-0.402434	-1.235665	-0.309563
O34	O	-0.152434	-0.985665	-0.059563
O35	O	0.097566	-0.735665	0.190437
O36	O	0.347566	-0.485665	0.440437
O37	O	-0.191361	-1.115759	-0.399971
O38	O	0.058639	-0.865759	-0.149971
O39	O	0.308639	-0.615759	0.100029
O40	O	0.558639	-0.365759	0.350029
O41	O	-0.311455	-1.024672	-0.190223
O42	O	-0.061455	-0.774672	0.059777
O43	O	0.188545	-0.524672	0.309777
O44	O	0.438545	-0.274672	0.559777
O45	O	-0.311397	-0.904642	-0.309499
O46	O	-0.061397	-0.654642	-0.059499
O47	O	0.188603	-0.404642	0.190501
O48	O	0.438603	-0.154642	0.440501
O49	O	-0.402331	-1.024690	-0.519213
O50	O	-0.152331	-0.774690	-0.269213
O51	O	0.097669	-0.524690	-0.019213
O52	O	0.347669	-0.274690	0.230787
O53	O	-0.402337	-0.904606	-0.399878
O54	O	-0.152337	-0.654606	-0.149878
O55	O	0.097663	-0.404606	0.100122
O56	O	0.347663	-0.154606	0.350122
O57	O	-0.311385	-1.115712	-0.519253
O58	O	-0.061385	-0.865712	-0.269253
O59	O	0.188615	-0.615712	-0.019253
O60	O	0.438615	-0.365712	0.230747
O61	O	-0.522465	-1.115533	-0.309510
O62	O	-0.272465	-0.865533	-0.059510
O63	O	-0.022465	-0.615533	0.190490
O64	O	0.227535	-0.365533	0.440490
O65	O	-0.522421	-1.024588	-0.399884
O66	O	-0.272421	-0.774588	-0.149884
O67	O	-0.022421	-0.524588	0.100116
O68	O	0.227579	-0.274588	0.350116
C69	C	-0.356862	-0.877753	-0.354682
C70	C	-0.106862	-0.627753	-0.104682
C71	C	0.143138	-0.377753	0.145318
C72	C	0.393138	-0.127753	0.395318
C73	C	-0.356862	-0.795439	-0.354680
C74	C	-0.106862	-0.545439	-0.104680
C75	C	0.143138	-0.295439	0.145320
C76	C	0.393138	-0.045439	0.395320
C77	C	-0.549314	-1.070064	-0.354708
C78	C	-0.299314	-0.820064	-0.104708
C79	C	-0.049314	-0.570064	0.145292
C80	C	0.200686	-0.320064	0.395292
C81	C	-0.631628	-1.070090	-0.354723
C82	C	-0.381628	-0.820090	-0.104723
C83	C	-0.131628	-0.570090	0.145277
C84	C	0.118372	-0.320090	0.395277
C85	C	-0.356891	-0.496348	-0.354728
C86	C	-0.106891	-0.246348	-0.104728
C87	C	0.143109	0.003652	0.145272
C88	C	0.393109	0.253652	0.395272
C89	C	-0.299389	-0.527671	-0.298143
C90	C	-0.049389	-0.277671	-0.048143
C91	C	0.200611	-0.027671	0.201857
C92	C	0.450611	0.222329	0.451857
C93	C	-0.299549	-0.613289	-0.297906
C94	C	-0.049549	-0.363289	-0.047906
C95	C	0.200451	-0.113289	0.202094
C96	C	0.450451	0.136711	0.452094
C97	C	-0.356876	-0.644730	-0.354704
C98	C	-0.106876	-0.394730	-0.104704
C99	C	0.143124	-0.144730	0.145296
C100	C	0.393124	0.105270	0.395296
C101	C	-0.434886	-0.613612	-0.333514
C102	C	-0.184886	-0.363612	-0.083514
C103	C	0.065114	-0.113612	0.166486
C104	C	0.315114	0.136388	0.416486
C105	C	-0.434561	-0.527967	-0.333116
C106	C	-0.184561	-0.277967	-0.083116
C107	C	0.065439	-0.027967	0.166884
C108	C	0.315439	0.222033	0.416884
C109	C	-0.337063	-0.527963	-0.432638
C110	C	-0.087063	-0.277963	-0.182638
C111	C	0.162937	-0.027963	0.067362
C112	C	0.412937	0.222037	0.317362
C113	C	-0.335331	-0.613614	-0.432216
C114	C	-0.085331	-0.363614	-0.182216
C115	C	0.164669	-0.113614	0.067784
C116	C	0.414669	0.136386	0.317784
C117	C	-0.356872	-0.728590	-0.354692
C118	C	-0.106872	-0.478590	-0.104692
C119	C	0.143128	-0.228590	0.145308
C120	C	0.393128	0.021410	0.395308
C121	C	-0.356900	-0.412488	-0.354739
C122	C	-0.106900	-0.162488	-0.104739
C123	C	0.143100	0.087512	0.145261
C124	C	0.393100	0.337512	0.395261
C125	C	-0.930719	-1.070252	-0.354763
C126	C	-0.680719	-0.820252	-0.104763
C127	C	-0.430719	-0.570252	0.145237
C128	C	-0.180719	-0.320252	0.395237
C129	C	-0.899396	-1.013165	-0.411764
C130	C	-0.649396	-0.763165	-0.161764
C131	C	-0.399396	-0.513165	0.088236
C132	C	-0.149396	-0.263165	0.338236
C133	C	-0.813778	-1.012894	-0.411586
C134	C	-0.563778	-0.762894	-0.161586
C135	C	-0.313778	-0.512894	0.088414
C136	C	-0.063778	-0.262894	0.338414
C137	C	-0.782336	-1.070172	-0.354744
C138	C	-0.532336	-0.820172	-0.104744
C139	C	-0.282336	-0.570172	0.145256
C140	C	-0.032336	-0.320172	0.395256
C141	C	-0.813484	-1.049042	-0.277180
C142	C	-0.563484	-0.799042	-0.027180
C143	C	-0.313484	-0.549042	0.222820
C144	C	-0.063484	-0.299042	0.472820
C145	C	-0.899129	-1.048674	-0.277521
C146	C	-0.649129	-0.798674	-0.027521
C147	C	-0.399129	-0.548674	0.222479
C148	C	-0.149129	-0.298674	0.472479
C149	C	-0.899073	-1.148594	-0.374642
C150	C	-0.649073	-0.898594	-0.124642
C151	C	-0.399073	-0.648594	0.125358
C152	C	-0.149073	-0.398594	0.375358
C153	C	-0.813422	-1.148133	-0.376343
C154	C	-0.563422	-0.898133	-0.126343
C155	C	-0.313422	-0.648133	0.123657
C156	C	-0.063422	-0.398133	0.373657
C157	C	-0.698477	-1.070127	-0.354728
C158	C	-0.448477	-0.820127	-0.104728
C159	C	-0.198477	-0.570127	0.145272
C160	C	0.051523	-0.320127	0.395272
C161	C	-1.014578	-1.070295	-0.354773
C162	C	-0.764578	-0.820295	-0.104773
C163	C	-0.514578	-0.570295	0.145227
C164	C	-0.264578	-0.320295	0.395227
C165	C	-0.163741	-1.070283	-0.354767
C166	C	0.086259	-0.820283	-0.104767
C167	C	0.336259	-0.570283	0.145233
C168	C	0.586259	-0.320283	0.395233
C169	C	-0.081427	-1.070334	-0.354783
C170	C	0.168573	-0.820334	-0.104783
C171	C	0.418573	-0.570334	0.145217
C172	C	0.668573	-0.320334	0.395217
C173	C	-0.356851	-1.070207	-0.546682
C174	C	-0.106851	-0.820207	-0.296682
C175	C	0.143149	-0.570207	-0.046682
C176	C	0.393149	-0.320207	0.203318
C177	C	-0.356828	-1.070225	-0.628481
C178	C	-0.106828	-0.820225	-0.378481
C179	C	0.143172	-0.570225	-0.128481
C180	C	0.393172	-0.320225	0.121519
C181	C	-0.356930	-0.263325	-0.354766
C182	C	-0.106930	-0.013325	-0.104766
C183	C	0.143070	0.236675	0.145234
C184	C	0.393070	0.486675	0.395234
C185	C	-0.356905	-0.345639	-0.354752
C186	C	-0.106905	-0.095639	-0.104752
C187	C	0.143095	0.154361	0.145248
C188	C	0.393095	0.404361	0.395248
C189	C	-0.309409	-1.117648	-0.893561
C190	C	-0.059409	-0.867648	-0.643561
C191	C	0.190591	-0.617648	-0.393561
C192	C	0.440591	-0.367648	-0.143561
C193	C	-0.309429	-1.117639	-0.816702
C194	C	-0.059429	-0.867639	-0.566702
C195	C	0.190571	-0.617639	-0.316702
C196	C	0.440571	-0.367639	-0.066702
C197	C	-0.404140	-1.022863	-0.816650
C198	C	-0.154140	-0.772863	-0.566650
C199	C	0.095860	-0.522863	-0.316650
C200	C	0.345860	-0.272863	-0.066650
C201	C	-0.404123	-1.022876	-0.893507
C202	C	-0.154123	-0.772876	-0.643507
C203	C	0.095877	-0.522876	-0.393507
C204	C	0.345877	-0.272876	-0.143507
C205	C	-0.356753	-1.070267	-0.931961
C206	C	-0.106753	-0.820267	-0.681961
C207	C	0.143247	-0.570267	-0.431961
C208	C	0.393247	-0.320267	-0.181961
C209	C	-0.356790	-1.070246	-0.778245
C210	C	-0.106790	-0.820246	-0.528245
C211	C	0.143210	-0.570246	-0.278245
C212	C	0.393210	-0.320246	-0.028245
C213	C	-0.356812	-1.070236	-0.694911
C214	C	-0.106812	-0.820236	-0.444911
C215	C	0.143188	-0.570236	-0.194911
C216	C	0.393188	-0.320236	0.055089
C217	C	-0.356732	-1.070278	-1.015300
C218	C	-0.106732	-0.820278	-0.765300
C219	C	0.143268	-0.570278	-0.515300
C220	C	0.393268	-0.320278	-0.265300
C221	C	-0.356902	-1.070163	-0.163523
C222	C	-0.106902	-0.820163	0.086477
C223	C	0.143098	-0.570163	0.336477
C224	C	0.393098	-0.320163	0.586477
C225	C	-0.356716	-1.070288	-0.081725
C226	C	-0.106716	-0.820288	0.168275
C227	C	0.143284	-0.570288	0.418275
C228	C	0.393284	-0.320288	0.668275
H229	H	-0.241363	-0.507101	-0.311277
H230	H	0.008637	-0.257101	-0.061277
H231	H	0.258637	-0.007101	0.188723
H232	H	0.508637	0.242899	0.438723
O233	O	-0.927607	-1.174115	-0.448289
O234	O	-0.677607	-0.924115	-0.198289
O235	O	-0.427607	-0.674115	0.051711
O236	O	-0.177607	-0.424115	0.301711
H237	H	-0.964667	-1.131240	-0.471547
H238	H	-0.714667	-0.881240	-0.221547
H239	H	-0.464667	-0.631240	0.028453
H240	H	-0.214667	-0.381240	0.278453
O241	O	-0.785151	-0.973987	-0.254474
O242	O	-0.535151	-0.723987	-0.004474
O243	O	-0.285151	-0.473987	0.245526
O244	O	-0.035151	-0.223987	0.495526
H245	H	-0.807552	-0.959663	-0.199547
H246	H	-0.557552	-0.709663	0.050453
H247	H	-0.307552	-0.459663	0.300453
H248	H	-0.057552	-0.209663	0.550453
H249	H	-0.312349	-0.506121	-0.240749
H250	H	-0.062349	-0.256121	0.009251
H251	H	0.187651	-0.006121	0.259251
H252	H	0.437651	0.243879	0.509251
O253	O	-0.926592	-1.101361	-0.219351
O254	O	-0.676592	-0.851361	0.030649
O255	O	-0.426592	-0.601361	0.280649
O256	O	-0.176592	-0.351361	0.530649
H257	H	-0.960619	-1.070638	-0.178844
H258	H	-0.710619	-0.820638	0.071156
H259	H	-0.460619	-0.570638	0.321156
H260	H	-0.210619	-0.320638	0.571156
H261	H	-0.793062	-1.164067	-0.433426
H262	H	-0.543062	-0.914067	-0.183426
H263	H	-0.293062	-0.664067	0.066574
H264	H	-0.043062	-0.414067	0.316574
H265	H	-0.792016	-1.192916	-0.337853
H266	H	-0.542016	-0.942916	-0.087853
H267	H	-0.292016	-0.692916	0.162147
H268	H	-0.042016	-0.442916	0.412147
O269	O	-0.927972	-0.936710	-0.394548
O270	O	-0.677972	-0.686710	-0.144548
O271	O	-0.427972	-0.436710	0.105452
O272	O	-0.177972	-0.186710	0.355452
H273	H	-0.880693	-0.899365	-0.383288
H274	H	-0.630693	-0.649365	-0.133288
H275	H	-0.380693	-0.399365	0.116712
H276	H	-0.130693	-0.149365	0.366712
O277	O	-0.455191	-0.971767	-0.934927
O278	O	-0.205191	-0.721767	-0.684927
O279	O	0.044809	-0.471767	-0.434927
O280	O	0.294809	-0.221767	-0.184927
H281	H	-0.447226	-0.979745	-0.994831
H282	H	-0.197226	-0.729745	-0.744831
H283	H	0.052774	-0.479745	-0.494831
H284	H	0.302774	-0.229745	-0.244831
H285	H	-0.442706	-0.984278	-0.785332
H286	H	-0.192706	-0.734278	-0.535332
H287	H	0.057294	-0.484278	-0.285332
H288	H	0.307294	-0.234278	-0.035332
O289	O	-0.316907	-0.640372	-0.221431
O290	O	-0.066907	-0.390372	0.028569
O291	O	0.183093	-0.140372	0.278569
O292	O	0.433093	0.109628	0.528569
H293	H	-0.367969	-0.674275	-0.222765
H294	H	-0.117969	-0.424275	0.027235
H295	H	0.132031	-0.174275	0.277235
H296	H	0.382031	0.075725	0.527235
O297	O	-0.258364	-1.168741	-0.775282
O298	O	-0.008364	-0.918741	-0.525282
O299	O	0.241636	-0.668741	-0.275282
O300	O	0.491636	-0.418741	-0.025282
H301	H	-0.225422	-1.201692	-0.814936
H302	H	0.024578	-0.951692	-0.564936
H303	H	0.274578	-0.701692	-0.314936
H304	H	0.524578	-0.451692	-0.064936
O305	O	-0.925668	-0.972816	-0.255219
O306	O	-0.675668	-0.722816	-0.005219
O307	O	-0.425668	-0.472816	0.244781
O308	O	-0.175668	-0.222816	0.494781
H309	H	-0.959833	-0.977303	-0.204803
H310	H	-0.709833	-0.727303	0.045197
H311	H	-0.459833	-0.477303	0.295197
H312	H	-0.209833	-0.227303	0.545197
H313	H	-0.792716	-1.026113	-0.469099
H314	H	-0.542716	-0.776113	-0.219099
H315	H	-0.292716	-0.526113	0.030901
H316	H	-0.042716	-0.276113	0.280901
H317	H	-0.241701	-0.634330	-0.311188
H318	H	0.008299	-0.384330	-0.061188
H319	H	0.258299	-0.134330	0.188812
H320	H	0.508299	0.115670	0.438812
H321	H	-0.270837	-1.156236	-0.924868
H322	H	-0.020837	-0.906236	-0.674868
H323	H	0.229163	-0.656236	-0.424868
H324	H	0.479163	-0.406236	-0.174868
O325	O	-0.456824	-0.501449	-0.257672
O326	O	-0.206824	-0.251449	-0.007672
O327	O	0.043176	-0.001449	0.242328
O328	O	0.293176	0.248551	0.492328
H329	H	-0.467717	-0.549797	-0.221814
H330	H	-0.217717	-0.299797	0.028186
H331	H	0.032283	-0.049797	0.278186
H332	H	0.282283	0.200203	0.528186
O333	O	-0.926075	-1.204901	-0.319701
O334	O	-0.676075	-0.954901	-0.069701
O335	O	-0.426075	-0.704901	0.180299
O336	O	-0.176075	-0.454901	0.430299
H337	H	-0.907152	-1.189099	-0.263912
H338	H	-0.657152	-0.939099	-0.013912
H339	H	-0.407152	-0.689099	0.236088
H340	H	-0.157152	-0.439099	0.486088
O341	O	-0.493230	-0.500504	-0.385324
O342	O	-0.243230	-0.250504	-0.135324
O343	O	0.006770	-0.000504	0.114676
O344	O	0.256770	0.249496	0.364676
H345	H	-0.481213	-0.521083	-0.441485
H346	H	-0.231213	-0.271083	-0.191485
H347	H	0.018787	-0.021083	0.058515
H348	H	0.268787	0.228917	0.308515
O349	O	-0.493169	-0.640584	-0.386392
O350	O	-0.243169	-0.390584	-0.136392
O351	O	0.006831	-0.140584	0.113608
O352	O	0.256831	0.109416	0.363608
H353	H	-0.467091	-0.676544	-0.428435
H354	H	-0.217091	-0.426544	-0.178435
H355	H	0.032909	-0.176544	0.071565
H356	H	0.282909	0.073456	0.321565
O357	O	-0.386768	-0.641964	-0.491059
O358	O	-0.136768	-0.391964	-0.241059
O359	O	0.113232	-0.141964	0.008941
O360	O	0.363232	0.108036	0.258941
H361	H	-0.370007	-0.618956	-0.545024
H362	H	-0.120007	-0.368956	-0.295024
H363	H	0.129993	-0.118956	-0.045024
H364	H	0.379993	0.131044	0.204976
O365	O	-0.457555	-0.641980	-0.258889
O366	O	-0.207555	-0.391980	-0.008889
O367	O	0.042445	-0.141980	0.241111
O368	O	0.292445	0.108020	0.491111
H369	H	-0.512801	-0.619602	-0.244519
H370	H	-0.262801	-0.369602	0.005481
H371	H	-0.012801	-0.119602	0.255481
H372	H	0.237199	0.130398	0.505481
O373	O	-0.263018	-0.499399	-0.458160
O374	O	-0.013018	-0.249399	-0.208160
O375	O	0.236982	0.000601	0.041840
O376	O	0.486982	0.250601	0.291840
H377	H	-0.239522	-0.462345	-0.415594
H378	H	0.010478	-0.212345	-0.165594
H379	H	0.260478	0.037655	0.084406
H380	H	0.510478	0.287655	0.334406
H381	H	-0.378945	-0.507706	-0.474799
H382	H	-0.128945	-0.257706	-0.224799
H383	H	0.121055	-0.007706	0.025201
H384	H	0.371055	0.242294	0.275201
O385	O	-0.259291	-0.640560	-0.453392
O386	O	-0.009291	-0.390560	-0.203392
O387	O	0.240709	-0.140560	0.046608
O388	O	0.490709	0.109440	0.296608
H389	H	-0.236931	-0.675971	-0.408904
H390	H	0.013069	-0.425971	-0.158904
H391	H	0.263069	-0.175971	0.091096
H392	H	0.513069	0.074029	0.341096
H393	H	-0.919946	-1.026253	-0.469463
H394	H	-0.669946	-0.776253	-0.219463
H395	H	-0.419946	-0.526253	0.030537
H396	H	-0.169946	-0.276253	0.280537
H397	H	-0.793119	-1.089314	-0.233550
H398	H	-0.543119	-0.839314	0.016450
H399	H	-0.293119	-0.589314	0.266450
H400	H	-0.043119	-0.339314	0.516450
O401	O	-0.786712	-0.935979	-0.394124
O402	O	-0.536712	-0.685979	-0.144124
O403	O	-0.286712	-0.435979	0.105876
O404	O	-0.036712	-0.185979	0.355876
H405	H	-0.807364	-0.896894	-0.436333
H406	H	-0.557364	-0.646894	-0.186333
H407	H	-0.307364	-0.396894	0.063667
H408	H	-0.057364	-0.146894	0.313667
