data_functionalizedCrystal
_audit_creation_method	'MofGen! by Chris Wilmer'
_symmetry_space_group_name_H-M	'P1'
_symmetry_Int_Tables_number	1
_symmetry_cell_setting	triclinic
loop_
_symmetry_equiv_pos_as_xyz
  x,y,z
_cell_length_a	14.908610
_cell_length_b	14.908520
_cell_length_c	14.908308
_cell_angle_alpha	83.639235
_cell_angle_beta	89.826017
_cell_angle_gamma	90.203296
loop_
_atom_site_label
_atom_site_type_symbol
_atom_site_fract_x
_atom_site_fract_y
_atom_site_fract_z
Zn1	Zn	-1.316647	0.470677	-0.613097
Zn2	Zn	-0.816647	0.970677	-0.113097
Zn3	Zn	-1.316545	0.613316	-0.470461
Zn4	Zn	-0.816545	1.113316	0.029539
Zn5	Zn	-1.176017	0.453349	-0.453154
Zn6	Zn	-0.676017	0.953349	0.046846
Zn7	Zn	-1.157638	0.612237	-0.612051
Zn8	Zn	-0.657638	1.112237	-0.112051
O9	O	-1.241712	0.537395	-0.537191
O10	O	-0.741712	1.037395	-0.037191
O11	O	-1.441990	0.497302	-0.601857
O12	O	-0.941990	0.997302	-0.101857
O13	O	-1.305552	0.585296	-0.341973
O14	O	-0.805552	1.085296	0.158027
O15	O	-1.202406	0.329458	-0.467565
O16	O	-0.702406	0.829458	0.032435
O17	O	-1.441916	0.602099	-0.497063
O18	O	-0.941916	1.102099	0.002937
O19	O	-1.305726	0.342189	-0.585075
O20	O	-0.805726	0.842189	-0.085075
O21	O	-1.202307	0.467769	-0.329257
O22	O	-0.702307	0.967769	0.170743
O23	O	-1.048222	0.466723	-0.466551
O24	O	-0.548222	0.966723	0.033449
O25	O	-1.171082	0.600259	-0.738383
O26	O	-0.671082	1.100259	-0.238383
O27	O	-1.034719	0.583457	-0.583292
O28	O	-0.534719	1.083457	-0.083292
O29	O	-1.287905	0.496256	-0.739151
O30	O	-0.787905	0.996256	-0.239151
O31	O	-1.287732	0.739363	-0.496049
O32	O	-0.787732	1.239363	0.003951
O33	O	-1.170984	0.738570	-0.600074
O34	O	-0.670984	1.238570	-0.100074
C35	C	-1.008967	0.523093	-0.522930
C36	C	-0.508967	1.023093	-0.022930
C37	C	-0.909395	0.516997	-0.516852
C38	C	-0.409395	1.016997	-0.016852
C39	C	-0.776056	0.447549	-0.447594
C40	C	-0.276056	0.947549	0.052406
C41	C	-0.869613	0.453272	-0.453301
C42	C	-0.369613	0.953272	0.046699
C43	C	-0.855612	0.575002	-0.574702
C44	C	-0.355612	1.075002	-0.074702
C45	C	-0.762055	0.569280	-0.568995
C46	C	-0.262055	1.069280	-0.068995
C47	C	-0.722280	0.505552	-0.505438
C48	C	-0.222280	1.005552	-0.005438
C49	C	-0.628721	0.499834	-0.499727
C50	C	-0.128721	0.999834	0.000273
C51	C	-0.614722	0.621560	-0.621131
C52	C	-0.114722	1.121560	-0.121131
C53	C	-0.708280	0.627283	-0.626838
C54	C	-0.208280	1.127283	-0.126838
C55	C	-1.227376	0.771689	-0.549847
C56	C	-0.727376	1.271689	-0.049847
C57	C	-1.221323	0.871928	-0.555297
C58	C	-0.721323	1.371928	-0.055297
C59	C	-1.227455	0.550070	-0.772402
C60	C	-0.727455	1.050070	-0.272402
C61	C	-1.221380	0.555471	-0.872635
C62	C	-0.721380	1.055471	-0.372635
C63	C	-0.475367	0.551745	-0.551500
C64	C	0.024633	1.051745	-0.051500
C65	C	-0.574939	0.557840	-0.557577
C66	C	-0.074939	1.057840	-0.057577
C67	C	-1.256127	0.302189	-0.524506
C68	C	-0.756127	0.802189	-0.024506
C69	C	-1.262270	0.201958	-0.519100
C70	C	-0.762270	0.701958	-0.019100
C71	C	-1.331630	1.061064	-0.457316
C72	C	-0.831630	1.561064	0.042684
C73	C	-1.325946	1.155247	-0.462434
C74	C	-0.825946	1.655247	0.037566
C75	C	-1.204275	1.154479	-0.570655
C76	C	-0.704275	1.654479	-0.070655
C77	C	-1.209959	1.060296	-0.565537
C78	C	-0.709959	1.560296	-0.065537
C79	C	-1.273638	1.013591	-0.508865
C80	C	-0.773638	1.513591	-0.008865
C81	C	-1.279317	0.919406	-0.503743
C82	C	-0.779317	1.419406	-0.003743
C83	C	-1.157651	0.918641	-0.611968
C84	C	-0.657651	1.418641	-0.111968
C85	C	-1.151967	1.012824	-0.617086
C86	C	-0.651967	1.512824	-0.117086
C87	C	-1.331610	0.457301	-1.061784
C88	C	-0.831610	0.957301	-0.561784
C89	C	-1.325905	0.462373	-1.155962
C90	C	-0.825905	0.962373	-0.655962
C91	C	-1.204260	0.570682	-1.155170
C92	C	-0.704260	1.070682	-0.655170
C93	C	-1.209966	0.565610	-1.060992
C94	C	-0.709966	1.065610	-0.560992
C95	C	-1.273643	0.508919	-1.014303
C96	C	-0.773643	1.008919	-0.514303
C97	C	-1.279352	0.503852	-0.920124
C98	C	-0.779352	1.003852	-0.420124
C99	C	-1.157704	0.612156	-0.919333
C100	C	-0.657704	1.112156	-0.419333
C101	C	-1.151999	0.617228	-1.013510
C102	C	-0.651999	1.117228	-0.513510
C103	C	-1.255968	0.524707	-0.302894
C104	C	-0.755968	1.024707	0.197106
C105	C	-1.262233	0.519063	-0.202658
C106	C	-0.762233	1.019063	0.297342
H107	H	-0.740677	0.679166	-0.678586
H108	H	-0.240677	1.179166	-0.178586
H109	H	-1.152437	1.192523	-0.616801
H110	H	-0.652437	1.692523	-0.116801
H111	H	-1.110506	0.654189	-0.880663
H112	H	-0.610506	1.154189	-0.380663
H113	H	-1.331203	0.457692	-0.882111
H114	H	-0.831203	0.957692	-0.382111
C115	C	-0.584969	0.429734	-0.429823
C116	C	-0.084969	0.929734	0.070177
H117	H	-0.630399	0.396003	-0.396198
H118	H	-0.130399	0.896003	0.103802
H119	H	-0.548745	0.459810	-0.390105
H120	H	-0.048745	0.959810	0.109895
H121	H	-0.548784	0.390125	-0.460046
H122	H	-0.048784	0.890125	0.039954
C123	C	-1.081963	0.679586	-1.064874
C124	C	-0.581963	1.179586	-0.564874
H125	H	-1.086869	0.675219	-1.127764
H126	H	-0.586869	1.175219	-0.627764
H127	H	-1.023515	0.661869	-1.045041
H128	H	-0.523515	1.161869	-0.545041
H129	H	-1.092310	0.740152	-1.053513
H130	H	-0.592310	1.240152	-0.553513
C131	C	-1.093851	0.866424	-0.668671
C132	C	-0.593851	1.366424	-0.168671
H133	H	-1.055109	0.907731	-0.703147
H134	H	-0.555109	1.407731	-0.203147
H135	H	-1.127914	0.833852	-0.708091
H136	H	-0.627914	1.333852	-0.208091
H137	H	-1.059154	0.825482	-0.629745
H138	H	-0.559154	1.325482	-0.129745
C139	C	-0.555567	0.685364	-0.684763
C140	C	-0.055567	1.185364	-0.184763
H141	H	-0.494151	0.672828	-0.672266
H142	H	0.005849	1.172828	-0.172266
H143	H	-0.568009	0.746154	-0.675676
H144	H	-0.068009	1.246154	-0.175676
H145	H	-0.568039	0.676459	-0.745606
H146	H	-0.068039	1.176459	-0.245606
H147	H	-1.383463	0.411145	-1.023770
H148	H	-0.883463	0.911145	-0.523770
C149	C	-1.349363	0.868032	-0.441411
C150	C	-0.849363	1.368032	0.058589
H151	H	-1.383093	0.909798	-0.411451
H152	H	-0.883093	1.409798	0.088549
H153	H	-1.319733	0.827114	-0.397995
H154	H	-0.819733	1.327114	0.102005
H155	H	-1.388493	0.835502	-0.476341
H156	H	-0.888493	1.335502	0.023659
C157	C	-1.389671	0.405603	-1.208194
C158	C	-0.889671	0.905603	-0.708194
H159	H	-1.377153	0.416738	-1.270970
H160	H	-0.877153	0.916738	-0.770970
H161	H	-1.449986	0.421666	-1.197155
H162	H	-0.949986	0.921666	-0.697155
H163	H	-1.381203	0.343373	-1.188689
H164	H	-0.881203	0.843373	-0.688689
C165	C	-0.732300	0.377456	-0.377686
C166	C	-0.232300	0.877456	0.122314
H167	H	-0.777728	0.343728	-0.344054
H168	H	-0.277728	0.843728	0.155946
H169	H	-0.696075	0.407539	-0.337975
H170	H	-0.196075	0.907539	0.162025
H171	H	-0.696115	0.337843	-0.407905
H172	H	-0.196115	0.837843	0.092095
C173	C	-0.928763	0.389471	-0.389673
C174	C	-0.428763	0.889471	0.110327
H175	H	-0.891672	0.350703	-0.351002
H176	H	-0.391672	0.850703	0.148998
H177	H	-0.965569	0.354329	-0.424339
H178	H	-0.465569	0.854329	0.075661
H179	H	-0.965532	0.424022	-0.354406
H180	H	-0.465532	0.924022	0.145594
C181	C	-0.899376	0.645076	-0.644625
C182	C	-0.399376	1.145076	-0.144625
H183	H	-0.962796	0.640171	-0.639739
H184	H	-0.462796	1.140171	-0.139739
H185	H	-0.881175	0.634287	-0.703587
H186	H	-0.381175	1.134287	-0.203587
H187	H	-0.881164	0.704004	-0.633678
H188	H	-0.381164	1.204004	-0.133678
C189	C	-1.401669	1.009685	-0.394979
C190	C	-0.901669	1.509685	0.105021
H191	H	-1.435396	1.051448	-0.365012
H192	H	-0.935396	1.551448	0.134988
H193	H	-1.372031	0.968767	-0.351569
H194	H	-0.872031	1.468767	0.148431
H195	H	-1.440803	0.977155	-0.429904
H196	H	-0.940803	1.477155	0.070096
H197	H	-1.373171	1.193895	-0.420460
H198	H	-0.873171	1.693895	0.079540
C199	C	-1.081923	1.064204	-0.679415
C200	C	-0.581923	1.564204	-0.179415
H201	H	-1.086838	1.127095	-0.675076
H202	H	-0.586838	1.627095	-0.175076
H203	H	-1.092233	1.052802	-0.739977
H204	H	-0.592233	1.552802	-0.239977
H205	H	-1.023475	1.044418	-0.661629
H206	H	-0.523475	1.544418	-0.161629
H207	H	-1.152417	0.616837	-1.193201
H208	H	-0.652417	1.116837	-0.693201
