data_functionalizedCrystal
_audit_creation_method	'MofGen! by Chris Wilmer'
_symmetry_space_group_name_H-M	'P1'
_symmetry_Int_Tables_number	1
_symmetry_cell_setting	triclinic
loop_
_symmetry_equiv_pos_as_xyz
  x,y,z
_cell_length_a	21.295418
_cell_length_b	12.759400
_cell_length_c	12.759393
_cell_angle_alpha	89.968436
_cell_angle_beta	90.040879
_cell_angle_gamma	89.969501
loop_
_atom_site_label
_atom_site_type_symbol
_atom_site_fract_x
_atom_site_fract_y
_atom_site_fract_z
Zn1	Zn	0.962407	0.417761	0.594609
Zn2	Zn	0.962344	0.593480	0.418929
Zn3	Zn	0.857136	0.417864	0.418880
Zn4	Zn	0.857129	0.593447	0.594502
O5	O	0.909754	0.505638	0.506730
O6	O	1.050488	0.441041	0.571370
O7	O	0.948364	0.570241	0.271901
O8	O	0.871129	0.270829	0.442215
O9	O	1.050442	0.570141	0.442299
O10	O	0.948472	0.270753	0.571322
O11	O	0.871068	0.441216	0.271865
O12	O	0.769045	0.441185	0.442111
O13	O	0.871118	0.570085	0.741537
O14	O	0.769040	0.570185	0.571140
O15	O	0.948465	0.441009	0.741616
O16	O	0.948358	0.740496	0.442195
O17	O	0.871057	0.740472	0.571188
C18	C	0.909717	0.778605	0.506708
C19	C	0.909758	0.895382	0.506734
C20	C	0.746202	0.505693	0.506609
C21	C	0.676234	0.505742	0.506582
C22	C	0.909798	0.505532	0.780764
C23	C	0.909817	0.505486	0.897540
C24	C	0.643381	0.573001	0.573667
C25	C	0.577639	0.572975	0.573714
C26	C	0.544752	0.505701	0.506658
C27	C	0.577612	0.438429	0.439568
C28	C	0.643354	0.438449	0.439530
N29	N	0.441477	0.497506	0.414766
N30	N	0.379026	0.497493	0.414805
C31	C	0.346677	0.505634	0.506769
N32	N	0.379139	0.513810	0.598696
N33	N	0.441596	0.513828	0.598656
C34	C	0.473466	0.505671	0.506692
C35	C	0.242539	0.572869	0.573911
C36	C	0.176795	0.572836	0.573960
C37	C	0.176770	0.438295	0.439804
C38	C	0.242512	0.438322	0.439765
C39	C	0.275393	0.505615	0.506817
C40	C	1.073944	0.505583	0.506852
C41	C	1.143912	0.505560	0.506904
C42	C	0.909809	0.231604	0.506775
C43	C	0.909832	0.114828	0.506794
C44	C	0.950053	0.950221	0.439642
C45	C	0.950092	1.059945	0.439674
C46	C	0.869535	1.059980	0.573894
C47	C	0.869500	0.950258	0.573866
C48	C	0.990312	0.895345	0.372510
C49	C	1.030610	0.950184	0.305411
C50	C	1.030649	1.059908	0.305444
C51	C	0.990389	1.114793	0.372575
C52	C	0.909746	0.505667	0.233763
C53	C	0.909849	0.505417	0.116987
C54	C	0.950097	0.438270	0.952445
C55	C	0.950112	0.438232	1.062169
C56	C	0.869565	0.572636	1.062074
C57	C	0.869547	0.572668	0.952352
C58	C	0.990367	0.371089	0.897633
C59	C	1.030651	0.303868	0.952538
C60	C	1.030666	0.303830	1.062262
C61	C	0.990397	0.371013	1.117082
H62	H	0.550885	0.627745	0.628347
O63	O	1.069658	0.896713	0.240240
C64	C	1.060996	0.788109	0.254614
H65	H	1.012400	0.773184	0.288918
H66	H	1.098306	0.756855	0.310630
C67	C	1.126464	0.750188	0.106173
C68	C	1.066776	0.731856	0.148298
H69	H	1.130032	0.715487	0.040595
H70	H	1.132302	0.823356	0.096491
H71	H	1.157550	0.724143	0.152863
H72	H	1.035692	0.757912	0.101615
H73	H	1.060932	0.658690	0.157970
H74	H	1.063466	1.104556	0.250817
O75	O	0.830446	1.113454	0.638995
C76	C	0.839129	1.222057	0.624650
H77	H	0.859777	1.237068	0.543617
H78	H	0.872641	1.253086	0.687045
C79	C	0.750091	1.260059	0.733682
C80	C	0.775447	1.278497	0.634152
H81	H	0.710811	1.294876	0.739548
H82	H	0.744243	1.186892	0.743351
H83	H	0.778024	1.285917	0.785667
H84	H	0.747518	1.252628	0.582170
H85	H	0.781289	1.351662	0.624475
O86	O	0.545642	0.373233	0.374311
C87	C	0.507538	0.432961	0.306387
H88	H	0.527312	0.515706	0.299751
H89	H	0.457732	0.436603	0.338887
C90	C	0.482200	0.279882	0.205406
C91	C	0.506489	0.381508	0.197248
H92	H	0.481550	0.248142	0.138085
H93	H	0.507869	0.239641	0.251169
H94	H	0.440697	0.282931	0.232493
H95	H	0.547994	0.378457	0.170174
H96	H	0.480827	0.421748	0.151477
H97	H	1.063433	0.249164	0.907897
H98	H	0.670149	0.627795	0.628268
H99	H	0.670102	0.383675	0.384902
H100	H	0.990405	0.370965	1.206426
O101	O	0.830485	0.638046	1.115206
C102	C	0.844228	0.742762	1.088396
H103	H	0.868412	0.744953	1.008746
H104	H	0.876596	0.778119	1.150161
C105	C	0.753144	0.803734	1.181094
C106	C	0.782843	0.806426	1.083263
H107	H	0.715280	0.843008	1.177932
H108	H	0.743886	0.733186	1.199161
H109	H	0.780125	0.833197	1.232555
H110	H	0.755866	0.776952	1.031807
H111	H	0.792095	0.876971	1.065187
H112	H	0.269312	0.627657	0.628514
H113	H	0.150047	0.627604	0.628595
H114	H	0.836688	0.905607	0.628499
H115	H	0.990361	0.371115	0.808290
H116	H	1.063463	0.249088	1.106963
H117	H	0.836737	0.627385	0.907648
O118	O	0.144734	0.373068	0.374673
C119	C	0.079663	0.387462	0.389098
H120	H	0.070675	0.468566	0.423408
H121	H	0.061058	0.325183	0.445130
C122	C	0.056897	0.278146	0.240677
C123	C	0.045857	0.377763	0.282809
H124	H	0.036043	0.272159	0.175115
H125	H	0.100736	0.268445	0.230961
H126	H	0.041392	0.226258	0.287380
H127	H	0.061369	0.429648	0.236113
H128	H	0.002020	0.387473	0.292515
H129	H	0.990283	0.806002	0.372473
O130	O	0.274332	0.372960	0.374491
C131	C	0.231210	0.313555	0.315333
H132	H	0.184326	0.356568	0.311647
H133	H	0.224277	0.233805	0.353948
C134	C	0.314387	0.245459	0.208054
C135	C	0.256805	0.298293	0.203520
H136	H	0.330176	0.236040	0.139084
H137	H	0.343440	0.285478	0.247912
H138	H	0.308602	0.179007	0.240238
H139	H	0.262592	0.364749	0.171348
H140	H	0.227754	0.258285	0.163654
H141	H	0.990429	1.204137	0.372604
