data_functionalizedCrystal
_audit_creation_method	'MofGen! by Chris Wilmer'
_symmetry_space_group_name_H-M	'P1'
_symmetry_Int_Tables_number	1
_symmetry_cell_setting	triclinic
loop_
_symmetry_equiv_pos_as_xyz
  x,y,z
_cell_length_a	19.121424
_cell_length_b	19.120786
_cell_length_c	19.120904
_cell_angle_alpha	90.133503
_cell_angle_beta	85.252687
_cell_angle_gamma	95.008527
loop_
_atom_site_label
_atom_site_type_symbol
_atom_site_fract_x
_atom_site_fract_y
_atom_site_fract_z
Zn1	Zn	1.048466	-0.249461	0.341888
Zn2	Zn	1.548466	0.250539	0.841888
Zn3	Zn	1.048812	-0.361690	0.219633
Zn4	Zn	1.548812	0.138310	0.719633
Zn5	Zn	0.935827	-0.249485	0.229241
Zn6	Zn	1.435827	0.250515	0.729241
Zn7	Zn	0.925753	-0.372120	0.341828
Zn8	Zn	1.425753	0.127880	0.841828
O9	O	0.989714	-0.308189	0.283148
O10	O	1.489714	0.191811	0.783148
O11	O	1.147152	-0.259973	0.321675
O12	O	1.647152	0.240027	0.821675
O13	O	1.038184	-0.342450	0.122626
O14	O	1.538184	0.157550	0.622626
O15	O	0.954840	-0.151190	0.248231
O16	O	1.454840	0.348810	0.748231
O17	O	1.147406	-0.342427	0.231855
O18	O	1.647406	0.157573	0.731855
O19	O	1.037595	-0.151173	0.330991
O20	O	1.537595	0.348827	0.830991
O21	O	0.955175	-0.260014	0.129685
O22	O	1.455175	0.239986	0.629685
O23	O	0.835850	-0.270127	0.248172
O24	O	1.335850	0.229873	0.748172
O25	O	0.937670	-0.360204	0.440118
O26	O	1.437670	0.139796	0.940118
O27	O	0.828449	-0.360227	0.330889
O28	O	1.328449	0.139773	0.830889
O29	O	1.027827	-0.270087	0.440162
O30	O	1.527827	0.229913	0.940162
O31	O	1.028416	-0.461365	0.231796
O32	O	1.528416	0.038635	0.731796
O33	O	0.938006	-0.469028	0.321572
O34	O	1.438006	0.030972	0.821572
C35	C	0.806573	-0.316312	0.290567
C36	C	1.306573	0.183688	0.790567
C37	C	0.728223	-0.319805	0.293757
C38	C	1.228223	0.180195	0.793757
C39	C	0.284897	-0.341896	0.314012
C40	C	0.784897	0.158104	0.814012
C41	C	0.358516	-0.338619	0.311002
C42	C	0.858516	0.161381	0.811002
C43	C	0.399155	-0.290001	0.266508
C44	C	0.899155	0.209999	0.766508
C45	C	0.366172	-0.244663	0.225016
C46	C	0.866172	0.255337	0.725016
C47	C	0.292555	-0.247944	0.228024
C48	C	0.792555	0.252056	0.728024
C49	C	0.621623	-0.277748	0.255273
C50	C	1.121623	0.222252	0.755273
C51	C	0.695245	-0.274468	0.252270
C52	C	1.195245	0.225532	0.752270
C53	C	0.687583	-0.368426	0.338255
C54	C	1.187583	0.131574	0.838255
C55	C	0.613965	-0.371700	0.341262
C56	C	1.113965	0.128300	0.841262
C57	C	0.580989	-0.326364	0.299768
C58	C	1.080989	0.173636	0.799768
C59	C	0.474405	-0.286649	0.263431
C60	C	0.974405	0.213351	0.763431
C61	C	0.505740	-0.329720	0.302841
C62	C	1.005740	0.170280	0.802841
C63	C	0.982174	-0.490682	0.275650
C64	C	1.482174	0.009318	0.775650
C65	C	0.979011	-0.568752	0.272463
C66	C	1.479011	-0.068752	0.772463
C67	C	1.020577	-0.605362	0.314093
C68	C	1.520577	-0.105362	0.814093
C69	C	1.017602	-0.678717	0.311100
C70	C	1.517602	-0.178717	0.811100
C71	C	0.973066	-0.715460	0.266473
C72	C	1.473066	-0.215460	0.766473
C73	C	0.931496	-0.678844	0.224841
C74	C	1.431496	-0.178844	0.724841
C75	C	0.934467	-0.605490	0.227838
C76	C	1.434467	-0.105490	0.727838
C77	C	0.961938	-0.936942	0.255269
C78	C	1.461938	-0.436942	0.755269
C79	C	0.958971	-1.010300	0.252273
C80	C	1.458971	-0.510300	0.752273
C81	C	1.045077	-1.010169	0.338533
C82	C	1.545077	-0.510169	0.838533
C83	C	1.048048	-0.936814	0.341523
C84	C	1.548048	-0.436814	0.841523
C85	C	1.006475	-0.900205	0.299895
C86	C	1.506475	-0.400205	0.799895
C87	C	0.970026	-0.790440	0.263411
C88	C	1.470026	-0.290440	0.763411
C89	C	1.009511	-0.825226	0.302961
C90	C	1.509511	-0.325226	0.802961
C91	C	1.173571	-0.300034	0.275700
C92	C	1.673571	0.199966	0.775700
C93	C	1.251919	-0.296559	0.272526
C94	C	1.751919	0.203441	0.772526
C95	C	0.981587	-0.316307	0.466336
C96	C	1.481587	0.183693	0.966336
C97	C	0.978123	-0.319766	0.544399
C98	C	1.478123	0.180234	1.044399
C99	C	0.997303	-0.124983	0.290689
C100	C	1.497303	0.375017	0.790689
C101	C	1.000537	-0.046911	0.293903
C102	C	1.500537	0.453089	0.793903
C103	C	0.997853	-0.300050	0.100673
C104	C	1.497853	0.199950	0.600673
C105	C	1.001461	-0.296387	0.022612
C106	C	1.501461	0.203613	0.522612
C107	C	1.023433	-0.274474	0.581098
C108	C	1.523433	0.225526	1.081098
C109	C	1.020170	-0.277722	0.654448
C110	C	1.520170	0.222278	1.154448
C111	C	0.971600	-0.326266	0.691097
C112	C	1.471600	0.173734	1.191097
C113	C	0.926285	-0.371560	0.654394
C114	C	1.426285	0.128440	1.154394
C115	C	0.929545	-0.368308	0.581045
C116	C	1.429545	0.131692	1.081045
C117	C	0.959406	-0.338429	0.912560
C118	C	1.459406	0.161571	1.412560
C119	C	0.956151	-0.341679	0.985913
C120	C	1.456151	0.158321	1.485913
C121	C	1.050036	-0.247840	0.985963
C122	C	1.550036	0.252160	1.485963
C123	C	1.053294	-0.244595	0.912613
C124	C	1.553294	0.255405	1.412613
C125	C	1.007977	-0.289886	0.875916
C126	C	1.507977	0.210114	1.375916
C127	C	0.968266	-0.329589	0.766072
C128	C	1.468266	0.170411	1.266072
C129	C	1.011309	-0.286560	0.800942
C130	C	1.511309	0.213440	1.300942
H131	H	0.472648	-0.369306	0.339066
H132	H	0.972648	0.130694	0.839066
Br133	Br	1.069946	-0.775362	0.363530
Br134	Br	1.569946	-0.275362	0.863530
H135	H	0.916597	-0.381211	1.015751
H136	H	1.416597	0.118789	1.515751
H137	H	0.895230	-0.708765	0.188508
H138	H	1.395230	-0.208765	0.688508
Br139	Br	0.897902	-0.399895	0.862766
Br140	Br	1.397902	0.100105	1.362766
H141	H	0.900619	-0.575683	0.193940
H142	H	1.400619	-0.075683	0.693940
Br143	Br	1.108493	-0.886955	0.402090
Br144	Br	1.608493	-0.386955	0.902090
H145	H	0.928723	-0.369116	0.795920
H146	H	1.428723	0.130884	1.295920
Br147	Br	0.732341	-0.429955	0.394559
Br148	Br	1.232341	0.070045	0.894559
H149	H	0.892642	-0.405182	0.551167
H150	H	1.392642	0.094818	1.051167
H151	H	0.886736	-0.411083	0.684239
H152	H	1.386736	0.088917	1.184239
Br153	Br	0.750399	-0.208484	0.191880
Br154	Br	1.250399	0.291516	0.691880
H155	H	0.594783	-0.240834	0.221483
H156	H	1.094783	0.259166	0.721483
Br157	Br	0.421325	-0.178685	0.164627
Br158	Br	0.921325	0.321315	0.664627
Br159	Br	0.529564	-0.220667	0.203050
Br160	Br	1.029564	0.279333	0.703050
Br161	Br	1.101492	-1.059857	0.395028
Br162	Br	1.601492	-0.559857	0.895028
Br163	Br	1.077214	-0.220672	0.751204
Br164	Br	1.577214	0.279328	1.251204
Br165	Br	1.119215	-0.178714	0.862879
Br166	Br	1.619215	0.321286	1.362879
H167	H	0.580881	-0.411291	0.377492
H168	H	1.080881	0.088709	0.877492
Br169	Br	0.898530	-1.060165	0.191699
Br170	Br	1.398530	-0.560165	0.691699
Br171	Br	0.247798	-0.186419	0.171712
Br172	Br	0.747798	0.313581	0.671712
H173	H	1.056846	-0.575451	0.350430
H174	H	1.556846	-0.075451	0.850430
H175	H	0.251813	-0.381482	0.350248
H176	H	0.751813	0.118518	0.850248
H177	H	1.057069	-0.240842	0.684325
H178	H	1.557069	0.259158	1.184325
Br179	Br	0.909578	-0.840311	0.202854
Br180	Br	1.409578	-0.340311	0.702854
H181	H	1.051455	-0.708522	0.344994
H182	H	1.551455	-0.208522	0.844994
H183	H	0.928089	-0.907141	0.221372
H184	H	1.428089	-0.407141	0.721372
Br185	Br	1.111533	-0.186376	1.035769
Br186	Br	1.611533	0.313624	1.535769
Br187	Br	0.403269	-0.400153	0.367304
Br188	Br	0.903269	0.099847	0.867304
Br189	Br	1.089358	-0.208595	0.531366
Br190	Br	1.589358	0.291405	1.031366
