data_functionalizedCrystal
_audit_creation_method	'MofGen! by Chris Wilmer'
_symmetry_space_group_name_H-M	'P1'
_symmetry_Int_Tables_number	1
_symmetry_cell_setting	triclinic
loop_
_symmetry_equiv_pos_as_xyz
  x,y,z
_cell_length_a	13.897449
_cell_length_b	12.645330
_cell_length_c	13.897441
_cell_angle_alpha	90.027301
_cell_angle_beta	90.020733
_cell_angle_gamma	90.018972
loop_
_atom_site_label
_atom_site_type_symbol
_atom_site_fract_x
_atom_site_fract_y
_atom_site_fract_z
Zn1	Zn	1.474703	-0.421969	0.545403
Zn2	Zn	1.974703	0.078031	1.045403
Zn3	Zn	1.474597	-0.599265	0.384114
Zn4	Zn	1.974597	-0.099265	0.884114
Zn5	Zn	1.313392	-0.422020	0.384122
Zn6	Zn	1.813392	0.077980	0.884122
Zn7	Zn	1.313373	-0.599195	0.545367
Zn8	Zn	1.813373	-0.099195	1.045367
O9	O	1.394016	-0.510612	0.464751
O10	O	1.894016	-0.010612	0.964751
O11	O	1.609670	-0.445496	0.524020
O12	O	2.109670	0.054504	1.024020
O13	O	1.453176	-0.575803	0.249133
O14	O	1.953176	-0.075803	0.749133
O15	O	1.334842	-0.273666	0.405535
O16	O	1.834842	0.226334	0.905535
O17	O	1.609592	-0.575754	0.405521
O18	O	2.109592	-0.075754	0.905521
O19	O	1.453356	-0.273629	0.524028
O20	O	1.953356	0.226371	1.024028
O21	O	1.334739	-0.445582	0.249139
O22	O	1.834739	0.054418	0.749139
O23	O	1.178408	-0.445514	0.405499
O24	O	1.678408	0.054486	0.905499
O25	O	1.334811	-0.575636	0.680353
O26	O	1.834811	-0.075636	1.180353
O27	O	1.178394	-0.575684	0.523965
O28	O	1.678394	-0.075684	1.023965
O29	O	1.453339	-0.445428	0.680380
O30	O	1.953339	0.054572	1.180380
O31	O	1.453158	-0.747603	0.405486
O32	O	1.953158	-0.247603	0.905486
O33	O	1.334708	-0.747552	0.523957
O34	O	1.834708	-0.247552	1.023957
C35	C	1.143402	-0.510598	0.464729
C36	C	1.643402	-0.010598	0.964729
C37	C	1.036188	-0.510618	0.464743
C38	C	1.536188	-0.010618	0.964743
C39	C	0.839893	-0.510621	0.464768
C40	C	1.339893	-0.010621	0.964768
C41	C	0.949125	-0.510616	0.464751
C42	C	1.449125	-0.010616	0.964751
C43	C	1.393946	-0.786042	0.464738
C44	C	1.893946	-0.286042	0.964738
C45	C	1.394004	-0.903872	0.464764
C46	C	1.894004	-0.403872	0.964764
C47	C	1.319794	-1.071448	0.539525
C48	C	1.819794	-0.571448	1.039525
C49	C	1.319415	-0.948889	0.539284
C50	C	1.819415	-0.448889	1.039284
C51	C	1.366485	-0.948472	0.363109
C52	C	1.866485	-0.448472	0.863109
C53	C	1.366032	-1.071070	0.363563
C54	C	1.866032	-0.571070	0.863563
C55	C	1.496187	-1.070958	0.490835
C56	C	1.996187	-0.570958	0.990835
C57	C	1.495561	-0.948351	0.493058
C58	C	1.995561	-0.448351	0.993058
C59	C	1.645609	-0.510627	0.464774
C60	C	2.145609	-0.010627	0.964774
C61	C	1.752823	-0.510634	0.464784
C62	C	2.252823	-0.010634	0.964784
C63	C	1.394085	-0.510519	0.716344
C64	C	1.894085	-0.010519	1.216344
C65	C	1.394114	-0.510479	0.823558
C66	C	1.894114	-0.010479	1.323558
C67	C	1.394113	-0.234107	0.464786
C68	C	1.894113	0.265893	0.964786
C69	C	1.394154	-0.116277	0.464801
C70	C	1.894154	0.383723	0.964801
C71	C	1.394003	-0.510629	0.214137
C72	C	1.894003	-0.010629	0.714137
C73	C	1.394161	-0.510370	0.106924
C74	C	1.894161	-0.010370	0.606924
C75	C	1.394140	-0.510407	1.019854
C76	C	1.894140	-0.010407	1.519854
C77	C	1.394122	-0.510450	0.910621
C78	C	1.894122	-0.010450	1.410621
H79	H	1.336854	-1.100856	0.615149
H80	H	1.836854	-0.600856	1.115149
C81	C	1.478071	-1.024668	0.239057
C82	C	1.978071	-0.524668	0.739057
C83	C	1.435957	-1.111117	0.285831
C84	C	1.935957	-0.611117	0.785831
H85	H	1.521229	-1.049390	0.191062
H86	H	2.021229	-0.549390	0.691062
H87	H	1.512269	-0.982986	0.284517
H88	H	2.012269	-0.482986	0.784517
H89	H	1.429271	-0.983008	0.209854
H90	H	1.929271	-0.483008	0.709854
H91	H	1.484756	-1.152773	0.315040
H92	H	1.984756	-0.652773	0.815040
H93	H	1.401757	-1.152816	0.240363
H94	H	1.901757	-0.652816	0.740363
C95	C	1.574357	-1.220750	0.419011
C96	C	2.074357	-0.720750	0.919011
C97	C	1.570986	-1.110097	0.417379
C98	C	2.070986	-0.610097	0.917379
H99	H	1.620535	-1.244916	0.373666
H100	H	2.120535	-0.744916	0.873666
H101	H	1.512861	-1.248379	0.402903
H102	H	2.012861	-0.748379	0.902903
H103	H	1.591978	-1.243998	0.481570
H104	H	2.091978	-0.743998	0.981570
H105	H	1.553358	-1.086850	0.354822
H106	H	2.053358	-0.586850	0.854822
H107	H	1.632495	-1.082459	0.433481
H108	H	2.132495	-0.582459	0.933481
C109	C	1.642837	-0.850434	0.477982
C110	C	2.142837	-0.350434	0.977982
C111	C	1.574298	-0.906987	0.424938
C112	C	2.074298	-0.406987	0.924938
H113	H	1.691440	-0.824896	0.435919
H114	H	2.191440	-0.324896	0.935919
H115	H	1.670956	-0.895584	0.524790
H116	H	2.170956	-0.395584	1.024790
H117	H	1.612595	-0.792456	0.509200
H118	H	2.112595	-0.292456	1.009200
H119	H	1.604538	-0.964970	0.393726
H120	H	2.104538	-0.464970	0.893726
H121	H	1.546177	-0.861834	0.378113
H122	H	2.046177	-0.361834	0.878113
H123	H	1.516314	-0.919196	0.567871
H124	H	2.016314	-0.419196	1.067871
C125	C	1.357019	-0.994209	0.702775
C126	C	1.857019	-0.494209	1.202775
C127	C	1.342635	-0.908168	0.641044
C128	C	1.842635	-0.408168	1.141044
H129	H	1.371342	-0.969072	0.765602
H130	H	1.871342	-0.469072	1.265602
H131	H	1.409130	-1.035752	0.679855
H132	H	1.909130	-0.535752	1.179855
H133	H	1.300331	-1.036148	0.704744
H134	H	1.800331	-0.536148	1.204744
H135	H	1.399326	-0.866234	0.639069
H136	H	1.899326	-0.366234	1.139069
H137	H	1.290520	-0.866608	0.663969
H138	H	1.790520	-0.366608	1.163969
H139	H	1.418928	-0.919315	0.305912
H140	H	1.918928	-0.419315	0.805912
H141	H	1.244625	-1.102351	0.522497
H142	H	1.744625	-0.602351	1.022497
H143	H	1.291445	-1.099764	0.341508
H144	H	1.791445	-0.599764	0.841508
C145	C	1.156236	-0.996206	0.502183
C146	C	1.656236	-0.496206	1.002183
C147	C	1.217306	-0.909416	0.515984
C148	C	1.717306	-0.409416	1.015984
H149	H	1.093198	-0.971835	0.487788
H150	H	1.593198	-0.471835	0.987788
H151	H	1.154664	-1.037707	0.559109
H152	H	1.654664	-0.537707	1.059109
H153	H	1.179422	-1.037927	0.450279
H154	H	1.679422	-0.537927	0.950279
H155	H	1.194123	-0.867699	0.567893
H156	H	1.694123	-0.367699	1.067893
H157	H	1.218874	-0.867897	0.459052
H158	H	1.718874	-0.367897	0.959052
C159	C	1.204517	-0.992752	0.318359
C160	C	1.704517	-0.492752	0.818359
C161	C	1.266841	-0.907170	0.332792
C162	C	1.766841	-0.407170	0.832792
H163	H	1.143002	-0.967254	0.299641
H164	H	1.643002	-0.467254	0.799641
H165	H	1.198755	-1.031863	0.376404
H166	H	1.698755	-0.531863	0.876404
H167	H	1.229522	-1.037171	0.269228
H168	H	1.729522	-0.537171	0.769228
H169	H	1.241839	-0.862755	0.381929
H170	H	1.741839	-0.362755	0.881929
H171	H	1.272599	-0.868042	0.274739
H172	H	1.772599	-0.368042	0.774739
H173	H	1.521290	-1.101797	0.563702
H174	H	2.021290	-0.601797	1.063702
