data_functionalizedCrystal
_audit_creation_method	'MofGen! by Chris Wilmer'
_symmetry_space_group_name_H-M	'P1'
_symmetry_Int_Tables_number	1
_symmetry_cell_setting	triclinic
loop_
_symmetry_equiv_pos_as_xyz
  x,y,z
_cell_length_a	17.077404
_cell_length_b	12.594516
_cell_length_c	17.077396
_cell_angle_alpha	90.023145
_cell_angle_beta	90.019501
_cell_angle_gamma	90.016278
loop_
_atom_site_label
_atom_site_type_symbol
_atom_site_fract_x
_atom_site_fract_y
_atom_site_fract_z
Zn1	Zn	1.200092	-0.423736	0.443872
Zn2	Zn	1.200015	-0.601736	0.312618
Zn3	Zn	1.068824	-0.423773	0.312620
Zn4	Zn	1.068807	-0.601673	0.443842
O5	O	1.134434	-0.512730	0.378238
O6	O	1.309929	-0.447359	0.426473
O7	O	1.182586	-0.578171	0.202771
O8	O	1.086276	-0.274822	0.330044
O9	O	1.309872	-0.578135	0.330041
O10	O	1.182718	-0.274795	0.426474
O11	O	1.086201	-0.447422	0.202773
O12	O	0.958975	-0.447361	0.330015
O13	O	1.086248	-0.578027	0.553693
O14	O	0.958963	-0.578064	0.426423
O15	O	1.182702	-0.447297	0.553715
O16	O	1.182571	-0.750674	0.330012
O17	O	1.086173	-0.750627	0.426421
C18	C	0.930487	-0.512710	0.378216
C19	C	0.843237	-0.512728	0.378226
C20	C	1.134383	-0.789271	0.378230
C21	C	1.134433	-0.907576	0.378253
C22	C	0.802261	-0.580887	0.428345
C23	C	0.720280	-0.580890	0.428357
C24	C	0.679277	-0.512737	0.378246
C25	C	0.720259	-0.444570	0.328125
C26	C	0.802238	-0.444563	0.328117
C27	C	0.549389	-0.444591	0.328144
C28	C	0.467404	-0.444599	0.328150
C29	C	0.467431	-0.580917	0.428384
C30	C	0.549410	-0.580910	0.428376
C31	C	0.590386	-0.512745	0.378253
C32	C	1.081997	-0.976843	0.430653
C33	C	1.062873	-1.047703	0.359026
C34	C	1.153628	-1.047515	0.449893
C35	C	1.115271	-0.976878	0.306587
C36	C	1.206059	-0.976684	0.397503
C37	C	1.186963	-1.047512	0.325826
C38	C	1.339179	-0.512750	0.378260
C39	C	1.426428	-0.512758	0.378269
C40	C	1.134482	-0.512651	0.582982
C41	C	1.134502	-0.512618	0.670232
C42	C	1.134507	-0.235109	0.378263
C43	C	1.134539	-0.116803	0.378273
C44	C	1.134432	-0.512731	0.174290
C45	C	1.134564	-0.512465	0.087041
C46	C	1.184728	-0.444541	0.711235
C47	C	1.184737	-0.444506	0.793216
C48	C	1.134524	-0.512553	0.834192
C49	C	1.084293	-0.580633	0.793183
C50	C	1.084281	-0.580662	0.711204
C51	C	1.084325	-0.580569	0.964053
C52	C	1.084339	-0.580541	1.046038
C53	C	1.184782	-0.444412	1.046065
C54	C	1.184769	-0.444442	0.964086
C55	C	1.134538	-0.512523	0.923083
H56	H	0.835640	-0.636389	0.469149
H57	H	0.835599	-0.389055	0.287309
H58	H	1.266570	-0.945468	0.413803
O59	O	1.238893	-0.371153	0.667042
H60	H	1.203771	-0.317015	0.629685
H61	H	1.231351	-1.078346	0.281470
O62	O	0.982699	-1.089020	0.337458
H63	H	0.983625	-1.177139	0.337110
O64	O	0.423237	-0.654597	0.482328
H65	H	0.465522	-0.702055	0.517120
O66	O	1.238953	-0.370976	1.090290
H67	H	1.300554	-0.389254	1.074574
H68	H	1.169821	-1.078543	0.510470
H69	H	1.099008	-0.945978	0.245994
O70	O	1.238932	-0.371058	0.919886
H71	H	1.225494	-0.287511	0.935617
O72	O	1.238911	-0.371083	0.837442
H73	H	1.300510	-0.389365	0.821723
O74	O	0.676166	-0.654505	0.482408
H75	H	0.638832	-0.607052	0.522472
O76	O	0.423174	-0.371083	0.274112
H77	H	0.465438	-0.323668	0.239267
O78	O	0.593589	-0.371081	0.274077
H79	H	0.551306	-0.323702	0.239224
H80	H	0.582793	-0.636412	0.469177
O81	O	1.030175	-0.653922	1.090239
H82	H	0.995235	-0.701256	1.047956
H83	H	1.037575	-0.945811	0.474902
O84	O	0.676027	-0.371089	0.274062
H85	H	0.638685	-0.317007	0.309254
H86	H	1.043410	-0.635991	0.930671
H87	H	1.043406	-0.636034	0.826552
H88	H	1.043374	-0.636087	0.677820
