data_functionalizedCrystal
_audit_creation_method	'MofGen! by Chris Wilmer'
_symmetry_space_group_name_H-M	'P1'
_symmetry_Int_Tables_number	1
_symmetry_cell_setting	triclinic
loop_
_symmetry_equiv_pos_as_xyz
  x,y,z
_cell_length_a	13.596369
_cell_length_b	9.065218
_cell_length_c	14.519709
_cell_angle_alpha	95.651985
_cell_angle_beta	89.999792
_cell_angle_gamma	89.994623
loop_
_atom_site_label
_atom_site_type_symbol
_atom_site_fract_x
_atom_site_fract_y
_atom_site_fract_z
O1	O	0.081778	-1.957869	0.135228
O2	O	0.415112	-1.624535	0.468562
O3	O	0.748445	-1.291202	0.801895
O4	O	0.081779	-1.528376	0.146320
O5	O	0.415112	-1.195043	0.479653
O6	O	0.748445	-0.861709	0.812987
O7	O	0.081787	-1.754510	0.006619
O8	O	0.415121	-1.421177	0.339952
O9	O	0.748454	-1.087843	0.673286
O10	O	0.081770	-1.731735	0.274929
O11	O	0.415103	-1.398402	0.608263
O12	O	0.748436	-1.065068	0.941596
O13	O	-0.081795	-1.754487	0.006611
O14	O	0.251538	-1.421154	0.339945
O15	O	0.584871	-1.087821	0.673278
O16	O	-0.081804	-1.528354	0.146312
O17	O	0.251529	-1.195020	0.479646
O18	O	0.584862	-0.861687	0.812979
O19	O	-0.081804	-1.957846	0.135221
O20	O	0.251529	-1.624513	0.468554
O21	O	0.584862	-1.291180	0.801887
Zn22	Zn	-0.107777	-1.743096	0.140765
Zn23	Zn	0.225557	-1.409763	0.474099
Zn24	Zn	0.558890	-1.076430	0.807432
Zn25	Zn	0.107751	-1.743126	0.140775
Zn26	Zn	0.441084	-1.409793	0.474109
Zn27	Zn	0.774418	-1.076459	0.807442
O28	O	-0.081813	-1.731713	0.274922
O29	O	0.251520	-1.398379	0.608255
O30	O	0.584853	-1.065046	0.941588
C31	C	-0.000013	-1.473398	0.145250
C32	C	0.333321	-1.140065	0.478584
C33	C	0.666654	-0.806732	0.811917
C34	C	-0.000012	-1.309615	0.142063
C35	C	0.333321	-0.976282	0.475396
C36	C	0.666655	-0.642948	0.808729
N37	N	-0.254869	-1.743087	0.140758
N38	N	0.078465	-1.409753	0.474091
N39	N	0.411798	-1.076420	0.807425
C40	C	0.000000	-1.753437	-0.027752
C41	C	0.333334	-1.420104	0.305581
C42	C	0.666667	-1.086770	0.638914
C43	C	0.000014	-1.750257	-0.130157
C44	C	0.333347	-1.416923	0.203176
C45	C	0.666680	-1.083590	0.536510
C46	C	-0.656159	-1.743124	0.140776
C47	C	-0.322826	-1.409791	0.474110
C48	C	0.010507	-1.076457	0.807443
C49	C	-0.544508	-1.743109	0.140774
C50	C	-0.211175	-1.409776	0.474108
C51	C	0.122159	-1.076443	0.807441
C52	C	-0.455518	-1.743106	0.140768
C53	C	-0.122184	-1.409773	0.474101
C54	C	0.211149	-1.076439	0.807434
C55	C	-0.343859	-1.743090	0.140764
C56	C	-0.010526	-1.409757	0.474098
C57	C	0.322808	-1.076423	0.807431
N58	N	0.254843	-1.743147	0.140775
N59	N	0.588176	-1.409814	0.474109
N60	N	0.921509	-1.076481	0.807442
C61	C	-0.000011	-2.012824	0.136290
C62	C	0.333322	-1.679491	0.469624
C63	C	0.666656	-1.346157	0.802957
C64	C	-0.000005	-2.176607	0.139478
C65	C	0.333328	-1.843274	0.472811
C66	C	0.666661	-1.509941	0.806144
C67	C	-0.000024	-1.732785	0.309293
C68	C	0.333309	-1.399452	0.642626
C69	C	0.666643	-1.066119	0.975960
C70	C	-0.000031	-1.735966	0.411697
C71	C	0.333303	-1.402632	0.745031
C72	C	0.666636	-1.069299	1.078364
C73	C	0.000008	-1.747675	0.786679
C74	C	0.333342	-1.414342	1.120012
C75	C	0.666675	-1.081008	1.453346
C76	C	-0.000003	-1.744423	0.682347
C77	C	0.333330	-1.411090	1.015681
C78	C	0.666664	-1.077757	1.349014
C79	C	-0.000012	-1.741821	0.599192
C80	C	0.333321	-1.408487	0.932525
C81	C	0.666655	-1.075154	1.265858
C82	C	-0.000021	-1.738568	0.494853
C83	C	0.333312	-1.405235	0.828186
C84	C	0.666645	-1.071902	1.161520
