data_functionalizedCrystal
_audit_creation_method	'MofGen! by Chris Wilmer'
_symmetry_space_group_name_H-M	'P1'
_symmetry_Int_Tables_number	1
_symmetry_cell_setting	triclinic
loop_
_symmetry_equiv_pos_as_xyz
  x,y,z
_cell_length_a	14.853569
_cell_length_b	10.654550
_cell_length_c	9.730223
_cell_angle_alpha	89.999807
_cell_angle_beta	89.998235
_cell_angle_gamma	95.939766
loop_
_atom_site_label
_atom_site_type_symbol
_atom_site_fract_x
_atom_site_fract_y
_atom_site_fract_z
O1	O	1.197237	-0.163965	0.114223
O2	O	0.934882	-0.183494	0.114240
O3	O	1.072091	0.009072	0.114226
O4	O	1.060027	-0.356531	0.114237
O5	O	1.072090	0.009067	-0.114354
O6	O	0.934880	-0.183499	-0.114340
O7	O	1.197235	-0.163970	-0.114357
Zn8	Zn	1.066057	-0.173735	-0.150640
Zn9	Zn	1.066059	-0.173729	0.150523
O10	O	1.060025	-0.356536	-0.114343
C11	C	0.901288	-0.182612	-0.000048
C12	C	0.801190	-0.179959	-0.000042
C13	C	0.764194	-0.064325	-0.000041
C14	C	0.744129	-0.293100	-0.000049
C15	C	0.650082	-0.290612	-0.000051
C16	C	0.613086	-0.174978	-0.000050
C17	C	0.670138	-0.061833	-0.000047
C18	C	0.593023	-0.403754	-0.000068
C19	C	0.498969	-0.401270	-0.000071
C20	C	0.461972	-0.285635	-0.000060
C21	C	0.519030	-0.172486	-0.000055
C22	C	0.482035	-0.056853	-0.000054
C23	C	0.539091	0.056298	-0.000040
C24	C	0.633141	0.053802	-0.000035
C25	C	0.367923	-0.283139	-0.000064
C26	C	0.387979	-0.054360	-0.000060
C27	C	1.071205	0.055859	-0.000062
C28	C	1.068554	0.195274	-0.000057
C29	C	1.230829	-0.164852	-0.000066
C30	C	1.330927	-0.167505	-0.000063
C31	C	1.060912	-0.403323	-0.000052
C32	C	1.063562	-0.542738	-0.000048
C33	C	1.149341	0.275599	-0.000066
C34	C	1.146845	0.406594	-0.000057
C35	C	0.982769	0.376927	-0.000034
C36	C	0.985266	0.245935	-0.000034
C37	C	1.244069	0.292728	-0.000085
C38	C	1.241574	0.423723	-0.000075
N39	N	1.066062	-0.173739	-0.356177
C40	C	1.126835	-0.088499	-0.428109
C41	C	1.126832	-0.088484	-0.571992
C42	C	1.005283	-0.258959	-0.571998
C43	C	1.005281	-0.258967	-0.428118
C44	C	1.197013	0.009920	-0.428107
C45	C	1.197011	0.009935	-0.571989
N46	N	1.066061	-0.173715	0.356060
H47	H	0.321472	-0.375264	-0.000088
N48	N	0.898133	0.159296	0.000000
H49	H	0.844994	0.211270	0.000013
H50	H	0.895585	0.104297	-0.084735
N51	N	1.279517	0.484587	0.130635
H52	H	1.243016	0.448728	0.211759
H53	H	1.344658	0.467076	0.141713
N54	N	1.293154	0.254337	0.126601
H55	H	1.251243	0.194056	0.183155
H56	H	1.347852	0.211601	0.098260
N57	N	0.348079	0.070361	-0.000048
H58	H	0.398496	0.141655	-0.000037
H59	H	0.309501	0.076385	-0.084790
N60	N	0.892940	0.431568	-0.000008
H61	H	0.903616	0.526740	-0.000006
H62	H	0.857550	0.402197	-0.084742
N63	N	0.784027	-0.417813	-0.000061
H64	H	0.852265	-0.402223	-0.000060
H65	H	0.763206	-0.467329	0.084677
N66	N	1.283938	0.245916	-0.130873
H67	H	1.301380	0.319649	-0.194057
H68	H	1.339389	0.202502	-0.108166
N69	N	1.288831	0.479565	-0.126783
H70	H	1.353871	0.459752	-0.126865
H71	H	1.257166	0.442266	-0.211503
N72	N	0.694675	0.175836	-0.000036
H73	H	0.734146	0.179900	0.084695
H74	H	0.734083	0.179823	-0.084831
N75	N	0.825732	0.057706	-0.000034
H76	H	0.813753	0.108149	-0.084769
H77	H	0.813714	0.108046	0.084756
H78	H	0.955788	-0.328365	-0.369552
H79	H	0.623152	-0.497897	-0.000078
N80	N	0.939726	-0.350877	-0.649591
H81	H	0.948945	-0.337936	-0.751655
H82	H	0.950690	-0.440000	-0.624454
N83	N	0.437461	-0.523327	-0.000149
H84	H	0.449437	-0.573804	0.084562
H85	H	0.372283	-0.504142	-0.000223
H86	H	1.266290	-0.010864	-0.611044
N87	N	1.176628	0.137570	-0.376360
H88	H	1.167525	0.194539	-0.457048
H89	H	1.119820	0.127492	-0.318654
N90	N	0.499175	0.181007	-0.000039
H91	H	0.519913	0.230583	0.084701
H92	H	0.519941	0.230490	-0.084825
N93	N	1.283711	-0.029695	-0.368981
H94	H	1.325603	-0.048828	-0.446240
H95	H	1.313931	0.040842	-0.310525
H96	H	1.175107	0.100931	-0.616606
