data_functionalizedCrystal
_audit_creation_method	'MofGen! by Chris Wilmer'
_symmetry_space_group_name_H-M	'P1'
_symmetry_Int_Tables_number	1
_symmetry_cell_setting	triclinic
loop_
_symmetry_equiv_pos_as_xyz
  x,y,z
_cell_length_a	6.817900
_cell_length_b	11.168121
_cell_length_c	11.102291
_cell_angle_alpha	91.986113
_cell_angle_beta	108.605752
_cell_angle_gamma	108.508496
loop_
_atom_site_label
_atom_site_type_symbol
_atom_site_fract_x
_atom_site_fract_y
_atom_site_fract_z
V1	V	-4.111033	-0.174720	-0.396269
O2	O	-4.070595	0.008380	-0.388715
O3	O	-4.087313	-0.346426	-0.393570
O4	O	-4.087825	-0.172040	-0.569092
O5	O	-4.070079	-0.167213	-0.211978
V6	V	-4.588198	-0.152819	-0.374226
O7	O	-4.386237	-0.222764	-0.444625
O8	O	-4.763192	-0.104775	-0.325870
O9	O	-4.388712	0.018886	-0.376925
O10	O	-4.746033	-0.335919	-0.381780
O11	O	-4.746549	-0.160326	-0.558517
O12	O	-4.388199	-0.155499	-0.201403
C13	C	-3.937502	-0.388283	-0.387321
C14	C	-3.999563	-0.528655	-0.386266
C15	C	-4.202088	-0.597347	-0.391823
C16	C	-4.266235	-0.742429	-0.390732
C17	C	-3.938155	-0.165836	-0.611215
C18	C	-4.000627	-0.164780	-0.752498
C19	C	-4.213965	-0.170582	-0.825346
C20	C	-4.272639	-0.169566	-0.958092
C21	C	-3.904619	-0.156951	-0.945130
C22	C	-3.845943	-0.157958	-0.812385
C23	C	-4.368648	-0.177405	-0.765459
C24	C	-4.582002	-0.183208	-0.838308
C25	C	-4.640676	-0.182192	-0.971054
C26	C	-4.485997	-0.175372	-1.030951
C27	C	-4.201865	0.060738	-0.383170
C28	C	-4.119044	0.201108	-0.384234
C29	C	-4.201212	-0.161708	-0.159273
C30	C	-4.117977	-0.162757	-0.017989
H31	H	-3.945542	-0.739849	-0.379472
Br32	Br	-4.289036	-0.178797	-0.585306
H33	H	-3.873667	-0.577253	-0.380708
Br34	Br	-4.930212	-0.190053	-1.069916
H35	H	-4.439723	-0.801477	-0.395475
H36	H	-4.327991	-0.548751	-0.397395
Br37	Br	-4.565615	-0.173961	-1.211103
H38	H	-3.778693	-0.151399	-0.993910
Br39	Br	-3.556392	-0.150058	-0.713507
H40	H	-4.707927	-0.188753	-0.789530
