data_functionalizedCrystal
_audit_creation_method	'MofGen! by Chris Wilmer'
_symmetry_space_group_name_H-M	'P1'
_symmetry_Int_Tables_number	1
_symmetry_cell_setting	triclinic
loop_
_symmetry_equiv_pos_as_xyz
  x,y,z
_cell_length_a	12.759395
_cell_length_b	12.759394
_cell_length_c	12.759387
_cell_angle_alpha	89.968340
_cell_angle_beta	90.020509
_cell_angle_gamma	89.983626
loop_
_atom_site_label
_atom_site_type_symbol
_atom_site_fract_x
_atom_site_fract_y
_atom_site_fract_z
Zn1	Zn	1.606268	0.418168	0.593999
Zn2	Zn	1.606158	0.593885	0.418317
Zn3	Zn	1.430566	0.418225	0.418336
Zn4	Zn	1.430558	0.593810	0.593956
O5	O	1.518387	0.506022	0.506152
O6	O	1.753274	0.441485	0.570704
O7	O	1.582823	0.570639	0.271298
O8	O	1.453922	0.271197	0.441664
O9	O	1.753194	0.570583	0.441631
O10	O	1.583010	0.271155	0.570723
O11	O	1.453816	0.441582	0.271312
O12	O	1.283544	0.441510	0.441622
O13	O	1.453909	0.570456	0.740983
O14	O	1.283538	0.570511	0.570649
O15	O	1.583002	0.441412	0.741014
O16	O	1.582815	0.740896	0.441590
O17	O	1.453802	0.740841	0.570631
C18	C	1.245420	0.506009	0.506134
C19	C	1.128643	0.506029	0.506151
C20	C	1.518324	0.778990	0.506126
C21	C	1.518393	0.895766	0.506151
C22	C	1.128676	0.640576	0.640290
C23	C	1.073831	0.707857	0.707362
C24	C	0.964109	0.707870	0.707375
C25	C	0.909230	0.640592	0.640310
C26	C	0.964074	0.573310	0.573238
C27	C	1.073799	0.573307	0.573230
C28	C	0.964042	0.438760	0.439106
C29	C	1.073764	0.438751	0.439086
C30	C	0.909162	0.371482	0.372042
C31	C	0.964007	0.304204	0.304962
C32	C	1.073735	0.304195	0.304951
C33	C	1.128608	0.371469	0.372014
C34	C	1.518467	0.505919	0.780185
C35	C	1.518500	0.505875	0.896962
C36	C	1.792421	0.506036	0.506170
C37	C	1.909197	0.506042	0.506178
C38	C	1.518479	0.231989	0.506200
C39	C	1.518518	0.115212	0.506221
C40	C	1.652835	0.895770	0.371881
C41	C	1.720083	0.950633	0.304758
C42	C	1.720145	1.060354	0.304786
C43	C	1.652953	1.115216	0.371947
C44	C	1.585705	1.060353	0.439070
C45	C	1.585648	0.950629	0.439032
C46	C	1.451270	1.060349	0.573343
C47	C	1.451202	0.950628	0.573311
C48	C	1.384079	1.115211	0.640504
C49	C	1.316823	1.060348	0.707623
C50	C	1.316764	0.950620	0.707591
C51	C	1.383954	0.895765	0.640434
C52	C	1.518369	0.506049	0.233184
C53	C	1.518538	0.505797	0.116408
C54	C	1.652934	0.371511	0.897015
C55	C	1.720166	0.304313	0.951902
C56	C	1.720192	0.304275	1.061624
C57	C	1.652976	0.371439	1.116461
C58	C	1.585744	0.438637	1.061574
C59	C	1.585728	0.438671	0.951849
C60	C	1.451307	0.572995	1.061521
C61	C	1.451285	0.573040	0.951799
C62	C	1.384091	0.640159	1.116358
C63	C	1.316863	0.707364	1.061471
C64	C	1.316841	0.707400	0.951742
C65	C	1.384053	0.640238	0.896912
H66	H	1.218017	0.640580	0.640278
C67	C	1.793995	0.890285	0.230886
C68	C	1.793935	0.769595	0.230847
C69	C	1.867850	0.709252	0.156979
C70	C	1.941825	0.769599	0.083152
C71	C	1.941887	0.890295	0.083189
C72	C	1.867972	0.950639	0.157056
H73	H	1.739171	0.724917	0.285501
H74	H	1.867803	0.619904	0.156953
H75	H	1.996541	0.724929	0.028471
H76	H	1.996650	0.934974	0.028535
H77	H	1.868019	1.039987	0.157083
H78	H	1.262082	0.762110	0.907060
H79	H	1.774931	0.249550	1.106313
H80	H	0.819821	0.371492	0.372061
C81	C	1.242933	0.781237	1.121790
C82	C	1.242952	0.781189	1.242480
C83	C	1.169021	0.855065	1.302804
C84	C	1.095071	0.928988	1.242438
C85	C	1.095049	0.929039	1.121741
C86	C	1.168980	0.855163	1.061417
H87	H	1.297696	0.726464	1.287173
H88	H	1.169037	0.855027	1.392153
H89	H	1.040343	0.983675	1.287094
H90	H	1.040304	0.983764	1.077049
H91	H	1.168963	0.855201	0.972069
C92	C	0.903774	0.781879	0.781152
C93	C	0.964128	0.855881	0.854922
C94	C	0.903792	0.929890	0.928698
C95	C	0.783102	0.929897	0.928705
C96	C	0.722741	0.855893	0.854933
C97	C	0.783077	0.781884	0.781157
H98	H	1.053476	0.855877	0.854919
H99	H	0.948475	0.984672	0.983309
H100	H	0.738437	0.984683	0.983319
H101	H	0.633393	0.855897	0.854936
H102	H	0.738393	0.727102	0.726546
C103	C	1.794106	0.230439	0.891581
C104	C	1.794092	0.230479	0.770891
C105	C	1.868031	0.156606	0.710575
C106	C	1.941984	0.082692	0.770948
C107	C	1.942001	0.082649	0.891645
C108	C	1.868062	0.156523	0.951962
H109	H	1.739344	0.285197	0.726193
H110	H	1.868018	0.156638	0.621226
H111	H	1.996718	0.028006	0.726299
H112	H	1.996748	0.027931	0.936344
H113	H	1.868075	0.156491	1.041310
H114	H	1.774909	1.105023	0.250135
H115	H	0.819889	0.640599	0.640336
H116	H	1.118526	0.762632	0.761966
H117	H	1.118383	0.249398	0.250340
C118	C	1.242923	1.120694	0.781496
C119	C	1.242999	1.241384	0.781538
C120	C	1.169097	1.301735	0.855412
C121	C	1.095120	1.241396	0.929244
C122	C	1.095042	1.120700	0.929205
C123	C	1.168943	1.060349	0.855331
H124	H	1.297763	1.286057	0.726881
H125	H	1.169155	1.391083	0.855441
H126	H	1.040413	1.286072	0.983930
H127	H	1.040277	1.076027	0.983862
H128	H	1.168885	0.971001	0.855302
H129	H	1.384046	0.640265	0.807571
H130	H	0.919315	0.249426	0.250369
H131	H	1.652778	0.806429	0.371837
H132	H	1.217949	0.371471	0.372008
H133	H	1.653018	1.204557	0.371973
H134	H	1.384138	1.204552	0.640527
H135	H	1.652994	0.371393	1.205802
H136	H	1.383905	0.806424	0.640394
H137	H	1.262006	0.905956	0.762254
H138	H	1.652930	0.371545	0.807674
H139	H	1.384113	0.640119	1.205699
