data_functionalizedCrystal
_audit_creation_method	'MofGen! by Chris Wilmer'
_symmetry_space_group_name_H-M	'P1'
_symmetry_Int_Tables_number	1
_symmetry_cell_setting	triclinic
loop_
_symmetry_equiv_pos_as_xyz
  x,y,z
_cell_length_a	17.699104
_cell_length_b	17.699083
_cell_length_c	9.130313
_cell_angle_alpha	89.997869
_cell_angle_beta	89.998885
_cell_angle_gamma	83.287266
loop_
_atom_site_label
_atom_site_type_symbol
_atom_site_fract_x
_atom_site_fract_y
_atom_site_fract_z
O1	O	1.004062	0.095783	-0.121832
O2	O	0.783685	0.108219	-0.121829
O3	O	0.900100	-0.008188	-0.121817
O4	O	0.887647	0.212190	-0.121843
O5	O	0.900098	-0.008185	0.121781
O6	O	0.783684	0.108222	0.121770
O7	O	1.004060	0.095786	0.121767
Cu8	Cu	0.893872	0.102004	0.144011
Cu9	Cu	0.893874	0.102001	-0.144073
O10	O	0.887646	0.212193	0.121756
C11	C	0.755488	0.107772	-0.000029
C12	C	0.671471	0.106427	-0.000027
C13	C	0.146600	0.167171	-0.000050
C14	C	0.225543	0.168430	-0.000054
C15	C	0.274161	0.100095	-0.000046
C16	C	0.243831	0.030496	-0.000048
C17	C	0.164889	0.029238	-0.000054
C18	C	0.562197	0.035569	-0.000025
C19	C	0.641144	0.036833	-0.000014
C20	C	0.622852	0.174762	-0.000025
C21	C	0.543909	0.173503	-0.000031
C22	C	0.513587	0.103905	-0.000041
C23	C	0.427987	0.102541	-0.000039
C24	C	0.359759	0.101459	-0.000037
C25	C	0.899653	-0.036383	-0.000018
C26	C	0.898314	-0.120402	-0.000017
C27	C	0.966647	-0.169017	-0.000016
C28	C	0.965385	-0.247961	-0.000029
C29	C	0.895789	-0.278287	-0.000033
C30	C	0.827451	-0.229665	-0.000038
C31	C	0.828714	-0.150723	-0.000036
C32	C	0.822356	-0.548028	-0.000050
C33	C	0.821098	-0.626976	-0.000048
C34	C	0.959026	-0.645266	-0.000043
C35	C	0.960289	-0.566324	-0.000041
C36	C	0.891952	-0.517709	-0.000054
C37	C	0.893321	-0.432110	-0.000043
C38	C	0.894419	-0.363885	-0.000033
C39	C	1.032258	0.096233	-0.000036
C40	C	1.116275	0.097578	-0.000047
C41	C	0.888093	0.240388	-0.000047
C42	C	0.889431	0.324406	-0.000057
N43	N	0.893876	0.102006	0.346634
N44	N	0.893875	0.101992	-0.346695
C45	C	0.945437	0.050479	0.423291
C46	C	0.945435	0.050470	0.576628
C47	C	0.842309	0.153522	0.576637
C48	C	0.842307	0.153527	0.423303
C49	C	1.004979	-0.009016	0.423286
C50	C	1.004977	-0.009025	0.576623
H51	H	0.140200	-0.027432	-0.000055
C52	C	0.528851	-0.040985	-0.000011
H53	H	0.569114	-0.081500	0.000015
H54	H	0.498438	-0.044352	-0.084958
H55	H	0.498435	-0.044339	0.084949
C56	C	1.083363	0.007675	0.632859
H57	H	1.083359	0.007661	0.736912
H58	H	1.093629	0.056043	0.598195
H59	H	1.121457	-0.030388	0.598181
C60	C	0.093127	0.242341	-0.000067
H61	H	0.122497	0.283968	-0.000085
H62	H	0.061946	0.244723	0.084875
H63	H	0.061958	0.244713	-0.085032
H64	H	0.680728	-0.018817	-0.000012
H65	H	1.016961	-0.541638	-0.000031
C66	C	0.747188	-0.494562	-0.000039
H67	H	0.705560	-0.523931	-0.000021
H68	H	0.744806	-0.463381	-0.084983
H69	H	0.744816	-0.463392	0.084924
H70	H	0.800322	0.195469	0.639077
C71	C	0.297308	-0.044671	-0.000035
H72	H	0.348667	-0.033956	-0.000015
H73	H	0.288133	-0.073217	-0.084979
H74	H	0.288122	-0.073210	0.084928
C75	C	0.656209	0.251320	-0.000037
H76	H	0.710187	0.242286	-0.000049
H77	H	0.639513	0.279451	0.084908
H78	H	0.639513	0.279447	-0.084999
H79	H	1.023320	-0.144333	-0.000004
H80	H	0.770785	-0.254362	-0.000050
H81	H	1.021028	-0.287541	-0.000025
H82	H	0.250230	0.225100	-0.000069
H83	H	0.773070	-0.111140	-0.000037
H84	H	1.014670	-0.684858	-0.000040
H85	H	0.800316	0.195479	0.360890
H86	H	0.992670	-0.067060	0.381673
H87	H	0.504328	0.229149	-0.000030
C88	C	0.744539	-0.660333	-0.000071
H89	H	0.704020	-0.620074	-0.000095
H90	H	0.741173	-0.690751	0.084874
H91	H	0.741191	-0.690746	-0.085033
H92	H	1.059740	0.008844	0.375725
H93	H	0.987167	-0.063811	0.624177
