data_functionalizedCrystal
_audit_creation_method	'MofGen! by Chris Wilmer'
_symmetry_space_group_name_H-M	'P1'
_symmetry_Int_Tables_number	1
_symmetry_cell_setting	triclinic
loop_
_symmetry_equiv_pos_as_xyz
  x,y,z
_cell_length_a	16.109318
_cell_length_b	16.109301
_cell_length_c	14.048226
_cell_angle_alpha	90.005033
_cell_angle_beta	90.001267
_cell_angle_gamma	83.465022
loop_
_atom_site_label
_atom_site_type_symbol
_atom_site_fract_x
_atom_site_fract_y
_atom_site_fract_z
O1	O	1.103123	0.106934	0.079084
O2	O	1.436457	0.440268	0.412418
O3	O	1.769790	0.773601	0.745751
O4	O	0.861063	0.120219	0.079104
O5	O	1.194397	0.453552	0.412437
O6	O	1.527730	0.786885	0.745771
O7	O	0.988743	-0.007454	0.079084
O8	O	1.322076	0.325879	0.412417
O9	O	1.655410	0.659213	0.745751
O10	O	0.975444	0.234607	0.079105
O11	O	1.308777	0.567940	0.412438
O12	O	1.642111	0.901274	0.745771
O13	O	0.988731	-0.007455	-0.079237
O14	O	1.322064	0.325878	0.254096
O15	O	1.655398	0.659211	0.587429
O16	O	0.861051	0.120218	-0.079217
O17	O	1.194385	0.453551	0.254116
O18	O	1.527718	0.786884	0.587449
O19	O	1.103111	0.106933	-0.079237
O20	O	1.436445	0.440267	0.254096
O21	O	1.769778	0.773600	0.587430
Zn22	Zn	0.982079	0.113575	-0.104364
Zn23	Zn	1.315413	0.446909	0.228969
Zn24	Zn	1.648746	0.780242	0.562303
Zn25	Zn	0.982095	0.113577	0.104231
Zn26	Zn	1.315429	0.446910	0.437565
Zn27	Zn	1.648762	0.780243	0.770898
O28	O	0.975432	0.234606	-0.079217
O29	O	1.308765	0.567939	0.254117
O30	O	1.642098	0.901273	0.587450
C31	C	0.830083	0.119677	-0.000054
C32	C	1.163416	0.453011	0.333279
C33	C	1.496749	0.786344	0.666613
C34	C	0.737788	0.118057	-0.000047
C35	C	1.071122	0.451390	0.333286
C36	C	1.404455	0.784723	0.666620
C37	C	0.438721	0.112822	0.086237
C38	C	0.772054	0.446155	0.419570
C39	C	1.105388	0.779489	0.752903
C40	C	0.525442	0.114340	0.086243
C41	C	0.858776	0.447673	0.419576
C42	C	1.192109	0.781006	0.752909
C43	C	0.525448	0.114327	-0.086368
C44	C	0.858781	0.447660	0.246965
C45	C	1.192115	0.780994	0.580299
C46	C	0.438729	0.112804	-0.086373
C47	C	0.772062	0.446137	0.246961
C48	C	1.105396	0.779470	0.580294
C49	C	0.395367	0.112056	-0.000068
C50	C	0.728701	0.445389	0.333266
C51	C	1.062034	0.778722	0.666599
C52	C	0.568807	0.115096	-0.000057
C53	C	0.902141	0.448430	0.333277
C54	C	1.235474	0.781763	0.666610
C55	C	0.662835	0.116742	-0.000051
C56	C	0.996168	0.450075	0.333282
C57	C	1.329501	0.783408	0.666616
C58	C	0.301334	0.110409	-0.000073
C59	C	0.634668	0.443742	0.333260
C60	C	0.968001	0.777075	0.666594
C61	C	0.988198	-0.038430	-0.000077
C62	C	1.321532	0.294904	0.333256
C63	C	1.654865	0.628237	0.666590
C64	C	0.986583	-0.130725	-0.000078
C65	C	1.319916	0.202608	0.333255
C66	C	1.653250	0.535942	0.666588
C67	C	1.058590	-0.352993	-0.000069
C68	C	1.391924	-0.019660	0.333264
C69	C	1.725257	0.313674	0.666598
C70	C	1.057066	-0.439713	-0.000061
C71	C	1.390400	-0.106380	0.333272
C72	C	1.723733	0.226953	0.666606
C73	C	0.905579	-0.419848	-0.000053
C74	C	1.238912	-0.086515	0.333281
C75	C	1.572245	0.246818	0.666614
C76	C	0.907104	-0.333130	-0.000054
C77	C	1.240437	0.000204	0.333280
C78	C	1.573770	0.333537	0.666613
C79	C	0.983612	-0.299704	-0.000067
C80	C	1.316945	0.033629	0.333267
C81	C	1.650279	0.366962	0.666600
C82	C	0.980563	-0.473144	-0.000058
C83	C	1.313896	-0.139810	0.333276
C84	C	1.647230	0.193523	0.666609
C85	C	0.978910	-0.567170	-0.000049
C86	C	1.312243	-0.233837	0.333284
C87	C	1.645577	0.099497	0.666618
C88	C	0.985265	-0.205672	-0.000074
C89	C	1.318599	0.127661	0.333260
C90	C	1.651932	0.460994	0.666593
C91	C	1.134092	0.107474	-0.000077
C92	C	1.467425	0.440808	0.333257
C93	C	1.800759	0.774141	0.666590
C94	C	1.226387	0.109095	-0.000077
C95	C	1.559720	0.442429	0.333256
C96	C	1.893053	0.775762	0.666589
C97	C	0.975976	0.265581	-0.000054
C98	C	1.309310	0.598915	0.333280
C99	C	1.642643	0.932248	0.666613
C100	C	0.977592	0.357877	-0.000046
C101	C	1.310925	0.691210	0.333287
C102	C	1.644258	1.024543	0.666621
N103	N	0.982074	0.113574	-0.246725
N104	N	1.315408	0.446907	0.086609
N105	N	1.648741	0.780240	0.419942
C106	C	1.032481	0.164020	-0.296538
C107	C	1.365814	0.497353	0.036795
C108	C	1.699148	0.830686	0.370128
C109	C	1.032492	0.164016	-0.396196
C110	C	1.365825	0.497350	-0.062863
C111	C	1.699158	0.830683	0.270471
C112	C	0.982091	0.113570	-0.446038
C113	C	1.315424	0.446904	-0.112705
C114	C	1.648757	0.780237	0.220629
C115	C	0.931682	0.063119	-0.396217
C116	C	1.265016	0.396452	-0.062884
C117	C	1.598349	0.729785	0.270449
C118	C	0.931677	0.063118	-0.296562
C119	C	1.265010	0.396452	0.036772
C120	C	1.598343	0.729785	0.370105
C121	C	0.931696	0.063124	-0.603932
C122	C	1.265029	0.396457	-0.270598
C123	C	1.598363	0.729791	0.062735
C124	C	0.931700	0.063125	-0.703594
C125	C	1.265034	0.396459	-0.370261
C126	C	1.598367	0.729792	-0.036928
C127	C	1.032511	0.164022	-0.703566
C128	C	1.365845	0.497355	-0.370233
C129	C	1.699178	0.830689	-0.036899
C130	C	1.032506	0.164022	-0.603910
C131	C	1.365839	0.497355	-0.270577
C132	C	1.699172	0.830689	0.062756
C133	C	0.982096	0.113571	-0.554096
C134	C	1.315429	0.446904	-0.220763
C135	C	1.648762	0.780238	0.112570
N136	N	0.982107	0.113571	0.246592
N137	N	1.315440	0.446905	0.579925
N138	N	1.648774	0.780238	0.913259
H139	H	0.403429	0.112179	-0.156657
H140	H	0.736763	0.445512	0.176677
H141	H	1.070096	0.778845	0.510010
H142	H	0.846043	-0.289740	-0.000049
H143	H	1.179377	0.043594	0.333284
H144	H	1.512710	0.376927	0.666618
N145	N	0.823062	-0.455900	-0.000043
N146	N	1.156396	-0.122567	0.333291
N147	N	1.489729	0.210766	0.666624
H148	H	0.833472	-0.518923	-0.000046
H149	H	1.166805	-0.185589	0.333288
H150	H	1.500139	0.147744	0.666621
H151	H	0.790252	-0.436408	-0.058733
H152	H	1.123585	-0.103075	0.274600
H153	H	1.456919	0.230259	0.607934
H154	H	1.120888	-0.325781	-0.000078
H155	H	1.454221	0.007552	0.333256
H156	H	1.787555	0.340885	0.666589
N157	N	0.572199	0.115177	0.179330
N158	N	0.905532	0.448510	0.512663
N159	N	1.238866	0.781844	0.845996
H160	H	0.633716	0.116253	0.166241
H161	H	0.967049	0.449586	0.499575
H162	H	1.300383	0.782920	0.832908
H163	H	0.563790	0.063406	0.217019
H164	H	0.897124	0.396740	0.550352
H165	H	1.230457	0.730073	0.883686
N166	N	1.086839	0.218434	-0.242783
N167	N	1.420172	0.551767	0.090550
N168	N	1.753505	0.885100	0.423883
H169	H	1.118774	0.250388	-0.289466
H170	H	1.452107	0.583722	0.043867
H171	H	1.785441	0.917055	0.377200
H172	H	1.127489	0.182198	-0.201435
H173	H	1.460823	0.515531	0.131898
H174	H	1.794156	0.848864	0.465231
H175	H	0.403419	0.112212	0.156512
H176	H	0.736752	0.445545	0.489845
H177	H	1.070085	0.778879	0.823179
N178	N	0.877310	0.008709	-0.242829
N179	N	1.210643	0.342042	0.090504
N180	N	1.543976	0.675376	0.423838
H181	H	0.913522	-0.031972	-0.201488
H182	H	1.246855	0.301362	0.131845
H183	H	1.580189	0.634695	0.465178
H184	H	0.845390	-0.023193	-0.289584
H185	H	1.178723	0.310141	0.043749
H186	H	1.512057	0.643474	0.377082
N187	N	0.572216	0.115141	-0.179450
N188	N	0.905549	0.448474	0.153883
N189	N	1.238882	0.781807	0.487216
H190	H	0.633730	0.116226	-0.166353
H191	H	0.967064	0.449559	0.166980
H192	H	1.300397	0.782893	0.500314
H193	H	0.550302	0.166382	-0.217134
H194	H	0.883635	0.499716	0.116199
H195	H	1.216968	0.833049	0.449532
N196	N	1.137933	-0.497193	-0.000068
N197	N	1.471266	-0.163860	0.333265
N198	N	1.804600	0.169473	0.666598
H199	H	1.171319	-0.486437	0.058616
H200	H	1.504652	-0.153104	0.391949
H201	H	1.837985	0.180230	0.725283
H202	H	1.171239	-0.486423	-0.058802
H203	H	1.504572	-0.153090	0.274531
H204	H	1.837906	0.180244	0.607864
N205	N	1.086899	0.218385	-0.449925
N206	N	1.420233	0.551718	-0.116592
N207	N	1.753566	0.885052	0.216742
H208	H	1.118836	0.250332	-0.403228
H209	H	1.452169	0.583666	-0.069895
H210	H	1.785503	0.916999	0.263438
H211	H	1.050677	0.259025	-0.491299
H212	H	1.384011	0.592358	-0.157966
H213	H	1.717344	0.925691	0.175368
H214	H	1.073542	0.205103	-0.563332
H215	H	1.406876	0.538437	-0.229998
H216	H	1.740209	0.871770	0.103335
H217	H	1.073553	0.205104	-0.744129
H218	H	1.406887	0.538438	-0.410796
H219	H	1.740220	0.871771	-0.077463
N220	N	0.877315	0.008715	-0.449974
N221	N	1.210649	0.342048	-0.116640
N222	N	1.543982	0.675381	0.216693
H223	H	0.845383	-0.023244	-0.403292
H224	H	1.178716	0.310090	-0.069959
H225	H	1.512049	0.643423	0.263375
H226	H	0.913577	-0.031915	-0.491326
H227	H	1.246910	0.301418	-0.157992
H228	H	1.580243	0.634751	0.175341
N229	N	0.877329	0.008730	-0.757356
N230	N	1.210662	0.342063	-0.424023
N231	N	1.543996	0.675396	-0.090690
H232	H	0.845394	-0.023231	-0.710680
H233	H	1.178727	0.310102	-0.377346
H234	H	1.512061	0.643435	-0.044013
H235	H	0.913586	-0.031898	-0.798716
H236	H	1.246919	0.301436	-0.465382
H237	H	1.580253	0.634769	-0.132049
H238	H	0.890648	0.022041	-0.563376
H239	H	1.223981	0.355374	-0.230043
H240	H	1.557315	0.688707	0.103290
