data_functionalizedCrystal
_audit_creation_method	'MofGen! by Chris Wilmer'
_symmetry_space_group_name_H-M	'P1'
_symmetry_Int_Tables_number	1
_symmetry_cell_setting	triclinic
loop_
_symmetry_equiv_pos_as_xyz
  x,y,z
_cell_length_a	14.044191
_cell_length_b	15.944551
_cell_length_c	12.503572
_cell_angle_alpha	93.522593
_cell_angle_beta	86.162165
_cell_angle_gamma	88.345257
loop_
_atom_site_label
_atom_site_type_symbol
_atom_site_fract_x
_atom_site_fract_y
_atom_site_fract_z
O1	O	1.263184	0.198087	-0.089272
O2	O	1.763184	0.698087	0.410728
O3	O	0.987215	0.190772	-0.089286
O4	O	1.487215	0.690772	0.410714
O5	O	1.132735	0.072720	-0.089269
O6	O	1.632735	0.572720	0.410731
O7	O	1.117664	0.316139	-0.089289
O8	O	1.617664	0.816139	0.410711
O9	O	1.121791	0.081614	0.089372
O10	O	1.621791	0.581614	0.589372
O11	O	0.976271	0.199667	0.089355
O12	O	1.476271	0.699667	0.589355
O13	O	1.252240	0.206981	0.089368
O14	O	1.752240	0.706981	0.589368
Cu15	Cu	1.113256	0.204136	0.105673
Cu16	Cu	1.613256	0.704136	0.605673
Cu17	Cu	1.126199	0.193617	-0.105591
Cu18	Cu	1.626199	0.693617	0.394409
O19	O	1.106720	0.325034	0.089351
O20	O	1.606720	0.825034	0.589351
C21	C	0.946428	0.192020	0.000033
C22	C	1.446428	0.692020	0.500033
C23	C	0.841202	0.182476	0.000028
C24	C	1.341202	0.682476	0.500028
C25	C	0.590918	0.232714	0.000035
C26	C	1.090918	0.732714	0.500035
C27	C	0.648543	0.165042	0.000038
C28	C	1.148543	0.665042	0.500038
C29	C	0.755748	0.174745	0.000033
C30	C	1.255748	0.674745	0.500033
C31	C	0.483703	0.223013	0.000040
C32	C	0.983703	0.723013	0.500040
C33	C	1.126637	0.045826	0.000051
C34	C	1.626637	0.545826	0.500051
C35	C	1.124761	-0.047560	0.000052
C36	C	1.624761	0.452440	0.500052
C37	C	1.030078	-0.269510	0.000032
C38	C	1.530078	0.230490	0.500032
C39	C	1.068650	-0.322848	0.088115
C40	C	1.568650	0.177152	0.588115
C41	C	1.121368	-0.218541	0.000043
C42	C	1.621368	0.281459	0.500043
C43	C	1.079462	-0.331599	-0.088010
C44	C	1.579462	0.168401	0.411990
C45	C	1.118084	-0.383700	0.000031
C46	C	1.618084	0.116300	0.500031
C47	C	1.159961	-0.270646	0.088199
C48	C	1.659961	0.229354	0.588199
C49	C	1.170765	-0.279395	-0.088006
C50	C	1.670765	0.220605	0.411994
C51	C	1.209402	-0.332710	0.000098
C52	C	1.709402	0.167290	0.500098
C53	C	1.123257	-0.123397	0.000052
C54	C	1.623257	0.376603	0.500052
C55	C	1.116202	-0.478842	0.000030
C56	C	1.616202	0.021158	0.500030
C57	C	1.293027	0.205733	0.000047
C58	C	1.793027	0.705733	0.500047
C59	C	1.398253	0.215277	0.000045
C60	C	1.898253	0.715277	0.500045
C61	C	1.112818	0.351927	0.000029
C62	C	1.612818	0.851927	0.500029
C63	C	1.114694	0.445314	0.000021
C64	C	1.614694	0.945314	0.500021
N65	N	1.104160	0.211534	0.254264
N66	N	1.604160	0.711534	0.754264
N67	N	1.135302	0.186213	-0.254182
N68	N	1.635302	0.686213	0.245818
C69	C	1.090779	0.222424	0.473378
C70	C	1.590779	0.722424	0.973378
C71	C	1.148680	0.175326	0.526711
C72	C	1.648680	0.675326	1.026711
C73	C	1.141235	0.181385	0.648634
C74	C	1.641235	0.681385	1.148634
C75	C	1.098223	0.216366	0.351444
C76	C	1.598223	0.716366	0.851444
H77	H	0.617368	0.099816	-0.000032
H78	H	1.117368	0.599816	0.499968
N79	N	1.202633	-0.237281	0.181714
N80	N	1.702633	0.262719	0.681714
N81	N	1.210925	-0.159688	0.196829
N82	N	1.710925	0.340312	0.696829
H83	H	1.241059	-0.136122	0.262874
H84	H	1.741059	0.363878	0.762874
H85	H	1.285241	-0.360186	0.000152
H86	H	1.785241	0.139814	0.500152
H87	H	1.213906	-0.260083	-0.162473
H88	H	1.713906	0.239917	0.337527
N89	N	1.217876	0.119034	0.469115
N90	N	1.717876	0.619034	0.969115
N91	N	1.223906	0.114128	0.368718
N92	N	1.723906	0.614128	0.868718
H93	H	1.272775	0.074375	0.328035
H94	H	1.772775	0.574375	0.828035
H95	H	0.622097	0.297932	0.000026
H96	H	1.122097	0.797932	0.500026
H97	H	1.035621	0.267295	0.519279
H98	H	1.535621	0.767295	1.019279
H99	H	0.954297	-0.241874	0.000117
H100	H	1.454297	0.258126	0.500117
N101	N	1.036715	-0.365081	-0.181415
N102	N	1.536715	0.134919	0.318585
N103	N	0.952479	-0.344469	-0.197088
N104	N	1.452479	0.155531	0.302912
H105	H	0.922281	-0.368113	-0.263050
H106	H	1.422281	0.131887	0.236950
H107	H	1.025476	-0.342141	0.162579
H108	H	1.525476	0.157859	0.662579
