data_functionalizedCrystal
_audit_creation_method	'MofGen! by Chris Wilmer'
_symmetry_space_group_name_H-M	'P1'
_symmetry_Int_Tables_number	1
_symmetry_cell_setting	triclinic
loop_
_symmetry_equiv_pos_as_xyz
  x,y,z
_cell_length_a	9.130307
_cell_length_b	12.837943
_cell_length_c	12.837942
_cell_angle_alpha	94.828940
_cell_angle_beta	89.997046
_cell_angle_gamma	89.999550
loop_
_atom_site_label
_atom_site_type_symbol
_atom_site_fract_x
_atom_site_fract_y
_atom_site_fract_z
O1	O	0.121772	-1.402331	-0.272138
O2	O	0.121781	-1.099198	-0.258695
O3	O	0.121767	-1.244043	-0.113850
O4	O	0.121785	-1.257486	-0.416983
O5	O	-0.121832	-1.244038	-0.113848
O6	O	-0.121818	-1.099192	-0.258693
O7	O	-0.121827	-1.402326	-0.272136
Cu8	Cu	-0.144065	-1.250759	-0.265414
Cu9	Cu	0.144019	-1.250765	-0.265417
O10	O	-0.121814	-1.257481	-0.416981
C11	C	-0.000018	-1.060126	-0.254153
C12	C	-0.000015	-0.943711	-0.240608
C13	C	-0.000031	-1.239499	-0.074780
C14	C	-0.000028	-1.225954	0.041635
N15	N	-0.346688	-1.250762	-0.265413
C16	C	-0.346690	-1.379084	-0.137199
C17	C	-0.423357	-1.443252	-0.073096
C18	C	-0.576691	-1.443263	-0.073096
C19	C	-0.653360	-1.379095	-0.137204
C20	C	-0.576693	-1.314927	-0.201307
C21	C	-0.423356	-1.314926	-0.201303
C22	C	-0.576691	-1.186601	-0.329514
C23	C	-0.423357	-1.186595	-0.329521
C24	C	-0.653360	-1.122434	-0.393622
C25	C	-0.576693	-1.058270	-0.457732
C26	C	-0.423350	-1.058263	-0.457730
C27	C	-0.346690	-1.122426	-0.393624
N28	N	0.346642	-1.250769	-0.265411
C29	C	-0.000025	-1.441398	-0.276679
C30	C	-0.000019	-1.557813	-0.290223
C31	C	-0.000026	-0.718837	-0.403437
C32	C	-0.000024	-0.609454	-0.390716
C33	C	-0.000020	-0.615562	-0.202445
C34	C	-0.000022	-0.724944	-0.215166
C35	C	-0.000023	-0.776578	-0.315666
C36	C	-0.000014	-0.885962	-0.328386
C37	C	-0.000020	-0.892067	-0.140116
C38	C	-0.000018	-0.782685	-0.127395
C39	C	-0.000012	-1.262025	-0.456052
C40	C	-0.000005	-1.275569	-0.572467
C41	C	-0.000002	-1.388784	0.266510
C42	C	0.000000	-1.376062	0.375892
C43	C	-0.000009	-1.187791	0.369785
C44	C	-0.000012	-1.200513	0.260402
C45	C	-0.000011	-1.301012	0.208769
C46	C	-0.000024	-1.313732	0.099384
C47	C	-0.000024	-1.125462	0.093279
C48	C	-0.000021	-1.112741	0.202661
H49	H	-0.360920	-1.495495	-0.020897
H50	H	0.000012	-1.447536	0.422901
H51	H	-0.000042	-1.053992	0.046254
C52	C	-0.661035	-1.513841	-0.002585
H53	H	-0.763334	-1.504648	-0.011766
H54	H	-0.635901	-1.584828	-0.020897
H55	H	-0.635920	-1.495572	0.068418
C56	C	0.000018	-1.077252	0.426589
H57	H	0.000029	-1.026795	0.376537
H58	H	-0.084917	-1.068367	0.469149
H59	H	0.084991	-1.068392	0.469116
C60	C	-0.822022	-1.122447	-0.393626
H61	H	-0.856705	-1.169860	-0.346276
H62	H	-0.856726	-1.054130	-0.372645
H63	H	-0.856690	-1.143380	-0.461967
C64	C	-0.178028	-1.379081	-0.137209
H65	H	-0.143348	-1.331681	-0.184573
H66	H	-0.143337	-1.358160	-0.068877
H67	H	-0.143344	-1.447405	-0.158203
H68	H	-0.000034	-0.740630	-0.045571
C69	C	-0.000014	-0.955584	-0.043563
H70	H	-0.000021	-1.028124	-0.065530
H71	H	0.084935	-0.938910	-0.002806
H72	H	-0.084972	-0.938915	-0.002796
C73	C	-0.000016	-1.002199	0.259459
H74	H	-0.000011	-0.951747	0.209402
H75	H	-0.084957	-0.993321	0.302012
H76	H	0.084950	-0.993324	0.301992
H77	H	-0.000031	-0.562446	-0.462189
C78	C	-0.000012	-1.499325	0.209709
H79	H	-0.000004	-1.549778	0.259765
H80	H	-0.084961	-1.508196	0.167169
H81	H	0.084946	-1.508203	0.167163
C82	C	-0.000019	-0.942758	-0.438929
H83	H	-0.000036	-0.892700	-0.489379
H84	H	0.084927	-0.985304	-0.447815
H85	H	-0.084980	-0.985298	-0.447797
C86	C	-0.000014	-0.775637	-0.513978
H87	H	-0.000019	-0.725581	-0.564432
H88	H	0.084934	-0.818182	-0.522852
H89	H	-0.084974	-0.818178	-0.522854
H90	H	-0.221838	-1.122431	-0.393621
H91	H	-0.778212	-1.379098	-0.137191
H92	H	-0.000140	-0.573502	-0.120623
H93	H	-0.639126	-1.006024	-0.509920
H94	H	-0.360935	-1.006005	-0.509927
C95	C	-0.000018	-1.424275	0.042588
H96	H	0.000003	-1.474726	0.092647
H97	H	-0.084966	-1.433158	0.000048
H98	H	0.084942	-1.433146	0.000042
