data_functionalizedCrystal
_audit_creation_method	'MofGen! by Chris Wilmer'
_symmetry_space_group_name_H-M	'P1'
_symmetry_Int_Tables_number	1
_symmetry_cell_setting	triclinic
loop_
_symmetry_equiv_pos_as_xyz
  x,y,z
_cell_length_a	12.827893
_cell_length_b	14.908520
_cell_length_c	14.909241
_cell_angle_alpha	89.840258
_cell_angle_beta	93.314376
_cell_angle_gamma	93.320575
loop_
_atom_site_label
_atom_site_type_symbol
_atom_site_fract_x
_atom_site_fract_y
_atom_site_fract_z
Zn1	Zn	1.611008	-0.328610	0.529012
Zn2	Zn	2.111008	0.171390	1.029012
Zn3	Zn	1.590780	-0.487664	0.387324
Zn4	Zn	2.090780	0.012336	0.887324
Zn5	Zn	1.425620	-0.337323	0.378673
Zn6	Zn	1.925620	0.162677	0.878673
Zn7	Zn	1.426742	-0.478929	0.537639
Zn8	Zn	1.926742	0.021071	1.037639
O9	O	1.513538	-0.408132	0.458162
O10	O	2.013538	0.091868	0.958162
O11	O	1.754561	-0.349718	0.510227
O12	O	2.254561	0.150282	1.010227
O13	O	1.559936	-0.475023	0.260352
O14	O	2.059936	0.024977	0.760352
O15	O	1.458208	-0.210340	0.391385
O16	O	1.958208	0.289660	0.891385
O17	O	1.739700	-0.466574	0.406129
O18	O	2.239700	0.033426	0.906129
O19	O	1.594412	-0.203939	0.501838
O20	O	2.094412	0.296061	1.001838
O21	O	1.438593	-0.364568	0.253996
O22	O	1.938593	0.135432	0.753996
O23	O	1.279533	-0.356098	0.399750
O24	O	1.779533	0.143902	0.899750
O25	O	1.460121	-0.451687	0.662319
O26	O	1.960121	0.048313	1.162319
O27	O	1.280357	-0.460136	0.516541
O28	O	1.780357	0.039864	1.016541
O29	O	1.595500	-0.341248	0.655981
O30	O	2.095500	0.158752	1.155981
O31	O	1.561024	-0.612333	0.414494
O32	O	2.061024	-0.112333	0.914494
O33	O	1.440507	-0.605915	0.524930
O34	O	1.940507	-0.105915	1.024930
C35	C	1.242028	-0.408115	0.458144
C36	C	1.742028	0.091885	0.958144
C37	C	1.125875	-0.408129	0.458159
C38	C	1.625875	0.091871	0.958159
C39	C	1.074514	-0.459700	0.515871
C40	C	1.574514	0.040300	1.015871
C41	C	0.954464	-0.459715	0.515888
C42	C	1.454464	0.040285	1.015888
C43	C	1.498722	-0.641748	0.471606
C44	C	1.998722	-0.141748	0.971606
C45	C	1.492482	-0.741689	0.477388
C46	C	1.992482	-0.241689	0.977388
C47	C	1.606394	-0.936104	0.373349
C48	C	2.106394	-0.436104	0.873349
C49	C	1.600534	-1.030007	0.378778
C50	C	2.100534	-0.530007	0.878778
C51	C	1.474907	-1.023400	0.493681
C52	C	1.974907	-0.523400	0.993681
C53	C	1.480768	-0.929497	0.488251
C54	C	1.980768	-0.429497	0.988251
C55	C	1.546512	-0.885852	0.428082
C56	C	2.046512	-0.385852	0.928082
C57	C	1.552366	-0.791948	0.422649
C58	C	2.052366	-0.291948	0.922649
C59	C	1.426745	-0.785342	0.537555
C60	C	1.926745	-0.285342	1.037555
C61	C	1.420885	-0.879245	0.542985
C62	C	1.920885	-0.379245	1.042985
C63	C	1.786108	-0.408149	0.458181
C64	C	2.286108	0.091851	0.958181
C65	C	1.902261	-0.408156	0.458189
C66	C	2.402261	0.091844	0.958189
C67	C	1.530192	-0.394522	0.692687
C68	C	2.030192	0.105478	1.192687
C69	C	1.537289	-0.388722	0.792627
C70	C	2.037289	0.111278	1.292627
C71	C	1.528441	-0.173601	0.444684
C72	C	2.028441	0.326399	0.944684
C73	C	1.534792	-0.073659	0.438941
C74	C	2.034792	0.426341	0.938941
C75	C	1.497012	-0.421624	0.224545
C76	C	1.997012	0.078376	0.724545
C77	C	1.490133	-0.427170	0.124591
C78	C	1.990133	0.072830	0.624591
C79	C	1.409657	-0.492844	0.987029
C80	C	1.909657	0.007156	1.487029
C81	C	1.416321	-0.487397	1.080932
C82	C	1.916321	0.012603	1.580932
C83	C	1.557288	-0.372387	1.074339
C84	C	2.057288	0.127613	1.574339
C85	C	1.550623	-0.377834	0.980436
C86	C	2.050623	0.122166	1.480436
C87	C	1.476804	-0.438063	0.936784
C88	C	1.976804	0.061937	1.436784
C89	C	1.470135	-0.443505	0.842879
C90	C	1.970135	0.056495	1.342879
C91	C	1.611106	-0.328500	0.836288
C92	C	2.111106	0.171500	1.336288
C93	C	1.617771	-0.323053	0.930191
C94	C	2.117771	0.176947	1.430191
H95	H	1.605895	-0.756413	0.373654
H96	H	2.105895	-0.256413	0.873654
O97	O	0.954879	-0.355582	0.399112
O98	O	1.454879	0.144418	0.899112
C99	C	0.920639	-0.380266	0.310571
C100	C	1.420639	0.119734	0.810571
H101	H	0.885687	-0.452342	0.310028
H102	H	1.385687	0.047658	0.810028
H103	H	0.989795	-0.375076	0.265760
H104	H	1.489795	0.124924	0.765760
H105	H	0.858750	-0.333341	0.284326
H106	H	1.358750	0.166659	0.784326
O107	O	1.670095	-0.893666	0.314803
O108	O	2.170095	-0.393666	0.814803
C109	C	1.609910	-0.842769	0.253564
C110	C	2.109910	-0.342769	0.753564
H111	H	1.525443	-0.871461	0.249589
H112	H	2.025443	-0.371461	0.749589
H113	H	1.642924	-0.845709	0.184333
H114	H	2.142924	-0.345709	0.684333
H115	H	1.612697	-0.769983	0.277250
H116	H	2.112697	-0.269983	0.777250
H117	H	1.410017	-0.492537	0.807339
H118	H	1.910017	0.007463	1.307339
O119	O	1.676239	-0.275142	0.787522
O120	O	2.176239	0.224858	1.287522
C121	C	1.660722	-0.184200	0.805355
C122	C	2.160722	0.315800	1.305355
H123	H	1.579354	-0.178177	0.830898
H124	H	2.079354	0.321823	1.330898
H125	H	1.668160	-0.143343	0.741060
H126	H	2.168160	0.356657	1.241060
H127	H	1.722102	-0.157541	0.858527
H128	H	2.222102	0.342459	1.358527
O129	O	1.128203	-0.512235	0.574842
O130	O	1.628203	-0.012235	1.074842
C131	C	1.198697	-0.457700	0.630014
C132	C	1.698697	0.042300	1.130014
H133	H	1.217001	-0.391329	0.594474
H134	H	1.717001	0.108671	1.094474
H135	H	1.274030	-0.493580	0.644038
H136	H	1.774030	0.006420	1.144038
H137	H	1.162066	-0.444095	0.696141
H138	H	1.662066	0.055905	1.196141
H139	H	1.367361	-0.914794	0.591975
H140	H	1.867361	-0.414794	1.091975
H141	H	0.910293	-0.503870	0.565295
H142	H	1.410293	-0.003870	1.065295
O143	O	1.368729	-0.736483	0.590822
O144	O	1.868729	-0.236483	1.090822
C145	C	1.435678	-0.678706	0.645786
C146	C	1.935678	-0.178706	1.145786
H147	H	1.516618	-0.706607	0.653043
H148	H	2.016618	-0.206607	1.153043
H149	H	1.402786	-0.673632	0.714889
H150	H	1.902786	-0.173632	1.214889
H151	H	1.441767	-0.609159	0.613873
H152	H	1.941767	-0.109159	1.113873
O153	O	1.629137	-0.313986	1.116712
O154	O	2.129137	0.186014	1.616712
C155	C	1.730409	-0.334959	1.094879
C156	C	2.230409	0.165041	1.594879
H157	H	1.729287	-0.408288	1.073186
H158	H	2.229287	0.091712	1.573186
H159	H	1.786917	-0.323638	1.156191
H160	H	2.286917	0.176362	1.656191
H161	H	1.756915	-0.289910	1.037607
H162	H	2.256915	0.210090	1.537607
O163	O	1.072478	-0.355383	0.399190
O164	O	1.572478	0.144617	0.899190
C165	C	1.143539	-0.307448	0.345509
C166	C	1.643539	0.192552	0.845509
H167	H	1.224190	-0.302187	0.382091
H168	H	1.724190	0.197813	0.882091
H169	H	1.115730	-0.237165	0.331984
H170	H	1.615730	0.262835	0.831984
H171	H	1.148159	-0.344227	0.279045
H172	H	1.648159	0.155773	0.779045
H173	H	1.649299	-1.070919	0.334210
H174	H	2.149299	-0.570919	0.834210
O175	O	1.689332	-0.264451	0.972634
O176	O	2.189332	0.235549	1.472634
C177	C	1.637377	-0.203243	1.023631
C178	C	2.137377	0.296757	1.523631
H179	H	1.553414	-0.199331	0.995007
H180	H	2.053414	0.300669	1.495007
H181	H	1.679637	-0.133981	1.020727
H182	H	2.179637	0.366019	1.520727
H183	H	1.637066	-0.226919	1.096394
H184	H	2.137066	0.273081	1.596394
H185	H	1.421389	-1.058952	0.542673
H186	H	1.921389	-0.558952	1.042673
H187	H	1.349532	-0.541868	0.951486
H188	H	1.849532	-0.041868	1.451486
O189	O	1.350982	-0.540646	1.129603
O190	O	1.850982	-0.040646	1.629603
C191	C	1.284422	-0.594988	1.070935
C192	C	1.784422	-0.094988	1.570935
H193	H	1.278391	-0.562040	1.001882
H194	H	1.778391	-0.062040	1.501882
H195	H	1.203402	-0.603006	1.098609
H196	H	1.703402	-0.103006	1.598609
H197	H	1.317648	-0.663857	1.064875
H198	H	1.817648	-0.163857	1.564875
