data_functionalizedCrystal
_audit_creation_method	'MofGen! by Chris Wilmer'
_symmetry_space_group_name_H-M	'P1'
_symmetry_Int_Tables_number	1
_symmetry_cell_setting	triclinic
loop_
_symmetry_equiv_pos_as_xyz
  x,y,z
_cell_length_a	13.897449
_cell_length_b	13.897448
_cell_length_c	16.959447
_cell_angle_alpha	89.970632
_cell_angle_beta	89.983048
_cell_angle_gamma	90.018519
loop_
_atom_site_label
_atom_site_type_symbol
_atom_site_fract_x
_atom_site_fract_y
_atom_site_fract_z
Zn1	Zn	1.474641	-0.383975	-0.446969
Zn2	Zn	1.474553	-0.545293	-0.314793
Zn3	Zn	1.313349	-0.384016	-0.314801
Zn4	Zn	1.313312	-0.545232	-0.446926
O5	O	1.393964	-0.464629	-0.380872
O6	O	1.609611	-0.405382	-0.429451
O7	O	1.453148	-0.523942	-0.204183
O8	O	1.334796	-0.249029	-0.332355
O9	O	1.609547	-0.523902	-0.332342
O10	O	1.453297	-0.248998	-0.429459
O11	O	1.334711	-0.405452	-0.204189
O12	O	1.178362	-0.405393	-0.332312
O13	O	1.334734	-0.523798	-0.557542
O14	O	1.178335	-0.523838	-0.429384
O15	O	1.453262	-0.405323	-0.557575
O16	O	1.453112	-0.680266	-0.332299
O17	O	1.334649	-0.680221	-0.429376
C18	C	1.143350	-0.464614	-0.380845
C19	C	1.036136	-0.464631	-0.380852
C20	C	0.949066	-0.464634	-0.380865
C21	C	0.839833	-0.464641	-0.380889
C22	C	1.393893	-0.715243	-0.380849
C23	C	1.393952	-0.822457	-0.380866
C24	C	1.394053	-1.018752	-0.380916
C25	C	1.393994	-0.909520	-0.380890
C26	C	1.645557	-0.464644	-0.380900
C27	C	1.752771	-0.464651	-0.380912
C28	C	1.394004	-0.464549	-0.587041
C29	C	1.394021	-0.464515	-0.674897
C30	C	1.394061	-0.213036	-0.380913
C31	C	1.394102	-0.105822	-0.380930
C32	C	1.332424	-0.526097	-1.046359
C33	C	1.455848	-0.402729	-1.046387
C34	C	1.455823	-0.402749	-0.963841
C35	C	1.394098	-0.464446	-0.922550
C36	C	1.332399	-0.526122	-0.963805
C37	C	1.517528	-0.341081	-0.922580
C38	C	1.517505	-0.341100	-0.840029
C39	C	1.455775	-0.402792	-0.798737
C40	C	1.394072	-0.464470	-0.839997
C41	C	1.332348	-0.526167	-0.798706
C42	C	1.270639	-0.587840	-0.839964
C43	C	1.270668	-0.587814	-0.922513
C44	C	1.455746	-0.402818	-0.716188
C45	C	1.332322	-0.526191	-0.716152
C46	C	1.393979	-0.464639	-0.175506
C47	C	1.394149	-0.464401	-0.087650
H48	H	1.282049	-0.576424	-0.682539
C49	C	1.522703	-0.335632	-1.091258
C50	C	1.468125	-0.273779	-1.138652
C51	C	1.529680	-0.211946	-1.179994
H52	H	1.564746	-0.372416	-1.123516
H53	H	1.559429	-0.298846	-1.054891
H54	H	1.431416	-0.310561	-1.175015
H55	H	1.426085	-0.236974	-1.106414
H56	H	1.566406	-0.175160	-1.143627
H57	H	1.571720	-0.248738	-1.212247
H58	H	1.492658	-0.169965	-1.212150
H59	H	1.567787	-0.290857	-0.956206
H60	H	1.220432	-0.638029	-0.956112
H61	H	1.567751	-0.290881	-0.806444
C62	C	1.522616	-0.335707	-0.671434
C63	C	1.501648	-0.240260	-0.691520
C64	C	1.563224	-0.178406	-0.650301
H65	H	1.587459	-0.349702	-0.684925
H66	H	1.513751	-0.344491	-0.616350
H67	H	1.510522	-0.231480	-0.746592
H68	H	1.436817	-0.226235	-0.678027
H69	H	1.554358	-0.187190	-0.595217
H70	H	1.628063	-0.192409	-0.663795
H71	H	1.549000	-0.113638	-0.663918
C72	C	1.203663	-0.654720	-0.794986
C73	C	1.216842	-0.641522	-0.713865
C74	C	1.155154	-0.703104	-0.672404
H75	H	1.217693	-0.719567	-0.808406
H76	H	1.138839	-0.640584	-0.808463
H77	H	1.281651	-0.655665	-0.700394
H78	H	1.202806	-0.576688	-0.700422
H79	H	1.090331	-0.688968	-0.685880
H80	H	1.169189	-0.767947	-0.685829
H81	H	1.164082	-0.694152	-0.617359
H82	H	1.282180	-0.576308	-1.079955
