data_functionalizedCrystal
_audit_creation_method	'MofGen! by Chris Wilmer'
_symmetry_space_group_name_H-M	'P1'
_symmetry_Int_Tables_number	1
_symmetry_cell_setting	triclinic
loop_
_symmetry_equiv_pos_as_xyz
  x,y,z
_cell_length_a	6.817900
_cell_length_b	15.301126
_cell_length_c	9.514088
_cell_angle_alpha	90.959771
_cell_angle_beta	118.843545
_cell_angle_gamma	104.177575
loop_
_atom_site_label
_atom_site_type_symbol
_atom_site_fract_x
_atom_site_fract_y
_atom_site_fract_z
V1	V	-4.221186	-0.126359	-0.501237
O2	O	-4.201232	0.004427	-0.491194
O3	O	-4.174995	-0.248966	-0.498292
O4	O	-4.255928	-0.125137	-0.719624
O5	O	-4.119739	-0.120260	-0.268330
V6	V	-4.693754	-0.110630	-0.473321
O7	O	-4.506474	-0.160861	-0.562474
O8	O	-4.858663	-0.076128	-0.412084
O9	O	-4.516738	0.011977	-0.476266
O10	O	-4.831105	-0.241416	-0.483365
O11	O	-4.912598	-0.116730	-0.706229
O12	O	-4.435806	-0.111852	-0.254935
C13	C	-4.017843	-0.278833	-0.490510
C14	C	-4.061918	-0.379071	-0.489558
C15	C	-4.267918	-0.430781	-0.497139
C16	C	-4.309325	-0.524966	-0.496254
C17	C	-4.144721	-0.567437	-0.487775
C18	C	-3.938707	-0.515721	-0.480198
C19	C	-3.897310	-0.421539	-0.481095
C20	C	-4.025001	-0.712026	-0.478325
C21	C	-4.066398	-0.806214	-0.477425
C22	C	-4.437016	-0.815453	-0.493484
C23	C	-4.395619	-0.721271	-0.494381
C24	C	-4.189605	-0.669560	-0.486801
C25	C	-4.121079	-0.120875	-0.772838
C26	C	-4.230782	-0.120687	-0.951373
C27	C	-4.337231	0.041839	-0.484044
C28	C	-4.272398	0.142076	-0.485007
C29	C	-4.233993	-0.116117	-0.201712
C30	C	-4.103528	-0.116300	-0.023175
H31	H	-3.804693	-0.550309	-0.473305
H32	H	-4.477069	-0.567065	-0.502430
H33	H	-3.910658	-0.112696	-0.948065
H34	H	-4.423673	-0.124302	-1.026495
H35	H	-3.857254	-0.669926	-0.472166
O36	O	-4.427555	-0.389459	-0.505083
C37	C	-4.322850	-0.322560	-0.366314
H38	H	-4.165984	-0.339457	-0.263781
H39	H	-4.455453	-0.321324	-0.326508
H40	H	-4.262451	-0.252807	-0.396438
O41	O	-4.555803	-0.680163	-0.502697
C42	C	-4.746489	-0.745994	-0.509160
H43	H	-4.755252	-0.816413	-0.557261
H44	H	-4.915605	-0.729120	-0.593403
H45	H	-4.722809	-0.745681	-0.382046
O46	O	-4.636907	-0.865747	-0.500611
C47	C	-4.580078	-0.907796	-0.360756
H48	H	-4.394787	-0.913676	-0.307073
H49	H	-4.708288	-0.978828	-0.394942
H50	H	-4.591207	-0.864888	-0.267165
O51	O	-3.906826	-0.847592	-0.469426
C52	C	-4.011526	-0.914461	-0.608234
H53	H	-4.209232	-0.936810	-0.661660
H54	H	-3.941554	-0.975882	-0.572772
H55	H	-3.968455	-0.884766	-0.702513
O56	O	-3.697027	-0.371432	-0.473643
C57	C	-3.560642	-0.429115	-0.466006
H58	H	-3.610903	-0.492971	-0.416618
H59	H	-3.367598	-0.391560	-0.382288
H60	H	-3.593137	-0.449459	-0.592930
