data_functionalizedCrystal
_audit_creation_method	'MofGen! by Chris Wilmer'
_symmetry_space_group_name_H-M	'P1'
_symmetry_Int_Tables_number	1
_symmetry_cell_setting	triclinic
loop_
_symmetry_equiv_pos_as_xyz
  x,y,z
_cell_length_a	17.019282
_cell_length_b	17.038272
_cell_length_c	15.500361
_cell_angle_alpha	93.042303
_cell_angle_beta	83.300157
_cell_angle_gamma	87.241387
loop_
_atom_site_label
_atom_site_type_symbol
_atom_site_fract_x
_atom_site_fract_y
_atom_site_fract_z
O1	O	1.053674	0.099213	-0.006583
O2	O	1.553674	0.599213	0.493417
O3	O	0.824049	0.112790	0.010532
O4	O	1.324049	0.612790	0.510532
O5	O	0.937497	-0.007807	0.002069
O6	O	1.437497	0.492193	0.502069
O7	O	0.940226	0.219811	0.001879
O8	O	1.440226	0.719811	0.501879
O9	O	0.944345	-0.015101	-0.142327
O10	O	1.444345	0.484899	0.357673
O11	O	0.830897	0.105496	-0.133865
O12	O	1.330897	0.605496	0.366135
O13	O	1.060522	0.091919	-0.150980
O14	O	1.560522	0.591919	0.349020
Cu15	Cu	0.946335	0.098042	-0.155607
Cu16	Cu	1.446335	0.598042	0.344393
Cu17	Cu	0.938236	0.106668	0.015159
Cu18	Cu	1.438236	0.606668	0.515159
O19	O	0.947074	0.212517	-0.142517
O20	O	1.447074	0.712517	0.357483
C21	C	0.797947	0.108774	-0.059466
C22	C	1.297947	0.608774	0.440534
C23	C	0.709968	0.107666	-0.052908
C24	C	1.209968	0.607666	0.447092
C25	C	0.672374	0.103167	-0.128540
C26	C	1.172374	0.603167	0.371460
C27	C	0.589709	0.102112	-0.122382
C28	C	1.089709	0.602112	0.377618
C29	C	0.544641	0.105563	-0.040590
C30	C	1.044641	0.605563	0.459410
C31	C	0.582242	0.110059	0.035048
C32	C	1.082242	0.610059	0.535048
C33	C	0.664905	0.111108	0.028888
C34	C	1.164905	0.611108	0.528888
C35	C	0.294866	0.102590	-0.018054
C36	C	0.794866	0.602590	0.481946
C37	C	0.212197	0.101543	-0.011900
C38	C	0.712197	0.601543	0.488100
C39	C	0.219670	0.093595	-0.169330
C40	C	0.719670	0.593595	0.330670
C41	C	0.302334	0.094649	-0.175482
C42	C	0.802334	0.594649	0.324518
C43	C	0.339928	0.099141	-0.099845
C44	C	0.839928	0.599141	0.400155
C45	C	0.460145	0.104487	-0.034293
C46	C	0.960145	0.604487	0.465707
C47	C	0.424423	0.100211	-0.106143
C48	C	0.924423	0.600211	0.393857
C49	C	0.938438	-0.040571	-0.069944
C50	C	1.438438	0.459429	0.430056
C51	C	0.931032	-0.127329	-0.069392
C52	C	1.431032	0.372671	0.430608
C53	C	0.999033	-0.177761	-0.074461
C54	C	1.499033	0.322239	0.425539
C55	C	0.992068	-0.259279	-0.073934
C56	C	1.492068	0.240721	0.426066
C57	C	0.917103	-0.290363	-0.068343
C58	C	1.417103	0.209637	0.431657
C59	C	0.849097	-0.239925	-0.063271
C60	C	1.349097	0.260075	0.436729
C61	C	0.856062	-0.158409	-0.063792
C62	C	1.356062	0.341591	0.436208
C63	C	0.892497	-0.536006	-0.066497
C64	C	1.392497	-0.036006	0.433503
C65	C	0.885538	-0.617529	-0.065979
C66	C	1.385538	-0.117529	0.434021
C67	C	1.028510	-0.636877	-0.076641
C68	C	1.528510	-0.136877	0.423359
C69	C	1.035468	-0.555358	-0.077166
C70	C	1.535468	-0.055358	0.422834
C71	C	0.967462	-0.504927	-0.072090
C72	C	1.467462	-0.004927	0.427910
C73	C	0.909983	-0.373687	-0.067807
C74	C	1.409983	0.126313	0.432193
C75	C	0.974583	-0.421604	-0.072620
C76	C	1.474583	0.078396	0.427380
C77	C	1.086624	0.095935	-0.080980
C78	C	1.586624	0.595935	0.419020
C79	C	1.174602	0.097044	-0.087532
C80	C	1.674602	0.597044	0.412468
C81	C	0.946132	0.245281	-0.070502
C82	C	1.446132	0.745281	0.429498
C83	C	0.953538	0.332040	-0.071049
C84	C	1.453538	0.832040	0.428951
N85	N	0.952037	0.091974	-0.275715
N86	N	1.452037	0.591974	0.224285
C87	C	0.903954	0.143056	-0.317426
C88	C	1.403954	0.643056	0.182574
C89	C	0.908289	0.138464	-0.408320
C90	C	1.408289	0.638464	0.091680
C91	C	0.960702	0.082786	-0.457501
C92	C	1.460702	0.582786	0.042499
C93	C	1.008790	0.031702	-0.415784
C94	C	1.508790	0.531702	0.084216
C95	C	1.004459	0.036298	-0.324892
C96	C	1.504459	0.536298	0.175108
C97	C	0.976297	0.066241	-0.732124
C98	C	1.476297	0.566241	-0.232124
C99	C	0.980623	0.061647	-0.823023
C100	C	1.480623	0.561647	-0.323023
C101	C	0.880122	0.168411	-0.815552
C102	C	1.380122	0.668411	-0.315552
C103	C	0.875792	0.172999	-0.724658
C104	C	1.375792	0.672999	-0.224658
C105	C	0.923883	0.121918	-0.682949
C106	C	1.423883	0.621918	-0.182949
C107	C	0.965132	0.078089	-0.550410
C108	C	1.465132	0.578089	-0.050410
C109	C	0.919456	0.126619	-0.590043
C110	C	1.419456	0.626619	-0.090043
N111	N	0.932540	0.112729	0.135266
N112	N	1.432540	0.612729	0.635266
H113	H	0.559105	0.098436	-0.183969
H114	H	1.059105	0.598436	0.316031
H115	H	0.695513	0.114773	0.090476
H116	H	1.195513	0.614773	0.590476
N117	N	0.850413	0.199922	-0.267179
N118	N	1.350413	0.699922	0.232821
N119	N	0.797193	0.177902	-0.212686
N120	N	1.297193	0.677902	0.287314
H121	H	0.759380	0.218066	-0.177200
H122	H	1.259380	0.718066	0.322800
N123	N	1.034192	0.004803	-0.873277
N124	N	1.534192	0.504803	-0.373277
N125	N	1.038062	0.000723	-0.954431
N126	N	1.538062	0.500723	-0.454431
H127	H	1.075900	-0.039413	-0.989926
H128	H	1.575900	0.460587	-0.489926
H129	H	1.047442	-0.300338	-0.078064
H130	H	1.547442	0.199662	0.421936
N131	N	0.823031	-0.484501	-0.061307
N132	N	1.323031	0.015499	0.438693
N133	N	0.771501	-0.484053	0.003184
N134	N	1.271501	0.015947	0.503184
H135	H	0.722436	-0.447675	0.006849
H136	H	1.222436	0.052325	0.506849
N137	N	1.053572	-0.015901	-0.282303
N138	N	1.553572	0.484099	0.217697
N139	N	1.101981	0.011206	-0.235359
N140	N	1.601981	0.511206	0.264641
H141	H	1.136670	-0.025670	-0.205294
H142	H	1.636670	0.474330	0.294706
H143	H	0.869136	0.180060	-0.442280
H144	H	1.369136	0.680060	0.057720
N145	N	0.822241	0.229873	-0.674436
N146	N	1.322241	0.729873	-0.174436
N147	N	0.779310	0.275476	-0.711690
N148	N	1.279310	0.775476	-0.211690
H149	H	0.741485	0.315640	-0.676221
H150	H	1.241485	0.815640	-0.176221
N151	N	0.348379	0.091098	-0.259026
N152	N	0.848379	0.591098	0.240974
N153	N	0.398928	0.035695	-0.280279
N154	N	0.898928	0.535695	0.219721
H155	H	0.431451	0.033186	-0.339281
H156	H	0.931451	0.533186	0.160719
H157	H	0.423441	0.107296	0.032302
H158	H	0.923441	0.607296	0.532302
H159	H	0.709062	0.100364	-0.195144
H160	H	1.209062	0.600364	0.304856
N161	N	0.470458	0.096712	-0.189686
N162	N	0.970458	0.596712	0.310314
N163	N	0.460140	0.149041	-0.241418
N164	N	0.960140	0.649041	0.258582
H165	H	0.492659	0.146577	-0.300420
H166	H	0.992659	0.646577	0.199580
H167	H	0.788058	-0.265240	-0.058714
H168	H	1.288058	0.234760	0.441286
H169	H	1.060078	-0.152460	-0.079019
H170	H	1.560078	0.347540	0.420981
H171	H	0.800688	-0.117347	-0.059664
H172	H	1.300688	0.382653	0.440336
N173	N	0.181256	0.089008	-0.246578
N174	N	0.681256	0.589008	0.253422
N175	N	0.107450	0.088073	-0.241072
N176	N	0.607450	0.588073	0.258928
H177	H	0.080319	0.084832	-0.295632
H178	H	0.580319	0.584832	0.204368
H179	H	1.015453	0.024647	-0.698172
H180	H	1.515453	0.524647	-0.198172
N181	N	0.831006	0.220580	-0.858171
N182	N	1.331006	0.720580	-0.358171
N183	N	0.834876	0.216471	-0.939325
N184	N	1.334876	0.716471	-0.439325
H185	H	0.800187	0.253317	-0.969426
H186	H	1.300187	0.753317	-0.469426
H187	H	1.035619	-0.396291	-0.077152
H188	H	1.535619	0.103709	0.422848
H189	H	0.545541	0.112863	0.101644
H190	H	1.045541	0.612863	0.601644
N191	N	0.166158	0.105047	0.071651
N192	N	0.666158	0.605047	0.571651
N193	N	0.122788	0.050251	0.092367
N194	N	0.622788	0.550251	0.592367
H195	H	0.090271	0.052725	0.151371
H196	H	0.590271	0.552725	0.651371
N197	N	0.333247	0.107179	0.059214
N198	N	0.833247	0.607179	0.559214
N199	N	0.292995	0.110261	0.132234
N200	N	0.792995	0.610261	0.632234
H201	H	0.320104	0.113503	0.186809
H202	H	0.820104	0.613503	0.686809
N203	N	1.112050	-0.523622	-0.082878
N204	N	1.612050	-0.023622	0.417122
N205	N	1.172761	-0.568660	-0.087403
N206	N	1.672761	-0.068660	0.412597
H207	H	1.226849	-0.546247	-0.091439
H208	H	1.726849	-0.046247	0.408561
N209	N	1.097964	-0.688402	-0.081827
N210	N	1.597964	-0.188402	0.418173
N211	N	1.091740	-0.761183	-0.081363
N212	N	1.591740	-0.261183	0.418637
H213	H	1.140795	-0.797575	-0.085025
H214	H	1.640795	-0.297575	0.414975
N215	N	1.062338	-0.025157	-0.466032
N216	N	1.562338	0.474843	0.033968
N217	N	1.066202	-0.029252	-0.547185
N218	N	1.566202	0.470748	-0.047185
H219	H	1.104022	-0.069409	-0.582674
H220	H	1.604022	0.430591	-0.082674
H221	H	0.824490	-0.642834	-0.061441
H222	H	1.324490	-0.142834	0.438559
H223	H	1.007807	0.032754	-0.590460
H224	H	1.507807	0.532754	-0.090460
H225	H	0.848945	-0.399006	-0.063257
H226	H	1.348945	0.100994	0.436743
N227	N	0.865930	0.183502	-0.539811
N228	N	1.365930	0.683502	-0.039811
N229	N	0.891896	0.234474	-0.491201
N230	N	1.391896	0.734474	0.008799
H231	H	0.854092	0.274648	-0.455718
H232	H	1.354092	0.774648	0.044282
