data_functionalizedCrystal
_audit_creation_method	'MofGen! by Chris Wilmer'
_symmetry_space_group_name_H-M	'P1'
_symmetry_Int_Tables_number	1
_symmetry_cell_setting	triclinic
loop_
_symmetry_equiv_pos_as_xyz
  x,y,z
_cell_length_a	6.817900
_cell_length_b	10.773972
_cell_length_c	10.773894
_cell_angle_alpha	96.486187
_cell_angle_beta	96.645922
_cell_angle_gamma	96.646171
loop_
_atom_site_label
_atom_site_type_symbol
_atom_site_fract_x
_atom_site_fract_y
_atom_site_fract_z
V1	V	-3.915801	-0.168033	-0.386968
V2	V	-3.415801	0.331967	0.113032
O3	O	-3.940462	0.012792	-0.381691
O4	O	-3.440462	0.512792	0.118309
O5	O	-3.834381	-0.337718	-0.382312
O6	O	-3.334381	0.162282	0.117688
O7	O	-3.834380	-0.163378	-0.556655
O8	O	-3.334380	0.336622	-0.056655
O9	O	-3.940463	-0.162755	-0.206141
O10	O	-3.440463	0.337245	0.293859
V11	V	-4.407986	-0.146649	-0.365584
V12	V	-3.907986	0.353351	0.134416
O13	O	-4.158058	-0.214941	-0.433876
O14	O	-3.658058	0.285059	0.066124
O15	O	-4.615927	-0.099741	-0.318676
O16	O	-4.115927	0.400259	0.181324
O17	O	-4.266200	0.023037	-0.370239
O18	O	-3.766200	0.523037	0.129761
O19	O	-4.500722	-0.327474	-0.370861
O20	O	-4.000722	0.172526	0.129139
O21	O	-4.500721	-0.151927	-0.546410
O22	O	-4.000721	0.348073	-0.046410
O23	O	-4.266201	-0.151303	-0.195897
O24	O	-3.766201	0.348697	0.304103
C25	C	-3.672417	-0.379149	-0.375689
C26	C	-3.172417	0.120851	0.124311
C27	C	-3.686913	-0.517855	-0.373013
C28	C	-3.186913	-0.017855	0.126987
C29	C	-3.879078	-0.729023	-0.374892
C30	C	-3.379078	-0.229023	0.125108
C31	C	-3.864100	-0.585664	-0.377664
C32	C	-3.364100	-0.085664	0.122336
C33	C	-3.672415	-0.156759	-0.598079
C34	C	-3.172415	0.343241	-0.098079
C35	C	-3.686909	-0.154076	-0.736785
C36	C	-3.186909	0.345924	-0.236785
C37	C	-3.864079	-0.158726	-0.804593
C38	C	-3.364079	0.341274	-0.304593
C39	C	-3.879064	-0.155953	-0.947953
C40	C	-3.379064	0.344047	-0.447953
C41	C	-4.091505	0.064460	-0.376859
C42	C	-3.591505	0.564460	0.123141
C43	C	-4.056245	0.203166	-0.379543
C44	C	-3.556245	0.703166	0.120457
C45	C	-4.091508	-0.157927	-0.154466
C46	C	-3.591508	0.342073	0.345534
C47	C	-4.056254	-0.160604	-0.015759
C48	C	-3.556254	0.339396	0.484241
H49	H	-4.196837	-0.748757	-0.385582
H50	H	-3.696837	-0.248757	0.114418
H51	H	-3.546308	-0.565927	-0.366987
H52	H	-3.046308	-0.065927	0.133013
H53	H	-3.546320	-0.148034	-0.784865
H54	H	-3.046320	0.351966	-0.284865
H55	H	-4.004666	-0.164751	-0.756510
H56	H	-3.504666	0.335249	-0.256510
H57	H	-4.196857	-0.166642	-0.967685
H58	H	-3.696857	0.333358	-0.467685
H59	H	-4.004705	-0.537592	-0.383704
H60	H	-3.504705	-0.037592	0.116296
H61	H	-3.738462	-0.149910	-0.996028
H62	H	-3.238462	0.350090	-0.496028
H63	H	-3.738488	-0.777102	-0.368866
H64	H	-3.238488	-0.277102	0.131134
