data_functionalizedCrystal
_audit_creation_method	'MofGen! by Chris Wilmer'
_symmetry_space_group_name_H-M	'P1'
_symmetry_Int_Tables_number	1
_symmetry_cell_setting	triclinic
loop_
_symmetry_equiv_pos_as_xyz
  x,y,z
_cell_length_a	18.101395
_cell_length_b	18.101398
_cell_length_c	18.101389
_cell_angle_alpha	89.975673
_cell_angle_beta	90.016841
_cell_angle_gamma	89.973629
loop_
_atom_site_label
_atom_site_type_symbol
_atom_site_fract_x
_atom_site_fract_y
_atom_site_fract_z
Zn1	Zn	-0.295001	-1.132121	0.418847
Zn2	Zn	0.204999	-0.632121	0.918847
Zn3	Zn	-0.418826	-1.132017	0.295009
Zn4	Zn	0.081174	-0.632017	0.795009
Zn5	Zn	-0.294993	-1.008280	0.295008
Zn6	Zn	0.205007	-0.508280	0.795008
Zn7	Zn	-0.418795	-1.008231	0.418797
Zn8	Zn	0.081205	-0.508231	0.918797
O9	O	-0.356904	-1.070162	0.356915
O10	O	0.143096	-0.570162	0.856915
O11	O	-0.311443	-1.235740	0.402440
O12	O	0.188557	-0.735740	0.902440
O13	O	-0.402410	-1.115580	0.191376
O14	O	0.097590	-0.615580	0.691376
O15	O	-0.191361	-1.024772	0.311456
O16	O	0.308639	-0.524772	0.811456
O17	O	-0.402417	-1.235664	0.311457
O18	O	0.097583	-0.735664	0.811457
O19	O	-0.191367	-1.115757	0.402440
O20	O	0.308633	-0.615757	0.902440
O21	O	-0.311430	-1.024671	0.191375
O22	O	0.188570	-0.524671	0.691375
O23	O	-0.311399	-0.904641	0.311408
O24	O	0.188601	-0.404641	0.811408
O25	O	-0.402363	-1.024688	0.522437
O26	O	0.097637	-0.524688	1.022437
O27	O	-0.402356	-0.904604	0.402355
O28	O	0.097644	-0.404604	0.902355
O29	O	-0.311412	-1.115710	0.522473
O30	O	0.188588	-0.615710	1.022473
O31	O	-0.522455	-1.115532	0.311409
O32	O	-0.022455	-0.615532	0.811409
O33	O	-0.522432	-1.024587	0.402356
O34	O	-0.022432	-0.524587	0.902356
C35	C	-0.356874	-0.877752	0.356877
C36	C	0.143126	-0.377752	0.856877
C37	C	-0.356879	-0.795437	0.356878
C38	C	0.143121	-0.295437	0.856878
C39	C	-0.549314	-1.070063	0.356893
C40	C	-0.049314	-0.570063	0.856893
C41	C	-0.631628	-1.070088	0.356909
C42	C	-0.131628	-0.570088	0.856909
C43	C	-0.356885	-1.070205	0.550077
C44	C	0.143115	-0.570205	1.050077
C45	C	-0.356877	-1.070223	0.632391
C46	C	0.143123	-0.570223	1.132391
C47	C	-0.930719	-1.070251	0.356949
C48	C	-0.430719	-0.570251	0.856949
C49	C	-0.899410	-1.013163	0.414312
C50	C	-0.399410	-0.513163	0.914312
C51	C	-0.813792	-1.012892	0.414133
C52	C	-0.313792	-0.512892	0.914133
C53	C	-0.782337	-1.070170	0.356930
C54	C	-0.282337	-0.570170	0.856930
C55	C	-0.813472	-1.049041	0.278878
C56	C	-0.313472	-0.549041	0.778878
C57	C	-0.899117	-1.048673	0.279221
C58	C	-0.399117	-0.548673	0.779221
C59	C	-0.899073	-1.148593	0.376950
C60	C	-0.399073	-0.648593	0.876950
C61	C	-0.813422	-1.148132	0.378661
C62	C	-0.313422	-0.648132	0.878661
C63	C	-0.698477	-1.070126	0.356914
C64	C	-0.198477	-0.570126	0.856914
C65	C	-1.014579	-1.070293	0.356959
C66	C	-0.514579	-0.570293	0.856959
C67	C	-0.163742	-1.070282	0.356953
C68	C	0.336258	-0.570282	0.856953
C69	C	-0.081428	-1.070333	0.356970
C70	C	0.418572	-0.570333	0.856970
C71	C	-0.356934	-1.263324	0.356954
C72	C	0.143066	-0.763324	0.856954
C73	C	-0.356948	-1.345638	0.356971
C74	C	0.143052	-0.845638	0.856971
C75	C	-0.356925	-0.496347	0.356940
C76	C	0.143075	0.003653	0.856940
C77	C	-0.299412	-0.527670	0.299997
C78	C	0.200588	-0.027670	0.799997
C79	C	-0.299566	-0.613288	0.299754
C80	C	0.200434	-0.113288	0.799754
C81	C	-0.356901	-0.644729	0.356909
C82	C	0.143099	-0.144729	0.856909
C83	C	-0.434909	-0.613611	0.335587
C84	C	0.065091	-0.113611	0.835587
C85	C	-0.434590	-0.527966	0.335191
C86	C	0.065410	-0.027966	0.835191
C87	C	-0.337109	-0.527961	0.435339
C88	C	0.162891	-0.027961	0.935339
C89	C	-0.335371	-0.613612	0.434911
C90	C	0.164629	-0.113612	0.934911
C91	C	-0.356893	-0.728589	0.356893
C92	C	0.143107	-0.228589	0.856893
C93	C	-0.356939	-0.412487	0.356954
C94	C	0.143061	0.087513	0.856954
C95	C	-0.356869	-1.070162	0.164505
C96	C	0.143131	-0.570162	0.664505
C97	C	-0.356668	-1.070287	0.082191
C98	C	0.143332	-0.570287	0.582191
C99	C	-0.356738	-1.070266	0.931482
C100	C	0.143262	-0.570266	1.431482
C101	C	-0.413780	-1.012801	0.900134
C102	C	0.086220	-0.512801	1.400134
C103	C	-0.414045	-1.012956	0.814516
C104	C	0.085955	-0.512956	1.314516
C105	C	-0.356807	-1.070244	0.783100
C106	C	0.143193	-0.570244	1.283100
C107	C	-0.377998	-1.148270	0.814206
C108	C	0.122002	-0.648270	1.314206
C109	C	-0.378372	-1.147949	0.899851
C110	C	0.121628	-0.647949	1.399851
C111	C	-0.278379	-1.050385	0.899905
C112	C	0.221621	-0.550385	1.399905
C113	C	-0.278832	-1.048649	0.814254
C114	C	0.221168	-0.548649	1.314254
C115	C	-0.356845	-1.070237	0.699240
C116	C	0.143155	-0.570237	1.199240
C117	C	-0.356702	-1.070279	1.015342
C118	C	0.143298	-0.570279	1.515342
H119	H	-0.792740	-1.026111	0.472007
H120	H	-0.292740	-0.526111	0.972007
Cl121	Cl	-0.393514	-0.923197	0.931909
Cl122	Cl	0.106486	-0.423197	1.431909
Cl123	Cl	-0.782244	-0.923237	0.393680
Cl124	Cl	-0.282244	-0.423237	0.893680
Cl125	Cl	-0.931155	-1.033365	0.503958
Cl126	Cl	-0.431155	-0.533365	1.003958
Cl127	Cl	-0.503710	-1.033264	0.782890
Cl128	Cl	-0.003710	-0.533264	1.282890
Cl129	Cl	-0.502843	-0.645041	0.397619
Cl130	Cl	-0.002843	-0.145041	0.897619
H131	H	-0.400784	-0.955097	0.793483
H132	H	0.099216	-0.455097	1.293483
Cl133	Cl	-0.932742	-0.924056	0.394131
Cl134	Cl	-0.432742	-0.424056	0.894131
Cl135	Cl	-0.930054	-0.960257	0.253066
Cl136	Cl	-0.430054	-0.460257	0.753066
H137	H	-0.919830	-1.088449	0.235023
H138	H	-0.419830	-0.588449	0.735023
H139	H	-0.312363	-0.506120	0.242242
H140	H	0.187637	-0.006120	0.742242
H141	H	-0.234076	-1.087450	0.792868
H142	H	0.265924	-0.587450	1.292868
Cl143	Cl	-0.782003	-1.172736	0.467347
Cl144	Cl	-0.282003	-0.672736	0.967347
H145	H	-0.478892	-0.507244	0.374857
H146	H	0.021108	-0.007244	0.874857
Cl147	Cl	-0.209824	-0.495911	0.320401
Cl148	Cl	0.290176	0.004089	0.820401
H149	H	-0.471508	-1.025796	0.921661
H150	H	0.028492	-0.525796	1.421661
Cl151	Cl	-0.395338	-0.646653	0.503926
Cl152	Cl	0.104662	-0.146653	1.003926
H153	H	-0.378999	-0.507705	0.477766
H154	H	0.121001	-0.007705	0.977766
Cl155	Cl	-0.782017	-1.111215	0.211087
Cl156	Cl	-0.282017	-0.611215	0.711087
Cl157	Cl	-0.466810	-1.173969	0.930710
Cl158	Cl	0.033190	-0.673969	1.430710
H159	H	-0.452008	-0.635026	0.278892
H160	H	0.047992	-0.135026	0.778892
Cl161	Cl	-0.250812	-0.494660	0.465269
Cl162	Cl	0.249188	0.005340	0.965269
Cl163	Cl	-0.316972	-1.216255	0.931875
Cl164	Cl	0.183028	-0.716255	1.431875
H165	H	-0.337757	-1.192236	0.793859
H166	H	0.162243	-0.692236	1.293859
H167	H	-0.792080	-0.992380	0.261633
H168	H	-0.292080	-0.492380	0.761633
Cl169	Cl	-0.465497	-1.174744	0.781107
Cl170	Cl	0.034503	-0.674744	1.281107
H171	H	-0.792007	-1.192915	0.339927
H172	H	-0.292007	-0.692915	0.839927
H173	H	-0.259074	-0.994478	0.921490
H174	H	0.240926	-0.494478	1.421490
H175	H	-0.920633	-1.167856	0.432895
H176	H	-0.420633	-0.667856	0.932895
Cl177	Cl	-0.246749	-0.645034	0.459745
Cl178	Cl	0.253251	-0.145034	0.959745
Cl179	Cl	-0.319786	-0.644872	0.210062
Cl180	Cl	0.180214	-0.144872	0.710062
H181	H	-0.262852	-0.991229	0.793921
H182	H	0.237148	-0.491229	1.293921
Cl183	Cl	-0.930346	-1.214263	0.312458
Cl184	Cl	-0.430346	-0.714263	0.812458
H185	H	-0.235880	-1.092240	0.920179
H186	H	0.264120	-0.592240	1.420179
H187	H	-0.451397	-0.507954	0.277877
H188	H	0.048603	-0.007954	0.777877
Cl189	Cl	-0.210254	-0.645776	0.320386
Cl190	Cl	0.289746	-0.145776	0.820386
