data_functionalizedCrystal
_audit_creation_method	'MofGen! by Chris Wilmer'
_symmetry_space_group_name_H-M	'P1'
_symmetry_Int_Tables_number	1
_symmetry_cell_setting	triclinic
loop_
_symmetry_equiv_pos_as_xyz
  x,y,z
_cell_length_a	16.120256
_cell_length_b	15.296363
_cell_length_c	15.297475
_cell_angle_alpha	88.375937
_cell_angle_beta	83.675350
_cell_angle_gamma	82.671063
loop_
_atom_site_label
_atom_site_type_symbol
_atom_site_fract_x
_atom_site_fract_y
_atom_site_fract_z
Zn1	Zn	-0.572790	-0.606217	1.242960
Zn2	Zn	-0.408666	-0.745472	1.227777
Zn3	Zn	-0.416727	-0.573966	1.106234
Zn4	Zn	-0.526719	-0.725247	1.074000
O5	O	-0.481226	-0.662725	1.162743
O6	O	-0.566926	-0.646650	1.362523
O7	O	-0.295017	-0.717688	1.218789
O8	O	-0.460084	-0.456654	1.144215
O9	O	-0.446344	-0.748960	1.351367
O10	O	-0.574743	-0.480348	1.244667
O11	O	-0.300939	-0.591684	1.129492
O12	O	-0.415411	-0.572073	0.980381
O13	O	-0.647549	-0.714490	1.089277
O14	O	-0.496222	-0.683218	0.956699
O15	O	-0.681397	-0.627039	1.213412
O16	O	-0.401671	-0.864379	1.187533
O17	O	-0.488405	-0.849520	1.074554
C18	C	-0.451692	-0.621952	0.937017
C19	C	-0.439073	-0.604531	0.840445
C20	C	-0.695050	-0.672106	1.149443
C21	C	-0.786170	-0.676104	1.143775
C22	C	-0.439185	-0.888482	1.125921
C23	C	-0.421237	-0.985077	1.110246
C24	C	-1.010360	-0.641856	1.192301
C25	C	-0.953005	-0.683361	1.133404
C26	C	-0.860170	-0.679322	1.139176
C27	C	-1.103204	-0.645895	1.186530
C28	C	-0.268251	-0.653328	1.176051
C29	C	-0.177200	-0.649116	1.181927
C30	C	-0.609625	-1.306396	1.275124
C31	C	-0.626488	-1.215641	1.289857
C32	C	-0.575177	-1.157996	1.244955
C33	C	-0.507000	-1.191114	1.185318
C34	C	-0.490132	-1.281878	1.170589
C35	C	-0.455683	-1.133478	1.140420
C36	C	-0.387506	-1.166596	1.080784
C37	C	-0.370641	-1.257352	1.066056
C38	C	-0.421952	-1.314997	1.110958
C39	C	-0.472552	-1.042714	1.155150
C40	C	-0.353058	-1.018196	1.050615
C41	C	-0.336195	-1.108951	1.035882
C42	C	-0.523452	-0.436092	1.199730
C43	C	-0.541446	-0.339515	1.215492
C44	C	-0.571416	-0.787244	0.518968
C45	C	-0.583269	-0.803619	0.609700
C46	C	-0.547221	-0.753848	0.667391
C47	C	-0.499319	-0.687700	0.634340
C48	C	-0.487459	-0.671329	0.543598
C49	C	-0.463264	-0.637932	0.692021
C50	C	-0.415361	-0.571785	0.658971
C51	C	-0.403505	-0.555416	0.568238
C52	C	-0.439552	-0.605186	0.510547
C53	C	-0.475124	-0.654304	0.782763
C54	C	-0.391166	-0.538388	0.807394
C55	C	-0.379314	-0.522014	0.716662
C56	C	-0.510875	-0.703659	1.389350
C57	C	-0.523510	-0.721102	1.485916
H58	H	-0.973624	-0.721921	1.078641
Cl59	Cl	-0.424660	-0.584599	0.396478
H60	H	-0.408226	-1.388899	1.098965
Cl61	Cl	-0.343276	-0.472265	0.526690
Cl62	Cl	-0.319095	-0.438859	0.675101
H63	H	-0.311275	-0.971261	1.014054
H64	H	-0.989742	-0.603294	1.247055
Cl65	Cl	-0.558258	-1.001090	1.230119
H66	H	-0.588911	-1.084100	1.256955
H67	H	-0.622270	-0.857479	0.636603
Cl68	Cl	-0.712194	-1.174013	1.364824
Cl69	Cl	-0.674117	-1.378867	1.331570
Cl70	Cl	-0.284925	-1.298985	0.991094
Cl71	Cl	-0.250491	-1.150596	0.960911
Cl72	Cl	-0.535343	-0.737458	0.824302
Cl73	Cl	-0.345842	-0.475819	0.879913
H74	H	-0.556875	-0.767184	0.741269
H75	H	-0.600755	-0.827766	0.471988
