data_functionalizedCrystal
_audit_creation_method	'MofGen! by Chris Wilmer'
_symmetry_space_group_name_H-M	'P1'
_symmetry_Int_Tables_number	1
_symmetry_cell_setting	triclinic
loop_
_symmetry_equiv_pos_as_xyz
  x,y,z
_cell_length_a	16.959455
_cell_length_b	12.645330
_cell_length_c	16.959447
_cell_angle_alpha	90.026070
_cell_angle_beta	90.014322
_cell_angle_gamma	90.014639
loop_
_atom_site_label
_atom_site_type_symbol
_atom_site_fract_x
_atom_site_fract_y
_atom_site_fract_z
Zn1	Zn	1.208397	-0.422105	0.446932
Zn2	Zn	1.208325	-0.599396	0.314763
Zn3	Zn	1.076225	-0.422138	0.314770
Zn4	Zn	1.076195	-0.599317	0.446902
O5	O	1.142286	-0.510739	0.380842
O6	O	1.318998	-0.445642	0.429410
O7	O	1.190784	-0.575930	0.204153
O8	O	1.093801	-0.273786	0.332316
O9	O	1.318945	-0.575898	0.332306
O10	O	1.190907	-0.273762	0.429416
O11	O	1.093731	-0.445699	0.204158
O12	O	0.965610	-0.445622	0.332287
O13	O	1.093750	-0.575763	0.557517
O14	O	0.965589	-0.575795	0.429364
O15	O	1.190878	-0.445565	0.557539
O16	O	1.190755	-0.747733	0.332277
O17	O	1.093680	-0.747675	0.429358
C18	C	0.936919	-0.510704	0.380824
C19	C	0.849063	-0.510715	0.380835
C20	C	1.142228	-0.786169	0.380831
C21	C	1.142276	-0.903999	0.380852
C22	C	0.477574	-0.442903	0.330399
C23	C	0.477600	-0.578663	0.431329
C24	C	0.560146	-0.578648	0.431325
C25	C	0.601410	-0.510760	0.380855
C26	C	0.560128	-0.442888	0.330391
C27	C	0.601434	-0.646526	0.481782
C28	C	0.683985	-0.646515	0.481779
C29	C	0.725251	-0.578621	0.431313
C30	C	0.683963	-0.510745	0.380847
C31	C	0.725227	-0.442857	0.330378
C32	C	0.683941	-0.374975	0.279916
C33	C	0.601393	-0.374994	0.279925
C34	C	0.807799	-0.578602	0.431304
C35	C	0.807781	-0.442842	0.330370
C36	C	1.081458	-1.071570	0.442115
C37	C	1.081147	-0.949011	0.441918
C38	C	1.119734	-0.948594	0.297551
C39	C	1.119363	-1.071192	0.297922
C40	C	1.226007	-1.071094	0.402216
C41	C	1.225494	-0.948487	0.404038
C42	C	1.348454	-0.510775	0.380860
C43	C	1.436310	-0.510790	0.380868
C44	C	1.142319	-0.510651	0.587010
C45	C	1.142333	-0.510614	0.674867
C46	C	1.142365	-0.234234	0.380870
C47	C	1.142399	-0.116404	0.380882
C48	C	1.142298	-0.510750	0.175475
C49	C	1.142437	-0.510489	0.087619
C50	C	1.091857	-0.578290	1.046333
C51	C	1.192997	-0.442715	1.046352
C52	C	1.192976	-0.442737	0.963806
C53	C	1.142395	-0.510538	0.922520
C54	C	1.091836	-0.578317	0.963780
C55	C	1.243540	-0.374967	0.922539
C56	C	1.243522	-0.374988	0.839988
C57	C	1.192937	-0.442784	0.798701
C58	C	1.142375	-0.510565	0.839966
C59	C	1.091794	-0.578366	0.798680
C60	C	1.041227	-0.646142	0.839944
C61	C	1.041251	-0.646113	0.922492
C62	C	1.192913	-0.442813	0.716153
C63	C	1.091773	-0.578393	0.716127
H64	H	0.841372	-0.387553	0.289276
C65	C	1.036128	-0.652979	0.670719
N66	N	0.994215	-0.709158	0.636518
H67	H	1.284696	-0.319800	0.806398
H68	H	0.717593	-0.701788	0.522869
C69	C	0.555973	-0.300334	0.224419
N70	N	0.521759	-0.244104	0.182610
C71	C	0.729342	-0.300297	0.224405
N72	N	0.763541	-0.244048	0.182597
H73	H	1.019862	-1.102467	0.428161
H74	H	1.095430	-1.100982	0.504085
H75	H	0.841410	-0.633874	0.472387
H76	H	1.234182	-0.387520	1.079971
C77	C	0.432160	-0.368235	0.274894
N78	N	0.397953	-0.311995	0.233086
C79	C	0.997396	-0.909506	0.422881
N80	N	0.934307	-0.879752	0.408562
C81	C	1.248534	-0.368265	0.670766
N82	N	1.290429	-0.312110	0.636582
H83	H	0.443998	-0.633940	0.472414
H84	H	1.058245	-1.099880	0.279850
H85	H	0.567831	-0.701804	0.522866
H86	H	1.000048	-0.701350	0.806318
H87	H	1.000085	-0.701296	0.956097
C88	C	1.176717	-1.111266	0.234179
N89	N	1.219910	-1.141446	0.186164
C90	C	1.100195	-0.908271	0.525364
N91	N	1.114539	-0.877590	0.588220
C92	C	1.036231	-0.652832	1.091723
N93	N	0.994331	-0.708976	1.125912
H94	H	1.271410	-1.100086	0.357618
H95	H	1.284725	-0.319774	0.956160
H96	H	1.059254	-0.917979	0.279151
C97	C	1.253786	-1.112755	0.482886
N98	N	1.274700	-1.144134	0.543651
C99	C	1.177792	-0.909201	0.234228
N100	N	1.221522	-0.879526	0.186534
H101	H	1.242493	-0.919336	0.465343
H102	H	1.273288	-0.917841	0.362687
