data_functionalizedCrystal
_audit_creation_method	'MofGen! by Chris Wilmer'
_symmetry_space_group_name_H-M	'P1'
_symmetry_Int_Tables_number	1
_symmetry_cell_setting	triclinic
loop_
_symmetry_equiv_pos_as_xyz
  x,y,z
_cell_length_a	18.050590
_cell_length_b	18.050589
_cell_length_c	18.050582
_cell_angle_alpha	89.981795
_cell_angle_beta	89.999233
_cell_angle_gamma	89.982614
loop_
_atom_site_label
_atom_site_type_symbol
_atom_site_fract_x
_atom_site_fract_y
_atom_site_fract_z
Zn1	Zn	1.135292	0.295921	0.419624
Zn2	Zn	1.385292	0.545921	0.669624
Zn3	Zn	1.635292	0.795921	0.919624
Zn4	Zn	1.885292	1.045921	1.169624
Zn5	Zn	1.135203	0.420105	0.295444
Zn6	Zn	1.385203	0.670105	0.545444
Zn7	Zn	1.635203	0.920105	0.795444
Zn8	Zn	1.885203	1.170105	1.045444
Zn9	Zn	1.011112	0.295910	0.295482
Zn10	Zn	1.261112	0.545910	0.545482
Zn11	Zn	1.511112	0.795910	0.795482
Zn12	Zn	1.761112	1.045910	1.045482
Zn13	Zn	1.011060	0.420051	0.419626
Zn14	Zn	1.261060	0.670051	0.669626
Zn15	Zn	1.511060	0.920051	0.919626
Zn16	Zn	1.761060	1.170051	1.169626
O17	O	1.073167	0.357997	0.357544
O18	O	1.323167	0.607997	0.607544
O19	O	1.573167	0.857997	0.857544
O20	O	1.823167	1.107997	1.107544
O21	O	1.239205	0.312422	0.403134
O22	O	1.489205	0.562422	0.653134
O23	O	1.739205	0.812422	0.903134
O24	O	1.989205	1.062422	1.153134
O25	O	1.118727	0.403648	0.191524
O26	O	1.368727	0.653648	0.441524
O27	O	1.618727	0.903648	0.691524
O28	O	1.868727	1.153648	0.941524
O29	O	1.027644	0.191987	0.311965
O30	O	1.277644	0.441987	0.561965
O31	O	1.527644	0.691987	0.811965
O32	O	1.777644	0.941987	1.061965
O33	O	1.239140	0.403659	0.311899
O34	O	1.489140	0.653659	0.561899
O35	O	1.739140	0.903659	0.811899
O36	O	1.989140	1.153659	1.061899
O37	O	1.118879	0.191995	0.403172
O38	O	1.368879	0.441995	0.653172
O39	O	1.618879	0.691995	0.903172
O40	O	1.868879	0.941995	1.153172
O41	O	1.027557	0.312402	0.191553
O42	O	1.277557	0.562402	0.441553
O43	O	1.527557	0.812402	0.691553
O44	O	1.777557	1.062402	0.941553
O45	O	0.907180	0.312350	0.311967
O46	O	1.157180	0.562350	0.561967
O47	O	1.407180	0.812350	0.811967
O48	O	1.657180	1.062350	1.061967
O49	O	1.027555	0.403567	0.523550
O50	O	1.277555	0.653567	0.773550
O51	O	1.527555	0.903567	1.023550
O52	O	1.777555	1.153567	1.273550
O53	O	0.907142	0.403555	0.403175
O54	O	1.157142	0.653555	0.653175
O55	O	1.407142	0.903555	0.903175
O56	O	1.657142	1.153555	1.153175
O57	O	1.118828	0.312370	0.523549
O58	O	1.368828	0.562370	0.773549
O59	O	1.618828	0.812370	1.023549
O60	O	1.868828	1.062370	1.273549
O61	O	1.118676	0.524022	0.311901
O62	O	1.368676	0.774022	0.561901
O63	O	1.618676	1.024022	0.811901
O64	O	1.868676	1.274022	1.061901
O65	O	1.027468	0.523982	0.403138
O66	O	1.277468	0.773982	0.653138
O67	O	1.527468	1.023982	0.903138
O68	O	1.777468	1.273982	1.153138
C69	C	0.880215	0.357946	0.357576
C70	C	1.130215	0.607946	0.607576
C71	C	1.380215	0.857946	0.857576
C72	C	1.630215	1.107946	1.107576
C73	C	0.797669	0.357942	0.357607
C74	C	1.047669	0.607942	0.607607
C75	C	1.297669	0.857942	0.857607
C76	C	1.547669	1.107942	1.107607
C77	C	0.598219	0.407682	0.407088
C78	C	0.848219	0.657682	0.657088
C79	C	1.098219	0.907682	0.907088
C80	C	1.348219	1.157682	1.157088
C81	C	0.548826	0.339967	0.425358
C82	C	0.798826	0.589967	0.675358
C83	C	1.048826	0.839967	0.925358
C84	C	1.298826	1.089967	1.175358
C85	C	0.646538	0.357984	0.357571
C86	C	0.896538	0.607984	0.607571
C87	C	1.146538	0.857984	0.857571
C88	C	1.396538	1.107984	1.107571
C89	C	0.548850	0.425737	0.339300
C90	C	0.798850	0.675737	0.589300
C91	C	1.048850	0.925737	0.839300
C92	C	1.298850	1.175737	1.089300
C93	C	0.500553	0.358030	0.357537
C94	C	0.750553	0.608030	0.607537
C95	C	1.000553	0.858030	0.857537
C96	C	1.250553	1.108030	1.107537
C97	C	0.598233	0.290233	0.375876
C98	C	0.848233	0.540233	0.625876
C99	C	1.098233	0.790233	0.875876
C100	C	1.348233	1.040233	1.125876
C101	C	0.598261	0.376049	0.289787
C102	C	0.848261	0.626049	0.539787
C103	C	1.098261	0.876049	0.789787
C104	C	1.348261	1.126049	1.039787
C105	C	0.548890	0.308287	0.308031
C106	C	0.798890	0.558287	0.558031
C107	C	1.048890	0.808287	0.808031
C108	C	1.298890	1.058287	1.058031
C109	C	0.730637	0.357958	0.357592
C110	C	0.980637	0.607958	0.607592
C111	C	1.230637	0.857958	0.857592
C112	C	1.480637	1.107958	1.107592
C113	C	0.416457	0.358047	0.357516
C114	C	0.666457	0.608047	0.607516
C115	C	0.916457	0.858047	0.857516
C116	C	1.166457	1.108047	1.107516
C117	C	1.073077	0.550949	0.357532
C118	C	1.323077	0.800949	0.607532
C119	C	1.573077	1.050949	0.857532
C120	C	1.823077	1.300949	1.107532
C121	C	1.073107	0.633494	0.357551
C122	C	1.323107	0.883494	0.607551
C123	C	1.573107	1.133494	0.857551
C124	C	1.823107	1.383494	1.107551
C125	C	1.073196	0.357964	0.551250
C126	C	1.323196	0.607964	0.801250
C127	C	1.573196	0.857964	1.051250
C128	C	1.823196	1.107964	1.301250
C129	C	1.073208	0.357950	0.633796
C130	C	1.323208	0.607950	0.883796
C131	C	1.573208	0.857950	1.133796
C132	C	1.823208	1.107950	1.383796
C133	C	1.266872	0.358048	0.357512
C134	C	1.516872	0.608048	0.607512
C135	C	1.766872	0.858048	0.857512
C136	C	2.016872	1.108048	1.107512
C137	C	1.349418	0.358070	0.357499
C138	C	1.599418	0.608070	0.607499
C139	C	1.849418	0.858070	0.857499
C140	C	2.099418	1.108070	1.107499
C141	C	1.073277	0.164291	0.357573
C142	C	1.323277	0.414291	0.607573
C143	C	1.573277	0.664291	0.857573
C144	C	1.823277	0.914291	1.107573
C145	C	1.073324	0.081745	0.357585
C146	C	1.323324	0.331745	0.607585
C147	C	1.573324	0.581745	0.857585
C148	C	1.823324	0.831745	1.107585
C149	C	1.023557	0.832950	0.407148
C150	C	1.273557	1.082950	0.657148
C151	C	1.523557	1.332950	0.907148
C152	C	1.773557	1.582950	1.157148
C153	C	1.005459	0.882381	0.339386
C154	C	1.255459	1.132381	0.589386
C155	C	1.505459	1.382381	0.839386
C156	C	1.755459	1.632381	1.089386
C157	C	1.073180	0.784625	0.357561
C158	C	1.323180	1.034625	0.607561
C159	C	1.573180	1.284625	0.857561
C160	C	1.823180	1.534625	1.107561
C161	C	1.091314	0.882276	0.425331
C162	C	1.341314	1.132276	0.675331
C163	C	1.591314	1.382276	0.925331
C164	C	1.841314	1.632276	1.175331
C165	C	1.073249	0.930610	0.357576
C166	C	1.323249	1.180610	0.607576
C167	C	1.573249	1.430610	0.857576
C168	C	1.823249	1.680610	1.107576
C169	C	1.055046	0.832968	0.289763
C170	C	1.305046	1.082968	0.539763
C171	C	1.555046	1.332968	0.789763
C172	C	1.805046	1.582968	1.039763
C173	C	1.140933	0.832859	0.375754
C174	C	1.390933	1.082859	0.625754
C175	C	1.640933	1.332859	0.875754
C176	C	1.890933	1.582859	1.125754
C177	C	1.122861	0.882267	0.307945
C178	C	1.372861	1.132267	0.557945
C179	C	1.622861	1.382267	0.807945
C180	C	1.872861	1.632267	1.057945
C181	C	1.073138	0.700527	0.357553
C182	C	1.323138	0.950527	0.607553
C183	C	1.573138	1.200527	0.857553
C184	C	1.823138	1.450527	1.107553
C185	C	1.073290	1.014706	0.357576
C186	C	1.323290	1.264706	0.607576
C187	C	1.573290	1.514706	0.857576
C188	C	1.823290	1.764706	1.107576
C189	C	1.073180	0.357976	0.164592
C190	C	1.323180	0.607976	0.414592
C191	C	1.573180	0.857976	0.664592
C192	C	1.823180	1.107976	0.914592
C193	C	1.073312	0.357781	0.082047
C194	C	1.323312	0.607781	0.332047
C195	C	1.573312	0.857781	0.582047
C196	C	1.823312	1.107781	0.832047
C197	C	1.023612	0.407475	0.833247
C198	C	1.273612	0.657475	1.083247
C199	C	1.523612	0.907475	1.333247
C200	C	1.773612	1.157475	1.583247
C201	C	1.091367	0.425641	0.882621
C202	C	1.341367	0.675641	1.132621
C203	C	1.591367	0.925641	1.382621
C204	C	1.841367	1.175641	1.632621
C205	C	1.073245	0.357893	0.784926
C206	C	1.323245	0.607893	1.034926
C207	C	1.573245	0.857893	1.284926
C208	C	1.823245	1.107893	1.534926
C209	C	1.005527	0.339706	0.882634
C210	C	1.255527	0.589706	1.132634
C211	C	1.505527	0.839706	1.382634
C212	C	1.755527	1.089706	1.632634
C213	C	1.073274	0.357840	0.930911
C214	C	1.323274	0.607840	1.180911
C215	C	1.573274	0.857840	1.430911
C216	C	1.823274	1.107840	1.680911
C217	C	1.141036	0.376095	0.833213
C218	C	1.391036	0.626095	1.083213
C219	C	1.641036	0.876095	1.333213
C220	C	1.891036	1.126095	1.583213
C221	C	1.055150	0.290128	0.833221
C222	C	1.305150	0.540128	1.083221
C223	C	1.555150	0.790128	1.333221
C224	C	1.805150	1.040128	1.583221
C225	C	1.122952	0.308269	0.882573
C226	C	1.372952	0.558269	1.132573
C227	C	1.622952	0.808269	1.382573
C228	C	1.872952	1.058269	1.632573
C229	C	1.073227	0.357926	0.700828
C230	C	1.323227	0.607926	0.950828
C231	C	1.573227	0.857926	1.200828
C232	C	1.823227	1.107926	1.450828
C233	C	1.073300	0.357807	1.015008
C234	C	1.323300	0.607807	1.265008
C235	C	1.573300	0.857807	1.515008
C236	C	1.823300	1.107807	1.765008
H237	H	0.527154	0.483016	0.323863
H238	H	0.777154	0.733016	0.573863
H239	H	1.027154	0.983016	0.823863
H240	H	1.277154	1.233016	1.073863
H241	H	1.106690	0.482926	0.904320
H242	H	1.356690	0.732926	1.154320
H243	H	1.606690	0.982926	1.404320
H244	H	1.856690	1.232926	1.654320
H245	H	1.164986	0.266316	0.904094
H246	H	1.414986	0.516316	1.154094
H247	H	1.664986	0.766316	1.404094
H248	H	1.914986	1.016316	1.654094
H249	H	0.981678	0.449460	0.811589
H250	H	1.231678	0.699460	1.061589
H251	H	1.481678	0.949460	1.311589
H252	H	1.731678	1.199460	1.561589
C253	C	1.034428	0.212766	0.803877
C254	C	1.284428	0.462766	1.053877
C255	C	1.534428	0.712766	1.303877
C256	C	1.784428	0.962766	1.553877
H257	H	1.074068	0.193783	0.774919
H258	H	1.324068	0.443783	1.024919
H259	H	1.574068	0.693783	1.274919
H260	H	1.824068	0.943783	1.524919
H261	H	0.991123	0.216307	0.774183
H262	H	1.241123	0.466307	1.024183
H263	H	1.491123	0.716307	1.274183
H264	H	1.741123	0.966307	1.524183
H265	H	1.025317	0.180474	0.844434
H266	H	1.275317	0.430474	1.094434
H267	H	1.525317	0.680474	1.344434
H268	H	1.775317	0.930474	1.594434
H269	H	0.619834	0.232937	0.391380
H270	H	0.869834	0.482937	0.641380
H271	H	1.119834	0.732937	0.891380
H272	H	1.369834	0.982937	1.141380
H273	H	0.527112	0.324702	0.482668
H274	H	0.777112	0.574702	0.732668
H275	H	1.027112	0.824702	0.982668
H276	H	1.277112	1.074702	1.232668
H277	H	1.198333	0.391520	0.811596
H278	H	1.448333	0.641520	1.061596
H279	H	1.698333	0.891520	1.311596
H280	H	1.948333	1.141520	1.561596
H281	H	0.619992	0.391334	0.232494
H282	H	0.869992	0.641334	0.482494
H283	H	1.119992	0.891334	0.732494
H284	H	1.369992	1.141334	0.982494
H285	H	1.106625	0.903935	0.482637
H286	H	1.356625	1.153935	0.732637
H287	H	1.606625	1.403935	0.982637
H288	H	1.856625	1.653935	1.232637
C289	C	0.519806	0.251476	0.251445
C290	C	0.769806	0.501476	0.501445
C291	C	1.019806	0.751476	0.751445
C292	C	1.269806	1.001476	1.001445
H293	H	0.536807	0.203406	0.264533
H294	H	0.786807	0.453406	0.514533
H295	H	1.036807	0.703406	0.764533
H296	H	1.286807	0.953406	1.014533
H297	H	0.537481	0.263882	0.203451
H298	H	0.787481	0.513882	0.453451
H299	H	1.037481	0.763882	0.703451
H300	H	1.287481	1.013882	0.953451
H301	H	0.467179	0.252082	0.251455
H302	H	0.717179	0.502082	0.501455
H303	H	0.967179	0.752082	0.751455
H304	H	1.217179	1.002082	1.001455
C305	C	0.966788	0.803689	0.463715
C306	C	1.216788	1.053689	0.713715
C307	C	1.466788	1.303689	0.963715
C308	C	1.716788	1.553689	1.213715
H309	H	0.918695	0.820648	0.450670
H310	H	1.168695	1.070648	0.700670
H311	H	1.418695	1.320648	0.950670
H312	H	1.668695	1.570648	1.200670
H313	H	0.979172	0.821296	0.511730
H314	H	1.229172	1.071296	0.761730
H315	H	1.479172	1.321296	1.011730
H316	H	1.729172	1.571296	1.261730
H317	H	0.967464	0.751063	0.463629
H318	H	1.217464	1.001063	0.713629
H319	H	1.467464	1.251063	0.963629
H320	H	1.717464	1.501063	1.213629
C321	C	1.218272	0.803445	0.396561
C322	C	1.468272	1.053445	0.646561
C323	C	1.718272	1.303445	0.896561
C324	C	1.968272	1.553445	1.146561
H325	H	1.237289	0.774498	0.356936
H326	H	1.487289	1.024498	0.606936
H327	H	1.737289	1.274498	0.856936
H328	H	1.987289	1.524498	1.106936
H329	H	1.214688	0.773726	0.439852
H330	H	1.464688	1.023726	0.689852
H331	H	1.714688	1.273726	0.939852
H332	H	1.964688	1.523726	1.189852
H333	H	1.250560	0.843972	0.405724
H334	H	1.500560	1.093972	0.655724
H335	H	1.750560	1.343972	0.905724
H336	H	2.000560	1.593972	1.155724
C337	C	1.179588	0.911344	0.251243
C338	C	1.429588	1.161344	0.501243
C339	C	1.679588	1.411344	0.751243
C340	C	1.929588	1.661344	1.001243
H341	H	1.166609	0.894370	0.203150
H342	H	1.416609	1.144370	0.453150
H343	H	1.666609	1.394370	0.703150
H344	H	1.916609	1.644370	0.953150
H345	H	1.227549	0.893638	0.263750
H346	H	1.477549	1.143638	0.513750
H347	H	1.727549	1.393638	0.763750
H348	H	1.977549	1.643638	1.013750
H349	H	1.179589	0.963971	0.251837
H350	H	1.429589	1.213971	0.501837
H351	H	1.679589	1.463971	0.751837
H352	H	1.929589	1.713971	1.001837
C353	C	0.928099	0.911771	0.318601
C354	C	1.178099	1.161771	0.568601
C355	C	1.428099	1.411771	0.818601
C356	C	1.678099	1.661771	1.068601
H357	H	0.892872	0.894890	0.353875
H358	H	1.142872	1.144890	0.603875
H359	H	1.392872	1.394890	0.853875
H360	H	1.642872	1.644890	1.103875
H361	H	0.914899	0.894163	0.270804
H362	H	1.164899	1.144163	0.520804
H363	H	1.414899	1.394163	0.770804
H364	H	1.664899	1.644163	1.020804
H365	H	0.928798	0.964395	0.318318
H366	H	1.178798	1.214395	0.568318
H367	H	1.428798	1.464395	0.818318
H368	H	1.678798	1.714395	1.068318
C369	C	1.034266	0.803836	0.212328
C370	C	1.284266	1.053836	0.462328
C371	C	1.534266	1.303836	0.712328
C372	C	1.784266	1.553836	0.962328
H373	H	1.034341	0.751206	0.212802
H374	H	1.284341	1.001206	0.462802
H375	H	1.534341	1.251206	0.712802
H376	H	1.784341	1.501206	0.962802
H377	H	1.069316	0.821115	0.177079
H378	H	1.319316	1.071115	0.427079
H379	H	1.569316	1.321115	0.677079
H380	H	1.819316	1.571115	0.927079
H381	H	0.986306	0.821205	0.199338
H382	H	1.236306	1.071205	0.449338
H383	H	1.486306	1.321205	0.699338
H384	H	1.736306	1.571205	0.949338
C385	C	0.928149	0.318951	0.911958
C386	C	1.178149	0.568951	1.161958
C387	C	1.428149	0.818951	1.411958
C388	C	1.678149	1.068951	1.661958
H389	H	0.892938	0.354248	0.895060
H390	H	1.142938	0.604248	1.145060
H391	H	1.392938	0.854248	1.395060
H392	H	1.642938	1.104248	1.645060
H393	H	0.928822	0.318636	0.964579
H394	H	1.178822	0.568636	1.214579
H395	H	1.428822	0.818636	1.464579
H396	H	1.678822	1.068636	1.714579
H397	H	0.914942	0.271169	0.894310
H398	H	1.164942	0.521169	1.144310
H399	H	1.414942	0.771169	1.394310
H400	H	1.664942	1.021169	1.644310
H401	H	0.619881	0.449636	0.449011
H402	H	0.869881	0.699636	0.699011
H403	H	1.119881	0.949636	0.949011
H404	H	1.369881	1.199636	1.199011
