data_functionalizedCrystal
_audit_creation_method	'MofGen! by Chris Wilmer'
_symmetry_space_group_name_H-M	'P1'
_symmetry_Int_Tables_number	1
_symmetry_cell_setting	triclinic
loop_
_symmetry_equiv_pos_as_xyz
  x,y,z
_cell_length_a	14.044220
_cell_length_b	14.044190
_cell_length_c	10.268362
_cell_angle_alpha	89.989939
_cell_angle_beta	90.000433
_cell_angle_gamma	93.190328
loop_
_atom_site_label
_atom_site_type_symbol
_atom_site_fract_x
_atom_site_fract_y
_atom_site_fract_z
O1	O	1.277174	0.230169	-0.108188
O2	O	1.777174	0.730169	0.391812
O3	O	1.000502	0.221863	-0.108220
O4	O	1.500502	0.721863	0.391780
O5	O	1.134682	0.087680	-0.108179
O6	O	1.634682	0.587680	0.391821
O7	O	1.142994	0.364352	-0.108229
O8	O	1.642994	0.864352	0.391771
O9	O	1.134668	0.087673	0.108422
O10	O	1.634668	0.587673	0.608422
O11	O	1.000489	0.221856	0.108380
O12	O	1.500489	0.721856	0.608380
O13	O	1.277161	0.230162	0.108412
O14	O	1.777161	0.730162	0.608412
Cu15	Cu	1.138824	0.226008	0.128174
Cu16	Cu	1.638824	0.726008	0.628174
Cu17	Cu	1.138839	0.226017	-0.127982
Cu18	Cu	1.638839	0.726017	0.372018
O19	O	1.142981	0.364345	0.108371
O20	O	1.642981	0.864345	0.608371
C21	C	0.964874	0.218224	0.000076
C22	C	1.464874	0.718224	0.500076
C23	C	0.858731	0.207380	0.000065
C24	C	1.358731	0.707380	0.500065
C25	C	0.664392	0.187553	0.000095
C26	C	1.164392	0.687553	0.500095
C27	C	0.613264	0.264468	0.000086
C28	C	1.113264	0.764468	0.500086
C29	C	0.505128	0.253436	0.000103
C30	C	1.005128	0.753436	0.500103
C31	C	0.772539	0.198583	0.000078
C32	C	1.272539	0.698583	0.500078
C33	C	1.131039	0.052054	0.000125
C34	C	1.631039	0.552054	0.500125
C35	C	1.120191	-0.054089	0.000135
C36	C	1.620191	0.445911	0.500135
C37	C	1.177292	-0.299547	0.000090
C38	C	1.677292	0.200453	0.500090
C39	C	1.100375	-0.248422	0.000091
C40	C	1.600375	0.251578	0.500091
C41	C	1.111404	-0.140285	0.000115
C42	C	1.611404	0.359715	0.500115
C43	C	1.166265	-0.407694	0.000066
C44	C	1.666265	0.092306	0.500066
C45	C	1.312789	0.233801	0.000113
C46	C	1.812789	0.733801	0.500113
C47	C	1.418932	0.244646	0.000116
C48	C	1.918932	0.744646	0.500116
C49	C	1.146624	0.399971	0.000065
C50	C	1.646624	0.899971	0.500065
C51	C	1.157472	0.506114	0.000046
C52	C	1.657472	1.006114	0.500046
N53	N	1.138820	0.226003	0.308340
N54	N	1.638820	0.726003	0.808340
N55	N	1.138850	0.226016	-0.308147
N56	N	1.638850	0.726016	0.191853
C57	C	1.138834	0.226015	0.574010
C58	C	1.638834	0.726015	1.074010
C59	C	1.138823	0.226010	0.426172
C60	C	1.638823	0.726010	0.926172
H61	H	0.650706	0.338602	0.000066
H62	H	1.150706	0.838602	0.500066
H63	H	0.626954	0.113425	0.000115
H64	H	1.126954	0.613425	0.500115
H65	H	1.251418	-0.262106	0.000112
H66	H	1.751418	0.237894	0.500112
O67	O	1.002174	-0.298007	0.000088
O68	O	1.502174	0.201993	0.500088
H69	H	1.008806	-0.376393	0.000088
H70	H	1.508806	0.123607	0.500088
