data_functionalizedCrystal
_audit_creation_method	'MofGen! by Chris Wilmer'
_symmetry_space_group_name_H-M	'P1'
_symmetry_Int_Tables_number	1
_symmetry_cell_setting	triclinic
loop_
_symmetry_equiv_pos_as_xyz
  x,y,z
_cell_length_a	10.908878
_cell_length_b	9.065218
_cell_length_c	8.140239
_cell_angle_alpha	89.989394
_cell_angle_beta	89.998780
_cell_angle_gamma	72.550371
loop_
_atom_site_label
_atom_site_type_symbol
_atom_site_fract_x
_atom_site_fract_y
_atom_site_fract_z
O1	O	-1.701206	0.227215	0.136547
O2	O	-1.328678	0.112336	0.136575
O3	O	-1.522642	0.386426	0.136518
O4	O	-1.507242	-0.046874	0.136604
O5	O	-1.522636	0.386426	-0.136709
O6	O	-1.328672	0.112336	-0.136652
O7	O	-1.701200	0.227215	-0.136680
Zn8	Zn	-1.514935	0.169776	-0.180047
Zn9	Zn	-1.514943	0.169776	0.179942
O10	O	-1.507236	-0.046874	-0.136624
C11	C	-1.280958	0.101600	-0.000036
C12	C	-1.138778	0.069628	-0.000028
C13	C	-1.521159	0.441026	-0.000102
C14	C	-1.516733	0.603715	-0.000124
C15	C	-1.748920	0.237951	-0.000065
C16	C	-1.891100	0.269923	-0.000063
C17	C	-1.088412	0.186288	-0.000050
C18	C	-0.941461	0.153246	-0.000041
N19	N	-1.514939	0.169779	-0.425729
C20	C	-1.508719	0.898525	-0.000045
C21	C	-1.513144	0.735836	-0.000147
N22	N	-1.514949	0.169787	0.425624
H23	H	-1.154084	0.310627	-0.000067
H24	H	-0.956767	0.394272	-0.000076
O25	O	-0.862946	0.004989	-0.000080
C26	C	-0.733703	0.005002	-0.000031
H27	H	-0.727364	0.119348	-0.051782
H28	H	-0.695149	-0.009993	0.131055
C29	C	-0.660954	-0.269634	-0.043586
C30	C	-0.653166	-0.129197	-0.107161
H31	H	-0.611272	-0.352418	-0.109662
H32	H	-0.748027	-0.269645	-0.043613
H33	H	-0.628827	-0.282108	0.065651
H34	H	-0.685307	-0.116716	-0.216388
H35	H	-0.566096	-0.129187	-0.107155
O36	O	-1.060312	-0.078647	0.000224
C37	C	-0.982249	-0.104161	0.141760
H38	H	-0.974270	0.011007	0.188915
H39	H	-1.026895	-0.160662	0.240857
C40	C	-0.857248	-0.352733	0.040886
C41	C	-0.847439	-0.211282	0.098795
H42	H	-0.774092	-0.418816	0.014388
H43	H	-0.909843	-0.335548	-0.054467
H44	H	-0.894458	-0.399797	0.123477
H45	H	-0.810245	-0.164212	0.016198
H46	H	-0.794834	-0.228462	0.194134
