data_functionalizedCrystal
_audit_creation_method	'MofGen! by Chris Wilmer'
_symmetry_space_group_name_H-M	'P1'
_symmetry_Int_Tables_number	1
_symmetry_cell_setting	triclinic
loop_
_symmetry_equiv_pos_as_xyz
  x,y,z
_cell_length_a	18.101398
_cell_length_b	19.120785
_cell_length_c	18.101389
_cell_angle_alpha	92.462206
_cell_angle_beta	90.024802
_cell_angle_gamma	92.461139
loop_
_atom_site_label
_atom_site_type_symbol
_atom_site_fract_x
_atom_site_fract_y
_atom_site_fract_z
Zn1	Zn	1.119575	-0.279744	0.406243
Zn2	Zn	1.452908	0.053589	0.739576
Zn3	Zn	1.786241	0.386923	1.072909
Zn4	Zn	1.114204	-0.397185	0.277109
Zn5	Zn	1.447537	-0.063852	0.610443
Zn6	Zn	1.780870	0.269482	0.943776
Zn7	Zn	0.995734	-0.279742	0.282403
Zn8	Zn	1.329067	0.053592	0.615736
Zn9	Zn	1.662400	0.386925	0.949070
Zn10	Zn	0.990418	-0.397160	0.400898
Zn11	Zn	1.323752	-0.063827	0.734231
Zn12	Zn	1.657085	0.269507	1.067565
O13	O	1.054983	-0.338458	0.341663
O14	O	1.388316	-0.005124	0.674997
O15	O	1.721649	0.328209	1.008330
O16	O	1.222495	-0.295334	0.389134
O17	O	1.555828	0.037999	0.722468
O18	O	1.889161	0.371332	1.055801
O19	O	1.098465	-0.381615	0.174178
O20	O	1.431798	-0.048282	0.507512
O21	O	1.765132	0.285051	0.840845
O22	O	1.016634	-0.181453	0.303283
O23	O	1.349967	0.151881	0.636616
O24	O	1.683301	0.485214	0.969950
O25	O	1.218548	-0.381618	0.294261
O26	O	1.551882	-0.048284	0.627594
O27	O	1.885215	0.285049	0.960927
O28	O	1.107619	-0.181454	0.394267
O29	O	1.440953	0.151879	0.727601
O30	O	1.774286	0.485212	1.060934
O31	O	1.011426	-0.295330	0.178067
O32	O	1.344759	0.038003	0.511401
O33	O	1.678092	0.371336	0.844734
O34	O	0.891396	-0.295306	0.298100
O35	O	1.224730	0.038027	0.631434
O36	O	1.558063	0.371361	0.964767
O37	O	1.007575	-0.381575	0.505240
O38	O	1.340908	-0.048242	0.838574
O39	O	1.674241	0.285092	1.171907
O40	O	0.887491	-0.381573	0.385158
O41	O	1.220825	-0.048240	0.718491
O42	O	1.554158	0.285094	1.051825
O43	O	1.102465	-0.295310	0.509167
O44	O	1.435799	0.038023	0.842501
O45	O	1.769132	0.371357	1.175834
O46	O	1.093311	-0.495471	0.289078
O47	O	1.426644	-0.162138	0.622411
O48	O	1.759978	0.171195	0.955745
O49	O	1.002366	-0.495453	0.380025
O50	O	1.335700	-0.162119	0.713358
O51	O	1.669033	0.171214	1.046692
C52	C	0.862573	-0.338437	0.341624
C53	C	1.195906	-0.005104	0.674957
C54	C	1.529240	0.328230	1.008291
C55	C	0.780259	-0.338445	0.341624
C56	C	1.113592	-0.005112	0.674957
C57	C	1.446925	0.328222	1.008291
C58	C	0.629550	-0.338460	0.341657
C59	C	0.962883	-0.005126	0.674990
C60	C	1.296216	0.328207	1.008323
C61	C	0.600631	-0.284105	0.286981
C62	C	0.933965	0.049228	0.620314
C63	C	1.267298	0.382562	0.953648
C64	C	0.515023	-0.283901	0.287178
C65	C	0.848356	0.049433	0.620511
C66	C	1.181689	0.382766	0.953844
C67	C	0.481166	-0.338474	0.341687
C68	C	0.814500	-0.005140	0.675021
C69	C	1.147833	0.328193	1.008354
C70	C	0.513192	-0.318728	0.420713
C71	C	0.846525	0.014605	0.754046
C72	C	1.179859	0.347939	1.087379
C73	C	0.598855	-0.318325	0.420382
C74	C	0.932188	0.015008	0.753715
C75	C	1.265521	0.348341	1.087049
C76	C	0.594616	-0.412700	0.317990
C77	C	0.927950	-0.079367	0.651323
C78	C	1.261283	0.253966	0.984657
C79	C	0.508982	-0.412309	0.316305
C80	C	0.842316	-0.078976	0.649638
C81	C	1.175649	0.254358	0.982971
C82	C	0.397306	-0.338483	0.341710
C83	C	0.730640	-0.005149	0.675043
C84	C	1.063973	0.328184	1.008376
C85	C	0.713409	-0.338449	0.341640
C86	C	1.046743	-0.005115	0.674973
C87	C	1.380076	0.328218	1.008306
C88	C	1.046699	-0.520947	0.333413
C89	C	1.380032	-0.187614	0.666747
C90	C	1.713366	0.145719	1.000080
C91	C	1.043223	-0.599017	0.329909
C92	C	1.376556	-0.265684	0.663242
C93	C	1.709890	0.067649	0.996575
C94	C	1.021170	-1.040568	0.307733
C95	C	1.354503	-0.707235	0.641067
C96	C	1.687837	-0.373901	0.974400
C97	C	1.024438	-0.967213	0.311026
C98	C	1.357771	-0.633880	0.644360
C99	C	1.691104	-0.300546	0.977693
C100	C	1.073411	-0.930477	0.360081
C101	C	1.406744	-0.597144	0.693414
C102	C	1.740077	-0.263810	1.026747
C103	C	1.119113	-0.967100	0.405851
C104	C	1.452447	-0.633767	0.739184
C105	C	1.785780	-0.300433	1.072517
C106	C	1.115842	-1.040453	0.402561
C107	C	1.449175	-0.707120	0.735894
C108	C	1.782508	-0.373787	1.069228
C109	C	1.085654	-0.708994	0.372389
C110	C	1.418987	-0.375660	0.705722
C111	C	1.752321	-0.042327	1.039055
C112	C	1.088924	-0.635635	0.375673
C113	C	1.422257	-0.302302	0.709007
C114	C	1.755591	0.031032	1.042340
C115	C	0.994247	-0.635753	0.280850
C116	C	1.327580	-0.302420	0.614183
C117	C	1.660914	0.030914	0.947516
C118	C	0.990983	-0.709108	0.277561
C119	C	1.324316	-0.375775	0.610894
C120	C	1.657649	-0.042441	0.944228
C121	C	1.036683	-0.745724	0.323334
C122	C	1.370016	-0.412391	0.656667
C123	C	1.703349	-0.079058	0.990000
C124	C	1.076753	-0.855497	0.363446
C125	C	1.410087	-0.522163	0.696779
C126	C	1.743420	-0.188830	1.030113
C127	C	1.033336	-0.820704	0.319971
C128	C	1.366669	-0.487370	0.653305
C129	C	1.700002	-0.154037	0.986638
C130	C	1.248144	-0.338479	0.341703
C131	C	1.581477	-0.005146	0.675036
C132	C	1.914810	0.328188	1.008370
C133	C	1.330457	-0.338488	0.341720
C134	C	1.663791	-0.005155	0.675053
C135	C	1.997124	0.328179	1.008387
C136	C	1.055026	-0.338440	0.534826
C137	C	1.388360	-0.005107	0.868159
C138	C	1.721693	0.328227	1.201493
C139	C	1.055045	-0.338432	0.617141
C140	C	1.388378	-0.005099	0.950474
C141	C	1.721712	0.328234	1.283807
C142	C	1.063319	-0.155255	0.349962
C143	C	1.396652	0.178078	0.683295
C144	C	1.729985	0.511411	1.016628
C145	C	1.066871	-0.077186	0.353498
C146	C	1.400204	0.256148	0.686832
C147	C	1.733538	0.589481	1.020165
C148	C	1.054984	-0.338425	0.149254
C149	C	1.388317	-0.005091	0.482588
C150	C	1.721651	0.328242	0.815921
C151	C	1.055118	-0.338234	0.066949
C152	C	1.388451	-0.004901	0.400283
C153	C	1.721785	0.328432	0.733616
C154	C	1.055094	-0.338301	0.916238
C155	C	1.388427	-0.004967	1.249571
C156	C	1.721761	0.328366	1.582904
C157	C	0.995202	-0.392404	0.882450
C158	C	1.328535	-0.059070	1.215783
C159	C	1.661869	0.274263	1.549116
C160	C	0.995346	-0.392655	0.796820
C161	C	1.328679	-0.059321	1.130153
C162	C	1.662013	0.274012	1.463487
C163	C	1.055069	-0.338366	0.767852
C164	C	1.388402	-0.005033	1.101185
C165	C	1.721736	0.328301	1.434519
C166	C	1.132193	-0.358461	0.798053
C167	C	1.465526	-0.025127	1.131386
C168	C	1.798860	0.308206	1.464720
C169	C	1.131857	-0.358816	0.883682
C170	C	1.465190	-0.025483	1.217015
C171	C	1.798524	0.307851	1.550349
C172	C	1.038546	-0.263983	0.888011
C173	C	1.371879	0.069351	1.221344
C174	C	1.705212	0.402684	1.554677
C175	C	1.036790	-0.264412	0.802340
C176	C	1.370124	0.068921	1.135674
C177	C	1.703457	0.402255	1.469007
C178	C	1.055060	-0.338402	0.683991
C179	C	1.388393	-0.005068	1.017324
C180	C	1.721726	0.328265	1.350658
C181	C	1.055108	-0.338267	1.000099
C182	C	1.388442	-0.004933	1.333432
C183	C	1.721775	0.328400	1.666765
H184	H	0.491130	-0.357112	0.462724
H185	H	0.824463	-0.023778	0.796057
H186	H	1.157796	0.309555	1.129391
H187	H	0.957039	-0.605933	0.243585
H188	H	1.290373	-0.272600	0.576918
H189	H	1.623706	0.060733	0.910251
N190	N	0.961636	-0.244328	0.776311
N191	N	1.294970	0.089006	1.109645
N192	N	1.628303	0.422339	1.442978
H193	H	0.922866	-0.280145	0.792199
H194	H	1.256199	0.053188	1.125533
H195	H	1.589532	0.386521	1.458866
H196	H	0.961571	-0.242656	0.720621
H197	H	1.294904	0.090677	1.053954
H198	H	1.628238	0.424010	1.387287
N199	N	1.096371	-0.210584	0.917285
N200	N	1.429704	0.122750	1.250618
N201	N	1.763038	0.456083	1.583951
H202	H	1.085456	-0.162942	0.898972
H203	H	1.418789	0.170391	1.232305
H204	H	1.752122	0.503724	1.565638
H205	H	1.146781	-0.224292	0.899367
H206	H	1.480114	0.109041	1.232700
H207	H	1.813447	0.442375	1.566034
H208	H	1.128807	-0.605728	0.415621
H209	H	1.462140	-0.272395	0.748955
H210	H	1.795473	0.060939	1.082288
H211	H	1.122875	-0.738798	0.409652
H212	H	1.456208	-0.405465	0.742985
H213	H	1.789541	-0.072131	1.076318
H214	H	1.116629	-0.825580	0.403386
H215	H	1.449963	-0.492247	0.736719
H216	H	1.783296	-0.158913	1.070053
N217	N	0.919464	-0.375968	0.769703
N218	N	1.252797	-0.042634	1.103037
N219	N	1.586130	0.290699	1.436370
H220	H	0.885618	-0.368386	0.813396
H221	H	1.218951	-0.035052	1.146730
H222	H	1.552284	0.298281	1.480063
H223	H	0.898886	-0.416278	0.736960
H224	H	1.232219	-0.082945	1.070293
H225	H	1.565552	0.250389	1.403627
N226	N	1.151714	-0.429658	0.766444
N227	N	1.485048	-0.096325	1.099778
N228	N	1.818381	0.237009	1.433111
H229	H	1.112853	-0.465878	0.781207
H230	H	1.446186	-0.132544	1.114540
H231	H	1.779520	0.200789	1.447874
H232	H	1.201445	-0.442059	0.786217
H233	H	1.534779	-0.108725	1.119550
H234	H	1.868112	0.224608	1.452883
H235	H	0.983459	-0.245675	0.910421
H236	H	1.316793	0.087658	1.243754
H237	H	1.650126	0.420991	1.577088
H238	H	0.987224	-0.937399	0.273762
H239	H	1.320557	-0.604066	0.607095
H240	H	1.653891	-0.270733	0.940428
N241	N	1.171927	-0.927475	0.458763
N242	N	1.505261	-0.594141	0.792096
N243	N	1.838594	-0.260808	1.125430
H244	H	1.207621	-0.897032	0.430066
H245	H	1.540955	-0.563698	0.763400
H246	H	1.874288	-0.230365	1.096733
H247	H	1.200331	-0.961846	0.487248
H248	H	1.533664	-0.628512	0.820581
H249	H	1.866997	-0.295179	1.153915
N250	N	0.632410	-0.211647	0.307900
N251	N	0.965743	0.121686	0.641234
N252	N	1.299076	0.455020	0.974567
H253	H	0.662204	-0.193076	0.265263
H254	H	0.995537	0.140257	0.598596
H255	H	1.328870	0.473591	0.931929
H256	H	0.665420	-0.213942	0.352650
H257	H	0.998753	0.119391	0.685983
H258	H	1.332087	0.452724	1.019317
H259	H	0.497027	-0.228892	0.303148
H260	H	0.830361	0.104441	0.636482
H261	H	1.163694	0.437774	0.969815
H262	H	1.153051	-1.070267	0.439833
H263	H	1.486384	-0.736933	0.773167
H264	H	1.819717	-0.403600	1.106500
H265	H	0.620626	-0.296282	0.228313
H266	H	0.953960	0.037051	0.561647
H267	H	1.287293	0.370384	0.894980
H268	H	0.993459	-0.850617	0.280035
H269	H	1.326792	-0.517284	0.613368
H270	H	1.660126	-0.183950	0.946701
H271	H	1.077495	-0.221962	0.782869
H272	H	1.410829	0.111371	1.116203
H273	H	1.744162	0.444705	1.449536
N274	N	1.009491	-0.465622	0.766414
N275	N	1.342824	-0.132288	1.099747
N276	N	1.676157	0.201045	1.433080
H277	H	1.056002	-0.464469	0.735610
H278	H	1.389335	-0.131135	1.068943
H279	H	1.722668	0.202198	1.402276
H280	H	0.966251	-0.483514	0.734647
H281	H	1.299584	-0.150181	1.067981
H282	H	1.632918	0.183153	1.401314
N283	N	0.486390	-0.300214	0.209715
N284	N	0.819724	0.033120	0.543048
N285	N	1.153057	0.366453	0.876381
H286	H	0.529396	-0.307602	0.175132
H287	H	0.862729	0.025731	0.508466
H288	H	1.196063	0.359064	0.841799
H289	H	0.457288	-0.259818	0.193043
H290	H	0.790622	0.073515	0.526376
H291	H	1.123955	0.406849	0.859709
H292	H	0.494178	-0.265070	0.440610
H293	H	0.827511	0.068263	0.773943
H294	H	1.160845	0.401597	1.107276
H295	H	0.617902	-0.356210	0.462711
H296	H	0.951235	-0.022877	0.796044
H297	H	1.284568	0.310456	1.129378
N298	N	0.919063	-0.375911	0.910438
N299	N	1.252396	-0.042578	1.243771
N300	N	1.585730	0.290755	1.577105
H301	H	0.922651	-0.333211	0.945295
H302	H	1.255985	0.000122	1.278628
H303	H	1.589318	0.333456	1.611962
H304	H	0.897458	-0.417138	0.937438
H305	H	1.230792	-0.083805	1.270772
H306	H	1.564125	0.249528	1.604105
H307	H	0.621293	-0.264067	0.440003
H308	H	0.954626	0.069266	0.773337
H309	H	1.287960	0.402600	1.106670
N310	N	0.622099	-0.436593	0.242702
N311	N	0.955432	-0.103260	0.576036
N312	N	1.288766	0.230074	0.909369
H313	H	0.657478	-0.399529	0.223173
H314	H	0.990812	-0.066196	0.556506
H315	H	1.324145	0.267138	0.889839
H316	H	0.578762	-0.444479	0.207732
H317	H	0.912095	-0.111145	0.541066
H318	H	1.245429	0.222188	0.874399
N319	N	0.478123	-0.468793	0.364823
N320	N	0.811456	-0.135459	0.698157
N321	N	1.144790	0.197874	1.031490
H322	H	0.494429	-0.458102	0.417621
H323	H	0.827763	-0.124769	0.750955
H324	H	1.161096	0.208565	1.084288
H325	H	0.496937	-0.515568	0.347142
H326	H	0.830271	-0.182235	0.680475
H327	H	1.163604	0.151098	1.013809
N328	N	0.481139	-0.432045	0.239245
N329	N	0.814472	-0.098712	0.572578
N330	N	1.147806	0.234622	0.905911
H331	H	0.450632	-0.393326	0.220847
H332	H	0.783965	-0.059992	0.554181
H333	H	1.117299	0.273341	0.887514
H334	H	0.449615	-0.476877	0.240207
H335	H	0.782949	-0.143543	0.573540
H336	H	1.116282	0.189790	0.906874
N337	N	1.009173	-0.464934	0.907666
N338	N	1.342506	-0.131601	1.240999
N339	N	1.675840	0.201732	1.574333
H340	H	1.054128	-0.462898	0.940885
H341	H	1.387461	-0.129565	1.274218
H342	H	1.720794	0.203769	1.607551
H343	H	1.017951	-0.497162	0.863155
H344	H	1.351284	-0.163829	1.196488
H345	H	1.684617	0.169504	1.529822
H346	H	0.613074	-0.453193	0.357772
H347	H	0.946407	-0.119860	0.691106
H348	H	1.279741	0.213474	1.024439
N349	N	1.150954	-0.430776	0.906918
N350	N	1.484287	-0.097442	1.240251
N351	N	1.817621	0.235891	1.573584
H352	H	1.159510	-0.461968	0.861549
H353	H	1.492843	-0.128635	1.194882
H354	H	1.826177	0.204698	1.528216
H355	H	1.108827	-0.451505	0.936602
H356	H	1.442160	-0.118171	1.269936
H357	H	1.775494	0.215162	1.603269
H358	H	0.981294	-1.070473	0.267785
H359	H	1.314627	-0.737140	0.601119
H360	H	1.647960	-0.403806	0.934452
N361	N	0.938166	-0.748729	0.224649
N362	N	1.271499	-0.415396	0.557982
N363	N	1.604832	-0.082063	0.891315
H364	H	0.909710	-0.714400	0.196155
H365	H	1.243043	-0.381067	0.529489
H366	H	1.576376	-0.047734	0.862822
H367	H	0.902520	-0.779175	0.253393
H368	H	1.235853	-0.445842	0.586726
H369	H	1.569186	-0.112509	0.920059
H370	H	1.177815	-0.321120	0.906121
H371	H	1.511148	0.012213	1.239455
H372	H	1.844482	0.345546	1.572788
N373	N	1.192703	-0.307901	0.773397
N374	N	1.526036	0.025433	1.106730
N375	N	1.859369	0.358766	1.440063
H376	H	1.170650	-0.271397	0.742335
H377	H	1.503983	0.061936	1.075669
H378	H	1.837317	0.395269	1.409002
H379	H	1.230166	-0.334313	0.743184
H380	H	1.563499	-0.000979	1.076517
H381	H	1.896833	0.332354	1.409850
