data_functionalizedCrystal
_audit_creation_method	'MofGen! by Chris Wilmer'
_symmetry_space_group_name_H-M	'P1'
_symmetry_Int_Tables_number	1
_symmetry_cell_setting	triclinic
loop_
_symmetry_equiv_pos_as_xyz
  x,y,z
_cell_length_a	18.101398
_cell_length_b	18.050589
_cell_length_c	18.101390
_cell_angle_alpha	89.971488
_cell_angle_beta	89.975319
_cell_angle_gamma	90.023488
loop_
_atom_site_label
_atom_site_type_symbol
_atom_site_fract_x
_atom_site_fract_y
_atom_site_fract_z
Zn1	Zn	1.132138	-0.295725	-0.418861
Zn2	Zn	1.132040	-0.419930	-0.295029
Zn3	Zn	1.008297	-0.295749	-0.295023
Zn4	Zn	1.008254	-0.419867	-0.418818
O5	O	1.070182	-0.357818	-0.356933
O6	O	1.235758	-0.312217	-0.402456
O7	O	1.115601	-0.403494	-0.191396
O8	O	1.024783	-0.191821	-0.311465
O9	O	1.235686	-0.403471	-0.311477
O10	O	1.115770	-0.191803	-0.402449
O11	O	1.024688	-0.312258	-0.191391
O12	O	0.904658	-0.312197	-0.311423
O13	O	1.024711	-0.403363	-0.522457
O14	O	0.904627	-0.403386	-0.402375
O15	O	1.115729	-0.312156	-0.522489
O16	O	1.115560	-0.523847	-0.311435
O17	O	1.024616	-0.523800	-0.402382
C18	C	0.877772	-0.357788	-0.356894
C19	C	0.795458	-0.357793	-0.356895
C20	C	0.496367	-0.357839	-0.356957
C21	C	0.527687	-0.300178	-0.300012
C22	C	0.613305	-0.300333	-0.299769
C23	C	0.644749	-0.357815	-0.356927
C24	C	0.613635	-0.436048	-0.335608
C25	C	0.527990	-0.435728	-0.335212
C26	C	0.527981	-0.337947	-0.435355
C27	C	0.613632	-0.336205	-0.434927
C28	C	0.728609	-0.357807	-0.356910
C29	C	0.412507	-0.357853	-0.356972
C30	C	1.070093	-0.550770	-0.356921
C31	C	1.070122	-0.633316	-0.356940
C32	C	1.020715	-0.832768	-0.406380
C33	C	1.002663	-0.882213	-0.338801
C34	C	1.070195	-0.784446	-0.356950
C35	C	1.088284	-0.882083	-0.424536
C36	C	1.070264	-0.930431	-0.356965
C37	C	1.052107	-0.832803	-0.289335
C38	C	1.137760	-0.832669	-0.375116
C39	C	1.119733	-0.882092	-0.307491
C40	C	1.070154	-0.700348	-0.356942
C41	C	1.070306	-1.014528	-0.356965
C42	C	1.263344	-0.357849	-0.356972
C43	C	1.345658	-0.357862	-0.356989
C44	C	1.070226	-0.357750	-0.550095
C45	C	1.070245	-0.357721	-0.632409
C46	C	1.070292	-0.164112	-0.356961
C47	C	1.070339	-0.081566	-0.356974
C48	C	1.070285	-0.357675	-0.931500
C49	C	1.127739	-0.300492	-0.900195
C50	C	1.127560	-0.300280	-0.814577
C51	C	1.070266	-0.357698	-0.783117
C52	C	0.992248	-0.336428	-0.814182
C53	C	0.992592	-0.336000	-0.899828
C54	C	1.090162	-0.436274	-0.899920
C55	C	1.091874	-0.435873	-0.814270
C56	C	1.070250	-0.357712	-0.699258
C57	C	1.070296	-0.357659	-1.015360
C58	C	1.070181	-0.357832	-0.164522
C59	C	1.070306	-0.357651	-0.082209
H60	H	0.507727	-0.379945	-0.477785
C61	C	0.641159	-0.495647	-0.389879
N62	N	0.661895	-0.540537	-0.430754
H63	H	0.978810	-0.811110	-0.448122
C64	C	0.640940	-0.318103	-0.221289
N65	N	0.661755	-0.331491	-0.162176
C66	C	1.214882	-0.803235	-0.395906
N67	N	1.272969	-0.781060	-0.411574
C68	C	0.642558	-0.459231	-0.259014
N69	N	0.664341	-0.476687	-0.201320
C70	C	1.031382	-0.803683	-0.212106
N71	N	1.015769	-0.781748	-0.153938
H72	H	0.975742	-0.278544	-0.919813
H73	H	0.507270	-0.480145	-0.374880
C74	C	0.932791	-0.389813	-0.927804
N75	N	0.887745	-0.430340	-0.948872
C76	C	0.925513	-0.911612	-0.318046
N77	N	0.867402	-0.933754	-0.302418
H78	H	0.506406	-0.281892	-0.454739
C79	C	1.108917	-0.911327	-0.501744
N80	N	1.124452	-0.933350	-0.559899
H81	H	1.161606	-0.903613	-0.265648
H82	H	0.948278	-0.376795	-0.793803
H83	H	1.185412	-0.313600	-0.793575
C84	C	1.206154	-0.318267	-0.928030
N85	N	1.265218	-0.331660	-0.948996
C86	C	1.033632	-0.493834	-0.927273
N87	N	0.991052	-0.537183	-0.947880
C88	C	0.498564	-0.317732	-0.221990
N89	N	0.476626	-0.330956	-0.163225
C90	C	1.110189	-0.222265	-0.929279
N91	N	1.096967	-0.163346	-0.951186
H92	H	0.507978	-0.452597	-0.277900
H93	H	0.633973	-0.278634	-0.451002
H94	H	0.635039	-0.375141	-0.479629
H95	H	1.114403	-0.242052	-0.794098
H96	H	0.975092	-0.279611	-0.792738
H97	H	1.146055	-0.455640	-0.921571
C98	C	1.039447	-0.496526	-0.785344
N99	N	0.999951	-0.542208	-0.763559
C100	C	0.641728	-0.221957	-0.317810
N101	N	0.663132	-0.162920	-0.331395
C102	C	0.499890	-0.221564	-0.317861
N103	N	0.478948	-0.162350	-0.331305
C104	C	1.169436	-0.457545	-0.786837
N105	N	1.227855	-0.473867	-0.766168
