data_functionalizedCrystal
_audit_creation_method	'MofGen! by Chris Wilmer'
_symmetry_space_group_name_H-M	'P1'
_symmetry_Int_Tables_number	1
_symmetry_cell_setting	triclinic
loop_
_symmetry_equiv_pos_as_xyz
  x,y,z
_cell_length_a	17.640280
_cell_length_b	17.077404
_cell_length_c	17.637464
_cell_angle_alpha	101.194991
_cell_angle_beta	87.849458
_cell_angle_gamma	101.200948
loop_
_atom_site_label
_atom_site_type_symbol
_atom_site_fract_x
_atom_site_fract_y
_atom_site_fract_z
Zn1	Zn	-0.389161	-1.204230	0.368373
Zn2	Zn	-0.490483	-1.255172	0.215744
Zn3	Zn	-0.363512	-1.093327	0.241390
Zn4	Zn	-0.516101	-1.103600	0.342696
O5	O	-0.439814	-1.164082	0.292051
O6	O	-0.402614	-1.320834	0.348140
O7	O	-0.452185	-1.250723	0.112873
O8	O	-0.260652	-1.082420	0.279713
O9	O	-0.477055	-1.358261	0.236004
O10	O	-0.279496	-1.163900	0.373007
O11	O	-0.358901	-1.131816	0.131715
O12	O	-0.383741	-0.984843	0.254815
O13	O	-0.520716	-1.099928	0.452376
O14	O	-0.495847	-0.992390	0.329245
O15	O	-0.427454	-1.173861	0.471240
O16	O	-0.600144	-1.260684	0.211106
O17	O	-0.618965	-1.149325	0.304377
C18	C	-0.439791	-0.960134	0.292027
C19	C	-0.439803	-0.872886	0.292031
C20	C	-0.498233	-0.835877	0.330692
C21	C	-0.498235	-0.753895	0.330702
C22	C	-0.439809	-0.708925	0.292045
C23	C	-0.381374	-0.745940	0.253382
C24	C	-0.381369	-0.827918	0.253377
C25	C	-0.381388	-0.575070	0.253392
C26	C	-0.381393	-0.493086	0.253395
C27	C	-0.498254	-0.501047	0.330716
C28	C	-0.498249	-0.583026	0.330712
C29	C	-0.439814	-0.620035	0.292048
C30	C	-0.637110	-1.211666	0.252189
C31	C	-0.721520	-1.232090	0.235162
C32	C	-1.048207	-1.009200	0.421684
C33	C	-1.127518	-1.028397	0.405660
C34	C	-1.107874	-1.144402	0.308635
C35	C	-1.028560	-1.125217	0.324653
C36	C	-0.998734	-1.057614	0.381178
C37	C	-0.979087	-1.173631	0.284148
C38	C	-0.899780	-1.154445	0.300163
C39	C	-0.869947	-1.086844	0.356683
C40	C	-0.919427	-1.038428	0.397193
C41	C	-1.008914	-1.241230	0.227619
C42	C	-0.959441	-1.289645	0.187113
C43	C	-0.880133	-1.270462	0.203132
C44	C	-0.850300	-1.202861	0.259652
C45	C	-0.830653	-1.318879	0.162622
C46	C	-0.751346	-1.299692	0.178637
C47	C	-0.770993	-1.183675	0.275667
C48	C	-0.241751	-1.116331	0.332085
C49	C	-0.157348	-1.095983	0.349145
C50	C	-0.479804	-1.132358	0.490134
C51	C	-0.496845	-1.118839	0.574545
C52	C	-0.439832	-0.368826	0.292068
C53	C	-0.439823	-0.456077	0.292057
C54	C	-0.399925	-1.195714	0.094750
C55	C	-0.382670	-1.209334	0.010382
C56	C	-0.569417	-1.061297	0.683699
C57	C	-0.553398	-1.074004	0.604383
C58	C	-0.456291	-1.150989	0.624018
C59	C	-0.472304	-1.138292	0.703336
C60	C	-0.528867	-1.093444	0.733171
C61	C	-0.431755	-1.170439	0.752808
C62	C	-0.447764	-1.157739	0.832120
C63	C	-0.504323	-1.112891	0.861961
C64	C	-0.544877	-1.080744	0.812483
C65	C	-0.375188	-1.215282	0.722973
C66	C	-0.334639	-1.247429	0.772444
C67	C	-0.350652	-1.234734	0.851757
C68	C	-0.407210	-1.189886	0.881598
C69	C	-0.310098	-1.266881	0.901236
C70	C	-0.326107	-1.254181	0.980548
C71	C	-0.423220	-1.177186	0.960911
H72	H	-0.545815	-0.723766	0.362183
H73	H	-0.805368	-1.071220	0.369716
H74	H	-0.586408	-1.047804	0.564107
C75	C	-0.631639	-1.011970	0.716521
H76	H	-0.653498	-0.994639	0.675700
H77	H	-0.670971	-1.045021	0.740779
H78	H	-0.608827	-0.965806	0.753328
C79	C	-0.317104	-0.696478	0.210861
H80	H	-0.282300	-0.730261	0.187841
H81	H	-0.339410	-0.676792	0.171866
H82	H	-0.289939	-0.651873	0.246649
H83	H	-0.469284	-1.140673	0.985202
H84	H	-0.517351	-1.102545	0.926544
H85	H	-0.854950	-1.373916	0.116594
H86	H	-0.333810	-0.456470	0.221928
H87	H	-0.333786	-0.858049	0.221900
C88	C	-0.607099	-1.031417	0.845305
H89	H	-0.628958	-1.014087	0.804483
H90	H	-0.646431	-1.064468	0.869563
H91	H	-0.584286	-0.985253	0.882112
H92	H	-0.264039	-1.303390	0.876933
C93	C	-0.281508	-1.289547	1.034969
H94	H	-0.245535	-1.318083	1.005840
H95	H	-0.254663	-1.246591	1.072594
H96	H	-0.316815	-1.325800	1.060037
H97	H	-0.410236	-1.187502	0.599716
C98	C	-0.357574	-1.229254	0.635732
H99	H	-0.318074	-1.260557	0.625050
H100	H	-0.402955	-1.257516	0.607885
H101	H	-0.340812	-1.178300	0.620441
H102	H	-0.545832	-0.470909	0.362201
C103	C	-0.272427	-1.296762	0.739621
H104	H	-0.268703	-1.299727	0.685299
H105	H	-0.224027	-1.270901	0.762930
H106	H	-0.286183	-1.350106	0.750376
C107	C	-1.015389	-0.934842	0.483864
H108	H	-0.961072	-0.930356	0.487602
H109	H	-1.026172	-0.887049	0.470075
H110	H	-1.038670	-0.941261	0.532283
C111	C	-0.696924	-1.352948	0.134085
H112	H	-0.726047	-1.395962	0.098133
H113	H	-0.659327	-1.320776	0.107210
H114	H	-0.671830	-1.374976	0.169429
H115	H	-0.545812	-0.872487	0.362169
H116	H	-1.132169	-1.199442	0.262610
C117	C	-0.562515	-0.632491	0.373235
H118	H	-0.597313	-0.598708	0.396269
H119	H	-0.589677	-0.677097	0.337453
H120	H	-0.540198	-0.652172	0.412231
H121	H	-1.167799	-0.988974	0.438658
H122	H	-0.333798	-0.605197	0.221916
H123	H	-0.746709	-1.128631	0.321701
C124	C	-1.096149	-1.262337	0.209998
H125	H	-1.106826	-1.309525	0.170526
H126	H	-1.123971	-1.272359	0.255396
H127	H	-1.111466	-1.218149	0.193185
H128	H	-0.895143	-0.983384	0.443227
H129	H	-0.983737	-1.344685	0.141089
