data_functionalizedCrystal
_audit_creation_method	'MofGen! by Chris Wilmer'
_symmetry_space_group_name_H-M	'P1'
_symmetry_Int_Tables_number	1
_symmetry_cell_setting	triclinic
loop_
_symmetry_equiv_pos_as_xyz
  x,y,z
_cell_length_a	10.489741
_cell_length_b	10.489741
_cell_length_c	14.185328
_cell_angle_alpha	104.651901
_cell_angle_beta	104.653505
_cell_angle_gamma	84.539174
loop_
_atom_site_label
_atom_site_type_symbol
_atom_site_fract_x
_atom_site_fract_y
_atom_site_fract_z
O1	O	0.205999	1.720087	0.083358
O2	O	0.222897	1.348896	0.083374
O3	O	0.028848	1.542936	0.083360
O4	O	0.400048	1.526047	0.083372
O5	O	-0.023259	1.490814	-0.083482
O6	O	0.170789	1.296774	-0.083468
O7	O	0.153892	1.667965	-0.083484
Cu8	Cu	0.157583	1.477610	-0.098710
Cu9	Cu	0.219206	1.539250	0.098600
O10	O	0.347940	1.473925	-0.083470
C11	C	0.195568	1.275304	-0.000045
C12	C	0.191752	1.133676	-0.000039
C13	C	0.068283	1.065532	-0.000053
C14	C	0.152298	0.999104	0.082209
C15	C	0.100954	0.947749	-0.082285
C16	C	0.275839	1.069135	0.082290
C17	C	0.224455	1.017767	-0.082277
C18	C	0.308566	0.951373	0.000005
C19	C	-0.044737	1.515599	-0.000061
C20	C	-0.186366	1.511782	-0.000059
C21	C	-0.254502	1.388322	-0.000046
C22	C	-0.372317	1.420946	-0.082310
C23	C	-0.320918	1.472363	0.082183
C24	C	-0.302337	1.544436	-0.082391
C25	C	-0.250905	1.595859	0.082176
C26	C	-0.368699	1.628567	-0.000108
C27	C	0.421526	1.501262	-0.000047
C28	C	0.563157	1.505081	-0.000042
C29	C	0.181221	1.741557	-0.000062
C30	C	0.185039	1.883187	-0.000062
N31	N	0.114240	1.434265	-0.237487
C32	C	0.389915	1.709851	-0.605097
C33	C	0.357064	1.677047	-0.710123
C34	C	0.200832	1.520926	-0.710107
C35	C	0.233674	1.553712	-0.605079
C36	C	0.328215	1.648177	-0.552582
C37	C	0.171975	1.492037	-0.552564
C38	C	0.204810	1.524826	-0.447544
C39	C	0.299345	1.619290	-0.395040
C40	C	0.361051	1.680966	-0.447563
C41	C	0.077427	1.397580	-0.605062
C42	C	0.015727	1.335905	-0.552547
C43	C	0.048569	1.368687	-0.447526
C44	C	0.143104	1.463151	-0.395022
C45	C	-0.013137	1.307011	-0.395003
C46	C	0.019698	1.339800	-0.289984
C47	C	0.175939	1.495940	-0.290002
N48	N	0.262538	1.582606	0.237378
H49	H	0.349784	1.121714	0.151915
H50	H	-0.418138	1.730154	-0.000158
H51	H	0.410184	0.901964	0.000053
C52	C	0.265622	1.030370	-0.176233
N53	N	0.296617	1.039865	-0.247009
C54	C	-0.068819	1.132646	0.000053
N55	N	-0.172080	1.183199	0.000139
H56	H	0.326076	1.645988	-0.309527
C57	C	-0.333423	1.431114	0.176139
N58	N	-0.342837	1.400036	0.246904
H59	H	0.438049	1.757874	-0.404817
C60	C	0.493923	1.813761	-0.547345
N61	N	0.572256	1.892025	-0.503845
C62	C	-0.048170	1.271951	-0.232214
N63	N	-0.099293	1.220847	-0.188702
C64	C	-0.179615	1.695726	0.176134
N65	N	-0.125913	1.770939	0.246910
C66	C	-0.290066	1.585559	-0.176456
N67	N	-0.280820	1.616525	-0.247307
H68	H	0.026971	0.895045	-0.151831
C69	C	-0.443561	1.321020	-0.176259
N70	N	-0.497217	1.245750	-0.247017
C71	C	0.279947	1.599849	-0.232250
N72	N	0.358280	1.678113	-0.188751
H73	H	0.407316	1.727277	-0.752877
H74	H	0.123851	1.444016	-0.752864
C75	C	0.041308	1.361515	-0.720588
N76	N	0.014104	1.334352	-0.807601
C77	C	-0.088260	1.231990	-0.610306
N78	N	-0.166580	1.153714	-0.653808
C79	C	-0.117134	1.203106	-0.452764
N80	N	-0.195464	1.124841	-0.496269
H81	H	-0.204876	1.286785	-0.000125
C82	C	0.111063	0.986543	0.176155
N83	N	0.079994	0.977084	0.246912
