data_functionalizedCrystal
_audit_creation_method	'MofGen! by Chris Wilmer'
_symmetry_space_group_name_H-M	'P1'
_symmetry_Int_Tables_number	1
_symmetry_cell_setting	triclinic
loop_
_symmetry_equiv_pos_as_xyz
  x,y,z
_cell_length_a	6.817900
_cell_length_b	11.353959
_cell_length_c	14.125465
_cell_angle_alpha	106.193871
_cell_angle_beta	100.398878
_cell_angle_gamma	107.526623
loop_
_atom_site_label
_atom_site_type_symbol
_atom_site_fract_x
_atom_site_fract_y
_atom_site_fract_z
V1	V	-4.027839	-0.179668	-0.330075
O2	O	-3.977518	0.009789	-0.292626
O3	O	-4.015716	-0.357363	-0.357791
O4	O	-3.963316	-0.176398	-0.460357
O5	O	-4.030281	-0.172429	-0.189350
V6	V	-4.508855	-0.157067	-0.309602
O7	O	-4.294595	-0.229247	-0.374984
O8	O	-4.692296	-0.107489	-0.264693
O9	O	-4.297772	0.020628	-0.281886
O10	O	-4.676572	-0.346524	-0.347050
O11	O	-4.623810	-0.164306	-0.450326
O12	O	-4.350171	-0.160338	-0.179319
C13	C	-3.870063	-0.400697	-0.360318
C14	C	-3.941330	-0.545962	-0.383847
C15	C	-3.941208	-0.593306	-0.307688
C16	C	-4.014866	-0.743444	-0.332005
C17	C	-3.803221	-0.169856	-0.491150
C18	C	-3.831990	-0.168358	-0.597853
C19	C	-3.884722	-0.165611	-0.793216
C20	C	-4.071340	-0.171122	-0.846460
C21	C	-4.100683	-0.169593	-0.955167
C22	C	-3.855372	-0.167139	-0.684499
C23	C	-4.106768	0.063955	-0.279357
C24	C	-4.014738	0.209218	-0.255834
C25	C	-4.173610	-0.166883	-0.148522
C26	C	-4.124078	-0.168375	-0.041817
H27	H	-4.069508	-0.814059	-0.415216
H28	H	-3.960111	-0.720169	-0.172623
H29	H	-3.747003	-0.159746	-0.829271
O30	O	-4.013703	-0.639487	-0.494069
H31	H	-4.060191	-0.742735	-0.495871
O32	O	-4.253807	-0.178900	-0.798717
H33	H	-4.297123	-0.269294	-0.778586
O34	O	-3.868829	-0.499780	-0.197466
H35	H	-3.822314	-0.396531	-0.195662
