data_functionalizedCrystal
_audit_creation_method	'MofGen! by Chris Wilmer'
_symmetry_space_group_name_H-M	'P1'
_symmetry_Int_Tables_number	1
_symmetry_cell_setting	triclinic
loop_
_symmetry_equiv_pos_as_xyz
  x,y,z
_cell_length_a	8.634740
_cell_length_b	10.489741
_cell_length_c	7.681481
_cell_angle_alpha	84.227546
_cell_angle_beta	96.638091
_cell_angle_gamma	92.554740
loop_
_atom_site_label
_atom_site_type_symbol
_atom_site_fract_x
_atom_site_fract_y
_atom_site_fract_z
O1	O	2.065179	0.406164	0.146435
O2	O	1.615840	0.371245	0.146437
O3	O	1.850733	0.204286	0.146426
O4	O	1.830286	0.573122	0.146447
O5	O	1.821726	0.224800	-0.146431
O6	O	1.586833	0.391758	-0.146419
O7	O	2.036172	0.426678	-0.146421
Zn8	Zn	1.806897	0.412475	-0.192917
Zn9	Zn	1.845115	0.385447	0.192934
O10	O	1.801279	0.593636	-0.146410
C11	C	1.543798	0.373591	0.000009
C12	C	1.372353	0.350005	0.000009
C13	C	1.834685	0.166833	-0.000001
C14	C	1.830065	0.024671	0.000002
C15	C	1.680609	-0.060704	0.000015
C16	C	1.736909	-0.134571	-0.144378
C17	C	1.765543	-0.154767	0.144355
C18	C	1.886414	-0.047316	-0.144511
C19	C	1.915040	-0.067513	0.144352
C20	C	1.971445	-0.141338	-0.000077
C21	C	2.108214	0.424331	0.000011
C22	C	2.279660	0.447916	0.000022
C23	C	1.817327	0.631089	0.000021
C24	C	1.821949	0.773250	0.000030
N25	N	1.871199	0.366992	0.456267
N26	N	1.780825	0.430921	-0.456250
H27	H	1.320549	0.248125	0.000054
H28	H	1.990317	-0.037734	0.266433
H29	H	1.331461	0.549787	0.000012
H30	H	1.661579	-0.164323	-0.266452
O31	O	1.697779	-0.216793	0.306063
H32	H	1.577054	-0.184520	0.305745
H33	H	1.557713	-0.025212	-0.000130
O34	O	1.658644	0.517383	0.444167
H35	H	1.662051	0.515001	0.300530
O36	O	1.954066	0.014497	-0.306406
H37	H	1.956906	0.120296	-0.305182
H38	H	1.963437	0.301718	0.531468
H39	H	2.094430	-0.176575	-0.000157
