data_functionalizedCrystal
_audit_creation_method	'MofGen! by Chris Wilmer'
_symmetry_space_group_name_H-M	'P1'
_symmetry_Int_Tables_number	1
_symmetry_cell_setting	triclinic
loop_
_symmetry_equiv_pos_as_xyz
  x,y,z
_cell_length_a	14.971506
_cell_length_b	16.992695
_cell_length_c	13.448316
_cell_angle_alpha	90.003860
_cell_angle_beta	90.005383
_cell_angle_gamma	87.145305
loop_
_atom_site_label
_atom_site_type_symbol
_atom_site_fract_x
_atom_site_fract_y
_atom_site_fract_z
O1	O	1.194119	0.102263	0.082700
O2	O	1.694119	0.602263	0.582700
O3	O	0.934580	0.114483	0.082701
O4	O	1.434580	0.614483	0.582701
O5	O	1.063309	-0.005771	0.082692
O6	O	1.563309	0.494229	0.582692
O7	O	1.065390	0.222517	0.082708
O8	O	1.565390	0.722517	0.582708
O9	O	1.063296	-0.005772	-0.082691
O10	O	1.563296	0.494228	0.417309
O11	O	0.934567	0.114482	-0.082683
O12	O	1.434567	0.614482	0.417317
O13	O	1.194106	0.102262	-0.082684
O14	O	1.694106	0.602262	0.417316
Cu15	Cu	1.064335	0.108372	-0.097784
Cu16	Cu	1.564335	0.608372	0.402216
Cu17	Cu	1.064351	0.108373	0.097801
Cu18	Cu	1.564351	0.608373	0.597801
O19	O	1.065377	0.222516	-0.082676
O20	O	1.565377	0.722516	0.417324
C21	C	0.901211	0.113934	0.000009
C22	C	1.401211	0.613934	0.500009
C23	C	0.801799	0.112287	0.000009
C24	C	1.301799	0.612287	0.500009
C25	C	0.368038	0.176652	0.000023
C26	C	0.868038	0.676652	0.500023
C27	C	0.461447	0.178192	0.000028
C28	C	0.961447	0.678192	0.500028
C29	C	0.513703	0.107538	0.000018
C30	C	1.013703	0.607538	0.500018
C31	C	0.472545	0.035339	0.000015
C32	C	0.972545	0.535339	0.500015
C33	C	0.379139	0.033799	0.000018
C34	C	0.879139	0.533799	0.500018
C35	C	0.667234	0.038554	0.000007
C36	C	1.167234	0.538554	0.500007
C37	C	0.760648	0.040093	0.000002
C38	C	1.260648	0.540093	0.500002
C39	C	0.749543	0.182947	0.000017
C40	C	1.249543	0.682947	0.500017
C41	C	0.656136	0.181407	0.000020
C42	C	1.156136	0.681407	0.500020
C43	C	0.614985	0.109207	0.000014
C44	C	1.114985	0.609207	0.500014
C45	C	1.060626	-0.034986	0.000001
C46	C	1.560626	0.465014	0.500001
C47	C	1.052639	-0.122039	0.000001
C48	C	1.552639	0.377961	0.500001
C49	C	1.129703	-0.172202	-0.000000
C50	C	1.629703	0.327798	0.500000
C51	C	1.122193	-0.253996	0.000009
C52	C	1.622193	0.246004	0.500009
C53	C	1.037618	-0.285625	0.000013
C54	C	1.537618	0.214375	0.500013
C55	C	0.960548	-0.235455	0.000017
C56	C	1.460548	0.264545	0.500017
C57	C	0.968059	-0.153663	0.000015
C58	C	1.468059	0.346337	0.500015
C59	C	1.006489	-0.529254	0.000027
C60	C	1.506489	-0.029254	0.500027
C61	C	0.998983	-0.611053	0.000026
C62	C	1.498983	-0.111053	0.500026
C63	C	1.160629	-0.629588	0.000020
C64	C	1.660629	-0.129588	0.500020
C65	C	1.168132	-0.547793	0.000012
C66	C	1.668132	-0.047793	0.500012
C67	C	1.091062	-0.497631	0.000021
C68	C	1.591062	0.002369	0.500021
N69	N	1.029939	-0.369232	0.000019
N70	N	1.529939	0.130768	0.500019
N71	N	1.098742	-0.414026	0.000022
N72	N	1.598742	0.085974	0.500022
C73	C	1.227476	0.102811	0.000010
C74	C	1.727476	0.602811	0.500010
C75	C	1.326887	0.104458	0.000017
C76	C	1.826887	0.604458	0.500017
C77	C	1.068060	0.251731	0.000018
C78	C	1.568060	0.751731	0.500018
C79	C	1.076047	0.338784	0.000025
C80	C	1.576047	0.838784	0.500025
N81	N	1.064330	0.108371	-0.235349
N82	N	1.564330	0.608371	0.264651
C83	C	1.121979	0.156014	-0.287381
C84	C	1.621979	0.656014	0.212619
C85	C	1.121990	0.156010	-0.391485
C86	C	1.621990	0.656010	0.108515
C87	C	1.064347	0.108367	-0.443553
C88	C	1.564347	0.608367	0.056447
C89	C	1.006695	0.060719	-0.391513
C90	C	1.506695	0.560719	0.108487
C91	C	1.006689	0.060718	-0.287412
C92	C	1.506689	0.560718	0.212588
C93	C	1.006709	0.060724	-0.608493
C94	C	1.506709	0.560724	-0.108493
C95	C	1.006714	0.060725	-0.712602
C96	C	1.506714	0.560725	-0.212602
C97	C	1.122010	0.156016	-0.712566
C98	C	1.622010	0.656016	-0.212566
C99	C	1.122005	0.156016	-0.608465
C100	C	1.622005	0.656016	-0.108465
C101	C	1.064351	0.108368	-0.556432
C102	C	1.564351	0.608368	-0.056432
N103	N	1.064363	0.108368	0.235365
N104	N	1.564363	0.608368	0.735365
H105	H	0.633733	-0.020239	0.000007
H106	H	1.133733	0.479761	0.500007
H107	H	0.515100	-0.022188	0.000013
H108	H	1.015100	0.477812	0.500013
H109	H	1.198572	-0.146456	-0.000009
H110	H	1.698572	0.353544	0.499991
H111	H	0.613591	0.238940	0.000021
H112	H	1.113591	0.738940	0.500021
H113	H	0.783052	0.241735	0.000021
H114	H	1.283052	0.741735	0.500021
C115	C	0.943272	0.008317	-0.230171
C116	C	1.443272	0.508317	0.269829
H117	H	0.951529	0.015135	-0.160716
H118	H	1.451529	0.515135	0.339284
H119	H	0.883111	0.022793	-0.247241
H120	H	1.383111	0.522793	0.252759
H121	H	0.956066	-0.045315	-0.247234
H122	H	1.456066	0.454685	0.252766
H123	H	0.905305	-0.112820	0.000016
H124	H	1.405305	0.387180	0.500016
H125	H	0.959763	0.021923	-0.566131
H126	H	1.459763	0.521923	-0.066131
H127	H	1.168914	0.194815	-0.244994
H128	H	1.668914	0.694815	0.255006
C129	C	0.310561	0.254370	0.000033
C130	C	0.810561	0.754370	0.500033
H131	H	0.249037	0.243116	0.000024
H132	H	0.749037	0.743116	0.500024
H133	H	0.323596	0.283968	0.057709
H134	H	0.823596	0.783968	0.557709
H135	H	0.323584	0.283970	-0.057645
H136	H	0.823584	0.783970	0.442355
C137	C	1.185401	0.208421	-0.448716
C138	C	1.685401	0.708421	0.051284
H139	H	1.219722	0.236803	-0.402797
H140	H	1.719722	0.736803	0.097203
H141	H	1.224279	0.176353	-0.489322
H142	H	1.724279	0.676353	0.010678
H143	H	1.151317	0.244456	-0.489329
H144	H	1.651317	0.744456	0.010671
H145	H	1.168939	0.194815	-0.566073
H146	H	1.668939	0.694815	-0.066073
H147	H	1.168950	0.194816	-0.754936
H148	H	1.668950	0.694816	-0.254936
H149	H	0.494947	0.236980	0.000042
H150	H	0.994947	0.736980	0.500042
H151	H	1.223374	-0.670439	0.000014
H152	H	1.723374	-0.170439	0.500014
H153	H	0.345635	-0.024988	0.000014
H154	H	0.845635	0.475012	0.500014
H155	H	0.930109	-0.636802	0.000013
H156	H	1.430109	-0.136802	0.500013
H157	H	0.943732	-0.488421	0.000034
H158	H	1.443732	0.011579	0.500034
C159	C	0.943287	0.008338	-0.769876
C160	C	1.443287	0.508338	-0.269876
H161	H	0.908952	-0.020041	-0.723980
H162	H	1.408952	0.479959	-0.223980
H163	H	0.904424	0.040428	-0.810475
H164	H	1.404424	0.540428	-0.310475
H165	H	0.977356	-0.027700	-0.810498
H166	H	1.477356	0.472300	-0.310498
H167	H	1.184947	-0.294836	0.000006
H168	H	1.684947	0.205164	0.500006
C169	C	1.261164	-0.513007	0.000021
C170	C	1.761164	-0.013007	0.500021
H171	H	1.305987	-0.554598	0.000032
H172	H	1.805987	-0.054598	0.500032
H173	H	1.267453	-0.481486	-0.057650
H174	H	1.767453	0.018514	0.442350
H175	H	1.267453	-0.481484	0.057703
H176	H	1.767453	0.018516	0.557703
H177	H	0.891685	-0.261214	0.000026
H178	H	1.391685	0.238786	0.500026
H179	H	0.803192	-0.017439	0.000003
H180	H	1.303192	0.482561	0.500003
C181	C	0.943274	0.008323	-0.448781
C182	C	1.443274	0.508323	0.051219
H183	H	0.908940	-0.020054	-0.402880
H184	H	1.408940	0.479946	0.097120
H185	H	0.904408	0.040405	-0.489387
H186	H	1.404408	0.540405	0.010613
H187	H	0.977347	-0.027717	-0.489396
H188	H	1.477347	0.472283	0.010604
