data_functionalizedCrystal
_audit_creation_method	'MofGen! by Chris Wilmer'
_symmetry_space_group_name_H-M	'P1'
_symmetry_Int_Tables_number	1
_symmetry_cell_setting	triclinic
loop_
_symmetry_equiv_pos_as_xyz
  x,y,z
_cell_length_a	15.944551
_cell_length_b	15.944551
_cell_length_c	14.750779
_cell_angle_alpha	77.355667
_cell_angle_beta	102.647229
_cell_angle_gamma	83.498738
loop_
_atom_site_label
_atom_site_type_symbol
_atom_site_fract_x
_atom_site_fract_y
_atom_site_fract_z
O1	O	1.096314	0.126533	-0.079730
O2	O	1.596314	0.626533	0.420270
O3	O	0.851758	0.139895	-0.079754
O4	O	1.351758	0.639895	0.420246
O5	O	0.980716	0.010937	-0.079733
O6	O	1.480716	0.510937	0.420267
O7	O	0.967356	0.255491	-0.079751
O8	O	1.467356	0.755491	0.420249
O9	O	1.017171	-0.025514	0.079924
O10	O	1.517171	0.474486	0.579924
O11	O	0.888213	0.103444	0.079902
O12	O	1.388213	0.603444	0.579902
O13	O	1.132768	0.090082	0.079926
O14	O	1.632768	0.590082	0.579926
Zn15	Zn	1.016279	0.090976	0.105263
Zn16	Zn	1.516279	0.590976	0.605263
Zn17	Zn	0.968248	0.139001	-0.105091
Zn18	Zn	1.468248	0.639001	0.394909
O19	O	1.003811	0.219040	0.079905
O20	O	1.503811	0.719040	0.579905
C21	C	0.838691	0.121116	0.000071
C22	C	1.338691	0.621116	0.500071
C23	C	0.745443	0.119455	0.000062
C24	C	1.245443	0.619455	0.500062
C25	C	0.530592	0.035545	0.000087
C26	C	1.030592	0.535545	0.500087
C27	C	0.451597	0.092481	-0.078635
C28	C	0.951597	0.592481	0.421365
C29	C	0.574720	0.116445	0.000074
C30	C	1.074720	0.616445	0.500074
C31	C	0.487561	0.056562	0.078774
C32	C	0.987561	0.556562	0.578774
C33	C	0.409811	0.113531	0.000089
C34	C	0.909811	0.613531	0.500089
C35	C	0.496938	0.173418	-0.078713
C36	C	0.996938	0.673418	0.421287
C37	C	0.532925	0.137472	0.078766
C38	C	1.032925	0.637472	0.578766
C39	C	0.453943	0.194470	0.000025
C40	C	0.953943	0.694470	0.500025
C41	C	0.669720	0.118122	0.000064
C42	C	1.169720	0.618122	0.500064
C43	C	0.314810	0.111862	0.000092
C44	C	0.814810	0.611862	0.500092
C45	C	0.998389	-0.038582	0.000095
C46	C	1.498389	0.461418	0.500095
C47	C	0.996727	-0.131829	0.000096
C48	C	1.496727	0.368171	0.500096
C49	C	0.912818	-0.346680	0.000074
C50	C	1.412818	0.153320	0.500074
C51	C	0.969755	-0.425671	0.078798
C52	C	1.469755	0.074329	0.578798
C53	C	0.993718	-0.302553	0.000088
C54	C	1.493718	0.197447	0.500088
C55	C	0.933833	-0.389717	-0.078610
C56	C	1.433833	0.110283	0.421390
C57	C	0.990805	-0.467463	0.000077
C58	C	1.490805	0.032537	0.500077
C59	C	1.050693	-0.380330	0.078877
C60	C	1.550693	0.119670	0.578877
C61	C	1.014743	-0.344353	-0.078602
C62	C	1.514743	0.155647	0.421398
C63	C	1.071744	-0.423331	0.000141
C64	C	1.571744	0.076669	0.500141
C65	C	0.995394	-0.207552	0.000096
C66	C	1.495394	0.292448	0.500096
C67	C	0.989136	-0.562464	0.000076
C68	C	1.489136	-0.062464	0.500076
C69	C	1.145835	0.108862	0.000099
C70	C	1.645835	0.608862	0.500099
C71	C	1.239082	0.110524	0.000102
C72	C	1.739082	0.610524	0.500102
C73	C	0.986137	0.268560	0.000074
C74	C	1.486137	0.768560	0.500074
C75	C	0.987798	0.361808	0.000068
C76	C	1.487798	0.861808	0.500068
N77	N	1.049065	0.058199	0.248824
N78	N	1.549065	0.558199	0.748824
N79	N	0.935469	0.171771	-0.248652
N80	N	1.435469	0.671771	0.251348
C81	C	0.843903	0.263275	0.600608
C82	C	1.343903	0.763275	1.100608
C83	C	0.866883	0.240313	0.701111
C84	C	1.366883	0.740313	1.201111
C85	C	0.981099	0.126162	0.701093
C86	C	1.481099	0.626162	1.201093
C87	C	0.958125	0.149112	0.600588
C88	C	1.458125	0.649112	1.100588
C89	C	0.889527	0.217670	0.550354
C90	C	1.389527	0.717670	1.050354
C91	C	1.003749	0.103507	0.550333
C92	C	1.503749	0.603507	1.050333
C93	C	0.980780	0.126459	0.449837
C94	C	1.480780	0.626459	0.949837
C95	C	0.912187	0.195015	0.399596
C96	C	1.412187	0.695015	0.899596
C97	C	0.866558	0.240621	0.449857
C98	C	1.366558	0.740621	0.949857
C99	C	1.072351	0.034954	0.600569
C100	C	1.572351	0.534954	1.100569
C101	C	1.117976	-0.010651	0.550315
C102	C	1.617976	0.489349	1.050315
C103	C	1.095003	0.012296	0.449817
C104	C	1.595003	0.512296	0.949817
C105	C	1.026409	0.080853	0.399575
C106	C	1.526409	0.580853	0.899575
C107	C	1.140632	-0.033310	0.399555
C108	C	1.640632	0.466690	0.899555
C109	C	1.117663	-0.010358	0.299059
C110	C	1.617663	0.489642	0.799059
C111	C	1.003440	0.103804	0.299079
C112	C	1.503440	0.603804	0.799079
H113	H	0.568252	0.156465	0.145318
H114	H	1.068252	0.656465	0.645318
Br115	Br	0.398655	0.306502	-0.000051
Br116	Br	0.898655	0.806502	0.499949
Br117	Br	0.504889	0.255759	-0.189762
Br118	Br	1.004889	0.755759	0.310238
Br119	Br	1.074197	0.033126	0.769274
Br120	Br	1.574197	0.533126	1.269274
Br121	Br	0.881019	0.226171	0.263206
Br122	Br	1.381019	0.726171	0.763206
Br123	Br	0.773447	0.333654	0.381677
Br124	Br	1.273447	0.833654	0.881677
H125	H	0.482671	0.007137	0.145325
H126	H	0.982671	0.507137	0.645325
Br127	Br	1.179588	-0.072248	0.230853
Br128	Br	1.679588	0.427752	0.730853
Br129	Br	1.211074	-0.103687	0.618495
Br130	Br	1.711074	0.396313	1.118495
H131	H	0.788037	0.319095	0.559706
H132	H	1.288037	0.819095	1.059706
H133	H	0.845686	-0.313389	0.000146
H134	H	1.345686	0.186611	0.500146
H135	H	0.950734	-0.460973	0.145347
H136	H	1.450734	0.039027	0.645347
H137	H	1.100094	-0.375551	0.145505
H138	H	1.600094	0.124449	0.645505
Br139	Br	1.183776	-0.478618	0.000219
Br140	Br	1.683776	0.021382	0.500219
Br141	Br	0.586081	-0.076346	-0.000027
Br142	Br	1.086081	0.423654	0.499973
H143	H	1.033734	-0.309028	-0.145154
H144	H	1.533734	0.190972	0.354846
Br145	Br	1.233737	-0.126338	0.467739
Br146	Br	1.733737	0.373662	0.967739
H147	H	0.884408	-0.394597	-0.145170
H148	H	1.384408	0.105403	0.354830
H149	H	0.947575	0.159624	0.258176
H150	H	1.447575	0.659624	0.758176
H151	H	0.829725	0.277457	0.742024
H152	H	1.329725	0.777457	1.242024
H153	H	1.091053	0.016273	0.682400
H154	H	1.591053	0.516273	1.182400
H155	H	0.416292	0.073458	-0.145184
H156	H	0.916292	0.573458	0.354816
