data_functionalizedCrystal
_audit_creation_method	'MofGen! by Chris Wilmer'
_symmetry_space_group_name_H-M	'P1'
_symmetry_Int_Tables_number	1
_symmetry_cell_setting	triclinic
loop_
_symmetry_equiv_pos_as_xyz
  x,y,z
_cell_length_a	16.109301
_cell_length_b	9.198806
_cell_length_c	16.109301
_cell_angle_alpha	89.995129
_cell_angle_beta	96.538519
_cell_angle_gamma	90.001239
loop_
_atom_site_label
_atom_site_type_symbol
_atom_site_fract_x
_atom_site_fract_y
_atom_site_fract_z
O1	O	1.103131	0.120805	-0.106866
O2	O	1.603131	0.620805	0.393134
O3	O	0.861069	0.120829	-0.120165
O4	O	1.361069	0.620829	0.379835
O5	O	0.988750	0.120802	0.007516
O6	O	1.488750	0.620802	0.507516
O7	O	0.975451	0.120832	-0.234546
O8	O	1.475451	0.620832	0.265454
O9	O	0.988740	-0.120984	0.007517
O10	O	1.488740	0.379016	0.507517
O11	O	0.861059	-0.120956	-0.120164
O12	O	1.361059	0.379044	0.379836
O13	O	1.103121	-0.120980	-0.106865
O14	O	1.603121	0.379020	0.393135
Cu15	Cu	0.982089	-0.143045	-0.113514
Cu16	Cu	1.482089	0.356955	0.386486
Cu17	Cu	0.982101	0.142894	-0.113515
Cu18	Cu	1.482101	0.642894	0.386485
O19	O	0.975441	-0.120953	-0.234545
O20	O	1.475441	0.379047	0.265455
C21	C	0.830090	-0.000061	-0.119626
C22	C	1.330090	0.499939	0.380374
C23	C	0.737794	-0.000052	-0.118011
C24	C	1.237794	0.499948	0.381989
N25	N	0.982087	-0.344159	-0.113513
N26	N	1.482087	0.155841	0.386487
C27	C	0.515522	-0.000060	-0.190018
C28	C	1.015522	0.499940	0.309982
C29	C	0.428801	-0.000069	-0.188494
C30	C	0.928801	0.499931	0.311506
C31	C	0.448676	-0.000083	-0.037006
C32	C	0.948676	0.499917	0.462994
C33	C	0.535394	-0.000084	-0.038530
C34	C	1.035394	0.499916	0.461470
C35	C	0.568815	-0.000065	-0.115039
C36	C	1.068815	0.499935	0.384961
C37	C	0.395376	-0.000073	-0.111990
C38	C	0.895376	0.499927	0.388010
C39	C	0.301350	-0.000084	-0.110337
C40	C	0.801350	0.499916	0.389663
C41	C	0.662847	-0.000057	-0.116693
C42	C	1.162847	0.499943	0.383307
C43	C	1.030143	-0.416355	-0.161298
C44	C	1.530143	0.083645	0.338702
C45	C	1.030156	-0.583768	-0.161297
C46	C	1.530156	-0.083768	0.338703
C47	C	1.134101	-0.000087	-0.107404
C48	C	1.634101	0.499913	0.392596
C49	C	1.226397	-0.000086	-0.109019
C50	C	1.726397	0.499914	0.390981
C51	C	0.988206	-0.000092	0.038491
C52	C	1.488206	0.499908	0.538491
C53	C	0.986591	-0.000094	0.130786
C54	C	1.486591	0.499906	0.630786
N55	N	0.982110	0.344008	-0.113510
N56	N	1.482110	0.844008	0.386490
C57	C	0.975984	-0.000056	-0.265521
C58	C	1.475984	0.499944	0.234479
C59	C	0.977600	-0.000045	-0.357816
C60	C	1.477600	0.499955	0.142184
C61	C	1.058599	-0.000078	0.353059
C62	C	1.558599	0.499922	0.853059
C63	C	1.057075	-0.000065	0.439779
C64	C	1.557075	0.499935	0.939779
C65	C	0.905586	-0.000056	0.419905
C66	C	1.405586	0.499944	0.919905
C67	C	0.907111	-0.000058	0.333186
C68	C	1.407111	0.499942	0.833186
C69	C	0.983620	-0.000076	0.299766
C70	C	1.483620	0.499924	0.799766
C71	C	0.980571	-0.000062	0.473205
C72	C	1.480571	0.499938	0.973205
C73	C	0.978918	-0.000049	0.567231
C74	C	1.478918	0.499951	1.067231
C75	C	0.985273	-0.000086	0.205734
C76	C	1.485273	0.499914	0.705734
H77	H	0.542730	-0.000056	-0.252317
H78	H	1.042730	0.499944	0.247683
Br79	Br	1.162431	-0.000103	0.307705
Br80	Br	1.662431	0.499897	0.807705
H81	H	0.940961	-0.593914	-0.072601
H82	H	1.440961	-0.093914	0.427399
Br83	Br	1.158837	-0.000059	0.512103
Br84	Br	1.658837	0.499941	1.012103
H85	H	1.071280	-0.354225	-0.202206
H86	H	1.571280	0.145775	0.297794
Br87	Br	1.098727	-0.687240	-0.229496
Br88	Br	1.598727	-0.187240	0.270504
H89	H	0.940956	-0.406289	-0.072599
H90	H	1.440956	0.093711	0.427401
Br91	Br	0.356477	-0.000070	-0.290256
Br92	Br	0.856477	0.499930	0.209744
H93	H	0.421454	-0.000107	0.025285
H94	H	0.921454	0.499893	0.525285
H95	H	0.843295	-0.000045	0.447127
H96	H	1.343295	0.499955	0.947127
Br97	Br	0.805346	-0.000036	0.260853
Br98	Br	1.305346	0.499964	0.760853
H99	H	0.578788	-0.000092	0.022530
H100	H	1.078788	0.499908	0.522530
