data_functionalizedCrystal
_audit_creation_method	'MofGen! by Chris Wilmer'
_symmetry_space_group_name_H-M	'P1'
_symmetry_Int_Tables_number	1
_symmetry_cell_setting	triclinic
loop_
_symmetry_equiv_pos_as_xyz
  x,y,z
_cell_length_a	13.635800
_cell_length_b	23.752963
_cell_length_c	11.102291
_cell_angle_alpha	84.883160
_cell_angle_beta	108.605752
_cell_angle_gamma	79.933268
loop_
_atom_site_label
_atom_site_type_symbol
_atom_site_fract_x
_atom_site_fract_y
_atom_site_fract_z
V1	V	2.034387	-0.079169	0.397005
O2	O	2.036311	0.003797	0.388680
O3	O	2.001761	-0.156973	0.395028
O4	O	2.023107	-0.077955	0.569816
O5	O	2.014818	-0.075768	0.212682
V6	V	2.275618	-0.069245	0.374869
O7	O	2.166178	-0.100939	0.445562
O8	O	2.368925	-0.047476	0.326311
O9	O	2.196640	0.008558	0.376846
O10	O	2.332392	-0.152212	0.383193
O11	O	2.353885	-0.072647	0.559191
O12	O	2.175294	-0.070460	0.202058
V13	V	2.534387	-0.079169	0.397005
O14	O	2.536311	0.003797	0.388680
O15	O	2.501761	-0.156973	0.395028
O16	O	2.523107	-0.077955	0.569816
O17	O	2.514818	-0.075768	0.212682
V18	V	2.775618	-0.069245	0.374869
O19	O	2.666178	-0.100939	0.445562
O20	O	2.868925	-0.047476	0.326311
O21	O	2.696640	0.008558	0.376846
O22	O	2.832392	-0.152212	0.383193
O23	O	2.853885	-0.072647	0.559191
O24	O	2.675294	-0.070460	0.202058
C25	C	1.921794	-0.175939	0.388955
C26	C	1.935848	-0.239544	0.388491
C27	C	1.995191	-0.625784	0.269009
C28	C	2.008408	-0.685547	0.268554
O29	O	1.991568	-0.709507	0.169278
N30	N	2.042891	-0.723609	0.384792
C31	C	2.064170	-0.701906	0.501493
O32	O	2.094716	-0.739768	0.600321
C33	C	2.050961	-0.642144	0.501947
C34	C	2.016466	-0.604084	0.385700
C35	C	1.960700	-0.587724	0.152772
C36	C	1.947483	-0.527966	0.153226
C37	C	1.968758	-0.506266	0.269918
C38	C	2.003249	-0.544325	0.386155
C39	C	2.072248	-0.620442	0.618646
C40	C	2.059036	-0.560676	0.619090
C41	C	2.024541	-0.522616	0.502843
C42	C	2.011307	-0.462867	0.503301
N43	N	1.976823	-0.424805	0.387063
C44	C	1.955549	-0.446504	0.270371
C45	C	2.091910	-0.827409	0.500532
C46	C	2.105112	-0.887169	0.500080
C47	C	2.049350	-0.870806	0.267141
C48	C	2.036141	-0.811044	0.267594
C49	C	2.057426	-0.789347	0.384294
C50	C	1.927793	-0.321007	0.271334
C51	C	1.914574	-0.261244	0.271799
C52	C	1.970342	-0.277612	0.504738
C53	C	1.983555	-0.337371	0.504274
C54	C	1.962282	-0.359066	0.387562
O55	O	2.028131	-0.438865	0.602527
O56	O	1.925019	-0.408636	0.171561
C57	C	1.949022	-0.075144	0.611913
C58	C	1.980386	-0.074665	0.753191
C59	C	2.108278	0.027521	0.382915
C60	C	2.083843	0.091126	0.383388
C61	C	2.081050	-0.073273	0.159954
C62	C	2.039305	-0.073748	0.018674
C63	C	2.421794	-0.175939	0.388955
C64	C	2.435848	-0.239544	0.388491
C65	C	2.449022	-0.075144	0.611913
C66	C	2.480386	-0.074665	0.753191
C67	C	2.086353	-0.077294	0.826064
C68	C	2.115813	-0.076834	0.958806
C69	C	1.933329	-0.071118	0.945791
C70	C	1.903869	-0.071574	0.813050
C71	C	2.191710	-0.080597	0.833580
C72	C	2.221170	-0.080136	0.966322
C73	C	2.608278	0.027521	0.382915
C74	C	2.583843	0.091126	0.383388
C75	C	2.581050	-0.073273	0.159954
C76	C	2.539305	-0.073748	0.018674
C77	C	2.533678	-0.272331	0.394650
C78	C	2.546902	-0.332097	0.394233
C79	C	2.462294	-0.359073	0.387647
C80	C	2.364457	-0.326282	0.381491
C81	C	2.351236	-0.266518	0.381918
C82	C	2.658507	0.123913	0.377232
C83	C	2.635555	0.183678	0.377655
C84	C	2.537941	0.210654	0.384244
C85	C	2.463270	0.177863	0.390396
C86	C	2.486220	0.118100	0.389963
C87	C	2.586353	-0.077294	0.826064
C88	C	2.615813	-0.076834	0.958806
C89	C	2.433329	-0.071118	0.945791
C90	C	2.403869	-0.071574	0.813050
C91	C	2.691710	-0.080597	0.833580
C92	C	2.721170	-0.080136	0.966322
H93	H	1.886480	-0.230257	0.177133
H94	H	2.317583	-0.069434	0.753722
F95	F	2.759346	-0.027040	1.003868
F96	F	2.300480	-0.134208	1.035912
F97	F	1.851902	-0.067828	1.009509
F98	F	2.351902	-0.067828	1.009509
F99	F	2.718139	-0.029837	0.771537
F100	F	1.791085	-0.068772	0.735496
F101	F	2.738991	-0.136367	0.802123
F102	F	2.218139	-0.029837	0.771537
F103	F	2.238991	-0.136367	0.802123
F104	F	2.651033	-0.366985	0.400779
H105	H	2.250373	-0.039512	0.995041
H106	H	2.519267	0.259318	0.384594
F107	F	2.359383	0.206583	0.397400
H108	H	2.425418	0.091408	0.394987
H109	H	2.032028	-0.888484	0.172124
F110	F	1.999430	-0.770543	0.143870
H111	H	2.781845	-0.121507	1.019559
H112	H	2.109241	-0.809747	0.595569
F113	F	1.905148	-0.344088	0.147117
H114	H	1.919402	-0.496982	0.058567
F115	F	2.623742	-0.243633	0.401667
H116	H	1.943375	-0.605385	0.057742
F117	F	2.762404	0.095213	0.370220
F118	F	2.476380	-0.422681	0.387193
H119	H	2.271569	-0.239827	0.376895
F120	F	2.141793	-0.927669	0.623803
H121	H	2.100336	-0.651422	0.713307
F122	F	2.274417	-0.355001	0.374479
H123	H	2.076382	-0.543014	0.714124
F124	F	2.715040	0.218566	0.371109
H125	H	2.011627	-0.368360	0.598930
F126	F	1.992973	-0.254507	0.628922
