data_functionalizedCrystal
_audit_creation_method	'MofGen! by Chris Wilmer'
_symmetry_space_group_name_H-M	'P1'
_symmetry_Int_Tables_number	1
_symmetry_cell_setting	triclinic
loop_
_symmetry_equiv_pos_as_xyz
  x,y,z
_cell_length_a	6.817900
_cell_length_b	9.514072
_cell_length_c	19.453114
_cell_angle_alpha	92.251299
_cell_angle_beta	101.709288
_cell_angle_gamma	118.843421
loop_
_atom_site_label
_atom_site_type_symbol
_atom_site_fract_x
_atom_site_fract_y
_atom_site_fract_z
V1	V	-4.092146	-0.223881	-0.219553
O2	O	-3.991297	0.009038	-0.214808
O3	O	-4.127001	-0.442263	-0.218596
O4	O	-4.034036	-0.221192	-0.315060
O5	O	-4.084907	-0.213564	-0.117677
V6	V	-4.566244	-0.195932	-0.207302
O7	O	-4.374078	-0.285189	-0.246428
O8	O	-4.734508	-0.134623	-0.180427
O9	O	-4.308181	0.022450	-0.208259
O10	O	-4.784489	-0.428850	-0.212048
O11	O	-4.690880	-0.206249	-0.309179
O12	O	-4.401147	-0.198621	-0.111796
C13	C	-3.992570	-0.495476	-0.215273
C14	C	-4.102291	-0.674011	-0.215128
C15	C	-3.873981	-0.213476	-0.338321
C16	C	-3.908305	-0.212723	-0.416402
C17	C	-4.109285	-0.220430	-0.456678
C18	C	-4.141536	-0.219723	-0.530043
C19	C	-3.972815	-0.211340	-0.563131
C20	C	-3.771801	-0.203622	-0.522845
C21	C	-3.739545	-0.204314	-0.449480
N22	N	-3.945407	-0.296156	-0.682130
N23	N	-3.976063	-0.295503	-0.751824
C24	C	-4.069986	-0.209252	-0.784174
N25	N	-4.132138	-0.123701	-0.744199
N26	N	-4.101490	-0.124361	-0.674500
C27	C	-4.007770	-0.210588	-0.642682
C28	C	-4.305947	-0.216191	-0.904001
C29	C	-4.338184	-0.215472	-0.977367
C30	C	-3.968454	-0.199388	-0.970168
C31	C	-3.936212	-0.200090	-0.896803
C32	C	-4.104971	-0.208499	-0.863725
C33	C	-4.105958	0.075655	-0.211580
C34	C	-3.975476	0.254189	-0.211730
C35	C	-4.224546	-0.206341	-0.088531
C36	C	-4.169458	-0.207087	-0.010449
H37	H	-4.294833	-0.749142	-0.217949
C38	C	-3.715377	-0.644339	-0.207906
H39	H	-3.650529	-0.713321	-0.205755
H40	H	-3.695236	-0.593480	-0.248984
H41	H	-3.639886	-0.563618	-0.166605
H42	H	-4.246701	-0.227271	-0.429750
C43	C	-4.362651	-0.228242	-0.574358
H44	H	-4.458548	-0.233367	-0.544151
H45	H	-4.321968	-0.134182	-0.596490
H46	H	-4.443885	-0.322471	-0.609767
H47	H	-3.634426	-0.196791	-0.549789
H48	H	-3.575872	-0.198025	-0.416686
C49	C	-3.715147	-0.191638	-0.852499
H50	H	-3.619287	-0.186557	-0.882711
H51	H	-3.633874	-0.097437	-0.817081
H52	H	-3.755900	-0.285729	-0.830381
C53	C	-4.559272	-0.223948	-1.021671
H54	H	-4.655158	-0.229070	-0.991461
H55	H	-4.518551	-0.129871	-1.043791
H56	H	-4.640533	-0.318162	-1.057088
H57	H	-4.443358	-0.223032	-0.877067
H58	H	-3.831069	-0.192548	-0.997107
