data_functionalizedCrystal
_audit_creation_method	'MofGen! by Chris Wilmer'
_symmetry_space_group_name_H-M	'P1'
_symmetry_Int_Tables_number	1
_symmetry_cell_setting	triclinic
loop_
_symmetry_equiv_pos_as_xyz
  x,y,z
_cell_length_a	16.625548
_cell_length_b	21.295417
_cell_length_c	16.625539
_cell_angle_alpha	90.033373
_cell_angle_beta	90.020568
_cell_angle_gamma	90.031575
loop_
_atom_site_label
_atom_site_type_symbol
_atom_site_fract_x
_atom_site_fract_y
_atom_site_fract_z
Zn1	Zn	1.232635	-0.250590	0.455881
Zn2	Zn	1.565969	0.082743	0.789214
Zn3	Zn	1.899302	0.416077	1.122548
Zn4	Zn	1.232520	-0.355864	0.321036
Zn5	Zn	1.565853	-0.022530	0.654370
Zn6	Zn	1.899186	0.310803	0.987703
Zn7	Zn	1.097797	-0.250614	0.321061
Zn8	Zn	1.431131	0.082719	0.654395
Zn9	Zn	1.764464	0.416053	0.987728
Zn10	Zn	1.097749	-0.355827	0.455826
Zn11	Zn	1.431082	-0.022494	0.789159
Zn12	Zn	1.764415	0.310839	1.122493
O13	O	1.165175	-0.303224	0.388451
O14	O	1.498509	0.030110	0.721785
O15	O	1.831842	0.363443	1.055118
O16	O	1.345452	-0.264560	0.438006
O17	O	1.678786	0.068773	0.771339
O18	O	2.012119	0.402107	1.104673
O19	O	1.214620	-0.341927	0.208207
O20	O	1.547954	-0.008594	0.541540
O21	O	1.881287	0.324740	0.874874
O22	O	1.115753	-0.162522	0.338979
O23	O	1.449086	0.170812	0.672312
O24	O	1.782419	0.504145	1.005646
O25	O	1.345367	-0.341904	0.338936
O26	O	1.678701	-0.008571	0.672269
O27	O	2.012034	0.324763	1.005603
O28	O	1.214818	-0.162504	0.438030
O29	O	1.548151	0.170829	0.771364
O30	O	1.881484	0.504163	1.104697
O31	O	1.115640	-0.264601	0.208226
O32	O	1.448974	0.068732	0.541559
O33	O	1.782307	0.402066	0.874892
O34	O	0.984958	-0.264566	0.338926
O35	O	1.318292	0.068768	0.672259
O36	O	1.651625	0.402101	1.005593
O37	O	1.115670	-0.341842	0.568666
O38	O	1.449003	-0.008509	0.901999
O39	O	1.782337	0.324824	1.235332
O40	O	0.984923	-0.341866	0.437937
O41	O	1.318256	-0.008532	0.771270
O42	O	1.651589	0.324801	1.104604
O43	O	1.214771	-0.264525	0.568706
O44	O	1.548104	0.068808	0.902039
O45	O	1.881437	0.402142	1.235373
O46	O	1.214573	-0.443948	0.338883
O47	O	1.547907	-0.110615	0.672216
O48	O	1.881240	0.222719	1.005550
O49	O	1.115558	-0.443922	0.437912
O50	O	1.448891	-0.110588	0.771246
O51	O	1.782224	0.222745	1.104579
C52	C	0.955684	-0.303215	0.388429
C53	C	1.289018	0.030119	0.721762
C54	C	1.622351	0.363452	1.055095
C55	C	0.866063	-0.303226	0.388438
C56	C	1.199397	0.030107	0.721771
C57	C	1.532730	0.363441	1.055105
C58	C	1.165070	-0.466775	0.388407
C59	C	1.498403	-0.133442	0.721740
C60	C	1.831736	0.199891	1.055073
C61	C	1.165098	-0.536744	0.388414
C62	C	1.498431	-0.203410	0.721748
C63	C	1.831765	0.129923	1.055081
C64	C	0.537888	-0.303230	0.388473
C65	C	0.871221	0.030103	0.721806
C66	C	1.204554	0.363436	1.055139
C67	C	0.629196	-0.303227	0.388460
C68	C	0.962529	0.030106	0.721794
C69	C	1.295863	0.363439	1.055127
C70	C	0.701973	-0.303229	0.388455
C71	C	1.035306	0.030105	0.721788
C72	C	1.368639	0.363438	1.055121
C73	C	0.793287	-0.303225	0.388444
C74	C	1.126620	0.030108	0.721777
C75	C	1.459954	0.363442	1.055111
C76	C	1.216701	-0.569603	0.336903
C77	C	1.550035	-0.236270	0.670236
C78	C	1.883368	0.097064	1.003569
C79	C	1.216739	-0.635346	0.336921
C80	C	1.550073	-0.302012	0.670254
C81	C	1.883406	0.031321	1.003587
C82	C	1.165159	-0.668226	0.388442
C83	C	1.498493	-0.334893	0.721776
C84	C	1.831826	-0.001559	1.055109
C85	C	1.113552	-0.635359	0.439964
C86	C	1.446886	-0.302025	0.773297
C87	C	1.780219	0.031308	1.106631
C88	C	1.113522	-0.569617	0.439950
C89	C	1.446855	-0.236284	0.773283
C90	C	1.780188	0.097049	1.106617
N91	N	1.094624	-0.771493	0.394581
N92	N	1.427958	-0.438159	0.727915
N93	N	1.761291	-0.104826	1.061248
N94	N	1.094656	-0.833944	0.394590
N95	N	1.427989	-0.500611	0.727923
N96	N	1.761322	-0.167277	1.061257
C97	C	1.165250	-0.866301	0.388488
C98	C	1.498583	-0.532967	0.721822
C99	C	1.831916	-0.199634	1.055155
N100	N	1.235813	-0.833847	0.382362
N101	N	1.569146	-0.500513	0.715696
N102	N	1.902479	-0.167180	1.049029
N103	N	1.235780	-0.771389	0.382350
N104	N	1.569114	-0.438056	0.715683
N105	N	1.902447	-0.104723	1.049016
C106	C	1.165187	-0.739511	0.388463
C107	C	1.498520	-0.406178	0.721797
C108	C	1.831854	-0.072845	1.055130
C109	C	1.216898	-0.970446	0.336994
C110	C	1.550232	-0.637112	0.670327
C111	C	1.883565	-0.303779	1.003660
C112	C	1.216937	-1.036189	0.337017
C113	C	1.550271	-0.702856	0.670351
C114	C	1.883604	-0.369523	1.003684
C115	C	1.113743	-1.036201	0.440056
C116	C	1.447077	-0.702868	0.773390
C117	C	1.780410	-0.369534	1.106723
C118	C	1.113711	-0.970459	0.440037
C119	C	1.447045	-0.637125	0.773370
C120	C	1.780378	-0.303792	1.106704
C121	C	1.165288	-0.937585	0.388501
C122	C	1.498621	-0.604252	0.721834
C123	C	1.831954	-0.270918	1.055168
C124	C	1.375484	-0.303233	0.388474
C125	C	1.708817	0.030100	0.721808
C126	C	2.042151	0.363433	1.055141
C127	C	1.465105	-0.303237	0.388484
C128	C	1.798439	0.030096	0.721817
C129	C	2.131772	0.363429	1.055151
C130	C	1.165228	-0.303177	0.598760
C131	C	1.498561	0.030156	0.932094
C132	C	1.831894	0.363490	1.265427
C133	C	1.165250	-0.303157	0.688381
C134	C	1.498583	0.030176	1.021715
C135	C	1.831917	0.363510	1.355048
C136	C	1.165303	-0.139033	0.388514
C137	C	1.498637	0.194300	0.721847
C138	C	1.831970	0.527633	1.055180
C139	C	1.165358	-0.069065	0.388540
C140	C	1.498691	0.264268	0.721874
C141	C	1.832025	0.597601	1.055207
C142	C	1.165169	-0.303225	0.178960
C143	C	1.498503	0.030108	0.512294
C144	C	1.831836	0.363442	0.845627
C145	C	1.165303	-0.303068	0.089340
C146	C	1.498637	0.030266	0.422673
C147	C	1.831970	0.363599	0.756006
C148	C	1.165287	-0.303086	1.016557
C149	C	1.498621	0.030247	1.349891
C150	C	1.831954	0.363580	1.683224
C151	C	1.165275	-0.303108	0.925249
C152	C	1.498608	0.030225	1.258582
C153	C	1.831941	0.363559	1.591915
C154	C	1.165269	-0.303122	0.852472
C155	C	1.498602	0.030211	1.185806
C156	C	1.831936	0.363544	1.519139
C157	C	1.165256	-0.303143	0.761158
C158	C	1.498589	0.030191	1.094491
C159	C	1.831922	0.363524	1.427825
H160	H	1.258700	-0.542839	0.294941
H161	H	1.592033	-0.209506	0.628275
H162	H	1.925366	0.123827	0.961608
H163	H	1.071750	-1.062972	0.482010
H164	H	1.405083	-0.729638	0.815343
H165	H	1.738416	-0.396305	1.148677
H166	H	1.258964	-1.062943	0.295072
H167	H	1.592297	-0.729609	0.628405
H168	H	1.925631	-0.396276	0.961738
H169	H	1.071500	-0.542862	0.481898
H170	H	1.404833	-0.209529	0.815232
H171	H	1.738166	0.123804	1.148565
C172	C	1.057810	-0.934746	0.496058
C173	C	1.391143	-0.601413	0.829392
C174	C	1.724476	-0.268079	1.162725
C175	C	1.103416	-0.896953	0.547787
C176	C	1.436749	-0.563619	0.881121
C177	C	1.770082	-0.230286	1.214454
C178	C	1.051946	-0.864052	0.599417
C179	C	1.385280	-0.530719	0.932750
C180	C	1.718613	-0.197386	1.266083
H181	H	1.022667	-0.909092	0.465270
H182	H	1.356000	-0.575759	0.798603
H183	H	1.689334	-0.242426	1.131937
H184	H	1.027109	-0.963723	0.526793
H185	H	1.360442	-0.630390	0.860126
H186	H	1.693776	-0.297056	1.193459
H187	H	1.134102	-0.867979	0.517056
H188	H	1.467436	-0.534646	0.850390
H189	H	1.800769	-0.201312	1.183723
H190	H	1.138556	-0.922591	0.578594
H191	H	1.471889	-0.589257	0.911927
H192	H	1.805223	-0.255924	1.245260
H193	H	1.021246	-0.893029	0.630151
H194	H	1.354579	-0.559696	0.963484
H195	H	1.687913	-0.226363	1.296818
H196	H	1.016806	-0.838402	0.568622
H197	H	1.350140	-0.505069	0.901955
H198	H	1.683473	-0.171736	1.235288
H199	H	1.082883	-0.838410	0.634526
H200	H	1.416216	-0.505077	0.967859
H201	H	1.749549	-0.171744	1.301193
C202	C	1.057650	-0.671021	0.496037
C203	C	1.390984	-0.337688	0.829370
C204	C	1.724317	-0.004355	1.162703
C205	C	1.075172	-0.654985	0.575828
C206	C	1.408505	-0.321652	0.909161
C207	C	1.741839	0.011682	1.242494
C208	C	1.023700	-0.687830	0.627509
C209	C	1.357034	-0.354497	0.960843
C210	C	1.690367	-0.021164	1.294176
H211	H	1.003447	-0.660319	0.484294
H212	H	1.336781	-0.326986	0.817627
H213	H	1.670114	0.006348	1.150960
H214	H	1.065065	-0.714887	0.488721
H215	H	1.398398	-0.381554	0.822054
H216	H	1.731731	-0.048220	1.155387
H217	H	1.067751	-0.611129	0.583140
H218	H	1.401084	-0.277796	0.916473
H219	H	1.734418	0.055538	1.249807
H220	H	1.129366	-0.665689	0.587596
H221	H	1.462699	-0.332355	0.920929
H222	H	1.796032	0.000978	1.254262
H223	H	1.031115	-0.731696	0.620193
H224	H	1.364448	-0.398363	0.953526
H225	H	1.697781	-0.065029	1.286860
H226	H	0.969500	-0.677126	0.615759
H227	H	1.302834	-0.343792	0.949092
H228	H	1.636167	-0.010459	1.282426
H229	H	1.035587	-0.676959	0.681653
H230	H	1.368920	-0.343626	1.014986
H231	H	1.702253	-0.010292	1.348320
H232	H	1.258897	-0.943679	0.295032
H233	H	1.592231	-0.610346	0.628366
H234	H	1.925564	-0.277012	0.961699
C235	C	1.272886	-0.670960	0.281032
C236	C	1.606219	-0.337626	0.614366
C237	C	1.939552	-0.004293	0.947699
C238	C	1.352654	-0.654904	0.298624
C239	C	1.685987	-0.321571	0.631957
C240	C	2.019321	0.011763	0.965291
C241	C	1.404391	-0.687694	0.247148
C242	C	1.737725	-0.354361	0.580482
C243	C	2.071058	-0.021028	0.913815
H244	H	1.265615	-0.714829	0.288376
H245	H	1.598948	-0.381496	0.621709
H246	H	1.932281	-0.048162	0.955043
H247	H	1.261149	-0.660214	0.226831
H248	H	1.594482	-0.326881	0.560165
H249	H	1.927816	0.006452	0.893498
H250	H	1.364387	-0.665653	0.352812
H251	H	1.697720	-0.332320	0.686145
H252	H	2.031053	0.001013	1.019478
H253	H	1.359950	-0.611040	0.291275
H254	H	1.693284	-0.277707	0.624608
H255	H	2.026617	0.055626	0.957942
H256	H	1.392655	-0.676949	0.192947
H257	H	1.725988	-0.343616	0.526281
H258	H	2.059322	-0.010282	0.859614
H259	H	1.397113	-0.731562	0.254496
H260	H	1.730447	-0.398228	0.587830
H261	H	2.063780	-0.064895	0.921163
H262	H	1.458519	-0.676801	0.259072
H263	H	1.791853	-0.343467	0.592405
H264	H	2.125186	-0.010134	0.925739
