data_functionalizedCrystal
_audit_creation_method	'MofGen! by Chris Wilmer'
_symmetry_space_group_name_H-M	'P1'
_symmetry_Int_Tables_number	1
_symmetry_cell_setting	triclinic
loop_
_symmetry_equiv_pos_as_xyz
  x,y,z
_cell_length_a	12.759399
_cell_length_b	13.032951
_cell_length_c	12.759393
_cell_angle_alpha	82.804272
_cell_angle_beta	90.031461
_cell_angle_gamma	97.182580
loop_
_atom_site_label
_atom_site_type_symbol
_atom_site_fract_x
_atom_site_fract_y
_atom_site_fract_z
Zn1	Zn	-0.622574	-1.597753	0.797755
Zn2	Zn	-0.798277	-1.597644	0.622060
Zn3	Zn	-0.600273	-1.422983	0.599804
Zn4	Zn	-0.775856	-1.422972	0.775424
O5	O	-0.699245	-1.510338	0.698761
O6	O	-0.664598	-1.743981	0.793108
O7	O	-0.772062	-1.574434	0.472082
O8	O	-0.456216	-1.446216	0.626095
O9	O	-0.793687	-1.743901	0.664026
O10	O	-0.472601	-1.574619	0.771528
O11	O	-0.626589	-1.446112	0.455730
O12	O	-0.604847	-1.276739	0.604441
O13	O	-0.755472	-1.446198	0.925413
O14	O	-0.733848	-1.276731	0.733468
O15	O	-0.642857	-1.574608	0.941819
O16	O	-0.942318	-1.574424	0.642373
O17	O	-0.925845	-1.446093	0.755048
C18	C	-0.972204	-1.510274	0.698729
C19	C	-1.088990	-1.510342	0.698762
C20	C	-0.664495	-1.238816	0.664117
C21	C	-0.649654	-1.122658	0.649321
C22	C	-1.152404	-1.577240	0.640178
C23	C	-1.262136	-1.577307	0.640222
C24	C	-1.245030	-1.443569	0.757436
C25	C	-1.135300	-1.443508	0.757397
C26	C	-0.706967	-1.070895	0.706469
C27	C	-0.691630	-0.950839	0.691178
C28	C	-0.425224	-1.510431	0.698820
C29	C	-0.308452	-1.510470	0.698845
C30	C	-0.699151	-1.510414	0.972804
C31	C	-0.699111	-1.510446	1.089585
C32	C	-0.734119	-0.782920	0.733534
C33	C	-0.748951	-0.899078	0.748334
C34	C	-0.699270	-1.510323	0.425792
C35	C	-0.699040	-1.510493	0.309037
C36	C	-0.640425	-1.577336	1.262726
C37	C	-0.640463	-1.577316	1.152999
C38	C	-0.757733	-1.443600	1.135903
C39	C	-0.757700	-1.443626	1.245629
H40	H	-1.114701	-1.631662	0.592436
H41	H	-0.592660	-1.631783	1.314350
O42	O	-1.323869	-1.642177	0.583302
C43	C	-1.379878	-1.582799	0.507822
H44	H	-1.386188	-1.503563	0.534657
H45	H	-1.462474	-1.625428	0.499327
H46	H	-1.336264	-1.571394	0.428447
O47	O	-0.583427	-1.642279	1.108180
C48	C	-0.531672	-1.701318	1.187681
H49	H	-0.522532	-1.658529	1.260432
H50	H	-0.450334	-1.712486	1.157422
H51	H	-0.580296	-1.780679	1.209476
H52	H	-1.282749	-1.389154	0.805173
H53	H	-0.589228	-1.078094	0.589079
H54	H	-0.805437	-1.389193	1.283335
H55	H	-0.631199	-0.906279	0.630931
H56	H	-0.805490	-1.389158	1.084263
H57	H	-1.083664	-1.389032	0.805109
H58	H	-0.767386	-1.115459	0.766719
H59	H	-0.809371	-0.943637	0.808591
