data_functionalizedCrystal
_audit_creation_method	'MofGen! by Chris Wilmer'
_symmetry_space_group_name_H-M	'P1'
_symmetry_Int_Tables_number	1
_symmetry_cell_setting	triclinic
loop_
_symmetry_equiv_pos_as_xyz
  x,y,z
_cell_length_a	15.500258
_cell_length_b	15.995350
_cell_length_c	15.995350
_cell_angle_alpha	96.507625
_cell_angle_beta	86.823794
_cell_angle_gamma	93.182699
loop_
_atom_site_label
_atom_site_type_symbol
_atom_site_fract_x
_atom_site_fract_y
_atom_site_fract_z
O1	O	0.071866	-1.107511	0.104459
O2	O	0.071884	-0.863735	0.117785
O3	O	0.071874	-0.992287	-0.010766
O4	O	0.071876	-0.978959	0.233010
O5	O	-0.072014	-0.999232	-0.003826
O6	O	-0.072005	-0.870680	0.124725
O7	O	-0.072022	-1.114456	0.111398
Cu8	Cu	-0.085151	-0.993203	0.118695
Cu9	Cu	0.085013	-0.984989	0.110488
O10	O	-0.072012	-0.985905	0.239949
C11	C	-0.000058	-0.836013	0.120704
C12	C	-0.000051	-0.743062	0.119052
C13	C	-0.000069	-0.995208	-0.038491
C14	C	-0.000064	-0.993556	-0.131441
N15	N	-0.204836	-0.998986	0.124467
C16	C	-0.750022	-1.027804	0.153338
C17	C	-0.659450	-1.023435	0.148967
C18	C	-0.614159	-0.970478	0.095963
C19	C	-0.659445	-0.921881	0.047334
C20	C	-0.750016	-0.926246	0.051710
C21	C	-0.340693	-0.954754	0.080213
C22	C	-0.250116	-0.950394	0.075838
C23	C	-0.250127	-1.051948	0.177474
C24	C	-0.340699	-1.056312	0.181841
C25	C	-0.385978	-1.007711	0.133215
C26	C	-0.521579	-0.966013	0.091492
C27	C	-0.478556	-1.012173	0.137691
N28	N	0.204698	-0.979212	0.104710
C29	C	-0.000078	-1.142179	0.108479
C30	C	-0.000079	-1.235129	0.110131
C31	C	-0.000069	-0.405315	0.113120
C32	C	-0.000391	-0.452765	0.021584
C33	C	-0.000061	-0.549439	0.023220
C34	C	-0.000061	-0.572876	0.116063
C35	C	0.082103	-0.527822	0.157256
C36	C	0.082166	-0.431184	0.154954
C37	C	-0.081462	-0.438743	0.164737
C38	C	-0.082542	-0.535741	0.164767
C39	C	-0.000053	-0.667573	0.117730
C40	C	-0.000071	-0.310618	0.111455
C41	C	-0.000066	-0.987624	-0.469189
C42	C	0.000263	-0.896056	-0.421771
C43	C	-0.000061	-0.897724	-0.325065
C44	C	-0.000064	-0.990567	-0.301628
C45	C	-0.082233	-1.039690	-0.338743
C46	C	-0.082302	-1.037393	-0.435375
C47	C	0.081326	-1.031386	-0.443625
C48	C	0.082412	-1.031312	-0.346732
C49	C	-0.000066	-0.992235	-0.206931
C50	C	-0.000070	-0.985959	-0.563886
C51	C	-0.000068	-0.982983	0.267674
C52	C	-0.000067	-0.984635	0.360624
H53	H	-0.786892	-1.070931	0.196497
H54	H	-0.143327	-0.565991	0.134734
O55	O	0.082052	-1.120762	-0.485732
H56	H	0.079932	-1.165010	-0.436900
O57	O	-0.610609	-1.075840	0.201419
H58	H	-0.657318	-1.113404	0.239004
O59	O	-0.527405	-1.069287	0.194858
H60	H	-0.480707	-1.102345	0.227944
H61	H	-0.086032	-1.104789	-0.467444
H62	H	-0.087505	-0.551345	0.232710
O63	O	-0.798846	-0.873837	-0.000751
H64	H	-0.840094	-0.830813	0.041351
O65	O	0.077947	-0.846925	-0.291166
H66	H	0.116243	-0.820941	-0.343856
H67	H	0.143605	-0.998447	-0.467168
H68	H	0.143586	-0.409911	0.119061
O69	O	-0.082201	-0.396707	0.254183
H70	H	-0.139843	-0.420639	0.290216
O71	O	0.078301	-0.843800	-0.450092
H72	H	0.117687	-0.882529	-0.498270
O73	O	-0.201260	-0.893267	0.018674
H74	H	-0.247960	-0.860198	-0.014398
H75	H	-0.377548	-0.915182	0.040615
O76	O	-0.472696	-0.908959	0.034281
H77	H	-0.431388	-0.861971	0.072366
O78	O	-0.077353	-0.851542	-0.443963
H79	H	-0.116164	-0.894352	-0.488617
O80	O	0.088988	-1.120680	-0.326708
H81	H	0.030910	-1.159111	-0.348254
O82	O	-0.078085	-0.590864	-0.020026
H83	H	-0.075661	-0.576124	-0.086299
O84	O	-0.389550	-1.113427	0.239012
H85	H	-0.342847	-1.146479	0.272098
H86	H	-0.059059	-0.864837	-0.294355
O87	O	-0.078440	-0.432000	-0.023134
H88	H	-0.117835	-0.387633	0.019398
H89	H	0.058940	-0.574449	-0.015360
H90	H	-0.622562	-0.878758	0.004180
O91	O	0.077217	-0.423063	-0.030425
H92	H	0.116020	-0.374655	0.008639
H93	H	-0.213251	-1.091514	0.217064
O94	O	-0.086291	-1.130235	-0.319834
H95	H	-0.144912	-1.163532	-0.346728
O96	O	-0.163652	-0.997695	-0.455705
H97	H	-0.202570	-0.980311	-0.396560
O98	O	0.162940	-0.983761	-0.314456
H99	H	0.144311	-0.931328	-0.266487
O100	O	-0.163232	-1.002063	-0.297244
H101	H	-0.164042	-0.935016	-0.308886
O102	O	0.087123	-0.388217	0.243743
H103	H	0.089472	-0.436491	0.288134
O104	O	0.086167	-0.546337	0.247410
H105	H	0.029534	-0.587950	0.263850
O106	O	0.163106	-0.561480	0.111801
H107	H	0.164052	-0.630232	0.115879
O108	O	-0.163958	-0.415542	0.129058
H109	H	-0.165143	-0.345956	0.131905
