data_functionalizedCrystal
_audit_creation_method	'MofGen! by Chris Wilmer'
_symmetry_space_group_name_H-M	'P1'
_symmetry_Int_Tables_number	1
_symmetry_cell_setting	triclinic
loop_
_symmetry_equiv_pos_as_xyz
  x,y,z
_cell_length_a	25.639239
_cell_length_b	19.077241
_cell_length_c	19.076919
_cell_angle_alpha	90.113904
_cell_angle_beta	92.268407
_cell_angle_gamma	87.669529
loop_
_atom_site_label
_atom_site_type_symbol
_atom_site_fract_x
_atom_site_fract_y
_atom_site_fract_z
Zn1	Zn	-0.189807	-1.058228	-0.440551
Zn2	Zn	-0.273597	-1.062840	-0.323038
Zn3	Zn	-0.189532	-0.945443	-0.318329
Zn4	Zn	-0.280571	-0.940657	-0.435773
O5	O	-0.233377	-1.001792	-0.379423
O6	O	-0.198119	-1.157174	-0.428933
O7	O	-0.259412	-1.051200	-0.224083
O8	O	-0.116402	-0.960477	-0.334570
O9	O	-0.259679	-1.160563	-0.342597
O10	O	-0.116604	-1.043339	-0.424366
O11	O	-0.197649	-0.964950	-0.220623
O12	O	-0.204412	-0.846474	-0.329937
O13	O	-0.271565	-0.952319	-0.534737
O14	O	-0.271298	-0.842957	-0.416223
O15	O	-0.204881	-1.038698	-0.538248
O16	O	-0.347689	-1.046559	-0.337964
O17	O	-0.352812	-0.956792	-0.420790
C18	C	-0.238582	-0.819218	-0.372051
C19	C	-0.240822	-0.741112	-0.368914
C20	C	-0.209878	-0.702651	-0.412460
C21	C	-0.211980	-0.629262	-0.409506
C22	C	-0.245029	-0.594335	-0.363010
C23	C	-0.275973	-0.632802	-0.319460
C24	C	-0.273868	-0.706189	-0.322411
C25	C	-0.254753	-0.375039	-0.349355
C26	C	-0.256857	-0.301646	-0.346410
C27	C	-0.192862	-0.298111	-0.436455
C28	C	-0.190763	-0.371501	-0.439405
C29	C	-0.221705	-0.409961	-0.395852
N30	N	-0.247179	-0.519320	-0.359992
N31	N	-0.219552	-0.484975	-0.398867
C32	C	-0.369222	-1.001675	-0.379386
C33	C	-0.427336	-1.001688	-0.379396
C34	C	-0.785015	-1.048648	-0.336377
C35	C	-0.839619	-1.048675	-0.336387
O36	O	-0.865576	-1.088480	-0.299770
N37	N	-0.869614	-1.001913	-0.379474
C38	C	-0.845002	-0.955127	-0.422559
O39	O	-0.875529	-0.915356	-0.459209
C40	C	-0.790399	-0.955104	-0.422552
C41	C	-0.760407	-1.001864	-0.379456
C42	C	-0.755023	-1.095404	-0.293285
C43	C	-0.700423	-1.095376	-0.293274
C44	C	-0.675815	-1.048592	-0.336354
C45	C	-0.705807	-1.001836	-0.379445
C46	C	-0.765789	-0.908322	-0.465640
C47	C	-0.711182	-0.908303	-0.465629
C48	C	-0.681190	-0.955063	-0.422534
C49	C	-0.626599	-0.955024	-0.422514
N50	N	-0.596604	-1.001785	-0.379427
C51	C	-0.621212	-1.048569	-0.336347
C52	C	-0.959672	-0.955180	-0.422572
C53	C	-1.014274	-0.955199	-0.422576
C54	C	-1.008886	-1.048747	-0.336405
C55	C	-0.954284	-1.048724	-0.336398
C56	C	-0.929677	-1.001941	-0.379485
C57	C	-0.506548	-1.048506	-0.336326
C58	C	-0.451944	-1.048472	-0.336316
C59	C	-0.457336	-0.954927	-0.422490
C60	C	-0.511935	-0.954958	-0.422497
C61	C	-0.536540	-1.001754	-0.379413
O62	O	-0.600606	-0.915241	-0.459114
O63	O	-0.590679	-1.088340	-0.299709
C64	C	-0.097001	-1.001928	-0.379476
C65	C	-0.038886	-1.001986	-0.379499
C66	C	-0.239032	-0.994460	-0.562701
C67	C	-0.241441	-0.991336	-0.640804
C68	C	-0.228149	-0.185078	-0.386818
C69	C	-0.225913	-0.263185	-0.389955
C70	C	-0.207857	-1.034839	-0.679325
C71	C	-0.210119	-1.031895	-0.752710
C72	C	-0.245969	-0.985451	-0.787573
C73	C	-0.279556	-0.941944	-0.749046
C74	C	-0.277290	-0.944885	-0.675662
C75	C	-0.256465	-0.971829	-1.006851
C76	C	-0.258729	-0.968893	-1.080241
C77	C	-0.189291	-1.058844	-1.083900
C78	C	-0.187031	-1.061783	-1.010514
C79	C	-0.220616	-1.018274	-0.971994
N80	N	-0.248284	-0.982442	-0.862585
N81	N	-0.218298	-1.021279	-0.896984
C82	C	-0.227705	-1.009135	-0.196859
C83	C	-0.225144	-1.012396	-0.118762
H84	H	-0.163853	-0.399933	-0.477269
N85	N	-0.309725	-0.597116	-0.271964
N86	N	-0.311601	-0.531592	-0.269335
H87	H	-0.335440	-0.506389	-0.235791
H88	H	-0.283771	-0.273211	-0.308547
H89	H	-0.308744	-0.904126	-0.777437
N90	N	-0.175822	-1.076343	-0.792061
N91	N	-0.194209	-1.119459	-0.834814
H92	H	-0.169986	-1.150853	-0.862607
N93	N	-0.171228	-1.082279	-0.643728
N94	N	-0.123369	-1.077335	-0.651759
H95	H	-0.097498	-1.110839	-0.626621
N96	N	-0.150412	-1.109235	-0.974917
N97	N	-0.120430	-1.148077	-1.009320
H98	H	-0.094569	-1.181595	-0.984180
N99	N	-0.295343	-0.921445	-1.115864
N100	N	-0.297359	-0.918830	-1.181385
H101	H	-0.323216	-0.885323	-1.206546
N102	N	-0.176118	-0.738336	-0.459945
N103	N	-0.174240	-0.803860	-0.462574
H104	H	-0.150395	-0.829062	-0.496109
N105	N	-0.161261	-0.258815	-0.480936
N106	N	-0.163144	-0.193290	-0.478299
H107	H	-0.140824	-0.165536	-0.509715
H108	H	-0.299066	-0.737503	-0.286951
H109	H	-0.161948	-1.094266	-1.115271
N110	N	-0.286363	-0.414308	-0.304866
N111	N	-0.315870	-0.383112	-0.263359
H112	H	-0.338198	-0.410847	-0.231936
N113	N	-1.034019	-1.096543	-0.292394
N114	N	-1.026076	-1.094532	-0.227363
H115	H	-1.043827	-1.128286	-0.196281
H116	H	-0.186784	-0.597950	-0.444967
N117	N	-0.421316	-1.096239	-0.292285
N118	N	-0.443298	-1.138007	-0.253826
H119	H	-0.421669	-1.171742	-0.222729
H120	H	-0.676006	-1.133454	-0.258185
H121	H	-0.283819	-0.936411	-0.975497
H122	H	-0.526575	-1.086613	-0.301244
N123	N	-0.934538	-0.907373	-0.466570
N124	N	-0.904627	-0.863588	-0.440000
H125	H	-0.886878	-0.829825	-0.471074
N126	N	-0.780145	-1.143205	-0.249276
N127	N	-0.753350	-1.184946	-0.210811
H128	H	-0.771088	-1.218706	-0.179723
N129	N	-0.311598	-0.900459	-0.636301
N130	N	-0.309571	-0.903091	-0.570780
H131	H	-0.333800	-0.871713	-0.542981
H132	H	-0.929867	-1.086800	-0.301306
H133	H	-0.790200	-0.870242	-0.500729
H134	H	-1.038689	-0.917116	-0.457662
H135	H	-0.691150	-0.870207	-0.500718
N136	N	-0.542567	-0.907180	-0.466508
N137	N	-0.520586	-0.865407	-0.504963
H138	H	-0.542216	-0.831664	-0.536050
N139	N	-0.432185	-0.907139	-0.466482
N140	N	-0.383432	-0.907127	-0.466461
H141	H	-0.365667	-0.873378	-0.497533
