data_functionalizedCrystal
_audit_creation_method	'MofGen! by Chris Wilmer'
_symmetry_space_group_name_H-M	'P1'
_symmetry_Int_Tables_number	1
_symmetry_cell_setting	triclinic
loop_
_symmetry_equiv_pos_as_xyz
  x,y,z
_cell_length_a	19.077236
_cell_length_b	12.645330
_cell_length_c	19.076919
_cell_angle_alpha	87.729818
_cell_angle_beta	89.887323
_cell_angle_gamma	87.689229
loop_
_atom_site_label
_atom_site_type_symbol
_atom_site_fract_x
_atom_site_fract_y
_atom_site_fract_z
Zn1	Zn	1.058320	0.384816	-0.440536
Zn2	Zn	1.391654	0.718149	-0.107202
Zn3	Zn	1.724987	1.051482	0.226131
Zn4	Zn	1.062973	0.554703	-0.323026
Zn5	Zn	1.396306	0.888036	0.010307
Zn6	Zn	1.729640	1.221369	0.343640
Zn7	Zn	0.945536	0.384260	-0.318316
Zn8	Zn	1.278869	0.717593	0.015018
Zn9	Zn	1.612202	1.050927	0.348351
Zn10	Zn	0.940793	0.568845	-0.435764
Zn11	Zn	1.274127	0.902179	-0.102431
Zn12	Zn	1.607460	1.235512	0.230903
O13	O	1.001906	0.473156	-0.379410
O14	O	1.335239	0.806489	-0.046077
O15	O	1.668572	1.139823	0.287256
O16	O	1.157271	0.401665	-0.428916
O17	O	1.490604	0.734999	-0.095583
O18	O	1.823937	1.068332	0.237751
O19	O	1.051327	0.525942	-0.224071
O20	O	1.384660	0.859275	0.109263
O21	O	1.717993	1.192608	0.442596
O22	O	0.960534	0.235986	-0.334554
O23	O	1.293868	0.569319	-0.001221
O24	O	1.627201	0.902652	0.332113
O25	O	1.160689	0.526481	-0.342582
O26	O	1.494022	0.859814	-0.009249
O27	O	1.827356	1.193147	0.324084
O28	O	1.043397	0.236394	-0.424348
O29	O	1.376730	0.569727	-0.091015
O30	O	1.710063	0.903061	0.242318
O31	O	0.965046	0.400718	-0.220610
O32	O	1.298379	0.734051	0.112724
O33	O	1.631713	1.067385	0.446057
O34	O	0.846573	0.414432	-0.329927
O35	O	1.179907	0.747765	0.003406
O36	O	1.513240	1.081098	0.336740
O37	O	0.952452	0.550585	-0.534728
O38	O	1.285785	0.883918	-0.201394
O39	O	1.619118	1.217252	0.131939
O40	O	0.843089	0.550046	-0.416216
O41	O	1.176422	0.883379	-0.082883
O42	O	1.509756	1.216713	0.250451
O43	O	1.038798	0.415379	-0.538233
O44	O	1.372131	0.748712	-0.204900
O45	O	1.705465	1.082046	0.128433
O46	O	1.046728	0.704927	-0.337956
O47	O	1.380061	1.038260	-0.004622
O48	O	1.713395	1.371593	0.328711
O49	O	0.956963	0.715317	-0.420784
O50	O	1.290296	1.048651	-0.087450
O51	O	1.623630	1.381984	0.245883
C52	C	0.819334	0.483714	-0.372043
C53	C	1.152668	0.817047	-0.038710
C54	C	1.486001	1.150381	0.294624
C55	C	0.741229	0.488257	-0.368908
C56	C	1.074562	0.821591	-0.035575
C57	C	1.407896	1.154924	0.297759
C58	C	1.001854	0.748587	-0.379379
C59	C	1.335188	1.081920	-0.046046
C60	C	1.668521	1.415254	0.287288
C61	C	1.001896	0.866415	-0.379392
C62	C	1.335229	1.199748	-0.046059
C63	C	1.668562	1.533082	0.287275
C64	C	1.058424	0.904715	-0.327331
C65	C	1.391758	1.238048	0.006002
C66	C	1.725091	1.571382	0.339335
C67	C	1.058299	1.027270	-0.327125
C68	C	1.391633	1.360604	0.006209
C69	C	1.724966	1.693937	0.339542
C70	C	0.928634	1.037459	-0.356503
C71	C	1.261967	1.370792	-0.023169
C72	C	1.595301	1.704126	0.310164
C73	C	0.928937	0.914819	-0.356108
C74	C	1.262271	1.248152	-0.022775
C75	C	1.595604	1.581485	0.310558
C76	C	1.018032	0.915070	-0.454479
C77	C	1.351366	1.248404	-0.121146
C78	C	1.684699	1.581737	0.212187
C79	C	1.019709	1.037555	-0.454162
C80	C	1.353042	1.370888	-0.120829
C81	C	1.686376	1.704221	0.212505
C82	C	0.702753	0.425519	-0.412453
C83	C	1.036086	0.758852	-0.079120
C84	C	1.369420	1.092186	0.254214
C85	C	0.629365	0.429783	-0.409501
C86	C	0.962698	0.763116	-0.076168
C87	C	1.296032	1.096449	0.257165
C88	C	0.594454	0.496791	-0.363007
C89	C	0.927788	0.830124	-0.029674
C90	C	1.261121	1.163457	0.303659
C91	C	0.632935	0.559531	-0.319458
C92	C	0.966269	0.892865	0.013876
C93	C	1.299602	1.226198	0.347209
C94	C	0.706322	0.555261	-0.322406
C95	C	1.039656	0.888595	0.010927
C96	C	1.372989	1.221928	0.344260
C97	C	0.375162	0.516512	-0.349358
C98	C	0.708496	0.849845	-0.016024
C99	C	1.041829	1.183178	0.317309
C100	C	0.301770	0.520779	-0.346414
C101	C	0.635103	0.854112	-0.013080
C102	C	0.968437	1.187446	0.320253
C103	C	0.298205	0.391029	-0.436457
C104	C	0.631538	0.724362	-0.103123
C105	C	0.964872	1.057695	0.230210
C106	C	0.371593	0.386770	-0.439404
C107	C	0.704927	0.720103	-0.106071
C108	C	1.038260	1.053436	0.227262
C109	C	0.410068	0.449506	-0.395852
C110	C	0.743401	0.782839	-0.062519
C111	C	1.076735	1.116173	0.270815
N112	N	0.519440	0.501153	-0.359991
N113	N	0.852773	0.834486	-0.026657
N114	N	1.186106	1.167819	0.306676
N115	N	0.485081	0.445138	-0.398866
N116	N	0.818415	0.778471	-0.065532
N117	N	1.151748	1.111804	0.267801
C118	C	1.185189	0.462557	-0.386807
C119	C	1.518523	0.795891	-0.053473
C120	C	1.851856	1.129224	0.279860
C121	C	1.263294	0.458041	-0.389959
C122	C	1.596628	0.791374	-0.056625
C123	C	1.929961	1.124708	0.276708
C124	C	0.994577	0.484622	-0.562689
C125	C	1.327910	0.817955	-0.229356
C126	C	1.661243	1.151288	0.103977
C127	C	0.991454	0.489508	-0.640792
C128	C	1.324787	0.822841	-0.307459
C129	C	1.658120	1.156174	0.025875
C130	C	1.001960	1.196649	-0.379442
C131	C	1.335293	1.529983	-0.046109
C132	C	1.668626	1.863316	0.287225
C133	C	1.001942	1.078819	-0.379414
C134	C	1.335276	1.412152	-0.046081
C135	C	1.668609	1.745485	0.287252
C136	C	1.034940	0.421412	-0.679311
C137	C	1.368274	0.754745	-0.345978
C138	C	1.701607	1.088078	-0.012644
C139	C	1.031997	0.425999	-0.752696
C140	C	1.365331	0.759332	-0.419363
C141	C	1.698664	1.092666	-0.086030
C142	C	0.985571	0.498688	-0.787562
C143	C	1.318904	0.832022	-0.454228
C144	C	1.652237	1.165355	-0.120895
C145	C	0.942080	0.566787	-0.749037
C146	C	1.275413	0.900120	-0.415704
C147	C	1.608746	1.233454	-0.082371
C148	C	0.945019	0.562194	-0.675653
C149	C	1.278353	0.895527	-0.342320
C150	C	1.611686	1.228860	-0.008986
C151	C	0.971954	0.519969	-1.006841
C152	C	1.305287	0.853302	-0.673507
C153	C	1.638621	1.186636	-0.340174
C154	C	0.969019	0.524559	-1.080230
C155	C	1.302352	0.857893	-0.746897
C156	C	1.635686	1.191226	-0.413564
C157	C	1.058936	0.383770	-1.083884
C158	C	1.392269	0.717103	-0.750551
C159	C	1.725603	1.050436	-0.417218
C160	C	1.061875	0.379187	-1.010499
C161	C	1.395208	0.712520	-0.677165
C162	C	1.728541	1.045854	-0.343832
C163	C	1.018381	0.447282	-0.971981
C164	C	1.351714	0.780615	-0.638647
C165	C	1.685048	1.113949	-0.305314
N166	N	0.982563	0.503381	-0.862573
N167	N	1.315896	0.836715	-0.529240
N168	N	1.649230	1.170048	-0.195907
N169	N	1.021386	0.442583	-0.896970
N170	N	1.354719	0.775916	-0.563637
N171	N	1.688052	1.109250	-0.230304
C172	C	1.009246	0.461656	-0.196846
C173	C	1.342580	0.794989	0.136487
C174	C	1.675913	1.128323	0.469821
C175	C	1.012505	0.456464	-0.118749
C176	C	1.345839	0.789797	0.214584
C177	C	1.679172	1.123130	0.547917
H178	H	1.112747	1.054886	-0.341784
H179	H	1.446080	1.388219	-0.008451
H180	H	1.779413	1.721553	0.324882
H181	H	1.094345	0.328329	-1.115253
H182	H	1.427679	0.661663	-0.781920
H183	H	1.761012	0.994996	-0.448587
H184	H	0.909601	0.617634	-0.644291
H185	H	1.242934	0.950968	-0.310958
H186	H	1.576268	1.284301	0.022375
H187	H	0.981330	1.072973	-0.495261
H188	H	1.314664	1.406306	-0.161928
H189	H	1.647997	1.739640	0.171405
H190	H	1.067410	0.370551	-0.784056
H191	H	1.400744	0.703884	-0.450722
H192	H	1.734077	1.037217	-0.117389
H193	H	0.266871	0.339951	-0.471914
H194	H	0.600204	0.673284	-0.138580
H195	H	0.933537	1.006617	0.194753
H196	H	0.598041	0.378697	-0.444962
H197	H	0.931374	0.712030	-0.111628
H198	H	1.264708	1.045363	0.221705
H199	H	1.113036	0.872752	-0.341853
H200	H	1.446369	1.206086	-0.008520
H201	H	1.779702	1.539419	0.324813
H202	H	1.048108	0.871253	-0.272075
H203	H	1.381442	1.204587	0.061258
H204	H	1.714775	1.537920	0.394591
H205	H	0.273348	0.575350	-0.308552
H206	H	0.606681	0.908684	0.024781
H207	H	0.940015	1.242017	0.358114
H208	H	0.914939	0.883818	-0.301138
H209	H	1.248272	1.217152	0.032196
H210	H	1.581606	1.550485	0.365529
H211	H	0.406480	0.567597	-0.313895
H212	H	0.739813	0.900931	0.019438
H213	H	1.073147	1.234264	0.352772
H214	H	0.604505	0.614085	-0.281598
H215	H	0.937839	0.947419	0.051735
H216	H	1.271172	1.280752	0.385069
H217	H	0.737649	0.606349	-0.286947
H218	H	1.070982	0.939682	0.046386
H219	H	1.404315	1.273016	0.379720
H220	H	1.072748	0.362224	-0.650929
H221	H	1.406081	0.695557	-0.317596
H222	H	1.739415	1.028890	0.015737
H223	H	1.070408	0.882139	-0.474782
H224	H	1.403741	1.215472	-0.141449
H225	H	1.737075	1.548805	0.191884
H226	H	0.904276	0.625968	-0.777430
H227	H	1.237609	0.959302	-0.444097
H228	H	1.570942	1.292635	-0.110764
H229	H	0.400012	0.332208	-0.477267
H230	H	0.733346	0.665542	-0.143934
H231	H	1.066679	0.998875	0.189400
H232	H	0.914344	1.065812	-0.302124
H233	H	1.247678	1.399146	0.031210
H234	H	1.581011	1.732479	0.364543
H235	H	1.099682	0.319999	-0.982117
H236	H	1.433015	0.653332	-0.648783
H237	H	1.766349	0.986665	-0.315450
H238	H	0.931211	0.583754	-1.108615
H239	H	1.264544	0.917088	-0.775282
H240	H	1.597877	1.250421	-0.441948
H241	H	0.976828	0.890888	-0.493304
H242	H	1.310162	1.224221	-0.159970
H243	H	1.643495	1.557555	0.173363
H244	H	1.047853	1.053941	-0.271555
H245	H	1.381186	1.387274	0.061778
H246	H	1.714520	1.720607	0.395112
H247	H	0.885536	0.889950	-0.392227
H248	H	1.218869	1.223284	-0.058893
H249	H	1.552202	1.556617	0.274440
H250	H	0.885510	1.071418	-0.393132
H251	H	1.218844	1.404751	-0.059799
H252	H	1.552177	1.738084	0.273535
H253	H	1.073643	1.064351	-0.471388
H254	H	1.406977	1.397685	-0.138054
H255	H	1.740310	1.731018	0.195279
H256	H	0.936549	0.575432	-0.975488
H257	H	1.269882	0.908765	-0.642155
H258	H	1.603215	1.242098	-0.308822
H259	H	0.731172	0.370957	-0.450315
H260	H	1.064505	0.704290	-0.116982
H261	H	1.397839	1.037624	0.216351
