data_functionalizedCrystal
_audit_creation_method	'MofGen! by Chris Wilmer'
_symmetry_space_group_name_H-M	'P1'
_symmetry_Int_Tables_number	1
_symmetry_cell_setting	triclinic
loop_
_symmetry_equiv_pos_as_xyz
  x,y,z
_cell_length_a	19.077105
_cell_length_b	19.077068
_cell_length_c	19.076919
_cell_angle_alpha	85.529249
_cell_angle_beta	89.923776
_cell_angle_gamma	90.115316
loop_
_atom_site_label
_atom_site_type_symbol
_atom_site_fract_x
_atom_site_fract_y
_atom_site_fract_z
Zn1	Zn	1.044048	-0.340450	0.453500
Zn2	Zn	1.043962	-0.453600	0.340340
Zn3	Zn	0.931660	-0.331023	0.330931
Zn4	Zn	0.921801	-0.453176	0.453077
O5	O	0.985368	-0.394562	0.394462
O6	O	1.142196	-0.359583	0.442604
O7	O	1.033154	-0.433572	0.240616
O8	O	0.950731	-0.233799	0.343429
O9	O	1.142133	-0.442714	0.359466
O10	O	1.033302	-0.240725	0.433479
O11	O	0.950647	-0.343516	0.233703
O12	O	0.832193	-0.343104	0.343019
O13	O	0.933928	-0.441990	0.551609
O14	O	0.824949	-0.432849	0.432759
O15	O	1.023742	-0.359171	0.551919
O16	O	1.023594	-0.552019	0.359056
O17	O	0.933844	-0.551707	0.441883
C18	C	0.803119	-0.386908	0.386822
C19	C	0.725151	-0.383651	0.383571
C20	C	0.684769	-0.428912	0.428699
C21	C	0.611510	-0.425842	0.425647
C22	C	0.578634	-0.377515	0.377464
C23	C	0.619022	-0.332250	0.332335
C24	C	0.692280	-0.335317	0.335390
C25	C	0.359940	-0.363323	0.363326
C26	C	0.286677	-0.360262	0.360273
C27	C	0.279170	-0.453853	0.453586
C28	C	0.352429	-0.456918	0.456635
C29	C	0.392810	-0.411651	0.411508
N30	N	0.503752	-0.374378	0.374342
N31	N	0.467691	-0.414785	0.414634
C32	C	0.977658	-0.577398	0.401461
C33	C	0.974423	-0.655619	0.404482
C34	C	1.019665	-0.692509	0.362816
C35	C	1.016626	-0.766007	0.365661
C36	C	0.968342	-0.802612	0.410169
C37	C	0.923098	-0.765717	0.451839
C38	C	0.926141	-0.692221	0.448997
C39	C	0.954231	-1.022406	0.423292
C40	C	0.951190	-1.095907	0.426130
C41	C	1.044720	-1.096192	0.339952
C42	C	1.047755	-1.022695	0.337111
C43	C	1.002514	-0.985806	0.378784
N44	N	0.965233	-0.877738	0.413077
N45	N	1.005627	-0.910681	0.375880
C46	C	1.168328	-0.402247	0.402132
C47	C	1.246295	-0.405522	0.405400
C48	C	0.977745	-0.401585	0.578012
C49	C	0.974497	-0.404578	0.656230
C50	C	0.993126	-0.211015	0.387451
C51	C	0.996432	-0.132798	0.384464
C52	C	0.993003	-0.387518	0.211626
C53	C	0.996396	-0.384333	0.133406
C54	C	1.019730	-0.362866	0.693140
C55	C	1.016669	-0.365675	0.766634
C56	C	0.968378	-0.410200	0.803216
C57	C	0.923140	-0.451913	0.766301
C58	C	0.926198	-0.449100	0.692809
C59	C	0.954216	-0.423233	1.022998
C60	C	0.951163	-0.426044	1.096496
C61	C	1.044691	-0.339805	1.096823
C62	C	1.047748	-0.337000	1.023329
C63	C	1.002507	-0.378710	0.986421
N64	N	0.965250	-0.413073	0.878339
N65	N	1.005632	-0.375832	0.911299
H66	H	0.246283	-0.490707	0.490327
O67	O	1.094567	-0.987103	0.293796
C68	C	1.058315	-0.941218	0.245008
H69	H	1.002335	-0.960928	0.239160
H70	H	1.057286	-0.886239	0.264505
C71	C	1.164482	-0.914531	0.180457
C72	C	1.095728	-0.938742	0.173270
H73	H	1.187561	-0.913000	0.136206
H74	H	1.188906	-0.945442	0.213328
H75	H	1.163615	-0.868717	0.196707
H76	H	1.096596	-0.984559	0.157029
H77	H	1.071304	-0.907838	0.140395
O78	O	1.066710	-0.319716	0.657580
C79	C	1.112082	-0.360049	0.618486
H80	H	1.113156	-0.416503	0.642930
H81	H	1.092607	-0.359431	0.561969
C82	C	1.185181	-0.259346	0.589082
C83	C	1.186504	-0.328682	0.619108
H84	H	1.231087	-0.239997	0.589462
H85	H	1.154612	-0.232171	0.615418
H86	H	1.168948	-0.258840	0.541987
H87	H	1.202728	-0.329187	0.666204
H88	H	1.217078	-0.355857	0.592779
H89	H	0.889301	-0.662185	0.482927
O90	O	0.254853	-0.313249	0.313446
C91	C	0.306202	-0.273964	0.274259
H92	H	0.357333	-0.274857	0.305173
H93	H	0.315124	-0.297926	0.222077
C94	C	0.218374	-0.196377	0.222214
C95	C	0.281172	-0.197469	0.260186
H96	H	0.202934	-0.149192	0.213530
H97	H	0.183778	-0.222846	0.248613
H98	H	0.225817	-0.216349	0.178734
H99	H	0.273726	-0.177505	0.303669
H100	H	0.315766	-0.170995	0.233794
O101	O	0.876215	-0.801380	0.495013
C102	C	0.883239	-0.874162	0.488600
H103	H	0.908096	-0.883092	0.435664
H104	H	0.917963	-0.898134	0.532740
C105	C	0.779901	-0.898248	0.558492
C106	C	0.810424	-0.909217	0.493472
H107	H	0.734986	-0.919873	0.561501
H108	H	0.775169	-0.849214	0.562816
H109	H	0.808844	-0.918226	0.595269
H110	H	0.781486	-0.889232	0.456698
H111	H	0.815150	-0.958248	0.489143
H112	H	1.053504	-0.331711	0.796682
O113	O	1.094676	-0.293685	0.987902
C114	C	1.133957	-0.257483	1.036241
H115	H	1.103150	-0.255843	1.087330
H116	H	1.185817	-0.285791	1.047278
C117	C	1.186265	-0.183930	0.942374
C118	C	1.148425	-0.181911	1.005120
H119	H	1.195193	-0.137315	0.923176
H120	H	1.159803	-0.208321	0.909806
H121	H	1.229477	-0.207523	0.951580
H122	H	1.105211	-0.158326	0.995911
H123	H	1.174880	-0.157514	1.037685
O124	O	0.904186	-0.469312	1.131923
C125	C	0.864923	-0.505537	1.083589
H126	H	0.865887	-0.474606	1.029998
H127	H	0.888673	-0.559763	1.078890
C128	C	0.787463	-0.551627	1.175353
C129	C	0.788643	-0.513635	1.109533
H130	H	0.740411	-0.556626	1.191358
H131	H	0.813917	-0.527224	1.207918
H132	H	0.807258	-0.596812	1.171428
H133	H	0.768856	-0.468449	1.113461
H134	H	0.762184	-0.538031	1.076970
O135	O	0.910369	-0.463789	0.987087
C136	C	0.950140	-0.509310	0.947998
H137	H	1.004804	-0.486306	0.938257
H138	H	0.954468	-0.562864	0.978642
C139	C	0.846754	-0.546020	0.889027
C140	C	0.913892	-0.517763	0.877059
H141	H	0.824394	-0.551238	0.845270
H142	H	0.819959	-0.515354	0.915364
H143	H	0.850370	-0.590646	0.914566
H144	H	0.910274	-0.473135	0.851529
H145	H	0.940686	-0.548422	0.850716
O146	O	0.882237	-0.489697	0.657063
C147	C	0.838951	-0.529591	0.705109
H148	H	0.865396	-0.535232	0.758798
H149	H	0.786436	-0.501891	0.709699
C150	C	0.794402	-0.596040	0.612923
C151	C	0.826886	-0.602973	0.678864
H152	H	0.786957	-0.641305	0.596733
H153	H	0.823563	-0.569162	0.580553
H154	H	0.750643	-0.572955	0.616756
H155	H	0.870648	-0.626051	0.675028
H156	H	0.797732	-0.629858	0.711233
H157	H	1.081523	-0.305846	1.126882
H158	H	0.711530	-0.468267	0.467932
O159	O	0.904268	-1.131360	0.469433
C160	C	0.864978	-1.083041	0.505595
H161	H	0.895773	-1.031924	0.507233
H162	H	0.813114	-1.072060	0.477257
C163	C	0.812700	-1.176930	0.579154
C164	C	0.850525	-1.114148	0.581171
H165	H	0.803781	-1.196118	0.625772
H166	H	0.839167	-1.209484	0.554790
H167	H	0.769483	-1.167770	0.555536
H168	H	0.893744	-1.123310	0.604781
H169	H	0.824064	-1.081596	0.605541
H170	H	0.578633	-0.462699	0.462394
H171	H	1.081554	-1.126235	0.306026
H172	H	0.392810	-0.326468	0.326576
O173	O	0.384250	-0.503883	0.503503
C174	C	0.332897	-0.543187	0.542668
H175	H	0.281788	-0.512277	0.541875
H176	H	0.323923	-0.595276	0.518527
C177	C	0.420738	-0.595478	0.620107
C178	C	0.357966	-0.557511	0.619137
H179	H	0.436202	-0.604317	0.667275
H180	H	0.455336	-0.569001	0.593719
H181	H	0.413251	-0.638881	0.599985
H182	H	0.365456	-0.514106	0.639250
H183	H	0.323370	-0.583981	0.645530
O184	O	0.586977	-0.285364	0.285553
C185	C	0.513658	-0.292349	0.292544
H186	H	0.500413	-0.347154	0.317161
H187	H	0.493075	-0.251236	0.327629
C188	C	0.495532	-0.214171	0.189299
C189	C	0.479264	-0.281486	0.219528
H190	H	0.474315	-0.207467	0.144260
H191	H	0.544928	-0.209462	0.184590
H192	H	0.478379	-0.179918	0.218543
H193	H	0.496425	-0.315737	0.190288
H194	H	0.429870	-0.286200	0.224230
O195	O	0.731405	-0.291325	0.291478
C196	C	0.686681	-0.248002	0.248304
H197	H	0.633348	-0.274541	0.244747
H198	H	0.680073	-0.195259	0.271790
C199	C	0.784303	-0.203484	0.178592
C200	C	0.718800	-0.236081	0.174218
H201	H	0.804116	-0.196127	0.132893
H202	H	0.814435	-0.232669	0.207680
H203	H	0.778787	-0.159534	0.198166
H204	H	0.724317	-0.280033	0.154653
H205	H	0.688669	-0.206903	0.145125
O206	O	1.066630	-0.657064	0.319563
C207	C	1.105898	-0.705388	0.283386
H208	H	1.104938	-0.758967	0.314340
H209	H	1.082147	-0.710130	0.229149
C210	C	1.183348	-0.613586	0.237301
C211	C	1.182175	-0.679391	0.275323
H212	H	1.230399	-0.597550	0.232324
H213	H	1.156892	-0.581029	0.261672
H214	H	1.163553	-0.617547	0.192108
H215	H	1.201962	-0.675428	0.320518
H216	H	1.208637	-0.711948	0.250959
H217	H	0.917392	-0.992377	0.457223
H218	H	1.053467	-0.796040	0.331732
H219	H	0.883818	-0.488163	0.796093
