data_functionalizedCrystal
_audit_creation_method	'MofGen! by Chris Wilmer'
_symmetry_space_group_name_H-M	'P1'
_symmetry_Int_Tables_number	1
_symmetry_cell_setting	triclinic
loop_
_symmetry_equiv_pos_as_xyz
  x,y,z
_cell_length_a	17.077404
_cell_length_b	21.395361
_cell_length_c	17.077404
_cell_angle_alpha	90.015717
_cell_angle_beta	90.008318
_cell_angle_gamma	90.030933
loop_
_atom_site_label
_atom_site_type_symbol
_atom_site_fract_x
_atom_site_fract_y
_atom_site_fract_z
Zn1	Zn	1.199925	-0.249543	0.443816
Zn2	Zn	1.699925	0.250457	0.943816
Zn3	Zn	1.199840	-0.354292	0.312540
Zn4	Zn	1.699840	0.145708	0.812540
Zn5	Zn	1.068683	-0.249533	0.312564
Zn6	Zn	1.568683	0.250467	0.812564
Zn7	Zn	1.068607	-0.354287	0.443763
Zn8	Zn	1.568607	0.145713	0.943763
O9	O	1.134264	-0.301914	0.378171
O10	O	1.634264	0.198086	0.878171
O11	O	1.309761	-0.263445	0.426414
O12	O	1.809761	0.236555	0.926414
O13	O	1.182438	-0.340394	0.202696
O14	O	1.682438	0.159606	0.702696
O15	O	1.086160	-0.161857	0.330008
O16	O	1.586160	0.338143	0.830008
O17	O	1.309698	-0.340404	0.329966
O18	O	1.809698	0.159596	0.829966
O19	O	1.182583	-0.161864	0.426438
O20	O	1.682583	0.338136	0.926438
O21	O	1.086077	-0.263428	0.202714
O22	O	1.586077	0.236572	0.702714
O23	O	0.958826	-0.263423	0.329956
O24	O	1.458826	0.236577	0.829956
O25	O	1.086031	-0.340395	0.553617
O26	O	1.586031	0.159605	1.053617
O27	O	0.958770	-0.340385	0.426347
O28	O	1.458770	0.159615	0.926347
O29	O	1.182510	-0.263440	0.553656
O30	O	1.682510	0.236560	1.053656
O31	O	1.182364	-0.441970	0.329914
O32	O	1.682364	0.058030	0.829914
O33	O	1.085948	-0.441966	0.426323
O34	O	1.585948	0.058034	0.926323
C35	C	0.930316	-0.301903	0.378149
C36	C	1.430316	0.198097	0.878149
C37	C	0.843066	-0.301913	0.378159
C38	C	1.343066	0.198087	0.878159
C39	C	0.802068	-0.342048	0.428269
C40	C	1.302068	0.157952	0.928269
C41	C	0.720087	-0.342049	0.428281
C42	C	1.220087	0.157951	0.928281
C43	C	0.679107	-0.301918	0.378179
C44	C	1.179107	0.198082	0.878179
C45	C	0.720111	-0.261779	0.328067
C46	C	1.220111	0.238221	0.828067
C47	C	0.802090	-0.261775	0.328059
C48	C	1.302090	0.238225	0.828059
C49	C	0.549241	-0.261791	0.328085
C50	C	1.049241	0.238209	0.828085
C51	C	0.467256	-0.261796	0.328092
C52	C	0.967256	0.238204	0.828092
C53	C	0.467238	-0.342065	0.428308
C54	C	0.967238	0.157935	0.928308
C55	C	0.549217	-0.342061	0.428300
C56	C	1.049217	0.157939	0.928300
C57	C	0.590216	-0.301923	0.378187
C58	C	1.090216	0.198077	0.878187
C59	C	1.134160	-0.464702	0.378127
C60	C	1.634160	0.035298	0.878127
C61	C	1.134188	-0.534343	0.378135
C62	C	1.634188	-0.034343	0.878135
C63	C	1.184436	-0.567037	0.327986
C64	C	1.684436	-0.067037	0.827986
C65	C	1.184473	-0.632473	0.328003
C66	C	1.684473	-0.132473	0.828003
C67	C	1.134247	-0.665211	0.378162
C68	C	1.634247	-0.165211	0.878162
C69	C	1.083995	-0.632509	0.428320
C70	C	1.583995	-0.132509	0.928320
C71	C	1.083965	-0.567075	0.428307
C72	C	1.583965	-0.067075	0.928307
C73	C	1.063566	-0.768927	0.384313
C74	C	1.563566	-0.268927	0.884313
C75	C	1.063594	-0.834360	0.384321
C76	C	1.563594	-0.334360	0.884321
C77	C	1.134338	-0.867032	0.378208
C78	C	1.634338	-0.367032	0.878208
C79	C	1.205056	-0.834263	0.372070
C80	C	1.705056	-0.334263	0.872070
C81	C	1.205026	-0.768829	0.372056
C82	C	1.705026	-0.268829	0.872056
C83	C	1.134273	-0.736164	0.378182
C84	C	1.634273	-0.236164	0.878182
C85	C	1.184630	-0.970679	0.328075
C86	C	1.684630	-0.470679	0.828075
C87	C	1.184668	-1.036115	0.328098
C88	C	1.684668	-0.536115	0.828098
C89	C	1.084183	-1.036151	0.428411
C90	C	1.584183	-0.536151	0.928411
C91	C	1.084152	-0.970715	0.428392
C92	C	1.584152	-0.470715	0.928392
C93	C	1.134375	-0.937983	0.378220
C94	C	1.634375	-0.437983	0.878220
C95	C	1.339008	-0.301926	0.378193
C96	C	1.839008	0.198074	0.878193
C97	C	1.426258	-0.301931	0.378203
C98	C	1.926258	0.198069	0.878203
C99	C	1.134271	-0.301918	0.582915
C100	C	1.634271	0.198082	1.082915
C101	C	1.134274	-0.301920	0.670165
C102	C	1.634274	0.198080	1.170165
C103	C	1.134389	-0.138491	0.378232
C104	C	1.634389	0.361509	0.878232
C105	C	1.134443	-0.068849	0.378258
C106	C	1.634443	0.431151	0.878258
C107	C	1.184505	-0.261856	0.711177
C108	C	1.684505	0.238144	1.211177
C109	C	1.184498	-0.261855	0.793157
C110	C	1.684498	0.238145	1.293157
C111	C	1.134265	-0.301922	0.834124
C112	C	1.634265	0.198078	1.334124
C113	C	1.084029	-0.341987	0.793107
C114	C	1.584029	0.158013	1.293107
C115	C	1.084032	-0.341984	0.711128
C116	C	1.584032	0.158016	1.211128
C117	C	1.084027	-0.341991	0.963977
C118	C	1.584027	0.158009	1.463977
C119	C	1.084025	-0.341995	1.045961
C120	C	1.584025	0.158005	1.545961
C121	C	1.184493	-0.261862	1.046006
C122	C	1.684493	0.238138	1.546006
C123	C	1.184497	-0.261859	0.964027
C124	C	1.684497	0.238141	1.464027
C125	C	1.134261	-0.301926	0.923015
C126	C	1.634261	0.198074	1.423015
C127	C	1.134252	-0.301926	1.174223
C128	C	1.634252	0.198074	1.674223
C129	C	1.134255	-0.301931	1.086973
C130	C	1.634255	0.198069	1.586973
H131	H	0.835428	-0.374729	0.469065
H132	H	1.335428	0.125271	0.969065
H133	H	0.835470	-0.229090	0.287258
H134	H	1.335470	0.270910	0.787258
H135	H	1.225332	-0.540389	0.287135
H136	H	1.725332	-0.040389	0.787135
C137	C	1.039612	-1.136468	0.472974
C138	C	1.539612	-0.636468	0.972974
C139	C	1.028975	-1.072129	0.483549
C140	C	1.528975	-0.572129	0.983549
H141	H	1.005526	-1.158681	0.507014
H142	H	1.505526	-0.658681	1.007014
H143	H	1.092345	-1.147144	0.484513
H144	H	1.592345	-0.647144	0.984513
H145	H	1.028167	-1.147214	0.420222
H146	H	1.528167	-0.647214	0.920222
H147	H	1.040426	-1.061383	0.536300
H148	H	1.540426	-0.561383	1.036300
H149	H	0.976231	-1.061449	0.472015
H150	H	1.476231	-0.561449	0.972015
C151	C	1.222964	-0.950554	0.195184
C152	C	1.722964	-0.450554	0.695184
C153	C	1.239838	-0.934694	0.272933
C154	C	1.739838	-0.434694	0.772933
H155	H	1.257050	-0.928342	0.161143
H156	H	1.757050	-0.428342	0.661143
H157	H	1.170232	-0.939873	0.183651
H158	H	1.670232	-0.439873	0.683651
H159	H	1.230180	-0.994205	0.188027
H160	H	1.730180	-0.494205	0.688027
H161	H	1.232616	-0.891044	0.280091
H162	H	1.732616	-0.391044	0.780091
H163	H	1.292582	-0.945371	0.284470
H164	H	1.792582	-0.445371	0.784470
H165	H	1.225394	-0.659097	0.287166
H166	H	1.725394	-0.159097	0.787166
C167	C	0.641475	-0.177485	0.317354
C168	C	1.141475	0.322515	0.817354
C169	C	0.594304	-0.217671	0.272996
C170	C	1.094304	0.282329	0.772996
H171	H	0.669290	-0.150248	0.283341
H172	H	1.169290	0.349752	0.783341
H173	H	0.677611	-0.201383	0.347184
H174	H	1.177611	0.298617	0.847184
H175	H	0.609509	-0.153565	0.351610
H176	H	1.109509	0.346435	0.851610
H177	H	0.626271	-0.241595	0.238744
H178	H	1.126271	0.258405	0.738744
H179	H	0.558164	-0.193771	0.243153
H180	H	1.058164	0.306229	0.743153
C181	C	1.344861	-0.775297	0.359960
C182	C	1.844861	-0.275297	0.859960
C183	C	1.282755	-0.732808	0.365322
C184	C	1.782755	-0.232808	0.865322
H185	H	1.392848	-0.753058	0.355811
H186	H	1.892848	-0.253058	0.855811
H187	H	1.338013	-0.800836	0.314973
H188	H	1.838013	-0.300836	0.814973
H189	H	1.345848	-0.800805	0.405470
H190	H	1.845848	-0.300805	0.905470
H191	H	1.281765	-0.707303	0.319809
H192	H	1.781765	-0.207303	0.819809
H193	H	1.289605	-0.707259	0.410314
H194	H	1.789605	-0.207259	0.910314
H195	H	1.262663	-0.860863	0.367092
H196	H	1.762663	-0.360863	0.867092
C197	C	0.641435	-0.350890	0.533853
C198	C	1.141435	0.149110	1.033853
C199	C	0.594265	-0.386172	0.483374
C200	C	1.094265	0.113828	0.983374
H201	H	0.669248	-0.378123	0.567852
H202	H	1.169248	0.121877	1.067852
H203	H	0.609476	-0.323638	0.563944
H204	H	1.109476	0.176362	1.063944
H205	H	0.677581	-0.326989	0.503997
H206	H	1.177581	0.173011	1.003997
H207	H	0.558115	-0.410070	0.513230
H208	H	1.058115	0.089930	1.013230
H209	H	0.626227	-0.413435	0.453281
H210	H	1.126227	0.086565	0.953281
C211	C	1.195784	-1.109809	0.222615
C212	C	1.695784	-0.609809	0.722615
C213	C	1.239948	-1.072091	0.273049
C214	C	1.739948	-0.572091	0.773049
H215	H	1.229926	-1.132032	0.188656
H216	H	1.729926	-0.632032	0.688656
H217	H	1.161638	-1.084343	0.192480
H218	H	1.661638	-0.584343	0.692480
H219	H	1.165844	-1.138640	0.252507
H220	H	1.665844	-0.638640	0.752507
H221	H	1.269883	-1.043258	0.243157
H222	H	1.769883	-0.543258	0.743157
H223	H	1.274108	-1.097560	0.303187
H224	H	1.774108	-0.597560	0.803187
H225	H	1.043121	-0.374602	0.677737
H226	H	1.543121	0.125398	1.177737
H227	H	1.043232	-0.944094	0.469225
H228	H	1.543232	-0.444094	0.969225
C229	C	0.923764	-0.827883	0.396445
C230	C	1.423764	-0.327883	0.896445
C231	C	0.985863	-0.870376	0.391068
C232	C	1.485863	-0.370376	0.891068
H233	H	0.875777	-0.850119	0.400615
H234	H	1.375777	-0.350119	0.900615
H235	H	0.922766	-0.802379	0.350942
H236	H	1.422766	-0.302379	0.850942
H237	H	0.930631	-0.802341	0.441436
H238	H	1.430631	-0.302341	0.941436
H239	H	0.979000	-0.895916	0.346073
H240	H	1.479000	-0.395916	0.846073
H241	H	0.986861	-0.895892	0.436576
H242	H	1.486861	-0.395892	0.936576
H243	H	1.005953	-0.742332	0.389295
H244	H	1.505953	-0.242332	0.889295
C245	C	1.073039	-0.706072	0.533904
C246	C	1.573039	-0.206072	1.033904
C247	C	1.028785	-0.668494	0.483454
C248	C	1.528785	-0.168494	0.983454
H249	H	1.038954	-0.728289	0.567941
H250	H	1.538954	-0.228289	1.067941
H251	H	1.107198	-0.680511	0.563956
H252	H	1.607198	-0.180511	1.063956
H253	H	1.102968	-0.734907	0.504029
H254	H	1.602968	-0.234907	1.004029
H255	H	0.998860	-0.639656	0.513329
H256	H	1.498860	-0.139656	1.013329
H257	H	0.994612	-0.694057	0.453400
H258	H	1.494612	-0.194057	0.953400
H259	H	0.686738	-0.229101	0.287276
H260	H	1.186738	0.270899	0.787276
C261	C	0.984645	-0.573684	0.527463
C262	C	1.484645	-0.073684	1.027463
C263	C	1.028723	-0.531133	0.483430
C264	C	1.528723	-0.031133	0.983430
H265	H	0.950537	-0.551493	0.561489
H266	H	1.450537	-0.051493	1.061489
H267	H	1.018835	-0.599166	0.557526
H268	H	1.518835	-0.099166	1.057526
H269	H	0.954659	-0.599243	0.493233
H270	H	1.454659	-0.099243	0.993233
H271	H	1.058714	-0.505577	0.517659
H272	H	1.558714	-0.005577	1.017659
H273	H	0.994529	-0.505640	0.453364
H274	H	1.494529	-0.005640	0.953364
H275	H	1.225413	-0.229231	0.677827
H276	H	1.725413	0.270769	1.177827
H277	H	1.225403	-0.229232	0.826545
H278	H	1.725403	0.270768	1.326545
C279	C	1.283802	-0.182647	0.972301
C280	C	1.783802	0.317353	1.472301
C281	C	1.239713	-0.217817	0.918994
C282	C	1.739713	0.282183	1.418994
H283	H	1.317885	-0.155454	0.944498
H284	H	1.817885	0.344546	1.444498
H285	H	1.313807	-0.209947	1.004268
H286	H	1.813807	0.290053	1.504268
H287	H	1.249612	-0.158680	1.004282
H288	H	1.749612	0.341320	1.504282
H289	H	1.273903	-0.241788	0.887017
H290	H	1.773903	0.258212	1.387017
H291	H	1.209705	-0.190514	0.887014
H292	H	1.709705	0.309486	1.387014
C293	C	1.229082	-0.226262	1.171690
C294	C	1.729082	0.273738	1.671690
C295	C	1.239700	-0.217808	1.091083
C296	C	1.739700	0.282192	1.591083
H297	H	1.263159	-0.199063	1.199519
H298	H	1.763159	0.300937	1.699519
H299	H	1.240545	-0.268353	1.185114
H300	H	1.740545	0.231647	1.685114
H301	H	1.176342	-0.217093	1.185104
H302	H	1.676342	0.282907	1.685104
H303	H	1.292439	-0.226982	1.077668
H304	H	1.792439	0.273018	1.577668
H305	H	1.228242	-0.175708	1.077654
H306	H	1.728242	0.324292	1.577654
C307	C	0.984702	-0.421193	1.037687
C308	C	1.484702	0.078807	1.537687
C309	C	1.028802	-0.386032	1.090995
C310	C	1.528802	0.113968	1.590995
H311	H	0.950607	-0.448377	1.065491
H312	H	1.450607	0.051623	1.565491
H313	H	1.018879	-0.445164	1.005710
H314	H	1.518879	0.054836	1.505710
H315	H	0.954702	-0.393883	1.005717
H316	H	1.454702	0.106117	1.505717
H317	H	1.058807	-0.413342	1.122961
H318	H	1.558807	0.086658	1.622961
H319	H	0.994621	-0.362059	1.122985
H320	H	1.494621	0.137941	1.622985
H321	H	1.043108	-0.374608	0.930587
H322	H	1.543108	0.125392	1.430587
C323	C	1.073053	-0.426271	0.885260
C324	C	1.573053	0.073729	1.385260
C325	C	1.028810	-0.386030	0.838135
C326	C	1.528810	0.113970	1.338135
H327	H	1.038962	-0.453464	0.913053
H328	H	1.538962	0.046536	1.413053
H329	H	1.102961	-0.402411	0.921415
H330	H	1.602961	0.097589	1.421415
H331	H	1.107233	-0.450236	0.853266
H332	H	1.607233	0.049764	1.353266
H333	H	0.994635	-0.362062	0.870130
H334	H	1.494635	0.137938	1.370130
H335	H	0.998889	-0.409893	0.801976
H336	H	1.498889	0.090107	1.301976
H337	H	0.433892	-0.229111	0.287304
H338	H	0.933892	0.270889	0.787304
H339	H	0.686710	-0.374731	0.469086
H340	H	1.186710	0.125269	0.969086
C341	C	0.341566	-0.377709	0.472836
C342	C	0.841566	0.122291	0.972836
C343	C	0.422176	-0.386183	0.483401
C344	C	0.922176	0.113817	0.983401
H345	H	0.313746	-0.404943	0.506849
H346	H	0.813746	0.095057	1.006849
H347	H	0.328114	-0.386813	0.420081
H348	H	0.828114	0.113187	0.920081
H349	H	0.328170	-0.335625	0.484426
H350	H	0.828170	0.164375	0.984426
H351	H	0.435573	-0.428266	0.471804
H352	H	0.935573	0.071734	0.971804
H353	H	0.435634	-0.377083	0.536167
H354	H	0.935634	0.122917	1.036167
