data_functionalizedCrystal
_audit_creation_method	'MofGen! by Chris Wilmer'
_symmetry_space_group_name_H-M	'P1'
_symmetry_Int_Tables_number	1
_symmetry_cell_setting	triclinic
loop_
_symmetry_equiv_pos_as_xyz
  x,y,z
_cell_length_a	12.759401
_cell_length_b	14.908520
_cell_length_c	12.759393
_cell_angle_alpha	86.736394
_cell_angle_beta	90.020938
_cell_angle_gamma	93.322137
loop_
_atom_site_label
_atom_site_type_symbol
_atom_site_fract_x
_atom_site_fract_y
_atom_site_fract_z
Zn1	Zn	1.582080	-0.359078	0.618119
Zn2	Zn	1.571808	-0.509962	0.452566
Zn3	Zn	1.406376	-0.359126	0.442458
Zn4	Zn	1.396212	-0.509899	0.628199
O5	O	1.489119	-0.434516	0.535335
O6	O	1.727738	-0.379099	0.596170
O7	O	1.549818	-0.490000	0.304207
O8	O	1.438236	-0.232875	0.457311
O9	O	1.720192	-0.489953	0.474539
O10	O	1.567325	-0.232840	0.586369
O11	O	1.428275	-0.379181	0.296781
O12	O	1.258007	-0.379120	0.467085
O13	O	1.420913	-0.489846	0.773880
O14	O	1.250540	-0.489892	0.603548
O15	O	1.557470	-0.379038	0.766474
O16	O	1.539963	-0.636198	0.484313
O17	O	1.410953	-0.636152	0.613349
C18	C	1.216153	-0.434505	0.535314
C19	C	1.099375	-0.434522	0.535331
C20	C	1.040646	-0.492289	0.606288
C21	C	0.930922	-0.492292	0.606309
C22	C	0.938665	-0.376759	0.464407
C23	C	1.048387	-0.376752	0.464392
C24	C	0.778846	-0.524663	0.732342
C25	C	0.720112	-0.582444	0.803290
C26	C	0.749780	-0.670486	0.825147
C27	C	0.838178	-0.700764	0.776041
C28	C	0.896905	-0.642988	0.705085
C29	C	0.867240	-0.554934	0.683248
C30	C	1.200465	-0.344390	0.338358
C31	C	1.259194	-0.286618	0.267397
C32	C	1.229528	-0.198575	0.245529
C33	C	1.141127	-0.168300	0.294617
C34	C	1.082398	-0.226072	0.365578
C35	C	1.112071	-0.314114	0.387447
C36	C	1.473269	-0.668908	0.551045
C37	C	1.466584	-0.769183	0.557800
C38	C	1.588499	-0.957595	0.436237
C39	C	1.582222	-1.051812	0.442581
C40	C	1.447758	-1.051834	0.576837
C41	C	1.454036	-0.957617	0.570493
C42	C	1.524407	-0.910501	0.500189
C43	C	1.530679	-0.816283	0.493841
C44	C	1.396221	-0.816307	0.628101
C45	C	1.389944	-0.910523	0.634445
C46	C	1.763152	-0.434528	0.535358
C47	C	1.879928	-0.434533	0.535367
C48	C	1.489204	-0.434429	0.809363
C49	C	1.489240	-0.434392	0.926137
C50	C	1.505060	-0.199208	0.519588
C51	C	1.511853	-0.098934	0.512877
C52	C	1.489100	-0.434537	0.262369
C53	C	1.489285	-0.434320	0.145579
C54	C	1.560350	-0.376686	0.977144
C55	C	1.560371	-0.376647	1.086866
C56	C	1.418166	-0.492029	1.094564
C57	C	1.418142	-0.492063	0.984844
C58	C	1.605152	-0.270208	1.229700
C59	C	1.676278	-0.212509	1.280712
C60	C	1.779723	-0.198675	1.244192
C61	C	1.812061	-0.242553	1.156663
C62	C	1.740940	-0.300258	1.105658
C63	C	1.637482	-0.314075	1.142175
C64	C	1.373371	-0.598503	0.842008
C65	C	1.302254	-0.656214	0.791001
C66	C	1.198807	-0.670057	0.827519
C67	C	1.166472	-0.626195	0.915052
C68	C	1.237589	-0.568484	0.966059
C69	C	1.341035	-0.554640	0.929533
H70	H	0.701952	-0.717531	0.882915
O71	O	0.883670	-0.314481	0.387863
H72	H	0.797505	-0.324205	0.399777
H73	H	1.634414	-1.090152	0.390506
H74	H	1.277350	-0.151541	0.187738
O75	O	1.341491	-0.554230	1.157891
H76	H	1.292031	-0.594356	1.103985
H77	H	1.116960	-0.096614	0.276795
O78	O	1.606591	-0.765470	0.418026
H79	H	1.662872	-0.722475	0.462217
O80	O	1.856435	-0.136442	1.299212
H81	H	1.933806	-0.134199	1.259120
H82	H	1.211253	-0.532770	1.037334
O83	O	1.664393	-0.906768	0.360415
H84	H	1.707910	-0.955345	0.317012
O85	O	0.987054	-0.193421	0.418537
H86	H	0.976293	-0.122490	0.391419
H87	H	1.390472	-1.090211	0.634081
O88	O	1.354545	-0.319266	0.214447
H89	H	1.365320	-0.390191	0.241585
O90	O	1.232456	-0.439358	0.361945
H91	H	1.303782	-0.450709	0.315875
O92	O	1.095647	-0.554583	0.682807
H93	H	1.036371	-0.594745	0.732159
H94	H	1.328594	-0.691937	0.719734
O95	O	1.314044	-0.961353	0.710259
H96	H	1.333220	-0.943215	0.791515
H97	H	1.344030	-0.777952	0.680173
H98	H	1.082238	-0.637470	0.944790
O99	O	0.624775	-0.549781	0.856250
H100	H	0.554319	-0.592386	0.835830
O101	O	1.637022	-0.314481	0.913819
H102	H	1.686466	-0.274342	0.967725
H103	H	1.649939	-0.176783	1.351978
O104	O	1.775798	-0.347578	1.011252
H105	H	1.859681	-0.328263	0.994421
O106	O	1.493570	-0.285119	1.269079
H107	H	1.483043	-0.244924	1.338517
O108	O	1.923643	-0.227647	1.117283
H109	H	1.967664	-0.180146	1.167451
O110	O	1.122095	-0.732302	0.772507
H111	H	1.161953	-0.760479	0.705503
H112	H	1.457604	-0.587230	0.812260
H113	H	0.968876	-0.667640	0.665104
H114	H	0.862319	-0.772460	0.793834
H115	H	0.754689	-0.452970	0.714562
