data_functionalizedCrystal
_audit_creation_method	'MofGen! by Chris Wilmer'
_symmetry_space_group_name_H-M	'P1'
_symmetry_Int_Tables_number	1
_symmetry_cell_setting	triclinic
loop_
_symmetry_equiv_pos_as_xyz
  x,y,z
_cell_length_a	14.044202
_cell_length_b	26.210047
_cell_length_c	14.044220
_cell_angle_alpha	89.995945
_cell_angle_beta	86.809211
_cell_angle_gamma	90.014284
loop_
_atom_site_label
_atom_site_type_symbol
_atom_site_fract_x
_atom_site_fract_y
_atom_site_fract_z
O1	O	-1.277189	-0.042406	0.230209
O2	O	-1.000517	-0.042412	0.221894
O3	O	-1.134700	-0.042404	0.087716
O4	O	-1.143006	-0.042414	0.364387
O5	O	-1.134653	0.042454	0.087713
O6	O	-1.000470	0.042446	0.221891
O7	O	-1.277142	0.042453	0.230206
Cu8	Cu	-1.138801	0.050197	0.226048
Cu9	Cu	-1.138857	-0.050157	0.226052
O10	O	-1.142959	0.042444	0.364384
C11	C	-0.964871	0.000016	0.218256
C12	C	-0.858728	0.000014	0.207407
C13	C	-0.613270	0.000017	0.264506
C14	C	-0.664395	0.000018	0.187590
C15	C	-0.772532	0.000016	0.198619
C16	C	-0.505123	0.000019	0.253478
N17	N	-1.138769	0.120781	0.226046
C18	C	-1.201640	0.473295	0.288883
C19	C	-1.201666	0.686953	0.288887
O20	O	-1.255101	0.714575	0.342297
N21	N	-1.138871	0.713675	0.226055
C22	C	-1.076070	0.686979	0.163212
O23	O	-1.022667	0.714610	0.109762
C24	C	-1.076049	0.473322	0.163203
C25	C	-1.138841	0.446603	0.226047
C26	C	-1.264428	0.446576	0.351720
C27	C	-1.264417	0.393164	0.351722
C28	C	-1.201618	0.366472	0.288886
C29	C	-1.138831	0.393191	0.226049
C30	C	-1.013254	0.446627	0.100357
C31	C	-1.013256	0.393209	0.100358
C32	C	-1.076048	0.366490	0.163202
C33	C	-1.076022	0.313087	0.163214
N34	N	-1.138816	0.286365	0.226047
C35	C	-1.201615	0.313058	0.288883
C36	C	-1.076084	0.799153	0.163222
C37	C	-1.076088	0.852567	0.163225
C38	C	-1.201685	0.852537	0.288900
C39	C	-1.201676	0.799122	0.288901
C40	C	-1.138879	0.772431	0.226055
C41	C	-1.201587	0.200890	0.288883
C42	C	-1.201568	0.147474	0.288881
C43	C	-1.075974	0.147508	0.163204
C44	C	-1.075989	0.200919	0.163208
C45	C	-1.138803	0.227609	0.226051
O46	O	-1.022622	0.285433	0.109825
O47	O	-1.255024	0.285417	0.342310
C48	C	-1.201651	0.526706	0.288881
C49	C	-1.138863	0.553425	0.226043
C50	C	-1.076065	0.526733	0.163207
C51	C	-1.138867	0.606840	0.226046
C52	C	-1.201665	0.633532	0.288882
C53	C	-1.264460	0.606810	0.351715
C54	C	-1.264449	0.553398	0.351717
C55	C	-1.013270	0.553455	0.100375
C56	C	-1.013285	0.606867	0.100379
C57	C	-1.076083	0.633559	0.163215
C58	C	-0.312788	0.000023	0.233842
C59	C	-0.418931	0.000021	0.244684
C60	C	-1.131041	0.000025	0.052092
C61	C	-1.120196	0.000026	-0.054051
N62	N	-1.138886	0.879259	0.226061
C63	C	-1.100370	0.000018	-0.248389
C64	C	-1.177284	0.000018	-0.299517
C65	C	-1.166253	0.000014	-0.407653
C66	C	-1.111400	0.000022	-0.140243
C67	C	-1.146618	0.000014	0.400008
C68	C	-1.157462	0.000010	0.506151
H69	H	-0.626952	-0.000015	0.113457
N70	N	-1.011921	0.771900	0.099022
N71	N	-0.955860	0.795771	0.042937
H72	H	-0.910538	0.776527	-0.002401
N73	N	-0.660233	-0.000002	0.357501
N74	N	-0.646509	-0.035778	0.413973
H75	H	-0.679686	-0.035794	0.479651
H76	H	-1.315581	0.531648	0.402890
N77	N	-1.265715	0.120189	0.353086
N78	N	-1.321781	0.144032	0.409182
H79	H	-1.367086	0.124765	0.454525
H80	H	-1.252736	0.222614	0.340054
H81	H	-1.251418	-0.000014	-0.262075
H82	H	-1.315552	0.371414	0.402892
H83	H	-1.315571	0.468303	0.402889
N84	N	-1.265839	0.771837	0.353079
N85	N	-1.353842	0.777797	0.349216
H86	H	-1.399165	0.758529	0.394541
N87	N	-1.265818	0.879816	0.353089
N88	N	-1.265800	0.927506	0.353078
H89	H	-1.311092	0.946775	0.398408
N90	N	-1.011926	0.879848	0.099041
N91	N	-0.955864	0.856003	0.042946
H92	H	-0.910549	0.875269	-0.002390
H93	H	-0.962123	0.468372	0.049182
N94	N	-0.949119	0.365953	0.036137
N95	N	-0.893076	0.389820	-0.019973
H96	H	-0.847783	0.370572	-0.065334
H97	H	-1.024848	0.222675	0.112047
H98	H	-1.024843	0.125765	0.112047
N99	N	-1.328593	0.634089	0.415903
N100	N	-1.328580	0.681780	0.415886
H101	H	-1.373872	0.701049	0.461215
N102	N	-0.949125	0.634148	0.036182
N103	N	-0.893064	0.610303	-0.019914
H104	H	-0.847756	0.629568	-0.065256
H105	H	-1.026242	0.000015	-0.285829
H106	H	-0.962132	0.531728	0.049204
