data_functionalizedCrystal
_audit_creation_method	'MofGen! by Chris Wilmer'
_symmetry_space_group_name_H-M	'P1'
_symmetry_Int_Tables_number	1
_symmetry_cell_setting	triclinic
loop_
_symmetry_equiv_pos_as_xyz
  x,y,z
_cell_length_a	15.995350
_cell_length_b	15.072220
_cell_length_c	15.995350
_cell_angle_alpha	90.001101
_cell_angle_beta	96.507625
_cell_angle_gamma	90.008851
loop_
_atom_site_label
_atom_site_type_symbol
_atom_site_fract_x
_atom_site_fract_y
_atom_site_fract_z
O1	O	1.110996	0.073703	-0.107921
O2	O	0.867221	0.073721	-0.121249
O3	O	0.995772	0.073710	0.007303
O4	O	0.982444	0.073713	-0.236472
O5	O	0.995740	-0.073855	0.007296
O6	O	0.867189	-0.073844	-0.121256
O7	O	1.110964	-0.073862	-0.107928
Zn8	Zn	0.989071	-0.097283	-0.114593
Zn9	Zn	0.989113	0.097141	-0.114584
O10	O	0.982413	-0.073852	-0.236480
C11	C	0.836010	-0.000060	-0.120701
C12	C	0.743060	-0.000053	-0.119049
N13	N	0.989049	-0.229971	-0.114599
C14	C	0.405312	-0.000071	-0.113117
C15	C	0.452746	-0.000401	-0.021565
C16	C	0.549436	-0.000063	-0.023217
C17	C	0.572873	-0.000063	-0.116060
C18	C	0.531804	0.084201	-0.161212
C19	C	0.435168	0.084266	-0.158912
C20	C	0.434793	-0.083543	-0.160812
C21	C	0.531738	-0.084651	-0.160790
C22	C	0.667570	-0.000055	-0.117727
C23	C	0.310614	-0.000073	-0.111452
C24	C	0.989112	-0.589173	-0.114580
C25	C	0.920095	-0.551560	-0.183135
C26	C	0.920254	-0.448735	-0.183385
C27	C	0.989080	-0.410969	-0.114590
C28	C	1.076445	-0.448266	-0.133671
C29	C	1.076058	-0.551124	-0.134159
C30	C	0.971542	-0.551272	-0.026741
C31	C	0.969537	-0.448409	-0.027327
C32	C	0.989067	-0.310255	-0.114593
C33	C	0.989130	-0.689886	-0.114579
C34	C	1.142175	-0.000080	-0.108476
C35	C	1.235125	-0.000081	-0.110127
C36	C	0.995205	-0.000070	0.038494
C37	C	0.993553	-0.000065	0.131444
N38	N	0.989142	0.229830	-0.114571
C39	C	0.982980	-0.000069	-0.267671
C40	C	0.984631	-0.000069	-0.360621
C41	C	0.987621	-0.000068	0.469192
C42	C	0.896069	0.000270	0.421758
C43	C	0.897721	-0.000063	0.325068
C44	C	0.990564	-0.000066	0.301631
C45	C	1.035702	-0.084335	0.342705
C46	C	1.033402	-0.084405	0.439341
C47	C	1.035330	0.083404	0.439707
C48	C	1.035308	0.084518	0.342761
C49	C	0.992231	-0.000068	0.206934
C50	C	0.985956	-0.000072	0.563890
H51	H	0.577852	-0.060467	0.012275
C52	C	0.882713	-0.415483	-0.007764
N53	N	0.817315	-0.390680	0.006967
H54	H	0.859626	-0.059819	0.441349
H55	H	1.103014	0.089603	0.327400
C56	C	0.552508	-0.091538	-0.252251
N57	N	0.568156	-0.096724	-0.321141
C58	C	1.033049	-0.413702	0.044821
N59	N	1.080899	-0.387569	0.099161
C60	C	0.407041	-0.169830	-0.120375
N61	N	0.386139	-0.234816	-0.089909
C62	C	0.427697	-0.082036	0.027871
N63	N	0.408823	-0.143525	0.065108
C64	C	0.391881	-0.084316	-0.252001
N65	N	0.359556	-0.084892	-0.320681
H66	H	0.433165	0.059694	0.014865
C67	C	0.994907	0.169691	0.467455
N68	N	0.964452	0.234677	0.488353
C69	C	0.570147	0.168923	-0.118833
N70	N	0.599025	0.232733	-0.086908
C71	C	0.391601	0.089451	-0.249715
N72	N	0.358790	0.093366	-0.318106
H73	H	0.577307	0.060446	0.012521
H74	H	0.416873	0.147255	-0.125979
C75	C	1.096957	-0.583525	-0.220707
N76	N	1.112693	-0.607925	-0.285901
C77	C	0.550890	0.088441	-0.253358
N78	N	0.565269	0.091633	-0.322762
C79	C	0.993309	-0.169052	0.304366
N80	N	0.961373	-0.232858	0.275491
H81	H	0.861974	-0.060568	0.297200
H82	H	1.002306	0.146857	0.315516
C83	C	0.568592	-0.168868	-0.116236
N84	N	0.596348	-0.232299	-0.082671
H85	H	0.855314	-0.423519	-0.172016
C86	C	1.127843	-0.088586	0.323605
N87	N	1.197242	-0.091790	0.309212
C88	C	1.126518	0.084170	0.482619
N89	N	1.195198	0.084742	0.514946
C90	C	0.887328	-0.586345	-0.001970
N91	N	0.823893	-0.612762	0.016677
C92	C	0.832081	-0.585026	-0.168045
N93	N	0.765787	-0.610244	-0.156682
C94	C	1.039531	-0.584137	0.042181
N95	N	1.090742	-0.608897	0.094087
C96	C	0.935041	-0.586466	-0.270702
N97	N	0.946301	-0.612758	-0.336657
H98	H	0.931473	-0.424121	-0.248570
C99	C	1.147540	-0.584737	-0.069290
N100	N	1.201389	-0.610051	-0.020443
H101	H	1.129029	-0.423801	-0.085068
C102	C	0.988890	-0.169496	0.464062
N103	N	0.955358	-0.233587	0.482677
C104	C	1.097856	-0.413467	-0.219234
N105	N	1.113977	-0.387261	-0.283685
C106	C	0.849778	0.081541	0.286672
N107	N	0.813661	0.143005	0.257755
C108	C	0.846645	0.081903	0.446806
N109	N	0.809416	0.143390	0.465681
C110	C	1.124205	-0.089587	0.482908
N111	N	1.192596	-0.093496	0.515719
