data_functionalizedCrystal
_audit_creation_method	'MofGen! by Chris Wilmer'
_symmetry_space_group_name_H-M	'P1'
_symmetry_Int_Tables_number	1
_symmetry_cell_setting	triclinic
loop_
_symmetry_equiv_pos_as_xyz
  x,y,z
_cell_length_a	12.759395
_cell_length_b	18.050589
_cell_length_c	12.759387
_cell_angle_alpha	89.970268
_cell_angle_beta	89.982772
_cell_angle_gamma	90.029758
loop_
_atom_site_label
_atom_site_type_symbol
_atom_site_fract_x
_atom_site_fract_y
_atom_site_fract_z
Zn1	Zn	1.606136	-0.295592	-0.594011
Zn2	Zn	2.106136	0.204408	-0.094011
Zn3	Zn	1.605995	-0.419800	-0.418334
Zn4	Zn	2.105995	0.080200	0.081666
Zn5	Zn	1.430444	-0.295632	-0.418348
Zn6	Zn	1.930444	0.204368	0.081652
Zn7	Zn	1.430385	-0.419748	-0.593973
Zn8	Zn	1.930385	0.080252	-0.093973
O9	O	1.518240	-0.357693	-0.506166
O10	O	2.018240	0.142307	-0.006166
O11	O	1.753138	-0.312073	-0.570717
O12	O	2.253138	0.187927	-0.070717
O13	O	1.582674	-0.403367	-0.271315
O14	O	2.082674	0.096633	0.228685
O15	O	1.453834	-0.191702	-0.441672
O16	O	1.953834	0.308298	0.058328
O17	O	1.753035	-0.403329	-0.441648
O18	O	2.253035	0.096671	0.058352
O19	O	1.582914	-0.191672	-0.570731
O20	O	2.082914	0.308328	-0.070731
O21	O	1.453697	-0.312141	-0.271325
O22	O	1.953697	0.187859	0.228675
O23	O	1.283415	-0.312091	-0.441635
O24	O	1.783415	0.187909	0.058365
O25	O	1.453733	-0.403240	-0.740999
O26	O	1.953733	0.096760	-0.240999
O27	O	1.283372	-0.403278	-0.570666
O28	O	1.783372	0.096722	-0.070666
O29	O	1.582856	-0.312023	-0.741027
O30	O	2.082856	0.187977	-0.241027
O31	O	1.582616	-0.523718	-0.441611
O32	O	2.082616	-0.023718	0.058389
O33	O	1.453596	-0.523679	-0.570652
O34	O	1.953596	-0.023679	-0.070652
C35	C	1.245273	-0.357684	-0.506148
C36	C	1.745273	0.142316	-0.006148
C37	C	1.128496	-0.357698	-0.506166
C38	C	1.628496	0.142302	-0.006166
C39	C	1.128489	-0.452805	-0.640308
C40	C	1.628489	0.047195	-0.140308
C41	C	1.073625	-0.500364	-0.707383
C42	C	1.573625	-0.000364	-0.207383
C43	C	0.963903	-0.500373	-0.707395
C44	C	1.463903	-0.000373	-0.207395
C45	C	0.909044	-0.452816	-0.640329
C46	C	1.409044	0.047184	-0.140329
C47	C	0.963908	-0.405257	-0.573255
C48	C	1.463908	0.094743	-0.073255
C49	C	1.073632	-0.405255	-0.573247
C50	C	1.573632	0.094745	-0.073247
C51	C	0.963914	-0.310147	-0.439119
C52	C	1.463914	0.189853	0.060881
C53	C	1.073636	-0.310141	-0.439099
C54	C	1.573636	0.189859	0.060901
C55	C	0.909054	-0.262590	-0.372052
C56	C	1.409054	0.237410	0.127948
C57	C	0.963919	-0.215033	-0.304971
C58	C	1.463919	0.284967	0.195029
C59	C	1.073647	-0.215027	-0.304960
C60	C	1.573647	0.284973	0.195040
C61	C	1.128500	-0.262581	-0.372025
C62	C	1.628500	0.237419	0.127975
C63	C	1.518113	-0.550645	-0.506149
C64	C	2.018113	-0.050645	-0.006149
C65	C	1.518155	-0.633191	-0.506177
C66	C	2.018155	-0.133191	-0.006177
C67	C	1.448063	-0.832647	-0.576325
C68	C	1.948063	-0.332647	-0.076325
C69	C	1.422452	-0.882096	-0.480456
C70	C	1.922452	-0.382096	0.019544
C71	C	1.518258	-0.784321	-0.506190
C72	C	2.018258	-0.284321	-0.006190
C73	C	1.543921	-0.881955	-0.602070
C74	C	2.043921	-0.381955	-0.102070
C75	C	1.518356	-0.930306	-0.506212
C76	C	2.018356	-0.430306	-0.006212
C77	C	1.492597	-0.832682	-0.410271
C78	C	1.992597	-0.332682	0.089729
C79	C	1.614110	-0.832537	-0.531950
C80	C	2.114110	-0.332537	-0.031950
C81	C	1.588536	-0.881962	-0.436015
C82	C	2.088536	-0.381962	0.063985
C83	C	1.518199	-0.700223	-0.506179
C84	C	2.018199	-0.200223	-0.006179
C85	C	1.518415	-1.014403	-0.506212
C86	C	2.018415	-0.514403	-0.006212
C87	C	1.792274	-0.357702	-0.506185
C88	C	2.292274	0.142298	-0.006185
C89	C	1.909050	-0.357706	-0.506193
C90	C	2.409050	0.142294	-0.006193
C91	C	1.518304	-0.357621	-0.780200
C92	C	2.018304	0.142379	-0.280200
C93	C	1.518331	-0.357590	-0.896977
C94	C	2.018331	0.142410	-0.396977
C95	C	1.518396	-0.163987	-0.506207
C96	C	2.018396	0.336013	-0.006207
C97	C	1.518463	-0.081441	-0.506224
C98	C	2.018463	0.418559	-0.006224
C99	C	1.652708	-0.452532	-1.116391
C100	C	2.152708	0.047468	-0.616391
C101	C	1.719840	-0.500044	-1.061515
C102	C	2.219840	-0.000044	-0.561515
C103	C	1.719805	-0.500072	-0.951793
C104	C	2.219805	-0.000072	-0.451793
C105	C	1.652629	-0.452585	-0.896945
C106	C	2.152629	0.047415	-0.396945
C107	C	1.585497	-0.405074	-0.951822
C108	C	2.085497	0.094926	-0.451822
C109	C	1.585542	-0.405049	-1.061546
C110	C	2.085542	0.094951	-0.561546
C111	C	1.451199	-0.310078	-0.951853
C112	C	1.951199	0.189922	-0.451853
C113	C	1.451238	-0.310045	-1.061575
C114	C	1.951238	0.189955	-0.561575
C115	C	1.384023	-0.262591	-0.897006
C116	C	1.884023	0.237409	-0.397006
C117	C	1.316895	-0.215075	-0.951882
C118	C	1.816895	0.284925	-0.451882
C119	C	1.316934	-0.215048	-1.061611
C120	C	1.816934	0.284952	-0.561611
C121	C	1.384106	-0.262533	-1.116452
C122	C	1.884106	0.237467	-0.616452
C123	C	1.518237	-0.357711	-0.233199
C124	C	2.018237	0.142289	0.266801
C125	C	1.518414	-0.357532	-0.116423
C126	C	2.018414	0.142468	0.383577
H127	H	0.919233	-0.539097	-0.762019
H128	H	1.419233	-0.039097	-0.262019
C129	C	1.133989	-0.162706	-0.231172
C130	C	1.633989	0.337294	0.268828
N131	N	1.179434	-0.123298	-0.175591
N132	N	1.679434	0.376702	0.324409
H133	H	1.652753	-0.452507	-1.205733
H134	H	2.152753	0.047493	-0.705733
H135	H	1.262265	-0.176359	-1.106285
H136	H	1.762265	0.323641	-0.606285
H137	H	1.695105	-0.810754	-0.553763
H138	H	2.195105	-0.310754	-0.053763
H139	H	1.565587	-0.903599	-0.683146
H140	H	2.065587	-0.403599	-0.183146
C141	C	0.903566	-0.162724	-0.231209
C142	C	1.403566	0.337276	0.268791
N143	N	0.858104	-0.123325	-0.175649
N144	N	1.358104	0.376675	0.324351
H145	H	1.774530	-0.538709	-1.106184
H146	H	2.274530	-0.038709	-0.606184
C147	C	0.788358	-0.262594	-0.372079
C148	C	1.288358	0.237406	0.127921
N149	N	0.697447	-0.262596	-0.372098
N150	N	1.197447	0.237404	0.127902
H151	H	1.774475	-0.538757	-0.907113
H152	H	2.274475	-0.038757	-0.407113
C153	C	1.367751	-0.803386	-0.656332
C154	C	1.867751	-0.303386	-0.156332
N155	N	1.307258	-0.781343	-0.716587
N156	N	1.807258	-0.281343	-0.216587
C157	C	1.133979	-0.552678	-0.781148
C158	C	1.633979	-0.052678	-0.281148
N159	N	1.179435	-0.592081	-0.836707
N160	N	1.679435	-0.092081	-0.336707
C161	C	1.652600	-0.452615	-0.776249
C162	C	2.152600	0.047385	-0.276249
N163	N	1.652584	-0.452634	-0.685338
N164	N	2.152584	0.047366	-0.185338
C165	C	1.249197	-0.262583	-0.372012
C166	C	1.749197	0.237417	0.127988
N167	N	1.340107	-0.262587	-0.372007
N168	N	1.840107	0.237413	0.127993
H169	H	1.383996	-0.262621	-0.807664
H170	H	1.883996	0.237379	-0.307664
H171	H	1.341439	-0.903880	-0.458688
H172	H	1.841439	-0.403880	0.041312
C173	C	1.463195	-0.803565	-0.300711
C174	C	1.963195	-0.303565	0.199289
N175	N	1.441044	-0.781633	-0.218194
N176	N	1.941044	-0.281633	0.281806
H177	H	1.647940	-0.903479	-0.376645
H178	H	2.147940	-0.403479	0.123355
H179	H	1.262202	-0.176418	-0.907217
H180	H	1.762202	0.323582	-0.407217
H181	H	1.217830	-0.452808	-0.640297
H182	H	1.717830	0.047192	-0.140297
H183	H	1.384148	-0.262513	-1.205793
H184	H	1.884148	0.237487	-0.705793
H185	H	0.819702	-0.452822	-0.640355
H186	H	1.319702	0.047178	-0.140355
