data_functionalizedCrystal
_audit_creation_method	'MofGen! by Chris Wilmer'
_symmetry_space_group_name_H-M	'P1'
_symmetry_Int_Tables_number	1
_symmetry_cell_setting	triclinic
loop_
_symmetry_equiv_pos_as_xyz
  x,y,z
_cell_length_a	15.995350
_cell_length_b	14.044220
_cell_length_c	14.472310
_cell_angle_alpha	89.998762
_cell_angle_beta	90.009379
_cell_angle_gamma	91.659374
loop_
_atom_site_label
_atom_site_type_symbol
_atom_site_fract_x
_atom_site_fract_y
_atom_site_fract_z
O1	O	1.120122	-0.122173	0.076765
O2	O	1.620122	0.377827	0.576765
O3	O	0.877473	-0.137261	0.076784
O4	O	1.377473	0.362739	0.576784
O5	O	0.995155	0.008267	0.076765
O6	O	1.495155	0.508267	0.576765
O7	O	1.002439	-0.267702	0.076783
O8	O	1.502439	0.232298	0.576783
O9	O	0.995123	0.008259	-0.076917
O10	O	1.495123	0.508259	0.423083
O11	O	0.877441	-0.137269	-0.076898
O12	O	1.377441	0.362731	0.423102
O13	O	1.120089	-0.122182	-0.076917
O14	O	1.620089	0.377818	0.423083
Cu15	Cu	0.998762	-0.129726	-0.090940
Cu16	Cu	1.498762	0.370274	0.409060
Cu17	Cu	0.998800	-0.129716	0.090807
Cu18	Cu	1.498800	0.370284	0.590807
O19	O	1.002407	-0.267710	-0.076899
O20	O	1.502407	0.232290	0.423101
C21	C	0.846216	-0.136641	-0.000055
C22	C	1.346216	0.363359	0.499945
C23	C	0.753126	-0.134771	-0.000048
C24	C	1.253126	0.365229	0.499952
C25	C	0.991950	0.043578	-0.000076
C26	C	1.491950	0.543578	0.499924
C27	C	0.982439	0.148803	-0.000076
C28	C	1.482439	0.648803	0.499924
N29	N	0.998741	-0.129733	-0.218771
N30	N	1.498741	0.370267	0.281229
C31	C	0.414876	-0.128056	-0.000067
C32	C	0.914876	0.371944	0.499933
C33	C	0.454569	-0.024413	-0.000417
C34	C	0.954569	0.475587	0.499583
C35	C	0.551399	-0.026284	-0.000064
C36	C	1.051399	0.473716	0.499936
C37	C	0.582686	-0.131387	-0.000058
C38	C	1.082686	0.368613	0.499942
C39	C	0.545435	-0.182502	0.087702
C40	C	1.045435	0.317498	0.587702
C41	C	0.448605	-0.179899	0.087768
C42	C	0.948605	0.320101	0.587768
C43	C	0.448389	-0.182050	-0.086997
C44	C	0.948389	0.317950	0.413003
C45	C	0.545333	-0.182025	-0.088150
C46	C	1.045333	0.317975	0.411850
C47	C	0.677524	-0.133275	-0.000050
C48	C	1.177524	0.366725	0.499950
C49	C	0.320038	-0.126171	-0.000069
C50	C	0.820038	0.373829	0.499931
C51	C	1.151347	-0.122801	-0.000077
C52	C	1.651347	0.377199	0.499923
C53	C	1.244437	-0.124671	-0.000078
C54	C	1.744437	0.375329	0.499922
C55	C	1.005612	-0.303020	-0.000056
C56	C	1.505612	0.196980	0.499944
C57	C	1.015123	-0.408246	-0.000049
C58	C	1.515123	0.091754	0.499951
C59	C	0.965051	0.341465	-0.000061
C60	C	1.465051	0.841465	0.499939
C61	C	1.032507	0.399098	-0.000064
C62	C	1.532507	0.899098	0.499936
C63	C	1.022832	0.506301	-0.000056
C64	C	1.522832	1.006301	0.499944
C65	C	0.974725	0.234251	-0.000070
C66	C	1.474725	0.734251	0.499930
C67	C	0.998799	-0.129713	-0.592862
C68	C	1.498799	0.370287	-0.092862
C69	C	0.935579	-0.207321	-0.553686
C70	C	1.435579	0.292679	-0.053686
C71	C	0.935760	-0.207604	-0.446598
C72	C	1.435760	0.292396	0.053402
C73	C	0.998769	-0.129723	-0.407271
C74	C	1.498769	0.370277	0.092729
C75	C	1.087747	-0.151324	-0.446114
C76	C	1.587747	0.348676	0.053886
C77	C	1.087401	-0.151876	-0.553235
C78	C	1.587401	0.348124	-0.053235
C79	C	0.973803	-0.030273	-0.553396
C80	C	1.473803	0.469727	-0.053396
C81	C	0.971848	-0.030936	-0.446269
C82	C	1.471848	0.469064	0.053731
C83	C	0.998758	-0.129726	-0.302383
C84	C	1.498758	0.370274	0.197617
C85	C	0.998816	-0.129711	-0.697750
C86	C	1.498816	0.370289	-0.197750
N87	N	0.998827	-0.129702	0.218638
N88	N	1.498827	0.370298	0.718638
H89	H	0.576814	0.013896	-0.062974
H90	H	1.076814	0.513896	0.437026
Cl91	Cl	0.576172	-0.301710	0.092770
Cl92	Cl	1.076172	0.198290	0.592770
Cl93	Cl	1.132890	0.350977	-0.000082
Cl94	Cl	1.632890	0.850977	0.499918
Cl95	Cl	0.864676	0.389588	-0.000049
Cl96	Cl	1.364676	0.889588	0.499951
Cl97	Cl	0.875169	0.001779	-0.595148
Cl98	Cl	1.375169	0.501779	-0.095148
H99	H	1.108954	-0.223019	-0.419273
H100	H	1.608954	0.276981	0.080727
H101	H	0.869859	-0.194733	-0.420338
H102	H	1.369859	0.305267	0.079662
Cl103	Cl	0.870735	-0.005620	-0.407076
Cl104	Cl	1.370735	0.494380	0.092924
H105	H	1.014336	0.029523	-0.419502
H106	H	1.514336	0.529523	0.080498
Cl107	Cl	0.585165	-0.127680	0.188536
Cl108	Cl	1.085165	0.372320	0.688536
Cl109	Cl	0.833525	-0.187765	-0.593472
Cl110	Cl	1.333525	0.312235	-0.093472
Cl111	Cl	0.961132	-0.320615	-0.595205
Cl112	Cl	1.461132	0.179385	-0.095205
H113	H	0.952491	-0.281396	-0.420961
H114	H	1.452491	0.218604	0.079039
H115	H	0.569848	-0.144711	-0.153074
H116	H	1.069848	0.355289	0.346926
Cl117	Cl	0.412761	-0.129738	-0.189699
Cl118	Cl	0.912761	0.370262	0.310301
H119	H	0.431909	0.016828	0.062167
H120	H	0.931909	0.516828	0.562167
H121	H	0.422041	-0.255991	0.091755
H122	H	0.922041	0.244009	0.591755
Cl123	Cl	1.119665	-0.263843	-0.591795
Cl124	Cl	1.619665	0.236157	-0.091795
Cl125	Cl	0.577883	-0.300364	-0.096326
Cl126	Cl	1.077883	0.199636	0.403674
Cl127	Cl	0.408164	-0.300027	-0.087908
Cl128	Cl	0.908164	0.199973	0.412092
H129	H	1.136306	-0.097579	-0.579148
H130	H	1.636306	0.402421	-0.079148
Cl131	Cl	0.589760	0.035907	0.097393
Cl132	Cl	1.089760	0.535907	0.597393
Cl133	Cl	0.416057	-0.122336	0.189045
Cl134	Cl	0.916057	0.377664	0.689045
H135	H	1.136222	-0.096302	-0.420638
H136	H	1.636222	0.403698	0.079362
H137	H	0.432940	0.017012	-0.063353
H138	H	0.932940	0.517012	0.436647
Cl139	Cl	1.044846	0.058895	-0.592510
Cl140	Cl	1.544846	0.558895	-0.092510
