data_functionalizedCrystal
_audit_creation_method	'MofGen! by Chris Wilmer'
_symmetry_space_group_name_H-M	'P1'
_symmetry_Int_Tables_number	1
_symmetry_cell_setting	triclinic
loop_
_symmetry_equiv_pos_as_xyz
  x,y,z
_cell_length_a	17.019311
_cell_length_b	17.038272
_cell_length_c	9.730223
_cell_angle_alpha	89.998176
_cell_angle_beta	86.120077
_cell_angle_gamma	87.245400
loop_
_atom_site_label
_atom_site_type_symbol
_atom_site_fract_x
_atom_site_fract_y
_atom_site_fract_z
O1	O	1.053355	0.099624	-0.238955
O2	O	0.824543	0.112319	-0.211878
O3	O	0.937589	-0.007842	-0.225245
O4	O	0.940309	0.219786	-0.225588
O5	O	0.937588	-0.007839	0.003335
O6	O	0.824542	0.112322	0.016702
O7	O	1.053354	0.099627	-0.010375
Zn8	Zn	0.938947	0.105975	0.039456
Zn9	Zn	0.938949	0.105971	-0.261708
O10	O	0.940307	0.219789	0.002992
C11	C	0.795121	0.111839	-0.094106
C12	C	0.707454	0.110392	-0.083732
C13	C	0.211626	0.102236	-0.018808
C14	C	0.293998	0.103596	-0.028559
C15	C	0.335186	0.104268	-0.158035
C16	C	0.293996	0.103588	-0.277769
C17	C	0.211625	0.102235	-0.268017
C18	C	0.583893	0.108359	-0.193714
C19	C	0.666270	0.109711	-0.203457
C20	C	0.666267	0.109719	0.045755
C21	C	0.583894	0.108361	0.055495
C22	C	0.542712	0.107686	-0.064238
C23	C	0.419384	0.105654	-0.168005
C24	C	0.458515	0.106305	-0.054267
C25	C	0.935115	-0.036967	-0.110662
C26	C	0.927734	-0.123754	-0.109789
C27	C	0.995494	-0.173924	-0.117806
C28	C	0.988555	-0.255469	-0.116998
C29	C	0.913855	-0.286842	-0.108163
C30	C	0.846090	-0.236665	-0.100149
C31	C	0.853030	-0.155121	-0.100967
C32	C	0.889337	-0.532579	-0.105280
C33	C	0.882402	-0.614129	-0.104459
C34	C	1.024868	-0.632928	-0.121310
C35	C	1.031801	-0.551382	-0.122119
C36	C	0.964036	-0.501212	-0.114113
C37	C	0.906760	-0.370193	-0.107332
C38	C	0.971132	-0.417862	-0.114953
C39	C	1.082775	0.100108	-0.128149
C40	C	1.170442	0.101555	-0.138533
C41	C	0.942782	0.248914	-0.111594
C42	C	0.950162	0.335701	-0.112476
N43	N	0.938952	0.105978	0.244992
N44	N	0.938950	0.105963	-0.467245
C45	C	0.989024	0.052788	0.310997
C46	C	0.989021	0.052778	0.454880
C47	C	0.888873	0.159155	0.466740
C48	C	0.888872	0.159160	0.322860
C49	C	1.039103	-0.000395	0.233129
C50	C	1.089180	-0.053588	0.299134
C51	C	1.089177	-0.053598	0.443017
C52	C	1.039098	-0.000414	0.520895
H53	H	0.550372	0.107807	-0.291209
O54	O	0.834874	0.216530	0.550720
H55	H	0.794332	0.183647	0.621086
H56	H	1.031952	-0.392315	-0.122177
O57	O	0.338422	0.104300	-0.417417
H58	H	0.372510	0.158168	-0.427427
H59	H	0.785268	-0.262214	-0.092964
O60	O	0.167326	0.101785	0.120968
H61	H	0.126467	0.154527	0.131551
O62	O	0.167200	0.101482	-0.397146
H63	H	0.209678	0.102165	-0.488819
O64	O	1.143176	-0.110955	0.215130
H65	H	1.205335	-0.101039	0.235386
O66	O	1.143189	-0.110961	0.514217
H67	H	1.178017	-0.147932	0.435892
H68	H	1.039095	-0.000431	0.638055
H69	H	0.550366	0.107797	0.160929
O70	O	0.826194	-0.404036	-0.097774
H71	H	0.819625	-0.440742	-0.190155
O72	O	0.338419	0.104361	0.100571
H73	H	0.295941	0.103668	0.192242
O74	O	0.834857	0.216512	0.251642
H75	H	0.870598	0.254491	0.181836
H76	H	0.834158	-0.491740	-0.098761
O77	O	1.076068	-0.140096	-0.127344
H78	H	1.082645	-0.103403	-0.034951
H79	H	1.043732	-0.296315	-0.123523
H80	H	0.699807	0.110270	0.143235
O81	O	0.710699	0.110444	-0.343112
H82	H	0.668223	0.109756	-0.424733
H83	H	0.424976	0.105762	0.051152
O84	O	0.463817	0.106357	-0.307648
H85	H	0.497902	0.160227	-0.317657
O86	O	1.112375	-0.517554	-0.131679
H87	H	1.145207	-0.537721	-0.042411
O88	O	1.097955	-0.687037	-0.129954
H89	H	1.080584	-0.749010	-0.127910
H90	H	0.797853	-0.114273	-0.094439
O91	O	1.039101	-0.000395	0.077942
H92	H	1.098862	0.012081	0.032930
O93	O	0.801830	-0.647971	-0.094945
H94	H	0.755874	-0.599386	-0.089530
