data_functionalizedCrystal
_audit_creation_method	'MofGen! by Chris Wilmer'
_symmetry_space_group_name_H-M	'P1'
_symmetry_Int_Tables_number	1
_symmetry_cell_setting	triclinic
loop_
_symmetry_equiv_pos_as_xyz
  x,y,z
_cell_length_a	16.120490
_cell_length_b	16.120484
_cell_length_c	16.625539
_cell_angle_alpha	92.868615
_cell_angle_beta	87.083784
_cell_angle_gamma	90.164100
loop_
_atom_site_label
_atom_site_type_symbol
_atom_site_fract_x
_atom_site_fract_y
_atom_site_fract_z
Zn1	Zn	1.254483	-0.395672	-0.536709
Zn2	Zn	1.754483	0.104328	-0.036709
Zn3	Zn	1.247324	-0.534732	-0.408338
Zn4	Zn	1.747324	-0.034732	0.091662
Zn5	Zn	1.115420	-0.388632	-0.394737
Zn6	Zn	1.615420	0.111368	0.105263
Zn7	Zn	1.108335	-0.527617	-0.535975
Zn8	Zn	1.608335	-0.027617	-0.035975
O9	O	1.181391	-0.461663	-0.468940
O10	O	1.681391	0.038337	0.031060
O11	O	1.369899	-0.420042	-0.525680
O12	O	1.869899	0.079958	-0.025680
O13	O	1.229796	-0.515383	-0.293701
O14	O	1.729796	-0.015383	0.206299
O15	O	1.139828	-0.273203	-0.408185
O16	O	1.639828	0.226797	0.091815
O17	O	1.364640	-0.522209	-0.431366
O18	O	1.864640	-0.022209	0.068634
O19	O	1.241997	-0.278375	-0.512492
O20	O	1.741997	0.221625	-0.012492
O21	O	1.132887	-0.408045	-0.283709
O22	O	1.632887	0.091955	0.216291
O23	O	0.998115	-0.401145	-0.407473
O24	O	1.498115	0.098855	0.092527
O25	O	1.127753	-0.510082	-0.648905
O26	O	1.627753	-0.010082	-0.148905
O27	O	0.992909	-0.503256	-0.511239
O28	O	1.492909	-0.003256	-0.011239
O29	O	1.235127	-0.413143	-0.649444
O30	O	1.735127	0.086857	-0.149444
O31	O	1.222926	-0.650151	-0.430654
O32	O	1.722926	-0.150151	0.069346
O33	O	1.120811	-0.644923	-0.524428
O34	O	1.620811	-0.144923	-0.024428
C35	C	0.965340	-0.450665	-0.457801
C36	C	1.465340	0.049335	0.042199
C37	C	0.872911	-0.445980	-0.453056
C38	C	1.372911	0.054020	0.046944
C39	C	0.659942	-0.485958	-0.493555
C40	C	1.159942	0.014042	0.006445
C41	C	0.703687	-0.437435	-0.444391
C42	C	1.203687	0.062565	0.055609
C43	C	0.797852	-0.442191	-0.449214
C44	C	1.297852	0.057809	0.050786
C45	C	0.565768	-0.481203	-0.488734
C46	C	1.065768	0.018797	0.011266
C47	C	1.170345	-0.677710	-0.478956
C48	C	1.670345	-0.177710	0.021044
C49	C	1.165696	-0.770140	-0.483272
C50	C	1.665696	-0.270140	0.016728
C51	C	1.157213	-0.939370	-0.491168
C52	C	1.657213	-0.439370	0.008832
C53	C	1.205717	-0.983124	-0.446732
C54	C	1.705717	-0.483124	0.053268
C55	C	1.200997	-1.077289	-0.451126
C56	C	1.700997	-0.577289	0.048874
C57	C	1.161932	-0.845196	-0.486776
C58	C	1.661932	-0.345196	0.013224
C59	C	1.398285	-0.472705	-0.480123
C60	C	1.898285	0.027295	0.019877
C61	C	1.490713	-0.477410	-0.484888
C62	C	1.990713	0.022590	0.015112
C63	C	1.181448	-0.461604	-0.679249
C64	C	1.681448	0.038396	-0.179249
C65	C	1.181472	-0.461579	-0.768870
C66	C	1.681472	0.038421	-0.268870
C67	C	1.192502	-0.244774	-0.458903
C68	C	1.692502	0.255226	0.041097
C69	C	1.197237	-0.152349	-0.454626
C70	C	1.697237	0.347651	0.045374
C71	C	1.181515	-0.461488	-1.097043
C72	C	1.681515	0.038512	-0.597043
C73	C	1.181501	-0.461516	-1.005735
C74	C	1.681501	0.038484	-0.505735
C75	C	1.181494	-0.461534	-0.932959
C76	C	1.681494	0.038466	-0.432959
C77	C	1.181479	-0.461560	-0.841646
C78	C	1.681479	0.038440	-0.341646
C79	C	1.181385	-0.461665	-0.259449
C80	C	1.681385	0.038335	0.240551
C81	C	1.181533	-0.461464	-0.169825
C82	C	1.681533	0.038536	0.330175
H83	H	0.670419	-0.392320	-0.398680
H84	H	1.170419	0.107680	0.101320
H85	H	1.250788	-0.949861	-0.405388
H86	H	1.750788	-0.449861	0.094612
H87	H	1.112145	-0.972630	-0.532508
H88	H	1.612145	-0.472630	-0.032508
H89	H	0.693208	-0.531070	-0.539262
H90	H	1.193208	-0.031070	-0.039262
