data_functionalizedCrystal
_audit_creation_method	'MofGen! by Chris Wilmer'
_symmetry_space_group_name_H-M	'P1'
_symmetry_Int_Tables_number	1
_symmetry_cell_setting	triclinic
loop_
_symmetry_equiv_pos_as_xyz
  x,y,z
_cell_length_a	16.956995
_cell_length_b	14.044190
_cell_length_c	15.455313
_cell_angle_alpha	92.904485
_cell_angle_beta	87.515363
_cell_angle_gamma	84.623124
loop_
_atom_site_label
_atom_site_type_symbol
_atom_site_fract_x
_atom_site_fract_y
_atom_site_fract_z
O1	O	1.064002	0.034668	-0.072194
O2	O	0.834199	0.067761	-0.072185
O3	O	0.945647	-0.086499	-0.072172
O4	O	0.952553	0.188928	-0.072207
O5	O	0.939272	-0.077712	0.072089
O6	O	0.827823	0.076548	0.072076
O7	O	1.057626	0.043455	0.072068
Cu8	Cu	0.942143	0.060804	0.085244
Cu9	Cu	0.949682	0.050412	-0.085362
O10	O	0.946178	0.197715	0.072055
C11	C	0.801423	0.073849	-0.000053
C12	C	0.713261	0.078886	-0.000049
C13	C	0.216644	0.116569	-0.000086
C14	C	0.299482	0.111829	-0.000085
C15	C	0.344238	0.022848	-0.000067
C16	C	0.306153	-0.061399	-0.000060
C17	C	0.223317	-0.056658	-0.000067
C18	C	0.592340	-0.000619	-0.000049
C19	C	0.675181	-0.005353	-0.000039
C20	C	0.668505	0.167874	-0.000066
C21	C	0.585667	0.172608	-0.000068
C22	C	0.547589	0.088361	-0.000065
N23	N	0.428912	0.018000	-0.000063
N24	N	0.462917	0.093209	-0.000075
C25	C	0.939439	-0.117183	-0.000039
C26	C	0.930429	-0.221703	-0.000031
C27	C	0.977858	-0.475707	-0.000067
C28	C	0.913971	-0.413072	-0.000058
C29	C	0.923130	-0.306585	-0.000043
C30	C	0.968700	-0.582205	-0.000082
C31	C	1.090402	0.037367	-0.000066
C32	C	1.178564	0.032329	-0.000076
C33	C	0.952386	0.228399	-0.000080
C34	C	0.961397	0.332918	-0.000094
N35	N	0.936845	0.068112	0.205239
N36	N	0.954986	0.043096	-0.205356
C37	C	0.984212	0.002598	0.250639
C38	C	0.980214	0.008133	0.341446
C39	C	0.928852	0.079187	0.386852
C40	C	0.881480	0.144703	0.341446
C41	C	0.885475	0.139164	0.250641
C42	C	0.911608	0.103073	0.658432
C43	C	0.907619	0.108610	0.749244
C44	C	1.006352	-0.027962	0.749237
C45	C	1.010345	-0.033492	0.658430
C46	C	0.962970	0.032021	0.613032
N47	N	0.924766	0.084848	0.479672
N48	N	0.967053	0.026355	0.520214
H49	H	0.330483	0.180425	-0.000101
C50	C	0.536441	0.270486	-0.000089
H51	H	0.570985	0.319979	-0.000101
H52	H	0.501759	0.279002	0.050215
H53	H	0.506217	0.272868	-0.050406
H54	H	0.865792	0.166474	0.786209
H55	H	0.699517	0.236463	-0.000069
H56	H	1.039427	-0.449357	-0.000060
H57	H	0.711621	-0.077817	-0.000029
C58	C	0.830789	-0.448663	-0.000056
H59	H	0.835463	-0.516605	-0.000058
H60	H	0.805014	-0.428727	-0.050356
H61	H	0.800578	-0.422629	0.050264
C62	C	1.040709	-0.075563	0.200700
H63	H	1.068340	-0.113792	0.240747
H64	H	1.077690	-0.046382	0.165257
H65	H	1.010944	-0.114750	0.165297
C66	C	0.550464	-0.093285	-0.000031
H67	H	0.588985	-0.146954	-0.000007
H68	H	0.520516	-0.098114	-0.050338
H69	H	0.516061	-0.091965	0.050282
C70	C	1.066838	-0.111656	0.608489
H71	H	1.094471	-0.149888	0.648534
H72	H	1.103817	-0.082474	0.573046
H73	H	1.037072	-0.150843	0.573087
C74	C	0.833375	0.211228	0.200697
H75	H	0.843104	0.197747	0.140114
H76	H	0.845803	0.274380	0.215559
H77	H	0.779066	0.206001	0.215598
C78	C	0.355382	-0.159275	-0.000038
H79	H	0.410170	-0.150035	-0.000025
H80	H	0.345409	-0.197157	-0.050339
H81	H	0.340945	-0.191013	0.050282
H82	H	0.192314	-0.125255	-0.000060
C83	C	1.032326	-0.063924	0.391382
H84	H	1.063495	-0.107024	0.351335
H85	H	0.999459	-0.098794	0.426825
H86	H	1.066188	-0.030404	0.426785
C87	C	1.058451	-0.100029	0.799177
H88	H	1.048713	-0.086561	0.859761
H89	H	1.112758	-0.094815	0.784278
H90	H	1.046011	-0.163179	0.784310
H91	H	0.873035	0.156419	0.621476
H92	H	0.839656	0.202554	0.378421
H93	H	0.180208	0.189027	-0.000094
