data_functionalizedCrystal
_audit_creation_method	'MofGen! by Chris Wilmer'
_symmetry_space_group_name_H-M	'P1'
_symmetry_Int_Tables_number	1
_symmetry_cell_setting	triclinic
loop_
_symmetry_equiv_pos_as_xyz
  x,y,z
_cell_length_a	25.639242
_cell_length_b	25.639240
_cell_length_c	21.295411
_cell_angle_alpha	90.026709
_cell_angle_beta	90.025490
_cell_angle_gamma	90.025061
loop_
_atom_site_label
_atom_site_type_symbol
_atom_site_fract_x
_atom_site_fract_y
_atom_site_fract_z
Zn1	Zn	0.799304	-0.208318	0.355905
Zn2	Zn	0.799220	-0.295738	0.250621
Zn3	Zn	0.711863	-0.208306	0.250648
Zn4	Zn	0.711834	-0.295712	0.355851
O5	O	0.755555	-0.252018	0.303256
O6	O	0.872458	-0.219930	0.341950
O7	O	0.787608	-0.284146	0.162535
O8	O	0.723510	-0.135143	0.264645
O9	O	0.872396	-0.284157	0.264598
O10	O	0.787752	-0.135151	0.341976
O11	O	0.723428	-0.219910	0.162555
O12	O	0.638694	-0.219886	0.264592
O13	O	0.723461	-0.284113	0.443947
O14	O	0.638673	-0.284102	0.341884
O15	O	0.787724	-0.219905	0.443987
O16	O	0.787580	-0.368900	0.264546
O17	O	0.723379	-0.368881	0.341858
C18	C	0.619713	-0.251990	0.303236
C19	C	0.561599	-0.251991	0.303242
C20	C	0.310446	-0.218635	0.343607
C21	C	0.365050	-0.218630	0.343603
O22	O	0.393321	-0.190247	0.377918
N23	N	0.392325	-0.252012	0.303263
C24	C	0.364993	-0.285406	0.262929
O25	O	0.393206	-0.313801	0.228617
C26	C	0.310389	-0.285414	0.262936
C27	C	0.283117	-0.252025	0.303274
C28	C	0.283174	-0.185249	0.383942
C29	C	0.228573	-0.185254	0.383944
C30	C	0.201245	-0.218644	0.343612
C31	C	0.228517	-0.252030	0.303277
C32	C	0.283058	-0.318810	0.222606
C33	C	0.228451	-0.318815	0.222617
C34	C	0.201179	-0.285426	0.262955
C35	C	0.146588	-0.285424	0.262947
N36	N	0.119313	-0.252042	0.303287
C37	C	0.146641	-0.218651	0.343619
C38	C	0.479663	-0.285389	0.262918
C39	C	0.534266	-0.285379	0.262907
C40	C	0.534319	-0.218603	0.343582
C41	C	0.479716	-0.218611	0.343589
C42	C	0.452388	-0.252006	0.303258
C43	C	0.031976	-0.218663	0.343621
C44	C	-0.022629	-0.218669	0.343618
C45	C	-0.022678	-0.285447	0.262946
C46	C	0.031923	-0.285439	0.262946
C47	C	0.059248	-0.252046	0.303289
O48	O	0.118282	-0.313795	0.228651
O49	O	0.118421	-0.190267	0.377931
C50	C	0.755481	-0.387861	0.303207
C51	C	0.755498	-0.445975	0.303207
C52	C	0.789023	-0.806304	0.343595
C53	C	0.789038	-0.860908	0.343608
O54	O	0.817455	-0.889116	0.377897
N55	N	0.755628	-0.888258	0.303317
C56	C	0.722196	-0.861000	0.263015
O57	O	0.693779	-0.889276	0.228746
C58	C	0.722178	-0.806396	0.263006
C59	C	0.755595	-0.779050	0.303295
C60	C	0.822436	-0.778958	0.383882
C61	C	0.822421	-0.724357	0.383868
C62	C	0.788993	-0.697103	0.343568
C63	C	0.755580	-0.724449	0.303281
C64	C	0.688744	-0.779139	0.222707
C65	C	0.688729	-0.724532	0.222702
C66	C	0.722146	-0.697186	0.262991
C67	C	0.722137	-0.642595	0.262967
N68	N	0.755547	-0.615246	0.303258
C69	C	0.788976	-0.642500	0.343559
C70	C	0.722235	-0.975670	0.263038
C71	C	0.722255	-1.030273	0.263044
C72	C	0.789097	-1.030177	0.343638
C73	C	0.789079	-0.975574	0.343629
C74	C	0.755646	-0.948321	0.303329
C75	C	0.788942	-0.527835	0.343526
C76	C	0.788926	-0.473229	0.343507
C77	C	0.722082	-0.473329	0.262916
C78	C	0.722100	-0.527930	0.262932
C79	C	0.755532	-0.555181	0.303243
O80	O	0.693733	-0.614352	0.228697
O81	O	0.817383	-0.614216	0.377828
C82	C	0.891928	-0.252047	0.303277
C83	C	0.950042	-0.252059	0.303286
C84	C	0.755599	-0.252007	0.467447
C85	C	0.755617	-0.252003	0.537415
C86	C	0.755644	-0.115645	0.303319
C87	C	0.755681	-0.057531	0.303346
C88	C	0.755542	-0.251992	0.139705
C89	C	0.755625	-0.251849	0.069737
C90	C	0.789078	-0.218568	0.570303
C91	C	0.789077	-0.218545	0.636045
C92	C	0.755621	-0.251967	0.668897
C93	C	0.722154	-0.285404	0.636001
C94	C	0.722152	-0.285422	0.570260
N95	N	0.751586	-0.297704	0.772108
N96	N	0.751591	-0.297686	0.834559
C97	C	0.755625	-0.251914	0.866972
N98	N	0.759664	-0.206160	0.834574
N99	N	0.759661	-0.206179	0.772117
C100	C	0.755620	-0.251951	0.740183
C101	C	0.789086	-0.218452	0.971146
C102	C	0.789082	-0.218428	1.036890
C103	C	0.722162	-0.285291	1.036844
C104	C	0.722163	-0.285310	0.971101
C105	C	0.755628	-0.251891	0.938256
H106	H	0.457417	-0.312582	0.230070
C107	C	0.855228	-0.152354	0.977792
C108	C	0.825863	-0.181712	0.935037
H109	H	0.877930	-0.129670	0.955500
H110	H	0.875214	-0.175129	1.003439
H111	H	0.832454	-0.132345	1.003425
H112	H	0.848637	-0.201725	0.909407
H113	H	0.805877	-0.158934	0.909379
C114	C	0.144725	-0.348484	0.186800
C115	C	0.198413	-0.355524	0.178282
H116	H	0.126183	-0.371149	0.159431
H117	H	0.135787	-0.313349	0.177665
H118	H	0.135796	-0.356187	0.229080
H119	H	0.207343	-0.347817	0.136003
H120	H	0.207355	-0.390667	0.187412
H121	H	0.305254	-0.345998	0.189758
C122	C	0.026382	-0.351450	0.183209
C123	C	0.061903	-0.322141	0.218608
H124	H	0.044889	-0.374114	0.155844
H125	H	0.005089	-0.328642	0.159180
H126	H	0.005083	-0.371477	0.210598
H127	H	0.083200	-0.302110	0.191220
H128	H	0.083205	-0.344952	0.242639
C129	C	0.818789	-0.188702	1.137684
C130	C	0.825858	-0.181667	1.073044
H131	H	0.841490	-0.166003	1.160004
H132	H	0.826421	-0.223824	1.148458
H133	H	0.783662	-0.181040	1.148430
H134	H	0.860985	-0.189333	1.062298
H135	H	0.818230	-0.146537	1.062266
H136	H	0.694894	-0.550196	0.230120
H137	H	0.694867	-0.451130	0.230101
H138	H	0.054218	-0.191471	0.376472
H139	H	0.206373	-0.158068	0.416794
H140	H	0.816162	-0.550016	0.376355
H141	H	0.457515	-0.191422	0.376435
H142	H	0.816327	-0.191355	0.543565
H143	H	0.816315	-1.052378	0.376454
H144	H	-0.044939	-0.312630	0.230106
H145	H	0.661533	-0.801395	0.189899
H146	H	0.694902	-0.312648	0.543482
H147	H	0.694916	-0.312498	1.063591
H148	H	0.849630	-0.702095	0.416677
H149	H	0.694919	-0.312540	0.944323
H150	H	0.694913	-0.312614	0.662753
H151	H	0.816139	-0.450965	0.376315
C152	C	0.622654	-0.730115	0.143045
C153	C	0.651977	-0.694577	0.178402
H154	H	0.599969	-0.711622	0.115694
H155	H	0.602654	-0.751411	0.170457
H156	H	0.645456	-0.751410	0.118997
H157	H	0.629176	-0.673285	0.202453
H158	H	0.671979	-0.673272	0.150986
C159	C	0.888508	-0.773365	0.463533
C160	C	0.859188	-0.808909	0.428182
H161	H	0.911203	-0.791854	0.490878
H162	H	0.865709	-0.752076	0.487582
H163	H	0.908504	-0.752063	0.436113
H164	H	0.839189	-0.830208	0.455602
H165	H	0.881990	-0.830206	0.404131
C166	C	0.855235	-0.152466	0.629494
C167	C	0.825863	-0.181795	0.672206
H168	H	0.877947	-0.129781	0.651818
H169	H	0.832471	-0.132465	0.603848
H170	H	0.875215	-0.175264	0.603855
H171	H	0.805880	-0.158997	0.697842
H172	H	0.848630	-0.201797	0.697863
C173	C	0.618051	-0.188956	0.379399
C174	C	0.564366	-0.181904	0.387924
H175	H	0.636601	-0.166303	0.406775
H176	H	0.626980	-0.181247	0.337126
H177	H	0.626982	-0.224100	0.388524
H178	H	0.555434	-0.146762	0.378794
H179	H	0.555434	-0.189610	0.430206
H180	H	0.816289	-0.953312	0.376436
H181	H	-0.044832	-0.191478	0.376466
H182	H	0.695050	-1.052533	0.230229
H183	H	0.305419	-0.158059	0.416788
C184	C	0.656172	-0.981258	0.183368
C185	C	0.685488	-0.945716	0.218728
H186	H	0.633489	-0.962766	0.156012
H187	H	0.636169	-1.002553	0.210777
H188	H	0.678977	-1.002551	0.159325
H189	H	0.662683	-0.924425	0.242775
H190	H	0.705492	-0.924411	0.191316
C191	C	0.528714	-0.351385	0.183167
C192	C	0.564239	-0.322078	0.218563
H193	H	0.547218	-0.374045	0.155795
H194	H	0.507417	-0.328575	0.159145
H195	H	0.507420	-0.371416	0.210557
H196	H	0.585531	-0.302044	0.191173
H197	H	0.585545	-0.344890	0.242586
