data_functionalizedCrystal
_audit_creation_method	'MofGen! by Chris Wilmer'
_symmetry_space_group_name_H-M	'P1'
_symmetry_Int_Tables_number	1
_symmetry_cell_setting	triclinic
loop_
_symmetry_equiv_pos_as_xyz
  x,y,z
_cell_length_a	13.262522
_cell_length_b	13.262508
_cell_length_c	16.053802
_cell_angle_alpha	108.475487
_cell_angle_beta	71.511321
_cell_angle_gamma	88.759796
loop_
_atom_site_label
_atom_site_type_symbol
_atom_site_fract_x
_atom_site_fract_y
_atom_site_fract_z
O1	O	1.416420	0.118282	-0.364182
O2	O	1.106138	0.138411	-0.289159
O3	O	1.271350	-0.026785	-0.364182
O4	O	1.251208	0.283478	-0.289160
O5	O	1.262256	-0.017729	-0.221202
O6	O	1.097044	0.147467	-0.146179
O7	O	1.407327	0.127338	-0.221202
Zn8	Zn	1.250742	0.138840	-0.160990
Zn9	Zn	1.262723	0.126909	-0.349372
O10	O	1.242115	0.292534	-0.146180
C11	C	1.061915	0.142644	-0.208728
C12	C	0.943694	0.141754	-0.182087
C13	C	1.266510	-0.061931	-0.301635
C14	C	1.265625	-0.180145	-0.328281
C15	C	0.883204	0.146274	-0.091628
C16	C	0.772130	0.145428	-0.066593
C17	C	0.721535	0.140070	-0.132013
C18	C	0.782024	0.135557	-0.222472
C19	C	0.893110	0.136395	-0.247511
C20	C	0.731441	0.130191	-0.287897
C21	C	0.791930	0.125678	-0.378356
C22	C	0.903005	0.126517	-0.403391
C23	C	0.953600	0.131875	-0.337971
C24	C	0.620355	0.129353	-0.262857
C25	C	0.630261	0.119474	-0.418741
C26	C	0.741335	0.120320	-0.443776
C27	C	1.243295	-0.493639	-0.091628
C28	C	1.244119	-0.382570	-0.066590
C29	C	1.249496	-0.331958	-0.132010
C30	C	1.254048	-0.392427	-0.222474
C31	C	1.253216	-0.503506	-0.247513
C32	C	1.259416	-0.341825	-0.287895
C33	C	1.263969	-0.402294	-0.378358
C34	C	1.263138	-0.513362	-0.403393
C35	C	1.257761	-0.563974	-0.337972
C36	C	1.260249	-0.230746	-0.262856
C37	C	1.270169	-0.240613	-0.418741
C38	C	1.269346	-0.351682	-0.443779
C39	C	1.451549	0.123104	-0.301636
C40	C	1.569771	0.123994	-0.328282
C41	C	1.246954	0.327679	-0.208728
C42	C	1.247840	0.445893	-0.182088
N43	N	1.242573	0.146982	-0.032426
N44	N	1.270900	0.118758	-0.477939
C45	C	1.312896	0.076715	-0.020654
C46	C	1.307192	0.082421	0.069343
C47	C	1.231168	0.158399	0.147568
C48	C	1.160838	0.228669	0.135793
C49	C	1.166538	0.222957	0.045796
C50	C	1.206270	0.183316	0.420289
C51	C	1.200577	0.189025	0.510289
C52	C	1.346930	0.042775	0.443833
C53	C	1.352627	0.037075	0.353839
C54	C	1.282293	0.107341	0.342071
N55	N	1.225338	0.164235	0.239561
N56	N	1.288119	0.101499	0.250079
H57	H	0.571114	0.133036	-0.189203
C58	C	1.424280	-0.034520	0.456783
H59	H	1.409994	-0.020246	0.521583
H60	H	1.496180	-0.024582	0.428376
H61	H	1.414369	-0.106429	0.428387
C62	C	1.396521	-0.006862	-0.106694
H63	H	1.437578	-0.047900	-0.086790
H64	H	1.442687	0.028790	-0.143191
H65	H	1.360880	-0.053060	-0.143174
C66	C	1.384557	0.005137	0.082289
H67	H	1.430661	-0.040918	0.022812
H68	H	1.344489	-0.036609	0.116018
H69	H	1.426272	0.045266	0.116011
H70	H	1.273052	-0.400932	-0.517436
H71	H	0.722889	0.149088	0.007055
H72	H	1.138666	0.250899	0.573981
C73	C	0.938859	0.152166	-0.019678
H74	H	1.013676	0.152023	-0.047547
H75	H	0.927383	0.091906	0.000351
H76	H	0.909864	0.216220	0.032550
C77	C	1.089187	0.300250	0.032842
H78	H	1.103463	0.285961	-0.031959
H79	H	1.099082	0.372159	0.061237
H80	H	1.017287	0.290297	0.061247
C81	C	1.128914	0.260615	0.407354
H82	H	1.082832	0.306689	0.466832
H83	H	1.087192	0.220507	0.373635
H84	H	1.169000	0.302358	0.373624
H85	H	1.266835	-0.562592	-0.477052
H86	H	0.631093	0.139383	-0.111624
C87	C	1.075784	0.132793	-0.365515
H88	H	1.104566	0.129337	-0.428758
H89	H	1.107842	0.072655	-0.358489
H90	H	1.090323	0.196969	-0.326295
C91	C	1.436247	-0.046507	0.267798
H92	H	1.477307	-0.087546	0.287698
H93	H	1.482411	-0.010852	0.231301
H94	H	1.400604	-0.092704	0.231318
C95	C	0.969541	0.121547	-0.502894
H96	H	0.923502	0.118245	-0.538269
H97	H	1.021842	0.059516	-0.532003
H98	H	1.004314	0.183831	-0.499795
C99	C	0.807876	0.115353	-0.543277
H100	H	0.761840	0.112050	-0.578656
H101	H	0.860178	0.053324	-0.572385
H102	H	0.842646	0.177639	-0.540175
C103	C	0.574617	0.113586	-0.490706
H104	H	0.499798	0.113745	-0.462836
H105	H	0.603613	0.049541	-0.542935
H106	H	0.586094	0.173856	-0.510729
H107	H	1.238910	-0.534857	-0.038370
H108	H	1.256532	-0.181521	-0.189198
H109	H	1.240423	-0.333345	0.007063
H110	H	1.250164	-0.241520	-0.111618
C111	C	1.256816	-0.686146	-0.365507
H112	H	1.260287	-0.714912	-0.428749
H113	H	1.192631	-0.700671	-0.326274
H114	H	1.316954	-0.718230	-0.358494
C115	C	1.276093	-0.184953	-0.490710
H116	H	1.275949	-0.110144	-0.462846
H117	H	1.215839	-0.196421	-0.510741
H118	H	1.340161	-0.213943	-0.542937
C119	C	1.077216	0.312244	0.221836
H120	H	1.083899	0.305591	0.277122
H121	H	1.007185	0.300431	0.220747
H122	H	1.088992	0.382282	0.220729
