data_functionalizedCrystal
_audit_creation_method	'MofGen! by Chris Wilmer'
_symmetry_space_group_name_H-M	'P1'
_symmetry_Int_Tables_number	1
_symmetry_cell_setting	triclinic
loop_
_symmetry_equiv_pos_as_xyz
  x,y,z
_cell_length_a	12.759394
_cell_length_b	12.759395
_cell_length_c	12.759387
_cell_angle_alpha	90.022274
_cell_angle_beta	89.970303
_cell_angle_gamma	89.984795
loop_
_atom_site_label
_atom_site_type_symbol
_atom_site_fract_x
_atom_site_fract_y
_atom_site_fract_z
Zn1	Zn	-0.418195	-1.606269	-0.594063
Zn2	Zn	0.081805	-1.106269	-0.094063
Zn3	Zn	-0.593912	-1.606160	-0.418386
Zn4	Zn	-0.093912	-1.106160	0.081614
Zn5	Zn	-0.418250	-1.430567	-0.418394
Zn6	Zn	0.081750	-0.930567	0.081606
Zn7	Zn	-0.593835	-1.430560	-0.594020
Zn8	Zn	-0.093835	-0.930560	-0.094020
O9	O	-0.506048	-1.518389	-0.506216
O10	O	-0.006048	-1.018389	-0.006216
O11	O	-0.441514	-1.753276	-0.570773
O12	O	0.058486	-1.253276	-0.070773
O13	O	-0.570665	-1.582825	-0.271366
O14	O	-0.070665	-1.082825	0.228634
O15	O	-0.271221	-1.453923	-0.441718
O16	O	0.228779	-0.953923	0.058282
O17	O	-0.570613	-1.753196	-0.441705
O18	O	-0.070613	-1.253196	0.058295
O19	O	-0.271181	-1.583011	-0.570781
O20	O	0.228819	-1.083011	-0.070781
O21	O	-0.441607	-1.453817	-0.271372
O22	O	0.058393	-0.953817	0.228628
O23	O	-0.441531	-1.283545	-0.441677
O24	O	0.058469	-0.783545	0.058323
O25	O	-0.570480	-1.453911	-0.741047
O26	O	-0.070480	-0.953911	-0.241047
O27	O	-0.570533	-1.283540	-0.570708
O28	O	-0.070533	-0.783540	-0.070708
O29	O	-0.441439	-1.583003	-0.741078
O30	O	0.058561	-1.083003	-0.241078
O31	O	-0.740923	-1.582817	-0.441664
O32	O	-0.240923	-1.082817	0.058336
O33	O	-0.740866	-1.453805	-0.570701
O34	O	-0.240866	-0.953805	-0.070701
C35	C	-0.506030	-1.245422	-0.506189
C36	C	-0.006030	-0.745422	-0.006189
C37	C	-0.506048	-1.128645	-0.506203
C38	C	-0.006048	-0.628645	-0.006203
C39	C	-0.640595	-1.128678	-0.640346
C40	C	-0.140595	-0.628678	-0.140346
C41	C	-0.707876	-1.073833	-0.707419
C42	C	-0.207876	-0.573833	-0.207419
C43	C	-0.707886	-0.964112	-0.707429
C44	C	-0.207886	-0.464112	-0.207429
C45	C	-0.640607	-0.909232	-0.640360
C46	C	-0.140607	-0.409232	-0.140360
C47	C	-0.573327	-0.964076	-0.573287
C48	C	-0.073327	-0.464076	-0.073287
C49	C	-0.573325	-1.073800	-0.573283
C50	C	-0.073325	-0.573800	-0.073283
C51	C	-0.438776	-0.964043	-0.439151
C52	C	0.061224	-0.464043	0.060849
C53	C	-0.438769	-1.073765	-0.439134
C54	C	0.061231	-0.573765	0.060866
C55	C	-0.371497	-0.909164	-0.372082
C56	C	0.128503	-0.409164	0.127918
C57	C	-0.304220	-0.964008	-0.305002
C58	C	0.195780	-0.464008	0.194998
C59	C	-0.304213	-1.073736	-0.304995
C60	C	0.195787	-0.573736	0.195005
C61	C	-0.371489	-1.128609	-0.372061
C62	C	0.128511	-0.628609	0.127939
C63	C	-0.779015	-1.518327	-0.506200
C64	C	-0.279015	-1.018327	-0.006200
C65	C	-0.895792	-1.518396	-0.506228
C66	C	-0.395792	-1.018396	-0.006228
C67	C	-1.115222	-1.652960	-0.372006
C68	C	-0.615222	-1.152960	0.127994
C69	C	-1.060353	-1.720156	-0.304866
C70	C	-0.560353	-1.220156	0.195134
C71	C	-0.950631	-1.720101	-0.304845
C72	C	-0.450631	-1.220101	0.195155
C73	C	-0.895776	-1.652842	-0.371969
C74	C	-0.395776	-1.152842	0.128031
C75	C	-0.950645	-1.585646	-0.439109
C76	C	-0.450645	-1.085646	0.060891
C77	C	-1.060369	-1.585710	-0.439125
C78	C	-0.560369	-1.085710	0.060875
C79	C	-0.950661	-1.451201	-0.573368
C80	C	-0.450661	-0.951201	-0.073368
C81	C	-1.060383	-1.451259	-0.573396
C82	C	-0.560383	-0.951259	-0.073396
C83	C	-0.895806	-1.383942	-0.640492
C84	C	-0.395806	-0.883942	-0.140492
C85	C	-0.950675	-1.316750	-0.707639
C86	C	-0.450675	-0.816750	-0.207639
C87	C	-1.060403	-1.316808	-0.707658
C88	C	-0.560403	-0.816808	-0.207658
C89	C	-1.115251	-1.384064	-0.640536
C90	C	-0.615251	-0.884064	-0.140536
C91	C	-0.232014	-1.518480	-0.506255
C92	C	0.267986	-1.018480	-0.006255
C93	C	-0.115238	-1.518519	-0.506272
C94	C	0.384762	-1.018519	-0.006272
C95	C	-0.505945	-1.518468	-0.780249
C96	C	-0.005945	-1.018468	-0.280249
C97	C	-0.505901	-1.518502	-0.897026
C98	C	-0.005901	-1.018502	-0.397026
C99	C	-0.506062	-0.792422	-0.506235
C100	C	-0.006062	-0.292422	-0.006235
C101	C	-0.506057	-0.909199	-0.506224
C102	C	-0.006057	-0.409199	-0.006224
C103	C	-0.371539	-1.652936	-0.897078
C104	C	0.128461	-1.152936	-0.397078
C105	C	-0.304342	-1.720167	-0.951965
C106	C	0.195658	-1.220167	-0.451965
C107	C	-0.304304	-1.720193	-1.061687
C108	C	0.195696	-1.220193	-0.561687
C109	C	-0.371467	-1.652977	-1.116524
C110	C	0.128533	-1.152977	-0.616524
C111	C	-0.438664	-1.585746	-1.061637
C112	C	0.061336	-1.085746	-0.561637
C113	C	-0.438697	-1.585730	-0.951913
C114	C	0.061303	-1.085730	-0.451913
C115	C	-0.573019	-1.451309	-1.061585
C116	C	-0.073019	-0.951309	-0.561585
C117	C	-0.573065	-1.451287	-0.951863
C118	C	-0.073065	-0.951287	-0.451863
C119	C	-0.640183	-1.384093	-1.116422
C120	C	-0.140183	-0.884093	-0.616422
C121	C	-0.707386	-1.316866	-1.061535
C122	C	-0.207386	-0.816866	-0.561535
C123	C	-0.707423	-1.316844	-0.951807
C124	C	-0.207423	-0.816844	-0.451807
C125	C	-0.640261	-1.384056	-0.896976
C126	C	-0.140261	-0.884056	-0.396976
C127	C	-0.506075	-1.518370	-0.233248
C128	C	-0.006075	-1.018370	0.266752
C129	C	-0.505823	-1.518540	-0.116472
C130	C	-0.005823	-1.018540	0.383528
H131	H	-0.371492	-1.217951	-0.372059
H132	H	0.128508	-0.717951	0.127941
H133	H	-0.249417	-1.118384	-0.250383
H134	H	0.250583	-0.618384	0.249617
H135	H	-0.640613	-0.819891	-0.640383
H136	H	-0.140613	-0.319891	-0.140383
H137	H	-0.371506	-0.819823	-0.372099
H138	H	0.128494	-0.319823	0.127901
H139	H	-0.640289	-1.384049	-0.807635
H140	H	-0.140289	-0.884049	-0.307635
H141	H	-1.204592	-1.384122	-0.640549
H142	H	-0.704592	-0.884122	-0.140549
H143	H	-0.249442	-0.919316	-0.250406
H144	H	0.250558	-0.419316	0.249594
H145	H	-1.204563	-1.653021	-0.372026
H146	H	-0.704563	-1.153021	0.127974
H147	H	-0.762060	-1.262139	-1.106193
H148	H	-0.262060	-0.762139	-0.606193
H149	H	-0.806435	-1.652794	-0.371937
H150	H	-0.306435	-1.152794	0.128063
H151	H	-0.762651	-1.118529	-0.762027
H152	H	-0.262651	-0.618529	-0.262027
H153	H	-0.906005	-1.261987	-0.762282
H154	H	-0.406005	-0.761987	-0.262282
H155	H	-0.806465	-1.383898	-0.640466
H156	H	-0.306465	-0.883898	-0.140466
H157	H	-1.105028	-1.774915	-0.250212
H158	H	-0.605028	-1.274915	0.249788
H159	H	-1.105070	-1.262090	-0.762333
H160	H	-0.605070	-0.762090	-0.262333
H161	H	-0.249657	-1.774891	-0.907305
H162	H	0.250343	-1.274891	-0.407305
H163	H	-0.905957	-1.774813	-0.250170
H164	H	-0.405957	-1.274813	0.249830
H165	H	-0.762131	-1.262084	-0.907125
H166	H	-0.262131	-0.762084	-0.407125
H167	H	-0.371573	-1.652932	-0.807737
H168	H	0.128427	-1.152932	-0.307737
H169	H	-0.640143	-1.384115	-1.205764
H170	H	-0.140143	-0.884115	-0.705764
H171	H	-0.640601	-1.218019	-0.640338
H172	H	-0.140601	-0.718019	-0.140338
H173	H	-0.249580	-1.774932	-1.106376
H174	H	0.250420	-1.274932	-0.606376
H175	H	-0.371421	-1.652995	-1.205866
H176	H	0.128579	-1.152995	-0.705866
H177	H	-0.762667	-0.919458	-0.762051
H178	H	-0.262667	-0.419458	-0.262051
