data_functionalizedCrystal
_audit_creation_method	'MofGen! by Chris Wilmer'
_symmetry_space_group_name_H-M	'P1'
_symmetry_Int_Tables_number	1
_symmetry_cell_setting	triclinic
loop_
_symmetry_equiv_pos_as_xyz
  x,y,z
_cell_length_a	10.654547
_cell_length_b	19.288865
_cell_length_c	17.766277
_cell_angle_alpha	89.988397
_cell_angle_beta	90.010064
_cell_angle_gamma	96.188849
loop_
_atom_site_label
_atom_site_type_symbol
_atom_site_fract_x
_atom_site_fract_y
_atom_site_fract_z
O1	O	1.665760	-0.097565	0.062617
O2	O	1.300083	-0.106857	0.062616
O3	O	1.493488	-0.001150	0.062602
O4	O	1.472355	-0.203272	0.062632
O5	O	1.493454	-0.001144	-0.062587
O6	O	1.300049	-0.106852	-0.062572
O7	O	1.665726	-0.097559	-0.062572
Cu8	Cu	1.482885	-0.102205	-0.074003
Cu9	Cu	1.482925	-0.102212	0.074047
O10	O	1.472322	-0.203267	-0.062557
C11	C	1.253283	-0.106172	0.000022
C12	C	1.113883	-0.104129	0.000021
C13	C	0.851983	-0.100285	0.136515
C14	C	0.917499	-0.101249	0.204755
C15	C	1.048475	-0.103173	0.204753
C16	C	1.113939	-0.104132	0.136504
C17	C	1.048423	-0.103168	0.068263
C18	C	0.917443	-0.101246	0.068272
C19	C	1.048367	-0.103166	-0.068219
C20	C	0.917390	-0.101246	-0.068219
C21	C	1.113831	-0.104124	-0.136469
C22	C	1.048314	-0.103166	-0.204711
C23	C	0.917330	-0.101242	-0.204707
C24	C	0.851874	-0.100283	-0.136460
C25	C	1.492791	0.024734	0.000005
C26	C	1.490750	0.101851	-0.000001
C27	C	1.712527	-0.098245	0.000025
C28	C	1.851926	-0.100287	0.000030
C29	C	1.473018	-0.229150	0.000041
C30	C	1.475060	-0.306267	0.000053
N31	N	1.482866	-0.102200	-0.178133
C32	C	1.604231	0.145803	-0.000005
C33	C	1.602314	0.218263	0.000007
C34	C	1.486908	0.246767	0.000007
C35	C	1.373412	0.202804	0.000015
C36	C	1.375333	0.130346	0.000011
C37	C	1.396174	0.355651	-0.043844
C38	C	1.394258	0.428108	-0.043844
C39	C	1.480979	0.470251	0.000024
C40	C	1.569637	0.439930	0.043883
C41	C	1.571558	0.367472	0.043878
C42	C	1.484812	0.325334	0.000013
C43	C	1.592388	0.592773	0.000035
C44	C	1.590466	0.665234	0.000051
C45	C	1.361561	0.649774	0.000052
C46	C	1.363487	0.577315	0.000043
C47	C	1.478904	0.548819	0.000031
C48	C	1.568533	-0.055416	-0.217526
C49	C	1.568540	-0.055413	-0.296328
C50	C	1.482892	-0.102206	-0.335733
C51	C	1.397209	-0.148993	-0.296331
C52	C	1.397196	-0.148990	-0.217530
C53	C	1.466080	-0.165383	-0.460562
C54	C	1.466102	-0.165387	-0.539361
C55	C	1.482926	-0.102214	-0.578780
C56	C	1.499754	-0.039035	-0.539390
C57	C	1.499741	-0.039032	-0.460590
C58	C	1.482897	-0.102214	-0.421179
C59	C	1.568606	-0.055423	-0.703619
C60	C	1.568604	-0.055419	-0.782422
C61	C	1.397279	-0.149005	-0.782423
C62	C	1.397274	-0.149003	-0.703622
C63	C	1.482944	-0.102213	-0.664224
N64	N	1.482954	-0.102211	0.178178
H65	H	1.220589	-0.105690	0.136509
O66	O	1.253166	0.534687	0.000137
C67	C	1.183102	0.547664	0.064983
H68	H	1.214256	0.602465	0.086604
H69	H	1.200058	0.507944	0.110381
C70	C	1.003313	0.474159	0.018733
C71	C	1.041570	0.541469	0.045284
H72	H	0.916009	0.470335	0.006583
H73	H	1.050517	0.465413	-0.024954
H74	H	1.017453	0.441066	0.056569
H75	H	1.027444	0.574560	0.007445
H76	H	0.994359	0.550220	0.088964
H77	H	0.863994	-0.100460	-0.260277
O78	O	1.112065	-0.104005	-0.270953
C79	C	1.202363	-0.045057	-0.275057
H80	H	1.226855	-0.025324	-0.215811
H81	H	1.162070	-0.002271	-0.308743
C82	C	1.292267	-0.089354	-0.386835
C83	C	1.322355	-0.065122	-0.314067
H84	H	1.366282	-0.101729	-0.410902
H85	H	1.231428	-0.129068	-0.384073
H86	H	1.258687	-0.053695	-0.414898
H87	H	1.355920	-0.100783	-0.286004
H88	H	1.383203	-0.025414	-0.316826
O89	O	1.449920	-0.226711	-0.422188
C90	C	1.556490	-0.232862	-0.376603
H91	H	1.606950	-0.178799	-0.364810
H92	H	1.623518	-0.265699	-0.406950
C93	C	1.452218	-0.334654	-0.316228
C94	C	1.514188	-0.268252	-0.301739
H95	H	1.426127	-0.356487	-0.270050
H96	H	1.380421	-0.330512	-0.346942
H97	H	1.508085	-0.362010	-0.341519
H98	H	1.458317	-0.240895	-0.276457
H99	H	1.585975	-0.272390	-0.271019
H100	H	1.638361	-0.017318	-0.814497
H101	H	1.638360	-0.017321	-0.671541
H102	H	0.745225	-0.098720	-0.136450
H103	H	1.698213	0.122607	-0.000012
H104	H	1.322062	0.452789	-0.079552
H105	H	1.640253	0.474242	0.079605
O106	O	1.712670	0.260869	-0.000032
C107	C	1.814949	0.220180	-0.000022
H108	H	1.782763	0.166267	-0.023722
H109	H	1.850371	0.214841	0.060035
C110	C	1.961834	0.321991	-0.020013
C111	C	1.922305	0.255776	-0.049128
H112	H	2.028060	0.343948	-0.050301
H113	H	1.892928	0.349404	-0.020018
H114	H	1.991344	0.317532	0.030033
H115	H	1.892781	0.260236	-0.099170
H116	H	1.991209	0.228363	-0.049134
O117	O	1.651818	-0.010061	-0.334685
C118	C	1.729096	-0.047664	-0.380227
H119	H	1.678764	-0.101756	-0.392026
H120	H	1.821867	-0.052865	-0.349839
C121	C	1.818002	0.057792	-0.440593
C122	C	1.756178	-0.008643	-0.455091
H123	H	1.834714	0.081862	-0.486771
H124	H	1.765942	0.083127	-0.409909
H125	H	1.895304	0.053448	-0.415268
H126	H	1.678871	-0.004299	-0.480407
H127	H	1.808226	-0.033977	-0.485781
H128	H	1.513452	0.012406	-0.571483
O129	O	1.313905	-0.194391	-0.820658
C130	C	1.189663	-0.182470	-0.801409
H131	H	1.189368	-0.126856	-0.779762
H132	H	1.152555	-0.220777	-0.755664
C133	C	1.104838	-0.261133	-0.898006
C134	C	1.104474	-0.192825	-0.871425
H135	H	1.052286	-0.267523	-0.941194
H136	H	1.188541	-0.269167	-0.910973
H137	H	1.073917	-0.293048	-0.859879
H138	H	1.135409	-0.160912	-0.909548
H139	H	1.020773	-0.184786	-0.858466
O140	O	1.314190	-0.194553	-0.665386
C141	C	1.334194	-0.263415	-0.684637
H142	H	1.434733	-0.264270	-0.706282
H143	H	1.264485	-0.283458	-0.730385
C144	C	1.190917	-0.309354	-0.588045
C145	C	1.314404	-0.310405	-0.614623
H146	H	1.178704	-0.338342	-0.544859
H147	H	1.177435	-0.262961	-0.575077
H148	H	1.132840	-0.326056	-0.626174
H149	H	1.372478	-0.293696	-0.576497
H150	H	1.327895	-0.356797	-0.627583
H151	H	1.325553	0.321342	-0.079570
O152	O	1.700824	0.707833	0.000015
C153	C	1.803098	0.667140	0.000021
H154	H	1.770905	0.613229	-0.023684
H155	H	1.838520	0.661794	0.060077
C156	C	1.949994	0.768947	-0.019963
C157	C	1.910457	0.702735	-0.049083
H158	H	2.016222	0.790904	-0.050250
H159	H	1.881092	0.796363	-0.019964
H160	H	1.979504	0.764483	0.030083
H161	H	1.880933	0.707200	-0.099125
H162	H	1.979357	0.675320	-0.049092
O163	O	1.313838	-0.194377	-0.334573
C164	C	1.189596	-0.182453	-0.315329
H165	H	1.189303	-0.126839	-0.293682
H166	H	1.152478	-0.220760	-0.269586
C167	C	1.104776	-0.261114	-0.411931
C168	C	1.104415	-0.192805	-0.385349
H169	H	1.052229	-0.267502	-0.455120
H170	H	1.188480	-0.269149	-0.424894
H171	H	1.073847	-0.293028	-0.373804
H172	H	1.135358	-0.160893	-0.423472
H173	H	1.020714	-0.184764	-0.372394
O174	O	1.314104	-0.194539	-0.179294
C175	C	1.334102	-0.263401	-0.198547
H176	H	1.434638	-0.264258	-0.220195
H177	H	1.264387	-0.283443	-0.244292
C178	C	1.190833	-0.309338	-0.101949
C179	C	1.314317	-0.310391	-0.128532
H180	H	1.178623	-0.338325	-0.058763
H181	H	1.177355	-0.262945	-0.088980
H182	H	1.132751	-0.326038	-0.140077
H183	H	1.372395	-0.293683	-0.090409
H184	H	1.327804	-0.356783	-0.141493
H185	H	1.643744	0.342788	0.079591
H186	H	1.220480	-0.105687	-0.136466
O187	O	1.264976	0.087747	-0.000023
C188	C	1.162700	0.128438	0.000003
H189	H	1.194872	0.182361	-0.023692
H190	H	1.127324	0.133750	0.060064
C191	C	1.015793	0.026639	-0.019990
C192	C	1.055305	0.092867	-0.049099
H193	H	0.949543	0.004697	-0.050275
H194	H	1.084697	-0.000776	-0.020005
H195	H	0.986321	0.031076	0.030060
H196	H	1.084790	0.088429	-0.099144
H197	H	0.986403	0.120281	-0.049093
H198	H	1.279448	0.226017	0.000017
H199	H	0.864185	-0.100465	0.260323
O200	O	1.651789	-0.009894	-0.179374
C201	C	1.727423	0.031389	-0.231048
H202	H	1.675954	0.032434	-0.287229
H203	H	1.820577	0.008354	-0.239405
C204	C	1.816948	0.104904	-0.131312
C205	C	1.753728	0.106192	-0.200313
H206	H	1.833180	0.151045	-0.112352
H207	H	1.765996	0.077090	-0.096497
H208	H	1.894569	0.085705	-0.138286
H209	H	1.676102	0.125382	-0.193337
H210	H	1.804668	0.134011	-0.235126
O211	O	1.111922	-0.104141	0.271108
C212	C	1.026070	-0.102863	0.331347
H213	H	0.927367	-0.123437	0.311352
H214	H	1.025653	-0.047036	0.352325
C215	C	1.187413	-0.123818	0.420381
C216	C	1.066186	-0.149094	0.395824
H217	H	1.212160	-0.152333	0.460156
H218	H	1.245255	-0.124676	0.379797
H219	H	1.187050	-0.077296	0.437857
H220	H	1.066555	-0.195612	0.378340
H221	H	1.008344	-0.148244	0.436407
H222	H	1.513439	0.012410	-0.428522
H223	H	0.745333	-0.098727	0.136523
H224	H	1.686368	0.569571	0.000028
H225	H	1.452408	-0.216831	-0.571426
H226	H	1.267596	0.672981	0.000056
