data_functionalizedCrystal
_audit_creation_method	'MofGen! by Chris Wilmer'
_symmetry_space_group_name_H-M	'P1'
_symmetry_Int_Tables_number	1
_symmetry_cell_setting	triclinic
loop_
_symmetry_equiv_pos_as_xyz
  x,y,z
_cell_length_a	15.298708
_cell_length_b	16.120484
_cell_length_c	15.296720
_cell_angle_alpha	78.013482
_cell_angle_beta	72.673117
_cell_angle_gamma	102.067069
loop_
_atom_site_label
_atom_site_type_symbol
_atom_site_fract_x
_atom_site_fract_y
_atom_site_fract_z
Zn1	Zn	1.319519	-0.167168	0.291250
Zn2	Zn	1.338857	-0.279827	0.143234
Zn3	Zn	1.190931	-0.167223	0.162635
Zn4	Zn	1.152545	-0.339396	0.329490
O5	O	1.250463	-0.238404	0.231652
O6	O	1.453870	-0.157159	0.247493
O7	O	1.343392	-0.239984	0.014032
O8	O	1.215960	-0.048013	0.171812
O9	O	1.468078	-0.239930	0.138745
O10	O	1.310433	-0.047972	0.266306
O11	O	1.234711	-0.157254	0.028286
O12	O	1.054052	-0.215015	0.208892
O13	O	1.150537	-0.341455	0.456193
O14	O	1.025850	-0.341509	0.331480
O15	O	1.273212	-0.214920	0.428098
O16	O	1.306170	-0.406932	0.175825
O17	O	1.169288	-0.450697	0.312667
C18	C	1.005780	-0.284733	0.276441
C19	C	0.901099	-0.304578	0.295626
C20	C	1.235684	-0.459721	0.246306
C21	C	1.229442	-0.554392	0.252590
C22	C	0.664599	-0.096828	0.094783
C23	C	0.762953	-0.078178	0.076759
C24	C	0.797494	-0.134776	0.131474
C25	C	0.733672	-0.210028	0.204216
C26	C	0.635308	-0.228676	0.222247
C27	C	0.768203	-0.266624	0.258938
C28	C	0.704381	-0.341875	0.331681
C29	C	0.606027	-0.360520	0.349708
C30	C	0.571485	-0.303922	0.294993
C31	C	0.866567	-0.247976	0.240907
C32	C	0.837276	-0.379824	0.368371
C33	C	0.738922	-0.398474	0.386395
C34	C	1.218048	-0.727716	0.264083
C35	C	1.283044	-0.748222	0.199207
C36	C	1.276704	-0.844665	0.205601
C37	C	1.224386	-0.631264	0.257690
C38	C	1.496100	-0.191894	0.186689
C39	C	1.600777	-0.172074	0.167529
C40	C	1.205435	-0.284826	0.477269
C41	C	1.186247	-0.304609	0.581936
C42	C	1.265321	-0.016220	0.216958
C43	C	1.271653	0.078461	0.210696
C44	C	1.295373	-0.192090	-0.013022
C45	C	1.314760	-0.172032	-0.117738
C46	C	1.387648	-0.096858	0.818464
C47	C	1.405682	-0.078271	0.720123
C48	C	1.350824	-0.134854	0.685571
C49	C	1.277930	-0.210027	0.749370
C50	C	1.259900	-0.228619	0.847720
C51	C	1.223076	-0.266615	0.714827
C52	C	1.150182	-0.341788	0.778626
C53	C	1.132154	-0.360376	0.876966
C54	C	1.187012	-0.303793	0.911518
C55	C	1.241107	-0.248023	0.616477
C56	C	1.113359	-0.379784	0.645733
C57	C	1.095325	-0.398370	0.744074
H58	H	0.918522	-0.186704	0.181682
H59	H	0.636465	-0.050750	0.050247
C60	C	1.053166	-0.442089	0.946254
C61	C	1.092501	-0.497272	0.996534
C62	C	1.019772	-0.572563	1.060356
H63	H	1.007233	-0.424654	0.990069
H64	H	1.023092	-0.473175	0.911618
H65	H	1.122560	-0.466192	1.031169
H66	H	1.138427	-0.514730	0.952745
H67	H	0.989698	-0.603649	1.025720
H68	H	0.973843	-0.555120	1.104165
H69	H	1.046452	-0.610017	1.094473
C70	C	1.137545	-0.801005	0.344437
C71	C	1.147167	-0.883471	0.334855
C72	C	1.073017	-0.951015	0.408848
H73	H	1.140529	-0.795936	0.404320
H74	H	1.077728	-0.795960	0.341234
H75	H	1.206968	-0.888514	0.338067
H76	H	1.144172	-0.888570	0.274987
H77	H	1.013201	-0.945970	0.405645
H78	H	1.076008	-0.945937	0.468726
H79	H	1.079531	-1.006976	0.402352
C80	C	1.363453	-0.675021	0.118643
C81	C	1.324527	-0.622735	0.064672
C82	C	1.398565	-0.555301	-0.009557
H83	H	1.400136	-0.639233	0.144807
H84	H	1.403392	-0.700539	0.078724
H85	H	1.284605	-0.597219	0.104585
H86	H	1.287852	-0.658498	0.038486
H87	H	1.438504	-0.580818	-0.049477
H88	H	1.435243	-0.519519	0.016615
H89	H	1.372165	-0.519822	-0.046191
H90	H	1.300458	-0.186816	0.564542
C91	C	1.370512	-0.114497	0.578772
C92	C	1.446072	-0.036541	0.530297
C93	C	1.464225	-0.017748	0.431911
H94	H	1.387253	-0.162099	0.557048
H95	H	1.314828	-0.107010	0.566638
H96	H	1.501744	-0.044033	0.542425
H97	H	1.429351	0.011078	0.551993
H98	H	1.408541	-0.010262	0.419777
H99	H	1.480963	-0.065355	0.410196
H100	H	1.515488	0.035150	0.399009
H101	H	1.035974	-0.459576	0.796033
H102	H	0.877579	-0.119587	0.116795
H103	H	1.465034	-0.017067	0.668185
H104	H	1.432310	-0.050800	0.846606
H105	H	0.491399	-0.319106	0.309660
C106	C	1.053866	-0.441090	0.608049
C107	C	1.085238	-0.408705	0.508272
C108	C	1.030455	-0.465147	0.473518
H109	H	1.060824	-0.498786	0.625325
H110	H	0.988458	-0.443635	0.634873
H111	H	1.150629	-0.406170	0.481457
H112	H	1.078278	-0.351017	0.490970
H113	H	0.965048	-0.467693	0.500342
H114	H	1.037417	-0.522840	0.490800
H115	H	1.051727	-0.443178	0.405817
C116	C	0.832093	0.003538	-0.002285
C117	C	0.780797	0.049102	-0.046359
C118	C	0.844459	0.124382	-0.119190
H119	H	0.866349	0.041149	0.024212
H120	H	0.875812	-0.013919	-0.048304
H121	H	0.737095	0.066561	-0.000349
H122	H	0.746544	0.011518	-0.072877
H123	H	0.888178	0.106925	-0.165209
H124	H	0.878711	0.161985	-0.092684
H125	H	0.809665	0.155302	-0.149109
C126	C	0.536830	-0.442177	0.428814
C127	C	0.544937	-0.436854	0.516408
C128	C	0.481220	-0.512067	0.589299
H129	H	0.473263	-0.445261	0.431853
H130	H	0.551692	-0.493728	0.415809
H131	H	0.530069	-0.385317	0.529411
H132	H	0.608490	-0.433783	0.513402
H133	H	0.496082	-0.563618	0.576293
H134	H	0.417657	-0.515144	0.592328
H135	H	0.486718	-0.508470	0.648738
C136	C	0.669715	-0.480122	0.465508
C137	C	0.677818	-0.474790	0.553100
C138	C	0.614087	-0.549991	0.625998
H139	H	0.606152	-0.483195	0.468538
H140	H	0.684565	-0.531681	0.452515
H141	H	0.662962	-0.423245	0.566090
H142	H	0.741367	-0.471729	0.550101
H143	H	0.628937	-0.601550	0.613006
H144	H	0.550528	-0.553058	0.629020
H145	H	0.619583	-0.546387	0.685436
H146	H	0.865398	-0.425909	0.412928
H147	H	1.172332	-0.318922	0.991594
