data_functionalizedCrystal
_audit_creation_method	'MofGen! by Chris Wilmer'
_symmetry_space_group_name_H-M	'P1'
_symmetry_Int_Tables_number	1
_symmetry_cell_setting	triclinic
loop_
_symmetry_equiv_pos_as_xyz
  x,y,z
_cell_length_a	8.559649
_cell_length_b	11.892095
_cell_length_c	8.559649
_cell_angle_alpha	86.659177
_cell_angle_beta	69.778664
_cell_angle_gamma	93.349364
loop_
_atom_site_label
_atom_site_type_symbol
_atom_site_fract_x
_atom_site_fract_y
_atom_site_fract_z
O1	O	2.138525	0.093985	-0.066677
O2	O	1.663040	0.093990	0.017104
O3	O	1.942673	0.093985	-0.262529
O4	O	1.858892	0.093991	0.212955
O5	O	1.919361	-0.094022	-0.239245
O6	O	1.639729	-0.094017	0.040387
O7	O	2.115213	-0.094022	-0.043394
Zn8	Zn	1.873770	-0.123869	0.002193
Zn9	Zn	1.904484	0.123838	-0.028483
O10	O	1.835581	-0.094016	0.236239
C11	C	1.591076	-0.000013	0.035094
C12	C	1.411377	-0.000011	0.053993
N13	N	1.852821	-0.292923	0.023127
C14	C	2.071233	-0.529575	-0.195190
C15	C	2.056600	-0.647917	-0.180547
C16	C	1.808916	-0.647950	0.067047
C17	C	1.823549	-0.529608	0.052404
C18	C	1.954713	-0.470425	-0.078717
C19	C	1.969352	-0.352081	-0.093352
C20	C	1.721662	-0.352117	0.154234
C21	C	1.707029	-0.470458	0.168877
C22	C	2.187178	-0.000016	-0.061385
C23	C	2.366878	-0.000011	-0.080285
C24	C	1.937366	-0.000017	-0.311196
C25	C	1.956266	-0.000012	-0.490896
N26	N	1.925447	0.292892	-0.049431
C27	C	1.840888	-0.000012	0.284906
C28	C	1.821989	-0.000009	0.464605
H29	H	1.311989	-0.000003	0.183420
H30	H	1.692560	-0.000017	-0.436006
O31	O	1.667428	-0.711786	0.208442
H32	H	1.675356	-0.689074	0.329587
O33	O	1.498499	-0.000024	-0.251726
H34	H	1.623719	-0.000037	-0.240165
O35	O	2.110805	-0.288240	-0.234775
H36	H	2.189357	-0.349258	-0.313317
O37	O	2.212693	-0.465729	-0.336602
H38	H	2.291258	-0.526743	-0.415139
O39	O	2.182288	-0.711720	-0.306152
H40	H	2.275958	-0.650680	-0.399773
O41	O	1.565572	-0.534292	0.310306
H42	H	1.574976	-0.626520	0.300931
H43	H	2.085685	-0.000017	-0.590274
O44	O	1.595964	-0.288323	0.279865
H45	H	1.628163	-0.196089	0.247653
