data_functionalizedCrystal
_audit_creation_method	'MofGen! by Chris Wilmer'
_symmetry_space_group_name_H-M	'P1'
_symmetry_Int_Tables_number	1
_symmetry_cell_setting	triclinic
loop_
_symmetry_equiv_pos_as_xyz
  x,y,z
_cell_length_a	12.759401
_cell_length_b	19.077068
_cell_length_c	12.759393
_cell_angle_alpha	87.737652
_cell_angle_beta	90.020938
_cell_angle_gamma	92.328499
loop_
_atom_site_label
_atom_site_type_symbol
_atom_site_fract_x
_atom_site_fract_y
_atom_site_fract_z
Zn1	Zn	1.589374	-0.280138	0.610771
Zn2	Zn	2.089374	0.219862	1.110771
Zn3	Zn	1.582167	-0.397851	0.442129
Zn4	Zn	2.082167	0.102149	0.942129
Zn5	Zn	1.413670	-0.280175	0.435108
Zn6	Zn	1.913670	0.219825	0.935108
Zn7	Zn	1.406569	-0.397802	0.617763
Zn8	Zn	1.906569	0.102198	1.117763
O9	O	1.497945	-0.338992	0.526443
O10	O	1.997945	0.161008	1.026443
O11	O	1.735438	-0.295758	0.588412
O12	O	2.235438	0.204242	1.088412
O13	O	1.559771	-0.382278	0.294179
O14	O	2.059771	0.117722	0.794179
O15	O	1.442966	-0.181680	0.452545
O16	O	1.942966	0.318320	0.952545
O17	O	1.730143	-0.382241	0.464512
O18	O	2.230143	0.117759	0.964512
O19	O	1.572054	-0.181652	0.581604
O20	O	2.072054	0.318348	1.081604
O21	O	1.435977	-0.295822	0.289020
O22	O	1.935977	0.204178	0.789020
O23	O	1.265708	-0.295774	0.459326
O24	O	1.765708	0.204226	0.959326
O25	O	1.430863	-0.382158	0.763855
O26	O	1.930863	0.117842	1.263855
O27	O	1.260490	-0.382194	0.593522
O28	O	1.760490	0.117806	1.093522
O29	O	1.565169	-0.295710	0.758717
O30	O	2.065169	0.204290	1.258717
O31	O	1.552885	-0.496336	0.471292
O32	O	2.052885	0.003664	0.971292
O33	O	1.423874	-0.496300	0.600330
O34	O	1.923874	0.003700	1.100330
C35	C	1.224978	-0.338983	0.526421
C36	C	1.724978	0.161017	1.026421
C37	C	1.108201	-0.338996	0.526438
C38	C	1.608201	0.161004	1.026438
C39	C	1.050645	-0.384064	0.596212
C40	C	1.550645	0.115936	1.096212
C41	C	0.940921	-0.384066	0.596233
C42	C	1.440921	0.115934	1.096233
C43	C	0.946317	-0.293932	0.456697
C44	C	1.446317	0.206068	0.956697
C45	C	1.056040	-0.293927	0.456682
C46	C	1.556040	0.206073	0.956682
C47	C	1.486856	-0.521855	0.537355
C48	C	1.986856	-0.021855	1.037355
C49	C	1.482208	-0.600085	0.542058
C50	C	1.982208	-0.100085	1.042058
C51	C	1.547245	-0.636833	0.477141
C52	C	2.047245	-0.136833	0.977141
C53	C	1.542880	-0.710338	0.481570
C54	C	2.042880	-0.210338	0.981570
C55	C	1.473471	-0.747094	0.550913
C56	C	1.973471	-0.247094	1.050913
C57	C	1.408431	-0.710341	0.615838
C58	C	1.908431	-0.210341	1.115838
C59	C	1.412802	-0.636837	0.611413
C60	C	1.912802	-0.136837	1.111413
C61	C	1.453194	-0.966927	0.571352
C62	C	1.953194	-0.466927	1.071352
C63	C	1.448825	-1.040436	0.575770
C64	C	1.948825	-0.540436	1.075770
C65	C	1.583276	-1.040429	0.441503
C66	C	2.083276	-0.540429	0.941503
C67	C	1.587637	-0.966923	0.437080
C68	C	2.087637	-0.466923	0.937080
C69	C	1.522600	-0.930177	0.502008
C70	C	2.022600	-0.430177	1.002008
N71	N	1.469005	-0.822228	0.555441
N72	N	1.969005	-0.322228	1.055441
N73	N	1.527073	-0.855044	0.497485
N74	N	2.027073	-0.355044	0.997485
C75	C	1.771978	-0.339001	0.526465
C76	C	2.271978	0.160999	1.026465
C77	C	1.888754	-0.339005	0.526474
C78	C	2.388754	0.160995	1.026474
C79	C	1.498028	-0.338924	0.800472
C80	C	1.998028	0.161076	1.300472
C81	C	1.498063	-0.338895	0.917247
C82	C	1.998063	0.161105	1.417247
C83	C	1.509106	-0.155414	0.515511
C84	C	2.009106	0.344586	1.015511
C85	C	1.513862	-0.077184	0.510853
C86	C	2.013862	0.422816	1.010853
C87	C	1.497926	-0.339008	0.253476
C88	C	1.997926	0.160992	0.753476
C89	C	1.498106	-0.338839	0.136690
C90	C	1.998106	0.161161	0.636690
C91	C	1.568001	-0.293875	0.969435
C92	C	2.068001	0.206125	1.469435
C93	C	1.568021	-0.293845	1.079158
C94	C	2.068021	0.206155	1.579158
C95	C	1.428160	-0.383861	1.084494
C96	C	1.928160	0.116139	1.584494
C97	C	1.428136	-0.383887	0.974774
C98	C	1.928136	0.116113	1.474774
H99	H	0.894064	-0.420764	0.653052
H100	H	1.394064	0.079236	1.153052
Cl101	Cl	1.321179	-0.756548	0.703019
Cl102	Cl	1.821179	-0.256548	1.203019
Cl103	Cl	1.655904	-0.237311	0.897119
Cl104	Cl	2.155904	0.262689	1.397119
H105	H	1.624970	-0.257183	1.121644
H106	H	2.124970	0.242817	1.621644
H107	H	1.371231	-0.420494	1.131346
H108	H	1.871231	0.079506	1.631346
Cl109	Cl	0.880735	-0.237278	0.369005
Cl110	Cl	1.380735	0.262722	0.869005
H111	H	1.102903	-0.257223	0.399863
H112	H	1.602903	0.242777	0.899863
H113	H	1.644155	-0.936998	0.380615
H114	H	2.144155	-0.436998	0.880615
H115	H	1.636226	-1.070356	0.388644
H116	H	2.136226	-0.570356	0.888644
Cl117	Cl	1.340201	-0.440485	0.909161
Cl118	Cl	1.840201	0.059515	1.409161
H119	H	1.400236	-0.937014	0.624217
H120	H	1.900236	-0.437014	1.124217
Cl121	Cl	1.116216	-0.440720	0.683910
Cl122	Cl	1.616216	0.059280	1.183910
Cl123	Cl	1.634500	-0.590633	0.389955
Cl124	Cl	2.134500	-0.090633	0.889955
H125	H	1.392316	-1.070361	0.632256
H126	H	1.892316	-0.570361	1.132256
Cl127	Cl	1.624649	-0.756533	0.399959
Cl128	Cl	2.124649	-0.256533	0.899959
Cl129	Cl	1.331040	-0.590639	0.693031
Cl130	Cl	1.831040	-0.090639	1.193031
