data_functionalizedCrystal
_audit_creation_method	'MofGen! by Chris Wilmer'
_symmetry_space_group_name_H-M	'P1'
_symmetry_Int_Tables_number	1
_symmetry_cell_setting	triclinic
loop_
_symmetry_equiv_pos_as_xyz
  x,y,z
_cell_length_a	12.759401
_cell_length_b	11.169416
_cell_length_c	12.759393
_cell_angle_alpha	90.028644
_cell_angle_beta	89.981504
_cell_angle_gamma	89.989499
loop_
_atom_site_label
_atom_site_type_symbol
_atom_site_fract_x
_atom_site_fract_y
_atom_site_fract_z
Zn1	Zn	1.606287	0.477731	-0.594003
Zn2	Zn	1.606195	0.678464	-0.418332
Zn3	Zn	1.430589	0.477794	-0.418342
Zn4	Zn	1.430591	0.678372	-0.593973
O5	O	1.518416	0.578090	-0.506162
O6	O	1.753296	0.504371	-0.570708
O7	O	1.582861	0.651910	-0.271312
O8	O	1.453934	0.309836	-0.441660
O9	O	1.753228	0.651849	-0.441643
O10	O	1.583018	0.309790	-0.570718
O11	O	1.453844	0.504478	-0.271320
O12	O	1.283568	0.504389	-0.441632
O13	O	1.453937	0.651691	-0.740998
O14	O	1.283570	0.651752	-0.570667
O15	O	1.583020	0.504282	-0.741020
O16	O	1.582863	0.846401	-0.441614
O17	O	1.453848	0.846333	-0.570657
C18	C	1.518374	0.889915	-0.506154
C19	C	1.518452	1.023315	-0.506186
C20	C	1.245448	0.578068	-0.506148
C21	C	1.128672	0.578088	-0.506167
C22	C	1.518489	0.577969	-0.780196
C23	C	1.518521	0.577917	-0.896973
C24	C	1.073838	0.654943	-0.573245
C25	C	0.964114	0.654958	-0.573256
C26	C	0.964067	0.501260	-0.439103
C27	C	1.073789	0.501239	-0.439098
C28	C	1.128721	0.731791	-0.640314
C29	C	1.073887	0.808653	-0.707396
C30	C	0.964163	0.808668	-0.707407
C31	C	0.909272	0.731821	-0.640337
C32	C	1.792449	0.578113	-0.506177
C33	C	1.909226	0.578123	-0.506184
C34	C	1.518486	0.265048	-0.506193
C35	C	1.518516	0.131648	-0.506207
C36	C	1.585743	0.501154	-0.951848
C37	C	1.585768	0.501111	-1.061572
C38	C	1.451345	0.654605	-1.061536
C39	C	1.451315	0.654641	-0.951814
C40	C	1.652949	0.424430	-0.897006
C41	C	1.720178	0.347662	-0.951881
C42	C	1.720203	0.347618	-1.061605
C43	C	1.652999	0.424344	-1.116454
C44	C	1.518403	0.578124	-0.233195
C45	C	1.518575	0.577838	-0.116419
H46	H	1.118585	0.871211	-0.762009
H47	H	1.118436	0.438648	-0.384485
O48	O	0.911058	0.883436	-0.772604
C49	C	0.922691	1.035833	-0.905706
C50	C	0.982959	0.951233	-0.831909
H51	H	0.980797	1.090651	-0.953689
H52	H	0.871328	1.098610	-0.857432
H53	H	0.871318	0.980797	-0.960685
H54	H	1.034388	1.006172	-0.776916
H55	H	1.034256	0.888453	-0.880249
O56	O	1.785416	0.273241	-0.898444
C57	C	1.844900	0.205215	-0.729427
C58	C	1.770984	0.289583	-0.789811
H59	H	1.833242	0.218380	-0.641587
H60	H	1.929641	0.226288	-0.750925
H61	H	1.826485	0.108444	-0.751079
H62	H	1.789304	0.386382	-0.768191
H63	H	1.686265	0.268406	-0.768308
O64	O	1.785600	0.273008	-1.114750
C65	C	1.918886	0.120721	-1.103199
C66	C	1.844888	0.205173	-1.042886
H67	H	1.966823	0.065836	-1.045123
H68	H	1.973889	0.175754	-1.154535
H69	H	1.870664	0.057989	-1.154602
H70	H	1.893024	0.267922	-0.991425
H71	H	1.789882	0.150065	-0.991615
H72	H	1.218063	0.731789	-0.640310
H73	H	0.819928	0.731830	-0.640360
O74	O	1.386126	0.729306	-1.114697
C75	C	1.335137	0.933448	-1.148277
C76	C	1.409043	0.848978	-1.087992
H77	H	1.353653	1.030221	-1.126725
H78	H	1.250401	0.912472	-1.126686
H79	H	1.346689	0.920176	-1.236120
H80	H	1.397584	0.862202	-1.000136
H81	H	1.493752	0.869974	-1.109670
H82	H	1.652938	0.424460	-0.807663
O83	O	1.385908	0.729050	-0.898465
C84	C	1.244061	0.745253	-0.774537
C85	C	1.318057	0.660845	-0.834900
H86	H	1.189200	0.690145	-0.723113
H87	H	1.195971	0.800064	-0.832544
H88	H	1.292291	0.808057	-0.723209
H89	H	1.269908	0.597969	-0.886230
H90	H	1.366150	0.606119	-0.776837
O91	O	0.910587	0.426741	-0.373978
C92	C	0.741532	0.358627	-0.314562
C93	C	0.801964	0.443093	-0.388359
H94	H	0.653699	0.371800	-0.326179
H95	H	0.762998	0.379595	-0.229793
H96	H	0.763170	0.261882	-0.333133
H97	H	0.780358	0.539867	-0.369883
H98	H	0.780492	0.422022	-0.473106
H99	H	1.653012	0.424288	-1.205799
