data_functionalizedCrystal
_audit_creation_method	'MofGen! by Chris Wilmer'
_symmetry_space_group_name_H-M	'P1'
_symmetry_Int_Tables_number	1
_symmetry_cell_setting	triclinic
loop_
_symmetry_equiv_pos_as_xyz
  x,y,z
_cell_length_a	10.723024
_cell_length_b	10.489716
_cell_length_c	9.798715
_cell_angle_alpha	89.999108
_cell_angle_beta	90.003391
_cell_angle_gamma	84.498503
loop_
_atom_site_label
_atom_site_type_symbol
_atom_site_fract_x
_atom_site_fract_y
_atom_site_fract_z
O1	O	1.657281	0.178908	0.113469
O2	O	1.294138	0.196033	0.113472
O3	O	1.483989	0.001865	0.113475
O4	O	1.467431	0.373076	0.113466
O5	O	1.483975	0.001865	-0.113507
O6	O	1.294124	0.196033	-0.113510
O7	O	1.657267	0.178908	-0.113513
Zn8	Zn	1.475693	0.187470	-0.149550
Zn9	Zn	1.475712	0.187471	0.149509
O10	O	1.467416	0.373075	-0.113516
C11	C	1.247631	0.194787	-0.000018
C12	C	1.109074	0.191058	-0.000016
C13	C	1.482738	-0.045666	-0.000012
C14	C	1.479015	-0.187295	0.000001
C15	C	1.034149	0.299704	-0.000018
C16	C	0.890943	0.295853	-0.000016
C17	C	1.595438	-0.285043	-0.000013
C18	C	1.533925	-0.362364	0.111898
C19	C	1.533884	-0.362329	-0.111888
C20	C	1.417551	-0.262750	0.112004
C21	C	1.417527	-0.262710	-0.111883
C22	C	1.355928	-0.339982	0.000056
C23	C	1.703774	0.180154	-0.000020
C24	C	1.842331	0.183883	-0.000013
C25	C	1.468668	0.420607	-0.000027
C26	C	1.472390	0.562235	-0.000030
N27	N	1.475689	0.187469	-0.353650
C28	C	1.555402	0.105584	-0.421425
C29	C	1.555422	0.105579	-0.578588
N30	N	1.475725	0.187462	0.353609
H31	H	1.076021	0.395571	-0.000029
C32	C	1.352038	-0.204379	-0.237920
C33	C	1.355445	-0.071301	-0.235532
C34	C	1.295125	-0.017522	-0.351617
H35	H	1.393450	-0.238482	-0.317466
H36	H	1.267383	-0.224053	-0.238724
H37	H	1.440085	-0.051638	-0.234742
H38	H	1.314026	-0.037163	-0.156012
H39	H	1.210469	-0.037196	-0.352420
H40	H	1.336542	-0.051635	-0.431154
H41	H	1.297417	0.072777	-0.350006
H42	H	0.826560	0.388862	-0.000013
C43	C	1.730438	-0.252138	-0.000151
C44	C	1.752321	-0.181474	-0.117513
C45	C	1.876668	-0.151151	-0.117690
H46	H	1.745100	-0.202809	0.078518
H47	H	1.785285	-0.328841	0.000646
H48	H	1.697490	-0.104782	-0.118298
H49	H	1.737686	-0.230779	-0.196202
H50	H	1.931516	-0.227855	-0.116893
H51	H	1.891319	-0.101827	-0.039015
H52	H	1.891536	-0.103214	-0.197324
C53	C	1.599634	-0.420430	-0.237884
C54	C	1.699547	-0.508215	-0.197862
C55	C	1.760164	-0.561747	-0.313883
H56	H	1.542069	-0.463129	-0.290684
H57	H	1.630566	-0.354489	-0.290927
H58	H	1.668615	-0.574146	-0.144841
H59	H	1.757140	-0.465547	-0.145078
H60	H	1.791095	-0.495806	-0.366926
H61	H	1.702590	-0.604440	-0.366674
H62	H	1.827968	-0.621306	-0.286744
H63	H	1.623629	0.035477	-0.363101
H64	H	1.407481	0.257575	-0.588116
H65	H	1.583077	-0.405890	0.206512
H66	H	0.906707	0.090868	-0.000002
C67	C	1.352195	-0.204747	0.238270
C68	C	1.356573	-0.071781	0.236863
C69	C	1.296406	-0.018306	0.353168
H70	H	1.267345	-0.223741	0.238726
H71	H	1.393281	-0.239663	0.317672
H72	H	1.315483	-0.036876	0.157482
H73	H	1.441406	-0.052751	0.236427
H74	H	1.337493	-0.053223	0.432570
H75	H	1.211561	-0.037309	0.353614
H76	H	1.299379	0.071914	0.352235
C77	C	1.053497	0.063094	-0.000079
C78	C	1.150374	-0.036393	-0.000109
C79	C	1.099229	-0.154295	-0.000185
H80	H	1.003293	0.056789	0.079053
H81	H	1.003304	0.056899	-0.079265
H82	H	1.200546	-0.030201	0.079068
H83	H	1.200586	-0.030131	-0.079236
H84	H	1.049036	-0.160489	-0.079370
H85	H	1.049025	-0.160586	0.078949
H86	H	1.164951	-0.221810	-0.000218
C87	C	1.220779	-0.372410	0.000411
C88	C	1.160416	-0.321567	0.117797
C89	C	1.035924	-0.351431	0.118186
H90	H	1.178988	-0.336784	-0.078243
H91	H	1.219069	-0.462794	-0.000275
H92	H	1.162119	-0.231201	0.118470
H93	H	1.202169	-0.357185	0.196469
H94	H	1.034214	-0.441815	0.117500
H95	H	0.994145	-0.315803	0.039527
H96	H	0.994955	-0.316949	0.197836
H97	H	1.623673	0.035479	-0.636872
C98	C	1.384642	0.280742	-0.431583
C99	C	1.307547	0.212238	-0.513654
C100	C	1.223668	0.298120	-0.585476
H101	H	1.334507	0.332153	-0.368840
H102	H	1.430182	0.334047	-0.487398
H103	H	1.262011	0.158955	-0.457844
H104	H	1.357648	0.160831	-0.576423
H105	H	1.269208	0.351425	-0.641291
H106	H	1.173541	0.349527	-0.522722
H107	H	1.171357	0.251653	-0.641179
