data_functionalizedCrystal
_audit_creation_method	'MofGen! by Chris Wilmer'
_symmetry_space_group_name_H-M	'P1'
_symmetry_Int_Tables_number	1
_symmetry_cell_setting	triclinic
loop_
_symmetry_equiv_pos_as_xyz
  x,y,z
_cell_length_a	19.288840
_cell_length_b	19.288855
_cell_length_c	17.766277
_cell_angle_alpha	89.991046
_cell_angle_beta	90.016585
_cell_angle_gamma	96.870871
loop_
_atom_site_label
_atom_site_type_symbol
_atom_site_fract_x
_atom_site_fract_y
_atom_site_fract_z
O1	O	0.921361	-0.086566	0.062724
O2	O	0.719098	-0.098273	0.062699
O3	O	0.826077	0.008712	0.062702
O4	O	0.814381	-0.193551	0.062721
O5	O	0.826059	0.008717	-0.062486
O6	O	0.719079	-0.098268	-0.062490
O7	O	0.921342	-0.086561	-0.062464
Cu8	Cu	0.820209	-0.092414	-0.073908
Cu9	Cu	0.820231	-0.092420	0.074142
O10	O	0.814363	-0.193546	-0.062468
C11	C	0.825693	0.034591	0.000107
C12	C	0.824566	0.111695	0.000104
C13	C	0.693211	-0.097897	0.000101
C14	C	0.616107	-0.096775	0.000091
C15	C	0.579914	-0.096239	0.068333
C16	C	0.507467	-0.095177	0.068342
C17	C	0.471218	-0.094637	0.000105
C18	C	0.507419	-0.095177	-0.068146
C19	C	0.579864	-0.096246	-0.068153
C20	C	0.361884	-0.052256	-0.052167
C21	C	0.289441	-0.051183	-0.052157
C22	C	0.247774	-0.091343	0.000125
C23	C	0.278560	-0.132566	0.052409
C24	C	0.351005	-0.133635	0.052402
C25	C	0.392664	-0.093478	0.000105
C26	C	0.133026	-0.089656	0.068381
C27	C	0.060577	-0.088598	0.068388
C28	C	0.060532	-0.088591	-0.068102
C29	C	0.132978	-0.089656	-0.068107
C30	C	0.169221	-0.090185	0.000137
C31	C	0.947228	-0.086937	0.000135
C32	C	1.024333	-0.088059	0.000150
N33	N	0.820198	-0.092409	-0.178038
C34	C	0.824051	0.147902	0.068344
C35	C	0.822983	0.220348	0.068349
C36	C	0.822444	0.256586	0.000110
C37	C	0.822956	0.220369	-0.068139
C38	C	0.824017	0.147923	-0.068142
C39	C	0.861439	0.376823	-0.052161
C40	C	0.860382	0.449268	-0.052155
C41	C	0.819168	0.480031	0.000116
C42	C	0.779020	0.438343	0.052395
C43	C	0.780081	0.365897	0.052392
C44	C	0.821293	0.335141	0.000106
C45	C	0.817493	0.594793	0.068366
C46	C	0.816421	0.667240	0.068368
C47	C	0.816401	0.667260	-0.068122
C48	C	0.817466	0.594814	-0.068122
C49	C	0.818016	0.558585	0.000124
C50	C	0.814749	0.780575	0.000127
C51	C	0.815881	0.703472	0.000129
C52	C	0.867584	-0.045059	-0.217423
C53	C	0.867588	-0.045056	-0.296225
C54	C	0.820213	-0.092414	-0.335639
C55	C	0.772818	-0.139768	-0.296244
C56	C	0.772811	-0.139765	-0.217444
C57	C	0.810912	-0.155703	-0.460472
C58	C	0.810924	-0.155707	-0.539271
C59	C	0.820232	-0.092423	-0.578685
C60	C	0.829542	-0.029132	-0.539291
C61	C	0.829534	-0.029130	-0.460491
C62	C	0.820215	-0.092422	-0.421084
C63	C	0.867624	-0.045066	-0.703516
C64	C	0.867624	-0.045062	-0.782320
C65	C	0.772857	-0.139779	-0.782337
C66	C	0.772854	-0.139777	-0.703535
C67	C	0.820242	-0.092421	-0.664129
N68	N	0.820247	-0.092420	0.178272
H69	H	0.609418	-0.096669	0.123903
H70	H	0.376067	-0.167203	0.094972
Br71	Br	0.222021	-0.187074	0.123367
H72	H	0.837120	0.022400	-0.571381
Br73	Br	0.822281	0.269498	0.160967
Br74	Br	0.708554	-0.204045	-0.835820
Br75	Br	0.815714	0.716380	0.160988
Br76	Br	0.182216	-0.090379	0.160995
H77	H	0.477901	-0.094739	-0.123705
Br78	Br	0.798297	-0.241600	-0.592726
Br79	Br	0.822216	0.269545	-0.160750
Br80	Br	0.815663	0.716430	-0.160734
H81	H	0.031018	-0.088156	-0.123662
H82	H	0.895000	0.351782	-0.094732
H83	H	0.817892	0.565334	-0.123690
H84	H	0.747389	0.331957	0.094957
H85	H	0.031109	-0.088166	0.123961
H86	H	0.824434	0.118443	-0.123713
H87	H	0.162448	-0.090088	-0.123677
Br88	Br	0.931891	0.019210	-0.163944
H89	H	0.906208	-0.006503	-0.671431
Br90	Br	0.842162	0.056760	-0.407029
Br91	Br	0.931932	0.019210	-0.835776
Br92	Br	0.247665	0.004745	-0.123128
Br93	Br	0.824794	0.098737	0.160963
H94	H	0.734223	-0.178324	-0.185375
H95	H	0.893076	0.483206	-0.094721
Br96	Br	0.628987	-0.096975	-0.160775
H97	H	0.906177	-0.006497	-0.328299
H98	H	0.477992	-0.094741	0.123915
H99	H	0.395804	-0.019552	-0.094745
Br100	Br	0.708544	-0.204043	-0.650077
Br101	Br	0.798349	-0.241599	-0.406989
Br102	Br	0.708517	-0.204036	-0.349731
H103	H	0.817937	0.565294	0.123936
Br104	Br	0.723080	0.480083	0.123338
