data_functionalizedCrystal
_audit_creation_method	'MofGen! by Chris Wilmer'
_symmetry_space_group_name_H-M	'P1'
_symmetry_Int_Tables_number	1
_symmetry_cell_setting	triclinic
loop_
_symmetry_equiv_pos_as_xyz
  x,y,z
_cell_length_a	12.811487
_cell_length_b	10.489711
_cell_length_c	11.892113
_cell_angle_alpha	94.333736
_cell_angle_beta	88.930736
_cell_angle_gamma	84.285478
loop_
_atom_site_label
_atom_site_type_symbol
_atom_site_fract_x
_atom_site_fract_y
_atom_site_fract_z
O1	O	0.152973	1.699303	0.078361
O2	O	0.166815	1.327910	0.076935
O3	O	0.008173	1.524154	0.093196
O4	O	0.311615	1.503059	0.062100
O5	O	-0.003834	1.509618	-0.093581
O6	O	0.154807	1.313374	-0.109842
O7	O	0.140966	1.684767	-0.108416
Zn8	Zn	0.145980	1.496763	-0.138784
Zn9	Zn	0.161800	1.515914	0.107303
O10	O	0.299607	1.488523	-0.124677
C11	C	0.159772	1.273124	-0.016348
C12	C	0.156664	1.131536	-0.016032
C13	C	0.252067	0.947829	-0.025796
C14	C	0.210332	1.047802	0.071177
C15	C	0.198468	1.033444	-0.112968
C16	C	0.109346	0.979256	0.081614
C17	C	0.097491	0.964881	-0.102615
C18	C	0.055684	1.064829	-0.005612
C19	C	-0.036686	1.516148	0.003792
C20	C	-0.152462	1.513934	0.015664
C21	C	-0.383126	1.493949	-0.165673
C22	C	-0.491909	1.491869	-0.154523
C23	C	-0.478814	1.507703	0.049111
C24	C	-0.370031	1.509783	0.037962
C25	C	-0.322191	1.502904	-0.069434
C26	C	-0.213405	1.504975	-0.080582
C27	C	-0.200313	1.520818	0.123051
C28	C	-0.309096	1.518738	0.134201
C29	C	0.344467	1.496529	-0.035271
C30	C	0.460244	1.498743	-0.047135
C31	C	0.148009	1.739553	-0.015131
C32	C	0.151117	1.881142	-0.015439
N33	N	0.135183	1.483701	-0.306732
C34	C	0.247776	1.619858	-0.554916
C35	C	0.240220	1.610738	-0.672484
C36	C	0.112509	1.456350	-0.659436
C37	C	0.120065	1.465470	-0.541869
C38	C	0.187702	1.547225	-0.489613
C39	C	0.195263	1.556337	-0.372044
C40	C	0.067548	1.401957	-0.358998
C41	C	0.059992	1.392837	-0.476566
N42	N	0.172590	1.528986	0.275252
H43	H	0.258055	1.084264	0.144651
H44	H	0.236195	1.057749	-0.195202
H45	H	-0.344171	1.488315	-0.253118
O46	O	0.351023	0.887101	-0.036032
C47	C	0.360016	0.803054	-0.134783
H48	H	0.297835	0.836183	-0.196515
H49	H	0.348165	0.701620	-0.112374
C50	C	0.546214	0.762824	-0.113716
C51	C	0.469848	0.803520	-0.189540
H52	H	0.613965	0.763105	-0.147491
H53	H	0.540156	0.819444	-0.047183
H54	H	0.536325	0.678299	-0.095048
H55	H	0.479730	0.888048	-0.208196
H56	H	0.475911	0.746914	-0.256078
O57	O	-0.141269	1.529467	0.216662
C58	C	-0.206829	1.535124	0.313837
H59	H	-0.282278	1.490960	0.291520
H60	H	-0.226559	1.639629	0.347381
C61	C	-0.057203	1.514035	0.432229
C62	C	-0.149868	1.459783	0.404821
H63	H	-0.022066	1.467567	0.488355
H64	H	-0.013033	1.510229	0.366761
H65	H	-0.073659	1.601121	0.460176
H66	H	-0.133410	1.372705	0.376861
H67	H	-0.194034	1.463573	0.470286
H68	H	-0.348063	1.524343	0.221639
O69	O	0.040695	0.920845	-0.190162
C70	C	-0.045547	0.863643	-0.148089
H71	H	-0.064912	0.903949	-0.057564
H72	H	-0.025105	0.755195	-0.150046
C73	C	-0.117424	0.843708	-0.332952
C74	C	-0.141214	0.893219	-0.221772
H75	H	-0.176435	0.861945	-0.378406
H76	H	-0.059319	0.882241	-0.361300
H77	H	-0.100387	0.753337	-0.334568
H78	H	-0.158237	0.983590	-0.220156
H79	H	-0.199324	0.854702	-0.193426
H80	H	-0.517786	1.513317	0.136547
O81	O	0.009146	1.331264	-0.295732
C82	C	-0.052188	1.257179	-0.367069
H83	H	-0.014468	1.243129	-0.455294
H84	H	-0.134430	1.308964	-0.371213
C85	C	-0.105370	1.142534	-0.211856
C86	C	-0.059037	1.125268	-0.320214
H87	H	-0.109600	1.061167	-0.182953
H88	H	-0.064052	1.192450	-0.163794
H89	H	-0.173901	1.185693	-0.215325
H90	H	0.009497	1.082125	-0.316742
H91	H	-0.100344	1.075342	-0.368275
O92	O	-0.551189	1.482987	-0.247931
C93	C	-0.603488	1.370861	-0.248720
H94	H	-0.610441	1.340616	-0.159025
H95	H	-0.557090	1.290429	-0.304045
C96	C	-0.705358	1.435031	-0.406172
C97	C	-0.713906	1.397891	-0.296006
H98	H	-0.773467	1.451701	-0.435344
H99	H	-0.670121	1.510571	-0.405644
H100	H	-0.666689	1.367998	-0.452262
H101	H	-0.752563	1.464930	-0.249914
H102	H	-0.749152	1.322363	-0.296527
H103	H	-0.027363	1.115440	0.002945
H104	H	0.250341	1.622900	-0.329500
H105	H	-0.174454	1.499356	-0.168029
O106	O	0.313497	1.699367	-0.504326
C107	C	0.364928	1.761489	-0.587179
H108	H	0.316434	1.762552	-0.666569
H109	H	0.445559	1.707752	-0.608036
C110	C	0.437259	1.899193	-0.444759
C111	C	0.377693	1.900510	-0.542264
H112	H	0.445138	1.984946	-0.417053
H113	H	0.402613	1.857338	-0.388939
H114	H	0.504445	1.854406	-0.462154
H115	H	0.310505	1.945282	-0.524865
H116	H	0.412329	1.942376	-0.598081
H117	H	0.289137	1.669885	-0.725650
O118	O	0.046892	1.376964	-0.710385
C119	C	0.053146	1.384432	-0.828162
H120	H	0.131408	1.419283	-0.852310
H121	H	-0.013792	1.454687	-0.854934
C122	C	-0.051445	1.207802	-0.858368
C123	C	0.044683	1.250596	-0.888029
H124	H	-0.056670	1.125248	-0.895299
H125	H	-0.055662	1.202773	-0.779020
H126	H	-0.107216	1.266360	-0.880680
H127	H	0.100451	1.192048	-0.865705
H128	H	0.048909	1.255612	-0.967376
H129	H	0.004920	1.326279	-0.519128
O130	O	0.064588	0.950373	0.179888
C131	C	0.136863	0.869383	0.236639
H132	H	0.220065	0.882224	0.207100
H133	H	0.120912	0.765091	0.217307
C134	C	0.022773	0.888679	0.400926
C135	C	0.124965	0.904458	0.364653
H136	H	0.015432	0.910309	0.479891
H137	H	-0.025922	0.943239	0.362691
H138	H	0.009494	0.801768	0.384807
H139	H	0.138238	0.991371	0.380759
H140	H	0.173662	0.849913	0.402893
