data_functionalizedCrystal
_audit_creation_method	'MofGen! by Chris Wilmer'
_symmetry_space_group_name_H-M	'P1'
_symmetry_Int_Tables_number	1
_symmetry_cell_setting	triclinic
loop_
_symmetry_equiv_pos_as_xyz
  x,y,z
_cell_length_a	16.992694
_cell_length_b	14.421503
_cell_length_c	16.992695
_cell_angle_alpha	90.005252
_cell_angle_beta	90.668223
_cell_angle_gamma	89.996610
loop_
_atom_site_label
_atom_site_type_symbol
_atom_site_fract_x
_atom_site_fract_y
_atom_site_fract_z
O1	O	1.050856	-0.076996	0.166905
O2	O	0.822456	-0.077024	0.165074
O3	O	0.935740	-0.077003	0.051789
O4	O	0.937571	-0.077017	0.280189
O5	O	0.935719	0.077221	0.051808
O6	O	0.822435	0.077200	0.165093
O7	O	1.050835	0.077227	0.166924
Cu8	Cu	0.936633	0.091295	0.166010
Cu9	Cu	0.936658	-0.091092	0.165988
O10	O	0.937550	0.077206	0.280208
C11	C	0.793085	0.000085	0.162727
C12	C	0.705600	0.000074	0.155699
C13	C	0.659610	0.000071	0.223517
C14	C	0.577409	0.000084	0.216908
C15	C	0.541201	0.000094	0.142480
C16	C	0.587198	0.000101	0.074657
C17	C	0.669397	0.000094	0.081267
C18	C	0.295886	0.000121	0.115086
C19	C	0.213681	0.000125	0.108481
C20	C	0.203898	0.000110	0.250732
C21	C	0.286099	0.000098	0.257336
C22	C	0.332089	0.000109	0.189512
N23	N	0.457178	0.000105	0.135723
N24	N	0.416110	0.000105	0.196270
N25	N	0.936621	0.219577	0.166026
C26	C	0.884224	0.469221	0.218386
C27	C	0.956311	0.531031	0.238123
C28	C	0.936637	0.408738	0.166011
C29	C	0.864567	0.531022	0.146296
C30	C	0.936646	0.591459	0.165998
C31	C	1.008762	0.469187	0.185785
C32	C	0.916969	0.469173	0.093924
C33	C	0.989106	0.530955	0.113634
C34	C	0.936631	0.303477	0.166020
C35	C	0.936660	0.696718	0.165988
C36	C	1.080205	0.000117	0.169270
C37	C	1.167690	0.000121	0.176299
N38	N	0.936662	0.780627	0.165980
C39	C	0.933374	0.000109	0.022439
C40	C	0.926345	0.000108	-0.065046
C41	C	0.994163	0.000117	-0.111037
C42	C	0.987554	0.000107	-0.193238
C43	C	0.913127	0.000095	-0.229446
C44	C	0.845303	0.000083	-0.183449
C45	C	0.851913	0.000086	-0.101250
C46	C	0.885732	0.000079	-0.474760
C47	C	0.879127	0.000079	-0.556966
C48	C	1.021379	0.000101	-0.566749
C49	C	1.027982	0.000109	-0.484547
C50	C	0.960159	0.000093	-0.438558
N51	N	0.906369	0.000088	-0.313468
N52	N	0.966917	0.000093	-0.354537
C53	C	0.939917	0.000093	0.309559
C54	C	0.946945	0.000088	0.397044
H55	H	0.184203	0.000132	0.047870
C56	C	0.894460	0.432427	0.011605
H57	H	0.936451	0.396181	-0.008321
H58	H	0.848485	0.395255	0.015090
H59	H	0.884565	0.483180	-0.022746
H60	H	0.830505	0.000066	-0.437325
C61	C	0.699432	0.000059	0.305388
H62	H	0.660265	0.000067	0.344830
H63	H	0.731294	-0.053724	0.310918
H64	H	0.731293	0.053845	0.310929
H65	H	0.803615	0.558186	0.129628
H66	H	1.054770	0.000132	-0.081563
C67	C	1.049054	0.567354	0.053795
H68	H	1.100207	0.546067	0.067924
H69	H	1.035517	0.545238	0.002749
H70	H	1.048431	0.633224	0.053812
C71	C	0.763433	0.000063	-0.223272
H72	H	0.723990	0.000047	-0.184106
H73	H	0.757885	0.053841	-0.255133
H74	H	0.757910	-0.053728	-0.255136
C75	C	0.346465	0.000127	0.040483
H76	H	0.313125	0.000124	-0.004788
H77	H	0.378733	0.053906	0.040109
H78	H	0.378734	-0.053663	0.040095
H79	H	0.557710	0.000122	0.014056
C80	C	0.526822	0.000077	0.291508
H81	H	0.560159	0.000059	0.336780
H82	H	0.494554	0.053861	0.291898
H83	H	0.494552	-0.053708	0.291876
H84	H	0.315574	0.000079	0.317942
C85	C	0.824421	0.432589	0.278270
H86	H	0.838531	0.453770	0.329461
H87	H	0.773353	0.454667	0.264775
H88	H	0.824501	0.366721	0.277529
C89	C	1.062154	0.000126	-0.243824
H90	H	1.107427	0.000148	-0.210487
H91	H	1.062548	-0.053654	-0.276098
H92	H	1.062519	0.053915	-0.276089
H93	H	1.088589	0.000119	-0.455073
C94	C	1.095977	0.000106	-0.617338
H95	H	1.081384	0.000094	-0.671479
H96	H	1.126280	0.053888	-0.605876
H97	H	1.126286	-0.053681	-0.605878
C98	C	0.978792	0.567750	0.320464
H99	H	0.941497	0.546621	0.357623
H100	H	1.029632	0.545673	0.334829
H101	H	0.979095	0.633618	0.319740
C102	C	0.797255	0.000065	-0.596797
H103	H	0.803036	0.000078	-0.652339
H104	H	0.769120	-0.053720	-0.581325
H105	H	0.769107	0.053849	-0.581310
C106	C	0.153312	0.000102	0.325333
H107	H	0.186649	0.000088	0.370605
H108	H	0.121040	0.053884	0.325722
H109	H	0.121045	-0.053685	0.325703
C110	C	0.719987	0.000089	0.006667
H111	H	0.686651	0.000086	-0.038606
H112	H	0.752258	0.053866	0.006293
H113	H	0.752253	-0.053703	0.006285
H114	H	0.796688	0.000079	-0.063804
H115	H	1.069732	0.442140	0.202526
