data_functionalizedCrystal
_audit_creation_method	'MofGen! by Chris Wilmer'
_symmetry_space_group_name_H-M	'P1'
_symmetry_Int_Tables_number	1
_symmetry_cell_setting	triclinic
loop_
_symmetry_equiv_pos_as_xyz
  x,y,z
_cell_length_a	10.489741
_cell_length_b	17.699083
_cell_length_c	16.776229
_cell_angle_alpha	89.992455
_cell_angle_beta	89.995573
_cell_angle_gamma	83.911094
loop_
_atom_site_label
_atom_site_type_symbol
_atom_site_fract_x
_atom_site_fract_y
_atom_site_fract_z
O1	O	1.692074	0.106782	-0.066241
O2	O	1.320692	0.116805	-0.066253
O3	O	1.516876	0.001673	-0.066240
O4	O	1.495891	0.221914	-0.066254
O5	O	1.516850	0.001666	0.066337
O6	O	1.320666	0.116798	0.066323
O7	O	1.692048	0.106775	0.066336
Zn8	Zn	1.506353	0.111785	0.087379
Zn9	Zn	1.506387	0.111795	-0.087296
O10	O	1.495865	0.221907	0.066322
C11	C	1.516111	-0.026533	0.000049
C12	C	1.513855	-0.110565	0.000049
C13	C	1.273162	0.116044	0.000033
C14	C	1.131574	0.113779	0.000029
C15	C	1.629011	-0.158433	0.000054
C16	C	1.626883	-0.237390	0.000047
C17	C	1.509599	-0.268478	0.000040
C18	C	1.394435	-0.220605	0.000033
C19	C	1.396563	-0.141649	0.000034
C20	C	1.385848	-0.539024	0.000026
C21	C	1.383729	-0.617986	0.000027
C22	C	1.616168	-0.634765	0.000039
C23	C	1.618297	-0.555810	0.000040
C24	C	1.503133	-0.507943	0.000028
C25	C	1.505441	-0.422328	0.000035
C26	C	1.507290	-0.354091	0.000040
C27	C	1.064795	0.040524	0.000041
C28	C	0.972038	0.075133	-0.065327
C29	C	0.972046	0.075143	0.065384
C30	C	1.040682	0.148418	-0.065393
C31	C	1.040700	0.148418	0.065376
C32	C	0.947970	0.183080	-0.000008
C33	C	1.739579	0.107535	0.000047
C34	C	1.881166	0.109800	0.000047
C35	C	1.496630	0.250112	0.000032
C36	C	1.498886	0.334145	0.000027
N37	N	1.506339	0.111778	0.206590
N38	N	1.506412	0.111796	-0.206508
C39	C	1.593236	0.060819	0.248313
C40	C	1.593243	0.060818	0.331765
C41	C	1.506358	0.111781	0.373493
C42	C	1.419453	0.162743	0.331764
C43	C	1.419441	0.162739	0.248313
C44	C	1.419499	0.162758	0.668311
C45	C	1.419520	0.162759	0.751768
C46	C	1.593301	0.060837	0.751763
C47	C	1.593289	0.060833	0.668313
C48	C	1.506379	0.111792	0.626591
C49	C	1.506371	0.111791	0.536103
C50	C	1.506372	0.111786	0.463980
H51	H	1.720655	-0.276362	0.000053
N52	N	1.330700	0.214790	0.374397
N53	N	1.330722	0.214787	0.448906
H54	H	1.268040	0.251548	0.479016
H55	H	0.941634	0.044131	0.120647
H56	H	1.713801	-0.530502	0.000049
H57	H	1.070946	0.179393	-0.120719
H58	H	1.348679	0.204234	0.214343
H59	H	0.897426	0.243364	-0.000048
N60	N	1.748827	-0.126694	0.000071
N61	N	1.851635	-0.169445	0.000076
H62	H	1.936260	-0.147032	0.000088
N63	N	1.681911	0.008726	0.205679
N64	N	1.680295	-0.061234	0.215018
H65	H	1.742894	-0.098037	0.184900
N66	N	1.733798	-0.683672	0.000051
N67	N	1.731890	-0.754167	0.000050
H68	H	1.814963	-0.788708	0.000062
N69	N	1.078905	0.187263	0.134708
N70	N	1.057297	0.162298	0.202534
H71	H	1.084281	0.189727	0.251507
N72	N	1.330757	0.214825	0.794381
N73	N	1.253166	0.260319	0.757121
H74	H	1.190480	0.297089	0.787216
N75	N	1.681968	0.008759	0.374405
N76	N	1.761052	0.033208	0.420985
H77	H	1.823696	-0.003567	0.451108
N78	N	1.263930	-0.649755	0.000006
N79	N	1.262054	-0.720252	0.000005
H80	H	1.177452	-0.742691	-0.000011
H81	H	1.292075	-0.500060	0.000017
H82	H	1.115604	-0.019696	-0.000036
N83	N	1.682024	0.008764	0.625694
N84	N	1.641699	-0.038455	0.579145
H85	H	1.704368	-0.075233	0.549047
H86	H	1.298940	-0.245923	0.000023
N87	N	1.682066	0.008784	0.794395
N88	N	1.682067	0.008788	0.868903
H89	H	1.744756	-0.027973	0.899011
N90	N	1.278923	-0.092761	0.000019
N91	N	1.174212	-0.120526	0.000009
H92	H	1.091123	-0.086000	-0.000007
H93	H	1.348736	0.204251	0.634348
N94	N	0.933886	0.036250	-0.134652
N95	N	0.976273	-0.031543	-0.146299
H96	H	0.949337	-0.059008	-0.195260
