data_functionalizedCrystal
_audit_creation_method	'MofGen! by Chris Wilmer'
_symmetry_space_group_name_H-M	'P1'
_symmetry_Int_Tables_number	1
_symmetry_cell_setting	triclinic
loop_
_symmetry_equiv_pos_as_xyz
  x,y,z
_cell_length_a	16.120484
_cell_length_b	12.759401
_cell_length_c	12.759393
_cell_angle_alpha	89.981425
_cell_angle_beta	92.862829
_cell_angle_gamma	92.925831
loop_
_atom_site_label
_atom_site_type_symbol
_atom_site_fract_x
_atom_site_fract_y
_atom_site_fract_z
Zn1	Zn	-0.331847	1.584972	-0.615149
Zn2	Zn	0.001487	1.918305	-0.281815
Zn3	Zn	0.334820	2.251638	0.051518
Zn4	Zn	-0.471285	1.575923	-0.448362
Zn5	Zn	-0.137951	1.909257	-0.115028
Zn6	Zn	0.195382	2.242590	0.218305
Zn7	Zn	-0.331891	1.409271	-0.439491
Zn8	Zn	0.001442	1.742604	-0.106157
Zn9	Zn	0.334776	2.075938	0.227176
Zn10	Zn	-0.471221	1.400323	-0.623999
Zn11	Zn	-0.137888	1.733657	-0.290665
Zn12	Zn	0.195446	2.066990	0.042668
O13	O	-0.401561	1.492622	-0.531750
O14	O	-0.068228	1.825956	-0.198417
O15	O	0.265106	2.159289	0.134917
O16	O	-0.350352	1.730792	-0.593033
O17	O	-0.017018	2.064125	-0.259700
O18	O	0.316315	2.397459	0.073634
O19	O	-0.452839	1.553774	-0.300167
O20	O	-0.119506	1.887108	0.033167
O21	O	0.213828	2.220441	0.366500
O22	O	-0.215220	1.440109	-0.455376
O23	O	0.118113	1.773443	-0.122042
O24	O	0.451447	2.106776	0.211291
O25	O	-0.452796	1.724144	-0.470495
O26	O	-0.119463	2.057477	-0.137162
O27	O	0.213871	2.390811	0.196172
O28	O	-0.215187	1.569196	-0.584431
O29	O	0.118146	1.902529	-0.251098
O30	O	0.451479	2.235863	0.082236
O31	O	-0.350427	1.431336	-0.293649
O32	O	-0.017094	1.764669	0.039684
O33	O	0.316239	2.098002	0.373018
O34	O	-0.350365	1.261064	-0.463957
O35	O	-0.017032	1.594397	-0.130624
O36	O	0.316301	1.927730	0.202710
O37	O	-0.452687	1.424860	-0.769843
O38	O	-0.119354	1.758193	-0.436510
O39	O	0.213979	2.091526	-0.103176
O40	O	-0.452730	1.254490	-0.599514
O41	O	-0.119397	1.587823	-0.266181
O42	O	0.213936	1.921157	0.067152
O43	O	-0.350290	1.560520	-0.763341
O44	O	-0.016956	1.893853	-0.430008
O45	O	0.316377	2.227187	-0.096674
O46	O	-0.587941	1.545098	-0.479077
O47	O	-0.254608	1.878432	-0.145743
O48	O	0.078725	2.211765	0.187590
O49	O	-0.587895	1.416086	-0.608116
O50	O	-0.254561	1.749419	-0.274783
O51	O	0.078772	2.082752	0.058550
C52	C	-0.401547	1.219656	-0.531734
C53	C	-0.068213	1.552989	-0.198401
C54	C	0.265120	1.886323	0.134933
C55	C	-0.401560	1.102878	-0.531754
C56	C	-0.068227	1.436212	-0.198420
C57	C	0.265106	1.769545	0.134913
C58	C	-0.348314	1.051472	-0.595669
C59	C	-0.014981	1.384806	-0.262335
C60	C	0.318353	1.718139	0.070998
C61	C	-0.348323	0.941748	-0.595676
C62	C	-0.014989	1.275081	-0.262343
C63	C	0.318344	1.608415	0.070990
C64	C	-0.454831	0.934844	-0.467851
C65	C	-0.121498	1.268178	-0.134518
C66	C	0.211836	1.601511	0.198816
C67	C	-0.454818	1.044567	-0.467839
C68	C	-0.121484	1.377901	-0.134505
C69	C	0.211849	1.711234	0.198828
C70	C	-0.618168	1.478668	-0.545542
C71	C	-0.284835	1.812001	-0.212209
C72	C	0.048499	2.145334	0.121124
C73	C	-0.710833	1.472794	-0.551478
C74	C	-0.377500	1.806127	-0.218145
C75	C	-0.044167	2.139461	0.115189
C76	C	-0.880494	1.462076	-0.562336
C77	C	-0.547161	1.795410	-0.229003
C78	C	-0.213828	2.128743	0.104330
C79	C	-0.921787	1.523357	-0.501181
C80	C	-0.588454	1.856690	-0.167847
C81	C	-0.255120	2.190023	0.165486
C82	C	-1.016192	1.517393	-0.507222
C83	C	-0.682859	1.850727	-0.173889
C84	C	-0.349525	2.184060	0.159444
C85	C	-0.786081	1.468038	-0.556296
C86	C	-0.452747	1.801372	-0.222963
C87	C	-0.119414	2.134705	0.110371
C88	C	-0.184108	1.506660	-0.517927
C89	C	0.149225	1.839993	-0.184593
C90	C	0.482559	2.173327	0.148740
C91	C	-0.091442	1.512642	-0.512036
C92	C	0.241891	1.845976	-0.178703
C93	C	0.575224	2.179309	0.154631
C94	C	-0.401477	1.492701	-0.805778
C95	C	-0.068143	1.826034	-0.472445
C96	C	0.265190	2.159368	-0.139111
C97	C	-0.401441	1.492735	-0.922552
C98	C	-0.068107	1.826068	-0.589219
C99	C	0.265226	2.159401	-0.255886
C100	C	-0.401576	1.766655	-0.531766
C101	C	-0.068243	2.099988	-0.198433
C102	C	0.265091	2.433321	0.134900
C103	C	-0.401582	1.883431	-0.531773
C104	C	-0.068249	2.216764	-0.198440
C105	C	0.265084	2.550098	0.134893
C106	C	-0.348105	1.429006	-0.974020
C107	C	-0.014772	1.762339	-0.640686
C108	C	0.318562	2.095672	-0.307353
C109	C	-0.348079	1.429032	-1.083742
C110	C	-0.014746	1.762365	-0.750409
C111	C	0.318587	2.095698	-0.417075
C112	C	-0.454727	1.556525	-1.090521
C113	C	-0.121394	1.889858	-0.757187
C114	C	0.211939	2.223192	-0.423854
C115	C	-0.454756	1.556492	-0.980800
C116	C	-0.121423	1.889826	-0.647467
C117	C	0.211910	2.223159	-0.314134
C118	C	-0.401585	1.492608	-0.258784
C119	C	-0.068251	1.825942	0.074549
C120	C	0.265082	2.159275	0.407883
C121	C	-0.401386	1.492793	-0.141995
C122	C	-0.068052	1.826127	0.191338
C123	C	0.265281	2.159460	0.524671
H124	H	-0.304946	1.098947	-0.647709
H125	H	0.028387	1.432280	-0.314376
H126	H	0.361721	1.765613	0.018958
Cl127	Cl	-0.281037	1.348897	-1.148440
Cl128	Cl	0.052296	1.682230	-0.815106
Cl129	Cl	0.385630	2.015563	-0.481773
H130	H	-0.916041	1.405137	-0.619225
H131	H	-0.582707	1.738471	-0.285892
H132	H	-0.249374	2.071804	0.047441
H133	H	-0.304692	1.377090	-0.926597
H134	H	0.028641	1.710423	-0.593264
H135	H	0.361975	2.043756	-0.259930
Cl136	Cl	-0.521747	1.636676	-1.163754
Cl137	Cl	-0.188413	1.970009	-0.830420
Cl138	Cl	0.144920	2.303343	-0.497087
Cl139	Cl	-0.281380	0.877128	-0.676029
Cl140	Cl	0.051953	1.210461	-0.342696
Cl141	Cl	0.385287	1.543795	-0.009363
Cl142	Cl	-0.866906	1.611268	-0.413334
Cl143	Cl	-0.533573	1.944602	-0.080001
Cl144	Cl	-0.200240	2.277935	0.253332
H145	H	-0.498192	0.887354	-0.415815
H146	H	-0.164859	1.220688	-0.082481
H147	H	0.168475	1.554021	0.250852
Cl148	Cl	-0.521753	1.109197	-0.387470
Cl149	Cl	-0.188420	1.442531	-0.054137
Cl150	Cl	0.144914	1.775864	0.279197
Cl151	Cl	-0.521816	1.636611	-0.916094
Cl152	Cl	-0.188483	1.969944	-0.582761
Cl153	Cl	0.144851	2.303278	-0.249427
