data_functionalizedCrystal
_audit_creation_method	'MofGen! by Chris Wilmer'
_symmetry_space_group_name_H-M	'P1'
_symmetry_Int_Tables_number	1
_symmetry_cell_setting	triclinic
loop_
_symmetry_equiv_pos_as_xyz
  x,y,z
_cell_length_a	20.875621
_cell_length_b	20.875641
_cell_length_c	20.875641
_cell_angle_alpha	60.089808
_cell_angle_beta	87.033849
_cell_angle_gamma	60.669978
loop_
_atom_site_label
_atom_site_type_symbol
_atom_site_fract_x
_atom_site_fract_y
_atom_site_fract_z
Zr1	Zr	0.648400	0.691973	-0.138155
O2	O	0.554238	0.818558	-0.236716
O3	O	0.673743	0.560625	-0.104489
O4	O	0.683205	0.684613	-0.238434
O5	O	0.541319	0.702035	-0.001039
O6	O	0.788944	0.684226	-0.243715
O7	O	0.544776	0.694569	-0.102771
O8	O	0.772017	0.462433	-0.004112
O9	O	0.558246	0.923828	-0.240642
O10	O	0.767719	0.616125	-0.098242
O11	O	0.686228	0.621986	-0.018379
O12	O	0.697369	0.767967	-0.176082
O13	O	0.615877	0.773828	-0.096220
Zr14	Zr	0.811528	0.703263	0.015673
Zr15	Zr	0.817041	0.691355	-0.146577
Zr16	Zr	0.642887	0.703880	0.024096
Zr17	Zr	0.654792	0.859867	-0.144416
Zr18	Zr	0.805137	0.535369	0.021935
O19	O	0.786186	0.834611	-0.017993
O20	O	0.794024	0.817680	-0.248692
O21	O	0.546400	0.835489	-0.006017
O22	O	0.905690	0.576678	0.114234
O23	O	0.913529	0.559747	-0.116465
O24	O	0.665904	0.577556	0.126210
O25	O	0.918609	0.693200	-0.121442
O26	O	0.776723	0.710622	0.115952
O27	O	0.670985	0.711009	0.121233
O28	O	0.915153	0.700666	-0.019710
O29	O	0.692293	0.923338	-0.247337
O30	O	0.767635	0.471898	0.124856
O31	O	0.901682	0.471407	0.118161
O32	O	0.906064	0.461942	-0.010807
O33	O	0.553864	0.933293	-0.111675
O34	O	0.687911	0.932802	-0.118369
O35	O	0.762560	0.627269	0.053601
O36	O	0.844051	0.621408	-0.026262
O37	O	0.773701	0.773250	-0.104102
O38	O	0.692210	0.779110	-0.024240
C39	C	0.721969	0.487608	-0.053408
C40	C	0.719256	0.416332	-0.050750
C41	C	0.760516	0.379788	-0.091188
C42	C	0.757969	0.312812	-0.088683
C43	C	0.714155	0.282387	-0.045744
C44	C	0.672893	0.318935	-0.005300
C45	C	0.675446	0.385905	-0.007802
C46	C	0.701963	0.082421	-0.033789
C47	C	0.699412	0.015448	-0.031293
C48	C	0.784489	0.009329	-0.114675
C49	C	0.787034	0.076304	-0.117176
C50	C	0.745775	0.112842	-0.076730
N51	N	0.711548	0.213930	-0.043184
N52	N	0.748387	0.181294	-0.079285
C53	C	0.519020	0.698390	-0.050705
C54	C	0.447427	0.698652	-0.047130
C55	C	0.415697	0.694665	-0.101496
C56	C	0.348430	0.694907	-0.098133
C57	C	0.312892	0.699143	-0.040405
C58	C	0.344628	0.703128	0.013967
C59	C	0.411897	0.702880	0.010606
C60	C	0.111506	0.700320	-0.024341
C61	C	0.044232	0.700571	-0.020985
C62	C	0.048039	0.692348	-0.133084
C63	C	0.115306	0.692106	-0.136443
C64	C	0.147039	0.696086	-0.082069
N65	N	0.244133	0.699393	-0.036967
N66	N	0.215799	0.695830	-0.085504
C67	C	0.940909	0.696845	-0.071776
C68	C	1.012501	0.696583	-0.075352
C69	C	0.736860	0.682723	-0.264191
C70	C	0.739200	0.677668	-0.333071
C71	C	0.737959	0.907628	-0.069073
C72	C	0.740673	0.978903	-0.071732
C73	C	0.703579	0.754551	-0.406062
C74	C	0.705788	0.749796	-0.470780
C75	C	0.743614	0.668157	-0.462504
C76	C	0.779240	0.591269	-0.389505
C77	C	0.777035	0.596025	-0.324789
C78	C	0.754150	0.645435	-0.651696
C79	C	0.756350	0.640685	-0.716419
C80	C	0.682898	0.799212	-0.797690
C81	C	0.680693	0.803961	-0.732969
C82	C	0.716323	0.727073	-0.659976
N83	N	0.745871	0.663295	-0.528654
N84	N	0.714070	0.731936	-0.593828
C85	C	0.723069	0.712512	0.141710
C86	C	0.720728	0.717567	0.210589
C87	C	0.932914	0.486835	-0.063944
C88	C	1.001793	0.415298	-0.064861
C89	C	0.715074	0.502502	0.149542
C90	C	0.710020	0.436282	0.221080
C91	C	0.926018	0.501730	0.139007
C92	C	0.992557	0.435247	0.206969
C93	C	0.533911	0.893506	-0.261488
C94	C	0.467372	0.959988	-0.329451
C95	C	0.527015	0.908400	-0.058538
C96	C	0.458136	0.979938	-0.057620
C97	C	0.744855	0.892733	-0.272024
C98	C	0.749909	0.958954	-0.343562
C99	C	0.994295	0.378945	-0.102872
C100	C	1.059008	0.311736	-0.103749
C101	C	1.131219	0.280877	-0.066610
C102	C	1.138716	0.317236	-0.028599
C103	C	1.074003	0.384448	-0.027727
C104	C	0.747491	0.407942	0.292255
C105	C	0.742739	0.345731	0.359478
C106	C	0.700521	0.311856	0.355525
C107	C	0.663045	0.340201	0.284343
C108	C	0.667793	0.402416	0.217121
C109	C	1.066349	0.400967	0.197197
C110	C	1.128876	0.338508	0.261048
C111	C	1.117609	0.310327	0.334670
C112	C	1.043810	0.344613	0.344441
C113	C	0.981284	0.407075	0.280591
C114	C	0.393580	0.994277	-0.319679
C115	C	0.331054	1.056756	-0.383530
C116	C	0.342320	1.084942	-0.457153
C117	C	0.416120	1.050650	-0.466923
C118	C	0.478645	0.988177	-0.403073
C119	C	0.465634	1.016297	-0.019617
C120	C	0.400922	1.083524	-0.018758
C121	C	0.328712	1.114385	-0.055899
C122	C	0.321215	1.078022	-0.093907
C123	C	0.385927	1.010802	-0.094770
C124	C	0.792134	0.992810	-0.339584
C125	C	0.796897	1.055022	-0.406796
C126	C	0.759431	1.083383	-0.477984
C127	C	0.717204	1.049521	-0.481960
C128	C	0.712446	0.987304	-0.414749
H129	H	0.791567	0.283057	-0.121611
H130	H	0.822644	0.969729	-0.281625
H131	H	0.425284	1.073607	-0.526874
H132	H	0.831280	1.082587	-0.403544
O133	O	0.793025	0.444476	0.296528
H134	H	0.818271	0.414318	0.357319
H135	H	0.628672	0.312611	0.281136
O136	O	0.652152	-0.017365	0.015024
H137	H	0.657302	-0.070063	0.009957
O138	O	0.274873	1.152329	-0.526012
H139	H	0.275084	1.124134	-0.559241
H140	H	1.197518	0.292101	0.001637
H141	H	0.538728	0.960259	-0.411038
O142	O	0.916417	0.412229	-0.142944
H143	H	0.881944	0.402426	-0.100833
H144	H	0.524426	0.991176	0.010633
H145	H	0.668371	0.112160	-0.000852
O146	O	0.251463	1.093714	-0.372976
H147	H	0.244722	1.126531	-0.342325
H148	H	0.763311	1.134044	-0.532706
H149	H	0.407041	1.113119	0.012195
O150	O	1.082093	0.423644	0.013286
H151	H	1.143178	0.390880	0.038969
O152	O	0.145730	0.704611	0.034304
H153	H	0.109711	0.707605	0.075005
O154	O	0.625632	0.286128	0.041011
H155	H	0.630780	0.233428	0.035950
O156	O	0.676810	1.080084	-0.558738
H157	H	0.614884	1.110340	-0.563311
O158	O	0.666891	0.950801	-0.419043
H159	H	0.641633	0.980987	-0.479838
H160	H	0.276025	1.169121	-0.055191
O161	O	0.381419	0.963889	-0.240275
H162	H	0.319599	0.998244	-0.244221
H163	H	0.696662	0.261197	0.410267
O164	O	0.807773	0.412602	-0.137502
H165	H	0.836041	0.375930	-0.165194
H166	H	0.379810	0.981199	-0.125715
O167	O	0.834287	0.109122	-0.163492
H168	H	0.862554	0.072455	-0.191188
H169	H	0.818081	-0.020428	-0.147604
H170	H	1.168528	0.259465	0.386655
O171	O	0.243329	1.111312	-0.133966
H172	H	0.199597	1.164156	-0.126970
H173	H	0.787152	0.574201	-0.709672
O174	O	0.627497	0.432854	0.140353
H175	H	0.597394	0.398792	0.148905
O176	O	1.078515	0.431364	0.117795
H177	H	1.109275	0.374546	0.111676
O178	O	0.630939	0.425331	0.035809
H179	H	0.600038	0.392931	0.066082
H180	H	0.810043	0.524797	-0.382771
H181	H	0.322596	0.691659	-0.142402
O182	O	0.454028	0.690095	-0.163759
H183	H	0.420664	0.687354	-0.200993
O184	O	1.050912	0.272527	-0.144748
H185	H	1.075425	0.201480	-0.103422
H186	H	0.437731	0.706125	0.054878
O187	O	0.667361	0.832722	-0.549506
H188	H	0.710165	0.834198	-0.583107
O189	O	0.153637	0.687539	-0.198707
H190	H	0.120273	0.684801	-0.235945
O191	O	0.792561	0.562505	-0.572975
H192	H	0.784680	0.579520	-0.529361
O193	O	1.208467	0.301565	0.250494
H194	H	1.250060	0.253416	0.307256
O195	O	1.031661	0.314202	0.423850
H196	H	1.087541	0.264999	0.466601
H197	H	0.022197	0.689106	-0.177353
O198	O	1.201014	0.208385	-0.067556
H199	H	1.232213	0.151558	-0.008043
O200	O	0.005900	0.705132	0.041284
H201	H	0.039270	0.707850	0.078535
H202	H	0.649894	0.870440	-0.739717
O203	O	0.901693	0.444029	0.291135
H204	H	0.904371	0.413923	0.353058
H205	H	0.315691	0.706571	0.060973
H206	H	0.773260	0.322659	0.417431
H207	H	0.653892	0.861811	-0.857126
O208	O	0.662776	0.842604	-0.414989
H209	H	0.689150	0.879538	-0.449063
O210	O	0.815450	0.513103	-0.246058
H211	H	0.842117	0.455534	-0.251173
