data_functionalizedCrystal
_audit_creation_method	'MofGen! by Chris Wilmer'
_symmetry_space_group_name_H-M	'P1'
_symmetry_Int_Tables_number	1
_symmetry_cell_setting	triclinic
loop_
_symmetry_equiv_pos_as_xyz
  x,y,z
_cell_length_a	16.109301
_cell_length_b	8.597304
_cell_length_c	15.186229
_cell_angle_alpha	82.296375
_cell_angle_beta	89.999006
_cell_angle_gamma	84.403059
loop_
_atom_site_label
_atom_site_type_symbol
_atom_site_fract_x
_atom_site_fract_y
_atom_site_fract_z
O1	O	1.104800	0.201732	-0.088482
O2	O	0.862945	0.226837	-0.090399
O3	O	0.988632	-0.014185	-0.072104
O4	O	0.979113	0.442754	-0.106776
O5	O	0.988623	-0.014188	0.074353
O6	O	0.862937	0.226833	0.056059
O7	O	1.104791	0.201729	0.057976
Zn8	Zn	0.983862	0.214280	0.080271
Zn9	Zn	0.983874	0.214285	-0.112694
O10	O	0.979104	0.442750	0.039681
C11	C	0.831958	0.225818	-0.017094
C12	C	0.739637	0.222769	-0.016868
C13	C	0.431740	0.355819	-0.026948
C14	C	0.518484	0.358699	-0.027171
C15	C	0.535991	0.072735	-0.005485
C16	C	0.449249	0.069857	-0.005267
C17	C	0.397125	0.211404	-0.015995
C18	C	0.570611	0.217161	-0.016436
C19	C	0.664663	0.220282	-0.016678
C20	C	0.303067	0.208284	-0.015754
C21	C	0.987605	-0.072658	0.005559
C22	C	0.984549	-0.246883	0.018773
C23	C	1.135779	0.202747	-0.015331
C24	C	1.228099	0.205796	-0.015563
C25	C	0.980131	0.501223	-0.037984
C26	C	0.983188	0.675448	-0.051204
N27	N	0.983861	0.214276	0.211964
N28	N	0.983882	0.214277	-0.244386
C29	C	1.039534	0.107588	0.445784
C30	C	1.039537	0.107584	0.537974
C31	C	0.928202	0.320970	0.521787
C32	C	0.928196	0.320965	0.429599
C33	C	0.983867	0.214276	0.391600
C34	C	0.983876	0.214277	0.575978
C35	C	0.983878	0.214274	0.675934
C36	C	0.983864	0.214277	0.291638
H37	H	0.421066	-0.047750	0.003649
C38	C	0.556555	0.517567	-0.039214
N39	N	0.585230	0.637234	-0.048283
C40	C	1.100767	-0.009785	0.403990
N41	N	1.146887	-0.098200	0.372514
C42	C	1.100769	-0.009794	0.597574
N43	N	1.146888	-0.098214	0.642465
C44	C	0.866966	0.438319	0.563595
N45	N	0.820842	0.526708	0.595084
H46	H	0.983365	-0.313680	0.088803
C47	C	0.866993	0.438407	0.369987
N48	N	0.820909	0.526884	0.325086
H49	H	0.389303	0.471076	-0.035684
H50	H	0.578441	-0.042507	0.003251
H51	H	0.984359	-0.257759	-0.121229
