data_functionalizedCrystal
_audit_creation_method	'MofGen! by Chris Wilmer'
_symmetry_space_group_name_H-M	'P1'
_symmetry_Int_Tables_number	1
_symmetry_cell_setting	triclinic
loop_
_symmetry_equiv_pos_as_xyz
  x,y,z
_cell_length_a	6.817900
_cell_length_b	11.102210
_cell_length_c	16.015572
_cell_angle_alpha	76.743532
_cell_angle_beta	104.485554
_cell_angle_gamma	108.604261
loop_
_atom_site_label
_atom_site_type_symbol
_atom_site_fract_x
_atom_site_fract_y
_atom_site_fract_z
V1	V	-3.999218	-0.051261	-0.269392
O2	O	-3.960397	0.130656	-0.264266
O3	O	-3.976755	-0.224934	-0.267548
O4	O	-3.927020	0.005776	-0.386885
O5	O	-4.010477	-0.101651	-0.144104
V6	V	-4.482569	-0.036148	-0.254407
O7	O	-4.260854	-0.084413	-0.302264
O8	O	-4.671130	-0.002996	-0.221536
O9	O	-4.281825	0.137525	-0.256251
O10	O	-4.638787	-0.218066	-0.259533
O11	O	-4.588707	0.014242	-0.379696
O12	O	-4.331561	-0.093186	-0.136915
C13	C	-3.828835	-0.269029	-0.263298
C14	C	-3.891597	-0.410646	-0.262573
C15	C	-3.952896	-0.628697	-0.182440
C16	C	-3.893905	-0.495634	-0.183111
C17	C	-3.948265	-0.458727	-0.341368
C18	C	-4.007240	-0.591787	-0.340696
C19	C	-3.765392	0.025266	-0.415522
C20	C	-3.787817	0.070751	-0.511573
C21	C	-4.136745	-0.332976	-0.889201
C22	C	-4.157815	-0.290194	-0.979451
C23	C	-4.047772	-0.068856	-0.954747
C24	C	-4.026682	-0.111619	-0.864493
C25	C	-4.071175	-0.243680	-0.831728
C26	C	-3.961112	-0.022324	-0.807019
C27	C	-3.940035	-0.065084	-0.716773
C28	C	-3.984528	-0.197140	-0.684001
C29	C	-4.050098	-0.286441	-0.741482
C30	C	-3.916634	0.109736	-0.839786
C31	C	-3.851064	0.199031	-0.782312
C32	C	-3.829971	0.156272	-0.692064
C33	C	-3.874465	0.024216	-0.659292
C34	C	-3.764401	0.245573	-0.634584
C35	C	-3.743324	0.202812	-0.544338
C36	C	-3.853387	-0.018544	-0.569046
C37	C	-4.093088	0.181612	-0.260499
C38	C	-4.009564	0.323231	-0.261230
C39	C	-4.156532	-0.112681	-0.108273
C40	C	-4.113345	-0.158161	-0.012221
H41	H	-3.889591	-0.126081	-0.542367
C42	C	-3.671188	0.301042	-0.481113
N43	N	-3.616858	0.375031	-0.433492
H44	H	-3.728201	0.353097	-0.661276
C45	C	-3.961339	-0.244177	-0.584727
N46	N	-3.943868	-0.279606	-0.509953
H47	H	-4.086301	-0.393977	-0.714803
C48	C	-4.185674	-0.478250	-0.853155
N49	N	-4.222529	-0.587666	-0.826004
C50	C	-4.069581	-0.644669	-0.427375
N51	N	-4.116531	-0.684500	-0.492659
H52	H	-3.814851	0.306556	-0.809003
C53	C	-3.955426	-0.722172	-0.095025
N54	N	-3.957320	-0.792575	-0.029180
C55	C	-3.831572	-0.442761	-0.096436
N56	N	-3.784619	-0.402939	-0.031149
H57	H	-3.946369	-0.389519	-0.406067
C58	C	-4.229960	-0.388438	-1.042671
N59	N	-4.284306	-0.462434	-1.090288
H60	H	-4.011559	0.038668	-0.981437
H61	H	-3.933768	0.144548	-0.913270
