data_functionalizedCrystal
_audit_creation_method	'MofGen! by Chris Wilmer'
_symmetry_space_group_name_H-M	'P1'
_symmetry_Int_Tables_number	1
_symmetry_cell_setting	triclinic
loop_
_symmetry_equiv_pos_as_xyz
  x,y,z
_cell_length_a	21.295420
_cell_length_b	21.295417
_cell_length_c	14.908308
_cell_angle_alpha	86.739365
_cell_angle_beta	86.722044
_cell_angle_gamma	90.028757
loop_
_atom_site_label
_atom_site_type_symbol
_atom_site_fract_x
_atom_site_fract_y
_atom_site_fract_z
Zn1	Zn	0.941774	-0.271165	0.510059
Zn2	Zn	1.441774	0.228835	1.010059
Zn3	Zn	0.947764	-0.370367	0.359190
Zn4	Zn	1.447764	0.129633	0.859190
Zn5	Zn	0.842584	-0.265113	0.359218
Zn6	Zn	1.342584	0.234887	0.859218
Zn7	Zn	0.836469	-0.376395	0.509997
Zn8	Zn	1.336469	0.123605	1.009997
O9	O	0.892148	-0.320760	0.434616
O10	O	1.392148	0.179240	0.934616
O11	O	1.030657	-0.284334	0.490060
O12	O	1.530657	0.215666	0.990060
O13	O	0.938878	-0.351349	0.232953
O14	O	1.438878	0.148651	0.732953
O15	O	0.855794	-0.177828	0.379265
O16	O	1.355794	0.322172	0.879265
O17	O	1.035058	-0.357217	0.379217
O18	O	1.535058	0.142783	0.879217
O19	O	0.928668	-0.182274	0.490087
O20	O	1.428668	0.317726	0.990087
O21	O	0.861602	-0.274020	0.232973
O22	O	1.361602	0.225980	0.732973
O23	O	0.753684	-0.279865	0.379205
O24	O	1.253684	0.220135	0.879205
O25	O	0.845372	-0.367491	0.636246
O26	O	1.345372	0.132509	1.136246
O27	O	0.749191	-0.361623	0.489981
O28	O	1.249191	0.138377	0.989981
O29	O	0.922739	-0.290179	0.636291
O30	O	1.422739	0.209821	1.136291
O31	O	0.932948	-0.459254	0.379157
O32	O	1.432948	0.040746	0.879157
O33	O	0.851181	-0.463683	0.489954
O34	O	1.351181	0.036317	0.989954
C35	C	0.728597	-0.320742	0.434590
C36	C	1.228597	0.179258	0.934590
C37	C	0.658629	-0.320750	0.434600
C38	C	1.158629	0.179250	0.934600
C39	C	0.156850	-0.363403	0.492241
C40	C	0.656850	0.136597	0.992241
C41	C	0.222593	-0.363403	0.492232
C42	C	0.722593	0.136597	0.992232
C43	C	0.257787	-0.320775	0.434644
C44	C	0.757787	0.179225	0.934644
C45	C	0.227235	-0.278155	0.377045
C46	C	0.727235	0.221845	0.877045
C47	C	0.161493	-0.278161	0.377050
C48	C	0.661493	0.221839	0.877050
N49	N	0.361302	-0.265386	0.427862
N50	N	0.861302	0.234614	0.927862
N51	N	0.423753	-0.265382	0.427863
N52	N	0.923753	0.234618	0.927863
C53	C	0.455863	-0.320757	0.434625
C54	C	0.955863	0.179243	0.934625
N55	N	0.423161	-0.376136	0.441404
N56	N	0.923161	0.123864	0.941404
N57	N	0.360704	-0.376139	0.441408
N58	N	0.860704	0.123861	0.941408
C59	C	0.329073	-0.320765	0.434632
C60	C	0.829073	0.179235	0.934632
C61	C	0.557694	-0.363377	0.492205
C62	C	1.057694	0.136623	0.992205
C63	C	0.623438	-0.363377	0.492189
C64	C	1.123438	0.136623	0.992189
C65	C	0.628079	-0.278124	0.377008
C66	C	1.128079	0.221876	0.877008
C67	C	0.562336	-0.278129	0.377019
C68	C	1.062336	0.221871	0.877019
C69	C	0.527147	-0.320755	0.434622
C70	C	1.027147	0.179245	0.934622
C71	C	0.892067	-0.484309	0.434566
C72	C	1.392067	0.015691	0.934566
C73	C	0.892089	-0.554278	0.434575
C74	C	1.392089	-0.054278	0.934575
C75	C	0.934699	-0.584820	0.376942
C76	C	1.434699	-0.084820	0.876942
C77	C	0.934728	-0.650563	0.376962
C78	C	1.434728	-0.150563	0.876962
C79	C	0.892136	-0.685762	0.434606
C80	C	1.392136	-0.185762	0.934606
C81	C	0.849522	-0.655212	0.492250
C82	C	1.349522	-0.155212	0.992250
C83	C	0.849499	-0.589470	0.492234
C84	C	1.349499	-0.089470	0.992234
N85	N	0.836792	-0.789302	0.441474
N86	N	1.336792	-0.289302	0.941474
N87	N	0.836816	-0.851754	0.441484
N88	N	1.336816	-0.351754	0.941484
C89	C	0.892204	-0.883838	0.434657
C90	C	1.392204	-0.383838	0.934657
N91	N	0.947570	-0.851111	0.427803
N92	N	1.447570	-0.351111	0.927803
N93	N	0.947545	-0.788653	0.427789
N94	N	1.447545	-0.288653	0.927789
C95	C	0.892156	-0.757048	0.434629
C96	C	1.392156	-0.257048	0.934629
C97	C	0.934849	-0.985667	0.377043
C98	C	1.434849	-0.485667	0.877043
C99	C	0.934878	-1.051412	0.377070
C100	C	1.434878	-0.551412	0.877070
C101	C	0.849667	-1.056059	0.492353
C102	C	1.349667	-0.556059	0.992353
C103	C	0.849643	-0.990316	0.492331
C104	C	1.349643	-0.490316	0.992331
C105	C	0.892233	-0.955123	0.434672
C106	C	1.392233	-0.455123	0.934672
C107	C	1.056337	-0.320778	0.434642
C108	C	1.556337	0.179222	0.934642
C109	C	1.126305	-0.320786	0.434654
C110	C	1.626305	0.179214	0.934654
C111	C	0.882705	-0.330183	0.669916
C112	C	1.382705	0.169817	1.169916
C113	C	0.878682	-0.334198	0.770187
C114	C	1.378682	0.165802	1.270187
C115	C	0.892245	-0.156572	0.434686
C116	C	1.392245	0.343428	0.934686
C117	C	0.892286	-0.086605	0.434715
C118	C	1.392286	0.413395	0.934715
C119	C	0.901590	-0.311328	0.200231
C120	C	1.401590	0.188672	0.700231
C121	C	0.905735	-0.307135	0.099960
C122	C	1.405735	0.192865	0.599960
C123	C	0.951681	-0.261224	0.958656
C124	C	1.451681	0.238776	1.458656
C125	C	0.947902	-0.264995	1.052870
C126	C	1.447902	0.235005	1.552870
C127	C	0.867343	-0.345507	1.052830
C128	C	1.367343	0.154493	1.552830
C129	C	0.871121	-0.341736	0.958616
C130	C	1.371121	0.158264	1.458616
C131	C	0.913293	-0.299594	0.911533
C132	C	1.413293	0.200406	1.411533
C133	C	0.917074	-0.295827	0.817317
C134	C	1.417074	0.204173	1.317317
C135	C	0.836512	-0.376335	0.817279
C136	C	1.336512	0.123665	1.317279
C137	C	0.832733	-0.380106	0.911493
C138	C	1.332733	0.119894	1.411493
H139	H	0.136624	-0.243455	0.330155
H140	H	0.636624	0.256545	0.830155
C141	C	0.948660	-1.120599	0.255844
C142	C	1.448660	-0.620599	0.755844
C143	C	0.981750	-1.085026	0.313806
C144	C	1.481750	-0.585026	0.813806
H145	H	0.977607	-1.141365	0.216818
H146	H	1.477607	-0.641365	0.716818
H147	H	0.922668	-1.093626	0.221212
H148	H	1.422668	-0.593626	0.721212
H149	H	0.923272	-1.150939	0.290197
H150	H	1.423272	-0.650939	0.790197
H151	H	1.007135	-1.054682	0.279453
H152	H	1.507135	-0.554682	0.779453
H153	H	1.007752	-1.112001	0.348442
H154	H	1.507752	-0.612001	0.848442
C155	C	0.130495	-0.400356	0.644922
C156	C	0.630495	0.099644	1.144922
C157	C	0.118175	-0.410267	0.555547
C158	C	0.618175	0.089733	1.055547
H159	H	0.106622	-0.429293	0.684000
H160	H	0.606622	0.070707	1.184000
H161	H	0.119197	-0.358616	0.658234
H162	H	0.619197	0.141384	1.158234
H163	H	0.174023	-0.406447	0.653147
H164	H	0.674023	0.093553	1.153147
H165	H	0.074648	-0.404171	0.547321
H166	H	0.574648	0.095829	1.047321
H167	H	0.129469	-0.452016	0.542231
H168	H	0.629469	0.047984	1.042231
H169	H	0.247467	-0.398107	0.539129
H170	H	0.747467	0.101893	1.039129
C171	C	0.478905	-0.377109	0.613540
C172	C	0.978905	0.122891	1.113540
C173	C	0.519006	-0.410231	0.555514
C174	C	1.019006	0.089769	1.055514
H175	H	0.455025	-0.406035	0.652627
H176	H	0.955025	0.093965	1.152627
H177	H	0.451308	-0.351729	0.579244
H178	H	0.951308	0.148271	1.079244
H179	H	0.503190	-0.351106	0.648113
H180	H	1.003190	0.148894	1.148113
H181	H	0.494721	-0.436230	0.520936
H182	H	0.994721	0.063770	1.020936
H183	H	0.546607	-0.435621	0.589813
H184	H	1.046607	0.064379	1.089813
C185	C	0.612243	-0.447635	0.606056
C186	C	1.112243	0.052365	1.106056
C187	C	0.657016	-0.410225	0.555496
C188	C	1.157016	0.089775	1.055496
H189	H	0.632974	-0.476554	0.645142
H190	H	1.132974	0.023446	1.145142
H191	H	0.588166	-0.470099	0.566696
H192	H	1.088166	0.029901	1.066696
H193	H	0.585230	-0.421621	0.640631
H194	H	1.085230	0.078379	1.140631
H195	H	0.684026	-0.436239	0.520915
H196	H	1.184026	0.063761	1.020915
H197	H	0.681103	-0.387759	0.594861
H198	H	1.181103	0.112241	1.094861
H199	H	0.255895	-0.243448	0.330156
H200	H	0.755895	0.256552	0.830156
C201	C	0.730913	-0.240261	0.325859
C202	C	1.230913	0.259739	0.825859
C203	C	0.666758	-0.231267	0.313704
C204	C	1.166758	0.268733	0.813704
H205	H	0.754792	-0.211330	0.286778
H206	H	1.254792	0.288670	0.786778
H207	H	0.742197	-0.282003	0.312544
H208	H	1.242197	0.217997	0.812544
H209	H	0.739259	-0.233538	0.386497
H210	H	1.239259	0.266462	0.886497
H211	H	0.658411	-0.237994	0.253067
H212	H	1.158411	0.262006	0.753067
H213	H	0.655470	-0.189514	0.327013
H214	H	1.155470	0.310486	0.827013
H215	H	0.537466	-0.243424	0.330128
H216	H	1.037466	0.256576	0.830128
H217	H	0.814991	-1.084717	0.539292
H218	H	1.314991	-0.584717	1.039292
C219	C	1.018932	-0.586835	0.262998
C220	C	1.518932	-0.086835	0.762998
C221	C	0.981522	-0.546138	0.313576
C222	C	1.481522	-0.046138	0.813576
H223	H	1.047841	-0.562952	0.223885
H224	H	1.547841	-0.062952	0.723885
H225	H	0.992920	-0.611124	0.228458
H226	H	1.492920	-0.111124	0.728458
H227	H	1.041413	-0.614023	0.302352
H228	H	1.541413	-0.114023	0.802352
H229	H	0.959037	-0.518953	0.274222
H230	H	1.459037	-0.018953	0.774222
H231	H	1.007537	-0.521839	0.348118
H232	H	1.507537	-0.021839	0.848118
C233	C	0.759568	-0.377314	1.081807
C234	C	1.259568	0.122686	1.581807
C235	C	0.820985	-0.391822	1.104589
C236	C	1.320985	0.108178	1.604589
H237	H	0.730948	-0.405906	1.113764
H238	H	1.230948	0.094094	1.613764
H239	H	0.756332	-0.380565	1.018960
H240	H	1.256332	0.119435	1.518960
H241	H	0.749769	-0.335634	1.097262
H242	H	1.249769	0.164366	1.597262
H243	H	0.830785	-0.433501	1.089128
H244	H	1.330785	0.066499	1.589128
H245	H	0.824223	-0.388577	1.167450
H246	H	1.324223	0.111423	1.667450
H247	H	0.951413	-0.261514	0.778983
H248	H	1.451413	0.238486	1.278983
C249	C	1.019919	-0.723951	0.364513
C250	C	1.519919	-0.223951	0.864513
C251	C	0.981551	-0.684152	0.313591
C252	C	1.481551	-0.184152	0.813591
H253	H	1.048823	-0.744685	0.325385
H254	H	1.548823	-0.244685	0.825385
H255	H	0.994557	-0.754310	0.398854
H256	H	1.494557	-0.254310	0.898854
H257	H	1.042407	-0.699846	0.403825
H258	H	1.542407	-0.199846	0.903825
H259	H	0.959059	-0.708258	0.274284
H260	H	1.459059	-0.208258	0.774284
H261	H	1.006916	-0.653790	0.279235
H262	H	1.506916	-0.153790	0.779235
C263	C	0.812655	-0.681552	0.644968
C264	C	1.312655	-0.181552	1.144968
C265	C	0.802705	-0.693901	0.555614
C266	C	1.302705	-0.193901	1.055614
H267	H	0.783755	-0.705440	0.684089
H268	H	1.283755	-0.205440	1.184089
H269	H	0.806541	-0.638033	0.653203
H270	H	1.306541	-0.138033	1.153203
H271	H	0.854417	-0.692820	0.658214
H272	H	1.354417	-0.192820	1.158214
H273	H	0.760945	-0.682629	0.542366
H274	H	1.260945	-0.182629	1.042366
H275	H	0.808815	-0.737430	0.547375
H276	H	1.308815	-0.237430	1.047375
H277	H	0.986022	-0.226914	0.920320
H278	H	1.486022	0.273086	1.420320
H279	H	0.814800	-0.564603	0.539167
H280	H	1.314800	-0.064603	1.039167
C281	C	1.019079	-0.987674	0.263095
C282	C	1.519079	-0.487674	0.763095
C283	C	0.981666	-0.946979	0.313672
C284	C	1.481666	-0.446979	0.813672
H285	H	1.047983	-0.963790	0.223976
H286	H	1.547983	-0.463790	0.723976
H287	H	0.993068	-1.011969	0.228562
H288	H	1.493068	-0.511969	0.728562
H289	H	1.041566	-1.014856	0.302450
H290	H	1.541566	-0.514856	0.802450
H291	H	0.959175	-0.919799	0.274317
H292	H	1.459175	-0.419799	0.774317
H293	H	1.007680	-0.922673	0.348207
H294	H	1.507680	-0.422673	0.848207
H295	H	0.798397	-0.414415	0.949841
H296	H	1.298397	0.085585	1.449841
C297	C	0.765414	-1.001514	0.606270
C298	C	1.265414	-0.501514	1.106270
C299	C	0.802796	-0.956739	0.555672
C300	C	1.302796	-0.456739	1.055672
H301	H	0.736490	-0.980784	0.645372
H302	H	1.236490	-0.480784	1.145372
H303	H	0.791443	-1.028501	0.640823
H304	H	1.291443	-0.528501	1.140823
H305	H	0.742950	-1.025617	0.566929
H306	H	1.242950	-0.525617	1.066929
H307	H	0.825264	-0.932639	0.595014
H308	H	1.325264	-0.432639	1.095014
H309	H	0.776764	-0.929741	0.521117
H310	H	1.276764	-0.429741	1.021117
C311	C	1.027914	-0.185038	1.043442
C312	C	1.527914	0.314962	1.543442
C313	C	0.990103	-0.222821	1.104669
C314	C	1.490103	0.277179	1.604669
H315	H	1.053970	-0.159004	1.075423
H316	H	1.553970	0.340996	1.575423
H317	H	1.001974	-0.159489	1.006705
H318	H	1.501974	0.340511	1.506705
H319	H	1.053450	-0.211002	1.006685
H320	H	1.553450	0.288998	1.506685
H321	H	0.964564	-0.196857	1.141422
H322	H	1.464564	0.303143	1.641422
H323	H	1.016046	-0.248373	1.141422
H324	H	1.516046	0.251627	1.641422
C325	C	0.806532	-0.406308	0.672840
C326	C	1.306532	0.093692	1.172840
C327	C	0.794311	-0.418514	0.765479
C328	C	1.294311	0.081486	1.265479
H329	H	0.780477	-0.432346	0.640863
H330	H	1.280477	0.067654	1.140863
H331	H	0.849436	-0.414906	0.657410
H332	H	1.349436	0.085094	1.157410
H333	H	0.797959	-0.363394	0.657421
H334	H	1.297959	0.136606	1.157421
H335	H	0.802888	-0.461427	0.780899
H336	H	1.302888	0.038573	1.280899
H337	H	0.751396	-0.409921	0.780915
H338	H	1.251396	0.090079	1.280915
