data_functionalizedCrystal
_audit_creation_method	'MofGen! by Chris Wilmer'
_symmetry_space_group_name_H-M	'P1'
_symmetry_Int_Tables_number	1
_symmetry_cell_setting	triclinic
loop_
_symmetry_equiv_pos_as_xyz
  x,y,z
_cell_length_a	17.077404
_cell_length_b	21.395361
_cell_length_c	17.077396
_cell_angle_alpha	89.966749
_cell_angle_beta	89.980499
_cell_angle_gamma	90.030933
loop_
_atom_site_label
_atom_site_type_symbol
_atom_site_fract_x
_atom_site_fract_y
_atom_site_fract_z
Zn1	Zn	1.200012	-0.249435	-0.443817
Zn2	Zn	1.199901	-0.354216	-0.312540
Zn3	Zn	1.068744	-0.249457	-0.312565
Zn4	Zn	1.068694	-0.354179	-0.443763
O5	O	1.134338	-0.301822	-0.378171
O6	O	1.309844	-0.263341	-0.426414
O7	O	1.182477	-0.340344	-0.202696
O8	O	1.086224	-0.161776	-0.330008
O9	O	1.309763	-0.340323	-0.329966
O10	O	1.182666	-0.161760	-0.426439
O11	O	1.086117	-0.263378	-0.202714
O12	O	0.958890	-0.263342	-0.329957
O13	O	1.086139	-0.340260	-0.553617
O14	O	0.958854	-0.340281	-0.426348
O15	O	1.182618	-0.263305	-0.553657
O16	O	1.182429	-0.441889	-0.329914
O17	O	1.086031	-0.441862	-0.426324
C18	C	0.930390	-0.301810	-0.378149
C19	C	0.843140	-0.301821	-0.378159
C20	C	0.802151	-0.341943	-0.428269
C21	C	0.720171	-0.341944	-0.428282
C22	C	0.679181	-0.301826	-0.378179
C23	C	0.720175	-0.261699	-0.328067
C24	C	0.802154	-0.261695	-0.328059
C25	C	0.549305	-0.261711	-0.328086
C26	C	0.467320	-0.261716	-0.328092
C27	C	0.467322	-0.341961	-0.428309
C28	C	0.549301	-0.341957	-0.428301
C29	C	0.590290	-0.301830	-0.378187
C30	C	1.134234	-0.464609	-0.378127
C31	C	1.134262	-0.534251	-0.378135
C32	C	1.184500	-0.566957	-0.327986
C33	C	1.184537	-0.632392	-0.328004
C34	C	1.134321	-0.665119	-0.378162
C35	C	1.084078	-0.632404	-0.428321
C36	C	1.084049	-0.566970	-0.428307
C37	C	1.063641	-0.768833	-0.384313
C38	C	1.063669	-0.834266	-0.384321
C39	C	1.134412	-0.866940	-0.378208
C40	C	1.205129	-0.834172	-0.372070
C41	C	1.205099	-0.768738	-0.372057
C42	C	1.134347	-0.736071	-0.378182
C43	C	1.184694	-0.970599	-0.328075
C44	C	1.184732	-1.036035	-0.328098
C45	C	1.084267	-1.036046	-0.428411
C46	C	1.084236	-0.970611	-0.428392
C47	C	1.134449	-0.937891	-0.378220
C48	C	1.339082	-0.301833	-0.378193
C49	C	1.426332	-0.301839	-0.378203
C50	C	1.134385	-0.301775	-0.582915
C51	C	1.134405	-0.301756	-0.670165
C52	C	1.134463	-0.138398	-0.378232
C53	C	1.134517	-0.068757	-0.378258
C54	C	1.184644	-0.261682	-0.711177
C55	C	1.184653	-0.261661	-0.793158
C56	C	1.134428	-0.301718	-0.834125
C57	C	1.084184	-0.341793	-0.793107
C58	C	1.084171	-0.341811	-0.711128
C59	C	1.084215	-0.341756	-0.963977
C60	C	1.084229	-0.341739	-1.045962
C61	C	1.184698	-0.261606	-1.046007
C62	C	1.184685	-0.261623	-0.964028
C63	C	1.134442	-0.301700	-0.923016
C64	C	1.134336	-0.301822	-0.174223
C65	C	1.134467	-0.301666	-0.086974
H66	H	0.582673	-0.374628	-0.469094
H67	H	0.433945	-0.374631	-0.469115
C68	C	0.594391	-0.217571	-0.272965
H69	H	0.558239	-0.193682	-0.243122
H70	H	0.626400	-0.190301	-0.303054
H71	H	0.626342	-0.241505	-0.238700
H72	H	0.433948	-0.229041	-0.287304
H73	H	0.686794	-0.229031	-0.287276
C74	C	0.847242	-0.217559	-0.272939
H75	H	0.811090	-0.193669	-0.243097
H76	H	0.879249	-0.190290	-0.303030
H77	H	0.879193	-0.241491	-0.238674
C78	C	1.028783	-0.530989	-0.483469
H79	H	1.035960	-0.487332	-0.476279
H80	H	0.976052	-0.541758	-0.471939
H81	H	1.040253	-0.541670	-0.536227
C82	C	0.847237	-0.386077	-0.483376
H83	H	0.901932	-0.380335	-0.476190
H84	H	0.833833	-0.376966	-0.536142
H85	H	0.833768	-0.428164	-0.471782
H86	H	1.225546	-0.229065	-0.677828
H87	H	1.225564	-0.229030	-0.826546
C88	C	1.239997	-1.072013	-0.272931
H89	H	1.269890	-1.043152	-0.243046
H90	H	1.274198	-1.097495	-0.302991
H91	H	1.209992	-1.097581	-0.238708
C92	C	1.239740	-0.530969	-0.272808
H93	H	1.269672	-0.559823	-0.242948
H94	H	1.209725	-0.505482	-0.238573
H95	H	1.273918	-0.505404	-0.302869
C96	C	1.239932	-0.217563	-0.918965
H97	H	1.269851	-0.193688	-0.955130
H98	H	1.274108	-0.241540	-0.886980
H99	H	1.209913	-0.190267	-0.886992
C100	C	0.985820	-0.732899	-0.391044
H101	H	0.943709	-0.761784	-0.394691
H102	H	0.986802	-0.707346	-0.436542
H103	H	0.978933	-0.707404	-0.346041
H104	H	1.225606	-0.228973	-1.079403
H105	H	1.225450	-0.659027	-0.287166
H106	H	0.686801	-0.374617	-0.469086
H107	H	1.043286	-0.374406	-0.826469
H108	H	1.262678	-0.742060	-0.367061
H109	H	1.262734	-0.860773	-0.367092
C110	C	1.239933	-0.934604	-0.272898
H111	H	1.269869	-0.963458	-0.243041
H112	H	1.209916	-0.909121	-0.238661
H113	H	1.274107	-0.909036	-0.302958
C114	C	1.029034	-1.072037	-0.483588
H115	H	1.036244	-1.115692	-0.476413
H116	H	1.040488	-1.061271	-0.536337
H117	H	0.976290	-1.061360	-0.472046
C118	C	1.028978	-0.385797	-1.091025
H119	H	0.999045	-0.409661	-1.054860
H120	H	1.058987	-0.413093	-1.122999
H121	H	0.994802	-0.361812	-1.123008
H122	H	1.043324	-0.943979	-0.469225
H123	H	1.006087	-0.860941	-0.389311
C124	C	1.028841	-0.668400	-0.483492
H125	H	1.036047	-0.712055	-0.476312
H126	H	1.040293	-0.657639	-0.536242
H127	H	0.976098	-0.657720	-0.471948
C128	C	1.028975	-0.385860	-0.918866
H129	H	0.999077	-0.409724	-0.955004
H130	H	0.994777	-0.361917	-0.886874
H131	H	1.059007	-0.413163	-0.886896
C132	C	1.028928	-0.385907	-0.666015
H133	H	0.999027	-0.409769	-0.702154
H134	H	0.994734	-0.361957	-0.634029
H135	H	1.058951	-0.413213	-0.634040
