data_functionalizedCrystal
_audit_creation_method	'MofGen! by Chris Wilmer'
_symmetry_space_group_name_H-M	'P1'
_symmetry_Int_Tables_number	1
_symmetry_cell_setting	triclinic
loop_
_symmetry_equiv_pos_as_xyz
  x,y,z
_cell_length_a	25.639239
_cell_length_b	21.395364
_cell_length_c	21.395355
_cell_angle_alpha	89.974702
_cell_angle_beta	90.019334
_cell_angle_gamma	89.944613
loop_
_atom_site_label
_atom_site_type_symbol
_atom_site_fract_x
_atom_site_fract_y
_atom_site_fract_z
Zn1	Zn	-0.207978	-0.957825	0.354270
Zn2	Zn	0.292022	-0.457825	0.854270
Zn3	Zn	-0.295398	-0.957712	0.249491
Zn4	Zn	0.204602	-0.457712	0.749491
Zn5	Zn	-0.208004	-0.853040	0.249506
Zn6	Zn	0.291996	-0.353040	0.749506
Zn7	Zn	-0.295410	-0.852994	0.354230
Zn8	Zn	0.204590	-0.352994	0.854230
O9	O	-0.251698	-0.905393	0.301874
O10	O	0.248302	-0.405393	0.801874
O11	O	-0.219559	-1.045488	0.340382
O12	O	0.280441	-0.545488	0.840382
O13	O	-0.283811	-0.943799	0.161815
O14	O	0.216189	-0.443799	0.661815
O15	O	-0.134835	-0.867005	0.263426
O16	O	0.365165	-0.367005	0.763426
O17	O	-0.283786	-1.045405	0.263401
O18	O	0.216214	-0.545405	0.763401
O19	O	-0.134817	-0.943990	0.340396
O20	O	0.365183	-0.443990	0.840396
O21	O	-0.219603	-0.866897	0.161826
O22	O	0.280397	-0.366897	0.661826
O23	O	-0.219614	-0.765356	0.263387
O24	O	0.280386	-0.265356	0.763387
O25	O	-0.283806	-0.866928	0.441913
O26	O	0.216194	-0.366928	0.941913
O27	O	-0.283831	-0.765322	0.340327
O28	O	0.216169	-0.265322	0.840327
O29	O	-0.219571	-0.943946	0.441943
O30	O	0.280429	-0.443946	0.941943
O31	O	-0.368565	-0.943755	0.263362
O32	O	0.131435	-0.443755	0.763362
O33	O	-0.368574	-0.866819	0.340314
O34	O	0.131426	-0.366819	0.840314
C35	C	-0.251727	-0.742605	0.301855
C36	C	0.248273	-0.242605	0.801855
C37	C	-0.251752	-0.672964	0.301861
C38	C	0.248248	-0.172964	0.801861
C39	C	-0.218365	-0.640316	0.342006
C40	C	0.281635	-0.140316	0.842006
C41	C	-0.218353	-0.574880	0.342008
C42	C	0.281647	-0.074880	0.842008
C43	C	-0.251737	-0.542095	0.301871
C44	C	0.248263	-0.042095	0.801871
C45	C	-0.285127	-0.574751	0.261718
C46	C	0.214873	-0.074751	0.761718
C47	C	-0.285135	-0.640185	0.261713
C48	C	0.214865	-0.140185	0.761713
C49	C	-0.298825	-0.438363	0.296831
C50	C	0.201175	0.061637	0.796831
C51	C	-0.298818	-0.372930	0.296840
C52	C	0.201182	0.127070	0.796840
C53	C	-0.251714	-0.340275	0.301882
C54	C	0.248286	0.159725	0.801882
C55	C	-0.204614	-0.373060	0.306928
C56	C	0.295386	0.126940	0.806928
C57	C	-0.204622	-0.438494	0.306923
C58	C	0.295378	0.061506	0.806923
C59	C	-0.251733	-0.471143	0.301871
C60	C	0.248267	0.028857	0.801871
C61	C	-0.218310	-0.236674	0.342031
C62	C	0.281690	0.263326	0.842031
C63	C	-0.218297	-0.171238	0.342029
C64	C	0.281703	0.328762	0.842029
C65	C	-0.285076	-0.171110	0.261741
C66	C	0.214924	0.328890	0.761741
C67	C	-0.285084	-0.236545	0.261741
C68	C	0.214916	0.263455	0.761741
C69	C	-0.251702	-0.269323	0.301889
C70	C	0.248298	0.230677	0.801889
C71	C	-0.387540	-0.905287	0.301846
C72	C	0.112460	-0.405287	0.801846
C73	C	-0.445654	-0.905300	0.301854
C74	C	0.054346	-0.405300	0.801854
C75	C	-0.806000	-0.945558	0.261874
C76	C	-0.306000	-0.445558	0.761874
C77	C	-0.860604	-0.945582	0.261883
C78	C	-0.360604	-0.445582	0.761883
O79	O	-0.888827	-0.979702	0.227859
O80	O	-0.388827	-0.479702	0.727859
N81	N	-0.887937	-0.905503	0.301916
N82	N	-0.387937	-0.405503	0.801916
C83	C	-0.860662	-0.865401	0.341948
C84	C	-0.360662	-0.365401	0.841948
O85	O	-0.888924	-0.831313	0.376001
O86	O	-0.388924	-0.331313	0.876001
C87	C	-0.806058	-0.865380	0.341942
C88	C	-0.306058	-0.365380	0.841942
C89	C	-0.778729	-0.905458	0.301902
C90	C	-0.278729	-0.405458	0.801902
C91	C	-0.778671	-0.985633	0.221838
C92	C	-0.278671	-0.485633	0.721838
C93	C	-0.724070	-0.985607	0.221829
C94	C	-0.224070	-0.485607	0.721829
C95	C	-0.696799	-0.945507	0.261856
C96	C	-0.196799	-0.445507	0.761856
C97	C	-0.724129	-0.905433	0.301893
C98	C	-0.224129	-0.405433	0.801893
C99	C	-0.778785	-0.825282	0.381977
C100	C	-0.278785	-0.325282	0.881977
C101	C	-0.724178	-0.825265	0.381968
C102	C	-0.224178	-0.325265	0.881968
C103	C	-0.696848	-0.865343	0.341928
C104	C	-0.196848	-0.365343	0.841928
C105	C	-0.642257	-0.865307	0.341911
C106	C	-0.142257	-0.365307	0.841911
N107	N	-0.614925	-0.905387	0.301878
N108	N	-0.114925	-0.405387	0.801878
C109	C	-0.642196	-0.945487	0.261850
C110	C	-0.142196	-0.445487	0.761850
C111	C	-0.975332	-0.865448	0.341958
C112	C	-0.475332	-0.365448	0.841958
C113	C	-1.029935	-0.865465	0.341961
C114	C	-0.529935	-0.365465	0.841961
C115	C	-1.029874	-0.945647	0.261896
C116	C	-0.529874	-0.445647	0.761896
C117	C	-0.975270	-0.945627	0.261890
C118	C	-0.475270	-0.445627	0.761890
C119	C	-0.948000	-0.905528	0.301924
C120	C	-0.448000	-0.405528	0.801924
C121	C	-0.527531	-0.945430	0.261834
C122	C	-0.027531	-0.445430	0.761834
C123	C	-0.472925	-0.945399	0.261827
C124	C	0.027075	-0.445399	0.761827
C125	C	-0.472991	-0.865220	0.341894
C126	C	0.027009	-0.365220	0.841894
C127	C	-0.527592	-0.865248	0.341899
C128	C	-0.027592	-0.365248	0.841899
C129	C	-0.554860	-0.905358	0.301867
C130	C	-0.054860	-0.405358	0.801867
O131	O	-0.614000	-0.831207	0.375920
O132	O	-0.114000	-0.331207	0.875920
O133	O	-0.613927	-0.979575	0.227809
O134	O	-0.113927	-0.479575	0.727809
C135	C	-0.115325	-0.905516	0.301917
C136	C	0.384675	-0.405516	0.801917
C137	C	-0.057210	-0.905568	0.301935
C138	C	0.442790	-0.405568	0.801935
C139	C	-0.251687	-0.905445	0.465298
C140	C	0.248313	-0.405445	0.965298
C141	C	-0.251683	-0.905467	0.534939
C142	C	0.248317	-0.405467	1.034939
C143	C	-0.251675	-0.068816	0.301891
C144	C	0.248325	0.431184	0.801891
C145	C	-0.251681	-0.138457	0.301890
C146	C	0.248319	0.361543	0.801890
C147	C	-0.251670	-0.905377	0.139087
C148	C	0.248330	-0.405377	0.639087
C149	C	-0.251528	-0.905476	0.069446
C150	C	0.248472	-0.405476	0.569446
C151	C	-0.218234	-0.945569	0.567669
C152	C	0.281766	-0.445569	1.067669
C153	C	-0.218211	-0.945568	0.633104
C154	C	0.281789	-0.445568	1.133104
C155	C	-0.251647	-0.905472	0.665807
C156	C	0.248353	-0.405472	1.165807
C157	C	-0.285098	-0.865362	0.633070
C158	C	0.214902	-0.365362	1.133070
C159	C	-0.285116	-0.865360	0.567636
C160	C	0.214884	-0.365360	1.067636
C161	C	-0.298725	-0.900488	0.769472
C162	C	0.201275	-0.400488	1.269472
C163	C	-0.298708	-0.900495	0.834905
C164	C	0.201292	-0.400495	1.334905
C165	C	-0.251592	-0.905476	0.867628
C166	C	0.248408	-0.405476	1.367628
C167	C	-0.204490	-0.910463	0.834910
C168	C	0.295510	-0.410463	1.334910
C169	C	-0.204508	-0.910460	0.769476
C170	C	0.295492	-0.410460	1.269476
C171	C	-0.251631	-0.905470	0.736760
C172	C	0.248369	-0.405470	1.236760
C173	C	-0.218115	-0.945579	0.971310
C174	C	0.281885	-0.445579	1.471310
C175	C	-0.218092	-0.945573	1.036747
C176	C	0.281908	-0.445573	1.536747
C177	C	-0.284984	-0.865371	1.036712
C178	C	0.215016	-0.365371	1.536712
C179	C	-0.285003	-0.865373	0.971276
C180	C	0.214997	-0.365373	1.471276
C181	C	-0.251569	-0.905480	0.938580
C182	C	0.248431	-0.405480	1.438580
H183	H	-0.191162	-0.548293	0.374698
H184	H	0.308838	-0.048293	0.874698
H185	H	-1.052182	-0.832824	0.374560
H186	H	-0.552182	-0.332824	0.874560
H187	H	-0.701977	-0.792612	0.414571
H188	H	-0.201977	-0.292612	0.914571
H189	H	-0.800869	-1.018290	0.189242
H190	H	-0.300869	-0.518290	0.689242
H191	H	-0.953022	-0.978262	0.229286
H192	H	-0.453022	-0.478262	0.729286
H193	H	-0.801027	-0.792644	0.414579
H194	H	-0.301027	-0.292644	0.914579
H195	H	-0.166157	-0.914519	0.742840
H196	H	0.333843	-0.414519	1.242840
N197	N	-0.443447	-0.988630	0.218643
N198	N	0.056553	-0.488630	0.718643
H199	H	-0.452979	-0.978929	0.173868
H200	H	0.047021	-0.478929	0.673868
H201	H	-0.452909	-1.033378	0.228475
H202	H	0.047091	-0.533378	0.728475
N203	N	-0.182133	-0.988821	0.668416
N204	N	0.317867	-0.488821	1.168416
H205	H	-0.160955	-1.014227	0.637773
H206	H	0.339045	-0.514227	1.137773
H207	H	-0.203407	-1.017795	0.695575
H208	H	0.296593	-0.517795	1.195575
H209	H	-0.953132	-0.832790	0.374556
H210	H	-0.453132	-0.332790	0.874556
H211	H	-0.337061	-0.896438	0.861539
H212	H	0.162939	-0.396438	1.361539
H213	H	-0.450779	-0.832569	0.374482
H214	H	0.049221	-0.332569	0.874482
N215	N	-0.153664	-0.915828	0.870189
N216	N	0.346336	-0.415828	1.370189
H217	H	-0.135868	-0.956393	0.858821
H218	H	0.364132	-0.456393	1.358821
H219	H	-0.160835	-0.915041	0.916595
H220	H	0.339165	-0.415041	1.416595
N221	N	-0.557073	-0.822017	0.385077
N222	N	-0.057073	-0.322017	0.885077
H223	H	-0.531509	-0.796608	0.410431
H224	H	-0.031509	-0.296608	0.910431
H225	H	-0.579685	-0.847518	0.414102
H226	H	-0.079685	-0.347518	0.914102
N227	N	-0.349548	-0.895124	0.734181
N228	N	0.150452	-0.395124	1.234181
H229	H	-0.379383	-0.891974	0.764834
H230	H	0.120617	-0.391974	1.264834
H231	H	-0.354396	-0.933299	0.707052
H232	H	0.145604	-0.433299	1.207052
H233	H	-0.191009	-0.978226	0.541051
H234	H	0.308991	-0.478226	1.041051
H235	H	-0.337186	-0.464946	0.292725
H236	H	0.162814	0.035054	0.792725
N237	N	-0.182056	-0.988832	0.936039
N238	N	0.317944	-0.488832	1.436039
H239	H	-0.160859	-1.014234	0.966705
H240	H	0.339141	-0.514234	1.466705
H241	H	-0.157874	-0.963350	0.908877
H242	H	0.342126	-0.463350	1.408877
H243	H	-0.190851	-0.978228	1.063394
H244	H	0.309149	-0.478228	1.563394
H245	H	-0.312203	-0.832718	1.063338
H246	H	0.187797	-0.332718	1.563338
H247	H	-0.191182	-0.667000	0.374698
H248	H	0.308818	-0.167000	0.874698
N249	N	-0.153827	-0.473857	0.312362
N250	N	0.346173	0.026143	0.812362
H251	H	-0.123983	-0.443246	0.315557
H252	H	0.376017	0.056754	0.815557
H253	H	-0.148931	-0.500992	0.274194
H254	H	0.351069	-0.000992	0.774194
N255	N	-0.321196	-0.822112	0.532323
N256	N	0.178804	-0.322112	1.032323
H257	H	-0.299957	-0.793100	0.505162
H258	H	0.200043	-0.293100	1.005162
H259	H	-0.342369	-0.796747	0.563001
H260	H	0.157631	-0.296747	1.063001
H261	H	-0.166257	-0.346473	0.311034
H262	H	0.333743	0.153527	0.811034
H263	H	-0.312324	-0.666767	0.229021
H264	H	0.187676	-0.166767	0.729021
H265	H	-0.701822	-1.018244	0.189226
H266	H	-0.201822	-0.518244	0.689226
N267	N	-0.321072	-0.822110	0.935970
N268	N	0.178928	-0.322110	1.435970
H269	H	-0.342247	-0.796704	0.966615
H270	H	0.157753	-0.296704	1.466615
H271	H	-0.345274	-0.847579	0.908824
H272	H	0.154726	-0.347579	1.408824
N273	N	-0.556937	-0.988691	0.218659
N274	N	-0.056937	-0.488691	0.718659
H275	H	-0.531332	-1.014070	0.193297
H276	H	-0.031332	-0.514070	0.693297
H277	H	-0.579631	-0.963212	0.189641
H278	H	-0.079631	-0.463212	0.689641
H279	H	-0.191125	-0.263364	0.374718
H280	H	0.308875	0.236636	0.874718
N281	N	-1.059293	-0.988900	0.218721
N282	N	-0.559293	-0.488900	0.718721
H283	H	-1.098030	-0.982829	0.224805
H284	H	-0.598030	-0.482829	0.724805
H285	H	-1.049698	-1.033639	0.228514
H286	H	-0.549698	-0.533639	0.728514
N287	N	-0.321153	-0.822105	0.668338
N288	N	0.178847	-0.322105	1.168338
H289	H	-0.316066	-0.828190	0.714758
H290	H	0.183934	-0.328190	1.214758
H291	H	-0.358498	-0.831813	0.656907
H292	H	0.141502	-0.331813	1.156907
H293	H	-0.191106	-0.144657	0.374719
H294	H	0.308894	0.355343	0.874719
H295	H	-0.312258	-0.144417	0.229061
H296	H	0.187742	0.355583	0.729061
H297	H	-0.337170	-0.346241	0.292735
H298	H	0.162830	0.153759	0.792735
N299	N	-0.321096	-0.271763	0.218442
N300	N	0.178904	0.228237	0.718442
H301	H	-0.342243	-0.241067	0.193014
H302	H	0.157757	0.258933	0.693014
H303	H	-0.345327	-0.298894	0.243890
H304	H	0.154673	0.201106	0.743890
H305	H	-0.312308	-0.548053	0.229037
H306	H	0.187692	-0.048053	0.729037
