data_functionalizedCrystal
_audit_creation_method	'MofGen! by Chris Wilmer'
_symmetry_space_group_name_H-M	'P1'
_symmetry_Int_Tables_number	1
_symmetry_cell_setting	triclinic
loop_
_symmetry_equiv_pos_as_xyz
  x,y,z
_cell_length_a	17.699083
_cell_length_b	10.489741
_cell_length_c	16.776229
_cell_angle_alpha	89.993659
_cell_angle_beta	89.998886
_cell_angle_gamma	83.911094
loop_
_atom_site_label
_atom_site_type_symbol
_atom_site_fract_x
_atom_site_fract_y
_atom_site_fract_z
O1	O	1.005134	0.161296	-0.066176
O2	O	0.784893	0.182281	-0.066202
O3	O	0.900025	-0.013903	-0.066184
O4	O	0.890002	0.357479	-0.066194
O5	O	0.900009	-0.013915	0.066393
O6	O	0.784877	0.182269	0.066375
O7	O	1.005118	0.161284	0.066401
Zn8	Zn	0.894995	0.171774	0.087437
Zn9	Zn	0.895016	0.171790	-0.087238
O10	O	0.889986	0.357467	0.066382
C11	C	0.756683	0.181523	0.000083
C12	C	0.672650	0.179267	0.000073
C13	C	0.899260	-0.061427	0.000104
C14	C	0.896995	-0.203014	0.000102
C15	C	0.624782	0.294422	0.000070
C16	C	0.545825	0.292295	0.000080
C17	C	0.514737	0.175011	0.000088
C18	C	0.562611	0.059847	0.000094
C19	C	0.641567	0.061975	0.000089
C20	C	0.244192	0.051260	0.000114
C21	C	0.165230	0.049140	0.000116
C22	C	0.148450	0.281580	0.000105
C23	C	0.227406	0.283709	0.000100
C24	C	0.275273	0.168545	0.000110
C25	C	0.360887	0.170853	0.000100
C26	C	0.429124	0.172702	0.000092
C27	C	0.823740	-0.269793	0.000088
C28	C	0.858337	-0.362564	0.065459
C29	C	0.858370	-0.362527	-0.065251
C30	C	0.931623	-0.293920	0.065528
C31	C	0.931645	-0.293874	-0.065241
C32	C	0.966296	-0.386619	0.000146
C33	C	1.033328	0.162042	0.000114
C34	C	1.117361	0.164297	0.000119
C35	C	0.890751	0.404991	0.000093
C36	C	0.893016	0.546578	0.000089
N37	N	0.894987	0.171763	0.206648
N38	N	0.895030	0.171791	-0.206450
C39	C	0.945983	0.084928	0.248373
C40	C	0.945987	0.084927	0.331826
C41	C	0.894998	0.171767	0.373551
C42	C	0.843996	0.258606	0.331820
C43	C	0.843989	0.258600	0.248369
C44	C	0.844024	0.258631	0.668367
C45	C	0.844037	0.258633	0.751824
C46	C	0.946022	0.084958	0.751823
C47	C	0.946015	0.084952	0.668373
C48	C	0.895011	0.171786	0.626649
C49	C	0.895006	0.171784	0.536161
C50	C	0.895006	0.171776	0.464038
H51	H	0.650088	0.389929	0.000063
H52	H	0.506854	0.386067	0.000077
H53	H	0.252713	0.379213	0.000090
O54	O	0.995607	0.000542	0.372234
C55	C	1.096755	-0.171744	0.363427
C56	C	1.040608	-0.076229	0.317566
H57	H	1.133142	-0.233857	0.319248
H58	H	1.134909	-0.116801	0.402461
H59	H	1.063736	-0.235348	0.402532
H60	H	1.073564	-0.012602	0.278418
H61	H	1.002453	-0.131253	0.278583
H62	H	0.962585	-0.263669	0.120856
O63	O	0.794425	0.343035	0.792234
C64	C	0.693284	0.515337	0.783433
C65	C	0.749412	0.419809	0.737569
H66	H	0.656887	0.577451	0.739256
H67	H	0.655138	0.460404	0.822492
H68	H	0.726319	0.578937	0.822512
H69	H	0.716439	0.356184	0.698446
H70	H	0.787558	0.474821	0.698560
O71	O	0.532377	-0.054051	-0.000040
C72	C	0.452937	-0.191316	-0.068692
C73	C	0.487138	-0.062294	-0.068646
H74	H	0.416340	-0.198011	-0.124146
H75	H	0.500683	-0.273309	-0.068740
H76	H	0.416424	-0.198108	-0.013183
H77	H	0.523643	-0.055376	-0.124146
H78	H	0.439355	0.019638	-0.068556
O79	O	0.751875	-0.209272	0.000294
C80	C	0.632079	-0.175474	0.069416
C81	C	0.713447	-0.244071	0.069287
H82	H	0.600980	-0.203603	0.125182
H83	H	0.634432	-0.067288	0.068899
H84	H	0.600568	-0.204816	0.014222
H85	H	0.745005	-0.214834	0.124471
H86	H	0.711039	-0.352243	0.069762
H87	H	0.827371	-0.392910	-0.120523
O88	O	0.968499	-0.257329	-0.131187
C89	C	0.961040	-0.129253	-0.250736
C90	C	0.919228	-0.170514	-0.176067
H91	H	0.921218	-0.059078	-0.287051
H92	H	1.012979	-0.080979	-0.231944
H93	H	0.979867	-0.217242	-0.288523
H94	H	0.900351	-0.082592	-0.138248
H95	H	0.867324	-0.218834	-0.194915
O96	O	0.995383	0.000356	0.627820
C97	C	1.010329	-0.174242	0.533866
C98	C	0.954375	-0.078361	0.579683
H99	H	0.977196	-0.237928	0.494950
H100	H	1.048511	-0.119607	0.494666
H101	H	1.046710	-0.236235	0.578115
H102	H	0.917944	-0.016344	0.535492
H103	H	0.916246	-0.133075	0.618896
H104	H	0.987507	0.014218	0.214406
O105	O	0.134994	-0.064764	-0.000013
C106	C	0.055550	-0.202030	-0.068658
C107	C	0.089756	-0.073012	-0.068620
H108	H	0.018954	-0.208730	-0.124112
H109	H	0.103293	-0.284028	-0.068701
H110	H	0.019035	-0.208810	-0.013149
H111	H	0.126262	-0.066107	-0.124119
H112	H	0.041976	0.008923	-0.068535
H113	H	0.987550	0.014249	0.785804
H114	H	0.802496	0.329336	0.634402
O115	O	0.794538	0.342916	0.372473
C116	C	0.749320	0.419854	0.501030
C117	C	0.805383	0.324320	0.455093
H118	H	0.758058	0.404835	0.567837
H119	H	0.759734	0.522021	0.484668
H120	H	0.688619	0.403373	0.484585
H121	H	0.866105	0.340684	0.471514
H122	H	0.794903	0.222187	0.471459
O123	O	0.794425	0.343078	0.207958
C124	C	0.693236	0.515295	0.216760
C125	C	0.749342	0.419716	0.262623
H126	H	0.656761	0.577264	0.260937
H127	H	0.726212	0.579031	0.177701
H128	H	0.655161	0.460276	0.177680
H129	H	0.787430	0.474631	0.301746
H130	H	0.716319	0.355981	0.301632
H131	H	0.109467	0.375352	0.000101
H132	H	0.283156	-0.042514	0.000122
O133	O	1.038224	-0.446873	0.000335
C134	C	1.158065	-0.480182	0.069406
C135	C	1.076624	-0.411885	0.069296
H136	H	1.189140	-0.451899	0.125146
H137	H	1.155861	-0.588403	0.068927
H138	H	1.189506	-0.450735	0.014186
H139	H	1.045136	-0.441226	0.124507
H140	H	1.078883	-0.303677	0.069733
H141	H	0.680540	-0.031796	0.000091
H142	H	0.827335	-0.393005	0.120719
