data_functionalizedCrystal
_audit_creation_method	'MofGen! by Chris Wilmer'
_symmetry_space_group_name_H-M	'P1'
_symmetry_Int_Tables_number	1
_symmetry_cell_setting	triclinic
loop_
_symmetry_equiv_pos_as_xyz
  x,y,z
_cell_length_a	18.215407
_cell_length_b	19.077068
_cell_length_c	18.215399
_cell_angle_alpha	92.268164
_cell_angle_beta	89.980167
_cell_angle_gamma	92.327501
loop_
_atom_site_label
_atom_site_type_symbol
_atom_site_fract_x
_atom_site_fract_y
_atom_site_fract_z
Zn1	Zn	1.113288	-0.280200	-0.427869
Zn2	Zn	1.108246	-0.397902	-0.309739
Zn3	Zn	0.990220	-0.280223	-0.304817
Zn4	Zn	0.985238	-0.397863	-0.432763
O5	O	1.049248	-0.339047	-0.368797
O6	O	1.215603	-0.295821	-0.412210
O7	O	1.092565	-0.382318	-0.206103
O8	O	1.010740	-0.181729	-0.317032
O9	O	1.211899	-0.382295	-0.325421
O10	O	1.101157	-0.181712	-0.407437
O11	O	1.005851	-0.295860	-0.202487
O12	O	0.886575	-0.295822	-0.321777
O13	O	1.002249	-0.382229	-0.535097
O14	O	0.882915	-0.382251	-0.415778
O15	O	1.096327	-0.295783	-0.531501
O16	O	1.087734	-0.496388	-0.330167
O17	O	0.997361	-0.496359	-0.420551
C18	C	0.858042	-0.339035	-0.368775
C19	C	0.776243	-0.339047	-0.368784
C20	C	0.586159	-0.384121	-0.417674
C21	C	0.509301	-0.384124	-0.417684
C22	C	0.513088	-0.293986	-0.319936
C23	C	0.589945	-0.293980	-0.319931
C24	C	0.626479	-0.339052	-0.368799
C25	C	0.472763	-0.339060	-0.368814
C26	C	0.389429	-0.339062	-0.368823
C27	C	0.709818	-0.339050	-0.368791
C28	C	1.041480	-0.521911	-0.376440
C29	C	1.038224	-0.600141	-0.379735
C30	C	1.083783	-0.636886	-0.334263
C31	C	1.080725	-0.710391	-0.337366
C32	C	1.032104	-0.747151	-0.385937
C33	C	0.986542	-0.710401	-0.431414
C34	C	0.989604	-0.636897	-0.428314
C35	C	1.017899	-0.966985	-0.400254
C36	C	1.014839	-1.040495	-0.403348
C37	C	1.109023	-1.040479	-0.309301
C38	C	1.112078	-0.966974	-0.306202
C39	C	1.066520	-0.930231	-0.351682
N40	N	1.028975	-0.822285	-0.389109
N41	N	1.069652	-0.855098	-0.348514
C42	C	1.241200	-0.339060	-0.368819
C43	C	1.322999	-0.339065	-0.368828
C44	C	1.049295	-0.338999	-0.560748
C45	C	1.049315	-0.338978	-0.642546
C46	C	1.057067	-0.155469	-0.361140
C47	C	1.060398	-0.077239	-0.357877
C48	C	1.098320	-0.293923	-0.828867
C49	C	1.098329	-0.293903	-0.905725
C50	C	1.000366	-0.383924	-0.909458
C51	C	1.000354	-0.383940	-0.832601
C52	C	1.049335	-0.338941	-0.792308
C53	C	1.049357	-0.338904	-0.946023
C54	C	1.049367	-0.338882	-1.029355
C55	C	1.049324	-0.338962	-0.708970
C56	C	1.049246	-0.339045	-0.177591
C57	C	1.049377	-0.338867	-0.095785
H58	H	1.123373	-0.606961	-0.294708
O59	O	0.945313	-0.601126	-0.472380
C60	C	0.899559	-0.558685	-0.428652
H61	H	0.926002	-0.547687	-0.372440
H62	H	0.891835	-0.506986	-0.456442
H63	H	0.843843	-0.587060	-0.421713
O64	O	1.145964	-0.250308	-0.789695
C65	C	1.191775	-0.290383	-0.746901
H66	H	1.193973	-0.345811	-0.772372
H67	H	1.249491	-0.264923	-0.744977
H68	H	1.168907	-0.292820	-0.688750
H69	H	0.622775	-0.257275	-0.280130
O70	O	0.470217	-0.427871	-0.465260
C71	C	0.489667	-0.412567	-0.537994
H72	H	0.546620	-0.385510	-0.538428
H73	H	0.490154	-0.463403	-0.573030
H74	H	0.447957	-0.376415	-0.561337
O75	O	0.952842	-0.427775	-0.797120
C76	C	0.965931	-0.497920	-0.818836
H77	H	1.024574	-0.501472	-0.840126
H78	H	0.958106	-0.532699	-0.769737
H79	H	0.925697	-0.516309	-0.864205
O80	O	0.621734	-0.427799	-0.465180
C81	C	0.667896	-0.387779	-0.511115
H82	H	0.681665	-0.334411	-0.483014
H83	H	0.720728	-0.416456	-0.522127
H84	H	0.638622	-0.380110	-0.565345
H85	H	1.151670	-0.937045	-0.266652
O86	O	0.477481	-0.250273	-0.272493
C87	C	0.400999	-0.259928	-0.282989
H88	H	0.388204	-0.314275	-0.309269
H89	H	0.371971	-0.255085	-0.227673
H90	H	0.380975	-0.218231	-0.320511
O91	O	1.125008	-0.745975	-0.293118
C92	C	1.168588	-0.697768	-0.249593
H93	H	1.140625	-0.645399	-0.244810
H94	H	1.175582	-0.719039	-0.192513
H95	H	1.224795	-0.689887	-0.276258
O96	O	1.145986	-0.250152	-0.941124
C97	C	1.189198	-0.210428	-0.889075
H98	H	1.190510	-0.239270	-0.835492
H99	H	1.247504	-0.202917	-0.910980
H100	H	1.164523	-0.156974	-0.878666
H101	H	0.975254	-1.070422	-0.442914
O102	O	1.153257	-1.076281	-0.265209
C103	C	1.140121	-1.149040	-0.278346
H104	H	1.115560	-1.159060	-0.335537
H105	H	1.194090	-1.176931	-0.274591
H106	H	1.100094	-1.169963	-0.235534
O107	O	0.973560	-0.931408	-0.444448
C108	C	0.929998	-0.979618	-0.487987
H109	H	0.925295	-1.032037	-0.460051
H110	H	0.872889	-0.958427	-0.494880
H111	H	0.956583	-0.987375	-0.544237
H112	H	0.960490	-0.420562	-0.942274
H113	H	0.946956	-0.740337	-0.470965
