data_functionalizedCrystal
_audit_creation_method	'MofGen! by Chris Wilmer'
_symmetry_space_group_name_H-M	'P1'
_symmetry_Int_Tables_number	1
_symmetry_cell_setting	triclinic
loop_
_symmetry_equiv_pos_as_xyz
  x,y,z
_cell_length_a	10.723023
_cell_length_b	27.731996
_cell_length_c	9.198806
_cell_angle_alpha	89.990861
_cell_angle_beta	89.996513
_cell_angle_gamma	83.544468
loop_
_atom_site_label
_atom_site_type_symbol
_atom_site_fract_x
_atom_site_fract_y
_atom_site_fract_z
O1	O	1.654350	0.067789	-0.120899
O2	O	1.290926	0.074278	-0.120907
O3	O	1.483959	0.000705	-0.120871
O4	O	1.461317	0.141362	-0.120935
O5	O	1.483944	0.000705	0.120914
O6	O	1.290911	0.074278	0.120878
O7	O	1.654335	0.067789	0.120886
Cu8	Cu	1.472622	0.071033	0.142959
Cu9	Cu	1.472640	0.071034	-0.142980
O10	O	1.461302	0.141362	0.120850
C11	C	1.244439	0.073806	-0.000015
C12	C	1.105944	0.072393	-0.000017
C13	C	1.044190	0.071763	0.125234
C14	C	0.901048	0.070303	0.125235
C15	C	1.483487	-0.017305	0.000026
C16	C	1.482086	-0.070970	0.000041
C17	C	1.473280	-0.403741	-0.131827
C18	C	1.467960	-0.605432	-0.131853
O19	O	1.467225	-0.631507	-0.243942
N20	N	1.467291	-0.630654	-0.000057
C21	C	1.467944	-0.605449	0.131754
O22	O	1.467239	-0.631528	0.243854
C23	C	1.473254	-0.403758	0.131779
C24	C	1.473936	-0.378540	-0.000026
C25	C	1.473960	-0.378523	-0.263621
C26	C	1.475297	-0.328103	-0.263613
C27	C	1.475953	-0.302902	-0.131812
C28	C	1.475273	-0.328120	-0.000018
C29	C	1.473898	-0.378553	0.263589
C30	C	1.475223	-0.328127	0.263583
C31	C	1.475905	-0.302909	0.131779
C32	C	1.477266	-0.252500	0.131791
N33	N	1.477935	-0.227278	-0.000005
C34	C	1.477279	-0.252479	-0.131806
C35	C	1.465158	-0.711339	0.131732
C36	C	1.463832	-0.761762	0.131727
C37	C	1.463846	-0.761742	-0.131881
C38	C	1.465181	-0.711319	-0.131874
C39	C	1.465827	-0.686118	-0.000063
C40	C	1.480087	-0.146595	-0.131780
C41	C	1.481429	-0.096171	-0.131760
C42	C	1.481408	-0.096195	0.131847
C43	C	1.480073	-0.146615	0.131828
C44	C	1.479408	-0.171813	0.000003
O45	O	1.477987	-0.226393	0.243822
O46	O	1.477955	-0.226390	-0.243889
C47	C	1.471943	-0.454160	-0.131835
C48	C	1.471263	-0.479379	-0.000041
C49	C	1.471919	-0.454177	0.131760
C50	C	1.469937	-0.529801	-0.000047
C51	C	1.469281	-0.555003	-0.131848
C52	C	1.469950	-0.529781	-0.263644
C53	C	1.471286	-0.479362	-0.263636
C54	C	1.471250	-0.479399	0.263556
C55	C	1.469915	-0.529818	0.263537
C56	C	1.469258	-0.555020	0.131736
C57	C	1.700823	0.068261	-0.000009
C58	C	1.839318	0.069674	-0.000017
C59	C	1.461775	0.159372	-0.000050
C60	C	1.463176	0.213037	-0.000075
N61	N	1.472618	0.071033	0.344073
N62	N	1.472653	0.071030	-0.344094
C63	C	1.553673	0.040005	0.416285
C64	C	1.553692	0.040004	0.583697
H65	H	1.052841	0.071850	-0.107248
H66	H	0.892415	0.070218	-0.107254
O67	O	1.473158	-0.405746	0.405750
H68	H	1.388322	-0.392040	0.468924
O69	O	1.380711	0.106213	0.573659
H70	H	1.432992	0.129804	0.504273
O71	O	1.114514	0.072485	0.267285
H72	H	1.185586	0.040207	0.273519
O73	O	1.645542	0.004808	0.334003
H74	H	1.705890	0.025311	0.264617
H75	H	1.623091	0.013442	0.645797
O76	O	1.380718	0.106227	0.426322
H77	H	1.320375	0.085722	0.495705
H78	H	1.481987	-0.075641	-0.239096
H79	H	0.847940	0.069764	0.232467
H80	H	1.475847	-0.307575	-0.370942
H81	H	1.479539	-0.167105	-0.239124
O82	O	1.471981	-0.452221	0.405720
H83	H	1.471306	-0.478235	0.497352
O84	O	1.465882	-0.684162	0.273908
H85	H	1.465212	-0.710176	0.365539
H86	H	1.473421	-0.399036	-0.370955
O87	O	1.465894	-0.684119	-0.274031
H88	H	1.465205	-0.710118	-0.365674
H89	H	1.463296	-0.782291	0.239055
O90	O	1.463122	-0.788926	-0.274045
H91	H	1.462073	-0.828223	-0.251892
H92	H	1.475730	-0.307611	0.370922
H93	H	1.479530	-0.167149	0.239154
H94	H	1.481949	-0.075668	0.239156
H95	H	1.469421	-0.550309	-0.370962
O96	O	1.472004	-0.452169	-0.405805
H97	H	1.557689	-0.433228	-0.412133
O98	O	1.469177	-0.557016	0.405707
H99	H	1.469844	-0.531016	0.497349
