data_functionalizedCrystal
_audit_creation_method	'MofGen! by Chris Wilmer'
_symmetry_space_group_name_H-M	'P1'
_symmetry_Int_Tables_number	1
_symmetry_cell_setting	triclinic
loop_
_symmetry_equiv_pos_as_xyz
  x,y,z
_cell_length_a	14.519709
_cell_length_b	8.559649
_cell_length_c	12.996460
_cell_angle_alpha	90.005498
_cell_angle_beta	89.992910
_cell_angle_gamma	103.270595
loop_
_atom_site_label
_atom_site_type_symbol
_atom_site_fract_x
_atom_site_fract_y
_atom_site_fract_z
O1	O	-0.031278	-2.120041	-0.085549
O2	O	0.016340	-1.654973	-0.085556
O3	O	-0.142593	-1.899837	-0.085543
O4	O	0.127654	-1.875176	-0.085562
O5	O	-0.142599	-1.899812	0.085591
O6	O	0.016334	-1.654947	0.085578
O7	O	-0.031284	-2.120015	0.085585
Cu8	Cu	-0.007476	-1.887479	0.101207
Cu9	Cu	-0.007469	-1.887509	-0.101178
O10	O	0.127648	-1.875151	0.085572
C11	C	0.019945	-1.595441	0.000010
C12	C	0.030687	-1.418091	0.000008
C13	C	-0.176873	-1.898675	0.000024
C14	C	-0.279007	-1.895231	0.000025
C15	C	-0.034890	-2.179548	0.000017
C16	C	-0.045631	-2.356897	0.000012
C17	C	-0.652993	-1.882552	-0.000002
C18	C	-0.548938	-1.886073	0.000006
C19	C	-0.466003	-1.888891	0.000012
C20	C	-0.361941	-1.892413	0.000018
C21	C	0.161929	-1.876313	0.000003
C22	C	0.264063	-1.879757	-0.000004
N23	N	-0.007482	-1.887469	0.243555
N24	N	-0.007470	-1.887531	-0.243525
C25	C	-0.007468	-1.887507	0.663369
C26	C	-0.007468	-1.887492	0.546564
C27	C	-0.007474	-1.887489	0.453465
C28	C	-0.007476	-1.887472	0.336653
H29	H	-0.119188	-1.440184	0.000012
H30	H	0.104249	-1.334796	-0.000002
