data_functionalizedCrystal
_audit_creation_method	'MofGen! by Chris Wilmer'
_symmetry_space_group_name_H-M	'P1'
_symmetry_Int_Tables_number	1
_symmetry_cell_setting	triclinic
loop_
_symmetry_equiv_pos_as_xyz
  x,y,z
_cell_length_a	6.817900
_cell_length_b	12.200863
_cell_length_c	14.125465
_cell_angle_alpha	94.991681
_cell_angle_beta	100.398878
_cell_angle_gamma	107.143441
loop_
_atom_site_label
_atom_site_type_symbol
_atom_site_fract_x
_atom_site_fract_y
_atom_site_fract_z
V1	V	-4.009714	-0.157727	-0.300074
V2	V	-3.759714	0.092273	-0.050074
V3	V	-3.509714	0.342273	0.199926
V4	V	-3.259714	0.592273	0.449926
O5	O	-3.978506	0.008593	-0.294261
O6	O	-3.728506	0.258593	-0.044261
O7	O	-3.478506	0.508593	0.205739
O8	O	-3.228506	0.758593	0.455739
O9	O	-3.979665	-0.313721	-0.298118
O10	O	-3.729665	-0.063721	-0.048118
O11	O	-3.479665	0.186279	0.201882
O12	O	-3.229665	0.436279	0.451882
O13	O	-3.945521	-0.154856	-0.430902
O14	O	-3.695521	0.095144	-0.180902
O15	O	-3.445521	0.345144	0.069098
O16	O	-3.195521	0.595144	0.319098
O17	O	-4.012886	-0.151372	-0.160558
O18	O	-3.762886	0.098628	0.089442
O19	O	-3.512886	0.348628	0.339442
O20	O	-3.262886	0.598628	0.589442
V21	V	-4.493010	-0.137885	-0.283375
V22	V	-4.243010	0.112115	-0.033375
V23	V	-3.993010	0.362115	0.216625
V24	V	-3.743010	0.612115	0.466625
O25	O	-4.271469	-0.201250	-0.336704
O26	O	-4.021469	0.048750	-0.086704
O27	O	-3.771469	0.298750	0.163296
O28	O	-3.521469	0.548750	0.413296
O29	O	-4.681452	-0.094362	-0.246744
O30	O	-4.431452	0.155638	0.003256
O31	O	-4.181452	0.405638	0.253256
O32	O	-3.931452	0.655638	0.503256
O33	O	-4.299853	0.018109	-0.285330
O34	O	-4.049853	0.268109	-0.035330
O35	O	-3.799853	0.518109	0.214670
O36	O	-3.549853	0.768109	0.464670
O37	O	-4.641615	-0.304206	-0.289187
O38	O	-4.391615	-0.054206	-0.039187
O39	O	-4.141615	0.195794	0.210813
O40	O	-3.891615	0.445794	0.460813
O41	O	-4.607235	-0.144241	-0.422890
O42	O	-4.357235	0.105759	-0.172890
O43	O	-4.107235	0.355759	0.077110
O44	O	-3.857235	0.605759	0.327110
O45	O	-4.333996	-0.140757	-0.152546
O46	O	-4.083996	0.109243	0.097454
O47	O	-3.833996	0.359243	0.347454
O48	O	-3.583996	0.609243	0.597454
C49	C	-3.829641	-0.351763	-0.293409
C50	C	-3.579641	-0.101763	-0.043409
C51	C	-3.329641	0.148237	0.206591
C52	C	-3.079641	0.398237	0.456591
C53	C	-3.886254	-0.479287	-0.292682
C54	C	-3.636254	-0.229287	-0.042682
C55	C	-3.386254	0.020713	0.207318
C56	C	-3.136254	0.270713	0.457318
C57	C	-3.989866	-0.712768	-0.291359
C58	C	-3.739866	-0.462768	-0.041359
C59	C	-3.489866	-0.212768	0.208641
C60	C	-3.239866	0.037232	0.458641
C61	C	-3.932201	-0.582843	-0.292096
C62	C	-3.682201	-0.332843	-0.042096
C63	C	-3.432201	-0.082843	0.207904
C64	C	-3.182201	0.167157	0.457904
C65	C	-3.786086	-0.149113	-0.462787
C66	C	-3.536086	0.100887	-0.212787
C67	C	-3.286086	0.350887	0.037213
C68	C	-3.036086	0.600887	0.287213
C69	C	-3.815006	-0.147798	-0.569740
C70	C	-3.565006	0.102202	-0.319740
C71	C	-3.315006	0.352202	-0.069740
C72	C	-3.065006	0.602202	0.180260
C73	C	-3.868015	-0.145386	-0.765562
C74	C	-3.618015	0.104614	-0.515562
C75	C	-3.368015	0.354614	-0.265562
C76	C	-3.118015	0.604614	-0.015562
C77	C	-4.054077	-0.150224	-0.817886
C78	C	-3.804077	0.099776	-0.567886
C79	C	-3.554077	0.349776	-0.317886
C80	C	-3.304077	0.599776	-0.067886
C81	C	-4.083574	-0.148882	-0.926848
C82	C	-3.833574	0.101118	-0.676848
C83	C	-3.583574	0.351118	-0.426848
C84	C	-3.333574	0.601118	-0.176848
C85	C	-3.838511	-0.146728	-0.656590
C86	C	-3.588511	0.103272	-0.406590
C87	C	-3.338511	0.353272	-0.156590
C88	C	-3.088511	0.603272	0.093410
C89	C	-4.113220	0.056144	-0.290036
C90	C	-3.863220	0.306144	-0.040036
C91	C	-3.613220	0.556144	0.209964
C92	C	-3.363220	0.806144	0.459964
C93	C	-4.035844	0.183668	-0.290769
C94	C	-3.785844	0.433668	-0.040769
C95	C	-3.535844	0.683668	0.209231
C96	C	-3.285844	0.933668	0.459231
C97	C	-4.156774	-0.146503	-0.120656
C98	C	-3.906774	0.103497	0.129344
C99	C	-3.656774	0.353497	0.379344
C100	C	-3.406774	0.603497	0.629344
C101	C	-4.107092	-0.147812	-0.013702
C102	C	-3.857092	0.102188	0.236298
C103	C	-3.607092	0.352188	0.486298
C104	C	-3.357092	0.602188	0.736298
H105	H	-4.191223	-0.155386	-0.780851
H106	H	-3.941223	0.094614	-0.530851
H107	H	-3.691223	0.344614	-0.280851
H108	H	-3.441223	0.594614	-0.030851
F109	F	-3.688779	-0.138664	-0.813970
F110	F	-3.438779	0.111336	-0.563970
F111	F	-3.188779	0.361336	-0.313970
F112	F	-2.938779	0.611336	-0.063970
