data_functionalizedCrystal
_audit_creation_method	'MofGen! by Chris Wilmer'
_symmetry_space_group_name_H-M	'P1'
_symmetry_Int_Tables_number	1
_symmetry_cell_setting	triclinic
loop_
_symmetry_equiv_pos_as_xyz
  x,y,z
_cell_length_a	12.594517
_cell_length_b	12.594516
_cell_length_c	21.395356
_cell_angle_alpha	89.978924
_cell_angle_beta	89.993050
_cell_angle_gamma	90.011939
loop_
_atom_site_label
_atom_site_type_symbol
_atom_site_fract_x
_atom_site_fract_y
_atom_site_fract_z
Zn1	Zn	1.627219	-0.423881	-0.354133
Zn2	Zn	1.960553	-0.090547	-0.020799
Zn3	Zn	2.293886	0.242786	0.312534
Zn4	Zn	1.627124	-0.601875	-0.249368
Zn5	Zn	1.960458	-0.268542	0.083965
Zn6	Zn	2.293791	0.064792	0.417298
Zn7	Zn	1.449237	-0.423898	-0.249387
Zn8	Zn	1.782571	-0.090565	0.083946
Zn9	Zn	2.115904	0.242768	0.417280
Zn10	Zn	1.449205	-0.601805	-0.354126
Zn11	Zn	1.782539	-0.268472	-0.020793
Zn12	Zn	2.115872	0.064862	0.312541
O13	O	1.538197	-0.512865	-0.301754
O14	O	1.871530	-0.179531	0.031580
O15	O	2.204863	0.153802	0.364913
O16	O	1.776152	-0.447514	-0.340231
O17	O	2.109486	-0.114181	-0.006897
O18	O	2.442819	0.219152	0.326436
O19	O	1.603501	-0.578303	-0.161693
O20	O	1.936834	-0.244969	0.171640
O21	O	2.270167	0.088364	0.504974
O22	O	1.472900	-0.274950	-0.263292
O23	O	1.806233	0.058383	0.070041
O24	O	2.139567	0.391717	0.403374
O25	O	1.776083	-0.578286	-0.263261
O26	O	2.109416	-0.244953	0.070073
O27	O	2.442749	0.088381	0.403406
O28	O	1.603663	-0.274937	-0.340249
O29	O	1.936996	0.058396	-0.006915
O30	O	2.270329	0.391729	0.326418
O31	O	1.472808	-0.447544	-0.161707
O32	O	1.806141	-0.114211	0.171627
O33	O	2.139475	0.219123	0.504960
O34	O	1.300287	-0.447476	-0.263286
O35	O	1.633621	-0.114142	0.070048
O36	O	1.966954	0.219191	0.403381
O37	O	1.472846	-0.578166	-0.441805
O38	O	1.806179	-0.244833	-0.108471
O39	O	2.139512	0.088500	0.224862
O40	O	1.300264	-0.578183	-0.340237
O41	O	1.633597	-0.244850	-0.006904
O42	O	1.966931	0.088484	0.326430
O43	O	1.603632	-0.447446	-0.441810
O44	O	1.936965	-0.114113	-0.108476
O45	O	2.270299	0.219221	0.224857
O46	O	1.603470	-0.750812	-0.263254
O47	O	1.936803	-0.417478	0.070079
O48	O	2.270136	-0.084145	0.403413
O49	O	1.472754	-0.750760	-0.340219
O50	O	1.806087	-0.417427	-0.006886
O51	O	2.139420	-0.084093	0.326448
C52	C	1.261656	-0.512825	-0.301763
C53	C	1.594989	-0.179491	0.031570
C54	C	1.928322	0.153842	0.364904
C55	C	1.143350	-0.512833	-0.301782
C56	C	1.476684	-0.179500	0.031551
C57	C	1.810017	0.153834	0.364885
C58	C	1.074115	-0.584064	-0.343555
C59	C	1.407449	-0.250730	-0.010222
C60	C	1.740782	0.082603	0.323112
C61	C	1.003305	-0.487020	-0.358963
C62	C	1.336638	-0.153687	-0.025629
C63	C	1.669971	0.179646	0.307704
C64	C	1.003362	-0.609957	-0.286360
C65	C	1.336695	-0.276623	0.046973
C66	C	1.670028	0.056710	0.380306
C67	C	1.074098	-0.415738	-0.317220
C68	C	1.407431	-0.082404	0.016113
C69	C	1.740764	0.250929	0.349447
C70	C	1.074161	-0.538740	-0.244591
C71	C	1.407495	-0.205406	0.088743
C72	C	1.740828	0.127927	0.422076
C73	C	1.003383	-0.441629	-0.259977
C74	C	1.336716	-0.108296	0.073357
C75	C	1.670049	0.225038	0.406690
C76	C	1.538127	-0.789406	-0.301747
C77	C	1.871460	-0.456072	0.031586
C78	C	2.204793	-0.122739	0.364919
C79	C	1.538194	-0.907711	-0.301766
C80	C	1.871528	-0.574378	0.031568
C81	C	2.204861	-0.241044	0.364901
C82	C	1.467091	-0.976975	-0.343598
C83	C	1.800424	-0.643642	-0.010264
C84	C	2.133758	-0.310308	0.323069
C85	C	1.441165	-1.047830	-0.286428
C86	C	1.774499	-0.714496	0.046905
C87	C	2.107832	-0.381163	0.380239
C88	C	1.564217	-1.047655	-0.358945
C89	C	1.897550	-0.714322	-0.025612
C90	C	2.230884	-0.380989	0.307722
C91	C	1.512217	-0.977008	-0.244566
C92	C	1.845551	-0.643674	0.088767
C93	C	2.178884	-0.310341	0.422101
C94	C	1.635314	-0.976827	-0.317121
C95	C	1.968648	-0.643494	0.016212
C96	C	2.301981	-0.310160	0.349545
C97	C	1.609426	-1.047650	-0.259913
C98	C	1.942759	-0.714317	0.073421
C99	C	2.276092	-0.380983	0.406754
C100	C	1.815817	-0.512906	-0.301744
C101	C	2.149151	-0.179573	0.031589
C102	C	2.482484	0.153761	0.364922
C103	C	1.934123	-0.512923	-0.301740
C104	C	2.267456	-0.179590	0.031593
C105	C	2.600789	0.153743	0.364926
C106	C	1.538296	-0.235244	-0.301773
C107	C	1.871629	0.098089	0.031560
C108	C	2.204962	0.431423	0.364893
C109	C	1.538338	-0.116938	-0.301782
C110	C	1.871671	0.216395	0.031551
C111	C	2.205004	0.549728	0.364885
C112	C	1.538246	-0.512796	-0.465177
C113	C	1.871579	-0.179463	-0.131844
C114	C	2.204913	0.153870	0.201490
C115	C	1.538267	-0.512767	-0.534818
C116	C	1.871600	-0.179434	-0.201485
C117	C	2.204934	0.153899	0.131849
C118	C	1.606467	-0.444532	-1.036618
C119	C	1.939801	-0.111198	-0.703285
C120	C	2.273134	0.222135	-0.369951
C121	C	1.606459	-0.444557	-0.971183
C122	C	1.939792	-0.111224	-0.637849
C123	C	2.273126	0.222109	-0.304516
C124	C	1.538358	-0.512625	-0.938457
C125	C	1.871691	-0.179292	-0.605123
C126	C	2.205025	0.154041	-0.271790
C127	C	1.470280	-0.580692	-0.971171
C128	C	1.803613	-0.247359	-0.637838
C129	C	2.136947	0.085974	-0.304505
C130	C	1.470298	-0.580672	-1.036606
C131	C	1.803631	-0.247339	-0.703272
C132	C	2.136965	0.085994	-0.369939
C133	C	1.442432	-0.521048	-0.834791
C134	C	1.775765	-0.187714	-0.501457
C135	C	2.109098	0.145619	-0.168124
C136	C	1.442412	-0.521060	-0.769358
C137	C	1.775745	-0.187727	-0.436024
C138	C	2.109079	0.145606	-0.102691
C139	C	1.538304	-0.512694	-0.736636
C140	C	1.871637	-0.179360	-0.403302
C141	C	2.204970	0.153973	-0.069969
C142	C	1.634218	-0.504292	-0.769355
C143	C	1.967551	-0.170958	-0.436022
C144	C	2.300885	0.162375	-0.102688
C145	C	1.634236	-0.504272	-0.834789
C146	C	1.967569	-0.170938	-0.501456
C147	C	2.300902	0.162395	-0.168123
C148	C	1.538332	-0.512655	-0.867504
C149	C	1.871665	-0.179322	-0.534171
C150	C	2.204998	0.154011	-0.200838
C151	C	1.606374	-0.444664	-0.632976
C152	C	1.939707	-0.111331	-0.299643
C153	C	2.273040	0.222003	0.033690
C154	C	1.606367	-0.444697	-0.567540
C155	C	1.939700	-0.111364	-0.234206
C156	C	2.273034	0.221969	0.099127
C157	C	1.470179	-0.580827	-0.567530
C158	C	1.803512	-0.247493	-0.234196
C159	C	2.136845	0.085840	0.099137
C160	C	1.470195	-0.580799	-0.632965
C161	C	1.803528	-0.247466	-0.299632
C162	C	2.136861	0.085868	0.033702
C163	C	1.538291	-0.512712	-0.665684
C164	C	1.871624	-0.179379	-0.332351
C165	C	2.204957	0.153955	0.000982
C166	C	1.538209	-0.512856	-0.138966
C167	C	1.871542	-0.179523	0.194367
C168	C	2.204875	0.153811	0.527701
C169	C	1.538394	-0.512585	-0.069325
C170	C	1.871727	-0.179252	0.264008
C171	C	2.205061	0.154081	0.597342
H172	H	0.972284	-0.692054	-0.273336
H173	H	1.305618	-0.358721	0.059998
H174	H	1.638951	-0.025388	0.393331
Cl175	Cl	1.384609	-0.666355	-0.674085
Cl176	Cl	1.717943	-0.333022	-0.340751
Cl177	Cl	2.051276	0.000312	-0.007418
Cl178	Cl	1.122071	-0.676891	-0.398162
Cl179	Cl	1.455404	-0.343557	-0.064828
Cl180	Cl	1.788737	-0.010224	0.268505
Cl181	Cl	1.314456	-1.095979	-0.266378
Cl182	Cl	1.647790	-0.762646	0.066955
Cl183	Cl	1.981123	-0.429313	0.400288
H184	H	1.414734	-0.636253	-0.540885
H185	H	1.748067	-0.302920	-0.207551
H186	H	2.081400	0.030414	0.125782
H187	H	1.661921	-0.389095	-1.063254
H188	H	1.995255	-0.055761	-0.729921
H189	H	2.328588	0.277572	-0.396588
H190	H	1.717361	-0.945619	-0.330124
H191	H	2.050695	-0.612285	0.003210
H192	H	2.384028	-0.278952	0.336543
H193	H	1.490170	-0.946103	-0.196203
H194	H	1.823504	-0.612770	0.137130
H195	H	2.156837	-0.279437	0.470463
Cl196	Cl	1.702359	-1.095263	-0.205246
Cl197	Cl	2.035693	-0.761929	0.128088
Cl198	Cl	2.369026	-0.428596	0.461421
H199	H	1.364313	-0.527901	-0.742723
H200	H	1.697647	-0.194567	-0.409389
H201	H	2.030980	0.138766	-0.076056
H202	H	1.586169	-1.078688	-0.407294
H203	H	1.919503	-0.745355	-0.073961
H204	H	2.252836	-0.412021	0.259372
H205	H	0.972181	-0.465140	-0.407311
H206	H	1.305515	-0.131807	-0.073977
H207	H	1.638848	0.201527	0.259356
Cl208	Cl	0.955728	-0.348584	-0.205408
Cl209	Cl	1.289062	-0.015251	0.127925
Cl210	Cl	1.622395	0.318083	0.461258
H211	H	1.364340	-0.527862	-0.861427
H212	H	1.697673	-0.194529	-0.528094
H213	H	2.031006	0.138805	-0.194761
H214	H	1.661892	-0.389136	-0.944548
H215	H	1.995225	-0.055803	-0.611214
H216	H	2.328559	0.277531	-0.277881
Cl217	Cl	1.754808	-0.493726	-0.875920
Cl218	Cl	2.088142	-0.160393	-0.542586
Cl219	Cl	2.421475	0.172941	-0.209253
H220	H	1.712302	-0.497475	-0.742714
H221	H	2.045635	-0.164142	-0.409381
H222	H	2.378968	0.169192	-0.076048
H223	H	1.414834	-0.636116	-0.944522
H224	H	1.748167	-0.302782	-0.611188
H225	H	2.081500	0.030551	-0.277855
Cl226	Cl	1.691960	-0.359053	-0.674112
Cl227	Cl	2.025293	-0.025719	-0.340779
Cl228	Cl	2.358626	0.307614	-0.007446
Cl229	Cl	1.121863	-0.288946	-0.337418
Cl230	Cl	1.455196	0.044387	-0.004084
Cl231	Cl	1.788530	0.377721	0.329249
H232	H	1.661808	-0.389283	-0.540911
H233	H	1.995141	-0.055949	-0.207577
H234	H	2.328475	0.277384	0.125756
Cl235	Cl	1.122215	-0.572546	-0.169954
Cl236	Cl	1.455549	-0.239213	0.163379
Cl237	Cl	1.788882	0.094120	0.496712
Cl238	Cl	1.374095	-0.929057	-0.398136
Cl239	Cl	1.707428	-0.595724	-0.064803
Cl240	Cl	2.040761	-0.262390	0.268530
H241	H	1.414863	-0.636092	-1.063235
H242	H	1.748196	-0.302758	-0.729902
H243	H	2.081529	0.030575	-0.396569
