data_functionalizedCrystal
_audit_creation_method	'MofGen! by Chris Wilmer'
_symmetry_space_group_name_H-M	'P1'
_symmetry_Int_Tables_number	1
_symmetry_cell_setting	triclinic
loop_
_symmetry_equiv_pos_as_xyz
  x,y,z
_cell_length_a	10.540539
_cell_length_b	12.837942
_cell_length_c	11.892095
_cell_angle_alpha	85.697431
_cell_angle_beta	93.936265
_cell_angle_gamma	89.677216
loop_
_atom_site_label
_atom_site_type_symbol
_atom_site_fract_x
_atom_site_fract_y
_atom_site_fract_z
O1	O	-1.709268	-0.139649	-0.093949
O2	O	-1.209268	0.360351	0.406051
O3	O	-1.341370	-0.153424	-0.093963
O4	O	-0.841370	0.346576	0.406037
O5	O	-1.517161	0.004426	-0.093949
O6	O	-1.017161	0.504426	0.406051
O7	O	-1.533478	-0.297499	-0.093962
O8	O	-1.033478	0.202501	0.406038
O9	O	-1.502501	-0.008715	0.094057
O10	O	-1.002501	0.491285	0.594057
O11	O	-1.326711	-0.166565	0.094044
O12	O	-0.826711	0.333435	0.594044
O13	O	-1.694609	-0.152790	0.094058
O14	O	-1.194609	0.347210	0.594058
Zn15	Zn	-1.508332	-0.161764	0.123901
Zn16	Zn	-1.008332	0.338236	0.623901
Zn17	Zn	-1.527647	-0.144450	-0.123806
Zn18	Zn	-1.027647	0.355550	0.376194
O19	O	-1.518818	-0.310640	0.094044
O20	O	-1.018818	0.189360	0.594044
C21	C	-1.286624	-0.158961	0.000039
C22	C	-0.786624	0.341039	0.500039
C23	C	-1.145337	-0.155870	0.000034
C24	C	-0.645337	0.344130	0.500034
C25	C	-1.504320	0.036517	0.000053
C26	C	-1.004320	0.536517	0.500053
C27	C	-1.487882	0.151716	0.000051
C28	C	-0.987882	0.651716	0.500051
C29	C	-1.749355	-0.147252	0.000054
C30	C	-1.249355	0.352748	0.500054
C31	C	-1.890643	-0.150343	0.000051
C32	C	-1.390643	0.349657	0.500051
C33	C	-0.948862	-0.037458	0.000478
C34	C	-0.448862	0.462542	0.500478
C35	C	-1.095859	-0.040561	0.000042
C36	C	-0.595859	0.459439	0.500042
C37	C	-1.098132	-0.203858	-0.107325
C38	C	-0.598132	0.296142	0.392675
C39	C	-0.951161	-0.199917	-0.107404
C40	C	-0.451161	0.300083	0.392596
C41	C	-0.934260	-0.217206	0.106395
C42	C	-0.434260	0.282794	0.606395
C43	C	-1.081249	-0.218367	0.107802
C44	C	-0.581249	0.281633	0.607802
C45	C	-1.531660	-0.342731	0.000039
C46	C	-1.031660	0.157269	0.500039
C47	C	-1.548098	-0.457929	0.000034
C48	C	-1.048098	0.042071	0.500034
N49	N	-1.495160	-0.173579	0.292954
N50	N	-0.995160	0.326421	0.792954
C51	C	-1.685501	0.391213	0.000035
C52	C	-1.185501	0.891213	0.500035
C53	C	-1.670062	0.499453	0.000032
C54	C	-1.170062	0.999453	0.500032
C55	C	-1.441566	0.476440	0.000035
C56	C	-0.941566	0.976440	0.500035
C57	C	-1.457005	0.368200	0.000038
C58	C	-0.957005	0.868200	0.500038
C59	C	-1.578976	0.325590	0.000039
C60	C	-1.078976	0.825590	0.500039
C61	C	-1.594414	0.217347	0.000050
C62	C	-1.094414	0.717347	0.500050
C63	C	-1.365919	0.194337	0.000045
C64	C	-0.865919	0.694337	0.500045
C65	C	-1.350480	0.302577	0.000042
C66	C	-0.850480	0.802577	0.500042
N67	N	-1.540828	-0.132626	-0.292859
N68	N	-1.040828	0.367374	0.207141
C69	C	-1.632482	-0.050349	0.529612
C70	C	-1.132482	0.449651	1.029612
C71	C	-1.623284	-0.058616	0.647953
C72	C	-1.123284	0.441384	1.147953
C73	C	-1.467562	-0.198373	0.647979
C74	C	-0.967562	0.301627	1.147979
C75	C	-1.476759	-0.190107	0.529638
C76	C	-0.976759	0.309893	1.029638
C77	C	-1.559223	-0.116093	0.470459
C78	C	-1.059223	0.383907	0.970459
C79	C	-1.568426	-0.107832	0.352115
C80	C	-1.068426	0.392168	0.852115
C81	C	-1.412698	-0.247584	0.352144
C82	C	-0.912698	0.252416	0.852144
C83	C	-1.403500	-0.255851	0.470485
C84	C	-0.903500	0.244149	0.970485
H85	H	-1.127675	-0.002277	0.077002
H86	H	-0.627675	0.497723	0.577002
H87	H	-1.342263	0.511153	0.000022
H88	H	-0.842263	1.011153	0.500022
H89	H	-1.784814	0.356519	0.000047
H90	H	-1.284814	0.856519	0.500047
H91	H	-1.400412	-0.258626	0.696179
H92	H	-0.900412	0.241374	1.196179
H93	H	-0.909269	0.002714	0.077471
H94	H	-0.409269	0.502714	0.577471
H95	H	-0.912683	-0.282505	-0.112280
H96	H	-0.412683	0.217495	0.387720
H97	H	-1.699636	0.009908	0.481428
H98	H	-1.199636	0.509908	0.981428
H99	H	-1.279178	0.140894	0.000057
H100	H	-0.779178	0.640894	0.500057
H101	H	-1.353050	-0.301120	0.303968
H102	H	-0.853050	0.198880	0.803968
H103	H	-1.251174	0.337285	0.000037
H104	H	-0.751174	0.837285	0.500037
H105	H	-1.336356	-0.316109	0.518682
H106	H	-0.836356	0.183891	1.018682
H107	H	-0.919641	0.013254	-0.076083
H108	H	-0.419641	0.513254	0.423917
H109	H	-1.138784	0.008798	-0.077047
H110	H	-0.638784	0.508798	0.422953
H111	H	-1.635576	-0.047570	0.303933
H112	H	-1.135576	0.452430	0.803933
H113	H	-1.682937	-0.005079	0.696113
H114	H	-1.182937	0.494921	1.196113
H115	H	-0.924702	-0.153295	-0.187652
H116	H	-0.424702	0.346705	0.312348
H117	H	-1.111564	-0.183380	0.187226
H118	H	-0.611564	0.316620	0.687226
H119	H	-1.142715	-0.159725	-0.187221
H120	H	-0.642715	0.340275	0.312779
H121	H	-1.130100	-0.288258	-0.111324
H122	H	-0.630100	0.211742	0.388676
H123	H	-0.892268	-0.185577	0.187772
H124	H	-0.392268	0.314423	0.687772
H125	H	-1.114206	-0.302888	0.114280
H126	H	-0.614206	0.197112	0.614280
H127	H	-1.756807	0.552880	0.000025
H128	H	-1.256807	1.052880	0.500025
H129	H	-1.693729	0.182656	0.000055
H130	H	-1.193729	0.682656	0.500055
H131	H	-0.896127	-0.300544	0.107116
H132	H	-0.396127	0.199456	0.607116
