data_functionalizedCrystal
_audit_creation_method	'MofGen! by Chris Wilmer'
_symmetry_space_group_name_H-M	'P1'
_symmetry_Int_Tables_number	1
_symmetry_cell_setting	triclinic
loop_
_symmetry_equiv_pos_as_xyz
  x,y,z
_cell_length_a	16.120490
_cell_length_b	16.120531
_cell_length_c	16.120297
_cell_angle_alpha	84.389419
_cell_angle_beta	90.129683
_cell_angle_gamma	89.829344
loop_
_atom_site_label
_atom_site_type_symbol
_atom_site_fract_x
_atom_site_fract_y
_atom_site_fract_z
Zn1	Zn	1.224942	0.422327	-0.554758
Zn2	Zn	1.724942	0.922327	-0.054758
Zn3	Zn	1.224822	0.555010	-0.422054
Zn4	Zn	1.724822	1.055010	0.077946
Zn5	Zn	1.093682	0.408236	-0.408005
Zn6	Zn	1.593682	0.908236	0.091995
Zn7	Zn	1.078819	0.554234	-0.553990
Zn8	Zn	1.578819	1.054234	-0.053990
O9	O	1.155566	0.484952	-0.484702
O10	O	1.655566	0.984952	0.015298
O11	O	1.340961	0.446149	-0.543356
O12	O	1.840961	0.946149	-0.043356
O13	O	1.213596	0.529967	-0.303558
O14	O	1.713596	1.029967	0.196442
O15	O	1.117365	0.293476	-0.421914
O16	O	1.617365	0.793476	0.078086
O17	O	1.340873	0.543631	-0.445859
O18	O	1.840873	1.043631	0.054141
O19	O	1.213800	0.303828	-0.529733
O20	O	1.713800	0.803828	-0.029733
O21	O	1.117249	0.422133	-0.293236
O22	O	1.617249	0.922133	0.206764
O23	O	0.975675	0.421381	-0.421169
O24	O	1.475675	0.921381	0.078831
O25	O	1.092032	0.542309	-0.670724
O26	O	1.592032	1.042309	-0.170724
O27	O	0.964755	0.528645	-0.528424
O28	O	1.464755	1.028645	-0.028424
O29	O	1.199388	0.445397	-0.671289
O30	O	1.699388	0.945397	-0.171289
O31	O	1.199184	0.671536	-0.445114
O32	O	1.699184	1.171536	0.054886
O33	O	1.091916	0.670966	-0.542047
O34	O	1.591916	1.170966	-0.042047
C35	C	0.940129	0.473401	-0.473189
C36	C	1.440129	0.973401	0.026811
C37	C	0.847961	0.468480	-0.468284
C38	C	1.347961	0.968480	0.031716
C39	C	0.632762	0.510469	-0.510144
C40	C	1.132762	1.010469	-0.010144
C41	C	0.679215	0.459504	-0.459329
C42	C	1.179215	0.959504	0.040671
C43	C	0.773114	0.464500	-0.464313
C44	C	1.273114	0.964500	0.035687
C45	C	0.538854	0.505474	-0.505161
C46	C	1.038854	1.005474	-0.005161
C47	C	1.143946	0.701494	-0.495041
C48	C	1.643946	1.201494	0.004959
C49	C	1.139049	0.794137	-0.499496
C50	C	1.639049	1.294137	0.000504
C51	C	1.130113	0.963758	-0.507647
C52	C	1.630113	1.463758	-0.007647
C53	C	1.181054	1.005304	-0.461711
C54	C	1.681054	1.505304	0.038289
C55	C	1.176082	1.099687	-0.466246
C56	C	1.676082	1.599687	0.033754
C57	C	1.135084	0.869367	-0.503113
C58	C	1.635084	1.369367	-0.003113
C59	C	1.371845	0.496548	-0.496261
C60	C	1.871845	0.996548	0.003739
C61	C	1.464010	0.501490	-0.501186
C62	C	1.964010	1.001490	-0.001186
C63	C	1.144066	0.495339	-0.702094
C64	C	1.644066	0.995339	-0.202094
C65	C	1.139165	0.499765	-0.794733
C66	C	1.639165	0.999765	-0.294733
C67	C	1.167225	1.267564	-0.474325
C68	C	1.667225	1.767564	0.025675
C69	C	1.172120	1.174920	-0.469860
C70	C	1.672120	1.674920	0.030140
C71	C	1.130187	0.507826	-0.964344
C72	C	1.630187	1.007826	-0.464344
C73	C	1.181122	0.461836	-1.005908
C74	C	1.681122	0.961836	-0.505908
C75	C	1.176127	0.466321	-1.100286
C76	C	1.676127	0.966321	-0.600286
C77	C	1.135181	0.503342	-0.869958
C78	C	1.635181	1.003342	-0.369958
C79	C	1.167073	0.474547	-0.268156
C80	C	1.667073	0.974547	0.231844
C81	C	1.172147	0.469895	-0.175514
C82	C	1.672147	0.969895	0.324486
H83	H	0.648464	0.412119	-0.412080
H84	H	1.148464	0.912119	0.087920
H85	H	0.663511	0.557851	-0.557388
H86	H	1.163511	1.057851	-0.057388
H87	H	1.082769	0.999071	-0.550376
H88	H	1.582769	1.499071	-0.050376
F89	F	1.242938	0.959147	-0.405853
F90	F	1.742938	1.459147	0.094147
F91	F	1.243036	0.405984	-0.959779
F92	F	1.743036	0.905984	-0.459779
H93	H	1.082834	0.550565	-0.999637
H94	H	1.582834	1.050565	-0.499637
