data_functionalizedCrystal
_audit_creation_method	'MofGen! by Chris Wilmer'
_symmetry_space_group_name_H-M	'P1'
_symmetry_Int_Tables_number	1
_symmetry_cell_setting	triclinic
loop_
_symmetry_equiv_pos_as_xyz
  x,y,z
_cell_length_a	6.817900
_cell_length_b	15.300992
_cell_length_c	16.305550
_cell_angle_alpha	95.166545
_cell_angle_beta	103.455250
_cell_angle_gamma	104.175078
loop_
_atom_site_label
_atom_site_type_symbol
_atom_site_fract_x
_atom_site_fract_y
_atom_site_fract_z
V1	V	-4.029797	-0.125520	-0.263287
O2	O	-4.013693	0.005249	-0.258014
O3	O	-3.984717	-0.248132	-0.261738
O4	O	-3.981158	-0.123933	-0.378001
O5	O	-4.017276	-0.119810	-0.140946
V6	V	-4.513025	-0.109838	-0.248623
O7	O	-4.291701	-0.159920	-0.295453
O8	O	-4.701319	-0.075438	-0.216458
O9	O	-4.334899	0.012774	-0.250173
O10	O	-4.646526	-0.240606	-0.253897
O11	O	-4.642943	-0.115548	-0.370965
O12	O	-4.338458	-0.111425	-0.133910
C13	C	-3.830533	-0.278011	-0.257649
C14	C	-3.874959	-0.378250	-0.257147
C15	C	-3.855351	-0.412241	-0.179629
C16	C	-3.897115	-0.506427	-0.179161
C17	C	-3.958472	-0.566620	-0.256210
C18	C	-3.978087	-0.532623	-0.333734
C19	C	-3.936338	-0.438439	-0.334202
C20	C	-4.065097	-0.728931	-0.332752
C21	C	-4.106845	-0.823122	-0.332284
C22	C	-4.025874	-0.796920	-0.177711
C23	C	-3.984125	-0.702736	-0.178179
C24	C	-4.003739	-0.668745	-0.255703
C25	C	-3.825992	-0.119582	-0.405953
C26	C	-3.867530	-0.119095	-0.499734
C27	C	-4.018564	-0.117211	-0.840476
C28	C	-3.782358	-0.111616	-0.799536
C29	C	-3.739189	-0.112495	-0.702043
C30	C	-3.943633	-0.118145	-0.671430
C31	C	-4.113185	-0.207199	-0.722238
C32	C	-4.155034	-0.206696	-0.819786
C33	C	-4.070978	-0.034464	-0.794464
C34	C	-4.023029	-0.033759	-0.696620
C35	C	-3.901298	-0.118677	-0.575893
C36	C	-4.060908	-0.116686	-0.936014
C37	C	-4.152425	0.042649	-0.254259
C38	C	-4.087237	0.142887	-0.254767
C39	C	-4.156966	-0.115779	-0.105953
C40	C	-4.094666	-0.116261	-0.012171
H41	H	-3.610880	-0.048465	-0.666889
N42	N	-4.173022	-0.888047	-0.415385
H43	H	-4.179128	-0.852225	-0.464567
H44	H	-4.316034	-0.930826	-0.421418
N45	N	-3.947394	0.054919	-0.811987
H46	H	-3.856172	0.042675	-0.849936
H47	H	-3.856170	0.093445	-0.756300
H48	H	-3.881150	-0.534098	-0.116038
H49	H	-3.674464	-0.172631	-0.685871
N50	N	-3.917931	-0.637831	-0.095065
H51	H	-4.022718	-0.601295	-0.094670
H52	H	-3.774837	-0.595103	-0.088991
H53	H	-4.009897	-0.824599	-0.114588
H54	H	-3.674399	-0.047284	-0.811768
N55	N	-3.860213	0.053498	-0.650925
H56	H	-3.735540	0.038439	-0.614056
H57	H	-3.922652	0.089317	-0.613915
N58	N	-3.789128	-0.347321	-0.096524
H59	H	-3.783040	-0.383150	-0.047346
H60	H	-3.893957	-0.310795	-0.096211
H61	H	-3.952328	-0.410766	-0.397325
N62	N	-4.086262	-0.692267	-0.416366
H63	H	-4.131460	-0.744688	-0.465106
H64	H	-3.946770	-0.650630	-0.417056
H65	H	-4.120662	-0.269338	-0.850295
N66	N	-4.385582	-0.217034	-0.856893
H67	H	-4.459603	-0.221902	-0.809869
H68	H	-4.447832	-0.273998	-0.900948
N69	N	-4.044270	-0.597554	-0.416831
H70	H	-3.930782	-0.583764	-0.447836
H71	H	-4.178676	-0.589996	-0.453504
H72	H	-4.266549	-0.214555	-0.703340
N73	N	-3.724838	-0.190364	-0.841426
H74	H	-3.851122	-0.229646	-0.886809
H75	H	-3.677285	-0.228078	-0.797021
N76	N	-4.042131	-0.290204	-0.700140
H77	H	-3.900240	-0.270319	-0.657257
H78	H	-4.031913	-0.325754	-0.753527
H79	H	-4.170285	-0.032651	-0.675270
H80	H	-4.243137	-0.037771	-0.821286
