data_functionalizedCrystal
_audit_creation_method	'MofGen! by Chris Wilmer'
_symmetry_space_group_name_H-M	'P1'
_symmetry_Int_Tables_number	1
_symmetry_cell_setting	triclinic
loop_
_symmetry_equiv_pos_as_xyz
  x,y,z
_cell_length_a	34.408637
_cell_length_b	34.407814
_cell_length_c	34.404193
_cell_angle_alpha	60.004510
_cell_angle_beta	60.009006
_cell_angle_gamma	59.994604
loop_
_atom_site_label
_atom_site_type_symbol
_atom_site_fract_x
_atom_site_fract_y
_atom_site_fract_z
O1	O	0.053973	-0.567860	0.474801
O2	O	0.020377	-0.442124	0.382567
O3	O	0.100004	-0.521670	0.382483
O4	O	-0.025653	-0.488314	0.474886
O5	O	0.126426	-0.495253	0.408816
O6	O	0.046800	-0.415707	0.408900
O7	O	0.080396	-0.541443	0.501134
Zn8	Zn	0.067793	-0.474381	0.459198
Zn9	Zn	0.032980	-0.509186	0.424503
O10	O	0.000769	-0.461897	0.501219
N11	N	0.091552	-0.450631	0.482879
N12	N	0.009225	-0.532940	0.400823
C13	C	0.142848	-0.268847	0.534081
C14	C	0.142979	-0.399386	0.664559
C15	C	0.142862	-0.399365	0.534081
C16	C	0.273409	-0.399338	0.533986
C17	C	0.157225	-0.311914	0.548422
C18	C	0.157300	-0.385019	0.621491
C19	C	0.230339	-0.384991	0.548370
C20	C	0.157235	-0.385007	0.548422
C21	C	0.124548	-0.214028	0.515827
C22	C	0.124571	-0.417639	0.515827
C23	C	0.175526	-0.366733	0.566676
C24	C	0.353121	-0.385580	0.491988
C25	C	0.402952	-0.402180	0.475348
C26	C	0.402981	-0.482812	0.506096
C27	C	0.353151	-0.466211	0.522737
C28	C	0.136544	-0.189099	0.466839
C29	C	0.119905	-0.139265	0.450247
C30	C	0.079280	-0.139291	0.531632
C31	C	0.095918	-0.189125	0.548224
C32	C	0.075577	-0.405615	0.527900
C33	C	0.058953	-0.422228	0.511301
C34	C	0.140315	-0.462889	0.470566
C35	C	0.156941	-0.446276	0.487159
C36	C	0.075772	-0.405653	0.744326
C37	C	0.059206	-0.422280	0.794159
C38	C	0.140607	-0.462951	0.794094
C39	C	0.157172	-0.446325	0.744260
C40	C	0.124753	-0.417674	0.719377
C41	C	0.328223	-0.417595	0.515681
C42	C	-0.172390	-0.583988	0.349141
C43	C	-0.041751	-0.584138	0.218783
C44	C	-0.041941	-0.584130	0.349402
C45	C	-0.041957	-0.714607	0.349338
C46	C	-0.129326	-0.598388	0.334853
C47	C	-0.056165	-0.598473	0.261852
C48	C	-0.056282	-0.671535	0.334962
C49	C	-0.056272	-0.598469	0.334999
C50	C	-0.227205	-0.565659	0.367327
C51	C	-0.023703	-0.565882	0.367734
C52	C	-0.074511	-0.616717	0.316667
C53	C	-0.055754	-0.794298	0.391257
C54	C	-0.039181	-0.844132	0.407888
C55	C	0.041447	-0.844215	0.377269
C56	C	0.024873	-0.794381	0.360637
C57	C	-0.252183	-0.577666	0.416302
C58	C	-0.302014	-0.561001	0.432833
C59	C	-0.301886	-0.520329	0.351410
C60	C	-0.252055	-0.536994	0.334880
C61	C	-0.035709	-0.516892	0.355682
C62	C	-0.019129	-0.500308	0.372353
C63	C	0.021465	-0.581700	0.413115
C64	C	0.004884	-0.598286	0.396450
C65	C	-0.035389	-0.516907	0.139026
C66	C	-0.018707	-0.500324	0.089193
C67	C	0.021949	-0.581721	0.089240
C68	C	0.005268	-0.598303	0.139074
C69	C	-0.023402	-0.565894	0.163965
C70	C	-0.023728	-0.769425	0.367633
N71	N	0.427173	-0.450553	0.482630
O72	O	0.589997	-0.458460	0.365361
O73	O	0.590185	-0.550997	0.490963
O74	O	0.590104	-0.550786	0.411309
O75	O	0.590077	-0.458671	0.445016
O76	O	0.510940	-0.524462	0.437777
O77	O	0.511020	-0.524674	0.517432
O78	O	0.510832	-0.432136	0.391830
Zn79	Zn	0.498357	-0.474225	0.458833
Zn80	Zn	0.602660	-0.508908	0.423960
O81	O	0.510913	-0.432348	0.471484
N82	N	0.673844	-0.532580	0.400158
N83	N	0.091520	-0.115070	0.482873
O84	O	-0.025663	0.047841	0.474857
O85	O	0.099940	0.047877	0.382299
O86	O	0.020247	0.047844	0.382560
O87	O	0.054030	0.047874	0.474596
O88	O	0.046674	-0.031326	0.408942
O89	O	0.126367	-0.031293	0.408680
O90	O	0.000764	-0.031329	0.501238
Zn91	Zn	0.067761	-0.043881	0.459148
Zn92	Zn	0.032943	0.060429	0.424389
O93	O	0.080457	-0.031296	0.500977
N94	N	0.009178	0.131618	0.400665
N95	N	0.091852	-0.450680	0.818332
O96	O	0.083862	-0.567845	0.981235
O97	O	-0.008657	-0.442198	0.981276
O98	O	-0.008441	-0.521875	0.981252
O99	O	0.083646	-0.488168	0.981258
O100	O	0.017919	-0.495468	0.902085
O101	O	0.017703	-0.415791	0.902109
O102	O	0.110222	-0.541438	0.902067
Zn103	Zn	0.068148	-0.474422	0.889518
Zn104	Zn	0.033417	-0.509214	0.993825
O105	O	0.110006	-0.461761	0.902091
N106	N	0.009712	-0.532961	1.065011
C107	C	0.030439	-0.413071	0.383027
C108	C	0.129046	-0.511580	0.382922
C109	C	0.070334	-0.570496	0.500675
C110	C	-0.028274	-0.471987	0.500780
C111	C	0.550625	-0.550579	0.520021
C112	C	0.550527	-0.550317	0.421379
C113	C	0.550389	-0.432554	0.362773
C114	C	0.550491	-0.432816	0.461414
C115	C	0.128944	0.008394	0.382712
C116	C	0.030287	0.008256	0.383068
C117	C	-0.028273	0.008252	0.500793
C118	C	0.070417	0.008292	0.500470
C119	C	-0.008218	-0.413165	0.941698
C120	C	-0.007945	-0.511830	0.941653
C121	C	0.109783	-0.570471	0.941646
C122	C	0.109516	-0.471800	0.941673
H123	H	0.049370	-0.382321	0.724071
H124	H	-0.036863	-0.519031	0.941619
H125	H	0.165136	-0.518689	0.353905
H126	H	0.138447	-0.464586	0.941669
N127	N	0.020708	0.008241	0.344766
H128	H	0.049935	0.008248	0.315293
H129	H	-0.006925	0.037584	0.336931
H130	H	0.550329	-0.403500	0.326702
H131	H	0.138832	-0.606554	0.941627
N132	N	-0.046693	-0.365366	0.941710
H133	H	-0.054662	-0.359176	0.971061
H134	H	-0.076055	-0.365328	0.941692
N135	N	0.006374	-0.409309	0.821064
H136	H	-0.011646	-0.388635	0.797737
H137	H	-0.002273	-0.391358	0.841742
N138	N	0.175571	-0.493841	0.820933
H139	H	0.209115	-0.498932	0.797567
H140	H	0.170476	-0.525590	0.841607
N141	N	0.080001	0.008310	0.538766
H142	H	0.107622	-0.021029	0.546640
H143	H	0.050752	0.008323	0.568215
N144	N	0.550540	-0.588651	0.411832
H145	H	0.579912	-0.617427	0.415570
H146	H	0.550480	-0.576260	0.378337
N147	N	-0.076049	0.008232	0.539286
H148	H	-0.076095	0.008233	0.568665
H149	H	-0.082198	-0.021129	0.547226
N150	N	0.210004	-0.459292	0.717352
H151	H	0.228026	-0.479962	0.740678
H152	H	0.218647	-0.429315	0.696675
N153	N	0.550482	-0.394485	0.470961
H154	H	0.550525	-0.406837	0.504458
H155	H	0.521109	-0.365721	0.467197
N156	N	0.079839	-0.618337	0.539052
H157	H	0.113338	-0.639543	0.526745
H158	H	0.056452	-0.633513	0.548285
H159	H	0.049217	-0.382297	0.551240
H160	H	0.019058	-0.412426	0.521121
N161	N	-0.076080	-0.462580	0.539215
H162	H	-0.097335	-0.429088	0.526966
H163	H	-0.071633	-0.466407	0.567965
H164	H	0.164941	0.008624	0.353583
H165	H	0.423225	-0.376108	0.456057
N166	N	0.550694	-0.589065	0.567801
H167	H	0.521361	-0.577501	0.593585
H168	H	0.580073	-0.597006	0.573923
N169	N	0.175231	-0.493783	0.439652
H170	H	0.208790	-0.498683	0.434330
H171	H	0.169926	-0.477704	0.408009
N172	N	0.209784	-0.459241	0.474142
H173	H	0.224653	-0.447052	0.438393
H174	H	0.224663	-0.494990	0.486335
N175	N	0.326297	-0.500743	0.548295
H176	H	0.349654	-0.534059	0.550236
H177	H	0.305601	-0.491856	0.530257
H178	H	0.423275	-0.522397	0.511838
H179	H	0.332825	-0.345993	0.486242
H180	H	0.129672	-0.118967	0.410356
N181	N	0.167426	-0.215958	0.431897
H182	H	0.172497	-0.192603	0.398344
H183	H	0.151247	-0.236643	0.437027
H184	H	0.055974	-0.119015	0.558014
H185	H	-0.028474	-0.460433	0.068892
N186	N	0.082983	-0.216013	0.601061
H187	H	0.047240	-0.207353	0.615981
H188	H	0.095204	-0.207328	0.615906
N189	N	-0.066315	-0.481951	0.165871
H190	H	-0.071377	-0.448401	0.142508
H191	H	-0.050171	-0.487082	0.186593
H192	H	0.050956	-0.774133	0.341399
N193	N	0.052859	-0.616675	0.062392
H194	H	0.057919	-0.650226	0.085753
H195	H	0.084618	-0.611597	0.041765
H196	H	0.015032	-0.638195	0.159378
H197	H	-0.028907	-0.460416	0.362542
N198	N	-0.066541	-0.481943	0.324711
H199	H	-0.071632	-0.448391	0.319610
H200	H	-0.098291	-0.487026	0.340841
H201	H	0.014660	-0.638178	0.406265
N202	N	0.052296	-0.616653	0.444089
H203	H	0.082271	-0.637361	0.426169
H204	H	0.034256	-0.637269	0.474025
N205	N	0.093866	-0.871134	0.369730
H206	H	0.111641	-0.847814	0.352241
H207	H	0.106288	-0.891817	0.350333
H208	H	-0.065262	-0.864385	0.427124
H209	H	-0.095331	-0.773979	0.396956
H210	H	-0.231954	-0.601008	0.442726
H211	H	-0.322118	-0.496994	0.324987
N212	N	-0.328959	-0.573944	0.485658
H213	H	-0.305655	-0.594634	0.503704
H214	H	-0.349643	-0.591870	0.494280
H215	H	-0.231721	-0.527215	0.295000
H216	H	0.023260	-0.376951	0.354059
