data_functionalizedCrystal
_audit_creation_method	'MofGen! by Chris Wilmer'
_symmetry_space_group_name_H-M	'P1'
_symmetry_Int_Tables_number	1
_symmetry_cell_setting	triclinic
loop_
_symmetry_equiv_pos_as_xyz
  x,y,z
_cell_length_a	12.594517
_cell_length_b	12.594516
_cell_length_c	11.169409
_cell_angle_alpha	89.966970
_cell_angle_beta	89.976516
_cell_angle_gamma	90.011616
loop_
_atom_site_label
_atom_site_type_symbol
_atom_site_fract_x
_atom_site_fract_y
_atom_site_fract_z
Zn1	Zn	1.627321	-0.423662	-0.678654
Zn2	Zn	1.627218	-0.601688	-0.477969
Zn3	Zn	1.449318	-0.423723	-0.477976
Zn4	Zn	1.449320	-0.601598	-0.678601
O5	O	1.538294	-0.512668	-0.578300
O6	O	1.776253	-0.447289	-0.652052
O7	O	1.603576	-0.578144	-0.310020
O8	O	1.472973	-0.274769	-0.504621
O9	O	1.776178	-0.578084	-0.504609
O10	O	1.603751	-0.274724	-0.652059
O11	O	1.472873	-0.447394	-0.310025
O12	O	1.300373	-0.447307	-0.504570
O13	O	1.472976	-0.577931	-0.846558
O14	O	1.300374	-0.577990	-0.651968
O15	O	1.603753	-0.447202	-0.846597
O16	O	1.603578	-0.750622	-0.504558
O17	O	1.472877	-0.750556	-0.651961
C18	C	1.261753	-0.512646	-0.578264
C19	C	1.143448	-0.512663	-0.578278
C20	C	1.074163	-0.441487	-0.498261
C21	C	1.003358	-0.538578	-0.468741
C22	C	1.003454	-0.415619	-0.607818
C23	C	1.074201	-0.609805	-0.548701
C24	C	1.074303	-0.486781	-0.687829
C25	C	1.003530	-0.583939	-0.658351
C26	C	1.538245	-0.789209	-0.578279
C27	C	1.538321	-0.907514	-0.578310
C28	C	1.609492	-0.976764	-0.498223
C29	C	1.635506	-1.047452	-0.607768
C30	C	1.512440	-1.047625	-0.468835
C31	C	1.564385	-0.976643	-0.687912
C32	C	1.441274	-0.976810	-0.548906
C33	C	1.467251	-1.047466	-0.658526
C34	C	1.815915	-0.512690	-0.578336
C35	C	1.934221	-0.512699	-0.578351
C36	C	1.538376	-0.512549	-0.891342
C37	C	1.538411	-0.512499	-1.024742
C38	C	1.538373	-0.235047	-0.578347
C39	C	1.538406	-0.116741	-0.578367
C40	C	1.538274	-0.512708	-0.266475
C41	C	1.538446	-0.512459	-0.133076
H42	H	1.105489	-0.464837	-0.780414
H43	H	1.586229	-0.945598	-0.780597
F44	F	1.333980	-0.936222	-0.516319
H45	H	0.972322	-0.333546	-0.632731
H46	H	1.490515	-1.078802	-0.376230
H47	H	1.105177	-0.381354	-0.430510
F48	F	0.962627	-0.567222	-0.347691
H49	H	1.669689	-0.945719	-0.430557
H50	H	1.105148	-0.691913	-0.523644
F51	F	1.742829	-1.087995	-0.640335
H52	H	1.407101	-1.078314	-0.726356
H53	H	0.972711	-0.644215	-0.726050
