data_functionalizedCrystal
_audit_creation_method	'MofGen! by Chris Wilmer'
_symmetry_space_group_name_H-M	'P1'
_symmetry_Int_Tables_number	1
_symmetry_cell_setting	triclinic
loop_
_symmetry_equiv_pos_as_xyz
  x,y,z
_cell_length_a	29.917948
_cell_length_b	29.917021
_cell_length_c	29.913391
_cell_angle_alpha	60.005297
_cell_angle_beta	60.010472
_cell_angle_gamma	59.993667
loop_
_atom_site_label
_atom_site_type_symbol
_atom_site_fract_x
_atom_site_fract_y
_atom_site_fract_z
O1	O	0.061938	-0.653075	0.546110
O2	O	0.023328	-0.508466	0.440017
O3	O	0.114898	-0.599963	0.439941
O4	O	-0.029633	-0.561578	0.546186
O5	O	0.145278	-0.569587	0.470242
O6	O	0.053708	-0.478090	0.470318
O7	O	0.092318	-0.622699	0.576411
Zn8	Zn	0.077836	-0.545572	0.528175
Zn9	Zn	0.037809	-0.585593	0.488253
O10	O	0.000747	-0.531202	0.576487
N11	N	0.105154	-0.518262	0.555424
N12	N	0.010496	-0.612908	0.461004
C13	C	0.164136	-0.309209	0.614352
C14	C	0.164251	-0.459335	0.764424
C15	C	0.164150	-0.459313	0.614341
C16	C	0.314282	-0.459305	0.614278
C17	C	0.180666	-0.358742	0.630849
C18	C	0.180732	-0.442815	0.714891
C19	C	0.264747	-0.442797	0.630809
C20	C	0.180676	-0.442802	0.630843
C21	C	0.143097	-0.246161	0.593354
C22	C	0.143120	-0.480326	0.593337
C23	C	0.201706	-0.421790	0.651848
C24	C	0.405963	-0.443499	0.565998
C25	C	0.463273	-0.462598	0.546874
C26	C	0.463297	-0.555329	0.582235
C27	C	0.405988	-0.536228	0.601360
C28	C	0.156905	-0.217495	0.537012
C29	C	0.137776	-0.160180	0.517926
C30	C	0.091035	-0.160201	0.611524
C31	C	0.110164	-0.217516	0.630611
C32	C	0.086772	-0.466488	0.607209
C33	C	0.067659	-0.485590	0.588108
C34	C	0.161236	-0.532368	0.541277
C35	C	0.180352	-0.513266	0.560371
C36	C	0.086942	-0.466529	0.856152
C37	C	0.067877	-0.485647	0.913465
C38	C	0.161489	-0.532436	0.913415
C39	C	0.180552	-0.513318	0.856101
C40	C	0.143277	-0.480363	0.827471
C41	C	0.377323	-0.480313	0.593239
C42	C	-0.111377	-0.650681	0.422736
C43	C	-0.027364	-0.650787	0.422929
C44	C	-0.048335	-0.671770	0.401835
C45	C	-0.064214	-0.763416	0.450041
C46	C	-0.045160	-0.820731	0.469172
C47	C	0.047573	-0.820841	0.433980
C48	C	0.028517	-0.763527	0.414847
C49	C	-0.140115	-0.664483	0.479060
C50	C	-0.197425	-0.645309	0.498058
C51	C	-0.197256	-0.598535	0.404405
C52	C	-0.139946	-0.617709	0.385407
C53	C	-0.041168	-0.594444	0.409067
C54	C	-0.022104	-0.575374	0.428250
C55	C	0.024568	-0.668986	0.475143
C56	C	0.005504	-0.688059	0.455967
C57	C	-0.041000	-0.594453	0.310105
C58	C	-0.021803	-0.575386	0.252792
C59	C	0.024951	-0.669004	0.252854
C60	C	0.005755	-0.688070	0.310168
C61	C	-0.027222	-0.650793	0.338792
C62	C	-0.027377	-0.734817	0.422881
N63	N	0.491125	-0.518235	0.555255
O64	O	0.678406	-0.527360	0.420422
O65	O	0.678588	-0.633782	0.564887
O66	O	0.678516	-0.633539	0.473265
O67	O	0.678478	-0.527602	0.512044
O68	O	0.587469	-0.603251	0.503685
O69	O	0.587541	-0.603493	0.595307
O70	O	0.587359	-0.497071	0.450842
Zn71	Zn	0.572994	-0.545473	0.527905
Zn72	Zn	0.692953	-0.585380	0.487825
O73	O	0.587431	-0.497313	0.542465
N74	N	0.774821	-0.612618	0.460470
N75	N	0.105125	-0.132348	0.555445
O76	O	-0.029633	0.055031	0.546198
O77	O	0.114837	0.055047	0.439777
O78	O	0.023189	0.055024	0.440050
O79	O	0.062016	0.055054	0.545925
O80	O	0.053572	-0.036031	0.470398
O81	O	0.145220	-0.036008	0.470125
O82	O	0.000750	-0.036024	0.576546
Zn83	Zn	0.077809	-0.050473	0.528154
Zn84	Zn	0.037778	0.069496	0.488169
O85	O	0.092399	-0.036001	0.576273
N86	N	0.010456	0.151371	0.460879
N87	N	0.105414	-0.518315	0.941279
O88	O	0.096182	-0.653057	1.128644
O89	O	-0.010215	-0.508539	1.128670
O90	O	-0.009968	-0.600172	1.128636
O91	O	0.095935	-0.561424	1.128678
O92	O	0.020367	-0.569808	1.037586
O93	O	0.020121	-0.478175	1.037620
O94	O	0.126517	-0.622693	1.037594
Zn95	Zn	0.078135	-0.545613	1.023151
Zn96	Zn	0.038167	-0.585619	1.143113
O97	O	0.126270	-0.531061	1.037628
N98	N	0.010887	-0.612923	1.224985
C99	C	0.034899	-0.475056	0.440551
C100	C	0.148298	-0.588365	0.440456
C101	C	0.080746	-0.656109	0.575876
C102	C	-0.032653	-0.542801	0.575971
C103	C	0.633086	-0.633292	0.598298
C104	C	0.632998	-0.632993	0.484834
C105	C	0.632857	-0.497559	0.417433
C106	C	0.632949	-0.497860	0.530895
C107	C	0.148191	0.009634	0.440259
C108	C	0.034733	0.009493	0.440634
C109	C	-0.032641	0.009502	0.576027
C110	C	0.080854	0.009529	0.575690
C111	C	-0.009699	-0.475150	1.083148
C112	C	-0.009388	-0.588620	1.083088
C113	C	0.126001	-0.656082	1.083116
C114	C	0.125697	-0.542605	1.083155
H115	H	0.022003	-0.474373	0.936811
H116	H	0.632798	-0.464146	0.375944
H117	H	0.026418	0.009490	0.407371
H118	H	0.056452	-0.439666	0.634048
O119	O	0.197816	-0.598210	0.400669
C120	C	0.207599	-0.642507	0.388018
H121	H	0.182016	-0.668810	0.424221
H122	H	0.195835	-0.626240	0.350468
C123	C	0.300155	-0.645032	0.331553
C124	C	0.268737	-0.677341	0.376020
H125	H	0.337868	-0.666518	0.324149
H126	H	0.293564	-0.615187	0.340074
H127	H	0.290345	-0.631478	0.300267
H128	H	0.278542	-0.690888	0.407306
H129	H	0.275331	-0.707189	0.367503
O130	O	0.632910	-0.458208	0.540889
C131	C	0.632982	-0.478158	0.594688
H132	H	0.615785	-0.513322	0.620593
H133	H	0.676674	-0.493404	0.593849
C134	C	0.618388	-0.388667	0.587780
C135	C	0.597263	-0.431853	0.619598
H136	H	0.596358	-0.360103	0.603145
H137	H	0.618342	-0.375226	0.551533
H138	H	0.654798	-0.401379	0.587083
H139	H	0.560857	-0.419142	0.620288
H140	H	0.597302	-0.445290	0.655845
H141	H	0.089168	0.009538	0.608950
O142	O	0.633125	-0.673206	0.647771
C143	C	0.633171	-0.720344	0.647744
H144	H	0.615900	-0.708214	0.615342
H145	H	0.676865	-0.750079	0.638149
C146	C	0.618740	-0.762951	0.744241
C147	C	0.597523	-0.748052	0.704448
H148	H	0.596753	-0.780045	0.779219
H149	H	0.618711	-0.731195	0.744259
H150	H	0.655151	-0.787728	0.736238
H151	H	0.561115	-0.723271	0.712447
H152	H	0.597545	-0.779805	0.704432
O153	O	0.012927	-0.472086	0.601487
C154	C	-0.000961	-0.443233	0.553349
H155	H	0.031328	-0.423829	0.518911
H156	H	-0.002871	-0.472698	0.541283
C157	C	-0.096828	-0.421957	0.605880
C158	C	-0.057172	-0.398120	0.563584
H159	H	-0.131502	-0.394130	0.612193
H160	H	-0.087472	-0.441397	0.638312
H161	H	-0.098413	-0.446510	0.595820
H162	H	-0.055583	-0.373572	0.573647
H163	H	-0.066529	-0.378674	0.531154
H164	H	0.088995	-0.697649	0.609197
O165	O	0.197606	0.009968	0.400350
C166	C	0.231661	0.010070	0.420011
H167	H	0.205330	0.027129	0.455282
H168	H	0.259516	-0.033554	0.435018
C169	C	0.299141	0.025114	0.330253
C170	C	0.266801	0.046071	0.373570
H171	H	0.320819	0.047319	0.301606
H172	H	0.276199	0.025044	0.317007
H173	H	0.322349	-0.011239	0.342766
H174	H	0.243589	0.082421	0.361058
H175	H	0.289740	0.046149	0.386813
O176	O	-0.048996	-0.598571	1.083003
C177	C	-0.029054	-0.652388	1.082987
H178	H	0.017577	-0.666808	1.065781
H179	H	-0.042918	-0.680716	1.126655
C180	C	-0.108808	-0.635718	1.068355
C181	C	-0.051535	-0.653427	1.047218
H182	H	-0.122676	-0.636360	1.046294
H183	H	-0.122244	-0.599461	1.068368
H184	H	-0.120354	-0.659327	1.104745
H185	H	-0.039990	-0.629814	1.010832
H186	H	-0.038097	-0.689680	1.047199
H187	H	-0.116855	-0.691337	0.509456
O188	O	0.165787	-0.705634	1.083129
C189	C	0.146088	-0.739694	1.083095
H190	H	0.099456	-0.724864	1.100332
H191	H	0.159998	-0.738206	1.039407
C192	C	0.226044	-0.817157	1.097617
C193	C	0.168770	-0.798945	1.118793
H194	H	0.240037	-0.853707	1.119635
H195	H	0.239317	-0.794211	1.097638
H196	H	0.237628	-0.815913	1.061211
H197	H	0.157187	-0.800184	1.155195
H198	H	0.155496	-0.821894	1.118778
H199	H	-0.074131	0.009496	0.609437
O200	O	-0.049500	-0.425613	1.083180
C201	C	-0.029790	-0.391543	1.083183
H202	H	0.005356	-0.417872	1.100423
H203	H	-0.014595	-0.363893	1.039506
C204	C	-0.119428	-0.323772	1.097723
C205	C	-0.076265	-0.356110	1.118902
H206	H	-0.148096	-0.301914	1.119754
H207	H	-0.132707	-0.346725	1.097719
H208	H	-0.106759	-0.300736	1.061326
H209	H	-0.088933	-0.379151	1.155296
H210	H	-0.062989	-0.333161	1.118913
H211	H	-0.074166	-0.534620	0.609333
H212	H	0.633014	-0.666272	0.476534
H213	H	0.158967	-0.534314	1.083161
H214	H	0.056584	-0.439691	0.832846
H215	H	0.226428	-0.524588	0.832752
O216	O	0.197772	-0.564459	0.941142
C217	C	0.251584	-0.572559	0.903537
H218	H	0.251453	-0.566142	0.862687
H219	H	0.268002	-0.542057	0.897443
C220	C	0.288527	-0.639161	0.976048
C221	C	0.288366	-0.631284	0.925876
H222	H	0.311217	-0.675384	0.989828
H223	H	0.252273	-0.633702	1.001383
H224	H	0.302207	-0.613738	0.970962
H225	H	0.274680	-0.656701	0.930964
H226	H	0.324619	-0.636748	0.900542
H227	H	0.191560	-0.559196	0.514439
H228	H	0.226235	-0.524529	0.549071
H229	H	0.486634	-0.600858	0.588843
O230	O	0.378198	-0.572004	0.627732
C231	C	0.392201	-0.598847	0.592655
H232	H	0.407925	-0.572744	0.548289
H233	H	0.425487	-0.640205	0.601878
C234	C	0.321982	-0.639625	0.656305
C235	C	0.341290	-0.607561	0.601813
H236	H	0.290579	-0.645003	0.661955
H237	H	0.312549	-0.621542	0.679938
H238	H	0.349725	-0.674086	0.663984
H239	H	0.313549	-0.573099	0.594137
H240	H	0.350717	-0.625639	0.578179
O241	O	0.491073	-0.426803	0.520327
C242	C	0.477024	-0.387888	0.473094
H243	H	0.461254	-0.405548	0.459936
H244	H	0.443759	-0.349253	0.482474
C245	C	0.547283	-0.352022	0.442767
C246	C	0.527919	-0.373714	0.426603
H247	H	0.578677	-0.343276	0.414090
H248	H	0.556748	-0.378238	0.474590
H249	H	0.519558	-0.319829	0.450584
H250	H	0.555642	-0.405910	0.418794
H251	H	0.518460	-0.347502	0.394778
O252	O	0.378031	-0.389196	0.558137
C253	C	0.321305	-0.380229	0.580868
H254	H	0.313478	-0.415259	0.583629
H255	H	0.305065	-0.378202	0.623582
C256	C	0.301468	-0.282827	0.540877
C257	C	0.291854	-0.325849	0.544264
H258	H	0.283300	-0.249282	0.518300
H259	H	0.339685	-0.288868	0.525564
H260	H	0.287934	-0.281145	0.576474
H261	H	0.305394	-0.327535	0.508668
H262	H	0.253638	-0.319808	0.559569
O263	O	0.188813	-0.245294	0.500798
C264	C	0.159849	-0.231277	0.467675
H265	H	0.114003	-0.215532	0.489825
H266	H	0.172022	-0.198000	0.427410
C267	C	0.230007	-0.301526	0.428758
C268	C	0.173698	-0.282192	0.455965
H269	H	0.238551	-0.332931	0.421532
H270	H	0.249522	-0.310968	0.451072
H271	H	0.240144	-0.273790	0.395206
H272	H	0.163563	-0.309925	0.489519
H273	H	0.154182	-0.272756	0.433656
O274	O	0.151117	-0.132244	0.463211
C275	C	0.127183	-0.075514	0.454353
H276	H	0.090409	-0.067698	0.491972
H277	H	0.158532	-0.059244	0.446704
C278	C	0.153532	-0.055682	0.357986
C279	C	0.108363	-0.046082	0.404190
H280	H	0.141925	-0.037526	0.327042
H281	H	0.169659	-0.093902	0.363954
H282	H	0.179653	-0.042123	0.351619
H283	H	0.082247	-0.059647	0.410560
H284	H	0.092231	-0.007863	0.398222
O285	O	0.059035	-0.132457	0.647789
C286	C	0.050969	-0.170051	0.701612
H287	H	0.057377	-0.210907	0.701508
H288	H	0.081493	-0.176143	0.718010
C289	C	-0.015601	-0.097518	0.738525
C290	C	-0.007735	-0.147697	0.738397
H291	H	-0.051812	-0.083729	0.761216
H292	H	-0.010166	-0.072190	0.702263
H293	H	0.009839	-0.102602	0.752188
H294	H	-0.033171	-0.142611	0.724727
H295	H	-0.013177	-0.173024	0.774657
H296	H	-0.033030	-0.529506	0.229442
O297	O	0.096816	-0.245445	0.685323
C298	C	0.120788	-0.302176	0.694185
H299	H	0.129375	-0.310007	0.656596
H300	H	0.160799	-0.318412	0.701758
C301	C	0.070778	-0.322015	0.790576
C302	C	0.081321	-0.331634	0.744411
H303	H	0.046435	-0.340188	0.821559
H304	H	0.054629	-0.283795	0.784607
H305	H	0.104124	-0.335546	0.796880
H306	H	0.047977	-0.318098	0.738104
H307	H	0.097464	-0.369853	0.750380
O308	O	-0.072947	-0.558222	0.337891
C309	C	-0.043996	-0.525129	0.323944
H310	H	0.001853	-0.547308	0.308259
H311	H	-0.056136	-0.484860	0.290644
C312	C	-0.114223	-0.486177	0.394143
C313	C	-0.057909	-0.513419	0.374883
H314	H	-0.122806	-0.478951	0.425563
H315	H	-0.133729	-0.508471	0.403538
H316	H	-0.124332	-0.452622	0.366388
H317	H	-0.047802	-0.546976	0.402635
H318	H	-0.038401	-0.491131	0.365493
O319	O	0.056897	-0.705195	0.225028
C320	C	0.030920	-0.696908	0.191782
H321	H	-0.015025	-0.676051	0.208972
H322	H	0.047892	-0.669899	0.148356
C323	C	0.098113	-0.778133	0.169792
C324	C	0.041682	-0.752521	0.190908
H325	H	0.104754	-0.812437	0.169251
H326	H	0.115616	-0.783716	0.192189
H327	H	0.112250	-0.755620	0.133606
H328	H	0.027548	-0.775031	0.227096
H329	H	0.024178	-0.746943	0.168517
O330	O	0.019170	-0.742821	0.337949
C331	C	0.052399	-0.771630	0.300392
H332	H	0.045163	-0.744297	0.259497
H333	H	0.097275	-0.784042	0.294389
C334	C	0.046739	-0.856828	0.372948
C335	C	0.037848	-0.823259	0.322721
H336	H	0.037765	-0.888677	0.386722
H337	H	0.024354	-0.837419	0.398251
H338	H	0.084135	-0.867166	0.367939
H339	H	0.000451	-0.812916	0.327732
H340	H	0.060227	-0.842667	0.297419
H341	H	-0.067926	-0.564092	0.382165
H342	H	-0.033345	-0.529494	0.416965
H343	H	0.051334	-0.699339	0.502037
H344	H	0.016742	-0.733938	0.467255
H345	H	0.058518	-0.740243	0.392731
H346	H	0.093086	-0.844219	0.427442
H347	H	-0.109727	-0.740044	0.456586
O348	O	-0.081029	-0.848429	0.495630
C349	C	-0.134453	-0.810798	0.498641
H350	H	-0.136642	-0.769937	0.494826
H351	H	-0.145151	-0.804738	0.463926
C352	C	-0.172713	-0.883259	0.558664
C353	C	-0.175402	-0.833075	0.553983
H354	H	-0.197973	-0.897001	0.592800
H355	H	-0.136720	-0.908613	0.556635
H356	H	-0.181627	-0.878202	0.529731
H357	H	-0.166482	-0.838134	0.582911
H358	H	-0.211394	-0.807722	0.556019
H359	H	-0.220824	-0.656545	0.543924
H360	H	-0.116547	-0.606465	0.339541
O361	O	-0.224926	-0.566498	0.368072
C362	C	-0.187272	-0.558449	0.314283
H363	H	-0.146440	-0.564901	0.314469
H364	H	-0.181163	-0.588956	0.297854
C365	C	-0.259703	-0.491809	0.277237
C366	C	-0.209553	-0.499728	0.277465
H367	H	-0.273448	-0.455587	0.254525
H368	H	-0.285072	-0.497232	0.313476
H369	H	-0.254605	-0.517235	0.263548
H370	H	-0.214653	-0.474306	0.291161
H371	H	-0.184186	-0.494298	0.241228
H372	H	0.026652	-0.433515	0.407232
