data_functionalizedCrystal
_audit_creation_method	'MofGen! by Chris Wilmer'
_symmetry_space_group_name_H-M	'P1'
_symmetry_Int_Tables_number	1
_symmetry_cell_setting	triclinic
loop_
_symmetry_equiv_pos_as_xyz
  x,y,z
_cell_length_a	20.299480
_cell_length_b	20.298645
_cell_length_c	20.294903
_cell_angle_alpha	60.007695
_cell_angle_beta	60.015306
_cell_angle_gamma	59.991039
loop_
_atom_site_label
_atom_site_type_symbol
_atom_site_fract_x
_atom_site_fract_y
_atom_site_fract_z
O1	O	0.091305	-0.962534	0.804873
O2	O	0.034397	-0.749399	0.648508
O3	O	0.169355	-0.884263	0.648401
O4	O	-0.043654	-0.827670	0.804979
O5	O	0.214132	-0.839502	0.693072
O6	O	0.079173	-0.704639	0.693178
O7	O	0.136081	-0.917774	0.849544
Zn8	Zn	0.114736	-0.804099	0.778453
Zn9	Zn	0.055742	-0.863073	0.719598
O10	O	0.001122	-0.782910	0.849650
N11	N	0.155000	-0.763857	0.818624
N12	N	0.015485	-0.903322	0.679427
C13	C	0.179343	-0.615641	0.842971
C14	C	0.179443	-0.739552	0.966834
C15	C	0.303264	-0.739536	0.842917
C16	C	0.179356	-0.739528	0.842952
C17	C	0.210353	-0.708565	0.873918
C18	C	-0.132622	-0.927446	0.654695
C19	C	-0.008595	-0.927622	0.530981
C20	C	-0.008820	-1.051459	0.654914
C21	C	-0.008800	-0.927618	0.654995
C22	C	-0.039709	-0.958538	0.623897
N23	N	0.376268	-0.763873	0.818558
O24	O	0.652281	-0.777347	0.619856
O25	O	0.652556	-0.934198	0.832777
O26	O	0.652445	-0.933836	0.697731
O27	O	0.652392	-0.777709	0.754902
O28	O	0.518259	-0.889182	0.742556
O29	O	0.518369	-0.889544	0.877602
O30	O	0.518095	-0.732693	0.664680
Zn31	Zn	0.496927	-0.804029	0.778258
Zn32	Zn	0.673724	-0.862862	0.719200
O33	O	0.518205	-0.733055	0.799726
N34	N	0.794383	-0.903019	0.678891
N35	N	0.154981	-0.542636	0.818657
O36	O	-0.043628	-0.266455	0.805024
O37	O	0.169291	-0.266451	0.648191
O38	O	0.034217	-0.266468	0.648577
O39	O	0.091446	-0.266438	0.804638
O40	O	0.078998	-0.400670	0.693303
O41	O	0.214071	-0.400653	0.692918
O42	O	0.001152	-0.400657	0.849750
Zn43	Zn	0.114722	-0.421963	0.778435
Zn44	Zn	0.055722	-0.245145	0.719506
O45	O	0.136226	-0.400640	0.849364
N46	N	0.015453	-0.124472	0.679286
N47	N	0.155155	-0.763898	1.039838
O48	O	0.141555	-0.962488	1.315987
O49	O	-0.015254	-0.749480	1.316022
O50	O	-0.014890	-0.884527	1.315962
O51	O	0.141192	-0.827441	1.316047
O52	O	0.029815	-0.839777	1.181768
O53	O	0.029452	-0.704730	1.181828
O54	O	0.186261	-0.917739	1.181793
Zn55	Zn	0.114954	-0.804130	1.160504
Zn56	Zn	0.056053	-0.863089	1.337311
O57	O	0.185897	-0.782692	1.181853
N58	N	0.015850	-0.903330	1.457977
C59	C	0.051451	-0.700162	0.649301
C60	C	0.218580	-0.867175	0.649169
C61	C	0.119026	-0.967011	0.848750
C62	C	-0.048103	-0.799998	0.848882
C63	C	0.585495	-0.933471	0.882014
C64	C	0.585361	-0.933023	0.714775
C65	C	0.585151	-0.733419	0.615444
C66	C	0.585291	-0.733869	0.782682
C67	C	0.218449	-0.333386	0.648902
C68	C	0.051232	-0.333573	0.649435
C69	C	-0.048061	-0.333556	0.848984
C70	C	0.119212	-0.333537	0.848507
C71	C	-0.014496	-0.700269	1.248929
C72	C	-0.014037	-0.867500	1.248828
C73	C	0.185503	-0.966949	1.248886
C74	C	0.185054	-0.799709	1.248957
H75	H	0.039295	-0.638935	0.600193
C76	C	0.585596	-0.999998	0.964624
C77	C	0.585658	-1.082647	0.980735
C78	C	0.585759	-1.149174	1.063345
C79	C	0.585799	-1.133051	1.129843
C80	C	0.585737	-1.050398	1.113734
C81	C	0.585636	-0.983871	1.031124
H82	H	0.585629	-1.094586	0.931508
H83	H	0.585805	-1.210360	1.075270
H84	H	0.585873	-1.182298	1.190996
H85	H	0.585766	-1.038459	1.162962
H86	H	0.585590	-0.922685	1.019199
C87	C	-0.080256	-0.883960	1.248716
C88	C	-0.163005	-0.817683	1.248673
C89	C	-0.229224	-0.834143	1.248560
C90	C	-0.212693	-0.916880	1.248490
C91	C	-0.129939	-0.983163	1.248532
C92	C	-0.063721	-0.966703	1.248645
H93	H	-0.175246	-0.756430	1.248726
H94	H	-0.290483	-0.785075	1.248529
H95	H	-0.261711	-0.929065	1.248406
H96	H	-0.117698	-1.044416	1.248480
H97	H	-0.002461	-1.015771	1.248676
C98	C	0.301227	-0.883465	0.582738
C99	C	0.306744	-0.877583	0.501592
C100	C	0.389391	-0.893873	0.435162
C101	C	0.466522	-0.916045	0.449878
C102	C	0.461008	-0.921928	0.531028
C103	C	0.378361	-0.905638	0.597458
H104	H	0.249644	-0.861169	0.490696
H105	H	0.393472	-0.889518	0.375090
H106	H	0.527702	-0.928103	0.400703
H107	H	0.518108	-0.938341	0.541925
H108	H	0.374280	-0.909993	0.657530
C109	C	0.135760	-0.333530	0.914746
C110	C	0.218514	-0.333525	0.898217
C111	C	0.235062	-0.333518	0.964456
C112	C	0.168855	-0.333517	1.047224
C113	C	0.086095	-0.333522	1.063758
C114	C	0.069547	-0.333529	0.997519
H115	H	0.267530	-0.333525	0.836943
H116	H	0.296327	-0.333514	0.952216
H117	H	0.181105	-0.333512	1.096258
H118	H	0.037080	-0.333521	1.125031
H119	H	0.008282	-0.333533	1.009758
H120	H	-0.063726	-0.639093	1.248939
H121	H	0.234736	-1.028122	1.248866
H122	H	0.585062	-0.684173	0.554297
C123	C	0.585266	-0.667606	0.799203
C124	C	0.515528	-0.586458	0.793501
C125	C	0.515504	-0.520196	0.810022
C126	C	0.585217	-0.535082	0.832247
C127	C	0.654961	-0.616233	0.837950
C128	C	0.654985	-0.682496	0.821428
H129	H	0.463918	-0.575436	0.777048
H130	H	0.463875	-0.460122	0.805800
H131	H	0.585199	-0.486031	0.844477
H132	H	0.706571	-0.627256	0.854402
H133	H	0.706614	-0.742570	0.825651
C134	C	0.135441	-1.049720	0.915099
C135	C	0.069145	-1.066074	0.997827
C136	C	0.085560	-1.148783	1.064175
C137	C	0.168271	-1.215139	1.047796
C138	C	0.234572	-1.198787	0.965064
C139	C	0.218157	-1.116078	0.898715
H140	H	0.007913	-1.016952	1.009955
H141	H	0.036479	-1.160888	1.125419
H142	H	0.180422	-1.276366	1.096911
H143	H	0.295804	-1.247909	0.952936
H144	H	0.267238	-1.103973	0.837472
C145	C	0.300882	-0.332876	0.582213
C146	C	0.367311	-0.332610	0.598233
C147	C	0.449744	-0.332100	0.531543
C148	C	0.465747	-0.331855	0.448834
C149	C	0.399316	-0.332121	0.432811
C150	C	0.316883	-0.332631	0.499500
H151	H	0.355466	-0.332792	0.659462
H152	H	0.498921	-0.331903	0.543405
H153	H	0.526769	-0.331478	0.399467
H154	H	0.411161	-0.331940	0.371582
H155	H	0.267706	-0.332828	0.487638
C156	C	0.585388	-0.999286	0.698253
C157	C	0.655034	-1.030779	0.629475
C158	C	0.655061	-1.097042	0.612953
C159	C	0.585441	-1.131812	0.665208
C160	C	0.515790	-1.100319	0.733990
C161	C	0.515763	-1.034056	0.750513
H162	H	0.706575	-1.005040	0.590789
H163	H	0.706622	-1.120355	0.562036
H164	H	0.585461	-1.180864	0.652977
H165	H	0.464248	-1.126057	0.772677
H166	H	0.464202	-1.010743	0.801430
C167	C	0.251303	-0.783218	1.248978
C168	C	0.236400	-0.760955	1.318679
C169	C	0.302649	-0.744464	1.318700
C170	C	0.383801	-0.750236	1.249020
C171	C	0.398709	-0.772501	1.179314
C172	C	0.332460	-0.788992	1.179293
H173	H	0.176322	-0.756680	1.370265
H174	H	0.291613	-0.727982	1.370302
H175	H	0.432843	-0.738029	1.249036
H176	H	0.458786	-0.776775	1.127728
H177	H	0.343496	-0.805473	1.127691
H178	H	-0.109209	-0.333558	0.898221
H179	H	-0.109285	-0.787936	0.898049
H180	H	0.038975	-0.333574	0.600406
