data_functionalizedCrystal
_audit_creation_method	'MofGen! by Chris Wilmer'
_symmetry_space_group_name_H-M	'P1'
_symmetry_Int_Tables_number	1
_symmetry_cell_setting	triclinic
loop_
_symmetry_equiv_pos_as_xyz
  x,y,z
_cell_length_a	10.686220
_cell_length_b	16.959454
_cell_length_c	10.686551
_cell_angle_alpha	85.595422
_cell_angle_beta	90.308082
_cell_angle_gamma	94.401635
loop_
_atom_site_label
_atom_site_type_symbol
_atom_site_fract_x
_atom_site_fract_y
_atom_site_fract_z
Zn1	Zn	1.972261	-0.192706	-0.562392
Zn2	Zn	1.956011	-0.335773	-0.352638
Zn3	Zn	1.746376	-0.212926	-0.368710
Zn4	Zn	1.762442	-0.334171	-0.578415
O5	O	1.859272	-0.268894	-0.465539
O6	O	2.145648	-0.203892	-0.521135
O7	O	1.914679	-0.328610	-0.179225
O8	O	1.776417	-0.099628	-0.394423
O9	O	2.133710	-0.309003	-0.367030
O10	O	1.942373	-0.084773	-0.536720
O11	O	1.760661	-0.238355	-0.191033
O12	O	1.572964	-0.236801	-0.409960
O13	O	1.803798	-0.306273	-0.751835
O14	O	1.584768	-0.325880	-0.564030
O15	O	1.957951	-0.202339	-0.740063
O16	O	1.930257	-0.446176	-0.382567
O17	O	1.788042	-0.444999	-0.548445
C18	C	1.533350	-0.283361	-0.490478
C19	C	1.393921	-0.289568	-0.501177
C20	C	1.859166	-0.474266	-0.465525
C21	C	1.859238	-0.562118	-0.465553
C22	C	1.785337	-0.933005	-0.551894
C23	C	1.933567	-0.934158	-0.379285
C24	C	1.933522	-0.851615	-0.379276
C25	C	1.859382	-0.809763	-0.465577
C26	C	1.785287	-0.850454	-0.551886
C27	C	2.007607	-0.810918	-0.292961
C28	C	2.007564	-0.728369	-0.292948
C29	C	1.933430	-0.686515	-0.379256
C30	C	1.859333	-0.727212	-0.465569
C31	C	1.785193	-0.685360	-0.551870
C32	C	1.711101	-0.726054	-0.638190
C33	C	1.711153	-0.808600	-0.638193
C34	C	1.933378	-0.603970	-0.379252
C35	C	1.785143	-0.602809	-0.551862
C36	C	2.186468	-0.254371	-0.440502
C37	C	2.325899	-0.248182	-0.429834
C38	C	1.884480	-0.251872	-0.792738
C39	C	1.895221	-0.244618	-0.932171
C40	C	1.859416	-0.062717	-0.465577
C41	C	1.859477	0.025143	-0.465593
C42	C	1.834236	-0.285790	-0.139606
C43	C	1.823737	-0.292810	-0.000156
H44	H	1.374330	-0.208002	-0.360567
O45	O	1.335951	-0.337447	-0.583790
C46	C	1.139457	-0.387561	-0.670040
C47	C	1.204948	-0.333296	-0.576454
H48	H	1.033529	-0.384236	-0.664121
H49	H	1.172872	-0.367383	-0.769315
H50	H	1.163493	-0.451287	-0.645902
H51	H	1.180941	-0.269555	-0.600476
H52	H	1.171528	-0.353540	-0.477205
O53	O	1.713010	-0.562282	-0.635749
C54	C	1.566062	-0.569844	-0.807020
C55	C	1.647667	-0.615840	-0.712067
H56	H	1.513232	-0.613123	-0.868764
H57	H	1.495966	-0.537172	-0.754457
H58	H	1.628655	-0.525169	-0.868192
H59	H	1.585174	-0.660554	-0.650869
H60	H	1.717773	-0.648458	-0.764707
O61	O	1.639358	-0.848208	-0.722077
C62	C	1.635445	-0.933308	-0.892773
C63	C	1.716900	-0.888501	-0.797831
H64	H	1.698107	-0.965883	-0.954062
H65	H	1.565510	-0.977950	-0.840201
H66	H	1.582412	-0.889211	-0.954403
H67	H	1.770013	-0.932539	-0.736176
H68	H	1.786758	-0.843848	-0.850481
O69	O	1.740757	-0.348621	-0.942501
C70	C	1.524275	-0.398522	-0.918434
C71	C	1.618113	-0.335277	-0.983846
H72	H	1.425094	-0.387745	-0.951817
H73	H	1.548123	-0.459975	-0.942467
H74	H	1.530138	-0.394634	-0.812512
H75	H	1.612300	-0.339091	-1.089781
H76	H	1.594235	-0.273851	-0.959711
H77	H	1.650730	-0.691970	-0.708451
O78	O	1.713398	-0.972656	-0.635619
C79	C	1.647838	-1.099301	-0.712197
C80	C	1.729346	-1.054497	-0.617292
H81	H	1.660724	-1.165475	-0.697431
H82	H	1.544964	-1.088827	-0.697822
H83	H	1.677555	-1.076756	-0.811672
H84	H	1.699740	-1.077014	-0.517779
H85	H	1.832202	-1.064971	-0.631778
H86	H	1.993921	-0.968239	-0.309016
H87	H	1.964650	-0.197809	-0.980643
H88	H	1.993696	-0.570841	-0.308966
H89	H	2.067958	-0.845000	-0.222691
H90	H	2.067894	-0.695241	-0.222664
