data_functionalizedCrystal
_audit_creation_method	'MofGen! by Chris Wilmer'
_symmetry_space_group_name_H-M	'P1'
_symmetry_Int_Tables_number	1
_symmetry_cell_setting	triclinic
loop_
_symmetry_equiv_pos_as_xyz
  x,y,z
_cell_length_a	29.999520
_cell_length_b	29.998686
_cell_length_c	29.995014
_cell_angle_alpha	60.005185
_cell_angle_beta	60.010401
_cell_angle_gamma	59.993433
loop_
_atom_site_label
_atom_site_type_symbol
_atom_site_fract_x
_atom_site_fract_y
_atom_site_fract_z
O1	O	0.061772	-0.651300	0.544623
O2	O	0.023267	-0.507084	0.438819
O3	O	0.114589	-0.598332	0.438743
O4	O	-0.029550	-0.560051	0.544699
O5	O	0.144886	-0.568039	0.468961
O6	O	0.053564	-0.476791	0.469038
O7	O	0.092069	-0.621007	0.574841
Zn8	Zn	0.077627	-0.544089	0.526737
Zn9	Zn	0.037709	-0.584002	0.486923
O10	O	0.000748	-0.529758	0.574918
N11	N	0.104871	-0.516854	0.553912
N12	N	0.010470	-0.611242	0.459748
C13	C	0.143162	-0.478782	0.827124
C14	C	0.378203	-0.478734	0.591892
C15	C	0.143005	-0.478752	0.591997
C16	C	0.142986	-0.243586	0.592008
C17	C	0.180857	-0.357087	0.629814
C18	C	0.180866	-0.440920	0.629807
C19	C	0.201840	-0.419964	0.650755
C20	C	0.293272	-0.404201	0.602606
C21	C	0.350426	-0.423248	0.583534
C22	C	0.350451	-0.515727	0.618798
C23	C	0.293297	-0.496678	0.637872
C24	C	0.194628	-0.328499	0.573626
C25	C	0.175551	-0.271340	0.554591
C26	C	0.128936	-0.271362	0.647935
C27	C	0.148014	-0.328521	0.666970
C28	C	0.124672	-0.427119	0.643641
C29	C	0.105611	-0.446170	0.624592
C30	C	0.198934	-0.492820	0.577889
C31	C	0.217998	-0.473770	0.596931
C32	C	0.124740	-0.427136	0.742229
C33	C	0.105728	-0.446202	0.799386
C34	C	0.199085	-0.492863	0.799337
C35	C	0.218096	-0.473798	0.742178
C36	C	0.180923	-0.440933	0.713626
C37	C	0.264710	-0.440915	0.629773
C38	C	0.121509	-0.499370	0.889991
C39	C	0.441068	-0.498953	0.570621
C40	C	0.121297	-0.499349	0.571429
C41	C	0.121653	-0.180715	0.571802
C42	C	-0.111071	-0.648912	0.421584
C43	C	-0.027286	-0.649018	0.421777
C44	C	-0.048200	-0.669944	0.400740
C45	C	-0.064036	-0.761340	0.448814
C46	C	-0.045033	-0.818500	0.467893
C47	C	0.047447	-0.818609	0.432797
C48	C	0.028444	-0.761451	0.413717
C49	C	-0.139731	-0.662677	0.477755
C50	C	-0.196885	-0.643554	0.496701
C51	C	-0.196717	-0.596907	0.403303
C52	C	-0.139562	-0.616030	0.384357
C53	C	-0.041053	-0.592827	0.407952
C54	C	-0.022041	-0.573809	0.427083
C55	C	0.024504	-0.667167	0.473848
C56	C	0.005492	-0.686188	0.454725
C57	C	-0.040886	-0.592836	0.309259
C58	C	-0.021740	-0.573821	0.252102
C59	C	0.024886	-0.667185	0.252163
C60	C	0.005743	-0.686199	0.309322
C61	C	-0.027145	-0.649023	0.337868
C62	C	-0.027299	-0.732818	0.421728
N63	N	0.492511	-0.516826	0.553742
O64	O	0.679283	-0.525926	0.419277
O65	O	0.679465	-0.632059	0.563349
O66	O	0.679393	-0.631817	0.471975
O67	O	0.679355	-0.526168	0.510650
O68	O	0.588593	-0.601610	0.502313
O69	O	0.588665	-0.601852	0.593686
O70	O	0.588483	-0.495720	0.449614
Zn71	Zn	0.574158	-0.543990	0.526467
Zn72	Zn	0.693790	-0.583788	0.486496
O73	O	0.588555	-0.495962	0.540987
N74	N	0.775436	-0.610952	0.459215
N75	N	0.104844	-0.129269	0.553931
O76	O	-0.029548	0.057600	0.544709
O77	O	0.114530	0.057617	0.438578
O78	O	0.023130	0.057594	0.438850
O79	O	0.061852	0.057623	0.544437
O80	O	0.053431	-0.033213	0.469115
O81	O	0.144831	-0.033190	0.468843
O82	O	0.000753	-0.033207	0.574974
Zn83	Zn	0.077603	-0.047616	0.526714
Zn84	Zn	0.037680	0.072026	0.486838
O85	O	0.092153	-0.033184	0.574702
N86	N	0.010432	0.153679	0.459622
N87	N	0.105130	-0.516904	0.941437
O88	O	0.095923	-0.651280	1.128292
O89	O	-0.010184	-0.507155	1.128318
O90	O	-0.009938	-0.598539	1.128284
O91	O	0.095677	-0.559897	1.128326
O92	O	0.020315	-0.568257	1.037481
O93	O	0.020068	-0.476874	1.037515
O94	O	0.126176	-0.620999	1.037489
Zn95	Zn	0.077925	-0.544128	1.023085
Zn96	Zn	0.038066	-0.584026	1.142722
O97	O	0.125929	-0.529616	1.037523
N98	N	0.010860	-0.611256	1.224371
C99	C	0.034807	-0.473765	0.439352
C100	C	0.147897	-0.586765	0.439257
C101	C	0.080529	-0.654326	0.574308
C102	C	-0.032561	-0.541326	0.574403
C103	C	0.634087	-0.631571	0.596668
C104	C	0.633999	-0.631272	0.483513
C105	C	0.633858	-0.496206	0.416295
C106	C	0.633949	-0.496507	0.529449
C107	C	0.147793	0.012327	0.439058
C108	C	0.034644	0.012187	0.439432
C109	C	-0.032548	0.012195	0.574457
C110	C	0.080639	0.012222	0.574120
C111	C	-0.009670	-0.473857	1.082920
C112	C	-0.009359	-0.587018	1.082860
C113	C	0.125662	-0.654297	1.082887
C114	C	0.125358	-0.541129	1.082927
H115	H	0.059977	-0.434960	0.822668
H116	H	0.633799	-0.462884	0.374920
H117	H	0.158538	-0.532861	1.082933
O118	O	0.634053	-0.671310	0.646052
C119	C	0.587128	-0.731085	0.726170
C120	C	0.587091	-0.686073	0.670260
H121	H	0.549169	-0.743043	0.745753
H122	H	0.587104	-0.715280	0.753739
H123	H	0.625167	-0.768288	0.720389
H124	H	0.549058	-0.648856	0.675989
H125	H	0.587144	-0.701922	0.642711
H126	H	0.633941	-0.463320	0.537725
H127	H	-0.073962	-0.533167	0.607674
H128	H	0.634015	-0.664461	0.475235
O129	O	0.197074	0.012661	0.399257
C130	C	0.286876	0.013093	0.373715
C131	C	0.231086	0.012729	0.418832
H132	H	0.314394	0.013137	0.389528
H133	H	0.280938	0.051187	0.336598
H134	H	0.306611	-0.024817	0.361625
H135	H	0.211321	0.050613	0.430968
H136	H	0.237060	-0.025390	0.455919
H137	H	0.270000	-0.358795	0.596010
O138	O	0.088648	-0.395129	0.714470
C139	C	0.055952	-0.308124	0.649948
C140	C	0.096844	-0.344308	0.681359
H141	H	0.062572	-0.267032	0.623161
H142	H	0.012518	-0.301490	0.680186
H143	H	0.062516	-0.329085	0.623212
H144	H	0.090330	-0.323378	0.708095
H145	H	0.140263	-0.350944	0.651091
O146	O	0.024681	0.012138	0.399930
C147	C	-0.040205	0.012115	0.374986
C148	C	-0.028994	0.012169	0.419771
H149	H	-0.083604	0.012152	0.391008
H150	H	-0.010008	-0.025904	0.363070
H151	H	-0.035311	0.050102	0.337708
H152	H	-0.033895	-0.025792	0.457079
H153	H	-0.059189	0.050213	0.431641
O154	O	-0.081951	0.012224	0.614138
C155	C	-0.171888	0.012194	0.639547
C156	C	-0.115967	0.012169	0.594559
H157	H	-0.199402	0.012138	0.623738
H158	H	-0.191523	0.050213	0.651437
H159	H	-0.166122	-0.025792	0.676790
H160	H	-0.121686	0.050129	0.557286
H161	H	-0.096351	-0.025876	0.582715
O162	O	0.197322	-0.596578	0.399627
C163	C	0.287217	-0.661281	0.374369
C164	C	0.231273	-0.650237	0.419302
H165	H	0.314679	-0.704668	0.390256
H166	H	0.306898	-0.631035	0.362432
H167	H	0.281475	-0.656325	0.337137
H168	H	0.236968	-0.655201	0.456563
H169	H	0.211612	-0.680481	0.431193
O170	O	0.090627	0.012197	0.613647
C171	C	0.155510	0.012230	0.638587
C172	C	0.144274	0.012250	0.593778
H173	H	0.198878	0.012285	0.622536
H174	H	0.150685	-0.025786	0.675850
H175	H	0.125262	0.050219	0.650540
H176	H	0.174511	-0.025713	0.581779
H177	H	0.149079	0.050292	0.556545
O178	O	-0.049363	-0.424455	1.082952
C179	C	-0.074735	-0.334500	1.082945
C180	C	-0.029740	-0.390427	1.082921
H181	H	-0.058883	-0.306969	1.082908
H182	H	-0.111969	-0.340201	1.120951
H183	H	-0.086654	-0.314914	1.044949
H184	H	-0.017775	-0.410044	1.120891
H185	H	0.007464	-0.384691	1.044890
O186	O	-0.048909	-0.596948	1.082871
C187	C	-0.106333	-0.652309	1.129836
C188	C	-0.061533	-0.641130	1.129884
H189	H	-0.116561	-0.688022	1.167847
H190	H	-0.091186	-0.662734	1.091840
H191	H	-0.144447	-0.614414	1.129800
H192	H	-0.023403	-0.679006	1.129939
H193	H	-0.076724	-0.630682	1.167876
H194	H	0.158977	-0.695688	1.082873
H195	H	0.229358	-0.519614	0.822579
H196	H	0.088756	-0.695753	0.607538
H197	H	0.263847	-0.485039	0.718893
H198	H	0.094434	-0.400372	0.670409
H199	H	0.186762	-0.248063	0.508836
O200	O	0.051019	-0.432836	0.638122
C201	C	-0.034551	-0.437199	0.710619
C202	C	0.027267	-0.452342	0.695372
H203	H	-0.053774	-0.452953	0.756906
H204	H	-0.041824	-0.456476	0.691399
H205	H	-0.053825	-0.390916	0.694836
H206	H	0.046583	-0.498617	0.711152
H207	H	0.034502	-0.433027	0.714584
O208	O	0.235033	-0.524648	0.545876
C209	C	0.308971	-0.531926	0.461746
C210	C	0.268103	-0.495824	0.497945
H211	H	0.335726	-0.508641	0.422991
H212	H	0.285736	-0.543167	0.450452
H213	H	0.335731	-0.570719	0.485019
H214	H	0.241333	-0.457008	0.474705
H215	H	0.291372	-0.484627	0.509242
O216	O	0.265635	-0.532414	0.664229
C217	C	0.271694	-0.626156	0.697219
C218	C	0.303088	-0.585743	0.667348
H219	H	0.301960	-0.669281	0.699760
H220	H	0.244929	-0.614722	0.673864
H221	H	0.244943	-0.624382	0.740184
H222	H	0.329868	-0.587495	0.624383
H223	H	0.329818	-0.597189	0.690744
H224	H	0.263756	-0.485001	0.585661
H225	H	0.373728	-0.561133	0.625383
H226	H	0.221368	-0.351757	0.543370
O227	O	0.378147	-0.387550	0.557060
C228	C	0.395560	-0.308297	0.480041
C229	C	0.364142	-0.348696	0.509961
H230	H	0.384240	-0.276867	0.441962
H231	H	0.441327	-0.331456	0.467756
H232	H	0.384343	-0.286637	0.508281
H233	H	0.375313	-0.370367	0.481751
H234	H	0.318382	-0.325507	0.522255
O235	O	0.097024	-0.243692	0.684101
C236	C	0.052845	-0.249743	0.778696
C237	C	0.088980	-0.281145	0.737798
H238	H	0.046340	-0.280010	0.822119
H239	H	0.011694	-0.223005	0.772178
H240	H	0.073785	-0.222962	0.772061
H241	H	0.068089	-0.307956	0.744408
H242	H	0.130130	-0.307848	0.744326
H243	H	-0.032937	-0.528066	0.228816
O244	O	-0.072798	-0.556647	0.336904
C245	C	-0.117034	-0.462036	0.330810
C246	C	-0.080887	-0.502956	0.299435
H247	H	-0.123595	-0.418618	0.300530
H248	H	-0.096146	-0.468608	0.357617
H249	H	-0.158158	-0.468593	0.357519
H250	H	-0.039757	-0.496423	0.272697
H251	H	-0.101818	-0.496374	0.272663
H252	H	0.136793	-0.351798	0.712725
O253	O	0.101617	-0.846342	0.424951
C254	C	0.191338	-0.840424	0.388153
C255	C	0.130008	-0.808949	0.396993
H256	H	0.214308	-0.810205	0.365559
H257	H	0.207488	-0.867178	0.362991
H258	H	0.197613	-0.867196	0.429407
H259	H	0.123686	-0.782147	0.355765
H260	H	0.113888	-0.782230	0.422181
H261	H	0.016937	-0.731954	0.332612
O262	O	0.056761	-0.703351	0.224498
C263	C	0.064054	-0.777261	0.206959
C264	C	0.027903	-0.736339	0.238332
H265	H	0.040734	-0.803934	0.218124
H266	H	0.102789	-0.804101	0.218296
H267	H	0.075394	-0.754013	0.161196
H268	H	0.016523	-0.759543	0.284103
H269	H	-0.010806	-0.709499	0.226950
O270	O	-0.035429	-0.519208	0.413574
C271	C	-0.083593	-0.428612	0.365162
C272	C	-0.068470	-0.490431	0.380418
H273	H	-0.110319	-0.405328	0.338363
H274	H	-0.044795	-0.417404	0.341933
H275	H	-0.106892	-0.417339	0.403935
H276	H	-0.045185	-0.501749	0.341673
H277	H	-0.107288	-0.501607	0.403668
H278	H	-0.219915	-0.570138	0.372989
O279	O	0.056403	-0.703329	0.505786
C280	C	0.140473	-0.777334	0.513236
C281	C	0.104396	-0.736418	0.477012
H282	H	0.179289	-0.804089	0.489983
H283	H	0.117183	-0.804093	0.551984
H284	H	0.151670	-0.754079	0.524550
H285	H	0.093189	-0.759627	0.465657
H286	H	0.127706	-0.709659	0.438290
O287	O	0.018840	-0.740781	0.468226
C288	C	0.014328	-0.826362	0.540661
C289	C	-0.000814	-0.764549	0.525461
H290	H	-0.001565	-0.845595	0.586935
H291	H	0.060607	-0.845712	0.525002
H292	H	-0.004880	-0.833534	0.521289
H293	H	0.018357	-0.757328	0.544828
H294	H	-0.047097	-0.745230	0.541111
H295	H	0.058362	-0.738230	0.391661
O296	O	-0.080805	-0.846122	0.494279
C297	C	-0.174556	-0.839983	0.527199
C298	C	-0.134099	-0.808631	0.497277
H299	H	-0.217652	-0.809685	0.529623
H300	H	-0.172876	-0.866681	0.570206
H301	H	-0.163081	-0.866801	0.503884
H302	H	-0.145546	-0.781784	0.520547
H303	H	-0.135786	-0.781968	0.454268
H304	H	-0.067739	-0.562558	0.381123
H305	H	-0.109425	-0.738032	0.455342
H306	H	-0.116534	-0.689457	0.508068
H307	H	-0.116227	-0.604815	0.338615
O308	O	-0.224644	-0.656999	0.551287
C309	C	-0.218782	-0.705268	0.641928
C310	C	-0.187279	-0.690089	0.580127
H311	H	-0.188586	-0.732014	0.665263
H312	H	-0.245532	-0.728530	0.653139
H313	H	-0.245558	-0.666458	0.653134
H314	H	-0.160474	-0.728871	0.568877
H315	H	-0.160564	-0.666807	0.568949
H316	H	0.026581	-0.432337	0.406123
