data_functionalizedCrystal
_audit_creation_method	'MofGen! by Chris Wilmer'
_symmetry_space_group_name_H-M	'P1'
_symmetry_Int_Tables_number	1
_symmetry_cell_setting	triclinic
loop_
_symmetry_equiv_pos_as_xyz
  x,y,z
_cell_length_a	10.489741
_cell_length_b	10.489767
_cell_length_c	16.053802
_cell_angle_alpha	87.422641
_cell_angle_beta	87.395203
_cell_angle_gamma	95.455168
loop_
_atom_site_label
_atom_site_type_symbol
_atom_site_fract_x
_atom_site_fract_y
_atom_site_fract_z
O1	O	1.699401	-0.174646	-0.069407
O2	O	2.199401	0.325354	0.430593
O3	O	1.328209	-0.191538	-0.069423
O4	O	1.828209	0.308462	0.430577
O5	O	1.522230	0.002501	-0.069378
O6	O	2.022230	0.502501	0.430622
O7	O	1.505380	-0.368685	-0.069452
O8	O	2.005380	0.131315	0.430548
O9	O	1.511550	-0.008135	0.069479
O10	O	2.011550	0.491865	0.569479
O11	O	1.317529	-0.202174	0.069433
O12	O	1.817529	0.297826	0.569433
O13	O	1.688722	-0.185282	0.069449
O14	O	2.188722	0.314718	0.569449
Zn15	Zn	1.501429	-0.195417	0.091488
Zn16	Zn	2.001429	0.304583	0.591488
Zn17	Zn	1.515501	-0.181403	-0.091461
Zn18	Zn	2.015501	0.318597	0.408539
O19	O	1.494700	-0.379321	0.069404
O20	O	1.994700	0.120679	0.569404
C21	C	1.275337	-0.195580	0.000004
C22	C	1.775337	0.304420	0.500004
C23	C	1.133707	-0.191762	-0.000000
C24	C	1.633707	0.308238	0.500000
N25	N	1.491836	-0.204980	0.216346
N26	N	1.991836	0.295020	0.716346
C27	C	1.515609	0.044713	0.000058
C28	C	2.015609	0.544713	0.500058
C29	C	1.511776	0.186339	0.000081
C30	C	2.011776	0.686339	0.500081
C31	C	1.065553	-0.068302	0.000032
C32	C	1.565553	0.431698	0.500032
C33	C	0.978698	-0.121379	-0.068441
C34	C	1.478698	0.378621	0.431559
C35	C	0.968203	-0.131895	0.068460
C36	C	1.468203	0.368105	0.568460
C37	C	1.048723	-0.244887	-0.068530
C38	C	1.548723	0.255113	0.431470
C39	C	1.038232	-0.255390	0.068433
C40	C	1.538232	0.244610	0.568433
C41	C	0.951406	-0.308556	-0.000057
C42	C	1.451406	0.191444	0.499943
C43	C	1.741593	-0.181240	0.000021
C44	C	2.241593	0.318760	0.500021
C45	C	1.883223	-0.185057	0.000019
C46	C	2.383223	0.314943	0.500019
C47	C	1.386039	0.339195	0.000092
C48	C	1.886039	0.839195	0.500092
C49	C	1.454169	0.267048	-0.068381
C50	C	1.954169	0.767048	0.431619
C51	C	1.443669	0.256603	0.068521
C52	C	1.943669	0.756603	0.568521
C53	C	1.573146	0.366542	-0.068425
C54	C	2.073146	0.866542	0.431575
C55	C	1.562623	0.356098	0.068538
C56	C	2.062623	0.856098	0.568538
C57	C	1.630841	0.284001	0.000049
C58	C	2.130841	0.784001	0.500049
C59	C	1.501298	0.578461	0.000008
C60	C	2.001298	1.078461	0.500008
C61	C	1.505061	0.436819	0.000104
C62	C	2.005061	0.936819	0.500104
N63	N	1.525105	-0.171830	-0.216320
N64	N	2.025105	0.328170	0.283680
C65	C	1.574423	-0.122446	0.260059
C66	C	2.074423	0.377554	0.760059
C67	C	1.567724	-0.129148	0.347464
C68	C	2.067724	0.370852	0.847464
C69	C	1.478443	-0.218390	0.391155
C70	C	1.978443	0.281610	0.891155
C71	C	1.395847	-0.300928	0.347435
C72	C	1.895847	0.199072	0.847435
C73	C	1.402541	-0.294219	0.260032
C74	C	1.902541	0.205781	0.760032
C75	C	1.449203	-0.247659	0.652558
C76	C	1.949203	0.252341	1.152558
C77	C	1.442517	-0.254364	0.739967
C78	C	1.942517	0.245636	1.239967
C79	C	1.614394	-0.082582	0.739990
C80	C	2.114394	0.417418	1.239990
C81	C	1.621085	-0.075886	0.652585
C82	C	2.121085	0.424114	1.152585
C83	C	1.538484	-0.158419	0.608873
C84	C	2.038484	0.341581	1.108873
N85	N	1.471596	-0.225245	0.480497
N86	N	1.971596	0.274755	0.980497
N87	N	1.545326	-0.151557	0.519533
N88	N	2.045326	0.348443	1.019533
H89	H	1.115237	0.033198	-0.000033
H90	H	1.615237	0.533198	0.499967
Br91	Br	0.909139	-0.052183	0.164948
Br92	Br	1.409139	0.447817	0.664948
Br93	Br	0.934420	-0.026929	-0.164899
Br94	Br	1.434420	0.473071	0.335101
H95	H	0.901997	-0.410154	-0.000115
H96	H	1.401997	0.089846	0.499885
H97	H	1.627813	0.414260	-0.126361
H98	H	2.127813	0.914260	0.373639
H99	H	1.634972	-0.061942	0.383055
H100	H	2.134972	0.438058	0.883055
H101	H	1.734426	0.259530	0.000011
H102	H	2.234426	0.759530	0.500011
Br103	Br	1.352470	0.176799	0.164974
Br104	Br	1.852470	0.676799	0.664974
Br105	Br	1.274667	-0.422036	0.406726
Br106	Br	1.774667	0.077964	0.906726
Br107	Br	1.107532	-0.324493	-0.165127
Br108	Br	1.607532	0.175507	0.334873
Br109	Br	1.082572	-0.349781	0.164892
Br110	Br	1.582572	0.150219	0.664892
H111	H	1.408376	0.228007	-0.126271
H112	H	1.908376	0.728007	0.373729
H113	H	1.647130	-0.049781	0.224492
H114	H	2.147130	0.450219	0.724492
Br115	Br	1.290444	-0.406226	0.200707
Br116	Br	1.790444	0.093774	0.700707
Br117	Br	1.638876	0.421213	0.165030
Br118	Br	2.138876	0.921213	0.665030
Br119	Br	1.213538	0.380410	-0.000016
Br120	Br	1.713538	0.880410	0.499984
H121	H	1.693784	-0.003218	0.617014
H122	H	2.193784	0.496782	1.117014
H123	H	1.369810	-0.327041	0.775536
H124	H	1.869810	0.172959	1.275536
H125	H	1.681642	-0.015386	0.775588
H126	H	2.181642	0.484614	1.275588
Br127	Br	1.337108	-0.359666	0.593239
Br128	Br	1.837108	0.140334	1.093239
