data_functionalizedCrystal
_audit_creation_method	'MofGen! by Chris Wilmer'
_symmetry_space_group_name_H-M	'P1'
_symmetry_Int_Tables_number	1
_symmetry_cell_setting	triclinic
loop_
_symmetry_equiv_pos_as_xyz
  x,y,z
_cell_length_a	13.032831
_cell_length_b	12.594516
_cell_length_c	13.033109
_cell_angle_alpha	97.157122
_cell_angle_beta	76.665514
_cell_angle_gamma	82.821304
loop_
_atom_site_label
_atom_site_type_symbol
_atom_site_fract_x
_atom_site_fract_y
_atom_site_fract_z
Zn1	Zn	1.700141	-0.748268	-0.806459
Zn2	Zn	1.677479	-0.900368	-0.628852
Zn3	Zn	1.499964	-0.696498	-0.606348
Zn4	Zn	1.522494	-0.900274	-0.783896
O5	O	1.600020	-0.811352	-0.706389
O6	O	1.845772	-0.790150	-0.801759
O7	O	1.635018	-0.851697	-0.477233
O8	O	1.526573	-0.554430	-0.632918
O9	O	1.829122	-0.901897	-0.671272
O10	O	1.673643	-0.592466	-0.779938
O11	O	1.504598	-0.701914	-0.460700
O12	O	1.354315	-0.701823	-0.611040
O13	O	1.564973	-0.901737	-0.935522
O14	O	1.370868	-0.851537	-0.741483
O15	O	1.695489	-0.790059	-0.952099
O16	O	1.656865	-1.049291	-0.649394
O17	O	1.542998	-1.049222	-0.763304
C18	C	1.324052	-0.771053	-0.671372
C19	C	1.205995	-0.753843	-0.656417
C20	C	1.161567	-0.820335	-0.714194
C21	C	1.039549	-0.802548	-0.698738
C22	C	1.599949	-1.087881	-0.706369
C23	C	1.600020	-1.206201	-0.706409
C24	C	1.538074	-1.275447	-0.768314
C25	C	1.499887	-1.328404	-0.668117
C26	C	1.638306	-1.364059	-0.806635
C27	C	1.561775	-1.257585	-0.606154
C28	C	1.700247	-1.293250	-0.744743
C29	C	1.662088	-1.346171	-0.644484
C30	C	1.877065	-0.851809	-0.741543
C31	C	1.995125	-0.869049	-0.756523
C32	C	1.635272	-0.851663	-0.983427
C33	C	1.650295	-0.868841	-1.101484
C34	C	1.600123	-0.533751	-0.706435
C35	C	1.600167	-0.415453	-0.706455
C36	C	1.592463	-0.802390	-1.145938
C37	C	1.607988	-0.820143	-1.267956
C38	C	1.564965	-0.771130	-0.430436
C39	C	1.550148	-0.753682	-0.312405
H40	H	0.987256	-0.732445	-0.637832
H41	H	1.531453	-0.732360	-1.093662
O42	O	1.680656	-0.903827	-1.330247
C43	C	1.654009	-1.002610	-1.300242
H44	H	1.565292	-0.991181	-1.258909
H45	H	1.672362	-1.067071	-1.374393
H46	H	1.702824	-1.029456	-1.243164
O47	O	1.057348	-0.952705	-0.829271
C48	C	0.992342	-1.011092	-0.879968
H49	H	0.913728	-0.956598	-0.873769
H50	H	1.035136	-1.039406	-0.967678
H51	H	0.975599	-1.084483	-0.839454
H52	H	1.485571	-1.244370	-0.820564
O53	O	1.477294	-0.670248	-1.249934
C54	C	1.400543	-0.711555	-1.177076
H55	H	1.435888	-0.795296	-1.165304
H56	H	1.376459	-0.654847	-1.097231
H57	H	1.327221	-0.717922	-1.209774
H58	H	1.153699	-0.683745	-0.595515
O59	O	1.723199	-0.952263	-1.163899
C60	C	1.799915	-0.910954	-1.236794
H61	H	1.802269	-0.823247	-1.204146
H62	H	1.881818	-0.961577	-1.248526
H63	H	1.777693	-0.914636	-1.316653
H64	H	1.714527	-1.377023	-0.592083
H65	H	1.415196	-1.344463	-0.635726
H66	H	1.213864	-0.890425	-0.775104
O67	O	1.523075	-1.202471	-0.505086
C68	C	1.523446	-1.090732	-0.506284
H69	H	1.522314	-1.071997	-0.589401
H70	H	1.449823	-1.042528	-0.445591
H71	H	1.598500	-1.067314	-0.484829
H72	H	1.784925	-1.277199	-0.777178
O73	O	1.676758	-1.419013	-0.907794
C74	C	1.611111	-1.382921	-0.972743
H75	H	1.566615	-1.297946	-0.936092
H76	H	1.662589	-1.381184	-1.055910
H77	H	1.551047	-1.440446	-0.978749
