data_functionalizedCrystal
_audit_creation_method	'MofGen! by Chris Wilmer'
_symmetry_space_group_name_H-M	'P1'
_symmetry_Int_Tables_number	1
_symmetry_cell_setting	triclinic
loop_
_symmetry_equiv_pos_as_xyz
  x,y,z
_cell_length_a	27.731988
_cell_length_b	27.732064
_cell_length_c	13.930277
_cell_angle_alpha	89.999521
_cell_angle_beta	90.001665
_cell_angle_gamma	97.366104
loop_
_atom_site_label
_atom_site_type_symbol
_atom_site_fract_x
_atom_site_fract_y
_atom_site_fract_z
O1	O	-0.640951	0.057379	-0.079698
O2	O	-0.140951	0.557379	0.420302
O3	O	-0.500154	0.066155	-0.079726
O4	O	-0.000154	0.566155	0.420274
O5	O	-0.574922	-0.008630	-0.079715
O6	O	-0.074922	0.491370	0.420285
O7	O	-0.566184	0.132164	-0.079709
O8	O	-0.066184	0.632164	0.420291
O9	O	-0.574911	-0.008632	0.079947
O10	O	-0.074911	0.491368	0.579947
O11	O	-0.500144	0.066153	0.079936
O12	O	-0.000144	0.566153	0.579936
O13	O	-0.640941	0.057378	0.079964
O14	O	-0.140941	0.557378	0.579964
Zn15	Zn	-0.570541	0.061765	0.105299
Zn16	Zn	-0.070541	0.561765	0.605299
Zn17	Zn	-0.570555	0.061767	-0.105062
Zn18	Zn	-0.070555	0.561767	0.394938
O19	O	-0.566174	0.132163	0.079952
O20	O	-0.066174	0.632163	0.579952
C21	C	-0.482142	0.065974	0.000101
C22	C	0.017858	0.565974	0.500101
C23	C	-0.428485	0.065433	0.000090
C24	C	0.071515	0.565433	0.500090
C25	C	-0.574732	-0.026638	0.000113
C26	C	-0.074732	0.473362	0.500113
C27	C	-0.574176	-0.080292	0.000104
C28	C	-0.074176	0.419708	0.500104
C29	C	-0.095760	0.062023	0.087165
C30	C	0.404240	0.562023	0.587165
C31	C	0.105899	0.059965	0.087179
C32	C	0.605899	0.559965	0.587179
O33	O	0.131976	0.059677	0.161197
O34	O	0.631976	0.559677	0.661197
N35	N	0.131108	0.059710	0.000148
N36	N	0.631108	0.559710	0.500148
C37	C	0.105899	0.059967	-0.086893
C38	C	0.605899	0.559967	0.413107
O39	O	0.131968	0.059698	-0.160918
O40	O	0.631968	0.559698	0.339082
C41	C	-0.095759	0.062021	-0.086906
C42	C	0.404241	0.562021	0.413094
C43	C	-0.120965	0.062281	0.000130
C44	C	0.379035	0.562281	0.500130
C45	C	-0.120966	0.062282	0.174194
C46	C	0.379034	0.562282	0.674194
C47	C	-0.171378	0.062799	0.174190
C48	C	0.328622	0.562799	0.674190
C49	C	-0.196583	0.063057	0.087156
C50	C	0.303417	0.563057	0.587156
C51	C	-0.171377	0.062798	0.000126
C52	C	0.328623	0.562798	0.500126
C53	C	-0.120968	0.062274	-0.173946
C54	C	0.379032	0.562274	0.326054
C55	C	-0.171386	0.062786	-0.173942
C56	C	0.328614	0.562786	0.326058
C57	C	-0.196592	0.063046	-0.086905
C58	C	0.303408	0.563046	0.413095
C59	C	-0.246993	0.063573	-0.086913
C60	C	0.253007	0.563573	0.413087
N61	N	-0.272202	0.063827	0.000118
N62	N	0.227798	0.563827	0.500118
C63	C	-0.246997	0.063569	0.087152
C64	C	0.253003	0.563569	0.587152
C65	C	0.211773	0.058889	-0.086879
C66	C	0.711773	0.558889	0.413121
C67	C	0.262187	0.058376	-0.086876
C68	C	0.762187	0.558376	0.413124
C69	C	0.262183	0.058374	0.087196
C70	C	0.762183	0.558374	0.587196
C71	C	0.211768	0.058890	0.087192
C72	C	0.711768	0.558890	0.587192
C73	C	0.186563	0.059144	0.000152
C74	C	0.686563	0.559144	0.500152
C75	C	-0.352865	0.064656	0.087136
C76	C	0.147135	0.564656	0.587136
C77	C	-0.403280	0.065175	0.087124
C78	C	0.096720	0.565175	0.587124
C79	C	-0.403272	0.065175	-0.086948
C80	C	0.096728	0.565175	0.413052
C81	C	-0.352861	0.064658	-0.086936
C82	C	0.147139	0.564658	0.413064
C83	C	-0.327658	0.064397	0.000114
C84	C	0.172342	0.564397	0.500114
O85	O	-0.273102	0.063855	-0.160891
O86	O	0.226898	0.563855	0.339109
O87	O	-0.273076	0.063828	0.161166
O88	O	0.226924	0.563828	0.661166
C89	C	-0.045349	0.061506	0.087169
C90	C	0.454651	0.561506	0.587169
C91	C	-0.020143	0.061247	0.000140
C92	C	0.479857	0.561247	0.500140
C93	C	-0.045348	0.061504	-0.086895
C94	C	0.454652	0.561504	0.413105
C95	C	0.030272	0.060734	0.000143
C96	C	0.530272	0.560734	0.500143
C97	C	0.055477	0.060476	0.087177
C98	C	0.555477	0.560476	0.587177
C99	C	0.030268	0.060731	0.174208
C100	C	0.530268	0.560731	0.674208
C101	C	-0.020144	0.061248	0.174204
C102	C	0.479856	0.561248	0.674204
C103	C	-0.020139	0.061250	-0.173926
C104	C	0.479861	0.561250	0.326074
C105	C	0.030273	0.060733	-0.173914
C106	C	0.530273	0.560733	0.326086
C107	C	0.055478	0.060475	-0.086880
C108	C	0.555478	0.560475	0.413120
C109	C	-0.526207	-0.457354	0.000090
C110	C	-0.026207	0.042646	0.500090
C111	C	-0.528253	-0.255695	0.000090
C112	C	-0.028253	0.244305	0.500090
O113	O	-0.491031	-0.224434	0.000044
O114	O	0.008969	0.275566	0.500044
N115	N	-0.572589	-0.236577	0.000098
N116	N	-0.072589	0.263423	0.500098
C117	C	-0.616416	-0.267877	0.000101
C118	C	-0.116416	0.232123	0.500101
O119	O	-0.654173	-0.246989	0.000098
O120	O	-0.154173	0.253011	0.500098
C121	C	-0.614369	-0.469536	0.000095
C122	C	-0.114369	0.030464	0.500095
C123	C	-0.570031	-0.488651	0.000096
C124	C	-0.070031	0.011349	0.500096
C125	C	-0.481872	-0.476470	0.000090
C126	C	0.018128	0.023530	0.500090
C127	C	-0.481361	-0.526882	0.000096
C128	C	0.018639	-0.026882	0.500096
C129	C	-0.525185	-0.558178	0.000101
C130	C	-0.025185	-0.058178	0.500101
C131	C	-0.569520	-0.539063	0.000101
C132	C	-0.069520	-0.039063	0.500101
C133	C	-0.658196	-0.500835	0.000091
C134	C	-0.158196	-0.000835	0.500091
C135	C	-0.657680	-0.551253	0.000087
C136	C	-0.157680	-0.051253	0.500087
C137	C	-0.613342	-0.570368	0.000088
C138	C	-0.113342	-0.070368	0.500088
C139	C	-0.612833	-0.620771	0.000112
C140	C	-0.112833	-0.120771	0.500112
N141	N	-0.568497	-0.639889	0.000104
N142	N	-0.068497	-0.139889	0.500104
C143	C	-0.524673	-0.608593	0.000098
C144	C	-0.024673	-0.108593	0.500098
C145	C	-0.617488	-0.162003	0.000106
C146	C	-0.117488	0.337997	0.500106
C147	C	-0.618000	-0.111588	0.000109
C148	C	-0.118000	0.388412	0.500109
C149	C	-0.529837	-0.099409	0.000096
C150	C	-0.029837	0.400591	0.500096
C151	C	-0.529325	-0.149825	0.000100
C152	C	-0.029325	0.350175	0.500100
C153	C	-0.573152	-0.181121	0.000097
C154	C	-0.073152	0.318879	0.500097
C155	C	-0.523603	-0.714462	0.000110
C156	C	-0.023603	-0.214462	0.500110
C157	C	-0.523096	-0.764879	0.000120
C158	C	-0.023096	-0.264879	0.500120
C159	C	-0.611259	-0.777054	0.000128
C160	C	-0.111259	-0.277054	0.500128
C161	C	-0.611766	-0.726641	0.000123
C162	C	-0.111766	-0.226641	0.500123
C163	C	-0.567934	-0.695346	0.000111
C164	C	-0.067934	-0.195346	0.500111
O165	O	-0.650035	-0.652060	0.000147
O166	O	-0.150035	-0.152060	0.500147
O167	O	-0.486922	-0.629491	0.000079
O168	O	0.013078	-0.129491	0.500079
C169	C	-0.526718	-0.406942	0.000085
C170	C	-0.026718	0.093058	0.500085
C171	C	-0.571053	-0.387827	0.000085
C172	C	-0.071053	0.112173	0.500085
C173	C	-0.614877	-0.419123	0.000091
C174	C	-0.114877	0.080877	0.500091
C175	C	-0.571565	-0.337412	0.000088
C176	C	-0.071565	0.162588	0.500088
C177	C	-0.527741	-0.306116	0.000083
C178	C	-0.027741	0.193884	0.500083
C179	C	-0.483406	-0.325234	0.000074
C180	C	0.016594	0.174766	0.500074
C181	C	-0.482895	-0.375646	0.000079
C182	C	0.017105	0.124354	0.500079
C183	C	-0.659213	-0.400005	0.000099
C184	C	-0.159213	0.099995	0.500099
C185	C	-0.659720	-0.349593	0.000095
C186	C	-0.159720	0.150407	0.500095
C187	C	-0.615896	-0.318296	0.000089
C188	C	-0.115896	0.181704	0.500089
C189	C	0.341047	0.057563	0.000139
C190	C	0.841047	0.557563	0.500139
C191	C	0.287392	0.058118	0.000158
C192	C	0.787392	0.558118	0.500158
C193	C	-0.566364	0.150170	0.000122
C194	C	-0.066364	0.650170	0.500122
C195	C	-0.566920	0.203824	0.000125
C196	C	-0.066920	0.703824	0.500125
N197	N	-0.570535	0.061763	0.248865
N198	N	-0.070535	0.561763	0.748865
N199	N	-0.570564	0.061765	-0.248628
N200	N	-0.070564	0.561765	0.251372
C201	C	-0.537446	0.094869	0.701130
C202	C	-0.037446	0.594869	1.201130
C203	C	-0.603676	0.028661	0.701109
C204	C	-0.103676	0.528661	1.201109
C205	C	-0.603670	0.028660	0.600613
C206	C	-0.103670	0.528660	1.100613
C207	C	-0.570553	0.061764	0.550371
C208	C	-0.070553	0.561764	1.050371
C209	C	-0.537441	0.094870	0.600625
C210	C	-0.037441	0.594870	1.100625
C211	C	-0.636785	-0.004442	0.550352
C212	C	-0.136785	0.495558	1.050352
C213	C	-0.636781	-0.004444	0.449850
C214	C	-0.136781	0.495556	0.949850
C215	C	-0.603660	0.028658	0.399606
C216	C	-0.103660	0.528658	0.899606
C217	C	-0.570547	0.061764	0.449866
C218	C	-0.070547	0.561764	0.949866
C219	C	-0.537429	0.094869	0.399624
C220	C	-0.037429	0.594869	0.899624
C221	C	-0.504313	0.127973	0.449882
C222	C	-0.004313	0.627973	0.949882
C223	C	-0.504320	0.127972	0.550381
C224	C	-0.004320	0.627972	1.050381
C225	C	-0.603653	0.028659	0.299108
C226	C	-0.103653	0.528659	0.799108
C227	C	-0.537423	0.094869	0.299119
C228	C	-0.037423	0.594869	0.799119
H229	H	-0.423800	0.065388	0.158003
H230	H	0.076200	0.565388	0.658003
H231	H	-0.663751	-0.031392	0.591263
H232	H	-0.163751	0.468608	1.091263
H233	H	-0.447723	-0.299743	0.000076
H234	H	0.052277	0.200257	0.500076
H235	H	-0.694900	-0.425483	0.000103
H236	H	-0.194900	0.074517	0.500103
C237	C	-0.665704	-0.196423	0.000120
C238	C	-0.165704	0.303577	0.500120
N239	N	-0.702021	-0.222346	0.000138
N240	N	-0.202021	0.277654	0.500138
H241	H	0.050792	0.060526	-0.244796
H242	H	0.550792	0.560526	0.255204
C243	C	-0.199108	0.063067	-0.269696
C244	C	0.300892	0.563067	0.230304
N245	N	-0.219987	0.063281	-0.341818
N246	N	0.280013	0.563281	0.158182
H247	H	-0.332336	0.064455	-0.157808
H248	H	0.167664	0.564455	0.342192
H249	H	-0.510453	0.121825	0.258218
H250	H	-0.010453	0.621825	0.758218
C251	C	-0.673205	-0.040863	0.394576
C252	C	-0.173205	0.459137	0.894576
N253	N	-0.700639	-0.068296	0.352942
N254	N	-0.200639	0.431704	0.852942
H255	H	-0.332350	0.064447	0.158021
H256	H	0.167650	0.564447	0.658021
H257	H	-0.477350	0.154929	0.408963
H258	H	0.022650	0.654929	0.908963
H259	H	0.191256	0.059096	-0.157762
H260	H	0.691256	0.559096	0.342238
H261	H	-0.630618	0.001708	0.258192
H262	H	-0.130618	0.501708	0.758192
H263	H	-0.191896	0.063007	0.245064
H264	H	0.308104	0.563007	0.745064
C265	C	0.289909	0.058095	-0.182624
C266	C	0.789909	0.558095	0.317376
N267	N	0.310786	0.057879	-0.254744
N268	N	0.810786	0.557879	0.245256
H269	H	-0.100454	0.062062	-0.244821
H270	H	0.399546	0.562062	0.255179
C271	C	-0.640103	-0.007751	0.756379
C272	C	-0.140103	0.492249	1.256379
N273	N	-0.667541	-0.035179	0.798012
N274	N	-0.167541	0.464821	1.298012
H275	H	-0.100450	0.062071	0.245072
H276	H	0.399550	0.562071	0.745072
C277	C	-0.432585	-0.547901	0.000085
C278	C	0.067415	-0.047901	0.500085
N279	N	-0.395844	-0.563730	0.000072
N280	N	0.104156	-0.063730	0.500072
H281	H	-0.487911	-0.688987	0.000100
H282	H	0.012089	-0.188987	0.500100
C283	C	-0.467893	0.164381	0.605672
C284	C	0.032107	0.664381	1.105672
N285	N	-0.440456	0.191804	0.647321
N286	N	0.059544	0.691804	1.147321
C287	C	-0.501017	0.131279	0.756413
C288	C	-0.001017	0.631279	1.256413
N289	N	-0.473577	0.158703	0.798055
N290	N	0.026423	0.658703	1.298055
H291	H	-0.040656	0.061458	-0.244801
H292	H	0.459344	0.561458	0.255199
H293	H	0.282714	0.058165	0.158063
H294	H	0.782714	0.558165	0.658063
C295	C	0.184046	0.059171	0.182938
C296	C	0.684046	0.559171	0.682938
N297	N	0.163167	0.059380	0.255059
N298	N	0.663167	0.559380	0.755059
H299	H	-0.423803	0.065387	-0.157809
H300	H	0.076197	0.565387	0.342191
C301	C	-0.047864	0.061529	0.269952
C302	C	0.452136	0.561529	0.769952
N303	N	-0.068741	0.061739	0.342075
N304	N	0.431259	0.561739	0.842075
C305	C	-0.660540	-0.705614	0.000128
C306	C	-0.160540	-0.205614	0.500128
N307	N	-0.697278	-0.689780	0.000120
N308	N	-0.197278	-0.189780	0.500120
C309	C	0.058003	0.060446	0.269946
C310	C	0.558003	0.560446	0.769946
N311	N	0.078895	0.060228	0.342052
N312	N	0.578895	0.560228	0.842052
C313	C	-0.480550	-0.170846	0.000092
C314	C	0.019450	0.329154	0.500092
N315	N	-0.443810	-0.186677	0.000083
N316	N	0.056190	0.313323	0.500083
C317	C	-0.474318	-0.785902	0.000117
C318	C	0.025682	-0.285902	0.500117
N319	N	-0.437580	-0.801735	0.000113
N320	N	0.062420	-0.301735	0.500113
H321	H	-0.446184	-0.450993	0.000083
H322	H	0.053816	0.049007	0.500083
C323	C	-0.708499	-0.328573	0.000095
C324	C	-0.208499	0.171427	0.500095
N325	N	-0.745239	-0.312743	0.000087
N326	N	-0.245239	0.187257	0.500087
H327	H	-0.654104	-0.096030	0.000123
H328	H	-0.154104	0.403970	0.500123
C329	C	-0.481630	-0.064974	0.000082
C330	C	0.018370	0.435026	0.500082
N331	N	-0.445323	-0.039035	0.000064
N332	N	0.054677	0.460965	0.500064
H333	H	-0.446790	-0.391204	0.000081
H334	H	0.053210	0.108796	0.500081
C335	C	-0.706973	-0.479821	0.000085
C336	C	-0.206973	0.020179	0.500085
N337	N	-0.743714	-0.463994	0.000078
N338	N	-0.243714	0.036006	0.500078
H339	H	-0.693370	-0.576732	0.000080
H340	H	-0.193370	-0.076732	0.500080
H341	H	-0.646939	-0.802544	0.000137
H342	H	-0.146939	-0.302544	0.500137
