data_functionalizedCrystal
_audit_creation_method	'MofGen! by Chris Wilmer'
_symmetry_space_group_name_H-M	'P1'
_symmetry_Int_Tables_number	1
_symmetry_cell_setting	triclinic
loop_
_symmetry_equiv_pos_as_xyz
  x,y,z
_cell_length_a	12.759401
_cell_length_b	12.759400
_cell_length_c	18.215399
_cell_angle_alpha	90.023429
_cell_angle_beta	90.017098
_cell_angle_gamma	90.013149
loop_
_atom_site_label
_atom_site_type_symbol
_atom_site_fract_x
_atom_site_fract_y
_atom_site_fract_z
Zn1	Zn	1.606246	-0.418278	0.416085
Zn2	Zn	2.106246	0.081722	0.916085
Zn3	Zn	1.606151	-0.593975	0.293029
Zn4	Zn	2.106151	-0.093975	0.793029
Zn5	Zn	1.430554	-0.418310	0.293039
Zn6	Zn	1.930554	0.081690	0.793039
Zn7	Zn	1.430541	-0.593915	0.416060
Zn8	Zn	1.930541	-0.093915	0.916060
O9	O	1.518373	-0.506119	0.354553
O10	O	2.018373	-0.006119	0.854553
O11	O	1.753254	-0.441595	0.399768
O12	O	2.253254	0.058405	0.899768
O13	O	1.582823	-0.570711	0.190046
O14	O	2.082823	-0.070711	0.690046
O15	O	1.453905	-0.271285	0.309376
O16	O	1.953905	0.228715	0.809376
O17	O	1.753185	-0.570680	0.309359
O18	O	2.253185	-0.070680	0.809359
O19	O	1.582985	-0.271261	0.399778
O20	O	2.082985	0.228739	0.899778
O21	O	1.453813	-0.441652	0.190053
O22	O	1.953813	0.058348	0.690053
O23	O	1.283531	-0.441594	0.309351
O24	O	1.783531	0.058406	0.809351
O25	O	1.453883	-0.570577	0.519047
O26	O	1.953883	-0.070577	1.019047
O27	O	1.283522	-0.570609	0.399734
O28	O	1.783522	-0.070609	0.899734
O29	O	1.582973	-0.441537	0.519066
O30	O	2.082973	0.058463	1.019066
O31	O	1.582811	-0.740988	0.309334
O32	O	2.082811	-0.240988	0.809334
O33	O	1.453791	-0.740944	0.399724
O34	O	1.953791	-0.240944	0.899724
C35	C	1.245406	-0.506099	0.354541
C36	C	1.745406	-0.006099	0.854541
C37	C	1.128629	-0.506116	0.354553
C38	C	1.628629	-0.006116	0.854553
C39	C	1.518318	-0.779087	0.354541
C40	C	2.018318	-0.279087	0.854541
C41	C	1.518390	-0.895863	0.354561
C42	C	2.018390	-0.395863	0.854561
C43	C	0.964073	-0.439037	0.401708
C44	C	1.464073	0.060963	0.901708
C45	C	1.073798	-0.439022	0.401702
C46	C	1.573798	0.060978	0.901702
C47	C	1.073731	-0.573236	0.307414
C48	C	1.573731	-0.073236	0.807414
C49	C	0.964009	-0.573255	0.307425
C50	C	1.464009	-0.073255	0.807425
C51	C	0.909248	-0.371931	0.448855
C52	C	1.409248	0.128069	0.948855
C53	C	0.964138	-0.304812	0.495996
C54	C	1.464138	0.195188	0.995996
C55	C	1.073862	-0.304797	0.495989
C56	C	1.573862	0.195203	0.995989
C57	C	1.128696	-0.371902	0.448842
C58	C	1.628696	0.128098	0.948842
C59	C	1.585569	-0.950633	0.401672
C60	C	2.085569	-0.450633	0.901672
C61	C	1.585618	-1.060357	0.401690
C62	C	2.085618	-0.560357	0.901690
C63	C	1.451307	-1.060532	0.307480
C64	C	1.951307	-0.560532	0.807480
C65	C	1.451254	-0.950810	0.307466
C66	C	1.951254	-0.450810	0.807466
C67	C	1.652706	-0.895687	0.448767
C68	C	2.152706	-0.395687	0.948767
C69	C	1.719890	-0.950456	0.495881
C70	C	2.219890	-0.450456	0.995881
C71	C	1.719939	-1.060180	0.495899
C72	C	2.219939	-0.560180	0.995899
C73	C	1.652803	-1.115135	0.448803
C74	C	2.152803	-0.615135	0.948803
C75	C	1.792406	-0.506141	0.354565
C76	C	2.292406	-0.006141	0.854565
C77	C	1.909183	-0.506149	0.354571
C78	C	2.409183	-0.006149	0.854571
C79	C	1.518437	-0.506047	0.546506
C80	C	2.018437	-0.006047	1.046506
C81	C	1.518464	-0.506016	0.628305
C82	C	2.018464	-0.006016	1.128305
C83	C	1.518457	-0.232086	0.354581
C84	C	2.018457	0.267914	0.854581
C85	C	1.518493	-0.115310	0.354593
C86	C	2.018493	0.384690	0.854593
C87	C	1.518370	-0.506116	0.163347
C88	C	2.018370	-0.006116	0.663347
C89	C	1.518546	-0.505851	0.081548
C90	C	2.018546	-0.005851	0.581548
C91	C	1.585705	-0.438762	0.816510
C92	C	2.085705	0.061238	1.316510
C93	C	1.585718	-0.438732	0.893369
C94	C	2.085718	0.061268	1.393369
C95	C	1.451298	-0.573108	0.893338
C96	C	1.951298	-0.073108	1.393338
C97	C	1.451280	-0.573132	0.816480
C98	C	1.951280	-0.073132	1.316480
C99	C	1.518490	-0.505961	0.778069
C100	C	2.018490	-0.005961	1.278069
C101	C	1.518520	-0.505906	0.931785
C102	C	2.018520	-0.005906	1.431785
C103	C	1.518533	-0.505873	1.015118
C104	C	2.018533	-0.005873	1.515118
C105	C	1.518476	-0.505992	0.694730
C106	C	2.018476	-0.005992	1.194730
H107	H	0.919486	-0.250184	0.534385
H108	H	1.419486	0.249816	1.034385
H109	H	1.640429	-0.384064	0.785237
H110	H	2.140429	0.115936	1.285237
H111	H	1.774636	-1.104771	0.534267
H112	H	2.274636	-0.604771	1.034267
H113	H	0.819905	-0.371931	0.448862
H114	H	1.319905	0.128069	0.948862
H115	H	1.218041	-0.371877	0.448835
H116	H	1.718041	0.128123	0.948835
H117	H	1.396550	-0.906216	0.269105
H118	H	1.896550	-0.406216	0.769105
H119	H	1.118552	-0.250153	0.534378
H120	H	1.618552	0.249847	1.034378
H121	H	1.396538	-0.627853	0.785181
H122	H	1.896538	-0.127853	1.285181
N123	N	0.904809	-0.645636	0.256575
N124	N	1.404809	-0.145636	0.756575
H125	H	0.859266	-0.602882	0.222528
H126	H	1.359266	-0.102882	0.722528
H127	H	0.859361	-0.694375	0.286479
H128	H	1.359361	-0.194375	0.786479
N129	N	1.658202	-0.366241	0.934832
N130	N	2.158202	0.133759	1.434832
H131	H	1.700769	-0.323692	0.898833
H132	H	2.200769	0.176308	1.398833
H133	H	1.706819	-0.408988	0.966726
H134	H	2.206819	0.091012	1.466726
H135	H	1.652836	-1.204479	0.448830
H136	H	2.152836	-0.704479	0.948830
H137	H	1.118385	-0.627869	0.269028
H138	H	1.618385	-0.127869	0.769028
N139	N	1.378914	-1.119797	0.256676
N140	N	1.878914	-0.619797	0.756676
H141	H	1.303827	-1.100753	0.268054
H142	H	1.803827	-0.600753	0.768054
H143	H	1.389235	-1.197598	0.263854
H144	H	1.889235	-0.697598	0.763854
H145	H	1.396580	-0.627798	0.924622
H146	H	1.896580	-0.127798	1.424622
N147	N	1.652664	-0.777343	0.448739
N148	N	2.152664	-0.277343	0.948739
H149	H	1.705390	-0.750843	0.485718
H150	H	2.205390	-0.250843	0.985718
H151	H	1.580538	-0.751023	0.462197
H152	H	2.080538	-0.251023	0.962197
N153	N	1.792285	-0.891192	0.546684
N154	N	2.292285	-0.391192	1.046684
H155	H	1.782062	-0.813373	0.539526
H156	H	2.282062	-0.313373	1.039526
H157	H	1.867339	-0.910329	0.535281
H158	H	2.367339	-0.410329	1.035281
