data_functionalizedCrystal
_audit_creation_method	'MofGen! by Chris Wilmer'
_symmetry_space_group_name_H-M	'P1'
_symmetry_Int_Tables_number	1
_symmetry_cell_setting	triclinic
loop_
_symmetry_equiv_pos_as_xyz
  x,y,z
_cell_length_a	10.654546
_cell_length_b	9.130313
_cell_length_c	8.597258
_cell_angle_alpha	82.295834
_cell_angle_beta	84.911776
_cell_angle_gamma	90.010653
loop_
_atom_site_label
_atom_site_type_symbol
_atom_site_fract_x
_atom_site_fract_y
_atom_site_fract_z
O1	O	-1.669015	-0.094234	-0.220429
O2	O	-1.303648	-0.091528	-0.241439
O3	O	-1.493519	-0.121702	-0.002544
O4	O	-1.479144	-0.064060	-0.459324
O5	O	-1.493506	0.121899	-0.002558
O6	O	-1.303635	0.152072	-0.241453
O7	O	-1.669002	0.149367	-0.220443
Cu8	Cu	-1.486317	0.172962	-0.230950
Cu9	Cu	-1.486333	-0.115124	-0.230933
O10	O	-1.479131	0.179540	-0.459338
C11	C	-1.256835	0.030085	-0.239905
C12	C	-1.117367	0.029523	-0.235293
C13	C	-1.491967	-0.007285	0.055937
C14	C	-1.487348	-0.029285	0.230215
N15	N	-1.486316	0.375586	-0.230961
C16	C	-1.038630	0.047258	-0.375950
C17	C	-0.907586	0.046695	-0.371607
C18	C	-0.934029	0.010656	-0.085937
C19	C	-1.065070	0.011229	-0.090282
C20	C	-1.023362	0.068058	-0.540879
C21	C	-0.892318	0.067496	-0.536536
C22	C	-0.715815	0.027772	-0.221982
C23	C	-0.855282	0.028387	-0.226605
N24	N	-1.486344	-0.317749	-0.230910
C25	C	-1.563657	0.464364	-0.327039
C26	C	-1.563675	0.617698	-0.327009
C27	C	-1.409000	0.593460	-0.134821
C28	C	-1.408990	0.440129	-0.134843
C29	C	-1.652953	0.478359	-0.438002
C30	C	-1.652971	0.631693	-0.437973
C31	C	-1.480679	0.065120	0.482180
C32	C	-1.485285	0.087108	0.307900
H33	H	-1.129175	-0.003191	0.024255
H34	H	-1.346044	0.646030	-0.056565
H35	H	-1.487054	0.203579	0.241081
Cl36	Cl	-0.822195	0.239577	-0.613503
Cl37	Cl	-0.828396	-0.077797	-0.632464
Cl38	Cl	-1.484637	-0.209123	0.333382
H39	H	-0.891432	-0.004261	0.032126
Cl40	Cl	-1.592786	0.427987	-0.620435
Cl41	Cl	-1.069179	0.238018	-0.640480
Cl42	Cl	-1.798610	0.695463	-0.361831
H43	H	-1.059303	-0.030491	-0.593388
H44	H	-1.346025	0.367849	-0.056590
Cl45	Cl	-1.805558	0.406534	-0.378458
H46	H	-1.622697	0.688957	-0.561748
