data_functionalizedCrystal
_audit_creation_method	'MofGen! by Chris Wilmer'
_symmetry_space_group_name_H-M	'P1'
_symmetry_Int_Tables_number	1
_symmetry_cell_setting	triclinic
loop_
_symmetry_equiv_pos_as_xyz
  x,y,z
_cell_length_a	14.908993
_cell_length_b	14.908520
_cell_length_c	14.908854
_cell_angle_alpha	89.778335
_cell_angle_beta	96.752834
_cell_angle_gamma	96.420918
loop_
_atom_site_label
_atom_site_type_symbol
_atom_site_fract_x
_atom_site_fract_y
_atom_site_fract_z
Zn1	Zn	1.338568	-0.255995	-0.447721
Zn2	Zn	1.671902	0.077339	-0.114388
Zn3	Zn	2.005235	0.410672	0.218946
Zn4	Zn	1.337452	-0.415108	-0.306102
Zn5	Zn	1.670785	-0.081775	0.027231
Zn6	Zn	2.004118	0.251558	0.360565
Zn7	Zn	1.194926	-0.272499	-0.306106
Zn8	Zn	1.528259	0.060834	0.027227
Zn9	Zn	1.861592	0.394167	0.360560
Zn10	Zn	1.177431	-0.415056	-0.466133
Zn11	Zn	1.510765	-0.081722	-0.132800
Zn12	Zn	1.844098	0.251611	0.200534
O13	O	1.262094	-0.339665	-0.381516
O14	O	1.595428	-0.006331	-0.048182
O15	O	1.928761	0.327002	0.285151
O16	O	1.465504	-0.270216	-0.421228
O17	O	1.798838	0.063117	-0.087894
O18	O	2.132171	0.396451	0.245439
O19	O	1.325399	-0.403120	-0.179863
O20	O	1.658733	-0.069787	0.153470
O21	O	1.992066	0.263547	0.486804
O22	O	1.221769	-0.144060	-0.317188
O23	O	1.555102	0.189273	0.016145
O24	O	1.888436	0.522607	0.349478
O25	O	1.464684	-0.387116	-0.317181
O26	O	1.798017	-0.053783	0.016152
O27	O	2.131351	0.279550	0.349486
O28	O	1.327303	-0.131934	-0.421232
O29	O	1.660636	0.201399	-0.087899
O30	O	1.993969	0.534733	0.245435
O31	O	1.220686	-0.298346	-0.179866
O32	O	1.554019	0.034987	0.153467
O33	O	1.887353	0.368321	0.486800
O34	O	1.065521	-0.298295	-0.335042
O35	O	1.398854	0.035038	-0.001708
O36	O	1.732188	0.368372	0.331625
O37	O	1.191952	-0.387027	-0.589930
O38	O	1.525286	-0.053693	-0.256597
O39	O	1.858619	0.279640	0.076736
O40	O	1.052668	-0.403031	-0.452612
O41	O	1.386001	-0.069697	-0.119279
O42	O	1.719335	0.263636	0.214054
O43	O	1.310339	-0.270165	-0.576403
O44	O	1.643672	0.063168	-0.243070
O45	O	1.977006	0.396502	0.090263
O46	O	1.308436	-0.541351	-0.335034
O47	O	1.641769	-0.208018	-0.001701
O48	O	1.975103	0.125315	0.331632
O49	O	1.190870	-0.541313	-0.452608
O50	O	1.524203	-0.207979	-0.119275
O51	O	1.857536	0.125354	0.214058
C52	C	1.026143	-0.352449	-0.395826
C53	C	1.359476	-0.019115	-0.062493
C54	C	1.692810	0.314218	0.270841
C55	C	0.925199	-0.357939	-0.401971
C56	C	1.258533	-0.024605	-0.068637
C57	C	1.591866	0.308728	0.264696
C58	C	0.748850	-0.259011	-0.291241
C59	C	1.082183	0.074323	0.042092
C60	C	1.415516	0.407656	0.375425
C61	C	0.654005	-0.264166	-0.297012
C62	C	0.987338	0.069167	0.036322
C63	C	1.320671	0.402501	0.369655
C64	C	0.640662	-0.373409	-0.419277
C65	C	0.973996	-0.040075	-0.085944
C66	C	1.307329	0.293258	0.247390
C67	C	0.735508	-0.368253	-0.413507
C68	C	1.068841	-0.034920	-0.080173
C69	C	1.402174	0.298413	0.253160
C70	C	0.789598	-0.311051	-0.349488
C71	C	1.122931	0.022282	-0.016154
C72	C	1.456265	0.355615	0.317179
C73	C	0.884445	-0.305892	-0.343722
C74	C	1.217778	0.027441	-0.010389
C75	C	1.551112	0.360775	0.322945
C76	C	0.871101	-0.415139	-0.465982
C77	C	1.204434	-0.081805	-0.132649
C78	C	1.537768	0.251528	0.200684
C79	C	0.776256	-0.420294	-0.471753
C80	C	1.109589	-0.086961	-0.138419
C81	C	1.442923	0.246373	0.194914
C82	C	1.247657	-0.574065	-0.395837
C83	C	1.580990	-0.240731	-0.062504
C84	C	1.914323	0.092602	0.270830
C85	C	1.241562	-0.674336	-0.401989
C86	C	1.574895	-0.341003	-0.068655
C87	C	1.908229	-0.007669	0.264678
C88	C	1.352645	-0.862724	-0.291204
C89	C	1.685978	-0.529390	0.042129
C90	C	2.019312	-0.196057	0.375462
C91	C	1.346921	-0.956937	-0.296982
C92	C	1.680255	-0.623604	0.036352
C93	C	2.013588	-0.290271	0.369685
C94	C	1.224396	-0.956978	-0.419323
C95	C	1.557730	-0.623645	-0.085990
C96	C	1.891063	-0.290312	0.247343
C97	C	1.230120	-0.862765	-0.413546
C98	C	1.563453	-0.529431	-0.080213
C99	C	1.896786	-0.196098	0.253120
C100	C	1.294245	-0.815641	-0.349484
C101	C	1.627579	-0.482307	-0.016151
C102	C	1.960912	-0.148974	0.317183
C103	C	1.299964	-0.721426	-0.343703
C104	C	1.633297	-0.388092	-0.010370
C105	C	1.966631	-0.054759	0.322964
C106	C	1.177444	-0.721468	-0.466049
C107	C	1.510777	-0.388134	-0.132715
C108	C	1.844110	-0.054801	0.200618
C109	C	1.171720	-0.815682	-0.471826
C110	C	1.505054	-0.482348	-0.138492
C111	C	1.838387	-0.149015	0.194841
C112	C	1.498967	-0.326831	-0.367150
C113	C	1.832300	0.006502	-0.033817
C114	C	2.165634	0.339836	0.299517
C115	C	1.599908	-0.321362	-0.361028
C116	C	1.933241	0.011971	-0.027695
C117	C	2.266575	0.345305	0.305638
C118	C	1.249319	-0.326749	-0.616815
C119	C	1.582652	0.006584	-0.283481
C120	C	1.915986	0.339918	0.049852
C121	C	1.243875	-0.321245	-0.717085
C122	C	1.577208	0.012088	-0.383752
C123	C	1.910541	0.345422	-0.050418
C124	C	1.276612	-0.104347	-0.367157
C125	C	1.609945	0.228987	-0.033824
C126	C	1.943278	0.562320	0.299510
C127	C	1.282798	-0.004068	-0.361038
C128	C	1.616132	0.329265	-0.027705
C129	C	1.949465	0.662599	0.305629
C130	C	1.342704	-0.420000	-0.905501
C131	C	1.676037	-0.086667	-0.572167
C132	C	2.009370	0.246666	-0.238834
C133	C	1.337591	-0.414832	-0.999714
C134	C	1.670925	-0.081498	-0.666380
C135	C	2.004258	0.251835	-0.333047
C136	C	1.228543	-0.305735	-0.999725
C137	C	1.561876	0.027598	-0.666391
C138	C	1.895210	0.360932	-0.333058
C139	C	1.233655	-0.310904	-0.905512
C140	C	1.566989	0.022430	-0.572179
C141	C	1.900322	0.355763	-0.238845
C142	C	1.290737	-0.368039	-0.858403
C143	C	1.624070	-0.034706	-0.525070
C144	C	1.957403	0.298627	-0.191737
C145	C	1.295844	-0.373212	-0.764189
C146	C	1.629177	-0.039879	-0.430856
C147	C	1.962510	0.293454	-0.097522
C148	C	1.186801	-0.264111	-0.764202
C149	C	1.520134	0.069222	-0.430868
C150	C	1.853467	0.402556	-0.097535
C151	C	1.181688	-0.258942	-0.858414
C152	C	1.515022	0.074391	-0.525081
C153	C	1.848355	0.407724	-0.191748
C154	C	1.274876	-0.352462	-0.147125
C155	C	1.608210	-0.019129	0.186208
C156	C	1.941543	0.314205	0.519542
C157	C	1.280512	-0.357702	-0.046829
C158	C	1.613845	-0.024369	0.286504
C159	C	1.947178	0.308965	0.619838
H160	H	0.596606	-0.419988	-0.471390
H161	H	0.929939	-0.086655	-0.138057
H162	H	1.263273	0.246679	0.195276
H163	H	0.620831	-0.221788	-0.249583
H164	H	0.954165	0.111545	0.083751
H165	H	1.287498	0.444878	0.417084
H166	H	0.792891	-0.212423	-0.239125
H167	H	1.126225	0.120910	0.094208
H168	H	1.459558	0.454243	0.427542
F169	F	0.718680	-0.481178	-0.539874
F170	F	1.052013	-0.147845	-0.206540
F171	F	1.385346	0.185488	0.126793
H172	H	1.135217	-0.212422	-0.896783
H173	H	1.468550	0.120911	-0.563450
H174	H	1.801884	0.454245	-0.230116
F175	F	1.167807	-0.244924	-1.049875
F176	F	1.501140	0.088410	-0.716542
F177	F	1.834474	0.421743	-0.383208
H178	H	0.928484	-0.259310	-0.291600
H179	H	1.261818	0.074024	0.041734
H180	H	1.595151	0.407357	0.375067
F181	F	0.914475	-0.470513	-0.527990
F182	F	1.247808	-0.137179	-0.194656
F183	F	1.581141	0.196154	0.138677
H184	H	1.342327	-0.419730	-0.725834
H185	H	1.675660	-0.086397	-0.392501
H186	H	2.008993	0.246936	-0.059167
H187	H	1.352176	-0.683059	-0.291538
H188	H	1.685509	-0.349725	0.041795
H189	H	2.018842	-0.016392	0.375129
F190	F	1.420880	-0.812570	-0.223015
F191	F	1.754213	-0.479237	0.110318
F192	F	2.087546	-0.145904	0.443652
H193	H	1.144484	-0.221801	-0.725845
H194	H	1.477818	0.111532	-0.392512
H195	H	1.811151	0.444865	-0.059178
H196	H	1.379910	-0.457143	-1.038057
H197	H	1.713243	-0.123809	-0.704723
H198	H	2.046576	0.209524	-0.371390
H199	H	1.394478	-0.995269	-0.249526
H200	H	1.727811	-0.661935	0.083807
H201	H	2.061145	-0.328602	0.417141
H202	H	1.172194	-0.995362	-0.471485
H203	H	1.505527	-0.662029	-0.138152
H204	H	1.838861	-0.328696	0.195181
F205	F	1.103480	-0.865843	-0.540005
F206	F	1.436813	-0.532510	-0.206671
F207	F	1.770147	-0.199177	0.126662
H208	H	1.129888	-0.683122	-0.513501
H209	H	1.463222	-0.349789	-0.180168
H210	H	1.796555	-0.016456	0.153165
H211	H	1.389186	-0.466518	-0.867144
H212	H	1.722519	-0.133185	-0.533810
H213	H	2.055852	0.200148	-0.200477
