data_functionalizedCrystal
_audit_creation_method	'MofGen! by Chris Wilmer'
_symmetry_space_group_name_H-M	'P1'
_symmetry_Int_Tables_number	1
_symmetry_cell_setting	triclinic
loop_
_symmetry_equiv_pos_as_xyz
  x,y,z
_cell_length_a	13.897449
_cell_length_b	21.295417
_cell_length_c	13.897441
_cell_angle_alpha	90.035375
_cell_angle_beta	90.023394
_cell_angle_gamma	90.030528
loop_
_atom_site_label
_atom_site_type_symbol
_atom_site_fract_x
_atom_site_fract_y
_atom_site_fract_z
Zn1	Zn	1.474622	-0.250575	0.545418
Zn2	Zn	1.807955	0.082758	0.878751
Zn3	Zn	2.141289	0.416091	1.212084
Zn4	Zn	1.474482	-0.355854	0.384106
Zn5	Zn	1.807816	-0.022521	0.717439
Zn6	Zn	2.141149	0.310812	1.050772
Zn7	Zn	1.313311	-0.250604	0.384129
Zn8	Zn	1.646645	0.082729	0.717462
Zn9	Zn	1.979978	0.416062	1.050795
Zn10	Zn	1.313259	-0.355812	0.545351
Zn11	Zn	1.646593	-0.022479	0.878684
Zn12	Zn	1.979926	0.310855	1.212017
O13	O	1.393919	-0.303211	0.464751
O14	O	1.727252	0.030122	0.798084
O15	O	2.060585	0.363455	1.131417
O16	O	1.609585	-0.264546	0.524038
O17	O	1.942919	0.068787	0.857371
O18	O	2.276252	0.402120	1.190704
O19	O	1.453066	-0.341922	0.249127
O20	O	1.786399	-0.008589	0.582460
O21	O	2.119733	0.324744	0.915794
O22	O	1.334790	-0.162511	0.405561
O23	O	1.668123	0.170822	0.738895
O24	O	2.001456	0.504156	1.072228
O25	O	1.609482	-0.341894	0.405522
O26	O	1.942816	-0.008561	0.738856
O27	O	2.276149	0.324772	1.072189
O28	O	1.453304	-0.162490	0.524060
O29	O	1.786638	0.170844	0.857393
O30	O	2.119971	0.504177	1.190727
O31	O	1.334654	-0.264596	0.249144
O32	O	1.667988	0.068737	0.582477
O33	O	2.001321	0.402071	0.915810
O34	O	1.178323	-0.264555	0.405497
O35	O	1.511656	0.068778	0.738830
O36	O	1.844989	0.402112	1.072163
O37	O	1.334701	-0.341822	0.680341
O38	O	1.668034	-0.008489	1.013675
O39	O	2.001368	0.324844	1.347008
O40	O	1.178284	-0.341851	0.523946
O41	O	1.511618	-0.008517	0.857279
O42	O	1.844951	0.324816	1.190612
O43	O	1.453254	-0.264505	0.680390
O44	O	1.786587	0.068828	1.013724
O45	O	2.119920	0.402161	1.347057
O46	O	1.453015	-0.443938	0.405457
O47	O	1.786349	-0.110605	0.738791
O48	O	2.119682	0.222729	1.072124
O49	O	1.334565	-0.443907	0.523924
O50	O	1.667899	-0.110574	0.857257
O51	O	2.001232	0.222760	1.190590
C52	C	1.143304	-0.303202	0.464717
C53	C	1.476638	0.030132	0.798050
C54	C	1.809971	0.363465	1.131384
C55	C	1.036090	-0.303213	0.464725
C56	C	1.369424	0.030121	0.798059
C57	C	1.702757	0.363454	1.131392
C58	C	0.949021	-0.303215	0.464742
C59	C	1.282354	0.030118	0.798075
C60	C	1.615687	0.363452	1.131408
C61	C	0.839788	-0.303219	0.464771
C62	C	1.173122	0.030114	0.798104
C63	C	1.506455	0.363447	1.131438
C64	C	1.393796	-0.466763	0.464702
C65	C	1.727129	-0.133430	0.798035
C66	C	2.060462	0.199904	1.131368
C67	C	1.393831	-0.536731	0.464713
C68	C	1.727165	-0.203398	0.798046
C69	C	2.060498	0.129935	1.131380
C70	C	1.455507	-0.569530	0.526459
C71	C	1.788840	-0.236196	0.859793
C72	C	2.122173	0.097137	1.193126
C73	C	1.455541	-0.635272	0.526483
C74	C	1.788874	-0.301939	0.859816
C75	C	2.122207	0.031395	1.193150
C76	C	1.393910	-0.668214	0.464744
C77	C	1.727243	-0.334880	0.798077
C78	C	2.060576	-0.001547	1.131410
C79	C	1.332223	-0.635407	0.402993
C80	C	1.665556	-0.302074	0.736326
C81	C	1.998889	0.031259	1.069660
C82	C	1.332183	-0.569666	0.402978
C83	C	1.665517	-0.236333	0.736311
C84	C	1.998850	0.097000	1.069644
N85	N	1.386621	-0.771480	0.380326
N86	N	1.719954	-0.438147	0.713659
N87	N	2.053287	-0.104814	1.046993
N88	N	1.386663	-0.833932	0.380343
N89	N	1.719997	-0.500598	0.713676
N90	N	2.053330	-0.167265	1.047010
C91	C	1.394022	-0.866288	0.464787
C92	C	1.727356	-0.532955	0.798120
C93	C	2.060689	-0.199622	1.131454
N94	N	1.401356	-0.833834	0.549215
N95	N	1.734689	-0.500501	0.882548
N96	N	2.068022	-0.167168	1.215882
N97	N	1.401318	-0.771377	0.549197
N98	N	1.734651	-0.438044	0.882530
N99	N	2.067985	-0.104710	1.215863
C100	C	1.393945	-0.739499	0.464754
C101	C	1.727278	-0.406166	0.798087
C102	C	2.060611	-0.072832	1.131420
C103	C	1.455738	-0.970372	0.526564
C104	C	1.789071	-0.637039	0.859898
C105	C	2.122404	-0.303706	1.193231
C106	C	1.455765	-1.036116	0.526590
C107	C	1.789098	-0.702783	0.859923
C108	C	2.122432	-0.369449	1.193256
C109	C	1.332452	-1.036250	0.403091
C110	C	1.665785	-0.702917	0.736424
C111	C	1.999119	-0.369583	1.069758
C112	C	1.332420	-0.970508	0.403074
C113	C	1.665753	-0.637174	0.736407
C114	C	1.999086	-0.303841	1.069741
C115	C	1.394068	-0.937573	0.464809
C116	C	1.727401	-0.604239	0.798143
C117	C	2.060734	-0.270906	1.131476
C118	C	1.645512	-0.303222	0.464785
C119	C	1.978845	0.030112	0.798118
C120	C	2.312178	0.363445	1.131452
C121	C	1.752726	-0.303226	0.464800
C122	C	2.086059	0.030107	0.798133
C123	C	2.419392	0.363441	1.131466
C124	C	1.393987	-0.303156	0.716344
C125	C	1.727321	0.030178	1.049677
C126	C	2.060654	0.363511	1.383010
C127	C	1.394016	-0.303132	0.823558
C128	C	1.727350	0.030201	1.156891
C129	C	2.060683	0.363535	1.490224
C130	C	1.394068	-0.139021	0.464821
C131	C	1.727402	0.194312	0.798154
C132	C	2.060735	0.527646	1.131487
C133	C	1.394132	-0.069053	0.464851
C134	C	1.727466	0.264280	0.798184
C135	C	2.060799	0.597614	1.131517
C136	C	1.393906	-0.303221	0.214136
C137	C	1.727239	0.030112	0.547470
C138	C	2.060573	0.363445	0.880803
C139	C	1.394064	-0.303068	0.106923
C140	C	1.727397	0.030265	0.440256
C141	C	2.060731	0.363599	0.773590
C142	C	1.394043	-0.303090	1.019853
C143	C	1.727376	0.030244	1.353186
C144	C	2.060709	0.363577	1.686520
C145	C	1.394025	-0.303115	0.910620
C146	C	1.727358	0.030218	1.243954
C147	C	2.060692	0.363552	1.577287
H148	H	1.505702	-0.542716	0.576730
H149	H	1.839035	-0.209382	0.910064
H150	H	2.172368	0.123951	1.243397
Br151	Br	1.539459	-1.080630	0.610411
Br152	Br	1.872793	-0.747296	0.943745
Br153	Br	2.206126	-0.413963	1.277078
H154	H	1.282265	-1.063071	0.352827
H155	H	1.615598	-0.729737	0.686161
H156	H	1.948931	-0.396404	1.019494
H157	H	1.281959	-0.542961	0.352696
H158	H	1.615292	-0.209628	0.686029
H159	H	1.948626	0.123705	1.019362
H160	H	1.282202	-0.943801	0.352790
H161	H	1.615535	-0.610468	0.686124
H162	H	1.948869	-0.277135	1.019457
H163	H	1.282040	-0.662233	0.352726
H164	H	1.615373	-0.328899	0.686060
H165	H	1.948707	0.004434	1.019393
Br166	Br	1.539253	-0.679794	0.610283
Br167	Br	1.872587	-0.346461	0.943616
Br168	Br	2.205920	-0.013127	1.276949
Br169	Br	1.539398	-0.925671	0.610348
Br170	Br	1.872731	-0.592338	0.943681
Br171	Br	2.206065	-0.259004	1.277014
