data_functionalizedCrystal
_audit_creation_method	'MofGen! by Chris Wilmer'
_symmetry_space_group_name_H-M	'P1'
_symmetry_Int_Tables_number	1
_symmetry_cell_setting	triclinic
loop_
_symmetry_equiv_pos_as_xyz
  x,y,z
_cell_length_a	12.759395
_cell_length_b	13.897448
_cell_length_c	12.759387
_cell_angle_alpha	89.966131
_cell_angle_beta	89.981185
_cell_angle_gamma	90.019229
loop_
_atom_site_label
_atom_site_type_symbol
_atom_site_fract_x
_atom_site_fract_y
_atom_site_fract_z
Zn1	Zn	1.606229	-0.383913	-0.593991
Zn2	Zn	2.106229	0.116087	-0.093991
Zn3	Zn	1.606116	-0.545244	-0.418306
Zn4	Zn	2.106116	-0.045244	0.081694
Zn5	Zn	1.430533	-0.383969	-0.418328
Zn6	Zn	1.930533	0.116031	0.081672
Zn7	Zn	1.430511	-0.545173	-0.593945
Zn8	Zn	1.930511	-0.045173	-0.093945
O9	O	1.518347	-0.464575	-0.506142
O10	O	2.018347	0.035425	-0.006142
O11	O	1.753235	-0.405321	-0.570696
O12	O	2.253235	0.094679	-0.070696
O13	O	1.582786	-0.523904	-0.271287
O14	O	2.082786	-0.023904	0.228713
O15	O	1.453896	-0.248980	-0.441659
O16	O	1.953896	0.251020	0.058341
O17	O	1.753152	-0.523850	-0.441621
O18	O	2.253152	-0.023850	0.058379
O19	O	1.582979	-0.248939	-0.570718
O20	O	2.082979	0.251061	-0.070718
O21	O	1.453786	-0.405416	-0.271304
O22	O	1.953786	0.094584	0.228696
O23	O	1.283509	-0.405347	-0.441614
O24	O	1.783509	0.094653	0.058386
O25	O	1.453858	-0.523728	-0.740972
O26	O	1.953858	-0.023728	-0.240972
O27	O	1.283492	-0.523782	-0.570639
O28	O	1.783492	-0.023782	-0.070639
O29	O	1.582958	-0.405251	-0.741006
O30	O	2.082958	0.094749	-0.241006
O31	O	1.582765	-0.680216	-0.441576
O32	O	2.082765	-0.180216	0.058424
O33	O	1.453748	-0.680164	-0.570617
O34	O	1.953748	-0.180164	-0.070617
C35	C	1.245380	-0.464563	-0.506124
C36	C	1.745380	0.035437	-0.006124
C37	C	1.128603	-0.464581	-0.506142
C38	C	1.628603	0.035419	-0.006142
C39	C	1.128625	-0.588108	-0.640278
C40	C	1.628625	-0.088108	-0.140278
C41	C	1.073775	-0.649878	-0.707349
C42	C	1.573775	-0.149878	-0.207349
C43	C	0.964053	-0.649890	-0.707362
C44	C	1.464053	-0.149890	-0.207362
C45	C	0.909179	-0.588122	-0.640299
C46	C	1.409179	-0.088122	-0.140299
C47	C	0.964029	-0.526352	-0.573227
C48	C	1.464029	-0.026352	-0.073227
C49	C	1.073753	-0.526349	-0.573220
C50	C	1.573753	-0.026349	-0.073220
C51	C	0.964007	-0.402822	-0.439098
C52	C	1.464007	0.097178	0.060902
C53	C	1.073729	-0.402814	-0.439078
C54	C	1.573729	0.097186	0.060922
C55	C	0.909133	-0.341054	-0.372035
C56	C	1.409133	0.158946	0.127965
C57	C	0.963983	-0.279287	-0.304957
C58	C	1.463983	0.220713	0.195043
C59	C	1.073711	-0.279279	-0.304946
C60	C	1.573711	0.220721	0.195054
C61	C	1.128579	-0.341043	-0.372007
C62	C	1.628579	0.158957	0.127993
C63	C	1.518270	-0.715189	-0.506112
C64	C	2.018270	-0.215189	-0.006112
C65	C	1.518334	-0.822403	-0.506134
C66	C	2.018334	-0.322403	-0.006134
C67	C	1.518444	-1.018698	-0.506200
C68	C	2.018444	-0.518698	-0.006200
C69	C	1.518380	-0.909466	-0.506167
C70	C	2.018380	-0.409466	-0.006167
C71	C	1.792381	-0.464587	-0.506161
C72	C	2.292381	0.035413	-0.006161
C73	C	1.909157	-0.464593	-0.506169
C74	C	2.409157	0.035407	-0.006169
C75	C	1.518418	-0.464475	-0.780176
C76	C	2.018418	0.035525	-0.280176
C77	C	1.518449	-0.464433	-0.896953
C78	C	2.018449	0.035567	-0.396953
C79	C	1.518453	-0.212982	-0.506196
C80	C	2.018453	0.287018	-0.006196
C81	C	1.518498	-0.105768	-0.506219
C82	C	2.018498	0.394232	-0.006219
C83	C	1.384130	-0.341043	-0.896989
C84	C	1.884130	0.158957	-0.396989
C85	C	1.316989	-0.279329	-0.951868
C86	C	1.816989	0.220671	-0.451868
C87	C	1.317021	-0.279294	-1.061589
C88	C	1.817021	0.220706	-0.561589
C89	C	1.384198	-0.340982	-1.116435
C90	C	1.884198	0.159018	-0.616435
C91	C	1.451338	-0.402696	-1.061556
C92	C	1.951338	0.097304	-0.561556
C93	C	1.451301	-0.402722	-0.951832
C94	C	1.951301	0.097278	-0.451832
C95	C	1.585650	-0.526089	-1.061520
C96	C	2.085650	-0.026089	-0.561520
C97	C	1.585626	-0.526121	-0.951798
C98	C	2.085626	-0.026121	-0.451798
C99	C	1.652827	-0.587777	-1.116365
C100	C	2.152827	-0.087777	-0.616365
C101	C	1.719974	-0.649488	-1.061487
C102	C	2.219974	-0.149488	-0.561487
C103	C	1.719941	-0.649520	-0.951758
C104	C	2.219941	-0.149520	-0.451758
C105	C	1.652766	-0.587835	-0.896919
C106	C	2.152766	-0.087835	-0.396919
C107	C	1.518337	-0.464605	-0.233175
C108	C	2.018337	0.035395	0.266825
C109	C	1.518510	-0.464375	-0.116399
C110	C	2.018510	0.035625	0.383601
H111	H	1.118363	-0.228971	-0.250335
H112	H	1.618363	0.271029	0.249665
H113	H	1.262348	-0.229042	-1.106271
H114	H	1.762348	0.270958	-0.606271
H115	H	1.217920	-0.341045	-0.372002
H116	H	1.717920	0.158955	0.127998
H117	H	1.384208	-0.340957	-1.205776
H118	H	1.884208	0.159043	-0.705776
H119	H	1.652736	-0.587852	-0.807578
H120	H	2.152736	-0.087852	-0.307578
H121	H	1.652843	-0.587749	-1.205707
H122	H	2.152843	-0.087749	-0.705707
H123	H	1.217966	-0.588111	-0.640266
H124	H	1.717966	-0.088111	-0.140266
H125	H	0.919395	-0.700184	-0.761982
H126	H	1.419395	-0.200184	-0.261982
H127	H	1.384106	-0.341057	-0.807648
H128	H	1.884106	0.158943	-0.307648
H129	H	1.262293	-0.229106	-0.907200
H130	H	1.762293	0.270894	-0.407200
H131	H	0.819792	-0.341064	-0.372054
H132	H	1.319792	0.158936	0.127946
H133	H	0.919296	-0.228996	-0.250364
H134	H	1.419296	0.271004	0.249636
H135	H	1.774660	-0.699713	-1.106150
H136	H	2.274660	-0.199713	-0.606150
H137	H	1.118465	-0.700167	-0.761952
H138	H	1.618465	-0.200167	-0.261952
H139	H	1.774618	-0.699772	-0.907082
H140	H	2.274618	-0.199772	-0.407082
H141	H	0.819838	-0.588129	-0.640324
H142	H	1.319838	-0.088129	-0.140324
