data_functionalizedCrystal
_audit_creation_method	'MofGen! by Chris Wilmer'
_symmetry_space_group_name_H-M	'P1'
_symmetry_Int_Tables_number	1
_symmetry_cell_setting	triclinic
loop_
_symmetry_equiv_pos_as_xyz
  x,y,z
_cell_length_a	15.538191
_cell_length_b	23.532407
_cell_length_c	14.185569
_cell_angle_alpha	76.921226
_cell_angle_beta	97.875798
_cell_angle_gamma	65.060420
loop_
_atom_site_label
_atom_site_type_symbol
_atom_site_fract_x
_atom_site_fract_y
_atom_site_fract_z
O1	O	1.230124	-0.167969	-0.083385
O2	O	0.955244	-0.102080	-0.083402
O3	O	1.100980	-0.219648	-0.083365
O4	O	1.084388	-0.050402	-0.083422
O5	O	1.144032	-0.254375	0.083481
O6	O	0.998296	-0.136808	0.083444
O7	O	1.273175	-0.202697	0.083460
Cu8	Cu	1.139666	-0.172923	0.098686
Cu9	Cu	1.088753	-0.131854	-0.098628
O10	O	1.127439	-0.085130	0.083423
C11	C	0.941609	-0.112550	0.000019
C12	C	0.836842	-0.092016	0.000014
C13	C	0.550974	-0.296018	0.000067
C14	C	0.452526	-0.276708	0.000060
C15	C	0.429057	-0.168096	0.000024
C16	C	0.527507	-0.187397	0.000036
C17	C	0.588458	-0.251359	0.000057
C18	C	0.564990	-0.142739	0.000025
C19	C	0.663430	-0.162038	0.000032
C20	C	0.724386	-0.225996	0.000050
C21	C	0.686897	-0.270658	0.000063
C22	C	0.504036	-0.078776	-0.000003
C23	C	0.541520	-0.034117	-0.000014
C24	C	0.639963	-0.053418	0.000000
C25	C	0.700919	-0.117376	0.000018
C26	C	0.677452	-0.008755	-0.000014
C27	C	0.775891	-0.028055	-0.000007
C28	C	0.799359	-0.136675	0.000025
C29	C	1.122085	-0.258143	0.000063
C30	C	1.120820	-0.321105	0.000078
C31	C	1.029330	-0.568662	0.000010
C32	C	1.030511	-0.509503	0.000018
O33	O	0.957938	-0.457999	-0.000019
N34	N	1.117150	-0.504493	0.000034
C35	C	1.202610	-0.558644	0.000033
O36	O	1.276411	-0.548951	0.000047
C37	C	1.201426	-0.617801	0.000018
C38	C	1.114785	-0.622808	0.000012
C39	C	0.942695	-0.573671	0.000002
C40	C	0.941515	-0.632826	-0.000004
C41	C	1.026970	-0.686972	-0.000002
C42	C	1.113605	-0.681963	0.000006
C43	C	1.286884	-0.671949	0.000010
C44	C	1.285693	-0.731107	-0.000006
C45	C	1.199051	-0.736114	-0.000012
C46	C	1.197879	-0.795265	0.000002
N47	N	1.111241	-0.800275	-0.000015
C48	C	1.025786	-0.746128	-0.000017
C49	C	1.205089	-0.434411	0.000063
C50	C	1.206276	-0.375257	0.000085
C51	C	1.034176	-0.326119	0.000068
C52	C	1.032992	-0.385275	0.000053
C53	C	1.118451	-0.439420	0.000046
C54	C	1.023314	-0.870361	-0.000028
C55	C	1.022143	-0.929524	-0.000030
C56	C	1.194241	-0.978656	-0.000018
C57	C	1.195414	-0.919499	-0.000011
C58	C	1.109942	-0.865350	-0.000020
O59	O	1.270413	-0.846795	0.000034
O60	O	0.951993	-0.755830	-0.000044
C61	C	1.286809	-0.192226	0.000037
C62	C	1.391575	-0.212759	0.000036
C63	C	1.106334	-0.046634	-0.000007
C64	C	1.107597	0.016329	-0.000028
N65	N	1.175483	-0.201811	0.237466
N66	N	1.052944	-0.102972	-0.237408
C67	C	0.947714	-0.018125	0.605058
C68	C	0.974851	-0.040004	0.710087
C69	C	1.103926	-0.144087	0.710081
C70	C	1.076797	-0.122217	0.605050
C71	C	0.998691	-0.059235	0.552547
C72	C	1.127773	-0.163327	0.552539
C73	C	1.100649	-0.141458	0.447518
C74	C	1.022548	-0.078478	0.395007
C75	C	0.971566	-0.037366	0.447526
C76	C	1.205884	-0.226307	0.605044
C77	C	1.256860	-0.267418	0.552533
C78	C	1.229732	-0.245550	0.447509
C79	C	1.151631	-0.182570	0.394999
C80	C	1.280713	-0.286662	0.394991
C81	C	1.253589	-0.264793	0.289969
C82	C	1.124506	-0.160701	0.289978
H83	H	0.423880	-0.063064	-0.000012
H84	H	0.379417	-0.116017	0.000003
C85	C	1.301584	-0.369756	0.000110
H86	H	1.290060	-0.326772	0.000123
H87	H	1.321737	-0.377431	-0.058068
H88	H	1.351752	-0.401668	0.058304
H89	H	0.491879	0.017961	-0.000035
C90	C	0.610399	0.061598	-0.000040
H91	H	0.546404	0.066695	-0.000040
H92	H	0.606702	0.092861	-0.058226
H93	H	0.636720	0.068637	0.058146
H94	H	1.357437	-0.667885	0.000015
H95	H	1.265969	-0.915426	0.000009
H96	H	0.804538	-0.241706	0.000042
H97	H	1.227968	-0.244110	0.690559
C98	C	1.366626	-0.355937	0.452747
H99	H	1.393106	-0.377289	0.406430
H100	H	1.343487	-0.381218	0.493734
H101	H	1.416301	-0.352042	0.493696
H102	H	0.806413	0.008309	-0.000006
C103	C	0.940172	-0.266548	0.000049
H104	H	0.953289	-0.230599	0.000046
H105	H	0.919622	-0.278257	0.058221
H106	H	0.889615	-0.254027	-0.058151
C107	C	1.299105	-0.493971	0.000075
H108	H	1.350870	-0.482511	0.000097
H109	H	1.287221	-0.505954	-0.058110
H110	H	1.317236	-0.530189	0.058263
C111	C	1.379701	-0.790665	-0.000008
H112	H	1.431466	-0.779206	0.000005
H113	H	1.367807	-0.802647	-0.058192
H114	H	1.397836	-0.826884	0.058181
C115	C	1.288232	-1.038221	-0.000021
H116	H	1.275110	-1.074165	-0.000038
H117	H	1.338803	-1.050747	0.058161
H118	H	1.308759	-1.026499	-0.058212
H119	H	0.736529	-0.322743	0.000086
H120	H	0.884106	0.033159	0.562309
H121	H	0.848990	-0.188760	0.000048
C122	C	0.992706	-0.054416	0.279486
H123	H	0.938894	-0.011018	0.255740
H124	H	0.974000	-0.083275	0.255735
H125	H	1.046816	-0.054100	0.255714
H126	H	0.600606	-0.348103	0.000090
H127	H	1.060898	-0.109417	0.247228
H128	H	0.962442	-0.389347	0.000051
C129	C	0.926831	-0.935027	-0.000046
H130	H	0.876106	-0.894301	-0.000058
H131	H	0.937798	-0.969200	0.058132
H132	H	0.907780	-0.944961	-0.058241
H133	H	0.907958	0.013918	0.404776
C134	C	1.342768	-0.336694	0.610291
H135	H	1.351618	-0.343834	0.680359
H136	H	1.401250	-0.339914	0.593064
H137	H	1.328421	-0.369079	0.593091
H138	H	0.422012	-0.313079	0.000067
H139	H	0.953714	-0.826277	-0.000036
H140	H	1.295101	-0.298269	0.247214
H141	H	1.167524	-0.195366	0.752841
C142	C	0.846205	-0.638324	-0.000025
H143	H	0.795485	-0.597597	-0.000036
H144	H	0.857164	-0.672497	0.058149
H145	H	0.827151	-0.648254	-0.058223
C146	C	0.848688	-0.514118	0.000008
H147	H	0.796933	-0.525586	0.000009
H148	H	0.830545	-0.477893	-0.058165
H149	H	0.860587	-0.502147	0.058208
C150	C	0.918729	0.005205	0.767846
H151	H	0.868313	0.045838	0.721533
H152	H	0.962997	0.013436	0.808827
H153	H	0.890225	-0.015774	0.808802
