data_functionalizedCrystal
_audit_creation_method	'MofGen! by Chris Wilmer'
_symmetry_space_group_name_H-M	'P1'
_symmetry_Int_Tables_number	1
_symmetry_cell_setting	triclinic
loop_
_symmetry_equiv_pos_as_xyz
  x,y,z
_cell_length_a	10.967926
_cell_length_b	14.519731
_cell_length_c	10.065875
_cell_angle_alpha	98.805316
_cell_angle_beta	93.120479
_cell_angle_gamma	84.211611
loop_
_atom_site_label
_atom_site_type_symbol
_atom_site_fract_x
_atom_site_fract_y
_atom_site_fract_z
O1	O	1.613252	0.160830	0.265929
O2	O	1.946586	0.494163	0.599263
O3	O	2.279919	0.827497	0.932596
O4	O	1.263214	0.163463	0.183600
O5	O	1.596548	0.496797	0.516933
O6	O	1.929881	0.830130	0.850266
O7	O	1.447499	0.028218	0.226956
O8	O	1.780832	0.361551	0.560290
O9	O	2.114166	0.694885	0.893623
O10	O	1.428968	0.296075	0.222573
O11	O	1.762301	0.629408	0.555906
O12	O	2.095635	0.962742	0.889240
O13	O	1.412359	0.054116	0.445678
O14	O	1.745692	0.387449	0.779011
O15	O	2.079025	0.720783	1.112344
O16	O	1.228074	0.189361	0.402321
O17	O	1.561407	0.522695	0.735654
O18	O	1.894741	0.856028	1.068988
O19	O	1.578112	0.186728	0.484651
O20	O	1.911445	0.520061	0.817984
O21	O	2.244779	0.853394	1.151317
Zn22	Zn	1.397514	0.192156	0.478213
Zn23	Zn	1.730847	0.525490	0.811546
Zn24	Zn	2.064180	0.858823	1.144879
Zn25	Zn	1.443813	0.158035	0.190038
Zn26	Zn	1.777146	0.491368	0.523371
Zn27	Zn	2.110479	0.824701	0.856705
O28	O	1.393828	0.321973	0.441294
O29	O	1.727161	0.655306	0.774628
O30	O	2.060494	0.988640	1.107961
C31	C	1.200846	0.174264	0.282424
C32	C	1.534179	0.507597	0.615757
C33	C	1.867513	0.840930	0.949091
C34	C	1.067361	0.167851	0.251028
C35	C	1.400695	0.501184	0.584362
C36	C	1.734028	0.834518	0.917695
C37	C	0.989646	0.178408	0.350335
C38	C	1.322979	0.511741	0.683669
C39	C	1.656312	0.845074	1.017002
C40	C	0.851682	0.171780	0.317889
C41	C	1.185015	0.505113	0.651223
C42	C	1.518348	0.838447	0.984556
C43	C	1.429060	0.006779	0.336113
C44	C	1.762394	0.340112	0.669446
C45	C	2.095727	0.673445	1.002780
C46	C	1.426458	-0.095688	0.335502
C47	C	1.759791	0.237646	0.668835
C48	C	2.093124	0.570979	1.002168
C49	C	1.424344	-0.178902	0.335001
C50	C	1.757677	0.154431	0.668335
C51	C	2.091010	0.487764	1.001668
C52	C	1.421703	-0.283300	0.334370
C53	C	1.755036	0.050034	0.667703
C54	C	2.088370	0.383367	1.001036
C55	C	1.419607	-0.366509	0.333868
C56	C	1.752941	-0.033176	0.667201
C57	C	2.086274	0.300157	1.000535
C58	C	1.416966	-0.470913	0.333239
C59	C	1.750300	-0.137580	0.666572
C60	C	2.083633	0.195754	0.999906
C61	C	1.640481	0.175927	0.385824
C62	C	1.973814	0.509260	0.719157
C63	C	2.307148	0.842594	1.052490
C64	C	1.773967	0.182339	0.417210
C65	C	2.107300	0.515672	0.750544
C66	C	2.440634	0.849005	1.083877
C67	C	1.412267	0.343412	0.332135
C68	C	1.745600	0.676745	0.665468
C69	C	2.078933	1.010079	0.998801
C70	C	1.414871	0.445877	0.332737
C71	C	1.748204	0.779211	0.666071
C72	C	2.081537	1.112544	0.999404
N73	N	1.365925	0.215443	0.674886
N74	N	1.699258	0.548776	1.008220
N75	N	2.032591	0.882110	1.341553
N76	N	1.475411	0.134741	-0.006634
N77	N	1.808745	0.468074	0.326700
N78	N	2.142078	0.801408	0.660033
C79	C	1.432814	0.166131	0.758402
C80	C	1.766148	0.499464	1.091735
C81	C	2.099481	0.832798	1.425069
C82	C	1.408512	0.184060	0.909852
C83	C	1.741845	0.517394	1.243185
C84	C	2.075179	0.850727	1.576518
H85	H	1.031758	0.153904	0.141988
H86	H	1.365092	0.487237	0.475321
H87	H	1.698425	0.820571	0.808654
H88	H	0.809563	0.196281	0.526260
H89	H	1.142897	0.529614	0.859593
H90	H	1.476230	0.862948	1.192926
H91	H	1.508069	0.110635	0.717783
H92	H	1.841402	0.443969	1.051116
H93	H	2.174736	0.777302	1.384450
H94	H	1.290662	0.270931	0.715505
H95	H	1.623995	0.604265	1.048839
H96	H	1.957329	0.937598	1.382172
H97	H	1.025250	0.192347	0.459377
H98	H	1.358583	0.525681	0.792710
H99	H	1.691917	0.859014	1.126043
Cl100	Cl	1.292304	0.269737	0.972548
Cl101	Cl	1.625637	0.603070	1.305881
Cl102	Cl	1.958971	0.936403	1.639215
H103	H	1.550670	0.079242	0.952752
H104	H	1.884004	0.412576	1.286085
H105	H	2.217337	0.745909	1.619418
H106	H	0.816085	0.157832	0.208841
H107	H	1.149418	0.491166	0.542174
H108	H	1.482751	0.824499	0.875508
