data_functionalizedCrystal
_audit_creation_method	'MofGen! by Chris Wilmer'
_symmetry_space_group_name_H-M	'P1'
_symmetry_Int_Tables_number	1
_symmetry_cell_setting	triclinic
loop_
_symmetry_equiv_pos_as_xyz
  x,y,z
_cell_length_a	14.971486
_cell_length_b	12.503572
_cell_length_c	14.971496
_cell_angle_alpha	86.473257
_cell_angle_beta	83.616127
_cell_angle_gamma	93.517589
loop_
_atom_site_label
_atom_site_type_symbol
_atom_site_fract_x
_atom_site_fract_y
_atom_site_fract_z
O1	O	1.192094	0.089199	0.111400
O2	O	0.931696	0.089228	0.125357
O3	O	1.068869	0.089203	-0.011820
O4	O	1.054921	0.089224	0.248578
O5	O	1.058553	-0.089437	-0.001486
O6	O	0.921380	-0.089412	0.135691
O7	O	1.181778	-0.089441	0.121734
Cu8	Cu	1.050637	-0.105738	0.129656
Cu9	Cu	1.062837	0.105525	0.117435
O10	O	1.044605	-0.089416	0.258911
C11	C	0.893213	-0.000088	0.129900
C12	C	0.793917	-0.000077	0.128028
N13	N	1.042062	-0.254329	0.138251
C14	C	0.736695	-0.000072	0.208617
C15	C	0.643394	-0.000088	0.206855
C16	C	0.607318	-0.000102	0.124503
C17	C	0.664548	-0.000110	0.043908
C18	C	0.757846	-0.000101	0.045672
C19	C	0.470084	-0.000125	0.040238
C20	C	0.376780	-0.000131	0.038474
C21	C	0.355633	-0.000112	0.201421
C22	C	0.448931	-0.000104	0.203185
C23	C	0.506154	-0.000110	0.122589
C24	C	1.029449	-0.473441	0.150902
C25	C	1.084029	-0.526779	0.096185
C26	C	1.077011	-0.648701	0.103224
C27	C	1.036466	-0.351509	0.143864
C28	C	1.220260	-0.000123	0.117191
C29	C	1.319557	-0.000127	0.119062
C30	C	1.063086	-0.000117	-0.039978
C31	C	1.061211	-0.000117	-0.139274
N32	N	1.071418	0.254115	0.108833
C33	C	1.058769	0.097288	-0.572613
C34	C	1.060534	0.097283	-0.479314
C35	C	1.055787	-0.000097	-0.427037
C36	C	1.049284	-0.097480	-0.468065
C37	C	1.047525	-0.097474	-0.561364
C38	C	1.052948	-0.097486	-0.273602
C39	C	1.054706	-0.097492	-0.180296
C40	C	1.065958	0.097272	-0.191551
C41	C	1.064199	0.097278	-0.284850
C42	C	1.057693	-0.000105	-0.325872
C43	C	1.050388	-0.000094	0.287069
C44	C	1.052263	-0.000086	0.386365
H45	H	0.766060	-0.000061	0.275677
N46	N	0.816300	-0.000128	-0.036646
N47	N	0.808622	-0.075442	-0.087031
H48	H	0.849905	-0.075469	-0.145170
N49	N	1.044427	-0.196942	-0.414653
N50	N	0.981150	-0.218657	-0.353162
H51	H	0.977717	-0.288903	-0.315438
N52	N	1.040882	-0.196950	-0.603256
N53	N	1.036644	-0.283891	-0.556573
H54	H	1.031955	-0.354150	-0.586158
N55	N	1.149255	-0.469186	0.030789
N56	N	1.154939	-0.368790	0.025090
H57	H	1.201005	-0.328109	-0.021093
N58	N	0.297172	-0.000121	0.283741
N59	N	0.213871	-0.000145	0.282160
H60	H	0.172578	-0.000153	0.340296
H61	H	0.977455	-0.519339	0.203030
N62	N	0.584956	-0.000089	0.289183
N63	N	0.617178	-0.000072	0.362705
H64	H	0.575906	-0.000075	0.420854
N65	N	1.072599	0.196756	-0.149666
N66	N	1.013167	0.261966	-0.155675
H67	H	1.017853	0.332225	-0.126090
H68	H	1.062626	0.176587	-0.615170
H69	H	1.065833	0.176576	-0.445918
H70	H	1.068059	0.176574	-0.327411
H71	H	1.050812	-0.176788	-0.137731
H72	H	0.635166	-0.000136	-0.023144
N73	N	0.339942	-0.000148	-0.045653
N74	N	0.391039	-0.000164	-0.117604
H75	H	0.365023	-0.000177	-0.177021
N76	N	1.046305	-0.196968	-0.315492
N77	N	1.042061	-0.283909	-0.268808
H78	H	1.037364	-0.354168	-0.298392
N79	N	0.485770	-0.000074	0.287310
N80	N	0.434671	-0.000066	0.359262
H81	H	0.460687	-0.000045	0.418678
H82	H	0.516673	-0.000132	-0.025391
