data_functionalizedCrystal
_audit_creation_method	'MofGen! by Chris Wilmer'
_symmetry_space_group_name_H-M	'P1'
_symmetry_Int_Tables_number	1
_symmetry_cell_setting	triclinic
loop_
_symmetry_equiv_pos_as_xyz
  x,y,z
_cell_length_a	10.868271
_cell_length_b	11.792241
_cell_length_c	11.792241
_cell_angle_alpha	84.193416
_cell_angle_beta	89.994263
_cell_angle_gamma	90.004182
loop_
_atom_site_label
_atom_site_type_symbol
_atom_site_fract_x
_atom_site_fract_y
_atom_site_fract_z
O1	O	0.102185	-1.506902	-0.155570
O2	O	0.435518	-1.173569	0.177763
O3	O	0.768852	-0.840236	0.511097
O4	O	0.102218	-1.176561	-0.171603
O5	O	0.435551	-0.843228	0.161731
O6	O	0.768884	-0.509895	0.495064
O7	O	0.102192	-1.349748	0.001584
O8	O	0.435525	-1.016415	0.334918
O9	O	0.768858	-0.683081	0.668251
O10	O	0.102211	-1.333715	-0.328757
O11	O	0.435544	-1.000382	0.004576
O12	O	0.768877	-0.667049	0.337910
O13	O	-0.102453	-1.349746	0.001594
O14	O	0.230880	-1.016413	0.334927
O15	O	0.564214	-0.683079	0.668260
O16	O	-0.102427	-1.176559	-0.171593
O17	O	0.230906	-0.843226	0.161740
O18	O	0.564240	-0.509892	0.495073
O19	O	-0.102460	-1.506900	-0.155560
O20	O	0.230874	-1.173567	0.177773
O21	O	0.564207	-0.840234	0.511106
Zn22	Zn	-0.134935	-1.341729	-0.163575
Zn23	Zn	0.198398	-1.008396	0.169758
Zn24	Zn	0.531731	-0.675063	0.503091
Zn25	Zn	0.134693	-1.341732	-0.163588
Zn26	Zn	0.468026	-1.008399	0.169745
Zn27	Zn	0.801360	-0.675065	0.503079
O28	O	-0.102434	-1.333713	-0.328747
O29	O	0.230899	-1.000380	0.004586
O30	O	0.564233	-0.667047	0.337919
C31	C	-0.000101	-1.134269	-0.170591
C32	C	0.333233	-0.800936	0.162742
C33	C	0.666566	-0.467603	0.496076
C34	C	-0.000088	-1.008255	-0.167576
C35	C	0.333245	-0.674922	0.165757
C36	C	0.666578	-0.341589	0.499090
N37	N	-0.318949	-1.341736	-0.163566
N38	N	0.014384	-1.008402	0.169767
N39	N	0.347717	-0.675069	0.503101
N40	N	0.318707	-1.341735	-0.163588
N41	N	0.652040	-1.008401	0.169745
N42	N	0.985374	-0.675068	0.503079
C43	C	-0.000121	-0.777543	-0.162034
C44	C	0.333212	-0.444210	0.171300
C45	C	0.666546	-0.110877	0.504633
C46	C	-0.000103	-0.905928	-0.165113
C47	C	0.333230	-0.572595	0.168220
C48	C	0.666564	-0.239262	0.501553
C49	C	0.569713	-1.341731	-0.163581
C50	C	0.903046	-1.008398	0.169752
C51	C	1.236380	-0.675065	0.503086
C52	C	0.430036	-1.341730	-0.163589
C53	C	0.763369	-1.008396	0.169745
C54	C	1.096702	-0.675063	0.503078
C55	C	-0.000130	-1.348740	0.043880
C56	C	0.333203	-1.015407	0.377213
C57	C	0.666537	-0.682073	0.710547
C58	C	-0.000129	-1.345726	0.169894
C59	C	0.333205	-1.012392	0.503227
C60	C	0.666538	-0.679059	0.836560
C61	C	-0.000136	-0.549192	-0.156572
C62	C	0.333197	-0.215859	0.176761
C63	C	0.666531	0.117475	0.510095
C64	C	-0.000131	-0.675206	-0.159587
C65	C	0.333202	-0.341873	0.173747
C66	C	0.666536	-0.008539	0.507080
C67	C	-0.000109	-1.334721	-0.371043
C68	C	0.333224	-1.001388	-0.037710
C69	C	0.666557	-0.668055	0.295624
C70	C	-0.000103	-1.337736	-0.497057
C71	C	0.333230	-1.004402	-0.163723
C72	C	0.666564	-0.671069	0.169610
C73	C	-0.000107	-1.340183	0.400606
C74	C	0.333226	-1.006849	0.733939
C75	C	0.666559	-0.673516	1.067272
C76	C	-0.000119	-1.343262	0.272221
C77	C	0.333214	-1.009929	0.605554
C78	C	0.666548	-0.676596	0.938887
