data_functionalizedCrystal
_audit_creation_method	'MofGen! by Chris Wilmer'
_symmetry_space_group_name_H-M	'P1'
_symmetry_Int_Tables_number	1
_symmetry_cell_setting	triclinic
loop_
_symmetry_equiv_pos_as_xyz
  x,y,z
_cell_length_a	14.853566
_cell_length_b	13.330367
_cell_length_c	9.065218
_cell_angle_alpha	89.997251
_cell_angle_beta	95.674850
_cell_angle_gamma	90.004705
loop_
_atom_site_label
_atom_site_type_symbol
_atom_site_fract_x
_atom_site_fract_y
_atom_site_fract_z
O1	O	1.197795	0.083353	-0.192606
O2	O	0.935505	0.083369	-0.215553
O3	O	1.072071	0.083359	0.010670
O4	O	1.061228	0.083363	-0.418830
O5	O	1.072051	-0.083488	0.010675
O6	O	0.935485	-0.083478	-0.215548
O7	O	1.197775	-0.083494	-0.192601
Cu8	Cu	1.066628	-0.098721	-0.204074
Cu9	Cu	1.066652	0.098596	-0.204080
O10	O	1.061208	-0.083484	-0.418825
C11	C	0.901899	-0.000052	-0.214511
C12	C	0.801792	-0.000046	-0.211397
C13	C	0.378520	0.090884	-0.198225
C14	C	0.378520	-0.091019	-0.198220
C15	C	0.472576	-0.091016	-0.201145
C16	C	0.519608	-0.000061	-0.202612
C17	C	0.472584	0.090890	-0.201155
C18	C	0.519605	-0.181965	-0.202618
C19	C	0.613666	-0.181966	-0.205545
C20	C	0.660701	-0.091010	-0.207002
C21	C	0.613672	-0.000055	-0.205542
C22	C	0.660704	0.090899	-0.207009
C23	C	0.613678	0.181856	-0.205539
C24	C	0.519619	0.181846	-0.202611
C25	C	0.754759	-0.091001	-0.209930
C26	C	0.754768	0.090905	-0.209939
N27	N	1.066618	-0.237502	-0.204069
C28	C	1.006177	-0.710120	-0.304213
C29	C	1.127151	-0.710098	-0.103936
C30	C	1.127140	-0.605079	-0.103932
C31	C	1.066649	-0.552577	-0.204071
C32	C	1.006167	-0.605092	-0.304214
C33	C	1.187627	-0.552556	-0.003800
C34	C	1.187620	-0.447531	-0.003793
C35	C	1.127123	-0.395026	-0.103926
C36	C	1.066638	-0.447548	-0.204072
C37	C	1.006147	-0.395046	-0.304211
C38	C	0.945657	-0.447566	-0.404351
C39	C	0.945670	-0.552588	-0.404347
C40	C	1.127110	-0.290005	-0.103930
C41	C	1.006136	-0.290018	-0.304213
C42	C	1.231381	-0.000070	-0.193643
C43	C	1.331488	-0.000070	-0.196758
C44	C	1.071019	-0.000063	0.065639
C45	C	1.067903	-0.000058	0.229420
N46	N	1.066669	0.237377	-0.204074
C47	C	1.062260	-0.000060	-0.473793
C48	C	1.065376	-0.000058	-0.637574
H49	H	0.651983	0.255911	-0.206744
F50	F	1.251995	-0.391642	0.102785
H51	H	1.176406	-0.752849	-0.022413
F52	F	0.941799	-0.766014	-0.410780
F53	F	0.881299	-0.608487	-0.510919
H54	H	0.793056	0.164973	-0.211129
F55	F	0.881284	-0.391678	-0.510932
H56	H	1.236882	-0.595307	0.077723
F57	F	1.191488	-0.234115	0.002631
H58	H	0.481322	0.255898	-0.201412
F59	F	0.328475	0.187682	-0.196625
F60	F	0.469544	-0.278758	-0.201073
F61	F	0.328461	-0.187813	-0.196674
H62	H	0.651948	-0.256028	-0.206739
H63	H	0.793043	-0.165056	-0.211141
H64	H	0.956873	-0.247276	-0.385753
