data_functionalizedCrystal
_audit_creation_method	'MofGen! by Chris Wilmer'
_symmetry_space_group_name_H-M	'P1'
_symmetry_Int_Tables_number	1
_symmetry_cell_setting	triclinic
loop_
_symmetry_equiv_pos_as_xyz
  x,y,z
_cell_length_a	6.817900
_cell_length_b	11.102210
_cell_length_c	16.255661
_cell_angle_alpha	93.853881
_cell_angle_beta	103.488922
_cell_angle_gamma	108.604261
loop_
_atom_site_label
_atom_site_type_symbol
_atom_site_fract_x
_atom_site_fract_y
_atom_site_fract_z
V1	V	-4.052930	-0.176865	-0.263869
O2	O	-4.013087	0.007443	-0.258848
O3	O	-4.030099	-0.349678	-0.262063
O4	O	-4.004157	-0.174608	-0.378952
O5	O	-4.039208	-0.168839	-0.141149
V6	V	-4.533293	-0.154765	-0.249191
O7	O	-4.321120	-0.225343	-0.296067
O8	O	-4.715300	-0.106287	-0.216994
O9	O	-4.332917	0.018048	-0.250998
O10	O	-4.690533	-0.339073	-0.254212
O11	O	-4.664411	-0.162791	-0.371911
O12	O	-4.358859	-0.157022	-0.134108
C13	C	-3.881332	-0.391791	-0.257900
C14	C	-3.943949	-0.533071	-0.257190
C15	C	-3.989272	-0.713759	-0.178700
C16	C	-3.930414	-0.581009	-0.179357
C17	C	-4.016327	-0.617889	-0.334369
C18	C	-4.075169	-0.750636	-0.333711
C19	C	-3.848240	-0.168471	-0.407003
C20	C	-3.889815	-0.167769	-0.501084
C21	C	-3.799129	-0.159385	-0.723903
C22	C	-3.971586	-0.267594	-0.793378
C23	C	-3.966005	-0.166453	-0.673333
C24	C	-3.867655	-0.057005	-0.771495
C25	C	-4.039584	-0.165176	-0.839716
C26	C	-4.137958	-0.274759	-0.741578
C27	C	-4.033951	-0.064074	-0.719680
C28	C	-4.206549	-0.172314	-0.789135
C29	C	-3.923613	-0.167190	-0.577484
C30	C	-4.081994	-0.164449	-0.935565
C31	C	-4.145027	0.060154	-0.255158
C32	C	-4.061648	0.201433	-0.255874
C33	C	-4.178119	-0.163163	-0.106053
C34	C	-4.115781	-0.163859	-0.011971
H35	H	-3.978252	-0.752779	-0.115320
F36	F	-4.432260	-0.179493	-0.826187
H37	H	-3.945668	-0.353639	-0.825463
F38	F	-4.286804	-0.395175	-0.723978
H39	H	-4.059790	0.021975	-0.687572
F40	F	-4.030710	-0.566865	-0.417205
H41	H	-3.626586	-0.154059	-0.695423
F42	F	-3.853380	-0.490754	-0.097217
F43	F	-4.152162	-0.840900	-0.415854
F44	F	-3.718815	0.063282	-0.789248
