data_functionalizedCrystal
_audit_creation_method	'MofGen! by Chris Wilmer'
_symmetry_space_group_name_H-M	'P1'
_symmetry_Int_Tables_number	1
_symmetry_cell_setting	triclinic
loop_
_symmetry_equiv_pos_as_xyz
  x,y,z
_cell_length_a	19.188925
_cell_length_b	18.266242
_cell_length_c	19.188930
_cell_angle_alpha	90.011475
_cell_angle_beta	83.143665
_cell_angle_gamma	90.009988
loop_
_atom_site_label
_atom_site_type_symbol
_atom_site_fract_x
_atom_site_fract_y
_atom_site_fract_z
O1	O	0.926152	0.060905	0.087151
O2	O	1.259485	0.394238	0.420484
O3	O	1.592818	0.727572	0.753817
O4	O	0.722840	0.060904	0.098889
O5	O	1.056173	0.394237	0.432222
O6	O	1.389507	0.727571	0.765555
O7	O	0.830363	0.060890	-0.008636
O8	O	1.163696	0.394224	0.324697
O9	O	1.497030	0.727557	0.658031
O10	O	0.818629	0.060919	0.194675
O11	O	1.151962	0.394252	0.528009
O12	O	1.485295	0.727585	0.861342
O13	O	0.830345	-0.060872	-0.008642
O14	O	1.163678	0.272462	0.324692
O15	O	1.497011	0.605795	0.658025
O16	O	0.722822	-0.060858	0.098883
O17	O	1.056155	0.272475	0.432217
O18	O	1.389488	0.605809	0.765550
O19	O	0.926133	-0.060857	0.087145
O20	O	1.259467	0.272476	0.420478
O21	O	1.592800	0.605810	0.753812
Zn22	Zn	0.824475	-0.080190	0.093013
Zn23	Zn	1.157808	0.253143	0.426347
Zn24	Zn	1.491141	0.586477	0.759680
Zn25	Zn	0.824499	0.080237	0.093021
Zn26	Zn	1.157832	0.413570	0.426354
Zn27	Zn	1.491165	0.746903	0.759687
O28	O	0.818610	-0.060843	0.194670
O29	O	1.151944	0.272490	0.528003
O30	O	1.485277	0.605823	0.861337
C31	C	0.696820	0.000023	0.098507
C32	C	1.030153	0.333356	0.431840
C33	C	1.363486	0.666689	0.765173
C34	C	0.619315	0.000022	0.097367
C35	C	0.952648	0.333355	0.430701
C36	C	1.285982	0.666688	0.764034
N37	N	0.824463	-0.189677	0.093008
N38	N	1.157797	0.143657	0.426341
N39	N	1.491130	0.476990	0.759675
C40	C	0.057545	0.000031	0.152831
C41	C	0.390878	0.333365	0.486165
C42	C	0.724211	0.666698	0.819498
C43	C	0.130368	0.000035	0.153908
C44	C	0.463701	0.333369	0.487241
C45	C	0.797035	0.666702	0.820575
C46	C	0.175302	0.000025	0.090816
C47	C	0.508636	0.333358	0.424149
C48	C	0.841969	0.666692	0.757482
C49	C	0.147408	0.000030	0.026642
C50	C	0.480742	0.333363	0.359976
C51	C	0.814075	0.666696	0.693309
C52	C	0.074586	0.000033	0.025568
C53	C	0.407920	0.333366	0.358901
C54	C	0.741253	0.666700	0.692234
N55	N	0.295973	-0.041430	0.045138
N56	N	0.629307	0.291903	0.378471
N57	N	0.962640	0.625237	0.711804
N58	N	0.365151	-0.041435	0.046163
N59	N	0.698484	0.291899	0.379496
N60	N	1.031817	0.625232	0.712830
C61	C	0.394712	0.000017	0.094050
C62	C	0.728045	0.333350	0.427383
C63	C	1.061378	0.666684	0.760716
N64	N	0.352480	0.041464	0.140883
N65	N	0.685814	0.374797	0.474217
N66	N	1.019147	0.708131	0.807550
N67	N	0.283296	0.041465	0.139860
N68	N	0.616630	0.374799	0.473193
N69	N	0.949963	0.708132	0.806527
C70	C	0.254267	0.000022	0.091974
C71	C	0.587600	0.333355	0.425307
C72	C	0.920933	0.666689	0.758641
C73	C	0.501561	0.000022	0.159386
C74	C	0.834894	0.333355	0.492720
C75	C	1.168227	0.666689	0.826053
C76	C	0.574385	0.000031	0.160460
C77	C	0.907719	0.333364	0.493794
C78	C	1.241052	0.666697	0.827127
C79	C	0.591425	0.000018	0.033193
C80	C	0.924758	0.333351	0.366526
C81	C	1.258091	0.666684	0.699859
C82	C	0.518601	0.000016	0.032121
C83	C	0.851934	0.333350	0.365454
C84	C	1.185268	0.666683	0.698787
C85	C	0.473673	0.000015	0.095220
C86	C	0.807006	0.333348	0.428553
C87	C	1.140340	0.666682	0.761886
C88	C	0.872090	-0.227992	0.045419
C89	C	1.205424	0.105342	0.378753
C90	C	1.538757	0.438675	0.712086
C91	C	0.872095	-0.304637	0.045416
C92	C	1.205428	0.028697	0.378749
C93	C	1.538761	0.362030	0.712083
C94	C	0.824479	-0.342964	0.093013
C95	C	1.157812	-0.009630	0.426347
C96	C	1.491146	0.323703	0.759680
C97	C	0.776843	-0.304639	0.140606
C98	C	1.110177	0.028694	0.473939
C99	C	1.443510	0.362027	0.807273
C100	C	0.776836	-0.227996	0.140603
C101	C	1.110169	0.105337	0.473936
C102	C	1.443502	0.438671	0.807270
N103	N	0.815403	-0.463287	0.154821
N104	N	1.148737	-0.129954	0.488154
N105	N	1.482070	0.203379	0.821488
N106	N	0.815415	-0.536096	0.154821
N107	N	1.148748	-0.202762	0.488155
N108	N	1.482082	0.130571	0.821488
C109	C	0.824499	-0.573886	0.093024
C110	C	1.157832	-0.240553	0.426357
C111	C	1.491165	0.092781	0.759690
N112	N	0.833584	-0.536118	0.031223
N113	N	1.166917	-0.202785	0.364556
N114	N	1.500251	0.130549	0.697890
N115	N	0.833576	-0.463303	0.031223
N116	N	1.166909	-0.129970	0.364557
N117	N	1.500243	0.203363	0.697890
C118	C	0.824482	-0.426071	0.093021
C119	C	1.157815	-0.092737	0.426355
C120	C	1.491148	0.240596	0.759688
C121	C	0.872133	-0.695308	0.045427
C122	C	1.205466	-0.361975	0.378761
C123	C	1.538799	-0.028642	0.712094
C124	C	0.872132	-0.771955	0.045423
C125	C	1.205466	-0.438621	0.378756
C126	C	1.538799	-0.105288	0.712090
C127	C	0.776884	-0.771956	0.140619
C128	C	1.110218	-0.438623	0.473952
C129	C	1.443551	-0.105289	0.807286
C130	C	0.776881	-0.695311	0.140617
C131	C	1.110215	-0.361978	0.473951
C132	C	1.443548	-0.028644	0.807284
C133	C	0.824509	-0.656992	0.093022
C134	C	1.157843	-0.323658	0.426355
C135	C	1.491176	0.009675	0.759689
C136	C	0.952154	0.000026	0.087527
C137	C	1.285487	0.333359	0.420861
C138	C	1.618820	0.666693	0.754194
C139	C	1.029658	0.000032	0.088666
C140	C	1.362992	0.333365	0.422000
C141	C	1.696325	0.666698	0.755333
C142	C	0.829974	0.000007	-0.034650
C143	C	1.163307	0.333340	0.298683
C144	C	1.496640	0.666674	0.632017
C145	C	0.828833	0.000001	-0.112154
C146	C	1.162166	0.333334	0.221179
C147	C	1.495500	0.666667	0.554512
N148	N	0.824515	0.189724	0.093020
N149	N	1.157849	0.523057	0.426354
N150	N	1.491182	0.856390	0.759687
C151	C	0.891924	-0.000002	-0.157079
C152	C	1.225257	0.333331	0.176254
C153	C	1.558591	0.666664	0.509587
C154	C	0.890852	0.000009	-0.229903
C155	C	1.224186	0.333343	0.103430
C156	C	1.557519	0.666676	0.436763
C157	C	0.826686	0.000010	-0.257799
C158	C	1.160020	0.333343	0.075535
C159	C	1.493353	0.666676	0.408868
C160	C	0.763587	0.000017	-0.212864
C161	C	1.096920	0.333350	0.120470
C162	C	1.430254	0.666684	0.453803
C163	C	0.764660	0.000012	-0.140041
C164	C	1.097994	0.333346	0.193292
C165	C	1.431327	0.666679	0.526625
N166	N	0.777633	-0.041429	-0.365805
N167	N	1.110966	0.291905	-0.032471
N168	N	1.444299	0.625238	0.300862
N169	N	0.776617	-0.041426	-0.434983
N170	N	1.109950	0.291907	-0.101650
N171	N	1.443284	0.625241	0.231684
C172	C	0.823448	0.000024	-0.477207
C173	C	1.156781	0.333358	-0.143874
C174	C	1.490115	0.666691	0.189459
N175	N	0.871343	0.041463	-0.447641
N176	N	1.204677	0.374796	-0.114307
N177	N	1.538010	0.708129	0.219026
N178	N	0.872361	0.041457	-0.378456
N179	N	1.205694	0.374790	-0.045123
N180	N	1.539028	0.708124	0.288211
C181	C	0.825515	0.000015	-0.336761
C182	C	1.158848	0.333348	-0.003428
C183	C	1.492182	0.666681	0.329906
C184	C	0.885381	0.000035	-0.601097
C185	C	1.218715	0.333368	-0.267763
C186	C	1.552048	0.666702	0.065570
C187	C	0.884307	0.000051	-0.673922
C188	C	1.217640	0.333384	-0.340588
C189	C	1.550974	0.666718	-0.007255
C190	C	0.757040	0.000051	-0.656880
C191	C	1.090373	0.333385	-0.323547
C192	C	1.423706	0.666718	0.009786
C193	C	0.758116	0.000042	-0.584057
C194	C	1.091449	0.333376	-0.250724
C195	C	1.424783	0.666709	0.082610
C196	C	0.822289	0.000031	-0.556170
C197	C	1.155622	0.333364	-0.222837
C198	C	1.488955	0.666697	0.110497
C199	C	0.819000	0.000041	0.220684
C200	C	1.152333	0.333375	0.554017
C201	C	1.485666	0.666708	0.887350
C202	C	0.820140	0.000053	0.298188
C203	C	1.153474	0.333386	0.631522
C204	C	1.486807	0.666719	0.964855
H205	H	0.020968	0.000034	0.204211
H206	H	0.354302	0.333367	0.537545
H207	H	0.687635	0.666700	0.870878
N208	N	0.694378	0.000021	-0.242945
N209	N	1.027711	0.333354	0.090388
N210	N	1.361045	0.666688	0.423721
H211	H	0.703271	0.000021	-0.295895
H212	H	1.036604	0.333354	0.037438
H213	H	1.369937	0.666688	0.370771
H214	H	0.666771	-0.045117	-0.226505
H215	H	1.000104	0.288217	0.106829
H216	H	1.333437	0.621550	0.440162
N217	N	0.639875	0.000001	-0.034861
N218	N	0.973209	0.333334	0.298472
N219	N	1.306542	0.666667	0.631806
H220	H	0.630935	0.045135	-0.062864
H221	H	0.964268	0.378468	0.270470
H222	H	1.297601	0.711802	0.603803
H223	H	0.690221	-0.000029	-0.024391
H224	H	1.023554	0.333305	0.308942
H225	H	1.356888	0.666638	0.642276
H226	H	0.738112	-0.803161	0.179371
H227	H	1.071445	-0.469828	0.512705
H228	H	1.404779	-0.136494	0.846038
H229	H	0.495896	0.000012	-0.020129
H230	H	0.829230	0.333346	0.313204
H231	H	1.162563	0.666679	0.646537
N232	N	0.725461	-0.186671	0.191935
N233	N	1.058795	0.146662	0.525268
N234	N	1.392128	0.479995	0.858601
H235	H	0.733346	-0.199996	0.241470
H236	H	1.066680	0.133338	0.574804
H237	H	1.400013	0.466671	0.908137
H238	H	0.732707	-0.132316	0.184652
H239	H	1.066040	0.201017	0.517986
H240	H	1.399373	0.534351	0.851319
H241	H	0.153078	0.000028	0.206160
H242	H	0.486411	0.333361	0.539494
H243	H	0.819744	0.666695	0.872827
H244	H	0.713282	0.000015	-0.103462
H245	H	1.046616	0.333348	0.229871
H246	H	1.379949	0.666682	0.563204
N247	N	0.725522	-0.653982	0.191957
N248	N	1.058855	-0.320649	0.525291
N249	N	1.392189	0.012684	0.858624
H250	H	0.732742	-0.599614	0.184734
H251	H	1.066076	-0.266281	0.518068
H252	H	1.399409	0.067053	0.851401
H253	H	0.676019	-0.667394	0.184017
H254	H	1.009352	-0.334061	0.517351
H255	H	1.342686	-0.000728	0.850684
N256	N	0.923456	-0.186666	-0.005918
N257	N	1.256789	0.146668	0.327415
N258	N	1.590123	0.480001	0.660749
H259	H	0.896872	-0.154881	-0.036769
H260	H	1.230206	0.178452	0.296564
H261	H	1.563539	0.511785	0.629898
H262	H	0.954268	-0.154893	0.020738
H263	H	1.287602	0.178440	0.354071
H264	H	1.620935	0.511774	0.687405
H265	H	0.910912	-0.664108	0.006670
H266	H	1.244246	-0.330774	0.340004
H267	H	1.577579	0.002559	0.673337
N268	N	0.923463	-0.345975	-0.005915
N269	N	1.256797	-0.012642	0.327418
N270	N	1.590130	0.320692	0.660751
H271	H	0.953632	-0.310070	-0.036067
H272	H	1.286966	0.023264	0.297266
H273	H	1.620299	0.356597	0.630599
H274	H	0.954244	-0.377758	0.020745
H275	H	1.287578	-0.044425	0.354078
H276	H	1.620911	0.288909	0.687412
H277	H	0.910914	-0.803151	0.006667
H278	H	1.244247	-0.469818	0.340000
H279	H	1.577580	-0.136485	0.673334
H280	H	0.937635	0.000029	-0.578390
H281	H	1.270968	0.333362	-0.245057
H282	H	1.604301	0.666695	0.088277
H283	H	0.738073	-0.335849	0.179359
H284	H	1.071406	-0.002516	0.512693
H285	H	1.404739	0.330818	0.846026
N286	N	0.961136	-0.000014	-0.127001
N287	N	1.294469	0.333320	0.206332
N288	N	1.627802	0.666653	0.539666
H289	H	1.000941	-0.000014	-0.166516
H290	H	1.334275	0.333320	0.166817
H291	H	1.667608	0.666653	0.500151
H292	H	0.964363	0.045123	-0.097148
H293	H	1.297696	0.378457	0.236185
H294	H	1.631030	0.711790	0.569518
H295	H	0.597088	0.000036	0.212713
H296	H	0.930421	0.333370	0.546046
H297	H	1.263755	0.666703	0.879380
N298	N	0.958903	0.000007	-0.278371
N299	N	1.292236	0.333341	0.054963
N300	N	1.625569	0.666674	0.388296
H301	H	0.999718	0.000001	-0.249654
H302	H	1.333051	0.333334	0.083679
H303	H	1.666384	0.666667	0.417013
H304	H	0.961215	-0.045131	-0.308964
H305	H	1.294549	0.288203	0.024369
H306	H	1.627882	0.621536	0.357702
H307	H	0.935686	0.000053	-0.710500
H308	H	1.269019	0.333386	-0.377166
H309	H	1.602352	0.666719	-0.043833
N310	N	0.687830	0.000060	-0.686956
N311	N	1.021163	0.333393	-0.353623
N312	N	1.354497	0.666726	-0.020290
H313	H	0.696722	0.000065	-0.739906
H314	H	1.030055	0.333398	-0.406573
H315	H	1.363389	0.666731	-0.073240
H316	H	0.660222	-0.045079	-0.670519
H317	H	0.993555	0.288255	-0.337186
H318	H	1.326889	0.621588	-0.003852
N319	N	0.690067	0.000042	-0.535596
N320	N	1.023401	0.333375	-0.202263
N321	N	1.356734	0.666708	0.131070
H322	H	0.649254	0.000043	-0.564316
H323	H	0.982588	0.333376	-0.230983
H324	H	1.315921	0.666710	0.102351
H325	H	0.687734	-0.045099	-0.505021
H326	H	1.021068	0.288234	-0.171688
H327	H	1.354401	0.621568	0.161645
H328	H	0.051883	0.000033	-0.026685
H329	H	0.385216	0.333367	0.306649
H330	H	0.718549	0.666700	0.639982
N331	N	0.195868	0.000021	-0.041408
N332	N	0.529202	0.333355	0.291925
N333	N	0.862535	0.666688	0.625259
H334	H	0.246233	0.000017	-0.030992
H335	H	0.579566	0.333350	0.302342
H336	H	0.912900	0.666683	0.635675
H337	H	0.186849	-0.045118	-0.069387
H338	H	0.520183	0.288215	0.263946
H339	H	0.853516	0.621548	0.597279
H340	H	0.464978	0.000022	0.210765
H341	H	0.798312	0.333356	0.544098
H342	H	1.131645	0.666689	0.877432
