data_functionalizedCrystal
_audit_creation_method	'MofGen! by Chris Wilmer'
_symmetry_space_group_name_H-M	'P1'
_symmetry_Int_Tables_number	1
_symmetry_cell_setting	triclinic
loop_
_symmetry_equiv_pos_as_xyz
  x,y,z
_cell_length_a	14.519709
_cell_length_b	23.532407
_cell_length_c	13.596369
_cell_angle_alpha	89.989360
_cell_angle_beta	90.000291
_cell_angle_gamma	83.264412
loop_
_atom_site_label
_atom_site_type_symbol
_atom_site_fract_x
_atom_site_fract_y
_atom_site_fract_z
O1	O	1.222985	0.074654	-0.081674
O2	O	1.722985	0.574654	0.418326
O3	O	0.954404	0.083445	-0.081705
O4	O	1.454404	0.583445	0.418295
O5	O	1.096794	-0.003846	-0.081671
O6	O	1.596794	0.496154	0.418329
O7	O	1.080596	0.161945	-0.081708
O8	O	1.580596	0.661945	0.418292
O9	O	1.096780	-0.003850	0.081912
O10	O	1.596780	0.496150	0.581912
O11	O	0.954390	0.083441	0.081878
O12	O	1.454390	0.583441	0.581878
O13	O	1.222971	0.074649	0.081909
O14	O	1.722971	0.574649	0.581909
Zn15	Zn	1.088678	0.079044	0.107866
Zn16	Zn	1.588678	0.579044	0.607866
Zn17	Zn	1.088697	0.079050	-0.107662
Zn18	Zn	1.588697	0.579050	0.392338
O19	O	1.080582	0.161940	0.081874
O20	O	1.580582	0.661940	0.581874
C21	C	0.920042	0.083033	0.000083
C22	C	1.420042	0.583033	0.500083
C23	C	0.817676	0.081805	0.000071
C24	C	1.317676	0.581805	0.500071
C25	C	0.442833	0.077286	0.000117
C26	C	0.942833	0.577286	0.500117
C27	C	0.547126	0.078541	0.000104
C28	C	1.047126	0.578541	0.500104
C29	C	0.630251	0.079545	0.000093
C30	C	1.130251	0.579545	0.500093
C31	C	0.734551	0.080801	0.000082
C32	C	1.234551	0.580801	0.500082
C33	C	1.096374	-0.025066	0.000123
C34	C	1.596374	0.474934	0.500123
C35	C	1.095134	-0.088288	0.000131
C36	C	1.595134	0.411712	0.500131
C37	C	1.171619	-0.487046	0.000086
C38	C	1.671619	0.012954	0.500086
C39	C	1.170467	-0.546452	0.000078
C40	C	1.670467	-0.046452	0.500078
O41	O	1.241369	-0.582876	0.000050
O42	O	1.741369	-0.082876	0.500050
N43	N	1.085816	-0.569460	0.000069
N44	N	1.585816	-0.069460	0.500069
C45	C	1.002312	-0.533059	0.000057
C46	C	1.502312	-0.033059	0.500057
O47	O	0.930205	-0.558084	0.000048
O48	O	1.430205	-0.058084	0.500048
C49	C	1.003465	-0.473655	0.000058
C50	C	1.503465	0.026345	0.500058
C51	C	1.088121	-0.450650	0.000077
C52	C	1.588121	0.049350	0.500077
C53	C	1.256268	-0.464041	0.000104
C54	C	1.756268	0.035959	0.500104
C55	C	1.257420	-0.404640	0.000113
C56	C	1.757420	0.095360	0.500113
C57	C	1.173922	-0.368244	0.000105
C58	C	1.673922	0.131756	0.500105
C59	C	1.089273	-0.391249	0.000087
C60	C	1.589273	0.108751	0.500087
C61	C	0.919962	-0.437255	0.000039
C62	C	1.419962	0.062745	0.500039
C63	C	0.921123	-0.377847	0.000039
C64	C	1.421123	0.122153	0.500039
C65	C	1.005779	-0.354843	0.000058
C66	C	1.505779	0.145157	0.500058
C67	C	1.006927	-0.295451	0.000087
C68	C	1.506927	0.204549	0.500087
N69	N	1.091578	-0.272443	0.000097
N70	N	1.591578	0.227557	0.500097
C71	C	1.175075	-0.308839	0.000105
C72	C	1.675075	0.191161	0.500105
C73	C	0.999897	-0.657813	0.000055
C74	C	1.499897	-0.157813	0.500055
C75	C	0.998743	-0.717216	0.000061
C76	C	1.498743	-0.217216	0.500061
C77	C	1.166898	-0.730604	0.000080
C78	C	1.666898	-0.230604	0.500080
C79	C	1.168051	-0.671200	0.000080
C80	C	1.668051	-0.171200	0.500080
C81	C	1.084548	-0.634804	0.000064
C82	C	1.584548	-0.134804	0.500064
C83	C	1.177487	-0.184092	0.000126
C84	C	1.677487	0.315908	0.500126
C85	C	1.178632	-0.124685	0.000139
C86	C	1.678632	0.375315	0.500139
C87	C	1.010477	-0.111301	0.000115
C88	C	1.510477	0.388699	0.500115
C89	C	1.009332	-0.170703	0.000107
C90	C	1.509332	0.329297	0.500107
C91	C	1.092845	-0.207098	0.000109
C92	C	1.592845	0.292902	0.500109
O93	O	0.936062	-0.258992	0.000111
O94	O	1.436062	0.241008	0.500111
O95	O	1.247171	-0.283806	0.000102
O96	O	1.747171	0.216194	0.500102
C97	C	1.257333	0.075061	0.000119
C98	C	1.757333	0.575061	0.500119
C99	C	1.359700	0.076289	0.000124
C100	C	1.859700	0.576289	0.500124
C101	C	1.081001	0.183160	0.000078
C102	C	1.581001	0.683160	0.500078
C103	C	1.082241	0.246383	0.000064
C104	C	1.582241	0.746383	0.500064
N105	N	1.088673	0.079040	0.254958
N106	N	1.588673	0.579040	0.754958
N107	N	1.088710	0.079050	-0.254754
N108	N	1.588710	0.579050	0.245246
C109	C	1.088696	0.079051	0.656248
C110	C	1.588696	0.579051	1.156248
C111	C	1.088686	0.079050	0.544597
C112	C	1.588686	0.579050	1.044597
C113	C	1.088685	0.079046	0.455607
C114	C	1.588685	0.579046	0.955607
C115	C	1.088674	0.079044	0.343948
C116	C	1.588674	0.579044	0.843948
H117	H	1.247572	-0.105958	0.000158
H118	H	1.747572	0.394042	0.500158
H119	H	0.851027	-0.455975	0.000018
H120	H	1.351027	0.044025	0.500018
H121	H	1.236985	-0.652474	0.000095
H122	H	1.736985	-0.152474	0.500095
H123	H	1.234886	-0.760249	0.000083
H124	H	1.734886	-0.260249	0.500083
H125	H	0.940399	-0.189434	0.000119
H126	H	1.440399	0.310566	0.500119
C127	C	1.423512	-0.423859	0.000121
C128	C	1.923512	0.076141	0.500121
C129	C	1.350477	-0.379359	0.000121
C130	C	1.850477	0.120641	0.500121
H131	H	1.480963	-0.408253	0.000118
H132	H	1.980963	0.091747	0.500118
H133	H	1.419557	-0.446754	0.057162
H134	H	1.919557	0.053246	0.557162
H135	H	1.419552	-0.446744	-0.056928
H136	H	1.919552	0.053256	0.443072
H137	H	1.354433	-0.356476	0.057175
H138	H	1.854433	0.143524	0.557175
H139	H	1.354433	-0.356454	-0.056926
H140	H	1.854433	0.143546	0.443074
C141	C	1.352561	-0.538598	-0.083977
C142	C	1.852561	-0.038598	0.416023
C143	C	1.348061	-0.504041	0.000114
C144	C	1.848061	-0.004041	0.500114
H145	H	1.409238	-0.563286	-0.083967
H146	H	1.909238	-0.063286	0.416033
H147	H	1.301999	-0.560808	-0.083978
H148	H	1.801999	-0.060808	0.416022
H149	H	1.349514	-0.515134	-0.141016
H150	H	1.849514	-0.015134	0.358984
H151	H	1.351102	-0.527505	0.057154
H152	H	1.851102	-0.027505	0.557154
H153	H	1.398637	-0.481828	0.000124
H154	H	1.898637	0.018172	0.500124
H155	H	1.245491	-0.213718	0.000124
H156	H	1.745491	0.286282	0.500124
C157	C	0.832649	-0.698000	0.000040
C158	C	1.332649	-0.198000	0.500040
C159	C	0.905687	-0.742498	0.000048
C160	C	1.405687	-0.242498	0.500048
H161	H	0.775199	-0.713608	0.000022
H162	H	1.275199	-0.213608	0.500022
H163	H	0.836593	-0.675120	0.057086
H164	H	1.336593	-0.175120	0.557086
H165	H	0.836614	-0.675100	-0.057004
H166	H	1.336614	-0.175100	0.442996
H167	H	0.901726	-0.765396	0.057096
H168	H	1.401726	-0.265396	0.557096
H169	H	0.901740	-0.765388	-0.057004
H170	H	1.401740	-0.265388	0.442996
C171	C	0.903622	-0.583235	-0.084042
C172	C	1.403622	-0.083235	0.415958
C173	C	0.908101	-0.617809	0.000050
C174	C	1.408101	-0.117809	0.500050
H175	H	0.846948	-0.558544	-0.084048
H176	H	1.346948	-0.058544	0.415952
H177	H	0.954188	-0.561028	-0.084029
H178	H	1.454188	-0.061028	0.415971
H179	H	0.906677	-0.606688	-0.141081
H180	H	1.406677	-0.106688	0.358919
H181	H	0.905052	-0.594357	0.057089
H182	H	1.405052	-0.094357	0.557089
H183	H	0.857521	-0.640018	0.000046
H184	H	1.357521	-0.140018	0.500046
C185	C	0.937599	-0.014290	0.000103
C186	C	1.437599	0.485710	0.500103
C187	C	0.918700	-0.071287	0.000100
C188	C	1.418700	0.428713	0.500100
H189	H	0.880937	0.010413	0.000081
H190	H	1.380937	0.510413	0.500081
H191	H	0.972316	-0.007317	0.057153
H192	H	1.472316	0.492683	0.557153
H193	H	0.972348	-0.007309	-0.056937
H194	H	1.472348	0.492691	0.443063
H195	H	0.883956	-0.078268	0.057143
H196	H	1.383956	0.421732	0.557143
H197	H	0.883967	-0.078262	-0.056957
H198	H	1.383967	0.421738	0.443043
H199	H	0.853122	-0.348216	0.000024
H200	H	1.353122	0.151784	0.500024
