data_functionalizedCrystal
_audit_creation_method	'MofGen! by Chris Wilmer'
_symmetry_space_group_name_H-M	'P1'
_symmetry_Int_Tables_number	1
_symmetry_cell_setting	triclinic
loop_
_symmetry_equiv_pos_as_xyz
  x,y,z
_cell_length_a	17.699077
_cell_length_b	10.654551
_cell_length_c	16.176319
_cell_angle_alpha	89.996057
_cell_angle_beta	89.993140
_cell_angle_gamma	83.882969
loop_
_atom_site_label
_atom_site_type_symbol
_atom_site_fract_x
_atom_site_fract_y
_atom_site_fract_z
O1	O	1.005091	0.158773	-0.068730
O2	O	0.784844	0.179442	-0.068734
O3	O	0.900031	-0.013720	-0.068732
O4	O	0.889904	0.351936	-0.068732
O5	O	0.900015	-0.013733	0.068761
O6	O	0.784828	0.179430	0.068759
O7	O	1.005075	0.158761	0.068763
Cu8	Cu	0.894950	0.169094	0.081315
Cu9	Cu	0.894969	0.169109	-0.081286
O10	O	0.889888	0.351923	0.068761
C11	C	0.756634	0.178697	0.000012
C12	C	0.672602	0.176479	0.000011
C13	C	0.633119	0.175427	0.074959
C14	C	0.554163	0.173323	0.074960
C15	C	0.514691	0.172279	0.000012
C16	C	0.554179	0.173328	-0.074943
C17	C	0.633134	0.175423	-0.074943
C18	C	0.235762	0.164877	-0.074944
C19	C	0.156801	0.162785	-0.074938
C20	C	0.156791	0.162777	0.074958
C21	C	0.235746	0.164872	0.074958
C22	C	0.275228	0.165913	0.000005
C23	C	0.360841	0.168192	0.000005
C24	C	0.429078	0.170009	0.000011
C25	C	0.899279	-0.060511	0.000012
C26	C	0.897054	-0.199915	0.000007
C27	C	0.896019	-0.265402	-0.074939
C28	C	0.893922	-0.396386	-0.074936
C29	C	0.893898	-0.396385	0.074967
C30	C	0.895990	-0.265402	0.074962
C31	C	0.897083	-0.199916	-0.149895
C32	C	0.896049	-0.265403	-0.224847
C33	C	0.893952	-0.396386	-0.224844
C34	C	0.892889	-0.461883	-0.149888
C35	C	1.033285	0.159506	0.000015
C36	C	1.117318	0.161724	0.000011
C37	C	0.890640	0.398714	0.000015
C38	C	0.892865	0.538119	0.000015
N39	N	0.894942	0.169083	0.195680
N40	N	0.894983	0.169110	-0.195652
C41	C	0.945963	0.083586	0.238945
C42	C	0.945967	0.083584	0.325492
C43	C	0.894953	0.169088	0.368773
C44	C	0.843927	0.254589	0.325502
C45	C	0.843920	0.254584	0.238957
C46	C	0.843953	0.254613	0.674530
C47	C	0.843965	0.254614	0.761082
C48	C	0.946000	0.083614	0.761066
C49	C	0.945993	0.083608	0.674521
C50	C	0.894964	0.169105	0.631257
C51	C	0.894960	0.169103	0.537413
C52	C	0.894961	0.169096	0.462616
H53	H	0.522035	0.172469	-0.135967
C54	C	0.897133	-0.193364	0.157407
N55	N	0.897992	-0.139103	0.219506
H56	H	0.896907	-0.212066	-0.285874
C57	C	0.787804	0.348632	0.373114
N58	N	0.745531	0.419467	0.408975
H59	H	0.802373	0.324203	0.203731
H60	H	0.124665	0.161935	-0.135974
H61	H	0.665280	0.176282	-0.135973
H62	H	0.893033	-0.449722	0.135992
C63	C	1.002075	-0.010500	0.373080
N64	N	1.044332	-0.081380	0.408922
C65	C	0.892837	-0.468424	-0.307291
N66	N	0.892012	-0.522683	-0.369394
H67	H	0.267899	0.165721	-0.135976
H68	H	0.987507	0.013965	0.203712
C69	C	1.002110	-0.010455	0.626917
N70	N	1.044376	-0.081309	0.591063
H71	H	0.891170	-0.568536	-0.149891
C72	C	1.002126	-0.010446	0.808663
N73	N	1.044400	-0.081289	0.844512
H74	H	0.267880	0.165728	0.135989
C75	C	0.787919	0.348824	0.626952
N76	N	0.745747	0.419847	0.591113
C77	C	0.676531	0.176574	0.157410
N78	N	0.709228	0.177431	0.219514
C79	C	0.510733	0.172195	0.157409
N80	N	0.478022	0.171355	0.219514
H81	H	0.124635	0.161923	0.135989
C82	C	0.899318	-0.055815	-0.149906
N83	N	0.900976	0.052727	-0.149913
C84	C	0.787839	0.348671	0.808689
N85	N	0.745566	0.419510	0.844547
