data_functionalizedCrystal
_audit_creation_method	'MofGen! by Chris Wilmer'
_symmetry_space_group_name_H-M	'P1'
_symmetry_Int_Tables_number	1
_symmetry_cell_setting	triclinic
loop_
_symmetry_equiv_pos_as_xyz
  x,y,z
_cell_length_a	10.968094
_cell_length_b	17.019294
_cell_length_c	10.065875
_cell_angle_alpha	94.957055
_cell_angle_beta	93.118877
_cell_angle_gamma	84.883314
loop_
_atom_site_label
_atom_site_type_symbol
_atom_site_fract_x
_atom_site_fract_y
_atom_site_fract_z
O1	O	1.615109	0.135970	0.250344
O2	O	1.265107	0.138202	0.167772
O3	O	1.447807	0.023840	0.224184
O4	O	1.432410	0.250332	0.193932
O5	O	1.412970	0.045739	0.440405
O6	O	1.230271	0.160101	0.383993
O7	O	1.580273	0.157869	0.466565
Zn8	Zn	1.399740	0.162462	0.459609
Zn9	Zn	1.445640	0.133609	0.174728
O10	O	1.397573	0.272231	0.410153
C11	C	1.202866	0.147335	0.265555
C12	C	1.069309	0.141915	0.234783
C13	C	0.853674	0.145231	0.301262
C14	C	0.991709	0.150840	0.333078
C15	C	1.429118	0.005712	0.335412
C16	C	1.425317	-0.080931	0.344697
C17	C	1.442524	-0.133568	0.231198
C18	C	1.438944	-0.214977	0.239924
C19	C	1.418166	-0.243747	0.362153
C20	C	1.400955	-0.191103	0.475659
C21	C	1.404526	-0.109695	0.466929
C22	C	1.406425	-0.488948	0.394405
C23	C	1.402858	-0.570363	0.403128
C24	C	1.440846	-0.594231	0.167391
C25	C	1.444422	-0.512821	0.158674
C26	C	1.427205	-0.460184	0.272179
C27	C	1.414510	-0.326960	0.371076
C28	C	1.430852	-0.376972	0.263252
C29	C	1.642514	0.148735	0.368779
C30	C	1.776073	0.154155	0.399543
C31	C	1.416262	0.290358	0.298922
C32	C	1.420065	0.377000	0.289629
N33	N	1.368424	0.182153	0.654035
N34	N	1.476965	0.113912	-0.019695
C35	C	1.434736	0.140455	0.742311
C36	C	1.410644	0.155616	0.892030
H37	H	1.033561	0.130122	0.127078
H38	H	1.454861	-0.637096	0.074982
H39	H	0.817919	0.133433	0.193566
O40	O	1.279330	0.238138	0.695859
C41	C	1.222372	0.273979	0.584714
H42	H	1.235887	0.232200	0.490908
H43	H	1.120219	0.287190	0.600551
H44	H	1.264949	0.331528	0.572810
O45	O	1.523632	0.084451	0.700051
C46	C	1.470844	0.026621	0.611780
H47	H	1.380551	0.053009	0.566227
H48	H	1.536140	0.006075	0.528988
H49	H	1.453157	-0.025982	0.668743
H50	H	1.027459	0.162630	0.440782
H51	H	1.551574	0.066983	0.945048
O52	O	1.462897	-0.105590	0.112546
C53	C	1.570040	-0.064994	0.125562
H54	H	1.630877	-0.086813	0.212625
H55	H	1.621752	-0.076565	0.029637
H56	H	1.544132	0.001220	0.144947
O57	O	0.818881	0.168116	0.527992
C58	C	0.902844	0.104658	0.562520
H59	H	0.942194	0.072679	0.468077
H60	H	0.980310	0.128376	0.630198
H61	H	0.853924	0.061607	0.617205
H62	H	1.385932	-0.593783	0.502664
O63	O	1.455788	-0.266005	0.129568
C64	C	1.474897	-0.223155	0.019817
H65	H	1.509833	-0.163736	0.057351
H66	H	1.545478	-0.258267	-0.045959
H67	H	1.384837	-0.212814	-0.040690
O68	O	1.464560	-0.485005	0.039823
C69	C	1.479011	-0.548923	-0.058479
H70	H	1.432893	-0.601333	-0.026893
H71	H	1.435045	-0.530495	-0.157524
H72	H	1.580775	-0.566628	-0.070510
H73	H	1.384029	-0.214534	0.575178
H74	H	1.392429	-0.446102	0.486835
O75	O	1.387828	-0.058672	0.577321
C76	C	1.368685	-0.101518	0.687067
H77	H	1.409728	-0.165166	0.667937
H78	H	1.414691	-0.072894	0.781076
H79	H	1.266159	-0.101139	0.700933
H80	H	1.447761	-0.353543	0.163732
H81	H	1.336026	0.202539	0.927285
O82	O	1.394199	-0.355000	0.489696
C83	C	1.287019	-0.395559	0.476685
H84	H	1.268292	-0.416169	0.367276
H85	H	1.299872	-0.449067	0.538339
H86	H	1.206228	-0.354237	0.513919
