data_functionalizedCrystal
_audit_creation_method	'MofGen! by Chris Wilmer'
_symmetry_space_group_name_H-M	'P1'
_symmetry_Int_Tables_number	1
_symmetry_cell_setting	triclinic
loop_
_symmetry_equiv_pos_as_xyz
  x,y,z
_cell_length_a	21.295417
_cell_length_b	12.759401
_cell_length_c	12.759393
_cell_angle_alpha	89.980163
_cell_angle_beta	89.960780
_cell_angle_gamma	90.032032
loop_
_atom_site_label
_atom_site_type_symbol
_atom_site_fract_x
_atom_site_fract_y
_atom_site_fract_z
Zn1	Zn	-0.250546	1.606140	-0.593965
Zn2	Zn	0.249454	2.106140	-0.093965
Zn3	Zn	-0.355830	1.605986	-0.418261
Zn4	Zn	0.144170	2.105986	0.081739
Zn5	Zn	-0.250582	1.430442	-0.418300
Zn6	Zn	0.249418	1.930442	0.081700
Zn7	Zn	-0.355784	1.430382	-0.593899
Zn8	Zn	0.144216	1.930382	-0.093899
O9	O	-0.303186	1.518237	-0.506106
O10	O	0.196814	2.018237	-0.006106
O11	O	-0.264517	1.753140	-0.570669
O12	O	0.235483	2.253140	-0.070669
O13	O	-0.341903	1.582660	-0.271245
O14	O	0.158097	2.082660	0.228755
O15	O	-0.162488	1.453838	-0.441646
O16	O	0.337512	1.953838	0.058354
O17	O	-0.341869	1.753027	-0.441580
O18	O	0.158131	2.253027	0.058420
O19	O	-0.162461	1.582922	-0.570706
O20	O	0.337539	2.082922	-0.070706
O21	O	-0.264577	1.453689	-0.271274
O22	O	0.235423	1.953689	0.228726
O23	O	-0.264533	1.283413	-0.441582
O24	O	0.235467	1.783413	0.058418
O25	O	-0.341790	1.453736	-0.740929
O26	O	0.158210	1.953736	-0.240929
O27	O	-0.341825	1.283369	-0.570594
O28	O	0.158175	1.783369	-0.070594
O29	O	-0.264472	1.582864	-0.740977
O30	O	0.235528	2.082864	-0.240977
O31	O	-0.443914	1.582602	-0.441516
O32	O	0.056086	2.082602	0.058484
O33	O	-0.443880	1.453586	-0.570556
O34	O	0.056120	1.953586	-0.070556
C35	C	-0.303178	1.245270	-0.506085
C36	C	0.196822	1.745270	-0.006085
C37	C	-0.303190	1.128493	-0.506101
C38	C	0.196810	1.628493	-0.006101
C39	C	-0.343497	1.073636	-0.573172
C40	C	0.156503	1.573636	-0.073172
C41	C	-0.343499	0.963912	-0.573193
C42	C	0.156501	1.463912	-0.073193
C43	C	-0.262886	0.963912	-0.439063
C44	C	0.237114	1.463912	0.060937
C45	C	-0.262881	1.073634	-0.439048
C46	C	0.237119	1.573634	0.060952
C47	C	-0.466737	1.518099	-0.506048
C48	C	0.033263	2.018099	-0.006048
C49	C	-0.536705	1.518137	-0.506058
C50	C	-0.036705	2.018137	-0.006058
C51	C	-0.569569	1.585375	-0.438936
C52	C	-0.069569	2.085375	0.061064
C53	C	-0.635311	1.585424	-0.438960
C54	C	-0.135311	2.085424	0.061040
C55	C	-0.668188	1.518216	-0.506094
C56	C	-0.168188	2.018216	-0.006094
C57	C	-0.635317	1.450974	-0.573230
C58	C	-0.135317	1.950974	-0.073230
C59	C	-0.569575	1.450934	-0.573212
C60	C	-0.069575	1.950934	-0.073212
N61	N	-0.771454	1.426309	-0.514097
N62	N	-0.271454	1.926309	-0.014097
N63	N	-0.833906	1.426350	-0.514108
N64	N	-0.333906	1.926350	-0.014108
C65	C	-0.866262	1.518334	-0.506155
C66	C	-0.366262	2.018334	-0.006155
N67	N	-0.833808	1.610278	-0.498169
N68	N	-0.333808	2.110278	0.001831
N69	N	-0.771351	1.610236	-0.498153
N70	N	-0.271351	2.110236	0.001847
C71	C	-0.739473	1.518253	-0.506122
C72	C	-0.239473	2.018253	-0.006122
C73	C	-0.970411	1.585631	-0.439054
C74	C	-0.470411	2.085631	0.060946
C75	C	-1.036155	1.585682	-0.439085
C76	C	-0.536155	2.085682	0.060915
C77	C	-1.036159	1.451222	-0.573350
C78	C	-0.536159	1.951222	-0.073350
C79	C	-0.970417	1.451181	-0.573325
C80	C	-0.470417	1.951181	-0.073325
C81	C	-0.937547	1.518384	-0.506171
C82	C	-0.437547	2.018384	-0.006171
C83	C	-0.138995	1.518404	-0.506188
C84	C	0.361005	2.018404	-0.006188
C85	C	-0.069027	1.518475	-0.506222
C86	C	0.430973	2.018475	-0.006222
C87	C	-0.303122	1.518311	-0.780140
C88	C	0.196878	2.018311	-0.280140
C89	C	-0.303095	1.518342	-0.896916
C90	C	0.196905	2.018342	-0.396916
C91	C	-0.303194	1.792270	-0.506128
C92	C	0.196806	2.292270	-0.006128
C93	C	-0.303197	1.909047	-0.506137
C94	C	0.196803	2.409047	-0.006137
C95	C	-0.262824	1.451211	-0.951793
C96	C	0.237176	1.951211	-0.451793
C97	C	-0.262805	1.451235	-1.061517
C98	C	0.237195	1.951235	-0.561517
C99	C	-0.343329	1.585531	-1.061479
C100	C	0.156671	2.085531	-0.561479
C101	C	-0.343351	1.585500	-0.951757
C102	C	0.156649	2.085500	-0.451757
C103	C	-0.303204	1.518225	-0.233139
C104	C	0.196796	2.018225	0.266861
C105	C	-0.303053	1.518397	-0.116363
C106	C	0.196947	2.018397	0.383637
H107	H	-0.662074	1.640181	-0.384301
H108	H	-0.162074	2.140181	0.115699
N109	N	-0.534127	1.378395	-0.645599
N110	N	-0.034127	1.878395	-0.145599
H111	H	-0.487493	1.388564	-0.635395
H112	H	0.012507	1.888564	-0.135395
H113	H	-0.545567	1.394711	-0.720653
H114	H	-0.045567	1.894711	-0.220653
H115	H	-0.376103	1.640210	-1.106143
H116	H	0.123897	2.140210	-0.606143
N117	N	-0.934953	1.658111	-0.366632
N118	N	-0.434953	2.158111	0.133368
H119	H	-0.965750	1.700721	-0.324118
H120	H	-0.465750	2.200721	0.175882
H121	H	-0.907624	1.706689	-0.409431
H122	H	-0.407624	2.206689	0.090569
H123	H	-0.376147	1.640169	-0.907075
H124	H	0.123853	2.140169	-0.407075
H125	H	-0.662089	1.396255	-0.627893
H126	H	-0.162089	1.896255	-0.127893
N127	N	-0.219368	1.378834	-1.120707
N128	N	0.280632	1.878834	-0.620707
H129	H	-0.244939	1.330128	-1.166207
H130	H	0.255061	1.830128	-0.666207
H131	H	-0.193880	1.336357	-1.069248
H132	H	0.306120	1.836357	-0.569248
N133	N	-0.219402	1.132797	-0.366698
N134	N	0.280598	1.632797	0.133302
H135	H	-0.244945	1.178280	-0.317924
H136	H	0.255055	1.678280	0.182076
H137	H	-0.190265	1.178301	-0.409555
H138	H	0.309735	1.678301	0.090445
H139	H	-0.542808	1.640098	-0.384258
H140	H	-0.042808	2.140098	0.115742
H141	H	-1.062927	1.396505	-0.628017
H142	H	-0.562927	1.896505	-0.128017
N143	N	-0.386970	1.132808	-0.645490
N144	N	0.113030	1.632808	-0.145490
H145	H	-0.412504	1.081402	-0.687983
H146	H	0.087496	1.581402	-0.187983
H147	H	-0.361380	1.178378	-0.694184
H148	H	0.138620	1.678378	-0.194184
H149	H	-1.062911	1.640442	-0.384429
H150	H	-0.562911	2.140442	0.115571
H151	H	-0.376320	0.919252	-0.627810
H152	H	0.123680	1.419252	-0.127810
N153	N	-0.934966	1.378652	-0.645714
N154	N	-0.434966	1.878652	-0.145714
H155	H	-0.965767	1.336080	-0.688247
H156	H	-0.465767	1.836080	-0.188247
H157	H	-0.907740	1.330040	-0.602892
H158	H	-0.407740	1.830040	-0.102892
H159	H	-0.230068	0.919233	-0.384470
H160	H	0.269932	1.419233	0.115530
N161	N	-0.219406	1.378781	-0.892641
N162	N	0.280594	1.878781	-0.392641
H163	H	-0.193892	1.336258	-0.944059
H164	H	0.306108	1.836258	-0.444059
H165	H	-0.245034	1.330120	-0.847095
H166	H	0.254966	1.830120	-0.347095
