data_functionalizedCrystal
_audit_creation_method	'MofGen! by Chris Wilmer'
_symmetry_space_group_name_H-M	'P1'
_symmetry_Int_Tables_number	1
_symmetry_cell_setting	triclinic
loop_
_symmetry_equiv_pos_as_xyz
  x,y,z
_cell_length_a	13.262533
_cell_length_b	13.339070
_cell_length_c	14.586319
_cell_angle_alpha	89.998714
_cell_angle_beta	105.913300
_cell_angle_gamma	99.431353
loop_
_atom_site_label
_atom_site_type_symbol
_atom_site_fract_x
_atom_site_fract_y
_atom_site_fract_z
O1	O	1.432359	0.136446	0.280925
O2	O	1.932359	0.636446	0.780925
O3	O	1.131104	0.151275	0.205805
O4	O	1.631104	0.651275	0.705805
O5	O	1.247157	-0.003549	0.234746
O6	O	1.747157	0.496451	0.734746
O7	O	1.316306	0.291270	0.251984
O8	O	1.816306	0.791270	0.751984
O9	O	1.247145	-0.003552	0.387224
O10	O	1.747145	0.496448	0.887224
O11	O	1.131092	0.151273	0.358283
O12	O	1.631092	0.651273	0.858283
O13	O	1.432347	0.136443	0.433403
O14	O	1.932347	0.636443	0.933403
Cu15	Cu	1.281719	0.143858	0.409765
Cu16	Cu	1.781719	0.643858	0.909765
Cu17	Cu	1.281733	0.143861	0.229442
Cu18	Cu	1.781733	0.643861	0.729442
O19	O	1.316294	0.291268	0.404461
O20	O	1.816294	0.791268	0.904461
C21	C	1.091753	0.150442	0.272233
C22	C	1.591753	0.650442	0.772233
C23	C	0.974514	0.147951	0.242998
C24	C	1.474514	0.647951	0.742998
C25	C	0.644006	0.140938	0.493056
C26	C	1.144006	0.640938	0.993056
C27	C	0.754158	0.143284	0.520528
C28	C	1.254158	0.643284	1.020528
C29	C	0.809253	0.144450	0.451148
C30	C	1.309253	0.644450	0.951148
C31	C	0.754183	0.143272	0.354291
C32	C	1.254183	0.643272	0.854291
C33	C	0.644021	0.140934	0.326817
C34	C	1.144021	0.640934	0.826817
C35	C	0.809268	0.144446	0.284909
C36	C	1.309268	0.644446	0.784909
C37	C	0.754199	0.143268	0.188052
C38	C	1.254199	0.643268	0.688052
C39	C	0.644047	0.140930	0.160582
C40	C	1.144047	0.640930	0.660582
C41	C	0.588953	0.139764	0.229962
C42	C	1.088953	0.639764	0.729962
C43	C	0.919430	0.146784	0.312383
C44	C	1.419430	0.646784	0.812383
C45	C	0.919446	0.146780	0.146144
C46	C	1.419446	0.646780	0.646144
C47	C	0.809293	0.144435	0.118672
C48	C	1.309293	0.644435	0.618672
C49	C	1.235471	-0.041289	0.308071
C50	C	1.735471	0.458711	0.808071
C51	C	1.200654	-0.153738	0.299386
C52	C	1.700654	0.346262	0.799386
C53	C	1.471372	-0.517387	0.366892
C54	C	1.971372	-0.017387	0.866892
C55	C	1.504088	-0.411736	0.375058
C56	C	2.004088	0.088264	0.875058
C57	C	1.428232	-0.347232	0.356141
C58	C	1.928232	0.152768	0.856141
C59	C	1.319655	-0.388388	0.329056
C60	C	1.819655	0.111612	0.829056
C61	C	1.286936	-0.494049	0.320895
C62	C	1.786936	0.005951	0.820895
C63	C	1.243796	-0.323894	0.310144
C64	C	1.743796	0.176106	0.810144
C65	C	1.135219	-0.365050	0.283059
C66	C	1.635219	0.134950	0.783059
C67	C	1.102506	-0.470701	0.274900
C68	C	1.602506	0.029299	0.774900
C69	C	1.178362	-0.535206	0.293818
C70	C	1.678362	-0.035206	0.793818
C71	C	1.276515	-0.218232	0.318304
C72	C	1.776515	0.281768	0.818304
C73	C	1.092079	-0.194895	0.272308
C74	C	1.592079	0.305105	0.772308
C75	C	1.059364	-0.300545	0.264141
C76	C	1.559364	0.199455	0.764141
C77	C	1.471698	0.137276	0.366973
C78	C	1.971698	0.637276	0.866973
C79	C	1.588937	0.139767	0.396201
C80	C	2.088937	0.639767	0.896201
C81	C	1.327981	0.329007	0.331134
C82	C	1.827981	0.829007	0.831134
C83	C	1.362798	0.441456	0.339814
C84	C	1.862798	0.941456	0.839814
N85	N	1.281716	0.143855	0.536596
N86	N	1.781716	0.643855	1.036596
N87	N	1.281741	0.143855	0.102613
N88	N	1.781741	0.643855	0.602613
C89	C	1.333135	0.075322	0.784426
C90	C	1.833135	0.575322	1.284426
C91	C	1.333137	0.075320	0.880407
C92	C	1.833137	0.575320	1.380407
C93	C	1.230316	0.212391	0.854775
C94	C	1.730316	0.712391	1.354775
C95	C	1.230308	0.212388	0.758794
C96	C	1.730308	0.712388	1.258794
C97	C	1.281724	0.143855	0.723623
C98	C	1.781724	0.643855	1.223623
C99	C	1.281734	0.143856	0.915586
C100	C	1.781734	0.643856	1.415586
C101	C	1.281736	0.143853	1.019654
C102	C	1.781736	0.643853	1.519654
C103	C	1.281720	0.143855	0.619548
C104	C	1.781720	0.643855	1.119548
H105	H	0.964258	0.147745	0.391244
H106	H	1.464258	0.647745	0.891244
F107	F	1.552090	-0.586042	0.387037
F108	F	2.052090	-0.086042	0.887037
H109	H	0.970958	-0.334070	0.242089
H110	H	1.470958	0.165930	0.742089
H111	H	0.898944	0.146360	0.473521
H112	H	1.398944	0.646360	0.973521
H113	H	1.188456	0.268191	0.883422
H114	H	1.688456	0.768191	1.383422
F115	F	0.585444	0.139691	0.057499
F116	F	1.085444	0.639691	0.557499
F117	F	0.750670	0.143167	0.015592
F118	F	1.250670	0.643167	0.515592
H119	H	0.499256	0.137844	0.207599
H120	H	0.999256	0.637844	0.707599
F121	F	1.175581	0.285330	0.694076
F122	F	1.675581	0.785330	1.194076
F123	F	0.978077	0.148029	0.072299
F124	F	1.478077	0.648029	0.572299
H125	H	1.364919	-0.184734	0.340357
H126	H	1.864919	0.315266	0.840357
H127	H	1.374999	0.019517	0.755792
H128	H	1.874999	0.519517	1.255792
H129	H	1.375000	0.019513	0.929911
H130	H	1.875000	0.519513	1.429911
H131	H	1.454876	-0.261206	0.362792
H132	H	1.954876	0.238794	0.862792
F133	F	1.143548	-0.647654	0.285041
F134	F	1.643548	-0.147654	0.785041
F135	F	0.812760	0.144541	0.623605
F136	F	1.312760	0.644541	1.123605
H137	H	0.599139	0.139996	0.549534
H138	H	1.099139	0.639996	1.049534
H139	H	1.592491	-0.378234	0.397112
H140	H	2.092491	0.121766	0.897112
F141	F	0.986949	-0.514500	0.246085
F142	F	1.486949	-0.014500	0.746085
F143	F	1.011342	-0.126249	0.252178
F144	F	1.511342	0.373751	0.752178
