data_functionalizedCrystal
_audit_creation_method	'MofGen! by Chris Wilmer'
_symmetry_space_group_name_H-M	'P1'
_symmetry_Int_Tables_number	1
_symmetry_cell_setting	triclinic
loop_
_symmetry_equiv_pos_as_xyz
  x,y,z
_cell_length_a	15.944551
_cell_length_b	15.944551
_cell_length_c	13.330367
_cell_angle_alpha	90.002415
_cell_angle_beta	89.995989
_cell_angle_gamma	83.498738
loop_
_atom_site_label
_atom_site_type_symbol
_atom_site_fract_x
_atom_site_fract_y
_atom_site_fract_z
O1	O	0.108320	1.114528	0.083321
O2	O	0.121676	0.869979	0.083346
O3	O	-0.007277	0.998932	0.083324
O4	O	0.237273	0.985576	0.083343
O5	O	-0.007256	0.998912	-0.083523
O6	O	0.121697	0.869959	-0.083501
O7	O	0.108340	1.114509	-0.083526
Cu8	Cu	0.115020	0.992232	-0.098748
Cu9	Cu	0.114996	0.992255	0.098568
O10	O	0.237293	0.985556	-0.083504
C11	C	0.121132	0.838675	-0.000074
C12	C	0.119470	0.745429	-0.000065
C13	C	0.035565	0.530572	-0.000091
C14	C	0.074517	0.469562	0.082177
C15	C	0.116462	0.574703	-0.000077
C16	C	0.074557	0.469565	-0.082322
C17	C	0.113551	0.409790	-0.000093
C18	C	0.155437	0.514921	0.082259
C19	C	0.155465	0.514930	-0.082314
C20	C	0.194476	0.453937	-0.000026
C21	C	0.118137	0.669705	-0.000067
C22	C	0.111883	0.314789	-0.000096
C23	C	-0.038561	0.998367	-0.000100
C24	C	-0.131807	0.996705	-0.000100
C25	C	-0.346663	0.912801	-0.000078
C26	C	-0.407670	0.951753	-0.082347
C27	C	-0.302533	0.993698	-0.000092
C28	C	-0.407674	0.951792	0.082151
C29	C	-0.467445	0.990787	-0.000080
C30	C	-0.362311	1.032673	-0.082430
C31	C	-0.362309	1.032700	0.082142
C32	C	-0.423298	1.071711	-0.000148
C33	C	-0.207530	0.995372	-0.000100
C34	C	-0.562446	0.989119	-0.000079
C35	C	0.268577	0.986120	-0.000078
C36	C	0.361823	0.987782	-0.000071
C37	C	0.108885	1.145813	-0.000103
C38	C	0.110547	1.239059	-0.000106
N39	N	0.115037	0.992222	-0.237529
C40	C	0.165958	1.043210	-0.710143
C41	C	0.064000	0.941326	-0.710130
C42	C	0.064013	0.941314	-0.605111
C43	C	0.114998	0.992251	-0.552604
C44	C	0.165971	1.043201	-0.605115
C45	C	0.013035	0.890371	-0.552592
C46	C	0.013046	0.890358	-0.447568
C47	C	0.064036	0.941291	-0.395058
C48	C	0.115011	0.992243	-0.447576
C49	C	0.165997	1.043180	-0.395069
C50	C	0.216977	1.094128	-0.447584
C51	C	0.216961	1.094135	-0.552606
C52	C	0.064052	0.941284	-0.290037
C53	C	0.166009	1.043172	-0.290040
N54	N	0.114973	0.992272	0.237350
H55	H	-0.313356	0.845652	-0.000153
N56	N	0.218075	1.095219	-0.236407
N57	N	0.185311	1.150749	-0.177795
H58	H	0.222080	1.187509	-0.139915
N59	N	-0.464905	1.156017	-0.000187
N60	N	-0.452344	1.205282	0.069772
H61	H	-0.481731	1.264822	0.069742
H62	H	0.258485	1.135605	-0.404819
H63	H	0.261683	0.420779	0.000025
H64	H	0.258465	1.135616	-0.595373
H65	H	-0.427760	0.917573	0.151708
H66	H	-0.031573	0.563905	0.000005
N67	N	-0.432881	0.908813	-0.169588
N68	N	-0.405116	0.833316	-0.184237
H69	H	-0.422918	0.802984	-0.245847
H70	H	-0.342312	1.066852	-0.152059
H71	H	-0.342187	1.066895	0.151692
N72	N	0.218031	1.095239	-0.763795
N73	N	0.218021	1.095239	-0.857564
H74	H	0.254798	1.131985	-0.895458
N75	N	0.011937	0.889286	-0.763763
N76	N	0.021951	0.811009	-0.752056
H77	H	-0.014818	0.774251	-0.789940
H78	H	-0.028481	0.848908	-0.595352
N79	N	-0.039005	0.838299	-0.393927
N80	N	-0.006222	0.782761	-0.335349
H81	H	-0.042979	0.745991	-0.297463
N82	N	0.011961	0.889280	-0.236383
N83	N	-0.066315	0.899365	-0.248088
H84	H	-0.103111	0.862641	-0.210191
N85	N	0.031571	0.444344	0.169411
N86	N	-0.032762	0.406887	0.160269
H87	H	-0.063099	0.389082	0.221875
N88	N	0.198341	0.539986	0.169595
N89	N	0.263068	0.576856	0.160609
H90	H	0.293374	0.594556	0.222288
N91	N	0.198359	0.540170	-0.169569
N92	N	0.170798	0.525886	-0.254928
H93	H	0.201087	0.543713	-0.316560
H94	H	0.040334	0.449470	-0.151870
