data_functionalizedCrystal
_audit_creation_method	'MofGen! by Chris Wilmer'
_symmetry_space_group_name_H-M	'P1'
_symmetry_Int_Tables_number	1
_symmetry_cell_setting	triclinic
loop_
_symmetry_equiv_pos_as_xyz
  x,y,z
_cell_length_a	16.959454
_cell_length_b	12.827893
_cell_length_c	12.827885
_cell_angle_alpha	89.980538
_cell_angle_beta	90.024624
_cell_angle_gamma	89.999040
loop_
_atom_site_label
_atom_site_type_symbol
_atom_site_fract_x
_atom_site_fract_y
_atom_site_fract_z
Zn1	Zn	0.314644	1.597776	-0.590886
Zn2	Zn	0.446843	1.597714	-0.416162
Zn3	Zn	0.314682	1.423017	-0.416160
Zn4	Zn	0.446784	1.423047	-0.590862
O5	O	0.380738	1.510388	-0.503518
O6	O	0.332189	1.744004	-0.567720
O7	O	0.429352	1.574501	-0.269926
O8	O	0.204066	1.446213	-0.439347
O9	O	0.429315	1.743958	-0.439351
O10	O	0.204038	1.574608	-0.567717
O11	O	0.332254	1.446152	-0.269924
O12	O	0.332197	1.276785	-0.439323
O13	O	0.429215	1.446264	-0.737102
O14	O	0.429252	1.276807	-0.567677
O15	O	0.332132	1.574637	-0.737119
O16	O	0.557446	1.574530	-0.439328
O17	O	0.557403	1.446203	-0.567679
C18	C	0.380723	1.238878	-0.503498
C19	C	0.380736	1.122725	-0.503514
C20	C	0.174570	1.510414	-0.503534
C21	C	0.086714	1.510425	-0.503542
C22	C	0.428836	1.070979	-0.566929
C23	C	0.428850	0.950929	-0.566948
C24	C	-0.284779	1.577332	-0.570396
C25	C	-0.284745	1.443633	-0.436722
C26	C	-0.202199	1.443618	-0.436719
C27	C	-0.160939	1.510462	-0.503553
C28	C	-0.202226	1.577321	-0.570392
C29	C	-0.160907	1.376768	-0.369874
C30	C	-0.078356	1.376751	-0.369866
C31	C	-0.037095	1.443590	-0.436707
C32	C	-0.078386	1.510451	-0.503549
C33	C	-0.037126	1.577295	-0.570384
C34	C	-0.078416	1.644151	-0.637232
C35	C	-0.160965	1.644160	-0.637233
C36	C	0.045454	1.443581	-0.436707
C37	C	0.045427	1.577284	-0.570380
C38	C	0.586105	1.510391	-0.503524
C39	C	0.673961	1.510488	-0.503561
C40	C	0.380662	1.510460	-0.776088
C41	C	0.380630	1.510491	-0.892241
C42	C	0.380754	1.782958	-0.503538
C43	C	0.380761	1.899112	-0.503547
C44	C	0.332574	1.447000	-0.944025
C45	C	0.332539	1.447030	-1.064075
C46	C	0.380757	1.510377	-0.232008
C47	C	0.380567	1.510548	-0.115855
H48	H	0.470004	1.115554	-0.621211
C49	C	-0.033020	1.717679	-0.710746
N50	N	0.001176	1.773058	-0.766116
C51	C	-0.032944	1.303200	-0.296341
N52	N	0.001260	1.247797	-0.240964
C53	C	0.276954	1.373595	-1.124234
N54	N	0.235086	1.318280	-1.169549
C55	C	-0.330133	1.370110	-0.363208
N56	N	-0.364323	1.314726	-0.307837
C57	C	0.436153	1.583988	-1.055703
N58	N	0.478023	1.639301	-1.010389
H59	H	0.421748	1.564869	-0.936784
H60	H	0.339581	0.943606	-0.449248
C61	C	0.484486	0.890813	-0.640297
N62	N	0.526392	0.845532	-0.695547
H63	H	0.339562	1.078151	-0.449240
H64	H	0.079015	1.631709	-0.624814
H65	H	-0.194588	1.698593	-0.691657
C66	C	0.277017	1.373542	-0.883855
N67	N	0.235167	1.318216	-0.838536
C68	C	0.090869	1.370044	-0.363178
N69	N	0.125075	1.314650	-0.307794
H70	H	-0.318400	1.631763	-0.624826
C71	C	-0.206297	1.303245	-0.296361
N72	N	-0.240489	1.247862	-0.240991
