data_functionalizedCrystal
_audit_creation_method	'MofGen! by Chris Wilmer'
_symmetry_space_group_name_H-M	'P1'
_symmetry_Int_Tables_number	1
_symmetry_cell_setting	triclinic
loop_
_symmetry_equiv_pos_as_xyz
  x,y,z
_cell_length_a	14.044220
_cell_length_b	17.038272
_cell_length_c	13.101039
_cell_angle_alpha	93.604737
_cell_angle_beta	86.340132
_cell_angle_gamma	92.150217
loop_
_atom_site_label
_atom_site_type_symbol
_atom_site_fract_x
_atom_site_fract_y
_atom_site_fract_z
O1	O	1.277881	0.185592	-0.085106
O2	O	1.777881	0.685592	0.414894
O3	O	1.001361	0.178751	-0.085132
O4	O	1.501361	0.678751	0.414868
O5	O	1.137977	0.068241	-0.085111
O6	O	1.637977	0.568241	0.414889
O7	O	1.141265	0.296101	-0.085127
O8	O	1.641265	0.796101	0.414873
O9	O	1.128176	0.076185	0.085317
O10	O	1.628176	0.576185	0.585317
O11	O	0.991560	0.186694	0.085296
O12	O	1.491560	0.686694	0.585296
O13	O	1.268080	0.193535	0.085322
O14	O	1.768080	0.693535	0.585322
Zn15	Zn	1.128264	0.191376	0.112368
Zn16	Zn	1.628264	0.691376	0.612368
Zn17	Zn	1.141177	0.180910	-0.112178
Zn18	Zn	1.641177	0.680910	0.387822
O19	O	1.131464	0.304045	0.085301
O20	O	1.631464	0.804045	0.585301
C21	C	0.960905	0.179728	0.000079
C22	C	1.460905	0.679728	0.500079
C23	C	0.854960	0.170796	0.000069
C24	C	1.354960	0.670796	0.500069
C25	C	0.660980	0.154468	0.000091
C26	C	1.160980	0.654468	0.500091
C27	C	0.608455	0.217813	0.000090
C28	C	1.108455	0.717813	0.500090
C29	C	0.500518	0.208729	0.000102
C30	C	1.000518	0.708729	0.500102
C31	C	0.768927	0.163552	0.000079
C32	C	1.268927	0.663552	0.500079
C33	C	1.130087	0.042876	0.000103
C34	C	1.630087	0.542876	0.500103
C35	C	1.121168	-0.044541	0.000101
C36	C	1.621168	0.455459	0.500101
C37	C	1.203056	-0.088926	0.000110
C38	C	1.703056	0.411074	0.500110
C39	C	1.194670	-0.171064	0.000100
C40	C	1.694670	0.328936	0.500100
C41	C	1.104396	-0.208815	0.000088
C42	C	1.604396	0.291185	0.500088
C43	C	1.022502	-0.164424	0.000076
C44	C	1.522502	0.335576	0.500076
C45	C	1.030889	-0.082288	0.000079
C46	C	1.530889	0.417712	0.500079
C47	C	1.074767	-0.456646	0.000071
C48	C	1.574767	0.043354	0.500071
C49	C	1.066386	-0.538788	0.000071
C50	C	1.566386	-0.038788	0.500071
C51	C	1.238555	-0.545423	0.000093
C52	C	1.738555	-0.045423	0.500093
C53	C	1.246934	-0.463285	0.000102
C54	C	1.746934	0.036715	0.500102
C55	C	1.165040	-0.418901	0.000085
C56	C	1.665040	0.081099	0.500085
C57	C	1.095822	-0.292773	0.000080
C58	C	1.595822	0.207227	0.500080
C59	C	1.173615	-0.334945	0.000085
C60	C	1.673615	0.165055	0.500085
C61	C	1.308536	0.192558	0.000109
C62	C	1.808536	0.692558	0.500109
C63	C	1.414482	0.201490	0.000112
C64	C	1.914482	0.701490	0.500112
C65	C	1.139354	0.329410	0.000085
C66	C	1.639354	0.829410	0.500085
C67	C	1.148273	0.416827	0.000080
C68	C	1.648273	0.916827	0.500080
N69	N	1.119458	0.198518	0.265616
N70	N	1.619458	0.698518	0.765616
N71	N	1.149990	0.173762	-0.265426
N72	N	1.649990	0.673762	0.234574
C73	C	1.107478	0.208243	0.474656
C74	C	1.607478	0.708243	0.974656
C75	C	1.161967	0.164040	0.525540
C76	C	1.661967	0.664040	1.025540
C77	C	1.155301	0.169451	0.641858
C78	C	1.655301	0.669451	1.141858
C79	C	1.114143	0.202833	0.358328
C80	C	1.614143	0.702833	0.858328
H81	H	1.276567	-0.058196	0.000126
H82	H	1.776567	0.441804	0.500126
N83	N	0.656251	0.298691	0.000056
N84	N	1.156251	0.798691	0.500056
H85	H	0.632923	0.331181	0.063227
H86	H	1.132923	0.831181	0.563227
H87	H	0.727691	0.293741	0.000004
H88	H	1.227691	0.793741	0.500004
H89	H	1.213624	0.122133	0.481746
H90	H	1.713624	0.622133	0.981746
H91	H	1.055826	0.250148	0.518445
H92	H	1.555826	0.750148	1.018445
H93	H	0.624887	0.093419	0.000100
H94	H	1.124887	0.593419	0.500100
H95	H	1.261352	-0.207199	0.000109
H96	H	1.761352	0.292801	0.500109
N97	N	1.344309	-0.422582	0.000113
N98	N	1.844309	0.077418	0.500113
H99	H	1.384113	-0.441272	-0.063063
H100	H	1.884113	0.058728	0.436937
H101	H	1.337125	-0.363822	0.000154
H102	H	1.837125	0.136178	0.500154
N103	N	1.326873	-0.593299	0.000110
N104	N	1.826873	-0.093299	0.500110
H105	H	1.330866	-0.630466	-0.063069
H106	H	1.830866	-0.130466	0.436931
H107	H	1.385284	-0.556869	0.000157
H108	H	1.885284	-0.056869	0.500157
N109	N	0.969014	-0.579508	0.000057
N110	N	1.469014	-0.079508	0.500057
H111	H	0.918406	-0.538929	0.000043
H112	H	1.418406	-0.038929	0.500043
H113	H	0.965427	-0.616386	-0.063124
H114	H	1.465427	-0.116386	0.436876
N115	N	1.270981	-0.294234	0.000107
N116	N	1.770981	0.205766	0.500107
H117	H	1.281936	-0.263241	-0.063066
H118	H	1.781936	0.236759	0.436934
H119	H	1.274584	-0.257406	0.063331
H120	H	1.774584	0.242594	0.563331
N121	N	0.998453	-0.333487	0.000076
N122	N	1.498453	0.166513	0.500076
H123	H	0.994770	-0.370358	-0.063103
H124	H	1.494770	0.129642	0.436897
H125	H	0.987569	-0.364432	0.063295
H126	H	1.487569	0.135568	0.563295
N127	N	0.986442	-0.408782	0.000059
N128	N	1.486442	0.091218	0.500059
H129	H	0.950983	-0.424573	-0.063122
H130	H	1.450983	0.075427	0.436878
H131	H	0.943788	-0.418704	0.063275
H132	H	1.443788	0.081296	0.563275
N133	N	0.925133	-0.205137	0.000056
N134	N	1.425133	0.294863	0.500056
H135	H	0.932243	-0.263905	0.000059
H136	H	1.432243	0.236095	0.500059
H137	H	0.885374	-0.186387	0.063232
H138	H	1.385374	0.313613	0.563232
N139	N	0.942568	-0.034412	0.000064
N140	N	1.442568	0.465588	0.500064
H141	H	0.884106	-0.070789	0.000057
H142	H	1.384106	0.429211	0.500057
H143	H	0.938662	0.002755	0.063242
H144	H	1.438662	0.502755	0.563242
