data_functionalizedCrystal
_audit_creation_method	'MofGen! by Chris Wilmer'
_symmetry_space_group_name_H-M	'P1'
_symmetry_Int_Tables_number	1
_symmetry_cell_setting	triclinic
loop_
_symmetry_equiv_pos_as_xyz
  x,y,z
_cell_length_a	15.944551
_cell_length_b	15.944551
_cell_length_c	14.421503
_cell_angle_alpha	89.996660
_cell_angle_beta	89.996859
_cell_angle_gamma	96.501262
loop_
_atom_site_label
_atom_site_type_symbol
_atom_site_fract_x
_atom_site_fract_y
_atom_site_fract_z
O1	O	1.114529	-0.108320	-0.077017
O2	O	0.869980	-0.121677	-0.077040
O3	O	0.998933	0.007276	-0.077020
O4	O	0.985576	-0.237273	-0.077038
O5	O	0.998911	0.007257	0.077204
O6	O	0.869958	-0.121696	0.077183
O7	O	1.114508	-0.108340	0.077206
Cu8	Cu	0.992231	-0.115020	0.091277
Cu9	Cu	0.992256	-0.114997	-0.091110
O10	O	0.985555	-0.237293	0.077186
C11	C	0.838675	-0.121132	0.000069
C12	C	0.745429	-0.119470	0.000060
C13	C	0.998367	0.038561	0.000092
C14	C	0.996705	0.131807	0.000093
N15	N	0.992219	-0.115035	0.219558
C16	C	0.530572	-0.035565	0.000084
C17	C	0.469563	-0.074518	-0.075959
C18	C	0.574703	-0.116462	0.000071
C19	C	0.469564	-0.074556	0.076093
C20	C	0.409790	-0.113551	0.000086
C21	C	0.514922	-0.155437	-0.076035
C22	C	0.514929	-0.155464	0.076086
C23	C	0.453937	-0.194476	0.000024
C24	C	0.669705	-0.118137	0.000062
C25	C	0.314789	-0.111883	0.000089
C26	C	1.145813	-0.108885	0.000096
C27	C	1.239059	-0.110547	0.000098
C28	C	0.986120	-0.268577	0.000072
C29	C	0.987782	-0.361823	0.000066
C30	C	0.912801	0.346663	0.000072
C31	C	0.951753	0.407671	0.076117
C32	C	0.993698	0.302533	0.000085
C33	C	0.951793	0.407674	-0.075935
C34	C	0.990787	0.467445	0.000074
C35	C	1.032672	0.362312	0.076193
C36	C	1.032701	0.362308	-0.075927
C37	C	1.071711	0.423298	0.000136
C38	C	0.995372	0.207530	0.000092
C39	C	0.989119	0.562446	0.000073
N40	N	0.992275	-0.114975	-0.219392
C41	C	0.932581	-0.174636	0.469202
C42	C	1.008481	-0.190943	0.531011
C43	C	0.992240	-0.115015	0.408719
C44	C	0.916359	-0.098727	0.531005
C45	C	0.992253	-0.114997	0.591441
C46	C	1.068178	-0.131360	0.469167
C47	C	0.976007	-0.039111	0.469156
C48	C	1.051961	-0.055386	0.530936
C49	C	0.992231	-0.115027	0.303458
C50	C	0.992270	-0.114985	0.696700
H51	H	0.449461	-0.040294	-0.140243
H52	H	0.534918	-0.189620	-0.140394
H53	H	1.138919	0.456457	0.000186
O54	O	1.144761	-0.148014	0.437043
C55	C	1.161852	-0.227799	0.469335
H56	H	1.123301	-0.244813	0.534603
H57	H	1.231946	-0.225803	0.485973
H58	H	1.144133	-0.277296	0.413542
H59	H	0.420779	-0.261683	-0.000023
H60	H	0.845652	0.313356	0.000141
H61	H	1.102474	-0.004956	0.557872
H62	H	0.962240	0.025051	0.441965
H63	H	0.449469	-0.040333	0.140379
H64	H	0.852183	-0.084959	0.558170
O65	O	1.073526	0.338372	0.152882
C66	C	1.144063	0.298339	0.125756
H67	H	1.133969	0.272591	0.052371
H68	H	1.152156	0.244175	0.175369
H69	H	1.203099	0.345875	0.127592
O70	O	0.570282	0.044551	-0.000164
C71	C	0.547296	0.086907	-0.080477
H72	H	0.525303	0.038694	-0.136235
H73	H	0.604087	0.130108	-0.107016
H74	H	0.493911	0.126168	-0.063124
O75	O	1.024758	-0.267509	0.563544
C76	C	0.956597	-0.302548	0.618681
H77	H	0.920412	-0.249914	0.645781
H78	H	0.981618	-0.337824	0.679658
H79	H	0.912644	-0.348239	0.575193
H80	H	0.535052	-0.189660	0.140373
O81	O	1.073610	0.338409	-0.152591
C82	C	1.156908	0.378978	-0.153232
H83	H	1.160326	0.438740	-0.109360
H84	H	1.176358	0.396269	-0.227491
H85	H	1.201396	0.334733	-0.123367
O86	O	0.910791	0.431600	0.152738
C87	C	0.827048	0.392180	0.152474
H88	H	0.807564	0.373942	0.078475
H89	H	0.783221	0.437626	0.181195
H90	H	0.822641	0.333098	0.197540
H91	H	0.917575	0.427758	-0.140230
H92	H	0.882181	-0.225096	0.442096
