data_functionalizedCrystal
_audit_creation_method	'MofGen! by Chris Wilmer'
_symmetry_space_group_name_H-M	'P1'
_symmetry_Int_Tables_number	1
_symmetry_cell_setting	triclinic
loop_
_symmetry_equiv_pos_as_xyz
  x,y,z
_cell_length_a	10.654562
_cell_length_b	16.109304
_cell_length_c	9.130313
_cell_angle_alpha	89.996142
_cell_angle_beta	90.002303
_cell_angle_gamma	83.976371
loop_
_atom_site_label
_atom_site_type_symbol
_atom_site_fract_x
_atom_site_fract_y
_atom_site_fract_z
O1	O	1.666241	0.116818	0.121886
O2	O	1.300614	0.127932	0.121866
O3	O	1.493470	0.001404	0.121877
O4	O	1.473385	0.243346	0.121875
O5	O	1.493469	0.001413	-0.121721
O6	O	1.300613	0.127941	-0.121732
O7	O	1.666240	0.116826	-0.121713
Cu8	Cu	1.483427	0.122384	-0.143965
Cu9	Cu	1.483427	0.122374	0.144119
O10	O	1.473385	0.243354	-0.121724
C11	C	1.253827	0.127118	0.000065
C12	C	1.114418	0.124670	0.000058
C13	C	1.048902	0.123533	-0.132717
C14	C	0.917911	0.121239	-0.132692
C15	C	0.917962	0.121223	0.132893
C16	C	1.048952	0.123511	0.132867
C17	C	1.048871	0.123546	-0.286050
C18	C	0.917880	0.121252	-0.286026
C19	C	1.492655	-0.029571	0.000081
C20	C	1.490214	-0.121881	0.000091
C21	C	1.484575	-0.334257	0.132871
C22	C	1.482270	-0.420991	0.132870
C23	C	1.482276	-0.420978	-0.132715
C24	C	1.484572	-0.334245	-0.132712
C25	C	1.485728	-0.290887	0.000085
C26	C	1.481126	-0.464354	0.000081
C27	C	1.478627	-0.558395	0.000078
C28	C	1.488225	-0.196840	0.000088
C29	C	1.713027	0.117640	0.000092
C30	C	1.852436	0.120088	0.000108
C31	C	1.474199	0.274330	0.000075
C32	C	1.476640	0.366639	0.000075
N33	N	1.483436	0.122391	-0.346588
C34	C	1.398018	0.178376	-0.576620
C35	C	1.398018	0.178390	-0.423283
C36	C	1.568850	0.066370	-0.423237
C37	C	1.568843	0.066353	-0.576571
C38	C	1.299393	0.243052	-0.576646
C39	C	1.299393	0.243066	-0.423309
N40	N	1.483428	0.122361	0.346741
H41	H	0.864643	0.120280	0.241021
H42	H	1.329097	0.303428	-0.624235
H43	H	1.485503	-0.298932	-0.240849
H44	H	1.095909	0.066091	-0.344932
Cl45	Cl	1.486021	-0.279752	0.299816
H46	H	1.077624	0.184182	-0.333627
Cl47	Cl	1.480818	-0.475509	0.299808
Cl48	Cl	1.159012	0.211848	-0.349854
Cl49	Cl	0.873438	0.027725	-0.359796
Cl50	Cl	0.845206	0.209962	-0.376905
H51	H	1.203070	0.228808	-0.618246
Cl52	Cl	1.676202	-0.004079	-0.672918
Cl53	Cl	1.676223	-0.004037	-0.326821
Cl54	Cl	1.480823	-0.475491	-0.299651
H55	H	1.102292	0.124424	0.240984
Cl56	Cl	1.331210	0.341725	-0.359093
