data_functionalizedCrystal
_audit_creation_method	'MofGen! by Chris Wilmer'
_symmetry_space_group_name_H-M	'P1'
_symmetry_Int_Tables_number	1
_symmetry_cell_setting	triclinic
loop_
_symmetry_equiv_pos_as_xyz
  x,y,z
_cell_length_a	10.723023
_cell_length_b	11.792254
_cell_length_c	9.198806
_cell_angle_alpha	89.996642
_cell_angle_beta	89.996513
_cell_angle_gamma	84.333073
loop_
_atom_site_label
_atom_site_type_symbol
_atom_site_fract_x
_atom_site_fract_y
_atom_site_fract_z
O1	O	1.656775	0.159187	-0.120878
O2	O	2.156775	0.659187	0.379122
O3	O	1.293583	0.174426	-0.120885
O4	O	1.793583	0.674426	0.379115
O5	O	1.483984	0.001656	-0.120871
O6	O	1.983984	0.501656	0.379129
O7	O	1.466374	0.331957	-0.120892
O8	O	1.966374	0.831957	0.379108
O9	O	1.483969	0.001656	0.120914
O10	O	1.983969	0.501656	0.620914
O11	O	1.293568	0.174425	0.120900
O12	O	1.793568	0.674425	0.620900
O13	O	1.656760	0.159187	0.120907
O14	O	2.156760	0.659187	0.620907
Cu15	Cu	1.475162	0.166806	0.142980
Cu16	Cu	1.975162	0.666806	0.642980
Cu17	Cu	1.475180	0.166806	-0.142958
Cu18	Cu	1.975180	0.666806	0.357042
O19	O	1.466358	0.331956	0.120893
O20	O	1.966358	0.831956	0.620893
C21	C	1.247079	0.173317	0.000007
C22	C	1.747079	0.673317	0.500007
C23	C	1.108533	0.169999	0.000005
C24	C	1.608533	0.669999	0.500005
C25	C	1.046757	0.168520	0.125256
C26	C	1.546757	0.668520	0.625256
C27	C	0.903563	0.165091	0.125257
C28	C	1.403563	0.665091	0.625257
C29	C	1.482868	-0.040637	0.000021
C30	C	1.982868	0.459363	0.500021
C31	C	1.479547	-0.166658	0.000020
C32	C	1.979547	0.333342	0.500020
C33	C	1.476849	-0.269000	0.000014
C34	C	1.976849	0.231000	0.500014
C35	C	1.473476	-0.397394	0.000001
C36	C	1.973476	0.102606	0.500001
C37	C	1.703264	0.160296	0.000012
C38	C	2.203264	0.660296	0.500012
C39	C	1.841810	0.163613	0.000004
C40	C	2.341810	0.663613	0.500004
C41	C	1.467475	0.374250	-0.000002
C42	C	1.967475	0.874250	0.499998
C43	C	1.470796	0.500270	-0.000010
C44	C	1.970796	1.000270	0.499990
N45	N	1.475159	0.166805	0.344094
N46	N	1.975159	0.666805	0.844094
N47	N	1.475194	0.166799	-0.344072
N48	N	1.975194	0.666799	0.155928
C49	C	1.555104	0.093944	0.416297
C50	C	2.055104	0.593944	0.916297
C51	C	1.555123	0.093940	0.583709
C52	C	2.055123	0.593940	1.083709
H53	H	1.099880	0.169786	0.232487
H54	H	1.599880	0.669786	0.732487
C55	C	1.036787	0.168288	-0.144865
C56	C	1.536787	0.668288	0.355135
H57	H	1.094114	0.169655	-0.223446
H58	H	1.594114	0.669655	0.276554
H59	H	0.976934	0.233145	-0.150267
H60	H	1.476934	0.733145	0.349733
H61	H	0.995067	0.100991	-0.150268
H62	H	1.495067	0.600991	0.349732
H63	H	0.850436	0.163826	0.232488
H64	H	1.350436	0.663826	0.732488
H65	H	1.623530	0.031563	0.354176
H66	H	2.123530	0.531563	0.854176
H67	H	0.894927	0.164892	-0.107233
H68	H	1.394927	0.664892	0.392767
C69	C	1.647586	0.009665	0.667580
C70	C	2.147586	0.509665	1.167580
H71	H	1.635462	0.020712	0.769096
H72	H	2.135462	0.520712	1.269096
H73	H	1.731030	0.022445	0.642688
H74	H	2.231030	0.522445	1.142688
H75	H	1.633289	-0.066163	0.642714
H76	H	2.133289	0.433837	1.142714
C77	C	1.382725	0.251078	0.572074
C78	C	1.882725	0.751078	1.072074
H79	H	1.332587	0.296793	0.639100
H80	H	1.832587	0.796793	1.139100
H81	H	1.330407	0.209921	0.512705
H82	H	1.830407	0.709921	1.012705
H83	H	1.428143	0.298534	0.512690
H84	H	1.928143	0.798534	1.012690
H85	H	1.406725	0.229177	0.406218
H86	H	1.906725	0.729177	0.906218
