data_functionalizedCrystal
_audit_creation_method	'MofGen! by Chris Wilmer'
_symmetry_space_group_name_H-M	'P1'
_symmetry_Int_Tables_number	1
_symmetry_cell_setting	triclinic
loop_
_symmetry_equiv_pos_as_xyz
  x,y,z
_cell_length_a	10.654550
_cell_length_b	10.654550
_cell_length_c	15.021413
_cell_angle_alpha	89.997125
_cell_angle_beta	90.003247
_cell_angle_gamma	95.515028
loop_
_atom_site_label
_atom_site_type_symbol
_atom_site_fract_x
_atom_site_fract_y
_atom_site_fract_z
O1	O	-1.667822	0.176389	0.074102
O2	O	-1.302343	0.193196	0.074087
O3	O	-1.493485	0.002053	0.074093
O4	O	-1.476680	0.367532	0.074097
O5	O	-1.493508	0.002066	-0.073972
O6	O	-1.302366	0.193208	-0.073977
O7	O	-1.667844	0.176402	-0.073962
Zn8	Zn	-1.485109	0.184807	-0.097478
Zn9	Zn	-1.485079	0.184791	0.097603
O10	O	-1.476702	0.367544	-0.073967
C11	C	-1.255557	0.191968	0.000053
C12	C	-1.116113	0.188276	0.000048
C13	C	-1.492263	-0.044739	0.000062
C14	C	-1.488571	-0.184182	0.000065
C15	C	-1.714631	0.177630	0.000074
C16	C	-1.854074	0.181321	0.000085
C17	C	-1.477925	0.414336	0.000065
C18	C	-1.481617	0.553779	0.000068
C19	C	-1.036628	0.300817	0.000062
C20	C	-0.905607	0.297341	0.000078
C21	C	-0.933570	0.068771	0.000068
C22	C	-1.064588	0.072249	0.000046
C23	C	-1.020482	0.432780	0.000071
C24	C	-0.889462	0.429304	0.000087
N25	N	-1.485138	0.184817	-0.230616
C26	C	-1.483373	0.619287	-0.080643
C27	C	-1.486846	0.750308	-0.080645
C28	C	-1.486810	0.750302	0.080783
C29	C	-1.483329	0.619284	0.080783
C30	C	-1.483399	0.619291	-0.173843
C31	C	-1.486871	0.750312	-0.173844
C32	C	-1.573540	0.096413	-0.470273
C33	C	-1.459843	0.071033	-0.529606
C34	C	-1.485109	0.184801	-0.412222
C35	C	-1.598777	0.210106	-0.529630
C36	C	-1.485091	0.184783	-0.587646
C37	C	-1.371354	0.159364	-0.470250
C38	C	-1.510363	0.298488	-0.470269
C39	C	-1.396585	0.273156	-0.529576
C40	C	-1.485121	0.184808	-0.311165
C41	C	-1.485066	0.184776	-0.688702
N42	N	-1.485059	0.184771	0.230741
H43	H	-1.129302	-0.019393	0.000022
H44	H	-1.275196	0.137844	-0.444276
H45	H	-1.049823	0.484396	-0.061896
H46	H	-1.572845	0.567577	-0.202755
C47	C	-0.877383	-0.057070	0.000118
C48	C	-0.745629	-0.036031	0.000159
C49	C	-0.693830	-0.151929	0.000218
H50	H	-0.904449	-0.103549	-0.051505
H51	H	-0.904539	-0.103474	0.051768
H52	H	-0.718484	0.010353	-0.051486
H53	H	-0.718528	0.010428	0.051778
H54	H	-0.720987	-0.198333	0.051868
H55	H	-0.720906	-0.198399	-0.051406
H56	H	-0.604431	-0.137670	0.000254
H57	H	-1.575558	0.775137	-0.209622
C58	C	-1.539171	0.426597	-0.435527
C59	C	-1.658360	0.452610	-0.465543
C60	C	-1.684963	0.570603	-0.433545
H61	H	-1.477289	0.489672	-0.456694
H62	H	-1.538271	0.425905	-0.372285
H63	H	-1.659251	0.453311	-0.528771
H64	H	-1.720268	0.389565	-0.444378
H65	H	-1.684062	0.569911	-0.370304
H66	H	-1.623073	0.633668	-0.454714
H67	H	-1.765839	0.588263	-0.453899
H68	H	-1.321712	0.347899	-0.555450
C69	C	-1.367475	0.819119	-0.212317
C70	C	-1.263525	0.791027	-0.161595
C71	C	-1.153516	0.854376	-0.197013
H72	H	-1.373805	0.907422	-0.210997
H73	H	-1.357023	0.792824	-0.272071
H74	H	-1.273974	0.817330	-0.101856
H75	H	-1.257154	0.702736	-0.162911
H76	H	-1.143065	0.828081	-0.256768
H77	H	-1.159860	0.942676	-0.195691
H78	H	-1.082972	0.835315	-0.162609
H79	H	-1.438466	-0.025117	-0.555671
C80	C	-1.481155	0.548138	0.168391
C81	C	-1.371283	0.486143	0.173115
C82	C	-1.369231	0.420610	0.253817
H83	H	-1.552818	0.487992	0.171846
H84	H	-1.482609	0.605895	0.216479
H85	H	-1.369841	0.428391	0.125040
H86	H	-1.299602	0.546260	0.169676
H87	H	-1.370684	0.478368	0.301905
H88	H	-1.440898	0.360471	0.257264
H89	H	-1.294678	0.378549	0.257037
C90	C	-1.067772	0.488898	0.085350
C91	C	-0.965548	0.522519	0.141871
C92	C	-1.009062	0.574228	0.220434
H93	H	-1.125355	0.428449	0.114140
H94	H	-1.109033	0.561639	0.071510
H95	H	-0.924307	0.449787	0.155713
H96	H	-0.907955	0.582979	0.113110
H97	H	-1.050323	0.646969	0.206594
H98	H	-1.066646	0.513773	0.249215
H99	H	-0.939710	0.597057	0.258790
C100	C	-0.828792	0.482591	-0.085188
C101	C	-0.922154	0.521427	-0.141702
C102	C	-0.866310	0.570531	-0.220259
H103	H	-0.786324	0.419498	-0.113988
H104	H	-0.770058	0.552672	-0.071339
H105	H	-0.980867	0.451354	-0.155553
H106	H	-0.964629	0.584532	-0.112931
H107	H	-0.807575	0.640612	-0.206410
H108	H	-0.823843	0.507432	-0.249050
H109	H	-0.929645	0.596897	-0.258610
C110	C	-1.488465	0.821601	0.168352
C111	C	-1.382608	0.910023	0.173044
C112	C	-1.384091	0.975731	0.253697
H113	H	-1.486855	0.763963	0.216491
H114	H	-1.562887	0.863853	0.171732
H115	H	-1.308205	0.867772	0.169672
H116	H	-1.384196	0.967686	0.124923
H117	H	-1.458514	1.017983	0.257078
H118	H	-1.382484	0.918083	0.301830
H119	H	-1.312275	1.035740	0.256888
H120	H	-0.847720	0.479020	0.062057
H121	H	-1.394731	0.594472	-0.209635
C122	C	-1.672991	-0.003496	-0.435591
C123	C	-1.645935	-0.122337	-0.465640
C124	C	-1.737504	-0.214405	-0.433697
H125	H	-1.753635	0.013521	-0.456773
H126	H	-1.672800	-0.002366	-0.372349
H127	H	-1.646139	-0.123465	-0.528868
H128	H	-1.565307	-0.139395	-0.444460
H129	H	-1.737312	-0.213275	-0.370455
H130	H	-1.818142	-0.197376	-0.454882
H131	H	-1.719152	-0.295050	-0.454074
C132	C	-1.727089	0.238528	-0.564245
C133	C	-1.819307	0.145737	-0.534158
C134	C	-1.937529	0.171893	-0.565995
H135	H	-1.726162	0.239072	-0.627476
H136	H	-1.745666	0.318669	-0.543003
H137	H	-1.800734	0.065617	-0.555405
H138	H	-1.820274	0.145178	-0.470930
H139	H	-1.956107	0.252034	-0.544753
H140	H	-1.936589	0.172438	-0.629226
H141	H	-2.000115	0.108946	-0.545580
