data_functionalizedCrystal
_audit_creation_method	'MofGen! by Chris Wilmer'
_symmetry_space_group_name_H-M	'P1'
_symmetry_Int_Tables_number	1
_symmetry_cell_setting	triclinic
loop_
_symmetry_equiv_pos_as_xyz
  x,y,z
_cell_length_a	16.109302
_cell_length_b	15.944493
_cell_length_c	15.021413
_cell_angle_alpha	89.997322
_cell_angle_beta	89.993046
_cell_angle_gamma	83.468412
loop_
_atom_site_label
_atom_site_type_symbol
_atom_site_fract_x
_atom_site_fract_y
_atom_site_fract_z
O1	O	1.103144	0.107978	-0.074060
O2	O	0.861084	0.121414	-0.074052
O3	O	0.988749	-0.007585	-0.074064
O4	O	0.975479	0.236976	-0.074048
O5	O	0.988738	-0.007598	0.074001
O6	O	0.861073	0.121401	0.074012
O7	O	1.103133	0.107965	0.074004
Zn8	Zn	0.982101	0.114680	0.097517
Zn9	Zn	0.982116	0.114698	-0.097564
O10	O	0.975468	0.236963	0.074016
C11	C	0.830103	0.120863	-0.000019
C12	C	0.737808	0.119231	-0.000016
C13	C	0.525461	0.115450	0.080685
C14	C	0.438740	0.113907	0.080681
C15	C	0.438763	0.113926	-0.080746
C16	C	0.525482	0.115463	-0.080742
C17	C	0.568828	0.116229	-0.000024
C18	C	0.395389	0.113150	-0.000031
C19	C	0.301363	0.111477	-0.000036
C20	C	0.662861	0.117900	-0.000020
C21	C	0.988201	-0.038886	-0.000035
C22	C	0.986575	-0.132134	-0.000047
C23	C	1.061722	-0.367918	-0.000032
C24	C	1.021204	-0.418467	-0.073034
C25	C	0.983562	-0.302854	-0.000036
C26	C	1.021175	-0.418456	0.072946
C27	C	0.980658	-0.467763	-0.000021
C28	C	0.943065	-0.352174	-0.073097
C29	C	0.943047	-0.352160	0.072948
C30	C	0.902472	-0.402675	-0.000071
C31	C	0.985238	-0.207855	-0.000045
C32	C	0.978976	-0.562759	-0.000018
C33	C	1.134114	0.108516	-0.000031
C34	C	1.226409	0.110148	-0.000039
C35	C	0.976016	0.268264	-0.000014
C36	C	0.977642	0.361512	-0.000009
N37	N	0.982097	0.114668	0.230654
N38	N	0.982127	0.114704	-0.230702
C39	C	1.040688	0.054546	0.529640
C40	C	1.057486	0.130213	0.470277
C41	C	0.982117	0.114694	0.587691
C42	C	0.965348	0.039016	0.470312
C43	C	0.982109	0.114677	0.412267
C44	C	0.998953	0.190398	0.529635
C45	C	0.906782	0.099152	0.529675
C46	C	0.923549	0.174874	0.470339
C47	C	0.982123	0.114702	0.688748
C48	C	0.982102	0.114677	0.311212
H49	H	0.403460	0.113303	-0.146464
H50	H	1.129047	-0.352312	-0.000108
C51	C	0.391530	0.113190	0.168242
C52	C	0.332357	0.184515	0.172954
C53	C	0.288843	0.183872	0.253599
H54	H	0.429665	0.113906	0.216388
H55	H	0.364002	0.063657	0.171596
H56	H	0.359883	0.234035	0.169609
H57	H	0.294204	0.183814	0.124827
H58	H	0.261316	0.134339	0.256953
H59	H	0.326985	0.184586	0.301739
H60	H	0.248685	0.232261	0.256804
H61	H	0.910063	-0.323194	0.134671
H62	H	0.560794	0.116094	-0.146469
H63	H	1.090256	0.003745	0.555677
C64	C	0.899024	-0.313889	-0.155520
C65	C	0.870114	-0.378000	-0.206658
C66	C	0.829534	-0.342762	-0.282585
H67	H	0.937023	-0.285778	-0.189748
H68	H	0.853093	-0.274615	-0.138103
H69	H	0.916039	-0.417259	-0.224076
H70	H	0.832105	-0.406116	-0.172457
H71	H	0.783603	-0.303487	-0.265168
H72	H	0.867538	-0.314651	-0.316805
H73	H	0.809908	-0.386254	-0.317287
C74	C	0.857600	0.242882	0.435879
C75	C	0.875547	0.321915	0.466082
C76	C	0.814824	0.384586	0.434344
H77	H	0.804189	0.232419	0.457096
H78	H	0.857656	0.242256	0.372635
H79	H	0.875482	0.322540	0.529313
H80	H	0.928946	0.332406	0.444867
H81	H	0.814880	0.383960	0.371100
H82	H	0.761418	0.374114	0.455564
H83	H	0.826997	0.438217	0.454825
H84	H	1.054216	-0.447418	-0.134754
C85	C	0.812692	-0.423449	-0.000072
C86	C	0.812098	-0.511189	0.000677
C87	C	0.729411	-0.530359	0.000683
H88	H	0.784979	-0.400611	-0.051951
H89	H	0.784719	-0.399784	0.051318
H90	H	0.840059	-0.534844	-0.050708
H91	H	0.839795	-0.534047	0.052552
H92	H	0.701438	-0.506694	0.052074
H93	H	0.701704	-0.507515	-0.051197
H94	H	0.728997	-0.589891	0.001200
H95	H	1.054194	-0.447403	0.134659
C96	C	1.142495	0.147574	0.435530
C97	C	1.203581	0.084419	0.465551
C98	C	1.281900	0.100372	0.433554
H99	H	1.154923	0.200880	0.456694
H100	H	1.141761	0.147916	0.372288
H101	H	1.204317	0.084086	0.528779
H102	H	1.191180	0.031107	0.444389
H103	H	1.281166	0.100713	0.370312
H104	H	1.294320	0.153679	0.454720
H105	H	1.323355	0.057520	0.453912
C106	C	1.018015	0.275666	0.564401
C107	C	1.017862	0.274658	0.657603
C108	C	1.035442	0.353181	0.689662
H109	H	0.976694	0.318483	0.543723
H110	H	1.071379	0.286792	0.543613
H111	H	0.964505	0.263542	0.678382
H112	H	1.059183	0.231858	0.678304
H113	H	1.088806	0.364306	0.668873
H114	H	0.994118	0.395991	0.668978
H115	H	1.035347	0.352505	0.752902
H116	H	0.843095	0.085984	0.555785
C117	C	0.946552	-0.046390	0.435688
C118	C	1.008062	-0.109104	0.465754
C119	C	0.990776	-0.187793	0.433889
H120	H	0.946199	-0.045740	0.372457
H121	H	0.893454	-0.057885	0.456925
H122	H	1.061146	-0.097612	0.444513
H123	H	1.008424	-0.109781	0.528982
H124	H	0.937678	-0.199287	0.455126
H125	H	0.990423	-0.187133	0.370659
H126	H	1.032503	-0.230354	0.454291
H127	H	0.560750	0.116074	0.146410
