data_functionalizedCrystal
_audit_creation_method	'MofGen! by Chris Wilmer'
_symmetry_space_group_name_H-M	'P1'
_symmetry_Int_Tables_number	1
_symmetry_cell_setting	triclinic
loop_
_symmetry_equiv_pos_as_xyz
  x,y,z
_cell_length_a	8.634740
_cell_length_b	13.262508
_cell_length_c	7.088929
_cell_angle_alpha	99.547107
_cell_angle_beta	97.174953
_cell_angle_gamma	92.192749
loop_
_atom_site_label
_atom_site_type_symbol
_atom_site_fract_x
_atom_site_fract_y
_atom_site_fract_z
O1	O	2.050087	0.341349	0.018527
O2	O	1.599513	0.313474	0.004027
O3	O	1.828510	0.180193	-0.065269
O4	O	1.821090	0.474629	0.087823
O5	O	1.859111	0.162334	0.243421
O6	O	1.630114	0.295615	0.312716
O7	O	2.080688	0.323490	0.327217
Cu8	Cu	1.858195	0.307922	0.348152
Cu9	Cu	1.822006	0.329042	-0.016909
O10	O	1.851691	0.456770	0.396512
C11	C	1.556996	0.298230	0.155087
C12	C	1.384717	0.279402	0.145295
C13	C	1.840580	0.133178	0.069269
C14	C	1.830937	0.019694	0.010250
C15	C	1.870468	-0.339156	0.516974
C16	C	1.879517	-0.232531	0.572427
C17	C	1.867373	-0.169470	0.431888
C18	C	1.846178	-0.213043	0.235886
C19	C	1.837116	-0.319678	0.180428
C20	C	1.834021	-0.149992	0.095341
C21	C	1.812826	-0.193565	-0.100661
C22	C	1.803767	-0.300190	-0.156110
C23	C	1.815911	-0.363251	-0.015570
C24	C	1.843083	-0.043358	0.150799
C25	C	1.809731	-0.023880	-0.185748
C26	C	1.800682	-0.130504	-0.241200
C27	C	2.123205	0.338734	0.176152
C28	C	2.295482	0.357563	0.185932
C29	C	1.839620	0.503786	0.261970
C30	C	1.849263	0.617271	0.320977
N31	N	1.883659	0.293067	0.604917
N32	N	1.796554	0.343889	-0.273678
H33	H	1.860326	-0.007891	0.310385
H34	H	1.874739	-0.082652	0.477050
O35	O	1.688653	0.406642	0.661768
C36	C	1.538785	0.372418	0.692736
H37	H	1.550510	0.325032	0.813483
H38	H	1.467655	0.441272	0.735193
H39	H	1.477001	0.323279	0.554577
H40	H	1.329313	0.198083	0.102963
O41	O	1.361603	0.454590	0.236035
C42	C	1.438658	0.479435	0.084295
H43	H	1.386125	0.428907	-0.057074
H44	H	1.423750	0.563308	0.072615
H45	H	1.568404	0.466184	0.114642
O46	O	1.900321	-0.190079	0.762745
C47	C	2.040136	-0.127437	0.805704
H48	H	2.071536	-0.102493	0.668177
H49	H	2.023530	-0.056925	0.915720
H50	H	2.138399	-0.172238	0.867951
O51	O	1.882490	-0.400300	0.653659
C52	C	2.028422	-0.378628	0.770370
H53	H	2.074792	-0.297917	0.763064
H54	H	2.013947	-0.384243	0.926018
H55	H	2.114530	-0.436196	0.716407
O56	O	1.782980	-0.342394	-0.346567
C57	C	1.641483	-0.311999	-0.436223
H58	H	1.608256	-0.237878	-0.348385
H59	H	1.656602	-0.299077	-0.588063
H60	H	1.545175	-0.374463	-0.444719
O61	O	1.779842	-0.172732	-0.431646
C62	C	1.638319	-0.142340	-0.521243
H63	H	1.605139	-0.068199	-0.433425
H64	H	1.653373	-0.129455	-0.673123
H65	H	1.542009	-0.204790	-0.529634
O66	O	1.991276	0.230101	0.669371
C67	C	1.955293	0.129428	0.568297
H68	H	1.881614	0.131848	0.424182
H69	H	2.068210	0.090905	0.541600
H70	H	1.886961	0.084123	0.657374
H71	H	1.799831	0.027465	-0.300187
H72	H	1.808552	-0.450074	-0.060710
