data_functionalizedCrystal
_audit_creation_method	'MofGen! by Chris Wilmer'
_symmetry_space_group_name_H-M	'P1'
_symmetry_Int_Tables_number	1
_symmetry_cell_setting	triclinic
loop_
_symmetry_equiv_pos_as_xyz
  x,y,z
_cell_length_a	16.109301
_cell_length_b	17.038272
_cell_length_c	14.586319
_cell_angle_alpha	89.995924
_cell_angle_beta	89.999213
_cell_angle_gamma	87.286518
loop_
_atom_site_label
_atom_site_type_symbol
_atom_site_fract_x
_atom_site_fract_y
_atom_site_fract_z
O1	O	1.110268	0.100495	-0.076183
O2	O	0.869094	0.113001	-0.076198
O3	O	0.988248	-0.007067	-0.076183
O4	O	0.991114	0.220564	-0.076198
O5	O	0.988239	-0.007069	0.076298
O6	O	0.869085	0.113000	0.076283
O7	O	1.110259	0.100493	0.076298
Cu8	Cu	0.989671	0.106746	0.090213
Cu9	Cu	0.989682	0.106748	-0.090113
O10	O	0.991105	0.220562	0.076283
C11	C	0.838079	0.112494	0.000041
C12	C	0.745676	0.110975	0.000035
C13	C	0.528212	0.178690	0.000042
C14	C	0.441390	0.177257	0.000048
C15	C	0.451147	0.034799	0.000053
C16	C	0.537968	0.036233	0.000054
C17	C	0.576498	0.108181	0.000043
C18	C	0.402855	0.105314	0.000049
C19	C	0.308719	0.103759	0.000055
C20	C	0.670640	0.109736	0.000039
C21	C	0.985636	-0.036196	0.000057
C22	C	0.977857	-0.122989	0.000056
C23	C	1.049277	-0.173104	0.000062
C24	C	1.041963	-0.254654	0.000052
C25	C	0.963228	-0.286089	0.000044
C26	C	0.891802	-0.235967	0.000036
C27	C	0.899116	-0.154418	0.000039
C28	C	0.937385	-0.531846	0.000030
C29	C	0.930076	-0.613402	0.000031
C30	C	1.080238	-0.632083	0.000045
C31	C	1.087546	-0.550532	0.000053
C32	C	1.016120	-0.500418	0.000040
C33	C	0.955749	-0.369446	0.000038
C34	C	1.023599	-0.417062	0.000040
C35	C	1.141274	0.101001	0.000057
C36	C	1.233677	0.102519	0.000057
C37	C	0.993717	0.249691	0.000041
C38	C	1.001496	0.336484	0.000036
N39	N	0.989670	0.106744	0.217045
N40	N	0.989689	0.106744	-0.216945
C41	C	1.042451	0.053596	0.452058
C42	C	1.042453	0.053594	0.548039
C43	C	0.936902	0.159895	0.548036
C44	C	0.936896	0.159893	0.452056
C45	C	0.989675	0.106744	0.404070
C46	C	0.989684	0.106744	0.596030
C47	C	0.989686	0.106743	0.700098
C48	C	0.989672	0.106744	0.299996
H49	H	0.402079	0.234672	0.000048
O50	O	1.149641	-0.680731	0.000210
C51	C	1.197113	-0.666481	0.079170
H52	H	1.155192	-0.638604	0.134368
H53	H	1.248171	-0.624966	0.061319
C54	C	1.288112	-0.778889	0.047178
C55	C	1.236623	-0.744656	0.114976
H56	H	1.312487	-0.827110	0.069263
H57	H	1.256132	-0.788489	-0.006021
H58	H	1.330654	-0.744286	0.032308
H59	H	1.194077	-0.779255	0.129837
H60	H	1.268597	-0.735064	0.168179
O61	O	0.868067	-0.483091	0.000146
C62	C	0.867788	-0.435376	0.079126
H63	H	0.934068	-0.431272	0.105460
H64	H	0.827914	-0.462196	0.134423
C65	C	0.750406	-0.357612	0.022788
C66	C	0.831814	-0.352566	0.055127
H67	H	0.728212	-0.306531	0.007987
H68	H	0.750591	-0.389760	-0.030421
H69	H	0.717188	-0.379965	0.068874
H70	H	0.865032	-0.330222	0.009038
H71	H	0.831633	-0.320412	0.108329
O72	O	1.093643	0.001997	0.594796
C73	C	1.082347	0.013404	0.689801
H74	H	1.018315	0.042605	0.702913
H75	H	1.132177	0.052631	0.717032
C76	C	1.167839	-0.102440	0.722978
C77	C	1.089190	-0.066580	0.739083
H78	H	1.172063	-0.151776	0.753379
H79	H	1.175452	-0.110124	0.658972
H80	H	1.209355	-0.069742	0.745671
H81	H	1.047677	-0.099273	0.716380
H82	H	1.081570	-0.058903	0.803087
O83	O	0.565508	0.248645	0.000080
C84	C	0.504267	0.310569	0.000059
H85	H	0.443809	0.288662	0.028926
H86	H	0.493534	0.332323	-0.073094
C87	C	0.607796	0.405326	0.024402
C88	C	0.533542	0.378421	0.059865
H89	H	0.625854	0.447183	0.061289
H90	H	0.649056	0.363607	0.024413
H91	H	0.598841	0.423448	-0.036558
H92	H	0.542500	0.360291	0.120818
H93	H	0.492284	0.420139	0.059865
H94	H	0.893932	0.203169	0.587116
O95	O	0.413584	-0.035019	0.000015
C96	C	0.326599	-0.021167	0.000034
H97	H	0.310549	0.039853	-0.028835
H98	H	0.302190	-0.024954	0.073186
C99	C	0.305948	-0.158293	-0.024306
C100	C	0.286235	-0.083350	-0.059771
H101	H	0.281049	-0.196652	-0.061193
H102	H	0.364551	-0.167626	-0.024316
H103	H	0.285606	-0.161438	0.036653
H104	H	0.306587	-0.080204	-0.120725
H105	H	0.227635	-0.074018	-0.059773
H106	H	0.577284	-0.021187	0.000057
H107	H	1.113392	-0.147517	0.000074
H108	H	0.827693	-0.261567	0.000024
H109	H	0.893916	0.203173	0.412982
H110	H	1.087705	-0.391465	0.000026
H111	H	0.891642	-0.395049	0.000034
O112	O	1.111426	-0.303224	0.000105
C113	C	1.182488	-0.257993	0.000097
H114	H	1.165686	-0.197125	0.028964
H115	H	1.206363	-0.252186	-0.073051
C116	C	1.271195	-0.373408	0.024452
C117	C	1.250560	-0.298652	0.059914
H118	H	1.313187	-0.398489	0.061346
H119	H	1.223320	-0.403882	0.024453
H120	H	1.291087	-0.368559	-0.036504
H121	H	1.230659	-0.303502	0.120864
H122	H	1.298433	-0.268179	0.059924
H123	H	1.151661	-0.524945	0.000059
H124	H	0.865956	-0.638991	0.000039
H125	H	0.840958	-0.113615	0.000035
O126	O	1.093738	0.001889	0.405585
C127	C	1.140333	-0.045008	0.468527
H128	H	1.106188	-0.045897	0.536948
H129	H	1.203890	-0.019607	0.478727
C130	C	1.193438	-0.128259	0.347045
C131	C	1.151496	-0.129355	0.431078
H132	H	1.200328	-0.180287	0.323944
H133	H	1.162049	-0.096662	0.304639
H134	H	1.246398	-0.107088	0.355556
H135	H	1.098534	-0.150517	0.422563
H136	H	1.182877	-0.160958	0.473482
