data_functionalizedCrystal
_audit_creation_method	'MofGen! by Chris Wilmer'
_symmetry_space_group_name_H-M	'P1'
_symmetry_Int_Tables_number	1
_symmetry_cell_setting	triclinic
loop_
_symmetry_equiv_pos_as_xyz
  x,y,z
_cell_length_a	16.992698
_cell_length_b	16.956984
_cell_length_c	15.455313
_cell_angle_alpha	92.464369
_cell_angle_beta	92.864008
_cell_angle_gamma	96.639820
loop_
_atom_site_label
_atom_site_type_symbol
_atom_site_fract_x
_atom_site_fract_y
_atom_site_fract_z
O1	O	-1.033127	0.165118	-0.072148
O2	O	-0.804961	0.163273	-0.072146
O3	O	-0.932751	0.048991	-0.072141
O4	O	-0.905336	0.279401	-0.072153
O5	O	-0.925445	0.055497	0.072121
O6	O	-0.797655	0.169780	0.072116
O7	O	-1.025821	0.171625	0.072114
Cu8	Cu	-0.911071	0.171296	0.085287
Cu9	Cu	-0.919711	0.163602	-0.085319
O10	O	-0.898030	0.285907	0.072109
C11	C	-0.772249	0.164151	-0.000015
C12	C	-0.685664	0.157061	-0.000014
C13	C	-0.930502	0.022625	-0.000010
C14	C	-0.934676	-0.065630	-0.000011
C15	C	-0.199792	0.109425	-0.000010
C16	C	-0.281146	0.116093	-0.000006
C17	C	-0.307823	0.191175	-0.000014
C18	C	-0.253140	0.259595	-0.000017
C19	C	-0.171788	0.252927	-0.000015
C20	C	-0.549629	0.218812	-0.000015
C21	C	-0.630989	0.225475	-0.000020
C22	C	-0.658989	0.081972	-0.000007
C23	C	-0.577634	0.075310	-0.000010
C24	C	-0.522958	0.143730	-0.000009
N25	N	-0.390980	0.197993	-0.000013
N26	N	-0.439802	0.136913	-0.000004
C27	C	-0.058532	0.170748	-0.000017
C28	C	-0.145116	0.177839	-0.000016
C29	C	-0.864891	-0.102160	-0.000015
C30	C	-0.868817	-0.185085	-0.000012
C31	C	-0.942530	-0.231478	-0.000013
C32	C	-1.012320	-0.194942	-0.000007
C33	C	-1.008393	-0.112018	-0.000003
C34	C	-0.961969	-0.480013	-0.000019
C35	C	-0.965891	-0.562942	-0.000025
C36	C	-0.822387	-0.553079	-0.000029
C37	C	-0.818467	-0.470155	-0.000030
C38	C	-0.888257	-0.433625	-0.000020
N39	N	-0.946545	-0.316241	-0.000013
N40	N	-0.884241	-0.348864	-0.000013
C41	C	-0.900279	0.312273	-0.000024
C42	C	-0.896106	0.400527	-0.000029
N43	N	-0.905000	0.176708	0.205282
N44	N	-0.925788	0.158184	-0.205315
C45	C	-0.959306	0.128177	0.250679
C46	C	-0.954721	0.132278	0.341486
C47	C	-0.895833	0.184914	0.386896
C48	C	-0.841521	0.233447	0.341493
C49	C	-0.846103	0.229342	0.250687
C50	C	-0.876058	0.202612	0.658477
C51	C	-0.871482	0.206715	0.749289
C52	C	-0.984682	0.105544	0.749276
C53	C	-0.989261	0.101447	0.658468
C54	C	-0.934947	0.149977	0.613073
N55	N	-0.891147	0.189108	0.479716
N56	N	-0.939630	0.145778	0.520255
H57	H	-0.178080	0.048284	-0.000009
H58	H	-0.793570	0.276302	0.378471
F59	F	-1.036247	-0.441147	-0.000031
H60	H	-0.703514	0.026269	-0.000007
H61	H	-0.652704	0.286620	-0.000014
H62	H	-1.007262	0.085319	0.213712
F63	F	-0.339334	0.043276	0.000005
F64	F	-1.090771	-0.244319	0.000001
F65	F	-1.044350	-0.612316	-0.000031
H66	H	-1.065219	-0.082277	0.000001
F67	F	-1.012519	0.080624	0.389801
H68	H	-1.028901	0.066032	0.786244
H69	H	-0.127270	0.308637	-0.000017
H70	H	-0.274867	0.320729	-0.000019
F71	F	-0.786435	-0.052793	-0.000019
F72	F	-1.051937	0.045427	0.610141
F73	F	-0.549250	-0.004604	-0.000026
F74	F	-0.788300	0.280994	0.202375
H75	H	-0.505121	0.274525	-0.000019
H76	H	-0.811991	-0.214825	-0.000021
F77	F	-0.808802	0.262743	0.797612
F78	F	-0.818255	0.254263	0.610171
H79	H	-0.765568	-0.582831	-0.000036
F80	F	-0.740012	-0.420786	-0.000037
