data_functionalizedCrystal
_audit_creation_method	'MofGen! by Chris Wilmer'
_symmetry_space_group_name_H-M	'P1'
_symmetry_Int_Tables_number	1
_symmetry_cell_setting	triclinic
loop_
_symmetry_equiv_pos_as_xyz
  x,y,z
_cell_length_a	14.560438
_cell_length_b	23.196402
_cell_length_c	23.196402
_cell_angle_alpha	119.997249
_cell_angle_beta	89.996368
_cell_angle_gamma	60.002032
loop_
_atom_site_label
_atom_site_type_symbol
_atom_site_fract_x
_atom_site_fract_y
_atom_site_fract_z
Zr1	Zr	0.884775	0.631008	0.075618
O2	O	0.738128	0.751272	0.167666
O3	O	0.929727	0.510743	0.047404
O4	O	0.929724	0.631009	0.167669
O5	O	0.738137	0.631005	-0.047470
O6	O	1.080862	0.631010	0.167667
O7	O	0.738131	0.631006	0.047401
O8	O	1.080867	0.415877	-0.047464
O9	O	0.738132	0.846139	0.167662
O10	O	1.061695	0.560211	0.035366
O11	O	0.948907	0.560209	-0.035434
O12	O	0.948904	0.701807	0.106162
O13	O	0.836116	0.701805	0.035362
Zr14	Zr	1.125833	0.631009	-0.075693
Zr15	Zr	1.125823	0.631010	0.075616
Zr16	Zr	0.884785	0.631007	-0.075690
Zr17	Zr	0.884782	0.782310	0.075612
Zr18	Zr	1.125827	0.479707	-0.075686
O19	O	1.080882	0.751274	-0.047479
O20	O	1.080867	0.751276	0.167662
O21	O	0.738142	0.751271	-0.047475
O22	O	1.272480	0.510745	-0.167740
O23	O	1.272466	0.510746	0.047401
O24	O	0.929741	0.510741	-0.167737
O25	O	1.272471	0.631012	0.047396
O26	O	1.080885	0.631008	-0.167743
O27	O	0.929746	0.631007	-0.167742
O28	O	1.272478	0.631011	-0.047475
O29	O	0.929733	0.846141	0.167660
O30	O	1.080875	0.415876	-0.167734
O31	O	1.272476	0.415878	-0.167736
O32	O	1.272468	0.415879	-0.047466
O33	O	0.738140	0.846139	0.047392
O34	O	0.929741	0.846141	0.047390
O35	O	1.061705	0.560210	-0.106236
O36	O	1.174493	0.560212	-0.035436
O37	O	1.061701	0.701808	0.035360
O38	O	0.948913	0.701806	-0.035440
C39	C	1.005296	0.441752	-0.000029
C40	C	1.005293	0.377520	-0.000026
C41	C	0.703790	0.631005	-0.000034
C42	C	0.601459	0.631004	-0.000033
C43	C	1.064160	0.347351	0.036933
C44	C	1.064170	0.286990	0.036927
C45	C	1.005293	0.256812	-0.000028
C46	C	0.946424	0.286986	-0.036996
C47	C	0.946424	0.347340	-0.036995
C48	C	0.906673	0.194782	0.005247
C49	C	0.906669	0.134433	0.005251
C50	C	1.005294	0.070657	-0.000035
C51	C	1.103922	0.067247	-0.005312
C52	C	1.103922	0.127601	-0.005311
C53	C	1.005287	0.191368	-0.000034
C54	C	1.064178	-0.024963	0.036920
C55	C	1.064192	-0.085329	0.036909
C56	C	0.946434	-0.085326	-0.037010
C57	C	0.946431	-0.024967	-0.037004
C58	C	1.005300	0.005213	-0.000035
C59	C	0.612256	0.557094	-0.036988
C60	C	0.516101	0.557098	-0.036994
C61	C	0.398355	0.704929	0.036915
C62	C	0.494508	0.704924	0.036916
C63	C	0.719206	0.483174	-0.073937
C64	C	0.730008	0.409258	-0.110894
C65	C	0.633853	0.409262	-0.110901
C66	C	0.526896	0.483182	-0.073950
C67	C	1.306819	0.631012	-0.000040
C68	C	1.409150	0.631013	-0.000041
C69	C	1.005292	0.631010	0.189226
C70	C	1.005287	0.631010	0.253461
C71	C	1.005312	0.820265	-0.000045
C72	C	1.005315	0.884497	-0.000048
C73	C	0.922024	0.631021	0.716303
C74	C	0.922025	0.631015	0.655945
C75	C	1.005289	0.631017	0.625763
C76	C	1.088574	0.631003	0.655932
C77	C	1.088577	0.631001	0.716285
C78	C	1.031239	0.678522	0.553894
C79	C	1.031229	0.678529	0.493545
C80	C	1.005287	0.631020	0.439613
C81	C	0.979331	0.583514	0.446043
C82	C	0.979334	0.583511	0.506395
C83	C	1.005296	0.631019	0.560320
C84	C	0.922013	0.631021	0.344001
C85	C	0.922022	0.631010	0.283640
C86	C	1.088566	0.631006	0.283632
C87	C	1.088562	0.631009	0.343988
C88	C	1.005279	0.631020	0.374171
C89	C	1.005310	0.631009	0.810700
C90	C	1.005294	0.631012	0.746468
C91	C	1.306810	0.441756	-0.000032
C92	C	1.409139	0.377525	-0.000030
C93	C	1.005309	0.441751	-0.189293
C94	C	1.005310	0.377519	-0.253524
C95	C	1.306823	0.441754	-0.189296
C96	C	1.409156	0.377523	-0.253528
C97	C	0.703786	0.820263	0.189221
C98	C	0.601453	0.884494	0.253454
C99	C	0.703798	0.820262	-0.000042
C100	C	0.601470	0.884492	-0.000044
C101	C	1.005300	0.820266	0.189218
C102	C	1.005298	0.884498	0.253450
C103	C	1.398314	0.347361	0.036935
C104	C	1.494453	0.287018	0.036951
C105	C	1.601416	0.256835	-0.000003
C106	C	1.612238	0.287005	-0.036970
C107	C	1.516100	0.347351	-0.036981
C108	C	1.064190	0.347355	-0.320652
C109	C	1.064187	0.287011	-0.381011
C110	C	1.005310	0.256827	-0.374239
C111	C	0.946423	0.286996	-0.307104
C112	C	0.946420	0.347344	-0.246747
C113	C	1.516096	0.347360	-0.246736
C114	C	1.612258	0.287017	-0.307083
C115	C	1.601476	0.256833	-0.374223
C116	C	1.494524	0.287002	-0.381014
C117	C	1.398365	0.347348	-0.320667
C118	C	0.494512	0.914664	0.246661
C119	C	0.398350	0.975026	0.307009
C120	C	0.409132	1.005213	0.374148
C121	C	0.516084	0.975041	0.380939
C122	C	0.612243	0.914684	0.320593
C123	C	0.612294	0.914662	-0.037003
C124	C	0.516155	0.975022	-0.037002
C125	C	0.409192	1.005207	-0.000046
C126	C	0.398370	0.975034	0.036918
C127	C	0.494508	0.914680	0.036920
C128	C	1.064187	0.914663	0.246655
C129	C	1.064207	0.975008	0.307002
C130	C	1.005332	1.005191	0.374142
C131	C	0.946442	0.975021	0.380935
C132	C	0.946429	0.914673	0.320589
H133	H	1.112097	0.371920	0.067033
F134	F	0.883739	0.882581	0.327831
H135	H	1.485619	0.262461	0.067053
H136	H	1.112144	0.262454	-0.435669
F137	F	0.801701	0.138070	0.010871
H138	H	1.005322	0.207688	-0.423391
H139	H	1.156365	0.631003	0.259055
F140	F	0.726123	0.882551	-0.076338
H141	H	1.679785	0.207695	-0.423355
F142	F	1.126883	1.007110	0.299758
F143	F	1.703726	0.192608	0.000014
H144	H	1.311228	0.371935	0.067036
F145	F	1.527638	0.379443	-0.076331
H146	H	1.699340	0.262422	-0.067056
F147	F	0.883767	0.254864	-0.299908
H148	H	0.699317	0.890120	0.326132
F149	F	1.126863	0.379466	-0.327875
F150	F	0.306882	1.069442	-0.000056
H151	H	0.898477	0.371895	-0.192090
H152	H	0.448605	0.483179	-0.073962
H153	H	1.524896	0.371927	-0.192073
F154	F	0.951715	0.532949	0.388648
F155	F	1.483067	0.254869	-0.452474
H156	H	1.699334	0.262460	-0.301541
F157	F	0.483018	0.783588	0.076246
F158	F	1.126846	-0.117436	0.076250
H159	H	1.311293	0.371899	-0.326207
F160	F	1.005354	1.069421	0.438362
F161	F	0.527541	1.007175	0.452400
F162	F	1.126837	0.254868	0.076260
F163	F	0.483012	0.882546	0.175212
H164	H	0.330824	1.054360	0.423281
F165	F	0.833393	0.631029	0.748422
F166	F	0.482970	0.882572	0.076255
H167	H	0.826349	0.246718	0.009567
H168	H	0.898508	0.999605	0.435609
H169	H	0.797507	0.483163	-0.073935
F170	F	1.208893	-0.000623	-0.010936
F171	F	1.208886	0.123968	-0.010929
H172	H	1.052362	0.717215	0.597806
F173	F	1.126838	0.007155	0.076260
F174	F	0.883772	-0.117439	-0.076341
H175	H	0.898491	-0.000400	-0.067097
H176	H	0.898486	0.262411	-0.067086
F177	F	0.645352	0.330595	-0.150241
F178	F	0.284535	1.007125	0.299766
H179	H	0.524989	0.999579	-0.067105
H180	H	0.311265	0.765111	0.067000
F181	F	1.177192	0.631001	0.623807
H182	H	0.311268	0.999620	0.067006
H183	H	1.112130	0.890097	0.191992
F184	F	0.843837	0.330591	-0.150227
F185	F	0.833393	0.631024	0.623836
F186	F	0.883768	0.379449	-0.076334
H187	H	0.854202	0.631026	0.368575
F188	F	0.951715	0.532951	0.513235
H189	H	0.854216	0.631012	0.259077
F190	F	1.177185	0.631005	0.376097
H191	H	1.052358	0.717215	0.488318
H192	H	1.156387	0.630994	0.740845
