data_functionalizedCrystal
_audit_creation_method	'MofGen! by Chris Wilmer'
_symmetry_space_group_name_H-M	'P1'
_symmetry_Int_Tables_number	1
_symmetry_cell_setting	triclinic
loop_
_symmetry_equiv_pos_as_xyz
  x,y,z
_cell_length_a	10.723024
_cell_length_b	9.065218
_cell_length_c	7.540329
_cell_angle_alpha	89.998243
_cell_angle_beta	89.997341
_cell_angle_gamma	84.741877
loop_
_atom_site_label
_atom_site_type_symbol
_atom_site_fract_x
_atom_site_fract_y
_atom_site_fract_z
O1	O	-1.658026	-0.206940	0.147463
O2	O	-1.158026	0.293060	0.647463
O3	O	-1.294955	-0.226748	0.147469
O4	O	-0.794955	0.273252	0.647469
O5	O	-1.483995	-0.002159	0.147462
O6	O	-0.983995	0.497841	0.647462
O7	O	-1.468986	-0.431529	0.147470
O8	O	-0.968986	0.068471	0.647470
O9	O	-1.483984	-0.002156	-0.147503
O10	O	-0.983984	0.497844	0.352497
O11	O	-1.294943	-0.226745	-0.147497
O12	O	-0.794943	0.273255	0.352503
O13	O	-1.658015	-0.206937	-0.147502
O14	O	-1.158015	0.293063	0.352498
Cu15	Cu	-1.476478	-0.216841	-0.174432
Cu16	Cu	-0.976478	0.283159	0.325568
Cu17	Cu	-1.476492	-0.216844	0.174399
Cu18	Cu	-0.976492	0.283156	0.674399
O19	O	-1.468974	-0.431526	-0.147495
O20	O	-0.968974	0.068474	0.352505
C21	C	-1.248443	-0.225305	-0.000013
C22	C	-0.748443	0.274695	0.499987
C23	C	-1.109872	-0.220992	-0.000011
C24	C	-0.609872	0.279008	0.499989
N25	N	-1.476478	-0.216838	-0.419780
N26	N	-0.976478	0.283162	0.080220
C27	C	-1.704526	-0.208380	-0.000016
C28	C	-1.204526	0.291620	0.499984
C29	C	-1.843098	-0.212693	-0.000007
C30	C	-1.343098	0.287307	0.499993
C31	C	-1.035399	-0.346660	-0.000008
C32	C	-0.535399	0.153340	0.499992
C33	C	-0.892178	-0.342206	-0.000005
C34	C	-0.392178	0.157794	0.499995
C35	C	-1.482547	0.052821	-0.000018
C36	C	-0.982547	0.552821	0.499982
C37	C	-1.478234	0.216639	-0.000009
C38	C	-0.978234	0.716639	0.499991
C39	C	-1.470423	-0.486506	-0.000012
C40	C	-0.970423	0.013494	0.499988
C41	C	-1.474736	-0.650324	-0.000009
C42	C	-0.974736	-0.150324	0.499991
N43	N	-1.476502	-0.216836	0.419747
N44	N	-0.976502	0.283164	0.919747
H45	H	-1.077672	-0.457547	-0.000016
H46	H	-0.577672	0.042453	0.499984
H47	H	-0.828182	-0.449788	0.000005
H48	H	-0.328182	0.050212	0.500005
C49	C	-0.978764	-0.060876	0.151628
C50	C	-0.478764	0.439124	0.651628
C51	C	-1.052823	-0.071287	-0.000006
C52	C	-0.552823	0.428713	0.499994
H53	H	-0.943555	0.031553	0.151634
H54	H	-0.443555	0.531553	0.651634
H55	H	-0.913489	-0.139130	0.151613
H56	H	-0.413489	0.360870	0.651613
H57	H	-1.029033	-0.067967	0.254475
H58	H	-0.529033	0.432033	0.754475
H59	H	-1.002552	-0.064208	-0.102854
H60	H	-0.502552	0.435792	0.397146
H61	H	-1.118107	0.006989	-0.000007
H62	H	-0.618107	0.506989	0.499993
H63	H	-0.907086	-0.105105	0.000002
H64	H	-0.407086	0.394895	0.500002
