data_functionalizedCrystal
_audit_creation_method	'MofGen! by Chris Wilmer'
_symmetry_space_group_name_H-M	'P1'
_symmetry_Int_Tables_number	1
_symmetry_cell_setting	triclinic
loop_
_symmetry_equiv_pos_as_xyz
  x,y,z
_cell_length_a	23.532407
_cell_length_b	19.188930
_cell_length_c	18.266242
_cell_angle_alpha	89.990385
_cell_angle_beta	89.999716
_cell_angle_gamma	82.996730
loop_
_atom_site_label
_atom_site_type_symbol
_atom_site_fract_x
_atom_site_fract_y
_atom_site_fract_z
O1	O	-0.755440	-0.084756	0.060798
O2	O	-0.589603	-0.097020	0.060820
O3	O	-0.677307	0.010783	0.060794
O4	O	-0.667736	-0.192559	0.060824
O5	O	-0.677298	0.010786	-0.060968
O6	O	-0.589594	-0.097017	-0.060942
O7	O	-0.755431	-0.084754	-0.060964
Zn8	Zn	-0.672511	-0.090885	-0.080285
Zn9	Zn	-0.672523	-0.090888	0.080141
O10	O	-0.667727	-0.192556	-0.060938
C11	C	-0.568382	-0.096706	-0.000058
C12	C	-0.505163	-0.095767	-0.000050
C13	C	-0.676993	0.036794	-0.000089
C14	C	-0.676062	0.114296	-0.000095
C15	C	-0.776652	-0.085067	-0.000084
C16	C	-0.839871	-0.086006	-0.000088
C17	C	-0.106183	-0.153674	-0.000075
C18	C	-0.046780	-0.152801	-0.000079
O19	O	-0.010150	-0.206481	-0.000098
N20	N	-0.024018	-0.088713	-0.000087
C21	C	-0.060662	-0.025492	-0.000098
O22	O	-0.035846	0.029100	-0.000107
C23	C	-0.120062	-0.026365	-0.000099
C24	C	-0.142821	-0.090458	-0.000083
C25	C	-0.128942	-0.217761	-0.000060
C26	C	-0.188340	-0.218633	-0.000054
C27	C	-0.224979	-0.155417	-0.000063
C28	C	-0.202219	-0.091330	-0.000078
C29	C	-0.156705	0.036855	-0.000115
C30	C	-0.216109	0.035976	-0.000117
C31	C	-0.238868	-0.028116	-0.000101
C32	C	-0.298256	-0.028986	-0.000080
N33	N	-0.321018	-0.093075	-0.000072
C34	C	-0.284379	-0.156290	-0.000063
C35	C	0.064085	-0.023664	-0.000098
C36	C	0.123485	-0.022790	-0.000093
C37	C	0.137362	-0.150099	-0.000075
C38	C	0.077961	-0.150972	-0.000075
C39	C	0.041323	-0.087752	-0.000090
C40	C	-0.409120	-0.158117	-0.000050
C41	C	-0.468524	-0.158983	-0.000041
C42	C	-0.482396	-0.031674	-0.000063
C43	C	-0.422997	-0.030807	-0.000068
C44	C	-0.386360	-0.094034	-0.000064
O45	O	-0.334921	0.024666	-0.000065
O46	O	-0.309203	-0.210874	-0.000065
C47	C	-0.668041	-0.218568	-0.000053
C48	C	-0.668972	-0.296069	-0.000042
N49	N	-0.672506	-0.090882	-0.189772
C50	C	-0.727524	0.159384	-0.000106
C51	C	-0.726650	0.232205	-0.000094
C52	C	-0.674311	0.259935	-0.000086
C53	C	-0.622842	0.214837	-0.000072
C54	C	-0.623718	0.142017	-0.000076
N55	N	-0.634301	0.367813	-0.041519
N56	N	-0.633473	0.436989	-0.041516
C57	C	-0.671670	0.479335	-0.000071
N58	N	-0.710735	0.449893	0.041362
N59	N	-0.711565	0.380711	0.041356
C60	C	-0.673356	0.338894	-0.000081
C61	C	-0.722188	0.603384	-0.000068
C62	C	-0.721311	0.676206	-0.000051
C63	C	-0.617502	0.658836	-0.000036
C64	C	-0.618380	0.586016	-0.000045
C65	C	-0.670724	0.558295	-0.000064
C66	C	-0.711369	-0.043163	-0.772061
C67	C	-0.711369	-0.043165	-0.695416
C68	C	-0.672524	-0.090882	-0.657085
C69	C	-0.633685	-0.138613	-0.695405
C70	C	-0.633689	-0.138615	-0.772048
N71	N	-0.622105	-0.100091	-0.536751
N72	N	-0.622103	-0.100085	-0.463943
C73	C	-0.672510	-0.090881	-0.426162
N74	N	-0.722921	-0.081668	-0.463941
N75	N	-0.722923	-0.081671	-0.536756
C76	C	-0.672515	-0.090886	-0.573978
C77	C	-0.711350	-0.043158	-0.304745
C78	C	-0.711352	-0.043164	-0.228098
C79	C	-0.633662	-0.138609	-0.228088
C80	C	-0.633665	-0.138606	-0.304733
C81	C	-0.672509	-0.090876	-0.343057
N82	N	-0.672532	-0.090885	0.189628
H83	H	-0.487050	-0.211177	-0.000028
C84	C	-0.590932	-0.191100	-0.185932
C85	C	-0.526085	-0.190337	-0.196474
C86	C	-0.483356	-0.242832	-0.154313
C87	C	-0.505474	-0.296089	-0.101610
C88	C	-0.570323	-0.296853	-0.091065
C89	C	-0.613052	-0.244358	-0.133226
H90	H	-0.509710	-0.150912	-0.235490
H91	H	-0.435350	-0.242266	-0.162119
H92	H	-0.473843	-0.334948	-0.070400
H93	H	-0.586699	-0.336278	-0.052049
H94	H	-0.661059	-0.244924	-0.125420
C95	C	-0.590939	-0.191094	-0.346882
C96	C	-0.548208	-0.243585	-0.304726
C97	C	-0.505481	-0.296077	-0.346875
C98	C	-0.505486	-0.296079	-0.431180
C99	C	-0.548218	-0.243587	-0.473340
C100	C	-0.590945	-0.191095	-0.431191
H101	H	-0.548203	-0.243585	-0.242314
H102	H	-0.473848	-0.334935	-0.315665
H103	H	-0.473857	-0.334938	-0.462381
H104	H	-0.548223	-0.243587	-0.535752
H105	H	-0.622579	-0.152236	-0.462402
C106	C	-0.590963	-0.191108	-0.814195
C107	C	-0.590966	-0.191108	-0.898500
C108	C	-0.548239	-0.243600	-0.940649
C109	C	-0.505510	-0.296093	-0.898493
C110	C	-0.505506	-0.296096	-0.814184
C111	C	-0.548233	-0.243603	-0.772035
H112	H	-0.622598	-0.152248	-0.929710
H113	H	-0.548242	-0.243598	-1.003061
H114	H	-0.473881	-0.334951	-0.929695
H115	H	-0.473874	-0.334956	-0.782973
H116	H	-0.548229	-0.243605	-0.709623
H117	H	-0.742981	-0.004295	-0.335949
C118	C	-0.754074	0.009333	-0.185951
C119	C	-0.796798	0.061832	-0.228108
C120	C	-0.839521	0.114329	-0.185959
C121	C	-0.839520	0.114328	-0.101654
C122	C	-0.796795	0.061827	-0.059493
C123	C	-0.754072	0.009329	-0.101642
H124	H	-0.796800	0.061835	-0.290519
H125	H	-0.871149	0.153194	-0.217169
H126	H	-0.871146	0.153190	-0.070453
H127	H	-0.796793	0.061824	0.002918
H128	H	-0.722444	-0.029535	-0.070431
H129	H	-0.138185	0.089046	-0.000129
H130	H	-0.742998	-0.004301	-0.803262
C131	C	-0.590953	-0.191102	-0.653244
C132	C	-0.547463	-0.164092	-0.600568
C133	C	-0.504731	-0.216585	-0.558409
C134	C	-0.505490	-0.296089	-0.568927
C135	C	-0.548982	-0.323103	-0.621606
C136	C	-0.591713	-0.270609	-0.663765
H137	H	-0.546900	-0.105235	-0.592780
H138	H	-0.472536	-0.196587	-0.519412
H139	H	-0.473858	-0.334948	-0.537718
H140	H	-0.549545	-0.381960	-0.629394
H141	H	-0.623908	-0.290607	-0.702761
C142	C	-0.397961	0.039696	-0.000079
C143	C	-0.359028	0.057808	0.063137
C144	C	-0.333999	0.128312	0.063118
C145	C	-0.347902	0.180704	-0.000118
C146	C	-0.386837	0.162593	-0.063339
C147	C	-0.411866	0.092089	-0.063320
H148	H	-0.348734	0.019023	0.109953
H149	H	-0.305176	0.141719	0.109919
H150	H	-0.329373	0.232896	-0.000132
H151	H	-0.397131	0.201378	-0.110155
H152	H	-0.440689	0.078682	-0.110121
H153	H	-0.742996	-0.004303	-0.664218
H154	H	-0.379297	-0.209602	-0.000049
H155	H	-0.512238	0.019795	-0.000067
C156	C	-0.783262	0.281814	-0.000113
C157	C	-0.840837	0.251322	-0.000135
C158	C	-0.897448	0.300929	-0.000157
C159	C	-0.896483	0.381027	-0.000156
C160	C	-0.838906	0.411523	-0.000133
C161	C	-0.782295	0.361916	-0.000112
H162	H	-0.841553	0.192025	-0.000136
H163	H	-0.940071	0.278353	-0.000174
H164	H	-0.938390	0.417748	-0.000172
H165	H	-0.838189	0.470820	-0.000133
H166	H	-0.739672	0.384492	-0.000095
C167	C	-0.565268	0.245335	-0.000062
C168	C	-0.564302	0.325433	-0.000060
C169	C	-0.506726	0.355931	-0.000046
C170	C	-0.450116	0.306330	-0.000033
C171	C	-0.451080	0.226227	-0.000035
C172	C	-0.508656	0.195730	-0.000049
H173	H	-0.606211	0.362155	-0.000070
H174	H	-0.506013	0.415228	-0.000045
H175	H	-0.407495	0.328906	-0.000022
H176	H	-0.409172	0.189506	-0.000026
H177	H	-0.509369	0.136432	-0.000051
H178	H	-0.763220	0.712917	-0.000056
H179	H	-0.206864	-0.270824	-0.000041
C180	C	-0.561769	0.536415	-0.000046
C181	C	-0.518831	0.539250	0.063185
C182	C	-0.462217	0.489649	0.063186
C183	C	-0.448541	0.437214	-0.000044
C184	C	-0.491480	0.434377	-0.063280
C185	C	-0.548094	0.483977	-0.063281
H186	H	-0.528954	0.578068	0.109997
H187	H	-0.430431	0.491750	0.109998
H188	H	-0.406632	0.400497	-0.000044
H189	H	-0.481357	0.395559	-0.110092
H190	H	-0.579880	0.481877	-0.110093
H191	H	-0.099116	-0.269242	-0.000055
H192	H	0.034257	0.027821	-0.000104
C193	C	-0.779763	0.572883	-0.000081
C194	C	-0.822458	0.590076	-0.063313
C195	C	-0.880033	0.559575	-0.063328
C196	C	-0.894913	0.511882	-0.000110
C197	C	-0.852217	0.494687	0.063126
C198	C	-0.794642	0.525187	0.063141
H199	H	-0.811444	0.625383	-0.110115
H200	H	-0.911639	0.572305	-0.110140
H201	H	-0.937533	0.489304	-0.000121
H202	H	-0.863231	0.459379	0.109928
H203	H	-0.763036	0.512458	0.109953
H204	H	-0.574886	0.681413	-0.000026
H205	H	0.059435	-0.203162	-0.000067
H206	H	0.167204	-0.201573	-0.000071
H207	H	0.142009	0.029401	-0.000094
H208	H	-0.245938	0.087459	-0.000129
H209	H	-0.770147	0.136819	-0.000119
H210	H	-0.581810	0.105305	-0.000068
