data_functionalizedCrystal
_audit_creation_method	'MofGen! by Chris Wilmer'
_symmetry_space_group_name_H-M	'P1'
_symmetry_Int_Tables_number	1
_symmetry_cell_setting	triclinic
loop_
_symmetry_equiv_pos_as_xyz
  x,y,z
_cell_length_a	12.645323
_cell_length_b	12.827893
_cell_length_c	12.827892
_cell_angle_alpha	90.015553
_cell_angle_beta	89.974132
_cell_angle_gamma	89.979689
loop_
_atom_site_label
_atom_site_type_symbol
_atom_site_fract_x
_atom_site_fract_y
_atom_site_fract_z
Zn1	Zn	-0.599372	1.597682	-0.416020
Zn2	Zn	-0.099372	2.097682	0.083980
Zn3	Zn	-0.422109	1.597573	-0.590785
Zn4	Zn	0.077891	2.097573	-0.090785
Zn5	Zn	-0.422124	1.422920	-0.416059
Zn6	Zn	0.077876	1.922920	0.083941
Zn7	Zn	-0.599332	1.422909	-0.590720
Zn8	Zn	-0.099332	1.922909	-0.090720
O9	O	-0.510734	1.510271	-0.503396
O10	O	-0.010734	2.010271	-0.003396
O11	O	-0.575868	1.743904	-0.439214
O12	O	-0.075868	2.243904	0.060786
O13	O	-0.273764	1.574363	-0.567651
O14	O	0.226236	2.074363	-0.067651
O15	O	-0.445659	1.446153	-0.269818
O16	O	0.054341	1.946153	0.230182
O17	O	-0.445634	1.743823	-0.567613
O18	O	0.054366	2.243823	-0.067613
O19	O	-0.575883	1.574550	-0.269789
O20	O	-0.075883	2.074550	0.230211
O21	O	-0.273774	1.446047	-0.439280
O22	O	0.226226	1.946047	0.060720
O23	O	-0.445620	1.276682	-0.439218
O24	O	0.054380	1.776682	0.060782
O25	O	-0.747684	1.446134	-0.567503
O26	O	-0.247684	1.946134	-0.067503
O27	O	-0.575814	1.276674	-0.567541
O28	O	-0.075814	1.776674	-0.067541
O29	O	-0.747714	1.574539	-0.439151
O30	O	-0.247714	2.074539	0.060849
O31	O	-0.445595	1.574353	-0.737013
O32	O	0.054405	2.074353	-0.237013
O33	O	-0.575800	1.446028	-0.736965
O34	O	-0.075800	1.946028	-0.236965
C35	C	-0.510715	1.238761	-0.503377
C36	C	-0.010715	1.738761	-0.003377
C37	C	-0.510732	1.122608	-0.503394
C38	C	-0.010732	1.622608	-0.003394
C39	C	-0.446422	1.070800	-0.439812
C40	C	0.053578	1.570800	0.060188
C41	C	-0.446438	0.950749	-0.439828
C42	C	0.053562	1.450749	0.060172
C43	C	-0.787240	1.510348	-0.503315
C44	C	-0.287240	2.010348	-0.003315
C45	C	-0.905070	1.510381	-0.503281
C46	C	-0.405070	2.010381	-0.003281
C47	C	-1.072615	1.429352	-0.583646
C48	C	-0.572615	1.929352	-0.083646
C49	C	-0.950055	1.429564	-0.584044
C50	C	-0.450055	1.929564	-0.084044
C51	C	-0.949584	1.620492	-0.533168
C52	C	-0.449584	2.120492	-0.033168
C53	C	-1.072183	1.620047	-0.533672
C54	C	-0.572183	2.120047	-0.033672
C55	C	-1.072271	1.482340	-0.392580
C56	C	-0.572271	1.982340	0.107420
C57	C	-0.949664	1.479883	-0.393243
C58	C	-0.449664	1.979883	0.106757
C59	C	-0.235304	1.510254	-0.503401
C60	C	0.264696	2.010254	-0.003401
C61	C	-0.117475	1.510424	-0.503141
C62	C	0.382525	2.010424	-0.003141
C63	C	-0.510715	1.510206	-0.774906
C64	C	-0.010715	2.010206	-0.274906
C65	C	-0.510742	1.510273	-0.891059
C66	C	-0.010742	2.010273	-0.391059
C67	C	-0.510754	1.782841	-0.503416
C68	C	-0.010754	2.282841	-0.003416
C69	C	-0.510763	1.898994	-0.503425
C70	C	-0.010763	2.398994	-0.003425
C71	C	-0.575238	1.573780	-0.942747
C72	C	-0.075238	2.073780	-0.442747
C73	C	-0.575268	1.573851	-1.062797
C74	C	-0.075268	2.073851	-0.562797
C75	C	-0.510777	1.510365	-0.230826
C76	C	-0.010777	2.010365	0.269174
C77	C	-0.510795	1.510405	-0.114673
C78	C	-0.010795	2.010405	0.385327
H79	H	-0.391348	1.115321	-0.385368
H80	H	0.108652	1.615321	0.114632
H81	H	-0.455551	1.455951	-0.935685
H82	H	0.044449	1.955951	-0.435685
F83	F	-0.438610	1.439339	-1.056584
F84	F	0.061390	1.939339	-0.556584
F85	F	-0.647396	1.644770	-0.884423
F86	F	-0.147396	2.144770	-0.384423
H87	H	-0.920569	1.398851	-0.370704
H88	H	-0.420569	1.898851	0.129296
F89	F	-0.374476	0.892518	-0.368669
F90	F	0.125524	1.392518	0.131331
H91	H	-0.565828	0.943541	-0.557858
H92	H	-0.065828	1.443541	-0.057858
H93	H	-0.919042	1.534618	-0.330091
H94	H	-0.419042	2.034618	0.169909
H95	H	-0.565798	1.078086	-0.557844
H96	H	-0.065798	1.578086	-0.057844
H97	H	-1.102093	1.347459	-0.565124
H98	H	-0.602093	1.847459	-0.065124
F99	F	-0.910711	1.322841	-0.559594
F100	F	-0.410711	1.822841	-0.059594
H101	H	-0.630482	1.628226	-1.107247
H102	H	-0.130482	2.128226	-0.607247
F103	F	-0.911732	1.453846	-0.691167
F104	F	-0.411732	1.953846	-0.191167
F105	F	-1.112956	1.453299	-0.690099
F106	F	-0.612956	1.953299	-0.190099
H107	H	-0.920448	1.682517	-0.476386
H108	H	-0.420448	2.182517	0.023614
F109	F	-1.109579	1.651160	-0.639313
F110	F	-0.609579	2.151160	-0.139313
F111	F	-1.110976	1.701634	-0.460311
F112	F	-0.610976	2.201634	0.039689
H113	H	-1.103179	1.403444	-0.365337
H114	H	-0.603179	1.903444	0.134663
F115	F	-0.909471	1.652142	-0.637702
F116	F	-0.409471	2.152142	-0.137702
F117	F	-1.110190	1.559520	-0.314182
F118	F	-0.610190	2.059520	0.185818
