data_functionalizedCrystal
_audit_creation_method	'MofGen! by Chris Wilmer'
_symmetry_space_group_name_H-M	'P1'
_symmetry_Int_Tables_number	1
_symmetry_cell_setting	triclinic
loop_
_symmetry_equiv_pos_as_xyz
  x,y,z
_cell_length_a	25.639242
_cell_length_b	18.050589
_cell_length_c	18.050591
_cell_angle_alpha	89.999396
_cell_angle_beta	89.988976
_cell_angle_gamma	90.023749
loop_
_atom_site_label
_atom_site_type_symbol
_atom_site_fract_x
_atom_site_fract_y
_atom_site_fract_z
Zn1	Zn	-0.799206	0.295924	0.420108
Zn2	Zn	-0.299206	0.795924	0.920108
Zn3	Zn	-0.799162	0.420069	0.295928
Zn4	Zn	-0.299162	0.920069	0.795928
Zn5	Zn	-0.711799	0.295888	0.295914
Zn6	Zn	-0.211799	0.795888	0.795914
Zn7	Zn	-0.711743	0.420067	0.420057
Zn8	Zn	-0.211743	0.920067	0.920057
O9	O	-0.755477	0.357987	0.358002
O10	O	-0.255477	0.857987	0.858002
O11	O	-0.872365	0.312408	0.403663
O12	O	-0.372365	0.812408	0.903663
O13	O	-0.787578	0.403582	0.192001
O14	O	-0.287578	0.903582	0.692001
O15	O	-0.723435	0.191968	0.312404
O16	O	-0.223435	0.691968	0.812404
O17	O	-0.872333	0.403617	0.312428
O18	O	-0.372333	0.903617	0.812428
O19	O	-0.787653	0.191995	0.403649
O20	O	-0.287653	0.691995	0.903649
O21	O	-0.723393	0.312347	0.191991
O22	O	-0.223393	0.812347	0.691991
O23	O	-0.638626	0.312345	0.312354
O24	O	-0.138626	0.812345	0.812354
O25	O	-0.723340	0.403614	0.523989
O26	O	-0.223340	0.903614	1.023989
O27	O	-0.638585	0.403579	0.403562
O28	O	-0.138585	0.903579	0.903562
O29	O	-0.787598	0.312406	0.524026
O30	O	-0.287598	0.812406	1.024026
O31	O	-0.787524	0.523994	0.312378
O32	O	-0.287524	1.023994	0.812378
O33	O	-0.723298	0.523992	0.403576
O34	O	-0.223298	1.023992	0.903576
C35	C	-0.619635	0.357958	0.357951
C36	C	-0.119635	0.857958	0.857951
C37	C	-0.561521	0.357963	0.357947
C38	C	-0.061521	0.857963	0.857947
C39	C	-0.755414	0.550939	0.357989
C40	C	-0.255414	1.050939	0.857989
C41	C	-0.755435	0.633485	0.358009
C42	C	-0.255435	1.133485	0.858009
C43	C	-0.891850	0.358017	0.358053
C44	C	-0.391850	0.858017	0.858053
C45	C	-0.949964	0.358030	0.358074
C46	C	-0.449964	0.858030	0.858074
C47	C	-0.201145	0.405572	0.405449
C48	C	0.298855	0.905572	0.905449
C49	C	-0.146541	0.405577	0.405460
C50	C	0.353459	0.905577	0.905460
O51	O	-0.118293	0.446019	0.445805
O52	O	0.381707	0.946019	0.945805
N53	N	-0.119238	0.358008	0.358050
N54	N	0.380762	0.858008	0.858050
C55	C	-0.146543	0.310426	0.310630
C56	C	0.353457	0.810426	0.810630
O57	O	-0.118306	0.269965	0.270306
O58	O	0.381694	0.769965	0.770306
C59	C	-0.201146	0.310418	0.310623
C60	C	0.298854	0.810418	0.810623
C61	C	-0.228446	0.357995	0.358031
C62	C	0.271554	0.857995	0.858031
C63	C	-0.228445	0.453145	0.452853
C64	C	0.271555	0.953145	0.952853
C65	C	-0.283046	0.453141	0.452840
C66	C	0.216954	0.953141	0.952840
C67	C	-0.310346	0.405565	0.405423
C68	C	0.189654	0.905565	0.905423
C69	C	-0.283046	0.357992	0.358018
C70	C	0.216954	0.857992	0.858018
C71	C	-0.228450	0.262833	0.263208
C72	C	0.271550	0.762833	0.763208
C73	C	-0.283057	0.262829	0.263205
C74	C	0.216943	0.762829	0.763205
C75	C	-0.310356	0.310406	0.310613
C76	C	0.189644	0.810406	0.810613
C77	C	-0.364948	0.310411	0.310588
C78	C	0.135052	0.810411	0.810588
N79	N	-0.392250	0.357980	0.357998
N80	N	0.107750	0.857980	0.857998
C81	C	-0.364950	0.405557	0.405415
C82	C	0.135050	0.905557	0.905415
C83	C	-0.031872	0.310445	0.310651
C84	C	0.468128	0.810445	0.810651
C85	C	0.022730	0.310456	0.310654
C86	C	0.522730	0.810456	0.810654
C87	C	0.022728	0.405606	0.405485
C88	C	0.522728	0.905606	0.905485
C89	C	-0.031875	0.405598	0.405477
C90	C	0.468125	0.905598	0.905477
C91	C	-0.059175	0.358014	0.358061
C92	C	0.440825	0.858014	0.858061
C93	C	-0.479615	0.405546	0.405384
C94	C	0.020385	0.905546	0.905384
C95	C	-0.534220	0.405540	0.405365
C96	C	-0.034220	0.905540	0.905365
C97	C	-0.534213	0.310388	0.310537
C98	C	-0.034213	0.810388	0.810537
C99	C	-0.479613	0.310396	0.310553
C100	C	0.020387	0.810396	0.810553
C101	C	-0.452315	0.357977	0.357983
C102	C	0.047685	0.857977	0.857983
O103	O	-0.393230	0.269987	0.270266
O104	O	0.106770	0.769987	0.770266
O105	O	-0.393193	0.446004	0.445740
O106	O	0.106807	0.946004	0.945740
C107	C	-0.755468	0.358014	0.551707
C108	C	-0.255468	0.858014	1.051707
C109	C	-0.755464	0.358025	0.634253
C110	C	-0.255464	0.858025	1.134253
C111	C	-0.755555	0.164282	0.358030
C112	C	-0.255555	0.664282	0.858030
C113	C	-0.755588	0.081736	0.358043
C114	C	-0.255588	0.581736	0.858043
C115	C	-0.720543	0.832962	0.407585
C116	C	-0.220543	1.332962	0.907585
C117	C	-0.707812	0.882374	0.339815
C118	C	-0.207812	1.382374	0.839815
C119	C	-0.755486	0.784616	0.358019
C120	C	-0.255486	1.284616	0.858019
C121	C	-0.768243	0.882285	0.425796
C122	C	-0.268243	1.382285	0.925796
C123	C	-0.755535	0.930601	0.358034
C124	C	-0.255535	1.430601	0.858034
C125	C	-0.742731	0.832940	0.290213
C126	C	-0.242731	1.332940	0.790213
C127	C	-0.803183	0.832848	0.376240
C128	C	-0.303183	1.332848	0.876240
C129	C	-0.790471	0.882237	0.308423
C130	C	-0.290471	1.382237	0.808423
C131	C	-0.755457	0.700517	0.358011
C132	C	-0.255457	1.200517	0.858011
C133	C	-0.755564	1.014697	0.358034
C134	C	-0.255564	1.514697	0.858034
C135	C	-0.720516	0.407617	0.833683
C136	C	-0.220516	0.907617	1.333683
C137	C	-0.768209	0.425791	0.883086
C138	C	-0.268209	0.925791	1.383086
C139	C	-0.755466	0.358015	0.785383
C140	C	-0.255466	0.858015	1.285383
C141	C	-0.707776	0.339866	0.883062
C142	C	-0.207776	0.839866	1.383062
C143	C	-0.755464	0.358006	0.931369
C144	C	-0.255464	0.858006	1.431369
C145	C	-0.803185	0.376224	0.833699
C146	C	-0.303185	0.876224	1.333699
C147	C	-0.742719	0.290267	0.833671
C148	C	-0.242719	0.790267	1.333671
C149	C	-0.790445	0.308415	0.883051
C150	C	-0.290445	0.808415	1.383051
C151	C	-0.755466	0.358022	0.701285
C152	C	-0.255466	0.858022	1.201285
C153	C	-0.755469	0.358000	1.015465
C154	C	-0.255469	0.858000	1.515465
C155	C	-0.755478	0.357984	1.165050
C156	C	-0.255478	0.857984	1.665050
C157	C	-0.755467	0.357994	1.082504
C158	C	-0.255467	0.857994	1.582504
H159	H	-0.457395	0.444290	0.444008
H160	H	0.042605	0.944290	0.944008
H161	H	-0.690997	0.449600	0.812008
H162	H	-0.190997	0.949600	1.312008
H163	H	-0.667499	0.904145	0.324417
H164	H	-0.167499	1.404145	0.824417
H165	H	-0.690949	0.811325	0.449442
H166	H	-0.190949	1.311325	0.949442
O167	O	-0.659650	0.321679	0.908969
O168	O	-0.159650	0.821679	1.408969
C169	C	-0.640271	0.380011	0.953035
C170	C	-0.140271	0.880011	1.453035
H171	H	-0.660494	0.433897	0.936962
H172	H	-0.160494	0.933897	1.436962
H173	H	-0.596466	0.385796	0.943856
H174	H	-0.096466	0.885796	1.443856
H175	H	-0.648183	0.367509	1.013918
H176	H	-0.148183	0.867509	1.513918
H177	H	-0.779013	0.903960	0.483109
H178	H	-0.279013	1.403960	0.983109
H179	H	-0.820042	0.903737	0.266465
H180	H	-0.320042	1.403737	0.766465
O181	O	-0.560658	0.451781	0.451491
O182	O	-0.060658	0.951781	0.951491
C183	C	-0.524848	0.493783	0.493333
C184	C	-0.024848	0.993783	0.993333
H185	H	-0.485934	0.463369	0.495962
H186	H	0.014066	0.963369	0.995962
H187	H	-0.540634	0.501803	0.551830
H188	H	-0.040634	1.001803	1.051830
H189	H	-0.519018	0.550141	0.466043
H190	H	-0.019018	1.050141	0.966043
H191	H	-0.731914	0.811355	0.232884
H192	H	-0.231914	1.311355	0.732884
O193	O	-0.851316	0.394721	0.808036
O194	O	-0.351316	0.894721	1.308036
C195	C	-0.864746	0.465939	0.833812
C196	C	-0.364746	0.965939	1.333812
H197	H	-0.841422	0.479038	0.885955
H198	H	-0.341422	0.979038	1.385955
H199	H	-0.908199	0.467667	0.847101
H200	H	-0.408199	0.967667	1.347101
H201	H	-0.855480	0.508698	0.789223
H202	H	-0.355480	1.008698	1.289223
O203	O	-0.851240	0.806747	0.394599
O204	O	-0.351240	1.306747	0.894599
C205	C	-0.850648	0.728647	0.393681
C206	C	-0.350648	1.228647	0.893681
H207	H	-0.817606	0.708558	0.356504
H208	H	-0.317606	1.208558	0.856504
H209	H	-0.889443	0.707236	0.371451
H210	H	-0.389443	1.207236	0.871451
H211	H	-0.844416	0.706995	0.452345
H212	H	-0.344416	1.206995	0.952345
H213	H	-0.778993	0.483081	0.904792
H214	H	-0.278993	0.983081	1.404792
H215	H	-0.206223	0.491888	0.491471
H216	H	0.293777	0.991888	0.991471
O217	O	-0.825814	0.258452	0.908720
O218	O	-0.325814	0.758452	1.408720
C219	C	-0.876007	0.277848	0.883416
C220	C	-0.376007	0.777848	1.383416
H221	H	-0.876976	0.339464	0.869630
H222	H	-0.376976	0.839464	1.369630
H223	H	-0.905900	0.265388	0.928491
H224	H	-0.405900	0.765388	1.428491
H225	H	-0.885731	0.244377	0.831668
H226	H	-0.385731	0.744377	1.331668
H227	H	-0.206232	0.224092	0.224601
H228	H	0.293768	0.724092	0.724601
O229	O	-0.309480	0.499377	0.498968
O230	O	0.190520	0.999377	0.998968
C231	C	-0.273665	0.541376	0.540805
C232	C	0.226335	1.041376	1.040805
H233	H	-0.234752	0.510960	0.543425
H234	H	0.265248	1.010960	1.043425
H235	H	-0.289446	0.549393	0.599306
H236	H	0.210554	1.049393	1.099306
H237	H	-0.267838	0.597735	0.513517
H238	H	0.232162	1.097735	1.013517
O239	O	-0.058369	0.451730	0.451640
O240	O	0.441631	0.951730	0.951640
C241	C	-0.045029	0.435637	0.525683
C242	C	0.454971	0.935637	1.025683
H243	H	-0.030034	0.376316	0.529533
H244	H	0.469966	0.876316	1.029533
H245	H	-0.080941	0.442093	0.562364
H246	H	0.419059	0.942093	1.062364
H247	H	-0.013326	0.475488	0.545028
H248	H	0.486674	0.975488	1.045028
O249	O	0.049335	0.451749	0.451529
O250	O	0.549335	0.951749	0.951529
C251	C	0.103382	0.441559	0.441354
C252	C	0.603382	0.941559	0.941354
H253	H	0.110825	0.384206	0.417124
H254	H	0.610825	0.884206	0.917124
H255	H	0.124126	0.446684	0.496975
H256	H	0.624126	0.946684	0.996975
H257	H	0.118898	0.485545	0.401735
H258	H	0.618898	0.985545	0.901735
O259	O	0.049184	0.264281	0.264487
O260	O	0.549184	0.764281	0.764487
C261	C	0.035863	0.280408	0.190443
C262	C	0.535863	0.780408	0.690443
H263	H	-0.003772	0.308961	0.188862
H264	H	0.496228	0.808961	0.688862
H265	H	0.033977	0.226757	0.157230
H266	H	0.533977	0.726757	0.657230
H267	H	0.066611	0.318543	0.165365
H268	H	0.566611	0.818543	0.665365
O269	O	-0.058447	0.264330	0.264541
O270	O	0.441553	0.764330	0.764541
C271	C	-0.090000	0.306527	0.216484
C272	C	0.410000	0.806527	0.716484
H273	H	-0.098179	0.362848	0.242583
H274	H	0.401821	0.862848	0.742583
H275	H	-0.128400	0.276252	0.206568
H276	H	0.371600	0.776252	0.706568
H277	H	-0.068939	0.314604	0.161442
H278	H	0.431061	0.814604	0.661442
O279	O	-0.309552	0.216687	0.217033
O280	O	0.190448	0.716687	0.717033
C281	C	-0.296175	0.232782	0.142993
C282	C	0.203825	0.732782	0.642993
H283	H	-0.281149	0.292106	0.139147
H284	H	0.218851	0.792106	0.639147
H285	H	-0.332076	0.226320	0.106303
H286	H	0.167924	0.726320	0.606303
H287	H	-0.264485	0.192936	0.123657
H288	H	0.235515	0.692936	0.623657
O289	O	-0.453171	0.264115	0.264474
O290	O	0.046829	0.764115	0.764474
C291	C	-0.488980	0.222140	0.222603
C292	C	0.011020	0.722140	0.722603
H293	H	-0.527912	0.219622	0.253015
H294	H	-0.027912	0.719622	0.753015
H295	H	-0.473220	0.163613	0.214784
H296	H	0.026780	0.663613	0.714784
H297	H	-0.494763	0.249241	0.166152
H298	H	0.005237	0.749241	0.666152
O299	O	-0.560798	0.264277	0.264443
O300	O	-0.060798	0.764277	0.764443
C301	C	-0.592354	0.306477	0.216389
C302	C	-0.092354	0.806477	0.716389
H303	H	-0.600518	0.362805	0.242481
H304	H	-0.100518	0.862805	0.742481
H305	H	-0.630760	0.276212	0.206493
H306	H	-0.130760	0.776212	0.706493
H307	H	-0.571301	0.314536	0.161338
H308	H	-0.071301	0.814536	0.661338
O309	O	-0.729870	0.221978	0.807624
O310	O	-0.229870	0.721978	1.307624
C311	C	-0.730511	0.222792	0.729523
C312	C	-0.230511	0.722792	1.229523
H313	H	-0.756630	0.269755	0.709400
H314	H	-0.256630	0.769755	1.209400
H315	H	-0.746222	0.167702	0.708157
H316	H	-0.246222	0.667702	1.208157
H317	H	-0.689199	0.231577	0.707858
H318	H	-0.189199	0.731577	1.207858
