data_functionalizedCrystal
_audit_creation_method	'MofGen! by Chris Wilmer'
_symmetry_space_group_name_H-M	'P1'
_symmetry_Int_Tables_number	1
_symmetry_cell_setting	triclinic
loop_
_symmetry_equiv_pos_as_xyz
  x,y,z
_cell_length_a	15.944493
_cell_length_b	15.944499
_cell_length_c	10.868271
_cell_angle_alpha	90.002322
_cell_angle_beta	90.000114
_cell_angle_gamma	83.476327
loop_
_atom_site_label
_atom_site_type_symbol
_atom_site_fract_x
_atom_site_fract_y
_atom_site_fract_z
O1	O	1.114530	0.108104	0.102297
O2	O	0.869971	0.121512	0.102302
O3	O	0.998951	-0.007471	0.102301
O4	O	0.985549	0.237087	0.102298
O5	O	0.998950	-0.007478	-0.102343
O6	O	0.869969	0.121505	-0.102343
O7	O	1.114528	0.108097	-0.102348
Zn8	Zn	0.992248	0.114800	-0.134837
Zn9	Zn	0.992250	0.114809	0.134791
O10	O	0.985548	0.237080	-0.102347
C11	C	0.838675	0.120960	-0.000020
C12	C	0.745427	0.119317	-0.000017
C13	C	0.509653	0.195240	-0.000018
C14	C	0.459102	0.154294	-0.100923
C15	C	0.574707	0.116273	-0.000020
C16	C	0.459108	0.154282	0.100841
C17	C	0.409798	0.113339	-0.000017
C18	C	0.525383	0.075349	-0.101008
C19	C	0.525393	0.075349	0.100846
C20	C	0.474874	0.034346	-0.000084
C21	C	0.669706	0.117966	-0.000023
C22	C	0.314801	0.111640	-0.000023
C23	C	0.998402	-0.038769	-0.000018
C24	C	0.996757	-0.132017	-0.000008
C25	C	1.071691	-0.423569	-0.000017
C26	C	1.032738	-0.362539	-0.100921
C27	C	0.990780	-0.467653	-0.000023
C28	C	1.032717	-0.362538	0.100843
C29	C	0.993721	-0.302744	-0.000014
C30	C	0.951804	-0.407851	-0.101010
C31	C	0.951796	-0.407856	0.100844
C32	C	0.912783	-0.346844	-0.000085
C33	C	0.989089	-0.562652	-0.000029
C34	C	0.995407	-0.207746	-0.000016
C35	C	1.145824	0.108649	-0.000023
C36	C	1.239072	0.110292	-0.000018
C37	C	0.986097	0.268378	-0.000025
C38	C	0.987742	0.361626	-0.000027
N39	N	0.992252	0.114809	0.318805
N40	N	0.992253	0.114793	-0.318851
C41	C	0.992250	0.114804	0.569811
C42	C	0.992249	0.114810	0.430134
H43	H	0.459421	-0.033727	-0.000141
H44	H	0.430164	0.187650	0.186136
H45	H	0.554346	0.042028	0.186158
H46	H	1.066960	-0.342458	-0.186227
C47	C	1.162398	-0.468623	-0.000143
C48	C	1.222588	-0.454424	-0.107040
C49	C	1.313292	-0.499479	-0.107173
C50	C	1.343807	-0.558734	-0.000409
C51	C	1.283617	-0.572937	0.106496
C52	C	1.192913	-0.527882	0.106628
H53	H	1.199999	-0.410557	-0.186080
H54	H	1.357848	-0.488965	-0.186311
H55	H	1.410952	-0.592087	-0.000507
H56	H	1.306205	-0.616804	0.185536
H57	H	1.148356	-0.538396	0.185767
H58	H	0.917602	-0.427959	0.186154
C59	C	0.905615	-0.434831	-0.216383
C60	C	0.895528	-0.528636	-0.237735
C61	C	0.849343	-0.555619	-0.353107
C62	C	0.813243	-0.488797	-0.447128
C63	C	0.823329	-0.394986	-0.425780
C64	C	0.869514	-0.368003	-0.310407
H65	H	0.922252	-0.578108	-0.168132
H66	H	0.841877	-0.625065	-0.368910
H67	H	0.779054	-0.508771	-0.532534
H68	H	0.796605	-0.345514	-0.495382
H69	H	0.876980	-0.298557	-0.294604
C70	C	0.419994	0.199339	-0.216165
C71	C	0.353357	0.276598	-0.202383
C72	C	0.314253	0.321650	-0.317620
C73	C	0.341786	0.289441	-0.446640
C74	C	0.408427	0.212178	-0.460428
C75	C	0.447530	0.167127	-0.345191
H76	H	0.332973	0.300445	-0.106870
H77	H	0.264922	0.378845	-0.307412
H78	H	0.312839	0.322791	-0.531945
H79	H	0.428811	0.188332	-0.555941
H80	H	0.496862	0.109931	-0.355398
H81	H	0.845577	-0.313648	-0.000142
C82	C	1.078947	-0.335455	0.216117
C83	C	1.171944	-0.369745	0.238281
C84	C	1.218174	-0.342684	0.353566
C85	C	1.171407	-0.281332	0.446686
C86	C	1.078405	-0.247038	0.424525
C87	C	1.032175	-0.274099	0.309241
H88	H	1.206568	-0.415165	0.169345
H89	H	1.287020	-0.368071	0.369970
H90	H	1.205629	-0.261299	0.532027
H91	H	1.043781	-0.201618	0.493461
H92	H	0.963329	-0.248712	0.292836
H93	H	0.554217	0.042017	-0.186400
C94	C	0.530759	0.287125	-0.000146
C95	C	0.500872	0.346525	-0.107045
C96	C	0.521980	0.438407	-0.107179
C97	C	0.572974	0.470891	-0.000414
C98	C	0.602863	0.411491	0.106493
C99	C	0.581756	0.319608	0.106627
H100	H	0.463121	0.322479	-0.186085
H101	H	0.499854	0.482379	-0.186319
H102	H	0.588599	0.538908	-0.000514
H103	H	0.640615	0.435536	0.185534
H104	H	0.603882	0.275636	0.185767
