data_functionalizedCrystal
_audit_creation_method	'MofGen! by Chris Wilmer'
_symmetry_space_group_name_H-M	'P1'
_symmetry_Int_Tables_number	1
_symmetry_cell_setting	triclinic
loop_
_symmetry_equiv_pos_as_xyz
  x,y,z
_cell_length_a	13.262975
_cell_length_b	12.837943
_cell_length_c	11.804366
_cell_angle_alpha	76.879282
_cell_angle_beta	62.679331
_cell_angle_gamma	90.565033
loop_
_atom_site_label
_atom_site_type_symbol
_atom_site_fract_x
_atom_site_fract_y
_atom_site_fract_z
O1	O	0.270766	-1.379027	0.011328
O2	O	0.256383	-1.078146	0.015992
O3	O	0.101429	-1.247234	0.066157
O4	O	0.425721	-1.209940	-0.038837
O5	O	0.142176	-1.202722	-0.145090
O6	O	0.297130	-1.033634	-0.195255
O7	O	0.311514	-1.334515	-0.199920
Cu8	Cu	0.308042	-1.180010	-0.216876
Cu9	Cu	0.259854	-1.232651	0.032948
O10	O	0.466468	-1.165428	-0.250085
C11	C	0.271898	-1.017581	-0.088058
C12	C	0.257408	-0.903434	-0.083363
N13	N	0.341936	-1.142993	-0.392589
C14	C	0.080005	-1.226976	-0.025932
C15	C	-0.044537	-1.232918	0.014399
C16	C	-0.125235	-1.259989	0.148507
C17	C	-0.242254	-1.265590	0.186428
C18	C	-0.278589	-1.244130	0.090246
C19	C	-0.197891	-1.217066	-0.043865
C20	C	-0.080860	-1.211456	-0.081791
C21	C	-0.234214	-1.195597	-0.140052
C22	C	-0.153516	-1.168534	-0.274162
C23	C	-0.036497	-1.162925	-0.312081
C24	C	-0.000162	-1.184386	-0.215899
C25	C	-0.351246	-1.201207	-0.102126
C26	C	-0.306871	-1.152675	-0.332423
C27	C	-0.189851	-1.147073	-0.370345
C28	C	0.487891	-1.185686	-0.157993
C29	C	0.612432	-1.179745	-0.198315
C30	C	0.295998	-1.395081	-0.095867
C31	C	0.310487	-1.509230	-0.100554
C32	C	0.431606	-0.651302	-0.139779
C33	C	0.417996	-0.544049	-0.135371
C34	C	0.216581	-0.581671	-0.070147
C35	C	0.230191	-0.688924	-0.074555
C36	C	0.337706	-0.723735	-0.109371
C37	C	0.351314	-0.830992	-0.113770
C38	C	0.149901	-0.868610	-0.048555
C39	C	0.136291	-0.761357	-0.044147
C40	C	0.423348	-1.054101	-0.481292
C41	C	0.449004	-1.026107	-0.614259
C42	C	0.393243	-1.086997	-0.658535
C43	C	0.311823	-1.175886	-0.569830
C44	C	0.286171	-1.203888	-0.436852
C45	C	0.256066	-1.236784	-0.614095
C46	C	0.174646	-1.325673	-0.525390
C47	C	0.148997	-1.353670	-0.392425
C48	C	0.204758	-1.292780	-0.348149
C49	C	0.281718	-1.208782	-0.747073
C50	C	0.144541	-1.358569	-0.702633
C51	C	0.118885	-1.386563	-0.569666
N52	N	0.225953	-1.269677	0.208664
H53	H	-0.373873	-1.248691	0.121130
O54	O	-0.320490	-1.291975	0.316750
C55	C	-0.352147	-1.339532	0.541170
C56	C	-0.263422	-1.309663	0.393618
H57	H	-0.306041	-1.353819	0.603359
H58	H	-0.410504	-1.416070	0.565522
H59	H	-0.405590	-1.270737	0.563859
H60	H	-0.209900	-1.378389	0.370823
H61	H	-0.205144	-1.233093	0.369342
H62	H	0.348011	-1.136408	-0.819286
H63	H	0.029206	-1.140884	-0.421283
H64	H	-0.124131	-1.125037	-0.479540
O65	O	0.112132	-0.547834	-0.036123
C66	C	-0.041184	-0.471541	0.116070
C67	C	0.077091	-0.509850	0.077708
H68	H	-0.069541	-0.440800	0.208089
H69	H	-0.106036	-0.541708	0.137147
H70	H	-0.035498	-0.403678	0.031300
H71	H	0.071516	-0.577691	0.162428
H72	H	0.141896	-0.439623	0.056584
H73	H	0.052591	-1.458939	-0.497426
O74	O	0.031767	-0.727698	-0.010136
C75	C	-0.165628	-0.750050	0.156444
C76	C	-0.047321	-0.788286	0.118076
H77	H	-0.229598	-0.799001	0.260116
H78	H	-0.195660	-0.761836	0.083345
H79	H	-0.159186	-0.660938	0.154299
H80	H	-0.053670	-0.877402	0.120232
H81	H	-0.017333	-0.776419	0.191181
H82	H	0.414136	-1.064200	-0.766804
H83	H	0.099137	-1.408153	-0.738681
O84	O	-0.429732	-1.227626	0.028102
C85	C	-0.590640	-1.352107	0.205611
C86	C	-0.501840	-1.322295	0.058088
H87	H	-0.648947	-1.428661	0.229907
H88	H	-0.644121	-1.283344	0.228368
H89	H	-0.544530	-1.366421	0.267795
H90	H	-0.547857	-1.307999	-0.004194
H91	H	-0.448364	-1.391074	0.035436
H92	H	0.073439	-0.927600	-0.023786
H93	H	0.515297	-0.953735	-0.686478
H94	H	0.183866	-1.315570	-0.239876
H95	H	0.468748	-1.004537	-0.445234
H96	H	-0.336452	-1.135196	-0.410744
H97	H	0.519149	-0.679646	-0.168125
H98	H	0.082710	-1.426056	-0.320203
H99	H	0.494460	-0.485075	-0.160136
O100	O	0.455774	-0.864719	-0.147439
C101	C	0.610957	-0.888488	-0.095058
C102	C	0.492667	-0.850238	-0.056793
H103	H	0.640811	-0.876816	-0.021776
H104	H	0.675050	-0.839474	-0.198644
H105	H	0.604545	-0.977575	-0.093038
H106	H	0.498968	-0.761167	-0.058735
H107	H	0.428621	-0.899329	0.046770
H108	H	-0.095638	-1.277453	0.226804
H109	H	0.095123	-1.179832	-0.246768
