data_functionalizedCrystal
_audit_creation_method	'MofGen! by Chris Wilmer'
_symmetry_space_group_name_H-M	'P1'
_symmetry_Int_Tables_number	1
_symmetry_cell_setting	triclinic
loop_
_symmetry_equiv_pos_as_xyz
  x,y,z
_cell_length_a	20.875641
_cell_length_b	17.917603
_cell_length_c	20.875625
_cell_angle_alpha	58.651218
_cell_angle_beta	92.966338
_cell_angle_gamma	60.697174
loop_
_atom_site_label
_atom_site_type_symbol
_atom_site_fract_x
_atom_site_fract_y
_atom_site_fract_z
Zr1	Zr	0.667571	0.761507	-0.089481
O2	O	0.561873	0.926581	-0.202239
O3	O	0.695814	0.603062	-0.050849
O4	O	0.694609	0.759195	-0.190822
O5	O	0.568759	0.769959	0.043522
O6	O	0.804046	0.749831	-0.186442
O7	O	0.563077	0.770448	-0.062266
O8	O	0.806200	0.470538	0.063944
O9	O	0.566604	1.049253	-0.206864
O10	O	0.794555	0.658789	-0.036017
O11	O	0.717124	0.665413	0.039663
O12	O	0.715706	0.849239	-0.125137
O13	O	0.638275	0.855864	-0.049458
Zr14	Zr	0.851170	0.745793	0.086224
Zr15	Zr	0.842109	0.746572	-0.082496
Zr16	Zr	0.676632	0.760728	0.079238
Zr17	Zr	0.675117	0.957154	-0.096858
Zr18	Zr	0.843625	0.550145	0.093601
O19	O	0.822927	0.904237	0.047592
O20	O	0.810043	0.905345	-0.192305
O21	O	0.574756	0.925473	0.037659
O22	O	0.956869	0.580719	0.198981
O23	O	0.943985	0.581826	-0.040916
O24	O	0.708698	0.601955	0.189048
O25	O	0.949983	0.737340	-0.046780
O26	O	0.824132	0.748104	0.187565
O27	O	0.714696	0.757469	0.183185
O28	O	0.955664	0.736852	0.059008
O29	O	0.705338	1.037381	-0.201311
O30	O	0.813403	0.469919	0.198053
O31	O	0.952138	0.458047	0.203606
O32	O	0.944935	0.458666	0.069497
O33	O	0.573806	1.048633	-0.072754
O34	O	0.712541	1.036762	-0.067201
O35	O	0.803035	0.658060	0.121880
O36	O	0.880466	0.651436	0.046201
O37	O	0.801617	0.841886	-0.042920
O38	O	0.724186	0.848511	0.032759
C39	C	0.541050	0.772332	-0.010367
C40	C	0.466954	0.778672	-0.013333
C41	C	0.749932	0.508925	0.007598
C42	C	0.746729	0.425867	0.010730
C43	C	0.473300	0.682240	0.031790
C44	C	0.403676	0.688204	0.029001
C45	C	0.327707	0.790601	-0.018915
C46	C	0.321363	0.887040	-0.064039
C47	C	0.390986	0.881075	-0.061245
C48	C	0.115067	0.819102	-0.032255
C49	C	0.045442	0.825059	-0.035047
C50	C	0.127760	0.626223	0.057995
C51	C	0.197380	0.620267	0.060780
C52	C	0.191031	0.716705	0.015660
N53	N	0.256539	0.796700	-0.021769
N54	N	0.262198	0.710606	0.018519
C55	C	0.740876	0.273798	0.016448
C56	C	0.777864	0.233497	-0.019704
C57	C	0.774607	0.148880	-0.016522
C58	C	0.744131	0.358422	0.013267
C59	C	0.977691	0.734968	0.007110
C60	C	1.051787	0.728628	0.010075
C61	C	0.748036	0.754624	-0.212671
C62	C	0.744190	0.754955	-0.284297
C63	C	0.768809	0.998375	-0.010856
C64	C	0.772013	1.081433	-0.013987
C65	C	0.802671	0.749952	-0.315534
C66	C	0.799059	0.750253	-0.382830
C67	C	0.736961	0.755565	-0.418891
C68	C	0.678476	0.760565	-0.387648
C69	C	0.682092	0.760256	-0.320350
C70	C	0.719683	0.757035	-0.620419
C71	C	0.716070	0.757347	-0.687724
C72	C	0.836654	0.747034	-0.682900
C73	C	0.840262	0.746732	-0.615603
C74	C	0.781780	0.751726	-0.584364
N75	N	0.733265	0.755877	-0.487680
N76	N	0.785479	0.751406	-0.515573
C77	C	0.770705	0.752675	0.209414
C78	C	0.774552	0.752345	0.281040
C79	C	0.968253	0.490243	0.016337
C80	C	1.039145	0.400845	0.022434
C81	C	0.761266	0.507950	0.218641
C82	C	0.761910	0.424562	0.293398
C83	C	0.979587	0.489268	0.227379
C84	C	1.054326	0.399540	0.305102
C85	C	0.539154	1.018031	-0.230636
C86	C	0.464415	1.107760	-0.308360
C87	C	0.550489	1.017057	-0.019594
C88	C	0.479596	1.106455	-0.025691
C89	C	0.757475	0.999349	-0.221898
C90	C	0.756832	1.082737	-0.296655
C91	C	1.027592	0.362701	-0.017626
C92	C	1.094196	0.278713	-0.011914
C93	C	1.172353	0.232866	0.033864
C94	C	1.183905	0.271018	0.073925
C95	C	1.117302	0.355009	0.068208
C96	C	0.807057	0.381564	0.371428
C97	C	0.807659	0.303223	0.441677
C98	C	0.763118	0.267876	0.433893
C99	C	0.717965	0.310882	0.355855
C100	C	0.717359	0.389228	0.285608
C101	C	1.129850	0.353944	0.302098
C102	C	1.200083	0.269645	0.375121
C103	C	1.194789	0.230938	0.451146
C104	C	1.119257	0.276542	0.454148
C105	C	1.049027	0.360845	0.381126
C106	C	0.388891	1.153365	-0.305356
C107	C	0.318660	1.237688	-0.378379
C108	C	0.323954	1.276400	-0.454405
C109	C	0.399485	1.230790	-0.457407
C110	C	0.469715	1.146474	-0.384385
C111	C	0.491149	1.144607	0.014362
C112	C	0.424545	1.228616	0.008630
C113	C	0.346388	1.274466	-0.037151
C114	C	0.334836	1.236310	-0.077209
C115	C	0.401440	1.152308	-0.071481
C116	C	0.801381	1.118059	-0.288845
C117	C	0.800793	1.196399	-0.359080
C118	C	0.755649	1.239422	-0.437125
C119	C	0.711098	1.204093	-0.444933
C120	C	0.711692	1.125749	-0.374699
H121	H	0.535154	0.598857	0.070812
H122	H	0.811975	0.262544	-0.053044
H123	H	0.266762	1.345056	-0.513859
H124	H	0.838142	1.083041	-0.225304
N125	N	0.619020	0.765643	-0.286651
H126	H	0.579131	0.769055	-0.319707
H127	H	0.589901	0.833345	-0.290468
N128	N	0.611502	0.766282	-0.426534
H129	H	0.618083	0.765722	-0.473908
H130	H	0.557813	0.836088	-0.447459
H131	H	0.554782	1.107282	0.051646
N132	N	0.649083	0.763092	-0.726628
H133	H	0.612582	0.766212	-0.696628
H134	H	0.672944	0.695844	-0.723027
N135	N	0.388963	1.111161	-0.114677
H136	H	0.414947	1.030342	-0.072847
H137	H	0.414229	1.122690	-0.155590
N138	N	0.383167	1.111638	-0.223365
H139	H	0.439113	1.051302	-0.177553
H140	H	0.351461	1.081933	-0.217146
N141	N	0.669932	0.272747	0.347466
H142	H	0.677177	0.216586	0.403813
H143	H	0.689481	0.238636	0.319831
H144	H	0.987535	0.397959	0.383584
N145	N	1.244186	0.142277	0.040026
H146	H	1.225000	0.125075	0.007700
H147	H	1.278170	0.074446	0.099639
H148	H	0.257166	1.274810	-0.375919
H149	H	0.963959	0.400029	-0.054913
H150	H	0.531208	1.109343	-0.386840
N151	N	0.668616	0.435659	0.201443
H152	H	0.640480	0.401392	0.207178
H153	H	0.705597	0.418902	0.173758
N154	N	1.113549	0.234787	0.536148
H155	H	1.142660	0.245918	0.566476
H156	H	1.139106	0.154014	0.569867
H157	H	1.084775	0.247661	-0.044537
H158	H	0.403786	1.262320	-0.519316
H159	H	1.247549	0.233677	0.111197
N160	N	0.848848	1.234491	-0.350648
H161	H	0.877528	1.195351	-0.290549
H162	H	0.811329	1.316303	-0.381297
H163	H	0.706766	0.244755	0.049785
H164	H	1.261577	0.232522	0.372662
H165	H	0.763619	0.204082	0.491100
N166	N	0.108212	0.923115	-0.080935
H167	H	0.080222	0.967444	-0.062136
H168	H	0.075996	0.967696	-0.141376
H169	H	0.271192	1.273654	-0.114483
H170	H	0.433966	1.259668	0.041254
H171	H	0.890828	0.742407	-0.586243
H172	H	0.292162	1.342865	-0.041808
H173	H	1.251982	0.162292	0.510599
N174	N	0.755021	1.323912	-0.512874
H175	H	0.790097	1.339752	-0.496076
H176	H	0.698022	1.393716	-0.549996
N177	N	0.855104	0.419671	0.379843
H178	H	0.835579	0.453832	0.407451
H179	H	0.847862	0.475788	0.323482
H180	H	0.674344	1.239135	-0.508487
N181	N	0.663638	1.087658	-0.383128
H182	H	0.634951	1.126808	-0.443229
H183	H	0.622698	1.104796	-0.359237
N184	N	0.869645	0.744233	-0.276646
H185	H	0.906145	0.741107	-0.306648
H186	H	0.901764	0.676271	-0.216980
N187	N	1.129768	0.396142	0.111422
H188	H	1.189388	0.354345	0.141288
H189	H	1.104450	0.384671	0.152290
N190	N	1.135571	0.395673	0.220105
H191	H	1.194078	0.353987	0.229295
H192	H	1.109964	0.476465	0.186346
H193	H	0.408850	0.609679	0.065746
H194	H	0.259233	0.536884	0.099783
N195	N	0.134614	0.522207	0.106670
H196	H	0.162598	0.477889	0.087861
H197	H	0.078960	0.541601	0.097618
H198	H	-0.016417	0.908448	-0.074070
N199	N	0.239424	0.997479	-0.115713
H200	H	0.206576	1.004571	-0.158581
H201	H	0.246036	1.057601	-0.143818
N202	N	0.384146	0.985083	-0.109911
H203	H	0.325456	1.050857	-0.140691
H204	H	0.409114	0.987123	-0.150413
H205	H	0.844430	0.268216	0.505213
H206	H	0.884269	0.742966	-0.708340
N207	N	0.862112	0.744914	-0.416548
H208	H	0.901988	0.741529	-0.383504
H209	H	0.835213	0.812447	-0.476000
H210	H	0.672063	0.761104	-0.594991
