data_functionalizedCrystal
_audit_creation_method	'MofGen! by Chris Wilmer'
_symmetry_space_group_name_H-M	'P1'
_symmetry_Int_Tables_number	1
_symmetry_cell_setting	triclinic
loop_
_symmetry_equiv_pos_as_xyz
  x,y,z
_cell_length_a	14.908782
_cell_length_b	14.908178
_cell_length_c	14.908308
_cell_angle_alpha	89.778379
_cell_angle_beta	96.759680
_cell_angle_gamma	90.210875
loop_
_atom_site_label
_atom_site_type_symbol
_atom_site_fract_x
_atom_site_fract_y
_atom_site_fract_z
Zn1	Zn	1.329186	-0.459296	-0.406715
Zn2	Zn	1.829186	0.040704	0.093285
Zn3	Zn	1.330096	-0.601055	-0.247621
Zn4	Zn	1.830096	-0.101055	0.252379
Zn5	Zn	1.187450	-0.442980	-0.265011
Zn6	Zn	1.687450	0.057020	0.234989
Zn7	Zn	1.170072	-0.601006	-0.407684
Zn8	Zn	1.670072	-0.101006	0.092316
O9	O	1.254201	-0.526084	-0.331758
O10	O	1.754201	-0.026084	0.168242
O11	O	1.455594	-0.484950	-0.377928
O12	O	1.955594	0.015050	0.122072
O13	O	1.318828	-0.573279	-0.123637
O14	O	1.818828	-0.073279	0.376363
O15	O	1.213143	-0.319684	-0.290681
O16	O	1.713143	0.180316	0.209319
O17	O	1.456263	-0.589100	-0.261042
O18	O	1.956263	-0.089100	0.238958
O19	O	1.317276	-0.331671	-0.394791
O20	O	1.817276	0.168329	0.105209
O21	O	1.214027	-0.457142	-0.136414
O22	O	1.714027	0.042858	0.363586
O23	O	1.058858	-0.457094	-0.291620
O24	O	1.558858	0.042906	0.208380
O25	O	1.183525	-0.589015	-0.533846
O26	O	1.683525	-0.089015	-0.033846
O27	O	1.046090	-0.573194	-0.396442
O28	O	1.546090	-0.073194	0.103558
O29	O	1.300425	-0.484902	-0.533135
O30	O	1.800425	0.015098	-0.033135
O31	O	1.301977	-0.726509	-0.261981
O32	O	1.801977	-0.226509	0.238019
O33	O	1.184408	-0.726473	-0.379579
O34	O	1.684408	-0.226473	0.120421
C35	C	1.019729	-0.513369	-0.346024
C36	C	1.519729	-0.013369	0.153976
C37	C	0.919418	-0.507952	-0.352147
C38	C	1.419418	-0.007952	0.147853
C39	C	0.731638	-0.606057	-0.241772
C40	C	1.231638	-0.106057	0.258228
C41	C	0.637388	-0.600970	-0.247522
C42	C	1.137388	-0.100970	0.252478
C43	C	0.636664	-0.492696	-0.369402
C44	C	1.136664	0.007304	0.130598
C45	C	0.730914	-0.497783	-0.363651
C46	C	1.230914	0.002217	0.136349
C47	C	0.778399	-0.554464	-0.299833
C48	C	1.278399	-0.054464	0.200167
C49	C	0.872652	-0.559546	-0.294079
C50	C	1.372652	-0.059546	0.205921
C51	C	0.871926	-0.451278	-0.415962
C52	C	1.371926	0.048722	0.084038
C53	C	0.777675	-0.446191	-0.421713
C54	C	1.277675	0.053809	0.078287
C55	C	1.241429	-0.759024	-0.319016
C56	C	1.741429	-0.259024	0.180984
C57	C	1.236046	-0.858683	-0.313590
C58	C	1.736046	-0.358683	0.186410
C59	C	1.334268	-1.058287	-0.411932
C60	C	1.834268	-0.558287	0.088068
C61	C	1.329213	-1.151925	-0.406837
C62	C	1.829213	-0.651925	0.093163
C63	C	1.220877	-1.139601	-0.298310
C64	C	1.720877	-0.639601	0.201690
C65	C	1.225932	-1.045962	-0.303405
C66	C	1.725932	-0.545962	0.196595
C67	C	1.282630	-1.005308	-0.360217
C68	C	1.782630	-0.505308	0.139783
C69	C	1.287690	-0.911668	-0.365307
C70	C	1.787690	-0.411668	0.134693
C71	C	1.179349	-0.899345	-0.256785
C72	C	1.679349	-0.399345	0.243215
C73	C	1.174294	-0.992984	-0.251690
C74	C	1.674294	-0.492984	0.248310
C75	C	1.489589	-0.538850	-0.317437
C76	C	1.989589	-0.038850	0.182563
C77	C	1.589897	-0.544290	-0.311334
C78	C	2.089897	-0.044290	0.188666
C79	C	1.239935	-0.538773	-0.567152
C80	C	1.739935	-0.038773	-0.067152
C81	C	1.233856	-0.544180	-0.667463
C82	C	1.733856	-0.044180	-0.167463
C83	C	1.267046	-0.292237	-0.344568
C84	C	1.767046	0.207763	0.155432
C85	C	1.272520	-0.192586	-0.350027
C86	C	1.772520	0.307414	0.149973
C87	C	1.344158	-0.445906	-0.855219
C88	C	1.844158	0.054094	-0.355219
C89	C	1.338449	-0.450984	-0.949470
C90	C	1.838449	0.049016	-0.449470
C91	C	1.216725	-0.559407	-0.950218
C92	C	1.716725	-0.059407	-0.450218
C93	C	1.222434	-0.554330	-0.855967
C94	C	1.722434	-0.054330	-0.355967
C95	C	1.286154	-0.497578	-0.808471
C96	C	1.786154	0.002422	-0.308471
C97	C	1.291866	-0.492506	-0.714218
C98	C	1.791866	0.007494	-0.214218
C99	C	1.170138	-0.600924	-0.714967
C100	C	1.670138	-0.100924	-0.214967
C101	C	1.164429	-0.606002	-0.809218
C102	C	1.664429	-0.106002	-0.309218
C103	C	1.268467	-0.513383	-0.097280
C104	C	1.768467	-0.013383	0.402720
C105	C	1.274735	-0.507733	0.003027
C106	C	1.774735	-0.007733	0.503027
H107	H	0.739000	-0.400045	-0.473674
H108	H	1.239000	0.099955	0.026326
C109	C	0.783874	-0.668402	-0.171569
C110	C	1.283874	-0.168402	0.328431
N111	N	0.823216	-0.715363	-0.118692
N112	N	1.323216	-0.215363	0.381308
C113	C	1.122543	-0.841061	-0.199894
C114	C	1.622543	-0.341061	0.300106
N115	N	1.079760	-0.797161	-0.157044
N116	N	1.579760	-0.297161	0.342956
H117	H	0.599319	-0.642983	-0.200244
H118	H	1.099319	-0.142983	0.299756
C119	C	1.386024	-1.210198	-0.463723
C120	C	1.886024	-0.710198	0.036277
N121	N	1.428818	-1.254090	-0.506571
N122	N	1.928818	-0.754090	-0.006571
C123	C	0.924883	-0.621898	-0.223881
C124	C	1.424883	-0.121898	0.276119
N125	N	0.964220	-0.668867	-0.171008
N126	N	1.464220	-0.168867	0.328992
H127	H	1.122909	-0.643002	-0.676894
H128	H	1.622909	-0.143002	-0.176894
C129	C	0.923369	-0.394524	-0.479836
C130	C	1.423369	0.105476	0.020164
N131	N	0.962118	-0.351777	-0.527943
N132	N	1.462118	0.148223	-0.027943
H133	H	1.128129	-1.026097	-0.205437
H134	H	1.628129	-0.526097	0.294563
H135	H	1.333859	-0.878569	-0.411564
H136	H	1.833859	-0.378569	0.088436
C137	C	1.414253	-0.383485	-0.802971
C138	C	1.914253	0.116515	-0.302971
N139	N	1.467050	-0.336467	-0.763619
N140	N	1.967050	0.163533	-0.263619
H141	H	1.385680	-0.408904	-0.987530
H142	H	1.885680	0.091096	-0.487530
C143	C	1.158626	-1.184336	-0.235708
C144	C	1.658626	-0.684336	0.264292
N145	N	1.111782	-1.218032	-0.188513
N146	N	1.611782	-0.718032	0.311487
H147	H	1.343751	-0.446298	-0.675548
H148	H	1.843751	0.053702	-0.175548
H149	H	1.380441	-1.025186	-0.458185
H150	H	1.880441	-0.525186	0.041815
C151	C	1.146617	-0.621805	-1.002482
C152	C	1.646617	-0.121805	-0.502482
N153	N	1.093806	-0.668797	-1.041850
N154	N	1.593806	-0.168797	-0.541850
C155	C	1.094335	-0.668418	-0.861475
C156	C	1.594335	-0.168418	-0.361475
N157	N	1.041538	-0.715431	-0.900835
N158	N	1.541538	-0.215431	-0.400835
H159	H	0.597985	-0.446557	-0.421366
H160	H	1.097985	0.053443	0.078634
