data_functionalizedCrystal
_audit_creation_method	'MofGen! by Chris Wilmer'
_symmetry_space_group_name_H-M	'P1'
_symmetry_Int_Tables_number	1
_symmetry_cell_setting	triclinic
loop_
_symmetry_equiv_pos_as_xyz
  x,y,z
_cell_length_a	23.196402
_cell_length_b	23.196402
_cell_length_c	23.196401
_cell_angle_alpha	60.008822
_cell_angle_beta	90.011712
_cell_angle_gamma	60.000268
loop_
_atom_site_label
_atom_site_type_symbol
_atom_site_fract_x
_atom_site_fract_y
_atom_site_fract_z
Zr1	Zr	0.555361	0.631008	-0.075647
O2	O	0.463292	0.751273	-0.167690
O3	O	0.583583	0.510742	-0.047434
O4	O	0.583557	0.631009	-0.167699
O5	O	0.463340	0.631004	0.047447
O6	O	0.678427	0.631011	-0.167703
O7	O	0.463318	0.631006	-0.047425
O8	O	0.678473	0.415875	0.047430
O9	O	0.463295	0.846140	-0.167686
O10	O	0.666422	0.560210	-0.035400
O11	O	0.595639	0.560208	0.035404
O12	O	0.595609	0.701807	-0.106193
O13	O	0.524825	0.701805	-0.035389
Zr14	Zr	0.706704	0.631008	0.075657
Zr15	Zr	0.706668	0.631010	-0.075652
Zr16	Zr	0.555397	0.631005	0.075662
Zr17	Zr	0.555365	0.782310	-0.075640
Zr18	Zr	0.706700	0.479705	0.075650
O19	O	0.678482	0.751273	0.047444
O20	O	0.678431	0.751276	-0.167697
O21	O	0.463344	0.751269	0.047452
O22	O	0.798773	0.510742	0.167700
O23	O	0.798721	0.510746	-0.047442
O24	O	0.583634	0.510739	0.167708
O25	O	0.798725	0.631011	-0.047436
O26	O	0.678508	0.631006	0.167710
O27	O	0.583638	0.631004	0.167713
O28	O	0.798747	0.631009	0.047435
O29	O	0.583563	0.846142	-0.167690
O30	O	0.678502	0.415873	0.167700
O31	O	0.798770	0.415875	0.167696
O32	O	0.798741	0.415877	0.047426
O33	O	0.463323	0.846138	-0.047416
O34	O	0.583592	0.846140	-0.047420
O35	O	0.666456	0.560208	0.106203
O36	O	0.737239	0.560210	0.035399
O37	O	0.666426	0.701807	-0.035394
O38	O	0.595643	0.701805	0.035410
C39	C	0.631027	0.441751	-0.000003
C40	C	0.631025	0.377519	-0.000006
C41	C	0.441771	0.631005	0.000012
C42	C	0.377537	0.631004	0.000014
C43	C	0.667969	0.347350	-0.036967
C44	C	0.667976	0.286989	-0.036962
C45	C	0.631025	0.256811	-0.000004
C46	C	0.594080	0.286985	0.036966
C47	C	0.594080	0.347339	0.036965
C48	C	0.569120	0.194781	-0.005276
C49	C	0.569118	0.134432	-0.005280
C50	C	0.631026	0.070656	0.000003
C51	C	0.692936	0.067246	0.005277
C52	C	0.692936	0.127600	0.005276
C53	C	0.631022	0.191367	0.000002
C54	C	0.667980	-0.024964	-0.036954
C55	C	0.667989	-0.085330	-0.036943
C56	C	0.594087	-0.085327	0.036980
C57	C	0.594085	-0.024969	0.036974
C58	C	0.631030	0.005212	0.000003
C59	C	0.384326	0.557094	0.036960
C60	C	0.323972	0.557093	0.036963
C61	C	0.256829	0.631006	0.000006
C62	C	0.250043	0.704925	-0.036942
C63	C	0.310397	0.704924	-0.036938
C64	C	0.132887	0.687634	-0.061903
C65	C	0.072535	0.687632	-0.061908
C66	C	0.070675	0.631012	-0.000005
C67	C	0.129181	0.574380	0.061904
C68	C	0.189535	0.574379	0.061908
C69	C	0.191381	0.631015	-0.000002
C70	C	0.012023	0.557096	0.036948
C71	C	-0.048334	0.557098	0.036953
C72	C	-0.122262	0.704932	-0.036959
C73	C	-0.061906	0.704928	-0.036957
C74	C	0.005235	0.631008	-0.000005
C75	C	0.820294	0.631010	-0.000001
C76	C	0.884527	0.631011	-0.000004
C77	C	0.630987	0.631010	-0.189259
C78	C	0.630972	0.631011	-0.253494
C79	C	0.631038	0.820264	0.000013
C80	C	0.631039	0.884496	0.000016
C81	C	0.594011	0.704921	-0.320620
C82	C	0.594029	0.704922	-0.380975
C83	C	0.630998	0.631009	-0.374200
C84	C	0.667967	0.557090	-0.307062
C85	C	0.667953	0.557091	-0.246709
C86	C	0.625747	0.574381	-0.441520
C87	C	0.625755	0.574383	-0.501873
C88	C	0.631043	0.631003	-0.560348
C89	C	0.636308	0.687635	-0.558468
C90	C	0.636295	0.687636	-0.498115
C91	C	0.631017	0.631000	-0.439639
C92	C	0.594100	0.704919	-0.692921
C93	C	0.594123	0.704917	-0.753276
C94	C	0.668056	0.557083	-0.679360
C95	C	0.668037	0.557087	-0.619007
C96	C	0.631056	0.631007	-0.625792
C97	C	0.631078	0.631005	0.189270
C98	C	0.631093	0.631004	0.253504
C99	C	0.820289	0.441754	-0.000010
C100	C	0.884521	0.377523	-0.000015
C101	C	0.631073	0.441748	0.189261
C102	C	0.631086	0.377516	0.253493
C103	C	0.820334	0.441751	0.189255
C104	C	0.884581	0.377519	0.253484
C105	C	0.441731	0.820264	-0.189245
C106	C	0.377484	0.884496	-0.253474
C107	C	0.441776	0.820261	0.000020
C108	C	0.377544	0.884492	0.000025
C109	C	0.630992	0.820267	-0.189251
C110	C	0.630979	0.884500	-0.253483
C111	C	0.877719	0.347360	-0.036980
C112	C	0.938065	0.287017	-0.036998
C113	C	1.005214	0.256834	-0.000048
C114	C	1.012014	0.287003	0.036918
C115	C	0.951668	0.347349	0.036933
C116	C	0.668058	0.347351	0.320620
C117	C	0.668068	0.287006	0.380978
C118	C	0.631110	0.256822	0.374209
C119	C	0.594133	0.286993	0.307075
C120	C	0.594119	0.347341	0.246718
C121	C	0.951707	0.347357	0.246688
C122	C	1.012080	0.287012	0.307033
C123	C	1.005325	0.256828	0.374173
C124	C	0.938193	0.286997	0.380968
C125	C	0.877821	0.347344	0.320624
C126	C	0.310358	0.914666	-0.246678
C127	C	0.249985	0.975029	-0.307023
C128	C	0.256740	1.005216	-0.374163
C129	C	0.323872	0.975044	-0.380958
C130	C	0.384244	0.914686	-0.320614
C131	C	0.384346	0.914662	0.036984
C132	C	0.323999	0.975022	0.036986
C133	C	0.256851	1.005207	0.000033
C134	C	0.250051	0.975034	-0.036930
C135	C	0.310397	0.914679	-0.036936
C136	C	0.667944	0.914664	-0.246691
C137	C	0.667945	0.975010	-0.307037
C138	C	0.630976	1.005194	-0.374176
C139	C	0.594009	0.975023	-0.380967
C140	C	0.594013	0.914675	-0.320621
H141	H	0.698054	0.371920	-0.067069
N142	N	0.554279	0.254428	0.299776
H143	H	0.517097	0.264925	0.323175
H144	H	0.588239	0.193855	0.323165
H145	H	0.329500	0.496905	0.067050
H146	H	1.066737	0.262455	0.301488
H147	H	0.743345	0.124818	0.009571
N148	N	0.707808	1.007556	-0.299709
H149	H	0.745002	0.997048	-0.323092
H150	H	0.731175	0.979269	-0.248007
N151	N	0.331346	1.007565	0.076845
H152	H	0.282932	1.050390	0.071236
H153	H	0.358040	1.032545	0.057429
H154	H	0.304864	0.765112	-0.067023
H155	H	0.329364	0.999630	-0.435630
H156	H	0.438899	0.890122	-0.326155
H157	H	0.439016	0.890089	0.067080
N158	N	0.502349	0.138105	-0.010938
H159	H	0.464181	0.190523	-0.056615
H160	H	0.486464	0.136024	0.030187
N161	N	0.630983	1.070276	-0.439261
H162	H	0.660014	1.084800	-0.424764
H163	H	0.580909	1.120321	-0.468287
N164	N	0.554198	0.379914	0.174318
H165	H	0.530776	0.351645	0.179195
H166	H	0.588089	0.369437	0.147626
N167	N	1.070298	0.191747	-0.000068
H168	H	1.055794	0.177222	-0.029093
H169	H	1.099333	0.141705	0.050001
N170	N	1.084441	0.254431	0.076782
H171	H	1.079601	0.282690	0.100207
H172	H	1.111086	0.264931	0.042847
N173	N	0.191767	1.070303	0.000042
H174	H	0.206271	1.084829	0.029067
H175	H	0.162748	1.049255	0.021062
N176	N	0.177625	1.007581	-0.076772
H177	H	0.140434	1.050385	-0.071148
H178	H	0.172045	0.961482	-0.057353
H179	H	0.698157	0.496901	-0.673842
N180	N	0.554223	0.784648	-0.700240
H181	H	0.588114	0.787941	-0.676829
H182	H	0.517023	0.787901	-0.676875
N183	N	0.641990	0.748700	-0.496081
H184	H	0.641181	0.740104	-0.448973
H185	H	0.600913	0.805739	-0.535150
N186	N	0.456740	0.477369	0.076810
H187	H	0.451879	0.430547	0.100215
H188	H	0.483402	0.474140	0.113970
N189	N	0.191622	1.070316	-0.439246
H190	H	0.148075	1.084842	-0.424746
H191	H	0.191643	1.049269	-0.468271
N192	N	0.642008	0.748712	-0.621532
H193	H	0.641221	0.740118	-0.660051
H194	H	0.687697	0.741131	-0.607172
H195	H	0.621435	0.528275	-0.393911
N196	N	0.959009	0.379877	0.076807
H197	H	1.010706	0.351594	0.100212
H198	H	0.935595	0.369365	0.113969
H199	H	0.932703	0.262412	0.435641
N200	N	0.554136	1.007588	-0.453385
H201	H	0.502432	1.032635	-0.459043
H202	H	0.573569	0.961515	-0.459007
H203	H	0.195329	0.999585	-0.301477
N204	N	0.303055	0.882142	-0.076801
H205	H	0.251359	0.910425	-0.100206
H206	H	0.326485	0.821559	-0.042870
H207	H	0.631127	0.207683	0.423361
H208	H	0.518700	0.246717	-0.009593
H209	H	0.698155	0.371920	0.326145
N210	N	0.707820	0.882117	-0.174282
H211	H	0.731237	0.910388	-0.179146
H212	H	0.744977	0.821533	-0.147635
H213	H	0.563996	0.262409	0.067058
N214	N	0.707955	0.254470	0.453380
H215	H	0.731370	0.282745	0.448505
H216	H	0.745113	0.193886	0.480031
N217	N	0.009436	0.748715	-0.128677
H218	H	-0.029080	0.740123	-0.119288
H219	H	0.023767	0.741142	-0.166791
N220	N	0.707824	0.254438	-0.076827
H221	H	0.731229	0.282715	-0.100247
H222	H	0.673876	0.264941	-0.113976
N223	N	0.759714	-0.001532	0.010973
H224	H	0.750324	-0.039253	0.010178
H225	H	0.797832	-0.032876	0.056661
N226	N	-0.041010	0.477375	0.076801
H227	H	-0.089431	0.488590	0.071195
H228	H	-0.014308	0.445091	0.128484
N229	N	0.554139	0.882144	-0.327952
H230	H	0.530721	0.910428	-0.379642
H231	H	0.516985	0.892653	-0.304526
H232	H	0.957220	0.371924	0.192025
N233	N	-0.069227	0.784648	-0.076819
H234	H	-0.045838	0.787938	-0.114007
H235	H	-0.045838	0.787897	-0.042876
N236	N	0.707828	0.007591	-0.076824
H237	H	0.731238	-0.020687	-0.100234
H238	H	0.744987	-0.002905	-0.042894
H239	H	0.698077	-0.109897	-0.067039
H240	H	1.054489	0.207689	0.423304
N241	N	0.134886	0.748710	-0.128672
H242	H	0.088670	0.784580	-0.167891
H243	H	0.174848	0.718867	-0.142443
N244	N	0.805422	0.379870	0.327959
H245	H	0.810311	0.351585	0.379650
H246	H	0.778768	0.369358	0.304536
N247	N	0.930714	0.254488	-0.076872
H248	H	0.904060	0.229447	-0.057477
H249	H	0.979151	0.211714	-0.071272
N250	N	0.707900	0.477369	-0.546602
H251	H	0.731323	0.430544	-0.551466
H252	H	0.673961	0.474148	-0.519965
N253	N	0.303063	0.882111	-0.174268
H254	H	0.251374	0.910392	-0.179130
H255	H	0.326505	0.892608	-0.147614
N256	N	0.252637	0.513302	0.128673
H257	H	0.242307	0.477430	0.167891
H258	H	0.262760	0.543144	0.142447
H259	H	0.564001	-0.109898	0.067071
H260	H	0.563930	0.765111	-0.435640
H261	H	0.563999	-0.000402	0.067069
H262	H	0.195371	0.765106	-0.067032
N263	N	0.554232	0.379877	0.076835
H264	H	0.502527	0.404912	0.057455
H265	H	0.559891	0.422659	0.071214
N266	N	0.127188	0.513305	0.128678
H267	H	0.080076	0.521899	0.119285
H268	H	0.133956	0.520888	0.166786
H269	H	-0.176930	0.765114	-0.067051
N270	N	0.084442	0.477373	0.076803
H271	H	0.079582	0.430549	0.100215
H272	H	0.111101	0.474153	0.113958
N273	N	0.554137	0.784646	-0.327936
H274	H	0.502435	0.816963	-0.354611
H275	H	0.573582	0.816890	-0.354563
N276	N	0.554285	0.784638	-0.825681
H277	H	0.530864	0.831463	-0.820817
H278	H	0.517136	0.787876	-0.852368
H279	H	0.698068	0.496909	-0.301549
N280	N	0.620085	0.513297	-0.503891
H281	H	0.576469	0.543067	-0.543827
H282	H	0.616775	0.477440	-0.457656
N283	N	0.707821	0.477368	-0.174305
H284	H	0.688443	0.445050	-0.168665
H285	H	0.702190	0.488651	-0.137144
N286	N	0.805299	0.379905	-0.076835
H287	H	0.810158	0.351635	-0.100254
H288	H	0.778641	0.440490	-0.113984
