data_functionalizedCrystal
_audit_creation_method	'MofGen! by Chris Wilmer'
_symmetry_space_group_name_H-M	'P1'
_symmetry_Int_Tables_number	1
_symmetry_cell_setting	triclinic
loop_
_symmetry_equiv_pos_as_xyz
  x,y,z
_cell_length_a	21.295418
_cell_length_b	21.295417
_cell_length_c	21.295411
_cell_angle_alpha	89.978356
_cell_angle_beta	90.043738
_cell_angle_gamma	89.953681
loop_
_atom_site_label
_atom_site_type_symbol
_atom_site_fract_x
_atom_site_fract_y
_atom_site_fract_z
Zn1	Zn	0.962356	0.250415	0.356234
Zn2	Zn	0.962258	0.355667	0.250959
Zn3	Zn	0.857079	0.250445	0.250943
Zn4	Zn	0.857048	0.355680	0.356155
O5	O	0.909685	0.303052	0.303573
O6	O	1.050432	0.264360	0.342308
O7	O	0.948278	0.341716	0.162867
O8	O	0.871098	0.162351	0.264937
O9	O	1.050361	0.341688	0.264963
O10	O	0.948444	0.162330	0.342293
O11	O	0.871003	0.264410	0.162856
O12	O	0.768985	0.264422	0.264861
O13	O	0.871046	0.341709	0.444255
O14	O	0.768963	0.341738	0.342160
O15	O	0.948415	0.264372	0.444313
O16	O	0.948248	0.443758	0.264887
O17	O	0.870951	0.443767	0.342175
C18	C	0.746134	0.303085	0.303500
C19	C	0.676166	0.303114	0.303484
C20	C	0.909603	0.466603	0.303538
C21	C	0.909625	0.536571	0.303544
C22	C	0.643304	0.343426	0.343674
C23	C	0.577561	0.343410	0.343702
C24	C	0.544683	0.303090	0.303530
C25	C	0.577553	0.262770	0.263337
C26	C	0.643294	0.262783	0.263315
N27	N	0.441407	0.298163	0.248472
N28	N	0.378956	0.298155	0.248495
C29	C	0.346608	0.303050	0.303596
N30	N	0.379072	0.307965	0.358675
N31	N	0.441529	0.307976	0.358650
C32	C	0.473398	0.303072	0.303550
C33	C	0.242461	0.343346	0.343820
C34	C	0.176717	0.343326	0.343849
C35	C	0.176710	0.262690	0.263479
C36	C	0.242453	0.262707	0.263455
C37	C	0.275324	0.303038	0.303625
C38	C	0.909738	0.303038	0.467763
C39	C	0.909760	0.303033	0.537731
C40	C	1.073876	0.303019	0.303646
C41	C	1.143844	0.303005	0.303677
C42	C	0.909785	0.138861	0.303622
C43	C	0.909828	0.068893	0.303642
C44	C	0.949910	0.569412	0.263342
C45	C	0.949939	0.635155	0.263356
C46	C	0.909673	0.668054	0.303566
C47	C	0.869386	0.635205	0.343776
C48	C	0.869362	0.569464	0.343765
N49	N	0.854606	0.771336	0.308340
N50	N	0.854630	0.833787	0.308347
C51	C	0.909743	0.866129	0.303602
N52	N	0.964832	0.833659	0.298838
N53	N	0.964807	0.771202	0.298828
C54	C	0.909695	0.739339	0.303582
C55	C	0.950063	0.970255	0.263413
C56	C	0.950094	1.035999	0.263431
C57	C	0.869535	1.036048	0.343848
C58	C	0.869510	0.970305	0.343833
C59	C	0.909773	0.937413	0.303612
C60	C	0.909670	0.303019	0.140021
C61	C	0.909769	0.302848	0.070054
C62	C	0.950044	0.262761	0.570629
C63	C	0.950043	0.262734	0.636371
C64	C	0.909765	0.302989	0.669214
C65	C	0.869473	0.343263	0.636308
C66	C	0.869470	0.343285	0.570567
N67	N	0.904908	0.358058	0.772428
N68	N	0.904914	0.358036	0.834879
C69	C	0.909769	0.302926	0.867289
N70	N	0.914629	0.247837	0.834888
N71	N	0.914627	0.247860	0.772430
C72	C	0.909763	0.302970	0.740499
C73	C	0.950054	0.262621	0.971472
C74	C	0.950049	0.262593	1.037216
C75	C	0.869482	0.343128	1.037151
C76	C	0.869484	0.343151	0.971409
C77	C	0.909773	0.302898	0.938573
H78	H	0.550800	0.376236	0.376431
C79	C	0.825920	1.071837	0.387545
C80	C	0.861557	1.109525	0.427933
C81	C	0.821402	1.142512	0.468194
H82	H	0.801908	1.042931	0.411546
H83	H	0.798522	1.097567	0.363454
H84	H	0.888944	1.083798	0.452022
H85	H	0.885568	1.138443	0.403950
H86	H	0.794005	1.168241	0.444103
H87	H	0.797392	1.113601	0.492190
H88	H	0.845576	1.168091	0.495598
H89	H	0.836683	0.375948	0.944623
C90	C	0.141136	0.218843	0.219839
C91	C	0.183991	0.183532	0.184645
C92	C	0.151240	0.143125	0.144445
H93	H	0.115432	0.242806	0.192320
H94	H	0.115559	0.191411	0.243966
H95	H	0.209556	0.210960	0.160520
H96	H	0.209696	0.159556	0.212147
H97	H	0.125663	0.115693	0.168572
H98	H	0.125537	0.167093	0.116930
H99	H	0.180311	0.119158	0.120565
H100	H	0.269209	0.229884	0.230726
H101	H	0.836704	0.943564	0.376567
H102	H	0.982902	1.062737	0.230695
C103	C	0.993805	0.218986	0.535093
C104	C	1.029072	0.183699	0.577980
C105	C	1.069383	0.143360	0.545266
H106	H	1.021272	0.242997	0.509462
H107	H	0.969754	0.191536	0.509446
H108	H	1.053121	0.211146	0.603616
H109	H	1.001621	0.159675	0.603612
H110	H	1.045332	0.115910	0.519620
H111	H	1.096847	0.167376	0.519637
H112	H	1.093313	0.119409	0.574360
H113	H	0.982857	0.229842	0.944736
C114	C	0.993594	0.533784	0.219578
C115	C	0.979935	0.549837	0.157282
C116	C	1.020172	0.517035	0.116952
H117	H	0.987855	0.489917	0.225242
H118	H	1.035898	0.544521	0.228810
H119	H	0.937642	0.539096	0.148053
H120	H	0.985679	0.593699	0.151598
H121	H	1.062476	0.527772	0.126184
H122	H	1.014429	0.473169	0.122621
H123	H	1.010914	0.527926	0.074680
C124	C	0.679027	0.387282	0.387187
C125	C	0.716681	0.427594	0.351460
C126	C	0.749594	0.468005	0.391524
H127	H	0.704776	0.363317	0.414662
H128	H	0.650058	0.411325	0.411118
H129	H	0.745647	0.403554	0.327540
H130	H	0.690948	0.451573	0.323987
H131	H	0.720625	0.492048	0.415456
H132	H	0.775340	0.444035	0.418998
H133	H	0.775142	0.495366	0.367290
C134	C	0.993753	0.218762	1.072852
C135	C	0.980098	0.156488	1.056835
C136	C	1.020351	0.116093	1.089644
H137	H	0.988025	0.224422	1.116719
H138	H	1.036052	0.227936	1.062096
H139	H	0.937809	0.147317	1.067596
H140	H	0.985830	0.150808	1.012974
H141	H	1.062650	0.125268	1.078887
H142	H	1.014621	0.121759	1.133509
H143	H	1.011096	0.073837	1.078776
H144	H	0.269226	0.376183	0.376531
H145	H	0.982746	0.661899	0.230619
H146	H	0.550779	0.229940	0.230630
C147	C	0.993847	0.934652	0.219725
C148	C	1.029149	0.977487	0.184535
C149	C	1.069494	0.944715	0.144289
H150	H	0.969839	0.909050	0.192207
H151	H	1.021287	0.908971	0.243820
H152	H	1.001713	1.003157	0.160442
H153	H	1.053171	1.003090	0.212037
H154	H	1.096934	0.919034	0.168383
H155	H	1.045481	0.919114	0.116774
H156	H	1.093456	0.973774	0.120411
C157	C	0.141149	0.387166	0.387509
C158	C	0.184011	0.422500	0.422667
C159	C	0.151268	0.462899	0.462886
H160	H	0.115557	0.363196	0.415050
H161	H	0.115462	0.414584	0.363397
H162	H	0.209687	0.395086	0.446777
H163	H	0.209605	0.446483	0.395142
H164	H	0.125581	0.490316	0.438774
H165	H	0.125677	0.438924	0.490422
H166	H	0.180345	0.486882	0.486741
C167	C	0.678863	0.218993	0.219605
C168	C	0.636003	0.183687	0.184419
C169	C	0.668747	0.143349	0.144139
H170	H	0.704568	0.191552	0.243656
H171	H	0.704438	0.243027	0.192090
H172	H	0.610439	0.159655	0.211931
H173	H	0.610296	0.211112	0.160356
H174	H	0.694322	0.167382	0.116624
H175	H	0.694451	0.115911	0.168195
H176	H	0.639671	0.119393	0.120256
C177	C	0.825745	0.670888	0.387538
C178	C	0.839429	0.654861	0.449836
C179	C	0.799247	0.687725	0.490171
H180	H	0.783428	0.660195	0.378356
H181	H	0.831533	0.714751	0.381828
H182	H	0.833636	0.611008	0.455543
H183	H	0.881739	0.665556	0.459038
H184	H	0.805035	0.731588	0.484461
H185	H	0.756932	0.677029	0.480983
H186	H	0.808530	0.676860	0.532445
C187	C	0.993682	0.218935	0.672133
C188	C	0.958070	0.178570	0.709843
C189	C	0.998249	0.138211	0.742787
H190	H	1.021104	0.242936	0.697847
H191	H	1.017665	0.194928	0.643182
H192	H	0.934098	0.202574	0.738790
H193	H	0.930650	0.154556	0.684144
H194	H	1.022232	0.114204	0.713836
H195	H	1.025669	0.162216	0.768497
H196	H	0.974092	0.110815	0.768372
H197	H	0.836557	0.542724	0.376503
H198	H	0.836676	0.376038	0.663053
H199	H	0.836663	0.376078	0.543782
C200	C	0.825824	0.386817	1.072914
C201	C	0.834459	0.378192	1.137530
C202	C	0.794259	0.418435	1.170497
H203	H	0.783506	0.377663	1.062188
H204	H	0.835023	0.429125	1.062179
H205	H	0.825256	0.335893	1.148261
H206	H	0.876769	0.387350	1.148275
H207	H	0.803458	0.460744	1.159761
H208	H	0.751944	0.409277	1.159766
H209	H	0.800117	0.412593	1.214342
