data_functionalizedCrystal
_audit_creation_method	'MofGen! by Chris Wilmer'
_symmetry_space_group_name_H-M	'P1'
_symmetry_Int_Tables_number	1
_symmetry_cell_setting	triclinic
loop_
_symmetry_equiv_pos_as_xyz
  x,y,z
_cell_length_a	16.109301
_cell_length_b	15.944551
_cell_length_c	15.186229
_cell_angle_alpha	89.995303
_cell_angle_beta	89.999362
_cell_angle_gamma	83.480109
loop_
_atom_site_label
_atom_site_type_symbol
_atom_site_fract_x
_atom_site_fract_y
_atom_site_fract_z
O1	O	1.103166	0.107966	-0.073175
O2	O	0.861108	0.121402	-0.073189
O3	O	0.988747	-0.007593	-0.073174
O4	O	0.975527	0.236961	-0.073190
O5	O	0.988738	-0.007594	0.073284
O6	O	0.861099	0.121401	0.073268
O7	O	1.103157	0.107964	0.073282
Zn8	Zn	0.982127	0.114682	0.096529
Zn9	Zn	0.982138	0.114685	-0.096435
O10	O	0.975518	0.236960	0.073267
C11	C	0.830129	0.120857	0.000038
C12	C	0.737833	0.119226	0.000033
C13	C	0.515584	0.191975	0.000038
C14	C	0.428863	0.190435	0.000044
C15	C	0.448688	0.037387	0.000050
C16	C	0.535407	0.038927	0.000051
C17	C	0.568853	0.116224	0.000040
C18	C	0.395412	0.113143	0.000045
C19	C	0.301386	0.111473	0.000052
C20	C	0.662885	0.117894	0.000036
C21	C	0.988194	-0.038887	0.000055
C22	C	0.986548	-0.132133	0.000056
C23	C	0.903499	-0.346962	0.000039
C24	C	0.942060	-0.407993	0.072253
C25	C	0.983572	-0.302858	0.000049
C26	C	0.942087	-0.407975	-0.072142
C27	C	0.980691	-0.467769	0.000038
C28	C	1.022155	-0.362660	0.072323
C29	C	1.022171	-0.362636	-0.072137
C30	C	1.060790	-0.423649	0.000095
C31	C	0.985229	-0.207856	0.000055
C32	C	0.979039	-0.562770	0.000038
C33	C	1.134136	0.108510	0.000054
C34	C	1.226432	0.110141	0.000053
C35	C	0.976071	0.268254	0.000036
C36	C	0.977717	0.361500	0.000030
N37	N	0.982125	0.114680	0.228221
N38	N	0.982146	0.114680	-0.228128
C39	C	1.038663	0.057580	0.453951
C40	C	1.038666	0.057578	0.546141
C41	C	0.925603	0.171783	0.546136
C42	C	0.925597	0.171780	0.453948
C43	C	0.982132	0.114680	0.407858
C44	C	0.982140	0.114680	0.592236
C45	C	0.982143	0.114679	0.692192
C46	C	0.982128	0.114680	0.307895
H47	H	0.578781	-0.022762	0.000055
H48	H	0.879558	0.218278	0.416417
C49	C	1.067889	-0.335451	-0.154615
N50	N	1.102319	-0.314973	-0.216745
H51	H	1.084696	0.011085	0.416427
C52	C	0.411889	-0.047635	0.000054
N53	N	0.384173	-0.111675	0.000053
H54	H	1.084698	0.011082	0.583667
C55	C	0.813712	-0.301928	0.000132
N56	N	0.746087	-0.268006	0.000208
H57	H	0.908189	-0.428091	0.133301
C58	C	1.067862	-0.335673	0.154894
N59	N	1.102285	-0.315343	0.217088
C60	C	0.863416	0.234588	0.596844
N61	N	0.816575	0.281894	0.635036
H62	H	1.127313	-0.456830	0.000139
C63	C	0.896321	-0.435094	-0.154618
N64	N	0.861845	-0.455515	-0.216737
H65	H	0.542812	0.254914	0.000036
H66	H	0.385495	0.252119	0.000044
