data_functionalizedCrystal
_audit_creation_method	'MofGen! by Chris Wilmer'
_symmetry_space_group_name_H-M	'P1'
_symmetry_Int_Tables_number	1
_symmetry_cell_setting	triclinic
loop_
_symmetry_equiv_pos_as_xyz
  x,y,z
_cell_length_a	8.559649
_cell_length_b	8.634740
_cell_length_c	7.088929
_cell_angle_alpha	97.198780
_cell_angle_beta	84.674985
_cell_angle_gamma	85.174486
loop_
_atom_site_label
_atom_site_type_symbol
_atom_site_fract_x
_atom_site_fract_y
_atom_site_fract_z
O1	O	-2.098509	0.033904	-0.158952
O2	O	-1.645344	-0.044309	-0.158974
O3	O	-1.850479	0.216738	-0.158918
O4	O	-1.893374	-0.227143	-0.159007
O5	O	-1.877883	0.251695	0.159065
O6	O	-1.672748	-0.009352	0.159009
O7	O	-2.125913	0.068861	0.159031
Cu8	Cu	-1.901832	0.032946	0.188054
Cu9	Cu	-1.869425	-0.008394	-0.187997
O10	O	-1.920778	-0.192186	0.158976
C11	C	-1.600428	-0.032758	0.000016
C12	C	-1.425764	-0.050401	0.000009
C13	C	-1.854463	0.290517	0.000080
C14	C	-1.825486	0.458270	0.000102
N15	N	-1.924637	0.062025	0.452549
C16	C	-2.170828	0.057309	0.000038
C17	C	-2.345492	0.074951	0.000032
C18	C	-1.916798	0.734040	0.000020
C19	C	-1.945785	0.566300	0.000127
N20	N	-1.846630	-0.037459	-0.452491
H21	H	-1.410390	0.195768	0.000046
H22	H	-1.360856	-0.171228	-0.000025
Br23	Br	-1.711878	-0.209301	0.411394
Br24	Br	-2.059424	0.233853	0.588670
H25	H	-2.070948	0.530438	0.000051
Br26	Br	-1.616868	0.518010	0.000090
