data_functionalizedCrystal
_audit_creation_method	'MofGen! by Chris Wilmer'
_symmetry_space_group_name_H-M	'P1'
_symmetry_Int_Tables_number	1
_symmetry_cell_setting	triclinic
loop_
_symmetry_equiv_pos_as_xyz
  x,y,z
_cell_length_a	10.967926
_cell_length_b	14.519709
_cell_length_c	10.065875
_cell_angle_alpha	98.804604
_cell_angle_beta	93.120479
_cell_angle_gamma	84.207347
loop_
_atom_site_label
_atom_site_type_symbol
_atom_site_fract_x
_atom_site_fract_y
_atom_site_fract_z
O1	O	1.613236	0.160831	0.265926
O2	O	2.113236	0.660831	0.765926
O3	O	1.263198	0.163464	0.183596
O4	O	1.763198	0.663464	0.683596
O5	O	1.447496	0.028218	0.226956
O6	O	1.947496	0.528218	0.726956
O7	O	1.428938	0.296077	0.222566
O8	O	1.928938	0.796077	0.722566
O9	O	1.412353	0.054116	0.445676
O10	O	1.912353	0.554116	0.945676
O11	O	1.228055	0.189362	0.402317
O12	O	1.728055	0.689362	0.902317
O13	O	1.578094	0.186729	0.484646
O14	O	2.078094	0.686729	0.984646
Zn15	Zn	1.397495	0.192158	0.478208
Zn16	Zn	1.897495	0.692158	0.978208
Zn17	Zn	1.443797	0.158036	0.190034
Zn18	Zn	1.943797	0.658036	0.690034
O19	O	1.393795	0.321975	0.441287
O20	O	1.893795	0.821975	0.941287
C21	C	1.200829	0.174265	0.282420
C22	C	1.700829	0.674265	0.782420
C23	C	1.067344	0.167852	0.251025
C24	C	1.567344	0.667852	0.751025
C25	C	0.989628	0.178409	0.350331
C26	C	1.489628	0.678409	0.850331
C27	C	0.851665	0.171781	0.317885
C28	C	1.351665	0.671781	0.817885
C29	C	1.429060	0.006779	0.336113
C30	C	1.929060	0.506779	0.836113
C31	C	1.426467	-0.095688	0.335504
C32	C	1.926467	0.404312	0.835504
C33	C	1.416930	-0.470904	0.333225
C34	C	1.916930	0.029096	0.833225
C35	C	1.419578	-0.366507	0.333858
C36	C	1.919578	0.133493	0.833858
C37	C	1.421698	-0.283299	0.334366
C38	C	1.921698	0.216701	0.834366
C39	C	1.424347	-0.178896	0.334996
C40	C	1.924347	0.321104	0.834996
C41	C	1.640464	0.175928	0.385820
C42	C	2.140464	0.675928	0.885820
C43	C	1.773949	0.182340	0.417206
C44	C	2.273949	0.682340	0.917206
C45	C	1.412233	0.343414	0.332127
C46	C	1.912233	0.843414	0.832127
C47	C	1.414826	0.445880	0.332727
C48	C	1.914826	0.945880	0.832727
N49	N	1.365903	0.215444	0.674881
N50	N	1.865903	0.715444	1.174881
N51	N	1.475398	0.134742	-0.006637
N52	N	1.975398	0.634742	0.493363
C53	C	1.432798	0.166132	0.758398
C54	C	1.932798	0.666132	1.258398
C55	C	1.408494	0.184062	0.909848
C56	C	1.908494	0.684062	1.409848
H57	H	0.809544	0.196282	0.526255
H58	H	1.309544	0.696282	1.026255
N59	N	1.022677	0.150347	0.114237
N60	N	1.522677	0.650347	0.614237
N61	N	0.910669	0.144983	0.088074
N62	N	1.410669	0.644983	0.588074
H63	H	0.879124	0.132618	-0.008535
H64	H	1.379124	0.632618	0.491465
N65	N	1.271484	0.285069	0.725804
N66	N	1.771484	0.785069	1.225804
N67	N	1.208582	0.331442	0.647362
N68	N	1.708582	0.831442	1.147362
H69	H	1.141896	0.380617	0.683321
H70	H	1.641896	0.880617	1.183321
H71	H	1.025231	0.192349	0.459372
H72	H	1.525231	0.692349	0.959372
N73	N	1.314053	0.253677	0.960760
N74	N	1.814053	0.753677	1.460760
N75	N	1.205315	0.246979	0.919353
N76	N	1.705315	0.746979	1.419353
H77	H	1.138615	0.296143	0.955309
H78	H	1.638615	0.796143	1.455309
H79	H	1.550662	0.079243	0.952750
H80	H	2.050662	0.579243	1.452750
H81	H	0.816069	0.157833	0.208837
H82	H	1.316069	0.657833	0.708837
H83	H	1.508058	0.110636	0.717780
H84	H	2.008058	0.610636	1.217780
