data_functionalizedCrystal
_audit_creation_method	'MofGen! by Chris Wilmer'
_symmetry_space_group_name_H-M	'P1'
_symmetry_Int_Tables_number	1
_symmetry_cell_setting	triclinic
loop_
_symmetry_equiv_pos_as_xyz
  x,y,z
_cell_length_a	16.974829
_cell_length_b	14.519709
_cell_length_c	16.053802
_cell_angle_alpha	92.580010
_cell_angle_beta	91.075512
_cell_angle_gamma	83.538807
loop_
_atom_site_label
_atom_site_type_symbol
_atom_site_fract_x
_atom_site_fract_y
_atom_site_fract_z
O1	O	1.042589	0.125406	0.139875
O2	O	1.375922	0.458740	0.473208
O3	O	1.709256	0.792073	0.806541
O4	O	0.813149	0.139502	0.124374
O5	O	1.146482	0.472836	0.457708
O6	O	1.479816	0.806169	0.791041
O7	O	0.933953	-0.001781	0.132528
O8	O	1.267286	0.331553	0.465861
O9	O	1.600619	0.664886	0.799195
O10	O	0.921785	0.266689	0.131721
O11	O	1.255119	0.600023	0.465054
O12	O	1.588452	0.933356	0.798388
O13	O	0.940595	-0.009534	-0.005883
O14	O	1.273928	0.323799	0.327451
O15	O	1.607261	0.657133	0.660784
O16	O	0.819791	0.131749	-0.014036
O17	O	1.153124	0.465083	0.319297
O18	O	1.486458	0.798416	0.652630
O19	O	1.049231	0.117653	0.001464
O20	O	1.382564	0.450987	0.334797
O21	O	1.715898	0.784320	0.668131
Zn22	Zn	0.935566	0.123470	-0.028262
Zn23	Zn	1.268899	0.456804	0.305072
Zn24	Zn	1.602232	0.790137	0.638405
Zn25	Zn	0.926814	0.133685	0.154100
Zn26	Zn	1.260148	0.467019	0.487433
Zn27	Zn	1.593481	0.800352	0.820767
O28	O	0.928427	0.258936	-0.006690
O29	O	1.261761	0.592270	0.326644
O30	O	1.595094	0.925603	0.659977
C31	C	0.787106	0.134944	0.053185
C32	C	1.120439	0.468278	0.386518
C33	C	1.453773	0.801611	0.719852
C34	C	0.699611	0.132903	0.047274
C35	C	1.032945	0.466236	0.380607
C36	C	1.366278	0.799569	0.713941
C37	C	0.936707	-0.040017	0.063284
C38	C	1.270040	0.293316	0.396617
C39	C	1.603373	0.626649	0.729951
C40	C	0.935007	-0.142400	0.063169
C41	C	1.268341	0.190934	0.396502
C42	C	1.601674	0.524267	0.729836
C43	C	0.207493	0.120987	0.005901
C44	C	0.540826	0.454320	0.339235
C45	C	0.874159	0.787653	0.672568
C46	C	0.289703	0.122905	0.011457
C47	C	0.623037	0.456238	0.344790
C48	C	0.956370	0.789572	0.678124
C49	C	0.327189	0.128084	0.089684
C50	C	0.660522	0.461417	0.423017
C51	C	0.993856	0.794750	0.756351
C52	C	0.282458	0.131353	0.162360
C53	C	0.615792	0.464687	0.495693
C54	C	0.949125	0.798020	0.829026
C55	C	0.200248	0.129442	0.156803
C56	C	0.533582	0.462775	0.490136
C57	C	0.866915	0.796108	0.823470
C58	C	0.572671	0.134260	0.114393
C59	C	0.906004	0.467594	0.447726
C60	C	1.239337	0.800927	0.781060
C61	C	0.654887	0.136169	0.119944
C62	C	0.988220	0.469503	0.453278
C63	C	1.321554	0.802836	0.786611
C64	C	0.662126	0.127723	-0.030959
C65	C	0.995459	0.461056	0.302374
C66	C	1.328793	0.794389	0.635708
C67	C	0.579915	0.125806	-0.036509
C68	C	0.913248	0.459139	0.296825
C69	C	1.246582	0.792472	0.630158
C70	C	0.535191	0.129080	0.036167
C71	C	0.868524	0.462414	0.369500
C72	C	1.201858	0.795747	0.702834
N73	N	0.411222	0.130042	0.095365
N74	N	0.744555	0.463375	0.428698
N75	N	1.077888	0.796709	0.762032
N76	N	0.451159	0.127129	0.030485
N77	N	0.784492	0.460462	0.363819
N78	N	1.117826	0.793795	0.697152
C79	C	0.928751	-0.517298	0.062768
C80	C	1.262085	-0.183965	0.396101
C81	C	1.595418	0.149368	0.729435
C82	C	0.930489	-0.412990	0.062879
C83	C	1.263822	-0.079656	0.396212
C84	C	1.597155	0.253677	0.729546
C85	C	0.931879	-0.329852	0.062968
C86	C	1.265213	0.003481	0.396301
C87	C	1.598546	0.336814	0.729634
C88	C	0.933617	-0.225537	0.063080
C89	C	1.266950	0.107796	0.396414
C90	C	1.600284	0.441130	0.729747
C91	C	1.075274	0.122211	0.072655
C92	C	1.408607	0.455545	0.405988
C93	C	1.741940	0.788878	0.739322
C94	C	1.162768	0.124253	0.078572
C95	C	1.496102	0.457587	0.411905
C96	C	1.829435	0.790920	0.745238
C97	C	0.925673	0.297173	0.062556
C98	C	1.259007	0.630507	0.395889
C99	C	1.592340	0.963840	0.729223
C100	C	0.927372	0.399556	0.062677
C101	C	1.260705	0.732889	0.396010
C102	C	1.594039	1.066222	0.729343
N103	N	0.920842	0.140650	0.278557
N104	N	1.254176	0.473983	0.611891
N105	N	1.587509	0.807317	0.945224
N106	N	0.941544	0.116498	-0.152719
N107	N	1.274877	0.449832	0.180615
N108	N	1.608210	0.783165	0.513948
C109	C	0.972343	0.080649	0.325727
C110	C	1.305677	0.413983	0.659061
C111	C	1.639010	0.747316	0.992394
C112	C	0.968164	0.085519	0.412852
C113	C	1.301497	0.418853	0.746185
C114	C	1.634831	0.752186	1.079519
C115	C	0.912480	0.150386	0.452805
C116	C	1.245813	0.483720	0.786138
C117	C	1.579146	0.817053	1.119471
C118	C	0.860976	0.210393	0.405628
C119	C	1.194310	0.543727	0.738962
C120	C	1.527643	0.877060	1.072295
C121	C	0.865160	0.205527	0.318506
C122	C	1.198493	0.538861	0.651839
C123	C	1.531827	0.872194	0.985172
C124	C	0.894224	0.171639	0.712982
C125	C	1.227557	0.504972	1.046316
C126	C	1.560891	0.838306	1.379649
C127	C	0.890043	0.176499	0.800111
C128	C	1.223376	0.509832	1.133445
C129	C	1.556709	0.843166	1.466778
C130	C	0.997232	0.051625	0.807329
C131	C	1.330565	0.384959	1.140662
C132	C	1.663899	0.718292	1.473996
C133	C	1.001408	0.046761	0.720204
C134	C	1.334741	0.380095	1.053537
C135	C	1.668074	0.713428	1.386871
C136	C	0.949907	0.106772	0.673035
C137	C	1.283240	0.440105	1.006369
C138	C	1.616574	0.773438	1.339702
N139	N	0.908205	0.155364	0.541860
N140	N	1.241538	0.488697	0.875193
N141	N	1.574871	0.822031	1.208527
N142	N	0.954186	0.101798	0.583982
N143	N	1.287520	0.435131	0.917315
N144	N	1.620853	0.768464	1.250649
H145	H	0.326115	0.120243	-0.047719
H146	H	0.659448	0.453576	0.285615
H147	H	0.992781	0.786909	0.618948
N148	N	0.800914	0.280360	0.448712
N149	N	1.134247	0.613693	0.782045
N150	N	1.467580	0.947026	1.115378
H151	H	0.829274	0.323385	0.486905
H152	H	1.162607	0.656718	0.820238
H153	H	1.495941	0.990052	1.153572
H154	H	0.764315	0.246868	0.482444
H155	H	1.097648	0.580202	0.815777
H156	H	1.430982	0.913535	1.149110
N157	N	0.829980	0.246465	0.843206
N158	N	1.163313	0.579799	1.176540
N159	N	1.496647	0.913132	1.509873
H160	H	0.797990	0.283745	0.800106
H161	H	1.131323	0.617079	1.133439
H162	H	1.464657	0.950412	1.466773
H163	H	0.858402	0.289421	0.881404
H164	H	1.191736	0.622755	1.214738
H165	H	1.525069	0.956088	1.548071
H166	H	0.823223	0.254387	0.280100
H167	H	1.156557	0.587721	0.613434
H168	H	1.489890	0.921054	0.946767
H169	H	0.312985	0.135576	0.226054
H170	H	0.646318	0.468909	0.559387
H171	H	0.979652	0.802242	0.892720
H172	H	0.549402	0.121569	-0.100209
H173	H	0.882736	0.454902	0.233124
H174	H	1.216069	0.788235	0.566457
N175	N	0.152005	0.132969	0.235182
N176	N	0.485339	0.466302	0.568516
N177	N	0.818672	0.799636	0.901849
H178	H	0.188226	0.136538	0.285583
H179	H	0.521559	0.469871	0.618916
H180	H	0.854892	0.803205	0.952249
H181	H	0.124041	0.075242	0.236585
H182	H	0.457375	0.408576	0.569918
H183	H	0.790708	0.741909	0.903252
N184	N	1.032406	0.010690	0.282637
N185	N	1.365740	0.344023	0.615970
N186	N	1.699073	0.677356	0.949304
H187	H	1.022627	-0.053984	0.297175
H188	H	1.355960	0.279349	0.630508
H189	H	1.689294	0.612683	0.963841
H190	H	1.087568	0.022554	0.301602
H191	H	1.420901	0.355887	0.634935
H192	H	1.754235	0.689220	0.968268
H193	H	0.852289	0.220500	0.674584
H194	H	1.185622	0.553834	1.007918
H195	H	1.518956	0.887167	1.341251
N196	N	0.710362	0.124197	-0.109341
N197	N	1.043696	0.457530	0.223992
N198	N	1.377029	0.790863	0.557326
H199	H	0.768130	0.126195	-0.093955
H200	H	1.101463	0.459529	0.239379
H201	H	1.434797	0.792862	0.572712
H202	H	0.691266	0.179140	-0.143676
H203	H	1.024599	0.512473	0.189657
H204	H	1.357932	0.845807	0.522990
H205	H	0.176978	0.116774	-0.057800
H206	H	0.510311	0.450107	0.275534
H207	H	0.843644	0.783440	0.608867
H208	H	0.536267	0.136924	0.173571
H209	H	0.869600	0.470257	0.506904
H210	H	1.202933	0.803590	0.840238
N211	N	0.695321	0.141754	0.204321
N212	N	1.028654	0.475088	0.537655
N213	N	1.361988	0.808421	0.870988
H214	H	0.654514	0.143541	0.249519
H215	H	0.987848	0.476874	0.582852
H216	H	1.321181	0.810207	0.916185
H217	H	0.722971	0.199848	0.209487
H218	H	1.056304	0.533181	0.542820
H219	H	1.389638	0.866515	0.876153
N220	N	1.023712	0.020806	0.463729
N221	N	1.357046	0.354139	0.797063
N222	N	1.690379	0.687473	1.130396
H223	H	1.059620	-0.021029	0.425199
H224	H	1.392953	0.312305	0.758533
H225	H	1.726286	0.645638	1.091866
H226	H	0.991821	-0.018116	0.497833
H227	H	1.325155	0.315217	0.831166
H228	H	1.658488	0.648551	1.164499
H229	H	1.046750	-0.006059	0.687676
H230	H	1.380084	0.327275	1.021010
H231	H	1.713417	0.660608	1.354343
H232	H	1.039162	0.002769	0.845741
H233	H	1.372496	0.336102	1.179075
H234	H	1.705829	0.669435	1.512408
