data_functionalizedCrystal
_audit_creation_method	'MofGen! by Chris Wilmer'
_symmetry_space_group_name_H-M	'P1'
_symmetry_Int_Tables_number	1
_symmetry_cell_setting	triclinic
loop_
_symmetry_equiv_pos_as_xyz
  x,y,z
_cell_length_a	19.805407
_cell_length_b	13.897447
_cell_length_c	13.897441
_cell_angle_alpha	89.973472
_cell_angle_beta	90.021065
_cell_angle_gamma	89.981488
loop_
_atom_site_label
_atom_site_type_symbol
_atom_site_fract_x
_atom_site_fract_y
_atom_site_fract_z
Zn1	Zn	1.034782	0.384053	0.545417
Zn2	Zn	1.534782	0.884053	1.045417
Zn3	Zn	1.034701	0.545375	0.384130
Zn4	Zn	1.534701	1.045375	0.884130
Zn5	Zn	0.921590	0.384088	0.384134
Zn6	Zn	1.421590	0.884088	0.884134
Zn7	Zn	0.921570	0.545300	0.545381
Zn8	Zn	1.421570	1.045300	1.045381
O9	O	0.978161	0.464704	0.464766
O10	O	1.478161	0.964704	0.964766
O11	O	1.129488	0.405470	0.524035
O12	O	1.629488	0.905470	1.024035
O13	O	1.019671	0.524026	0.249149
O14	O	1.519671	1.024026	0.749149
O15	O	0.936648	0.249102	0.405546
O16	O	1.436648	0.749102	0.905546
O17	O	1.129428	0.523992	0.405538
O18	O	1.629428	1.023992	0.905538
O19	O	1.019809	0.249076	0.524039
O20	O	1.519809	0.749076	1.024039
O21	O	0.936569	0.405529	0.249152
O22	O	1.436569	0.905529	0.749152
O23	O	0.826871	0.405456	0.405511
O24	O	1.326871	0.905456	0.905511
O25	O	0.936614	0.523865	0.680368
O26	O	1.436614	1.023865	1.180368
O27	O	0.826857	0.523899	0.523979
O28	O	1.326857	1.023899	1.023979
O29	O	1.019790	0.405397	0.680394
O30	O	1.519790	0.905397	1.180394
O31	O	1.019651	0.680347	0.405503
O32	O	1.519651	1.180347	0.905503
O33	O	0.936535	0.680292	0.523974
O34	O	1.436535	1.180292	1.023974
C35	C	0.802305	0.464674	0.464742
C36	C	1.302305	0.964674	0.964742
C37	C	0.727073	0.464684	0.464755
C38	C	1.227073	0.964684	0.964755
C39	C	0.691760	0.403079	0.526550
C40	C	1.191760	0.903079	1.026550
C41	C	0.621072	0.403084	0.526554
C42	C	1.121072	0.903084	1.026554
C43	C	0.585697	0.464700	0.464767
C44	C	1.085697	0.964700	0.964767
C45	C	0.621015	0.526308	0.402965
C46	C	1.121015	1.026308	0.902965
C47	C	0.691702	0.526297	0.402957
C48	C	1.191702	1.026297	0.902957
C49	C	0.335941	0.526351	0.402994
C50	C	0.835941	1.026351	0.902994
C51	C	0.265249	0.526359	0.403009
C52	C	0.765249	1.026359	0.903009
C53	C	0.265312	0.403138	0.526591
C54	C	0.765312	0.903138	1.026591
C55	C	0.335999	0.403127	0.526584
C56	C	0.835999	0.903127	1.026584
C57	C	0.371310	0.464731	0.464778
C58	C	0.871310	0.964731	0.964778
C59	C	0.447958	0.464724	0.464774
C60	C	0.947958	0.964724	0.964774
C61	C	0.509050	0.464713	0.464775
C62	C	1.009050	0.964713	0.964775
C63	C	0.978101	0.715318	0.464756
C64	C	1.478101	1.215318	0.964756
C65	C	0.978137	0.822532	0.464783
C66	C	1.478137	1.322532	0.964783
C67	C	0.978168	0.909602	0.464810
C68	C	1.478168	1.409602	0.964810
C69	C	0.978213	1.018835	0.464840
C70	C	1.478213	1.518835	0.964840
C71	C	1.154704	0.464735	0.464790
C72	C	1.654704	0.964735	0.964790
C73	C	1.229935	0.464748	0.464800
C74	C	1.729935	0.964748	0.964800
C75	C	0.978209	0.464619	0.716359
C76	C	1.478209	0.964619	1.216359
C77	C	0.978229	0.464583	0.823573
C78	C	1.478229	0.964583	1.323573
C79	C	0.978235	1.213111	0.464809
C80	C	1.478235	1.713111	0.964809
C81	C	0.978253	1.105897	0.464859
C82	C	1.478253	1.605897	0.964859
C83	C	0.978152	0.464719	0.214151
C84	C	1.478152	0.964719	0.714151
C85	C	0.978263	0.464484	0.106938
C86	C	1.478263	0.964484	0.606938
C87	C	0.978248	0.464517	1.019868
C88	C	1.478248	0.964517	1.519868
C89	C	0.978235	0.464556	0.910635
C90	C	1.478235	0.964556	1.410635
H91	H	0.236553	0.352973	0.576913
H92	H	0.736553	0.852973	1.076913
H93	H	0.364797	0.352956	0.576900
H94	H	0.864797	0.852956	1.076900
O95	O	0.729794	0.592744	0.336308
O96	O	1.229794	1.092744	0.836308
H97	H	0.693322	0.635597	0.293350
H98	H	1.193322	1.135597	0.793350
H99	H	0.236449	0.576537	0.352691
H100	H	0.736449	1.076537	0.852691
O101	O	0.729908	0.336613	0.593192
O102	O	1.229908	0.836613	1.093192
H103	H	0.762118	0.379835	0.642201
H104	H	1.262118	0.879835	1.142201
O105	O	0.582860	0.592761	0.336318
O106	O	1.082860	1.092761	0.836318
H107	H	0.619293	0.635590	0.293339
H108	H	1.119293	1.135590	0.793339
O109	O	0.374024	0.592789	0.336334
O110	O	0.874024	1.092789	0.836334
H111	H	0.337548	0.635639	0.293378
H112	H	0.837548	1.135639	0.793378
H113	H	0.592324	0.352920	0.576876
H114	H	1.092324	0.852920	1.076876
