data_functionalizedCrystal
_audit_creation_method	'MofGen! by Chris Wilmer'
_symmetry_space_group_name_H-M	'P1'
_symmetry_Int_Tables_number	1
_symmetry_cell_setting	triclinic
loop_
_symmetry_equiv_pos_as_xyz
  x,y,z
_cell_length_a	13.032831
_cell_length_b	12.759400
_cell_length_c	13.032268
_cell_angle_alpha	82.848512
_cell_angle_beta	89.113023
_cell_angle_gamma	82.818273
loop_
_atom_site_label
_atom_site_type_symbol
_atom_site_fract_x
_atom_site_fract_y
_atom_site_fract_z
Zn1	Zn	1.498533	-0.709536	0.780860
Zn2	Zn	1.520287	-0.866072	0.608886
Zn3	Zn	1.348388	-0.665647	0.587100
Zn4	Zn	1.326535	-0.860392	0.759011
O5	O	1.423436	-0.775412	0.683964
O6	O	1.645341	-0.751047	0.776309
O7	O	1.515734	-0.823495	0.462079
O8	O	1.368347	-0.524456	0.612829
O9	O	1.661324	-0.866053	0.649961
O10	O	1.478658	-0.556702	0.755184
O11	O	1.389441	-0.676243	0.446073
O12	O	1.201567	-0.670734	0.591643
O13	O	1.331101	-0.856371	0.905827
O14	O	1.185512	-0.813813	0.717945
O15	O	1.457467	-0.745538	0.921879
O16	O	1.494544	-1.012331	0.628774
O17	O	1.352195	-1.008158	0.739070
C18	C	1.156222	-0.736896	0.650059
C19	C	1.041904	-0.720446	0.635579
C20	C	0.983032	-0.783997	0.691522
C21	C	0.864878	-0.766997	0.676557
C22	C	1.423384	-1.048369	0.683941
C23	C	1.423452	-1.165159	0.683978
C24	C	1.480851	-1.236733	0.758152
C25	C	1.480895	-1.346467	0.758183
C26	C	1.366140	-1.313042	0.609857
C27	C	1.366090	-1.203310	0.609831
C28	C	1.538212	-1.198582	0.832298
C29	C	1.595617	-1.270158	0.906478
C30	C	1.595661	-1.379892	0.906509
C31	C	1.538301	-1.418050	0.832361
C32	C	1.691693	-0.814079	0.718002
C33	C	1.806009	-0.830557	0.732507
C34	C	1.389420	-0.805217	0.952213
C35	C	1.374924	-0.817918	1.066524
C36	C	1.423513	-0.501395	0.684014
C37	C	1.423546	-0.384625	0.684035
C38	C	1.457379	-0.745655	0.416767
C39	C	1.472074	-0.732687	0.302482
C40	C	1.430985	-0.768743	1.125430
C41	C	1.416005	-0.781869	1.243577
H42	H	0.827811	-0.699995	0.617584
H43	H	1.020103	-0.850987	0.750499
H44	H	1.490068	-0.716920	1.088394
N45	N	1.296647	-0.886544	1.115580
H46	H	1.332814	-0.946169	1.165452
H47	H	1.261307	-0.917484	1.059980
H48	H	1.531159	-0.680858	1.265451
H49	H	0.843073	-0.897550	0.791491
N50	N	1.538153	-1.080227	0.832261
H51	H	1.566041	-1.048706	0.764120
H52	H	1.583183	-1.066997	0.890529
N53	N	0.992813	-0.631708	0.557453
H54	H	0.915367	-0.632146	0.557832
H55	H	1.020843	-0.642466	0.486332
N56	N	1.657467	-1.229008	0.986459
H57	H	1.648730	-1.148633	0.975187
H58	H	1.732963	-1.256955	0.979842
H59	H	1.642394	-1.438166	0.966916
N60	N	1.538336	-1.536405	0.832400
H61	H	1.583398	-1.575960	0.890644
H62	H	1.566225	-1.557656	0.764240
N63	N	1.304196	-1.126108	0.529819
H64	H	1.312868	-1.050805	0.541057
H65	H	1.228715	-1.136520	0.536445
H66	H	1.319441	-1.344120	0.549489
N67	N	1.337716	-0.850497	1.292615
H68	H	1.338105	-0.850140	1.370063
H69	H	1.356048	-0.925773	1.275915
