data_functionalizedCrystal
_audit_creation_method	'MofGen! by Chris Wilmer'
_symmetry_space_group_name_H-M	'P1'
_symmetry_Int_Tables_number	1
_symmetry_cell_setting	triclinic
loop_
_symmetry_equiv_pos_as_xyz
  x,y,z
_cell_length_a	10.540514
_cell_length_b	9.616153
_cell_length_c	10.723024
_cell_angle_alpha	89.998938
_cell_angle_beta	95.508485
_cell_angle_gamma	90.007401
loop_
_atom_site_label
_atom_site_type_symbol
_atom_site_fract_x
_atom_site_fract_y
_atom_site_fract_z
O1	O	1.685820	0.115659	-0.175709
O2	O	1.316395	0.115658	-0.192312
O3	O	1.509629	0.115653	-0.002438
O4	O	1.492586	0.115664	-0.365583
O5	O	1.509602	-0.115638	-0.002442
O6	O	1.316368	-0.115634	-0.192316
O7	O	1.685794	-0.115632	-0.175713
Zn8	Zn	1.501077	-0.152355	-0.184015
Zn9	Zn	1.501112	0.152381	-0.184010
O10	O	1.492560	-0.115628	-0.365587
C11	C	1.269079	0.000012	-0.191076
C12	C	1.128131	0.000011	-0.187370
C13	C	1.057355	0.000018	-0.323166
C14	C	0.910744	0.000550	-0.319358
C15	C	0.935846	0.131839	-0.113516
C16	C	1.082383	0.131943	-0.118287
C17	C	1.082757	-0.131088	-0.116282
C18	C	0.935778	-0.132813	-0.114972
N19	N	1.501062	-0.360330	-0.184018
C20	C	1.397379	-0.580698	-0.285247
C21	C	1.397607	-0.419530	-0.285627
C22	C	1.633772	-0.418778	-0.213628
C23	C	1.633207	-0.579996	-0.214345
C24	C	1.473357	-0.580245	-0.052846
C25	C	1.470310	-0.419018	-0.053697
C26	C	1.733110	0.000017	-0.176950
C27	C	1.874058	0.000026	-0.180655
C28	C	1.508375	0.000009	0.044060
C29	C	1.504665	0.000014	0.182616
N30	N	1.501137	0.360356	-0.183997
C31	C	1.493813	0.000019	-0.412085
C32	C	1.497524	0.000024	-0.550641
C33	C	1.612788	0.000017	0.257555
C34	C	1.608956	0.000022	0.400759
H35	H	1.087566	0.094406	-0.377445
H36	H	1.415457	-0.380947	-0.382929
H37	H	1.404957	0.000012	0.384971
O38	O	1.378281	0.000002	0.238052
H39	H	1.371254	0.094267	0.296725
H40	H	1.657512	-0.617581	-0.310029
O41	O	1.340982	-0.368441	-0.023971
H42	H	1.340856	-0.253074	-0.020713
H43	H	1.110594	0.230854	-0.167320
H44	H	1.708194	0.000008	0.215693
H45	H	0.911645	-0.141168	-0.013872
H46	H	0.868042	-0.093917	-0.372165
H47	H	1.549009	-0.618363	0.022514
H48	H	1.085856	-0.094492	-0.378255
H49	H	1.130441	0.137568	-0.018536
O50	O	0.855412	0.126368	-0.389114
H51	H	0.933391	0.187089	-0.425678
H52	H	0.894747	-0.230330	-0.164038
O53	O	1.731577	0.000021	0.486043
H54	H	1.709325	0.000033	0.585137
H55	H	1.130064	-0.132363	-0.016118
O56	O	1.347864	-0.634151	-0.015517
H57	H	1.269838	-0.601849	-0.086491
H58	H	0.913585	0.136366	-0.011643
H59	H	1.298462	-0.619509	-0.267706
O60	O	0.879461	0.262288	-0.174510
H61	H	0.807448	0.233575	-0.252630
H62	H	1.114216	-0.231029	-0.161487
O63	O	1.266986	-0.367171	-0.262056
H64	H	1.203084	-0.457002	-0.250287
H65	H	1.414997	-0.621193	-0.381999
O66	O	1.563799	-0.365687	0.050908
H67	H	1.633959	-0.296212	0.011469
O68	O	1.738630	-0.631662	-0.120473
H69	H	1.789796	-0.541493	-0.074773
H70	H	1.712864	-0.380427	-0.141896
O71	O	1.666694	-0.365301	-0.338947
H72	H	1.588753	-0.297112	-0.380334
