data_functionalizedCrystal
_audit_creation_method	'MofGen! by Chris Wilmer'
_symmetry_space_group_name_H-M	'P1'
_symmetry_Int_Tables_number	1
_symmetry_cell_setting	triclinic
loop_
_symmetry_equiv_pos_as_xyz
  x,y,z
_cell_length_a	27.440280
_cell_length_b	27.440280
_cell_length_c	14.560432
_cell_angle_alpha	59.992263
_cell_angle_beta	90.004545
_cell_angle_gamma	59.999099
loop_
_atom_site_label
_atom_site_type_symbol
_atom_site_fract_x
_atom_site_fract_y
_atom_site_fract_z
Zr1	Zr	0.469480	0.533427	-0.120576
O2	O	0.391655	0.635116	-0.267275
O3	O	0.493340	0.431744	-0.075584
O4	O	0.493333	0.533426	-0.267220
O5	O	0.391663	0.533433	0.075503
O6	O	0.573536	0.533416	-0.267201
O7	O	0.391661	0.533435	-0.075639
O8	O	0.573548	0.351527	0.075600
O9	O	0.391652	0.715322	-0.267299
O10	O	0.563367	0.473558	-0.056407
O11	O	0.503514	0.473563	0.056374
O12	O	0.503507	0.593280	-0.169253
O13	O	0.443654	0.593286	-0.056471
Zr14	Zr	0.597397	0.533408	0.120507
Zr15	Zr	0.597394	0.533412	-0.120546
Zr16	Zr	0.469483	0.533423	0.120477
Zr17	Zr	0.469475	0.661346	-0.120615
Zr18	Zr	0.597402	0.405489	0.120546
O19	O	0.573537	0.635090	0.075515
O20	O	0.573532	0.635095	-0.267232
O21	O	0.391659	0.635112	0.075472
O22	O	0.675222	0.431718	0.267206
O23	O	0.675217	0.431723	-0.075541
O24	O	0.493344	0.431740	0.267163
O25	O	0.675213	0.533402	-0.075572
O26	O	0.573543	0.533409	0.267151
O27	O	0.493341	0.533418	0.267132
O28	O	0.675216	0.533400	0.075570
O29	O	0.493326	0.715311	-0.267275
O30	O	0.573550	0.351524	0.267206
O31	O	0.675225	0.351512	0.267230
O32	O	0.675222	0.351515	0.075624
O33	O	0.391654	0.715320	-0.075694
O34	O	0.493329	0.715308	-0.075670
O35	O	0.563370	0.473555	0.169183
O36	O	0.623223	0.473549	0.056402
O37	O	0.563363	0.593272	-0.056443
O38	O	0.503510	0.593277	0.056338
C39	C	0.533444	0.373410	0.000014
C40	C	0.533446	0.319105	0.000030
C41	C	0.373437	0.533436	-0.000072
C42	C	0.319134	0.533443	-0.000085
C43	C	0.013683	0.470912	0.058901
C44	C	-0.037335	0.470908	0.058911
O45	O	-0.037149	0.417760	0.109041
N46	N	-0.094099	0.533402	0.000005
C47	C	-0.099843	0.595903	-0.058904
O48	O	-0.152809	0.649057	-0.109006
C49	C	-0.048825	0.595906	-0.058907
C50	C	0.007938	0.533408	-0.000007
C51	C	0.070443	0.408420	0.117797
C52	C	0.121458	0.408424	0.117785
C53	C	0.115713	0.470920	0.058877
C54	C	0.058953	0.533412	-0.000019
C55	C	-0.054570	0.658406	-0.117810
C56	C	-0.003546	0.658404	-0.117807
C57	C	0.053217	0.595906	-0.058907
C58	C	0.104222	0.595913	-0.058939
N59	N	0.160985	0.533420	-0.000034
C60	C	0.166731	0.470923	0.058874
C61	C	-0.206981	0.595891	-0.058893
C62	C	-0.257999	0.595889	-0.058897
C63	C	-0.195488	0.470895	0.058920
C64	C	-0.144470	0.470898	0.058917
C65	C	-0.150218	0.533398	0.000013
C66	C	0.273863	0.470937	0.058844
C67	C	0.324880	0.470946	0.058823
C68	C	0.262364	0.595940	-0.058989
C69	C	0.211352	0.595931	-0.058973
C70	C	0.217105	0.533424	-0.000049
O71	O	0.104082	0.649034	-0.109040
O72	O	0.219699	0.417778	0.108979
C73	C	0.489250	0.026613	-0.083356
C74	C	0.489250	-0.024404	-0.083368
O75	O	0.451683	-0.013207	-0.154228
N76	N	0.533436	-0.094115	-0.000079
C77	C	0.577630	-0.112808	0.083221
O78	O	0.615214	-0.176787	0.154063
C79	C	0.577632	-0.061792	0.083227
C80	C	0.533439	0.007919	-0.000061
C81	C	0.445061	0.096320	-0.166638
C82	C	0.445061	0.147333	-0.166624
C83	C	0.489250	0.128639	-0.083329
C84	C	0.533439	0.058932	-0.000048
C85	C	0.621827	-0.080486	0.166521
C86	C	0.621826	-0.029462	0.166519
C87	C	0.577633	0.040249	0.083232
C88	C	0.577628	0.091252	0.083261
N89	N	0.533441	0.160962	-0.000028
C90	C	0.489252	0.179656	-0.083323
C91	C	0.577622	-0.219943	0.083201
C92	C	0.577618	-0.270960	0.083200
C93	C	0.489238	-0.182552	-0.083390
C94	C	0.489241	-0.131535	-0.083384
C95	C	0.533435	-0.150233	-0.000088
C96	C	0.489255	0.286785	-0.083289
C97	C	0.489258	0.337798	-0.083265
C98	C	0.577638	0.249387	0.083321
C99	C	0.577634	0.198377	0.083302
C100	C	0.533440	0.217081	-0.000013
O101	O	0.615177	0.080106	0.154082
O102	O	0.451679	0.243635	-0.154162
C103	C	0.693440	0.533399	0.000003
C104	C	0.747742	0.533392	0.000016
C105	C	0.533434	0.533422	-0.301556
C106	C	0.533433	0.533423	-0.403889
C107	C	0.533432	0.693425	-0.000083
C108	C	0.533430	0.747730	-0.000099
C109	C	0.470932	0.658414	-0.521718
C110	C	0.439681	0.720908	-0.628705
C111	C	0.439683	0.720905	-0.724852
C112	C	0.470940	0.658402	-0.714008
C113	C	0.502191	0.595908	-0.607021
C114	C	0.502185	0.595918	-0.510878
C115	C	0.564695	0.470918	-0.489193
C116	C	0.564690	0.470920	-0.393044
C117	C	0.595952	0.408415	-0.478348
C118	C	0.627201	0.345920	-0.371359
C119	C	0.627197	0.345926	-0.275209
C120	C	0.595941	0.408426	-0.286057
C121	C	0.533442	0.533413	0.301486
C122	C	0.533444	0.533412	0.403820
C123	C	0.693446	0.373391	0.000051
C124	C	0.747751	0.319080	0.000081
C125	C	0.533449	0.373406	0.301535
C126	C	0.533452	0.319099	0.403884
C127	C	0.693450	0.373387	0.301572
C128	C	0.747756	0.319074	0.403935
C129	C	0.373427	0.693448	-0.301641
C130	C	0.319121	0.747761	-0.404004
C131	C	0.373431	0.693444	-0.000121
C132	C	0.319126	0.747755	-0.000150
C133	C	0.533428	0.693429	-0.301604
C134	C	0.533425	0.747736	-0.403953
C135	C	0.742009	0.293579	-0.058801
C136	C	0.793029	0.242555	-0.058796
C137	C	0.849791	0.217028	0.000098
C138	C	0.855532	0.242534	0.058981
C139	C	0.804512	0.293561	0.058969
C140	C	0.564698	0.293592	0.510844
C141	C	0.564699	0.242572	0.607022
C142	C	0.533457	0.217057	0.596237
C143	C	0.502207	0.242570	0.489266
C144	C	0.502203	0.293592	0.393091
C145	C	0.804507	0.293565	0.393135
C146	C	0.855538	0.242540	0.489306
C147	C	0.849818	0.217020	0.596277
C148	C	0.793061	0.242534	0.607074
C149	C	0.742031	0.293562	0.510904
C150	C	0.262370	0.773276	-0.393204
C151	C	0.211338	0.824317	-0.489375
C152	C	0.217059	0.849839	-0.596346
C153	C	0.273816	0.824322	-0.607144
C154	C	0.324846	0.773285	-0.510973
C155	C	0.324868	0.773261	0.058722
C156	C	0.273848	0.824300	0.058691
C157	C	0.217086	0.849828	-0.000207
C158	C	0.211345	0.824319	-0.059086
C159	C	0.262365	0.773285	-0.059060
C160	C	0.564673	0.773234	-0.393133
C161	C	0.564681	0.824254	-0.489292
C162	C	0.533438	0.849778	-0.596271
C163	C	0.502189	0.824274	-0.607090
C164	C	0.502184	0.773252	-0.510931
H165	H	0.371098	0.420051	0.106790
C166	C	0.148901	0.852398	-0.123850
N167	N	0.101867	0.873543	-0.172620
H168	H	0.278557	0.420037	0.106827
H169	H	0.809176	0.314336	0.306043
H170	H	0.175547	0.891383	-0.000218
H171	H	0.414237	0.771792	-0.811967
C172	C	0.599084	0.214512	0.724680
N173	N	0.624985	0.193376	0.813296
C174	C	0.387271	0.745216	-0.522872
N175	N	0.434289	0.724076	-0.531843
H176	H	0.695824	0.314325	0.519713
C177	C	0.599055	0.852302	-0.477366
N178	N	0.624945	0.873427	-0.468381
H179	H	0.278467	0.845109	-0.694250
H180	H	0.695795	0.314362	-0.106773
C181	C	0.256063	0.745215	-0.275545
N182	N	0.251307	0.724087	-0.186927
C183	C	0.533448	0.905906	-0.702038
N184	N	0.533456	0.948182	-0.781697
C185	C	0.533474	0.160925	0.702045
N186	N	0.533492	0.118642	0.781743
H187	H	0.788343	0.221794	-0.106746
H188	H	0.595954	0.408417	-0.556640
C189	C	0.440633	-0.161997	-0.175024
N190	N	0.404026	-0.146519	-0.244039
C191	C	0.148911	0.664681	-0.123770
N192	N	0.101883	0.716464	-0.172566
C193	C	0.148912	0.852375	-0.477473
N194	N	0.101893	0.873507	-0.468504
C195	C	0.440642	0.414483	-0.174896
N196	N	0.404027	0.472238	-0.243913
C197	C	0.183893	0.339672	0.182590
N198	N	0.230918	0.287884	0.231410
H199	H	0.891375	0.175470	0.674575
H200	H	0.257681	0.752520	-0.106997
C201	C	0.599065	0.321652	0.522735
N202	N	0.624948	0.342788	0.531701
H203	H	0.652651	0.295035	-0.362542
H204	H	0.371082	0.752480	0.106691
C205	C	0.280176	0.852344	0.123475
N206	N	0.284944	0.873464	0.172273
H207	H	0.476771	0.221788	0.480502
C208	C	0.440636	0.307369	-0.174932
N209	N	0.404012	0.322873	-0.243952
H210	H	0.175502	0.891397	-0.674645
H211	H	0.891330	0.175478	0.000099
H212	H	0.590114	0.752461	-0.306034
H213	H	0.409080	0.204092	-0.234455
H214	H	0.788412	0.221749	0.694182
C215	C	0.467848	0.852334	-0.724777
N216	N	0.441990	0.873463	-0.813423
C217	C	0.076777	0.339663	0.182594
N218	N	0.081553	0.287871	0.231393
C219	C	0.470942	0.658402	-0.819776
N220	N	0.470942	0.658402	-0.899441
H221	H	0.476736	0.752497	-0.519758
H222	H	0.652647	0.295036	-0.188098
C223	C	-0.082034	0.402147	0.123719
N224	N	-0.035008	0.350360	0.172534
H225	H	-0.190817	0.420007	0.106882
C226	C	0.470922	0.658423	-0.415959
N227	N	0.470915	0.658432	-0.336302
H228	H	0.595932	0.408437	-0.207777
C229	C	0.810838	0.321600	0.123760
N230	N	0.815608	0.342715	0.172566
C231	C	-0.320434	0.664641	-0.123704
N232	N	-0.367460	0.716427	-0.172514
H233	H	-0.211670	0.646790	-0.106865
H234	H	-0.100780	0.709298	-0.165771
C235	C	-0.009875	0.727161	-0.182613
N236	N	-0.014644	0.778949	-0.231429
H237	H	0.409077	0.111553	-0.234473
C238	C	0.440629	-0.054855	-0.175013
N239	N	0.404014	0.002900	-0.244034
H240	H	0.901754	0.221743	0.106930
C241	C	0.626237	-0.240522	0.174849
N242	N	0.662854	-0.256024	0.243879
C243	C	0.626233	-0.347639	0.174823
N244	N	0.662856	-0.405394	0.243830
C245	C	0.670456	-0.157160	0.258123
N246	N	0.707091	-0.214914	0.327115
H247	H	0.476761	0.314353	0.306003
C248	C	0.917965	0.214478	0.477403
N249	N	0.964983	0.193341	0.468435
C250	C	0.626241	0.121693	0.174935
N251	N	0.662855	0.063936	0.243952
C252	C	0.670443	-0.050037	0.258156
N253	N	0.707061	-0.065536	0.327180
C254	C	0.626248	0.228836	0.174933
N255	N	0.662865	0.213358	0.243929
C256	C	0.405304	0.789658	-0.640625
N257	N	0.379413	0.841441	-0.649604
H258	H	0.257697	0.646823	-0.106954
