data_functionalizedCrystal
_audit_creation_method	'MofGen! by Chris Wilmer'
_symmetry_space_group_name_H-M	'P1'
_symmetry_Int_Tables_number	1
_symmetry_cell_setting	triclinic
loop_
_symmetry_equiv_pos_as_xyz
  x,y,z
_cell_length_a	12.594517
_cell_length_b	12.594516
_cell_length_c	12.645324
_cell_angle_alpha	89.969158
_cell_angle_beta	89.986765
_cell_angle_gamma	90.011939
loop_
_atom_site_label
_atom_site_type_symbol
_atom_site_fract_x
_atom_site_fract_y
_atom_site_fract_z
Zn1	Zn	1.627285	-0.423778	-0.599178
Zn2	Zn	1.627171	-0.601803	-0.421921
Zn3	Zn	1.449284	-0.423826	-0.421952
Zn4	Zn	1.449271	-0.601702	-0.599166
O5	O	1.538253	-0.512777	-0.510554
O6	O	1.776216	-0.447416	-0.575656
O7	O	1.603531	-0.578256	-0.273578
O8	O	1.472949	-0.274874	-0.445480
O9	O	1.776132	-0.578210	-0.445426
O10	O	1.603726	-0.274839	-0.575687
O11	O	1.472838	-0.447497	-0.273601
O12	O	1.300336	-0.447400	-0.445469
O13	O	1.472928	-0.578038	-0.747515
O14	O	1.300327	-0.578085	-0.575667
O15	O	1.603714	-0.447318	-0.747524
O16	O	1.603519	-0.750735	-0.445415
O17	O	1.472817	-0.750661	-0.575636
C18	C	1.261712	-0.512737	-0.510570
C19	C	1.143406	-0.512746	-0.510603
C20	C	1.538183	-0.789318	-0.510544
C21	C	1.538251	-0.907624	-0.510575
C22	C	1.074179	-0.583964	-0.581281
C23	C	1.003372	-0.486916	-0.607350
C24	C	1.003415	-0.609874	-0.484509
C25	C	1.074157	-0.415646	-0.536723
C26	C	1.074207	-0.538669	-0.413837
C27	C	1.003431	-0.441554	-0.439870
C28	C	1.467155	-0.976875	-0.581353
C29	C	1.441219	-1.047747	-0.484624
C30	C	1.564284	-1.047551	-0.607320
C31	C	1.512263	-0.976937	-0.413795
C32	C	1.635373	-0.976735	-0.536556
C33	C	1.609474	-1.047575	-0.439761
C34	C	1.815874	-0.512819	-0.510539
C35	C	1.934179	-0.512836	-0.510532
C36	C	1.538333	-0.512662	-0.787060
C37	C	1.538367	-0.512612	-0.904890
C38	C	1.538352	-0.235157	-0.510588
C39	C	1.538394	-0.116851	-0.510602
C40	C	1.620964	-0.430615	-1.072459
C41	C	1.620700	-0.430319	-0.949899
C42	C	1.426233	-0.482124	-0.949386
C43	C	1.426735	-0.481501	-1.071985
C44	C	1.566992	-0.625218	-1.072085
C45	C	1.569446	-0.624652	-0.949479
C46	C	1.538235	-0.512816	-0.235125
C47	C	1.538407	-0.512565	-0.117295
H48	H	1.105246	-0.644075	-0.641127
H49	H	0.972257	-0.465022	-0.689153
H50	H	1.105101	-0.333519	-0.558855
Br51	Br	1.700949	-0.671430	-1.123615
Br52	Br	1.475506	-0.925460	-0.277407
Br53	Br	1.320709	-0.576638	-1.121425
Br54	Br	1.706992	-0.662970	-0.901017
H55	H	1.506867	-0.686281	-1.101089
H56	H	1.105345	-0.560592	-0.332058
H57	H	1.586245	-1.078570	-0.689125
Br58	Br	0.951977	-0.341126	-0.340196
Br59	Br	0.951617	-0.746713	-0.447773
H60	H	1.406924	-0.945832	-0.641120
H61	H	1.359150	-1.078962	-0.462671
Br62	Br	1.759291	-0.462127	-0.899750
H63	H	1.669659	-1.078422	-0.379849
H64	H	1.717423	-0.945523	-0.558555
Br65	Br	1.760017	-0.462031	-1.121596
H66	H	1.601773	-0.346867	-0.920588
H67	H	1.602281	-0.347625	-1.103285
Br68	Br	1.386291	-0.344267	-1.119680
H69	H	1.513686	-0.688998	-0.918837
Br70	Br	1.385105	-0.346398	-0.898243
Br71	Br	1.320914	-0.578559	-0.900812
