data_functionalizedCrystal
_audit_creation_method	'MofGen! by Chris Wilmer'
_symmetry_space_group_name_H-M	'P1'
_symmetry_Int_Tables_number	1
_symmetry_cell_setting	triclinic
loop_
_symmetry_equiv_pos_as_xyz
  x,y,z
_cell_length_a	19.188930
_cell_length_b	17.666332
_cell_length_c	12.837942
_cell_angle_alpha	90.004116
_cell_angle_beta	88.986860
_cell_angle_gamma	90.023133
loop_
_atom_site_label
_atom_site_type_symbol
_atom_site_fract_x
_atom_site_fract_y
_atom_site_fract_z
O1	O	0.935024	0.063194	0.129378
O2	O	0.732907	0.063142	0.146795
O3	O	0.829484	0.063162	-0.012796
O4	O	0.838447	0.063174	0.288969
O5	O	0.829464	-0.062735	-0.012800
O6	O	0.732888	-0.062755	0.146790
O7	O	0.935004	-0.062703	0.129374
Cu8	Cu	0.833944	-0.074224	0.138082
Cu9	Cu	0.833967	0.074663	0.138087
O10	O	0.838428	-0.062723	0.288965
C11	C	0.706848	0.000187	0.146229
C12	C	0.629227	0.000167	0.144536
N13	N	0.833933	-0.178944	0.138077
C14	C	0.880443	-0.218533	0.200780
C15	C	0.880454	-0.297781	0.200777
C16	C	0.833943	-0.337436	0.138083
C17	C	0.787430	-0.297837	0.075368
C18	C	0.787425	-0.218591	0.075365
N19	N	0.772620	-0.461891	0.135530
N20	N	0.772626	-0.537172	0.135539
C21	C	0.833956	-0.576200	0.138087
N22	N	0.895281	-0.537104	0.140646
N23	N	0.895273	-0.461816	0.140643
C24	C	0.833944	-0.423365	0.138079
C25	C	0.880481	-0.701719	0.200790
C26	C	0.880493	-0.780968	0.200779
C27	C	0.787463	-0.781022	0.075376
C28	C	0.787457	-0.701775	0.075380
C29	C	0.833966	-0.662128	0.138093
C30	C	0.590726	0.000183	0.238178
C31	C	0.517793	0.000191	0.236588
C32	C	0.483364	0.000199	0.141349
C33	C	0.521874	0.000179	0.047694
C34	C	0.594806	0.000163	0.049287
N35	N	0.370397	0.043075	0.068553
N36	N	0.301115	0.043091	0.067046
C37	C	0.263626	0.000245	0.136543
N38	N	0.298035	-0.042609	0.207620
N39	N	0.367323	-0.042623	0.209130
C40	C	0.404282	0.000215	0.139611
C41	C	0.146042	0.000268	0.228467
C42	C	0.073108	0.000272	0.226873
C43	C	0.077191	0.000268	0.037976
C44	C	0.150124	0.000256	0.039574
C45	C	0.184545	0.000260	0.134822
C46	C	0.961064	0.000254	0.129940
C47	C	1.038684	0.000279	0.131633
C48	C	0.826446	0.000213	-0.051405
C49	C	0.817415	0.000212	-0.166441
N50	N	0.833983	0.179383	0.138083
C51	C	0.925983	0.000256	-0.407892
C52	C	0.917501	0.000255	-0.515979
C53	C	0.791969	0.000215	-0.490705
C54	C	0.800451	0.000216	-0.382618
C55	C	0.867460	0.000235	-0.341215
C56	C	0.875942	0.000231	-0.233126
C57	C	0.750411	0.000196	-0.207854
C58	C	0.741929	0.000195	-0.315942
C59	C	0.841465	0.000227	0.327574
C60	C	0.850496	0.000233	0.442610
H61	H	0.918316	-0.186257	0.251841
H62	H	0.965156	0.000274	-0.570264
Cl63	Cl	1.010220	0.000261	-0.355838
H64	H	0.918352	-0.669436	0.251853
H65	H	0.486439	0.000201	0.312845
H66	H	0.687372	0.000182	-0.349667
H67	H	0.493837	0.000196	-0.029850
Cl68	Cl	0.198528	0.000242	-0.078156
H69	H	0.174070	0.000260	0.306024
Cl70	Cl	0.960180	0.000250	-0.181078
H71	H	0.626153	0.000151	-0.026970
H72	H	0.737414	0.000207	-0.524435
H73	H	0.749550	-0.186357	0.024303
H74	H	0.041761	0.000280	0.303131
Cl75	Cl	0.676836	0.000161	-0.124025
Cl76	Cl	0.728972	-0.652002	-0.003430
Cl77	Cl	0.938928	-0.347561	0.279609
Cl78	Cl	0.938972	-0.830738	0.279608
H79	H	0.749561	-0.330129	0.024321
Cl80	Cl	0.728999	-0.830867	-0.003453
H81	H	0.618747	0.000187	0.315737
H82	H	0.049160	0.000321	-0.039569
