data_functionalizedCrystal
_audit_creation_method	'MofGen! by Chris Wilmer'
_symmetry_space_group_name_H-M	'P1'
_symmetry_Int_Tables_number	1
_symmetry_cell_setting	triclinic
loop_
_symmetry_equiv_pos_as_xyz
  x,y,z
_cell_length_a	13.897449
_cell_length_b	16.625545
_cell_length_c	13.897441
_cell_angle_alpha	90.031157
_cell_angle_beta	90.020733
_cell_angle_gamma	90.026837
loop_
_atom_site_label
_atom_site_type_symbol
_atom_site_fract_x
_atom_site_fract_y
_atom_site_fract_z
Zn1	Zn	1.474650	-0.320948	0.545377
Zn2	Zn	1.974650	0.179052	1.045377
Zn3	Zn	1.474522	-0.455799	0.384077
Zn4	Zn	1.974522	0.044201	0.884077
Zn5	Zn	1.313339	-0.320987	0.384096
Zn6	Zn	1.813339	0.179013	0.884096
Zn7	Zn	1.313299	-0.455746	0.545330
Zn8	Zn	1.813299	0.044254	1.045330
O9	O	1.393952	-0.388370	0.464720
O10	O	1.893952	0.111630	0.964720
O11	O	1.609615	-0.338843	0.523993
O12	O	2.109615	0.161157	1.023993
O13	O	1.453104	-0.437954	0.249098
O14	O	1.953104	0.062046	0.749098
O15	O	1.334808	-0.208149	0.405518
O16	O	1.834808	0.291851	0.905518
O17	O	1.609520	-0.437917	0.405486
O18	O	2.109520	0.062083	0.905486
O19	O	1.453322	-0.208121	0.524011
O20	O	1.953322	0.291879	1.024011
O21	O	1.334684	-0.338908	0.249112
O22	O	1.834684	0.161092	0.749112
O23	O	1.178352	-0.338857	0.405472
O24	O	1.678352	0.161143	0.905472
O25	O	1.334739	-0.437826	0.680318
O26	O	1.834739	0.062174	1.180318
O27	O	1.178322	-0.437864	0.523930
O28	O	1.678322	0.062136	1.023930
O29	O	1.453283	-0.338791	0.680353
O30	O	1.953283	0.161209	1.180353
O31	O	1.453065	-0.568624	0.405440
O32	O	1.953065	-0.068624	0.905440
O33	O	1.334615	-0.568585	0.523912
O34	O	1.834615	-0.068585	1.023912
C35	C	1.143338	-0.388359	0.464698
C36	C	1.643338	0.111641	0.964698
C37	C	1.036124	-0.388374	0.464712
C38	C	1.536124	0.111626	0.964712
C39	C	0.839829	-0.388377	0.464737
C40	C	1.339829	0.111623	0.964737
C41	C	0.949061	-0.388373	0.464720
C42	C	1.449061	0.111627	0.964720
C43	C	1.393848	-0.597861	0.464690
C44	C	1.893848	-0.097861	0.964690
C45	C	1.393891	-0.687482	0.464709
C46	C	1.893891	-0.187482	0.964709
C47	C	1.393928	-0.760264	0.464728
C48	C	1.893928	-0.260264	0.964728
C49	C	1.393985	-0.851573	0.464749
C50	C	1.893985	-0.351573	0.964749
C51	C	1.394035	-0.924349	0.464762
C52	C	1.894035	-0.424349	0.964762
C53	C	1.394090	-1.015663	0.464781
C54	C	1.894090	-0.515663	0.964781
C55	C	1.645545	-0.388381	0.464743
C56	C	2.145545	0.111619	0.964743
C57	C	1.752759	-0.388386	0.464752
C58	C	2.252759	0.111614	0.964752
C59	C	1.394021	-0.388299	0.716313
C60	C	1.894021	0.111701	1.216313
C61	C	1.394050	-0.388268	0.823527
C62	C	1.894050	0.111732	1.323527
C63	C	1.394084	-0.178061	0.464772
C64	C	1.894084	0.321939	0.964772
C65	C	1.394140	-0.088440	0.464794
C66	C	1.894140	0.411560	0.964794
C67	C	1.393940	-0.388383	0.214106
C68	C	1.893940	0.111617	0.714106
C69	C	1.394097	-0.388186	0.106892
C70	C	1.894097	0.111814	0.606892
C71	C	1.394076	-0.388214	1.019822
C72	C	1.894076	0.111786	1.519822
C73	C	1.394059	-0.388246	0.910590
C74	C	1.894059	0.111754	1.410590
