data_functionalizedCrystal
_audit_creation_method	'MofGen! by Chris Wilmer'
_symmetry_space_group_name_H-M	'P1'
_symmetry_Int_Tables_number	1
_symmetry_cell_setting	triclinic
loop_
_symmetry_equiv_pos_as_xyz
  x,y,z
_cell_length_a	7.088901
_cell_length_b	10.654551
_cell_length_c	8.559649
_cell_angle_alpha	102.867985
_cell_angle_beta	97.659372
_cell_angle_gamma	83.087848
loop_
_atom_site_label
_atom_site_type_symbol
_atom_site_fract_x
_atom_site_fract_y
_atom_site_fract_z
O1	O	-0.158914	-1.634591	0.209442
O2	O	-0.158931	-1.266905	0.230798
O3	O	-0.158919	-1.483142	-0.012123
O4	O	-0.158926	-1.418355	0.452362
O5	O	0.159057	-1.503317	0.017385
O6	O	0.159045	-1.287080	0.260306
O7	O	0.159062	-1.654766	0.238950
Cu8	Cu	0.188087	-1.472765	0.252322
Cu9	Cu	-0.187956	-1.448906	0.217426
O10	O	0.159050	-1.438530	0.481870
C11	C	0.000055	-1.230357	0.243983
C12	C	0.000048	-1.091398	0.239290
N13	N	0.452576	-1.489556	0.276866
C14	C	0.000063	-0.866571	0.377915
C15	C	0.000048	-0.997136	0.382324
C16	C	0.000043	-1.055089	0.091835
C17	C	0.000044	-0.924525	0.087426
C18	C	0.000082	-0.772314	0.520960
C19	C	0.000084	-0.808614	0.668415
C20	C	0.000069	-0.939179	0.672825
C21	C	0.000053	-1.033444	0.529779
N22	N	0.547555	-1.432117	0.192882
C23	C	0.000071	-0.691313	0.225768
C24	C	0.000063	-0.830269	0.230472
C25	C	0.000066	-1.498139	-0.056844
C26	C	0.000056	-1.512752	-0.234063
C27	C	0.000061	-1.423532	0.526592
C28	C	0.000059	-1.408918	0.703810
H29	H	0.000101	-0.665999	0.517387
C30	C	0.000082	-0.704934	0.825754
H31	H	0.000057	-0.745256	0.914196
H32	H	0.110968	-0.659834	0.840370
H33	H	-0.110816	-0.645760	0.819775
H34	H	0.000031	-1.131849	-0.024626
C35	C	0.000044	-1.273714	-0.184910
H36	H	0.000061	-1.210533	-0.247645
H37	H	-0.110844	-1.256559	-0.129510
H38	H	0.110941	-1.270633	-0.108925
H39	H	0.465894	-1.372572	0.105864
H40	H	0.000053	-0.968728	0.792887
H41	H	0.534228	-1.549083	0.363894
H42	H	0.000002	-1.139754	0.533377
H43	H	0.000041	-0.894970	-0.032635
H44	H	0.000076	-1.612838	-0.316458
