data_functionalizedCrystal
_audit_creation_method	'MofGen! by Chris Wilmer'
_symmetry_space_group_name_H-M	'P1'
_symmetry_Int_Tables_number	1
_symmetry_cell_setting	triclinic
loop_
_symmetry_equiv_pos_as_xyz
  x,y,z
_cell_length_a	10.686220
_cell_length_b	15.299816
_cell_length_c	10.686551
_cell_angle_alpha	85.426198
_cell_angle_beta	89.691918
_cell_angle_gamma	83.959204
loop_
_atom_site_label
_atom_site_type_symbol
_atom_site_fract_x
_atom_site_fract_y
_atom_site_fract_z
Zn1	Zn	2.027753	-0.214219	0.610037
Zn2	Zn	2.052702	-0.373258	0.435655
Zn3	Zn	1.807691	-0.236697	0.421355
Zn4	Zn	1.858671	-0.371478	0.661037
O5	O	1.936704	-0.298913	0.532021
O6	O	2.204361	-0.226655	0.571546
O7	O	2.009306	-0.365295	0.260471
O8	O	1.805106	-0.110751	0.419055
O9	O	2.222691	-0.343500	0.443429
O10	O	1.966785	-0.094236	0.557680
O11	O	1.829298	-0.264964	0.249964
O12	O	1.641154	-0.263238	0.468508
O13	O	1.891994	-0.340465	0.827559
O14	O	1.678609	-0.362260	0.644601
O15	O	2.016218	-0.224928	0.790090
O16	O	2.058739	-0.495987	0.492881
O17	O	1.916186	-0.494678	0.658468
C18	C	1.614947	-0.314995	0.560538
C19	C	1.477306	-0.321895	0.572771
C20	C	1.995737	-0.527213	0.582785
C21	C	2.021107	-0.624872	0.604533
C22	C	1.756216	-0.934843	0.376932
C23	C	1.732373	-0.843088	0.356502
C24	C	1.804555	-0.788529	0.418507
C25	C	1.900583	-0.825736	0.500947
C26	C	1.924422	-0.917500	0.521387
C27	C	1.972761	-0.771186	0.562962
C28	C	2.068789	-0.808393	0.645402
C29	C	2.092624	-0.900148	0.665837
C30	C	2.020442	-0.954707	0.603832
C31	C	1.948922	-0.679422	0.542523
C32	C	2.117128	-0.662078	0.686978
C33	C	2.140970	-0.753834	0.707408
C34	C	2.259717	-0.282768	0.503394
C35	C	2.397366	-0.275889	0.491195
C36	C	1.957009	-0.279990	0.855012
C37	C	1.965662	-0.271927	0.992652
C38	C	1.877476	-0.069719	0.481083
C39	C	1.852237	0.027950	0.459377
C40	C	1.916533	-0.317695	0.210266
C41	C	1.908055	-0.325499	0.072551
H42	H	1.434227	-0.231223	0.411994
H43	H	1.852120	-0.377536	1.035658
H44	H	2.039854	-1.029423	0.620457
O45	O	1.433123	-0.375119	0.667221
C46	C	1.300924	-0.370409	0.658809
H47	H	1.263267	-0.305791	0.604863
H48	H	1.273515	-0.428148	0.607543
C49	C	1.290659	-0.453922	0.858004
C50	C	1.244408	-0.374553	0.791754
H51	H	1.255796	-0.456482	0.940009
H52	H	1.379725	-0.457098	0.863670
H53	H	1.267816	-0.502029	0.815268
H54	H	1.267266	-0.326448	0.834482
H55	H	1.155345	-0.371368	0.786099
H56	H	2.170812	-0.930438	0.732971
H57	H	1.870735	-0.649137	0.475400
O58	O	2.032304	-0.209732	1.036499
C59	C	1.980625	-0.125331	0.987936
H60	H	1.926707	-0.131331	0.897795
H61	H	1.913832	-0.094704	1.059786
C62	C	2.153460	-0.059035	1.070310
C63	C	2.087245	-0.066404	0.959591
H64	H	2.219227	-0.022684	1.052830
H65	H	2.188276	-0.115897	1.103032
H66	H	2.097786	-0.033515	1.130174
H67	H	2.142916	-0.091934	0.899735
H68	H	2.052442	-0.009545	0.926858
O69	O	1.781273	-0.699416	0.398474
C70	C	1.681020	-0.678275	0.312439
H71	H	1.672924	-0.736291	0.253397
H72	H	1.589548	-0.663678	0.365863
C73	C	1.715954	-0.525272	0.298562
C74	C	1.706016	-0.596526	0.226039
H75	H	1.731368	-0.474844	0.245270
H76	H	1.783493	-0.539514	0.356530
H77	H	1.639724	-0.513120	0.343079
H78	H	1.782250	-0.608685	0.181537
H79	H	1.638490	-0.582285	0.168061
H80	H	1.654187	-0.812798	0.289381
O81	O	1.685928	-0.987803	0.316851
C82	C	1.558364	-0.970030	0.349757
H83	H	1.551694	-0.939294	0.443610
H84	H	1.508039	-0.922321	0.274345
C85	C	1.504206	-1.094332	0.245518
C86	C	1.496013	-1.056589	0.360796
H87	H	1.465741	-1.147724	0.252323
H88	H	1.590147	-1.106305	0.223344
H89	H	1.462269	-1.054567	0.182687
H90	H	1.537962	-1.096349	0.423621
H91	H	1.410077	-1.044625	0.382981
O92	O	2.234081	-0.790026	0.787652
C93	C	2.182321	-0.841991	0.885631
H94	H	2.078089	-0.818823	0.895701
H95	H	2.193735	-0.914000	0.863196
C96	C	2.379181	-0.861232	0.996992
C97	C	2.251164	-0.832772	1.009367
H98	H	2.421650	-0.855549	1.073318
H99	H	2.414055	-0.826225	0.930980
H100	H	2.388676	-0.921238	0.978292
H101	H	2.241671	-0.772764	1.028051
H102	H	2.216290	-0.867768	1.075385
H103	H	2.175902	-0.617657	0.737471
