data_functionalizedCrystal
_audit_creation_method	'MofGen! by Chris Wilmer'
_symmetry_space_group_name_H-M	'P1'
_symmetry_Int_Tables_number	1
_symmetry_cell_setting	triclinic
loop_
_symmetry_equiv_pos_as_xyz
  x,y,z
_cell_length_a	14.519731
_cell_length_b	23.532357
_cell_length_c	13.596369
_cell_angle_alpha	89.988481
_cell_angle_beta	89.994584
_cell_angle_gamma	83.258572
loop_
_atom_site_label
_atom_site_type_symbol
_atom_site_fract_x
_atom_site_fract_y
_atom_site_fract_z
O1	O	1.222951	0.074713	-0.081806
O2	O	0.954370	0.083492	-0.081809
O3	O	1.096783	-0.003794	-0.081787
O4	O	1.080537	0.161999	-0.081828
O5	O	1.096769	-0.003799	0.081796
O6	O	0.954356	0.083488	0.081774
O7	O	1.222937	0.074709	0.081777
Zn8	Zn	1.088644	0.079097	0.107748
Zn9	Zn	1.088663	0.079104	-0.107780
O10	O	1.080523	0.161995	0.081755
C11	C	0.920009	0.083079	-0.000018
C12	C	0.817643	0.081846	-0.000018
C13	C	1.096370	-0.025015	0.000007
C14	C	1.095148	-0.088239	0.000017
C15	C	0.734511	0.080844	-0.000021
C16	C	0.630218	0.079593	-0.000022
C17	C	0.547091	0.078600	-0.000021
C18	C	0.442790	0.077348	-0.000023
C19	C	1.087486	-0.480282	-0.089206
C20	C	1.086324	-0.539687	-0.089211
O21	O	1.085699	-0.570404	-0.165046
N22	N	1.085741	-0.569404	-0.000043
C23	C	1.086309	-0.539711	0.089136
O24	O	1.085705	-0.570442	0.164980
C25	C	1.087464	-0.480307	0.089140
C26	C	1.088057	-0.450595	-0.000033
C27	C	1.088078	-0.450570	-0.178372
C28	C	1.089241	-0.391169	-0.178366
C29	C	1.089812	-0.361481	-0.089194
C30	C	1.089220	-0.391194	-0.000027
C31	C	1.088026	-0.450616	0.178319
C32	C	1.089180	-0.391207	0.178316
C33	C	1.089773	-0.361495	0.089142
C34	C	1.090954	-0.302106	0.089151
N35	N	1.091538	-0.272389	-0.000017
C36	C	1.090967	-0.302077	-0.089189
C37	C	1.083883	-0.664464	0.089119
C38	C	1.082735	-0.723868	0.089116
C39	C	1.082748	-0.723839	-0.089232
C40	C	1.083903	-0.664435	-0.089227
C41	C	1.084466	-0.634748	-0.000048
C42	C	1.093410	-0.177332	-0.089170
C43	C	1.094577	-0.117927	-0.089156
C44	C	1.094559	-0.117960	0.089191
C45	C	1.093397	-0.177360	0.089178
C46	C	1.092819	-0.207045	-0.000011
O47	O	1.091577	-0.271351	0.164947
O48	O	1.091559	-0.271338	-0.165020
C49	C	1.257298	0.075122	-0.000017
C50	C	1.359663	0.076355	-0.000023
C51	C	1.080937	0.183216	-0.000042
C52	C	1.082158	0.246440	-0.000057
N53	N	1.088638	0.079093	0.254840
N54	N	1.088676	0.079104	-0.254872
C55	C	1.088661	0.079104	0.656131
C56	C	1.088652	0.079103	0.544479
C57	C	1.088650	0.079099	0.455489
C58	C	1.088640	0.079097	0.343830
H59	H	1.092935	-0.201494	-0.161795
H60	H	1.089720	-0.366982	-0.250980
C61	C	1.082113	-0.756500	-0.187323
H62	H	1.082634	-0.730300	-0.240434
H63	H	1.027876	-0.775385	-0.191026
H64	H	1.135453	-0.783962	-0.191027
C65	C	1.089801	-0.358552	0.276412
H66	H	1.090569	-0.318916	0.263651
H67	H	1.143389	-0.372583	0.313056
H68	H	1.035812	-0.364004	0.313041
H69	H	1.084384	-0.640247	-0.161840
H70	H	1.092922	-0.201554	0.161790
C71	C	1.087356	-0.483288	0.276409
H72	H	1.086587	-0.522920	0.263650
H73	H	1.033750	-0.469259	0.313030
H74	H	1.141328	-0.477846	0.313060
C75	C	1.087459	-0.483218	-0.276470
H76	H	1.087985	-0.457007	-0.329565
H77	H	1.033228	-0.502107	-0.280199
H78	H	1.140806	-0.510676	-0.280177
H79	H	1.082266	-0.748056	0.161730
H80	H	1.095028	-0.093778	0.161793
H81	H	1.095062	-0.093737	-0.161775
H82	H	1.084344	-0.640296	0.161744
