data_functionalizedCrystal
_audit_creation_method	'MofGen! by Chris Wilmer'
_symmetry_space_group_name_H-M	'P1'
_symmetry_Int_Tables_number	1
_symmetry_cell_setting	triclinic
loop_
_symmetry_equiv_pos_as_xyz
  x,y,z
_cell_length_a	19.077312
_cell_length_b	21.295417
_cell_length_c	19.076919
_cell_angle_alpha	92.267699
_cell_angle_beta	94.668947
_cell_angle_gamma	87.735906
loop_
_atom_site_label
_atom_site_type_symbol
_atom_site_fract_x
_atom_site_fract_y
_atom_site_fract_z
Zn1	Zn	1.061621	-0.301472	-0.355250
Zn2	Zn	1.066265	-0.402671	-0.237363
Zn3	Zn	0.948479	-0.293365	-0.242118
Zn4	Zn	0.943697	-0.402645	-0.359946
O5	O	1.005015	-0.350038	-0.298669
O6	O	1.160882	-0.318299	-0.335657
O7	O	1.054586	-0.384790	-0.139346
O8	O	0.963545	-0.206354	-0.257151
O9	O	1.164295	-0.392650	-0.249046
O10	O	1.046670	-0.212310	-0.340268
O11	O	0.968049	-0.304483	-0.142840
O12	O	0.849199	-0.304458	-0.261704
O13	O	0.955394	-0.392606	-0.457970
O14	O	0.845686	-0.384746	-0.348271
O15	O	1.042033	-0.318274	-0.454520
O16	O	1.049949	-0.490754	-0.253599
O17	O	0.959898	-0.490735	-0.343660
C18	C	0.821865	-0.343720	-0.306013
C19	C	0.743511	-0.341033	-0.309172
C20	C	0.302273	-0.321709	-0.331832
C21	C	0.375894	-0.324245	-0.328861
C22	C	0.414476	-0.364155	-0.282208
C23	C	0.379432	-0.401536	-0.238529
C24	C	0.305811	-0.399002	-0.241505
C25	C	0.634847	-0.375880	-0.268469
C26	C	0.708472	-0.378409	-0.265495
C27	C	0.704930	-0.301119	-0.355828
C28	C	0.631308	-0.298586	-0.358796
C29	C	0.596271	-0.335969	-0.315120
N30	N	0.489729	-0.366748	-0.279168
N31	N	0.521019	-0.333380	-0.318164
C32	C	1.004927	-0.513586	-0.298637
C33	C	1.004953	-0.583555	-0.298644
C34	C	1.048209	-0.619466	-0.341957
C35	C	1.048233	-0.685210	-0.341973
C36	C	1.005009	-0.715040	-0.298664
C37	C	0.961744	-0.679121	-0.255349
C38	C	0.961716	-0.613378	-0.255339
N39	N	1.002166	-0.815990	-0.237184
N40	N	1.002197	-0.878443	-0.237195
C41	C	1.005090	-0.913119	-0.298693
N42	N	1.007965	-0.882983	-0.360180
N43	N	1.007938	-0.820524	-0.360167
C44	C	1.005034	-0.786327	-0.298671
C45	C	1.048374	-1.020317	-0.342027
C46	C	1.048394	-1.086062	-0.342045
C47	C	0.961909	-1.079972	-0.255414
C48	C	0.961886	-1.014228	-0.255403
C49	C	1.005122	-0.984405	-0.298708
C50	C	1.188881	-0.356382	-0.291297
C51	C	1.267234	-0.359085	-0.288155
C52	C	0.997662	-0.356341	-0.482539
C53	C	0.994528	-0.359027	-0.560893
C54	C	1.005123	-0.185854	-0.298716
C55	C	1.005168	-0.115888	-0.298736
C56	C	1.038162	-0.321590	-0.595909
C57	C	1.035209	-0.324111	-0.669531
C58	C	0.988625	-0.364073	-0.708136
C59	C	0.944987	-0.401512	-0.673115
C60	C	0.947937	-0.398987	-0.599494
C61	C	0.974963	-0.375771	-0.928512
C62	C	0.972018	-0.378294	-1.002138
C63	C	1.062238	-0.300893	-0.998549
C64	C	1.065187	-0.298374	-0.924927
C65	C	1.021547	-0.335810	-0.889912
N66	N	0.985607	-0.366653	-0.783390
N67	N	1.024561	-0.333227	-0.814660
C68	C	1.012381	-0.343716	-0.115513
C69	C	1.015651	-0.340857	-0.037154
H70	H	0.277284	-0.429439	-0.205940
H71	H	1.097767	-0.270414	-1.027066
C72	C	0.406812	-0.428721	-0.118184
C73	C	0.421835	-0.445410	-0.187248
H74	H	0.432986	-0.455810	-0.086526
H75	H	0.419312	-0.386483	-0.107471
H76	H	0.357949	-0.432561	-0.113718
H77	H	0.470697	-0.441565	-0.191716
H78	H	0.409339	-0.487658	-0.197965
C79	C	0.883122	-0.454545	-0.998295
C80	C	0.920806	-0.422221	-1.044575
H81	H	0.851507	-0.481659	-1.024496
H82	H	0.914965	-0.478699	-0.968343
H83	H	0.857327	-0.425196	-0.970669
H84	H	0.946606	-0.451570	-1.072198
H85	H	0.888959	-0.398065	-1.074539
C86	C	0.923274	-0.509897	-0.216861
C87	C	0.914168	-0.573900	-0.207725
H88	H	0.893916	-0.485526	-0.187467
H89	H	0.971047	-0.500374	-0.204678
H90	H	0.911021	-0.500386	-0.264633
H91	H	0.926426	-0.583413	-0.159953
H92	H	0.866385	-0.583428	-0.219903
C93	C	1.142599	-0.549059	-0.348018
C94	C	1.095727	-0.586683	-0.389563
H95	H	1.171935	-0.528822	-0.377410
H96	H	1.116833	-0.518263	-0.322226
H97	H	1.170825	-0.574578	-0.316250
H98	H	1.067497	-0.561163	-0.421328
H99	H	1.121496	-0.617482	-0.415367
H100	H	1.076097	-0.289051	-0.564482
H101	H	1.103122	-0.265835	-0.893500
C102	C	1.077889	-1.111493	-0.460068
C103	C	1.095948	-1.125535	-0.389657
H104	H	1.107253	-1.135860	-0.489459
H105	H	1.030119	-1.121027	-0.472250
H106	H	1.084061	-1.068068	-0.466246
H107	H	1.089771	-1.168959	-0.383477
H108	H	1.143730	-1.116006	-0.377471
C109	C	0.932284	-0.694160	-0.137327
C110	C	0.914231	-0.711906	-0.207742
H111	H	0.902944	-0.714397	-0.107939
H112	H	0.980065	-0.706181	-0.125154
H113	H	0.926074	-0.649865	-0.131133
H114	H	0.920446	-0.756201	-0.213937
H115	H	0.866438	-0.699889	-0.219918
C116	C	1.133714	-0.684633	-0.427605
C117	C	1.095776	-0.724693	-0.389593
H118	H	1.163065	-0.709008	-0.457002
H119	H	1.101892	-0.658868	-0.455768
H120	H	1.161925	-0.658859	-0.395821
H121	H	1.067561	-0.750463	-0.421376
H122	H	1.127603	-0.750468	-0.361427
C123	C	0.219138	-0.234537	-0.345153
C124	C	0.259869	-0.277837	-0.383116
H125	H	0.192965	-0.207451	-0.376817
H126	H	0.187733	-0.256433	-0.319574
H127	H	0.249096	-0.210354	-0.313332
H128	H	0.229911	-0.302023	-0.414934
H129	H	0.291277	-0.255939	-0.408707
C130	C	1.041736	-0.242603	-0.751937
C131	C	1.083169	-0.282951	-0.708014
H132	H	1.071345	-0.217185	-0.775689
H133	H	1.013581	-0.266761	-0.785467
H134	H	1.012189	-0.216490	-0.724440
H135	H	1.112712	-0.309067	-0.735512
H136	H	1.111335	-0.258790	-0.674481
H137	H	0.907056	-0.434047	-0.704553
C138	C	1.054263	-0.949915	-0.436450
C139	C	1.095888	-0.987525	-0.389632
H140	H	1.083597	-0.929669	-0.465836
H141	H	1.022468	-0.975441	-0.464625
H142	H	1.028503	-0.919121	-0.410637
H143	H	1.121645	-1.018322	-0.415445
H144	H	1.127696	-0.961997	-0.361454
H145	H	0.939438	-0.406264	-0.900012
C146	C	0.914458	-0.503618	-0.578158
C147	C	0.899987	-0.440145	-0.560995
H148	H	0.884857	-0.529026	-0.554385
H149	H	0.906026	-0.510838	-0.627522
H150	H	0.962303	-0.514036	-0.564196
H151	H	0.852142	-0.429725	-0.574961
H152	H	0.908413	-0.432921	-0.511620
C153	C	0.364999	-0.247581	-0.418434
C154	C	0.414409	-0.283153	-0.376865
H155	H	0.388778	-0.222208	-0.448066
H156	H	0.335204	-0.274977	-0.446505
H157	H	0.337513	-0.221425	-0.388919
H158	H	0.441892	-0.309312	-0.406380
H159	H	0.444217	-0.255753	-0.348790
C160	C	0.635205	-0.222445	-0.447791
C161	C	0.588902	-0.254717	-0.410080
H162	H	0.609023	-0.195363	-0.479452
H163	H	0.665149	-0.198262	-0.415968
H164	H	0.662836	-0.251827	-0.473539
H165	H	0.561274	-0.225335	-0.384328
H166	H	0.558945	-0.278901	-0.441908
C167	C	0.843921	-0.988810	-0.225740
C168	C	0.914344	-0.974753	-0.207782
H169	H	0.814570	-0.964442	-0.196337
H170	H	0.831671	-0.979288	-0.273502
H171	H	0.837761	-1.032234	-0.219547
H172	H	0.920505	-0.931329	-0.213980
H173	H	0.926598	-0.984270	-0.160008
H174	H	0.733466	-0.270685	-0.391387
C175	C	0.867520	-1.150374	-0.249362
C176	C	0.914391	-1.112753	-0.207811
H177	H	0.838184	-1.170615	-0.219973
H178	H	0.839300	-1.124857	-0.281126
H179	H	0.893292	-1.181172	-0.275157
H180	H	0.888618	-1.081952	-0.182020
H181	H	0.942614	-1.138272	-0.176034
C182	C	0.704582	-0.454572	-0.176516
C183	C	0.750882	-0.422290	-0.214219
H184	H	0.730766	-0.481664	-0.144866
H185	H	0.676954	-0.425203	-0.150762
H186	H	0.674635	-0.478753	-0.208350
H187	H	0.780827	-0.398106	-0.182384
H188	H	0.778523	-0.451664	-0.239974
H189	H	0.606328	-0.406318	-0.232902
