data_functionalizedCrystal
_audit_creation_method	'MofGen! by Chris Wilmer'
_symmetry_space_group_name_H-M	'P1'
_symmetry_Int_Tables_number	1
_symmetry_cell_setting	triclinic
loop_
_symmetry_equiv_pos_as_xyz
  x,y,z
_cell_length_a	14.628931
_cell_length_b	14.560432
_cell_length_c	14.628931
_cell_angle_alpha	90.000582
_cell_angle_beta	60.000193
_cell_angle_gamma	60.000539
loop_
_atom_site_label
_atom_site_type_symbol
_atom_site_fract_x
_atom_site_fract_y
_atom_site_fract_z
Zr1	Zr	1.000586	0.884755	-0.119954
O2	O	1.191290	0.738108	-0.265915
O3	O	0.809881	0.929711	-0.075209
O4	O	1.000586	0.929711	-0.265915
O5	O	1.000585	0.738108	0.075221
O6	O	1.000587	1.080849	-0.265914
O7	O	1.000585	0.738108	-0.075210
O8	O	0.659451	1.080849	0.075223
O9	O	1.341722	0.738108	-0.265915
O10	O	0.888322	1.061676	-0.056125
O11	O	0.888322	0.948883	0.056139
O12	O	1.112852	0.948883	-0.168391
O13	O	1.112851	0.836090	-0.056126
Zr14	Zr	1.000589	1.125804	0.119968
Zr15	Zr	1.000588	1.125804	-0.119953
Zr16	Zr	1.000587	0.884755	0.119967
Zr17	Zr	1.240508	0.884755	-0.119954
Zr18	Zr	0.760667	1.125804	0.119968
O19	O	1.191294	1.080849	0.075224
O20	O	1.191293	1.080849	-0.265913
O21	O	1.191291	0.738108	0.075222
O22	O	0.809885	1.272451	0.265929
O23	O	0.809884	1.272451	-0.075208
O24	O	0.809882	0.929710	0.265928
O25	O	1.000590	1.272451	-0.075207
O26	O	1.000589	1.080849	0.265929
O27	O	1.000588	0.929710	0.265928
O28	O	1.000590	1.272451	0.075224
O29	O	1.341724	0.929710	-0.265914
O30	O	0.659451	1.080849	0.265928
O31	O	0.659453	1.272451	0.265929
O32	O	0.659453	1.272451	0.075224
O33	O	1.341722	0.738108	-0.075210
O34	O	1.341724	0.929710	-0.075209
O35	O	0.888323	1.061676	0.168405
O36	O	0.888324	1.174470	0.056141
O37	O	1.112854	1.061676	-0.056125
O38	O	1.112853	0.948883	0.056140
C39	C	0.700482	1.005280	0.000007
C40	C	0.598629	1.005280	0.000007
C41	C	0.553220	0.949327	0.055697
C42	C	0.447949	0.949326	0.055699
C43	C	1.000585	0.703764	0.000005
C44	C	1.000584	0.601432	0.000005
C45	C	1.000576	0.409145	0.165772
C46	C	1.000574	0.457226	0.248649
C47	C	1.000577	0.553374	0.248647
C48	C	1.000578	0.601446	0.165761
C49	C	1.000579	0.553365	0.082884
C50	C	1.000580	0.457212	0.082893
C51	C	1.000585	0.553351	-0.082872
C52	C	1.000592	0.457199	-0.082877
C53	C	1.000586	0.601423	-0.165758
C54	C	1.000597	0.553338	-0.248642
C55	C	1.000595	0.457183	-0.248637
C56	C	1.000593	0.409118	-0.165754
C57	C	1.300693	1.005279	0.000008
C58	C	1.402546	1.005279	0.000008
C59	C	1.000587	1.005280	-0.300098
C60	C	1.000586	1.005280	-0.401951
C61	C	1.000590	1.306795	0.000009
C62	C	1.000591	1.409127	0.000009
C63	C	1.111968	0.949327	-0.503051
C64	C	1.111971	0.949326	-0.608323
C65	C	1.000588	1.005279	0.300112
C66	C	1.000589	1.005279	0.401965
C67	C	0.700485	1.306796	0.000008
C68	C	0.598633	1.409128	0.000009
C69	C	0.700483	1.005280	0.300111
C70	C	0.598631	1.005280	0.401964
C71	C	0.700486	1.306795	0.300113
C72	C	0.598634	1.409127	0.401966
C73	C	1.300689	0.703764	-0.300099
C74	C	1.402541	0.601432	-0.401952
C75	C	1.300690	0.703763	0.000006
C76	C	1.402542	0.601432	0.000005
C77	C	1.300692	1.005280	-0.300097
C78	C	1.402545	1.005280	-0.401950
C79	C	0.553223	1.398797	-0.055683
C80	C	0.447954	1.504561	-0.055683
C81	C	0.553222	1.061233	0.503065
C82	C	0.447952	1.061234	0.608336
C83	C	0.553226	1.510703	0.391685
C84	C	0.447957	1.616469	0.496954
H85	H	0.441585	1.053190	-0.047669
O86	O	0.449099	1.616353	0.056980
C87	C	0.425685	1.564232	0.139199
H88	H	0.413681	1.498784	0.114554
H89	H	0.333714	1.630326	0.223287
C90	C	0.555305	1.586807	0.178982
C91	C	0.540573	1.506416	0.148707
H92	H	0.626170	1.551147	0.184852
H93	H	0.571076	1.621926	0.123592
H94	H	0.478655	1.641879	0.249052
H95	H	0.617216	1.451353	0.078632
H96	H	0.524818	1.471286	0.204085
O97	O	0.401254	1.118564	0.711776
C98	C	0.345866	1.233511	0.724120
H99	H	0.317198	1.254381	0.663485
H100	H	0.419155	1.252385	0.705226
C101	C	0.260297	1.279751	0.919503
C102	C	0.225077	1.305387	0.845038
H103	H	0.185792	1.324089	0.994092
H104	H	0.297616	1.202309	0.911187
H105	H	0.321373	1.295480	0.903745
H106	H	0.164015	1.289645	0.860788
H107	H	0.187744	1.382828	0.853359
H108	H	1.000564	0.679743	0.165772
O109	O	1.225619	0.892196	-0.513148
C110	C	1.200315	0.904933	-0.405791
H111	H	1.099562	0.926627	-0.342436
H112	H	1.205820	0.975452	-0.381383
C113	C	1.425085	0.767638	-0.484890
C114	C	1.301343	0.794274	-0.407077
H115	H	1.487406	0.699381	-0.485683
H116	H	1.442134	0.759059	-0.557219
H117	H	1.429654	0.826413	-0.464540
H118	H	1.296771	0.735507	-0.427435
H119	H	1.284295	0.802840	-0.334752
H120	H	0.441586	0.957381	0.511322
O121	O	0.552224	0.948031	0.391468
C122	C	0.614859	0.896030	0.277025
H123	H	0.711892	0.884310	0.225892
H124	H	0.552062	0.951201	0.248855
C125	C	0.517852	0.794929	0.321944
C126	C	0.637035	0.780525	0.259142
H127	H	0.531527	0.723682	0.310912
H128	H	0.475650	0.829966	0.399046
H129	H	0.465534	0.840909	0.298461
H130	H	0.689345	0.734558	0.282635
H131	H	0.679247	0.745478	0.182043
H132	H	0.592287	1.519367	0.304950
H133	H	0.559580	1.496272	0.047683
H134	H	0.592285	1.109130	0.511685
H135	H	1.000580	0.679716	-0.165753
O136	O	0.552223	1.062450	-0.056973
C137	C	0.614858	1.114502	-0.108729
H138	H	0.711892	1.068385	-0.120397
H139	H	0.552062	1.205897	-0.053815
C140	C	0.517849	1.166837	-0.209355
C141	C	0.637033	1.110189	-0.223693
H142	H	0.531523	1.164182	-0.280267
H143	H	0.475646	1.131773	-0.174483
H144	H	0.465531	1.242994	-0.163589
H145	H	0.689341	1.034031	-0.269446
H146	H	0.679245	1.145241	-0.258575
O147	O	0.552068	1.398926	0.505497
C148	C	0.575479	1.451052	0.564303
H149	H	0.587491	1.516494	0.527649
H150	H	0.667445	1.384958	0.556428
C151	C	0.445842	1.428494	0.733710
C152	C	0.460584	1.508878	0.688698
H153	H	0.374974	1.464160	0.810444
H154	H	0.430073	1.393372	0.694091
H155	H	0.522488	1.373422	0.727137
H156	H	0.383946	1.563939	0.695259
H157	H	0.476338	1.544010	0.728321
H158	H	0.592286	1.311653	-0.103366
O159	O	0.448924	1.502211	0.608420
C160	C	0.346858	1.489811	0.667440
H161	H	0.265451	1.550730	0.659545
H162	H	0.309178	1.508793	0.759515
C163	C	0.496215	1.293508	0.627895
C164	C	0.396235	1.368324	0.618190
H165	H	0.526673	1.218569	0.597520
H166	H	0.564980	1.301863	0.588135
H167	H	0.464802	1.309341	0.704626
H168	H	0.427653	1.352499	0.541460
H169	H	0.327477	1.359964	0.657936
H170	H	1.000589	0.330848	0.165774
H171	H	1.000570	0.418079	0.316136
H172	H	0.592282	0.901420	0.103371
H173	H	0.408899	1.495892	-0.103359
H174	H	0.408903	1.703607	0.488325
O175	O	1.000423	0.410669	-0.329117
C176	C	0.889048	0.490094	-0.323837
H177	H	0.851922	0.578555	-0.281707
H178	H	0.811074	0.475149	-0.273360
C179	C	0.968470	0.368896	-0.494911
C180	C	0.922877	0.477546	-0.443175
H181	H	0.989334	0.361154	-0.568523
H182	H	1.043503	0.315384	-0.498467
H183	H	0.903484	0.356455	-0.452836
H184	H	0.987869	0.489981	-0.485243
H185	H	0.847856	0.531061	-0.439629
H186	H	1.000569	0.592525	0.316136
H187	H	1.000589	0.592488	-0.316118
O188	O	1.225623	0.892274	-0.711870
C189	C	1.200324	0.904959	-0.793926
H190	H	1.099571	0.984489	-0.756530
H191	H	1.205833	0.828908	-0.823843
C192	C	1.425094	0.816433	-0.939592
C193	C	1.301351	0.914120	-0.893664
H194	H	1.487415	0.822079	-1.001119
H195	H	1.442141	0.807883	-0.884311
H196	H	1.429667	0.753068	-0.964515
H197	H	1.296776	0.977481	-0.868731
H198	H	1.284307	0.922681	-0.948944
H199	H	0.408896	0.901425	0.103380
H200	H	1.000599	0.330825	-0.165746
H201	H	0.905230	1.053186	-0.393330
H202	H	0.905226	1.053179	-0.511308
