data_functionalizedCrystal
_audit_creation_method	'MofGen! by Chris Wilmer'
_symmetry_space_group_name_H-M	'P1'
_symmetry_Int_Tables_number	1
_symmetry_cell_setting	triclinic
loop_
_symmetry_equiv_pos_as_xyz
  x,y,z
_cell_length_a	17.699083
_cell_length_b	12.996460
_cell_length_c	17.699092
_cell_angle_alpha	89.998609
_cell_angle_beta	83.284691
_cell_angle_gamma	90.000172
loop_
_atom_site_label
_atom_site_type_symbol
_atom_site_fract_x
_atom_site_fract_y
_atom_site_fract_z
O1	O	1.004081	0.085419	0.095706
O2	O	0.783703	0.085452	0.108158
O3	O	0.900115	0.085432	-0.008257
O4	O	0.887669	0.085439	0.212121
O5	O	0.900100	-0.085702	-0.008250
O6	O	0.783688	-0.085682	0.108165
O7	O	1.004066	-0.085715	0.095712
Cu8	Cu	0.893876	-0.101324	0.101939
Cu9	Cu	0.893893	0.101061	0.101931
O10	O	0.887654	-0.085695	0.212127
C11	C	0.755499	-0.000111	0.107715
C12	C	0.671480	-0.000098	0.106377
C13	C	0.622862	-0.000096	0.174710
C14	C	0.543918	-0.000109	0.173448
C15	C	0.513595	-0.000117	0.103851
C16	C	0.562220	-0.000122	0.035513
C17	C	0.641162	-0.000116	0.036776
C18	C	0.243857	-0.000148	0.030418
C19	C	0.164909	-0.000151	0.029160
C20	C	0.146613	-0.000141	0.167089
C21	C	0.225555	-0.000135	0.168352
C22	C	0.274173	-0.000145	0.100014
C23	C	0.359772	-0.000133	0.101384
C24	C	0.427998	-0.000122	0.102481
N25	N	0.893869	-0.243671	0.101944
C26	C	0.893872	-0.336777	0.101946
C27	C	0.893879	-0.453582	0.101941
C28	C	0.893889	-0.546681	0.101933
C29	C	0.893897	-0.663493	0.101929
C30	C	1.032271	-0.000150	0.096155
C31	C	1.116289	-0.000156	0.097494
C32	C	0.899661	-0.000133	-0.036450
C33	C	0.898319	-0.000128	-0.120468
N34	N	0.893906	0.243408	0.101920
C35	C	0.897699	0.093158	-0.159939
C36	C	0.896434	0.093159	-0.238882
C37	C	0.895795	-0.000126	-0.278353
C38	C	0.896413	-0.093420	-0.238876
C39	C	0.897672	-0.093420	-0.159934
C40	C	0.891333	-0.093421	-0.557241
C41	C	0.890075	-0.093413	-0.636189
C42	C	0.890095	0.093159	-0.636189
C43	C	0.891354	0.093159	-0.557247
C44	C	0.891968	-0.000134	-0.517777
C45	C	0.893338	-0.000134	-0.432178
C46	C	0.894430	-0.000127	-0.363952
C47	C	0.888109	-0.000128	0.240321
C48	C	0.889450	-0.000126	0.324339
H49	H	0.680748	-0.000117	-0.018868
C50	C	0.898353	0.194551	-0.117220
C51	C	0.897518	0.276246	-0.168685
C52	C	0.898106	0.369666	-0.129360
H53	H	0.942951	0.198571	-0.092272
H54	H	0.854707	0.198491	-0.080586
H55	H	0.941159	0.272308	-0.205304
H56	H	0.852922	0.272260	-0.193635
H57	H	0.854461	0.373606	-0.092727
H58	H	0.942705	0.373676	-0.104414
H59	H	0.897533	0.425107	-0.164272
C60	C	0.131943	0.000046	-0.046384
C61	C	0.087174	0.088103	-0.051154
C62	C	0.056801	0.088328	-0.120733
H63	H	0.101475	-0.059563	-0.049810
H64	H	0.172184	0.000094	-0.086926
H65	H	0.046939	0.088045	-0.010623
H66	H	0.117625	0.147726	-0.047742
H67	H	0.097042	0.088376	-0.161275
H68	H	0.026337	0.028715	-0.124153
H69	H	0.026428	0.148077	-0.123982
H70	H	0.250239	-0.000124	0.225025
C71	C	0.889522	-0.194667	-0.679108
C72	C	0.953896	-0.200150	-0.733052
C73	C	0.953415	-0.293408	-0.772597
H74	H	0.844961	-0.198618	-0.704119
H75	H	0.890104	-0.250264	-0.644327
H76	H	0.953307	-0.144569	-0.767828
H77	H	0.998468	-0.196218	-0.708061
H78	H	0.953997	-0.349005	-0.737816
H79	H	0.908851	-0.297350	-0.797603
H80	H	0.997095	-0.297145	-0.809197
C81	C	0.898189	-0.194669	-0.117012
C82	C	0.833809	-0.200110	-0.063073
C83	C	0.834249	-0.293372	-0.023524
H84	H	0.942746	-0.198655	-0.091996
H85	H	0.897588	-0.250262	-0.151791
H86	H	0.834418	-0.144532	-0.028299
H87	H	0.789242	-0.196142	-0.088068
H88	H	0.833647	-0.348964	-0.058304
H89	H	0.878809	-0.297349	0.001486
H90	H	0.790565	-0.297080	0.013072
C91	C	0.093736	0.000019	0.241230
C92	C	0.047863	0.088045	0.244521
C93	C	-0.000860	0.088225	0.312800
H94	H	0.123007	0.000082	0.282921
H95	H	0.062519	-0.059632	0.243617
H96	H	0.079077	0.147681	0.242141
H97	H	0.018576	0.088001	0.202845
H98	H	-0.032078	0.028574	0.315187
H99	H	0.028417	0.088285	0.354486
H100	H	-0.031996	0.147944	0.315039
H101	H	0.895933	0.169123	-0.271017
H102	H	0.283433	-0.000157	-0.025227
C103	C	0.655633	-0.000139	0.250351
C104	C	0.596154	-0.000169	0.309923
C105	C	0.626310	-0.000226	0.379616
H106	H	0.686034	0.059525	0.253818
H107	H	0.686028	-0.059839	0.253754
H108	H	0.565771	0.059524	0.306522
H109	H	0.565748	-0.059829	0.306481
H110	H	0.656705	-0.059926	0.383019
H111	H	0.656711	0.059439	0.383075
H112	H	0.585959	-0.000256	0.420044
C113	C	0.529154	-0.000080	-0.039973
C114	C	0.449614	-0.000054	-0.026456
C115	C	0.419130	0.000002	-0.095977
H116	H	0.545769	-0.059742	-0.068158
H117	H	0.545809	0.059622	-0.068113
H118	H	0.432967	-0.059750	0.001672
H119	H	0.432979	0.059604	0.001718
H120	H	0.435784	0.059703	-0.124116
H121	H	0.435750	-0.059662	-0.124157
H122	H	0.365159	0.000028	-0.086815
C123	C	0.892006	0.194549	-0.514525
C124	C	0.891171	0.276249	-0.565986
C125	C	0.891758	0.369666	-0.526658
H126	H	0.936604	0.198568	-0.489576
H127	H	0.848360	0.198486	-0.477892
H128	H	0.934813	0.272314	-0.602605
H129	H	0.846576	0.272264	-0.590937
H130	H	0.848111	0.373602	-0.490025
H131	H	0.936356	0.373674	-0.501710
H132	H	0.891184	0.425110	-0.561567
H133	H	0.895888	-0.169375	-0.271019
H134	H	0.889591	0.169123	-0.668335
C135	C	0.491006	-0.000145	0.247558
C136	C	0.415382	-0.000179	0.231559
C137	C	0.366618	-0.000222	0.299813
H138	H	0.500085	0.059526	0.276146
H139	H	0.500140	-0.059838	0.276117
H140	H	0.406251	0.059508	0.203012
H141	H	0.406278	-0.059846	0.202982
H142	H	0.375752	-0.059916	0.328373
H143	H	0.375704	0.059449	0.328396
H144	H	0.315302	-0.000255	0.288968
C145	C	0.892064	-0.194815	-0.514539
C146	C	0.891268	-0.276506	-0.566010
C147	C	0.891962	-0.369929	-0.526701
H148	H	0.848454	-0.198856	-0.477885
H149	H	0.936697	-0.198738	-0.489623
H150	H	0.846639	-0.272584	-0.590915
H151	H	0.934874	-0.272498	-0.602666
H152	H	0.936595	-0.373853	-0.501784
H153	H	0.848351	-0.373960	-0.490047
H154	H	0.891429	-0.425367	-0.561618
