data_functionalizedCrystal
_audit_creation_method	'MofGen! by Chris Wilmer'
_symmetry_space_group_name_H-M	'P1'
_symmetry_Int_Tables_number	1
_symmetry_cell_setting	triclinic
loop_
_symmetry_equiv_pos_as_xyz
  x,y,z
_cell_length_a	14.044220
_cell_length_b	15.021413
_cell_length_c	14.044220
_cell_angle_alpha	89.999554
_cell_angle_beta	86.811122
_cell_angle_gamma	89.988673
loop_
_atom_site_label
_atom_site_type_symbol
_atom_site_fract_x
_atom_site_fract_y
_atom_site_fract_z
O1	O	1.277153	0.073941	-0.230159
O2	O	1.000481	0.073963	-0.221854
O3	O	1.134664	0.073944	-0.087671
O4	O	1.142970	0.073961	-0.364342
O5	O	1.134682	-0.074121	-0.087681
O6	O	1.000499	-0.074101	-0.221864
O7	O	1.277170	-0.074123	-0.230170
Zn8	Zn	1.138837	-0.097620	-0.226019
Zn9	Zn	1.138814	0.097461	-0.226005
O10	O	1.142987	-0.074104	-0.364353
C11	C	0.964868	-0.000066	-0.218223
C12	C	0.858725	-0.000058	-0.207379
N13	N	1.138860	-0.230758	-0.226028
C14	C	0.664388	-0.000077	-0.187553
C15	C	0.613258	-0.000076	-0.264467
C16	C	0.505122	-0.000086	-0.253435
C17	C	0.772534	-0.000066	-0.198583
C18	C	1.200919	-0.470427	-0.163968
C19	C	1.113084	-0.529750	-0.138132
C20	C	1.138837	-0.412365	-0.226014
C21	C	1.226646	-0.529783	-0.251792
C22	C	1.138822	-0.587789	-0.225999
C23	C	1.050956	-0.470382	-0.200133
C24	C	1.164577	-0.470410	-0.313835
C25	C	1.076683	-0.529707	-0.288030
C26	C	1.138847	-0.311308	-0.226021
C27	C	1.138803	-0.688844	-0.225993
C28	C	1.312783	-0.000092	-0.233800
C29	C	1.418926	-0.000094	-0.244645
C30	C	1.131037	-0.000089	-0.052054
C31	C	1.120193	-0.000089	0.054088
N32	N	1.138798	0.230598	-0.225989
C33	C	1.146614	-0.000069	-0.399969
C34	C	1.157459	-0.000063	-0.506112
C35	C	1.100366	-0.000074	0.248426
C36	C	1.177281	-0.000078	0.299556
C37	C	1.166249	-0.000070	0.407692
C38	C	1.111397	-0.000082	0.140280
H39	H	0.650697	-0.000067	-0.338600
H40	H	1.300911	-0.555876	-0.273601
H41	H	0.626951	-0.000086	-0.113425
C42	C	1.270708	-0.435758	-0.093805
C43	C	1.243302	-0.465808	-0.001966
C44	C	1.307556	-0.433877	0.062695
H45	H	1.332951	-0.456947	-0.111382
H46	H	1.270628	-0.372516	-0.094653
H47	H	1.243393	-0.529036	-0.001121
H48	H	1.181069	-0.444620	0.015641
H49	H	1.307475	-0.370635	0.061848
H50	H	1.369795	-0.455069	0.045109
H51	H	1.288965	-0.454255	0.125016
H52	H	1.251414	-0.000024	0.262117
C53	C	1.193722	-0.435794	-0.412897
C54	C	1.212706	-0.507786	-0.474377
C55	C	1.239582	-0.475931	-0.565638
H56	H	1.143464	-0.401011	-0.436047
H57	H	1.249350	-0.400144	-0.409949
H58	H	1.157085	-0.543421	-0.477328
H59	H	1.262969	-0.542576	-0.451257
H60	H	1.295210	-0.440280	-0.562690
H61	H	1.189320	-0.441148	-0.588778
H62	H	1.252474	-0.524771	-0.607361
C63	C	1.083882	-0.564387	-0.039086
C64	C	0.992563	-0.532978	-0.011687
C65	C	0.965642	-0.564853	0.079555
H66	H	1.083437	-0.627617	-0.039819
H67	H	1.128007	-0.544068	0.004961
H68	H	0.948448	-0.553302	-0.055722
H69	H	0.992983	-0.469752	-0.010932
H70	H	1.009768	-0.544534	0.123602
H71	H	0.965203	-0.628083	0.078813
H72	H	0.903684	-0.543541	0.098160
H73	H	0.976667	-0.444399	-0.178240
H74	H	1.024115	-0.555571	-0.340493
H75	H	1.026239	-0.000066	0.285863
