data_functionalizedCrystal
_audit_creation_method	'MofGen! by Chris Wilmer'
_symmetry_space_group_name_H-M	'P1'
_symmetry_Int_Tables_number	1
_symmetry_cell_setting	triclinic
loop_
_symmetry_equiv_pos_as_xyz
  x,y,z
_cell_length_a	6.817900
_cell_length_b	12.840933
_cell_length_c	10.943632
_cell_angle_alpha	81.923734
_cell_angle_beta	108.838880
_cell_angle_gamma	88.345099
loop_
_atom_site_label
_atom_site_type_symbol
_atom_site_fract_x
_atom_site_fract_y
_atom_site_fract_z
V1	V	-3.926147	0.325188	-0.181671
O2	O	-3.887446	0.319024	0.005600
O3	O	-3.905407	0.322940	-0.357213
O4	O	-3.821522	0.467026	-0.180250
O5	O	-3.971911	0.173940	-0.172588
V6	V	-4.413477	0.307101	-0.159109
O7	O	-4.179056	0.364865	-0.231163
O8	O	-4.610765	0.267425	-0.109617
O9	O	-4.211010	0.309350	0.016433
O10	O	-4.569575	0.313265	-0.346380
O11	O	-4.485109	0.458349	-0.168192
O12	O	-4.294895	0.165264	-0.160530
C13	C	-3.758956	0.317803	-0.399964
C14	C	-3.822910	0.316910	-0.543480
C15	C	-3.651963	0.501598	-0.174223
C16	C	-3.647810	0.619729	-0.174221
C17	C	-4.127795	0.130686	-0.166554
C18	C	-4.110799	0.012554	-0.166553
C19	C	-3.671215	0.310970	-0.620577
C20	C	-3.799079	0.226768	-0.692437
C21	C	-3.809022	0.399531	-0.727345
C22	C	-3.949928	0.232648	-0.613435
C23	C	-3.959845	0.405488	-0.648350
C24	C	-4.087829	0.321270	-0.720172
V25	V	-3.909097	0.811353	-0.181680
O26	O	-3.944242	0.962560	-0.172595
O27	O	-3.814619	0.664169	-0.180259
O28	O	-3.886817	0.852732	-0.357220
O29	O	-3.871544	0.772691	0.005590
V30	V	-4.394481	0.848801	-0.159125
O31	O	-4.163944	0.795819	-0.231176
O32	O	-4.589039	0.887020	-0.109636
O33	O	-4.266146	0.984737	-0.160542
O34	O	-4.476527	0.703510	-0.168212
O35	O	-4.549225	0.893378	-0.346397
O36	O	-4.193947	0.796174	0.016418
C37	C	-4.020806	0.314483	0.059177
C38	C	-3.936087	0.315383	0.202692
C39	C	-3.739915	0.860260	-0.399960
C40	C	-3.802534	0.897232	-0.543475
C41	C	-4.004782	0.771677	0.059171
C42	C	-3.921438	0.733669	0.202688
C43	C	-4.013022	0.920047	-0.617503
C44	C	-4.071885	0.954802	-0.752348
C45	C	-3.920259	0.966733	-0.813164
C46	C	-3.709753	0.943918	-0.739125
C47	C	-3.650891	0.909171	-0.604281
C48	C	-3.709254	0.703395	0.263477
C49	C	-3.630912	0.667694	0.398329
C50	C	-3.764760	0.662261	0.472388
C51	C	-3.976963	0.692541	0.411590
C52	C	-4.055299	0.728248	0.276743
H53	H	-3.494495	0.306516	-0.577052
C54	C	-3.561994	0.709373	0.182029
C55	C	-3.378554	0.779643	0.213525
C56	C	-3.231277	0.785624	0.132086
C57	C	-3.267441	0.721335	0.019153
C58	C	-3.450889	0.651059	-0.012347
C59	C	-3.598166	0.645078	0.069091
H60	H	-3.351776	0.827239	0.297129
H61	H	-3.095476	0.837647	0.155406
H62	H	-3.158418	0.725762	-0.041132
H63	H	-3.477667	0.603464	-0.095952
H64	H	-3.733967	0.593055	0.045772
H65	H	-4.264567	0.325595	-0.763437
C66	C	-3.985028	1.004946	-0.961497
C67	C	-3.818267	1.018070	-1.028411
C68	C	-3.883051	1.056280	-1.176745
C69	C	-4.114596	1.081366	-1.258165
C70	C	-4.281371	1.068243	-1.191252
C71	C	-4.216588	1.030033	-1.042918
H72	H	-3.646851	0.999500	-0.968139
H73	H	-3.759591	1.065995	-1.226278
H74	H	-4.162553	1.109652	-1.367970
H75	H	-4.452788	1.086813	-1.251524
H76	H	-4.340047	1.020318	-0.993385
H77	H	-3.731776	0.151196	-0.712488
H78	H	-3.750050	0.470035	-0.776924
C79	C	-3.397494	0.634379	0.465184
C80	C	-3.250288	0.640338	0.383707
C81	C	-3.016875	0.607021	0.450556
C82	C	-2.930668	0.567745	0.598883
C83	C	-3.077876	0.561785	0.680368
C84	C	-3.311289	0.595101	0.613519
H85	H	-3.314101	0.669414	0.273899
H86	H	-2.907902	0.611434	0.390235
H87	H	-2.757882	0.543082	0.648369
H88	H	-3.014063	0.532709	0.790176
H89	H	-3.420262	0.590688	0.673841
C90	C	-4.124183	0.686552	0.493065
C91	C	-4.357595	0.719844	0.426218
C92	C	-4.504814	0.713847	0.507694
C93	C	-4.418622	0.674558	0.656018
C94	C	-4.185199	0.641263	0.722873
C95	C	-4.037979	0.647260	0.641396
H96	H	-4.421410	0.748931	0.316412
H97	H	-4.677610	0.738494	0.458203
H98	H	-4.527603	0.670118	0.716332
H99	H	-4.121384	0.612176	0.832678
H100	H	-3.865184	0.622613	0.690888
H101	H	-4.008870	0.162051	-0.564007
H102	H	-4.027068	0.481060	-0.628266
H103	H	-3.586313	0.953637	-0.788662
H104	H	-3.479491	0.890592	-0.544018
H105	H	-3.700948	0.633182	0.582188
H106	H	-4.136513	0.910334	-0.568007
H107	H	-4.243298	0.973371	-0.812614
H108	H	-4.228081	0.752890	0.227258
