data_functionalizedCrystal
_audit_creation_method	'MofGen! by Chris Wilmer'
_symmetry_space_group_name_H-M	'P1'
_symmetry_Int_Tables_number	1
_symmetry_cell_setting	triclinic
loop_
_symmetry_equiv_pos_as_xyz
  x,y,z
_cell_length_a	15.538191
_cell_length_b	17.766277
_cell_length_c	19.288865
_cell_angle_alpha	90.011603
_cell_angle_beta	114.795829
_cell_angle_gamma	89.989018
loop_
_atom_site_label
_atom_site_type_symbol
_atom_site_fract_x
_atom_site_fract_y
_atom_site_fract_z
O1	O	1.250877	-0.062580	0.225834
O2	O	0.976277	-0.062588	0.145548
O3	O	1.121512	-0.062569	0.288804
O4	O	1.105642	-0.062599	0.082579
O5	O	1.121486	0.062620	0.288803
O6	O	0.976252	0.062601	0.145547
O7	O	1.250851	0.062609	0.225834
Cu8	Cu	1.113549	0.074035	0.185690
Cu9	Cu	1.113579	-0.074014	0.185691
O10	O	1.105617	0.062590	0.082578
C11	C	0.941133	0.000006	0.137147
C12	C	0.836453	0.000004	0.112126
N13	N	1.113535	0.178166	0.185691
C14	C	1.120988	0.000028	0.314552
C15	C	1.119455	0.000034	0.391273
C16	C	0.549718	0.000028	0.360705
C17	C	0.451352	0.000024	0.337176
C18	C	0.428348	0.000005	0.204832
C19	C	0.526713	0.000013	0.228350
C20	C	0.587391	0.000024	0.306287
C21	C	0.564386	0.000008	0.173932
C22	C	0.662744	0.000012	0.197448
C23	C	0.723427	0.000020	0.275382
C24	C	0.685748	0.000027	0.329803
C25	C	0.503707	-0.000008	0.095996
C26	C	0.541380	-0.000013	0.041578
C27	C	0.639739	-0.000004	0.065094
C28	C	0.700423	0.000005	0.143027
C29	C	0.677418	-0.000011	0.010673
C30	C	0.775776	-0.000007	0.034189
C31	C	0.798780	0.000008	0.166543
C32	C	1.285995	0.000013	0.234234
C33	C	1.390675	0.000011	0.259255
N34	N	1.113601	-0.178145	0.185697
C35	C	1.177865	0.217561	0.249107
C36	C	1.177871	0.296363	0.249112
C37	C	1.113555	0.335766	0.185691
C38	C	1.049212	0.296362	0.122268
C39	C	1.049202	0.217561	0.122269
C40	C	1.100930	0.460595	0.119249
C41	C	1.100947	0.539394	0.119250
C42	C	1.113580	0.578813	0.185689
C43	C	1.126217	0.539423	0.252135
C44	C	1.126207	0.460623	0.252135
C45	C	1.113558	0.421212	0.185684
C46	C	1.177920	0.703654	0.249114
C47	C	1.177919	0.782457	0.249118
C48	C	1.049265	0.782454	0.122270
C49	C	1.049261	0.703653	0.122271
C50	C	1.113594	0.664257	0.185694
C51	C	1.106140	-0.000009	0.056829
C52	C	1.107673	-0.000020	-0.019891
C53	C	1.204672	0.000040	0.457257
C54	C	1.203232	0.000029	0.529344
C55	C	1.116570	0.000026	0.535443
C56	C	1.031342	0.000015	0.469446
C57	C	1.032785	0.000020	0.397361
C58	C	1.048435	0.043875	0.626711
C59	C	1.046996	0.043875	0.698796
C60	C	1.112118	0.000009	0.757776
C61	C	1.178694	-0.043848	0.744668
C62	C	1.180137	-0.043844	0.672583
C63	C	1.114997	0.000020	0.613604
C64	C	1.195779	0.000001	0.901928
C65	C	1.194336	-0.000016	0.974015
C66	C	1.022443	-0.000022	0.914114
C67	C	1.023889	-0.000013	0.842029
C68	C	1.110560	0.000002	0.835941
H69	H	0.848188	0.000022	0.230008
H70	H	1.263733	-0.000015	1.027743
H71	H	1.272628	0.000030	0.583079
Br72	Br	0.768106	0.000055	0.435576
H73	H	0.491964	-0.000025	-0.021879
Br74	Br	0.961918	0.349834	0.036199
H75	H	1.234344	-0.079555	0.661913
H76	H	1.275246	0.000050	0.452307
H77	H	0.806449	-0.000004	-0.010124
H78	H	0.963389	0.000015	0.343632
Br79	Br	1.265183	0.349838	0.335184
H80	H	1.231722	-0.079568	0.792690
H81	H	0.960782	0.000011	0.474415
Br82	Br	0.345992	-0.000017	0.099064
H83	H	0.992782	0.079581	0.709461
H84	H	0.951881	-0.000028	0.919078
H85	H	0.996816	0.185485	0.070627
H86	H	1.090626	0.428506	0.065139
Br87	Br	0.856915	0.000018	0.307300
Br88	Br	1.265223	0.835927	0.335193
H89	H	0.996894	0.814536	0.070633
H90	H	1.266352	0.000009	0.896971
Br91	Br	0.632075	0.000056	0.466478
Br92	Br	0.908231	-0.000020	0.752473
Br93	Br	1.265168	0.164095	0.335179
H94	H	0.995403	0.079600	0.578692
H95	H	0.420684	0.000027	0.381495
H96	H	0.628000	-0.000027	-0.052784
Br97	Br	1.143374	0.592910	0.342312
Br98	Br	1.143347	0.407168	0.342305
H99	H	0.423619	-0.000014	0.076851
H100	H	1.230301	0.671577	0.300758
H101	H	0.996881	0.671575	0.070630
H102	H	1.090663	0.571458	0.065147
