data_functionalizedCrystal
_audit_creation_method	'MofGen! by Chris Wilmer'
_symmetry_space_group_name_H-M	'P1'
_symmetry_Int_Tables_number	1
_symmetry_cell_setting	triclinic
loop_
_symmetry_equiv_pos_as_xyz
  x,y,z
_cell_length_a	14.908993
_cell_length_b	19.076919
_cell_length_c	19.077174
_cell_angle_alpha	89.937411
_cell_angle_beta	90.847787
_cell_angle_gamma	84.241894
loop_
_atom_site_label
_atom_site_type_symbol
_atom_site_fract_x
_atom_site_fract_y
_atom_site_fract_z
Zn1	Zn	1.384009	0.230974	-0.326431
Zn2	Zn	1.371784	0.344342	-0.204723
Zn3	Zn	1.227319	0.233607	-0.215688
Zn4	Zn	1.226761	0.355809	-0.328438
O5	O	1.302468	0.291183	-0.268820
O6	O	1.508656	0.240112	-0.304858
O7	O	1.347738	0.325956	-0.108056
O8	O	1.253454	0.134671	-0.234128
O9	O	1.499674	0.323403	-0.215439
O10	O	1.368574	0.132737	-0.315490
O11	O	1.241600	0.244599	-0.116112
O12	O	1.100977	0.255718	-0.236074
O13	O	1.252503	0.342946	-0.426294
O14	O	1.100567	0.345499	-0.318911
O15	O	1.368033	0.251231	-0.424819
O16	O	1.347197	0.444450	-0.217385
O17	O	1.240649	0.452875	-0.308278
C18	C	1.068032	0.302139	-0.278900
C19	C	0.967739	0.306844	-0.283228
C20	C	0.779667	0.222064	-0.205234
C21	C	0.685432	0.226482	-0.209298
C22	C	0.685034	0.320101	-0.295418
C23	C	0.779269	0.315683	-0.291353
C24	C	0.826581	0.266662	-0.246260
C25	C	0.920818	0.262241	-0.242200
C26	C	0.920418	0.355863	-0.328315
C27	C	0.826183	0.360281	-0.332380
C28	C	1.292561	0.474224	-0.261874
C29	C	1.288406	0.552527	-0.258922
C30	C	1.346349	0.588250	-0.299934
C31	C	1.342442	0.661824	-0.297162
C32	C	1.280595	0.699674	-0.253373
C33	C	1.222645	0.663946	-0.212359
C34	C	1.226549	0.590374	-0.215135
C35	C	1.262493	0.919826	-0.240526
C36	C	1.258595	0.993404	-0.237751
C37	C	1.378391	0.991276	-0.322555
C38	C	1.382293	0.917702	-0.325325
C39	C	1.324340	0.881982	-0.284314
N40	N	1.276601	0.774878	-0.250537
N41	N	1.328330	0.806779	-0.287154
C42	C	1.537820	0.280185	-0.258701
C43	C	1.638113	0.275498	-0.254389
C44	C	1.312402	1.107428	-0.275803
C45	C	1.316539	1.029126	-0.278764
C46	C	1.311569	0.298074	-0.451710
C47	C	1.315447	0.301011	-0.529646
C48	C	1.262012	0.260033	-0.570455
C49	C	1.265652	0.262798	-0.643685
C50	C	1.322733	0.306538	-0.676104
C51	C	1.376171	0.347520	-0.635290
C52	C	1.372525	0.344758	-0.562062
C53	C	1.339557	0.319343	-0.894663
C54	C	1.343201	0.322100	-0.967897
C55	C	1.232680	0.237379	-0.976286
C56	C	1.229043	0.234618	-0.903056
C57	C	1.282478	0.275603	-0.862249
N58	N	1.326458	0.309363	-0.750957
N59	N	1.278748	0.272780	-0.787398
C60	C	1.293458	0.284266	-0.086642
C61	C	1.289765	0.281123	-0.008706
H62	H	0.787648	0.400194	-0.369091
F63	F	1.192769	1.033685	-0.191141
H64	H	1.215535	0.224411	-0.544065
H65	H	1.172285	0.694770	-0.176708
H66	H	1.432654	0.886887	-0.360981
F67	F	0.971171	0.210068	-0.194211
F68	F	1.175813	0.193765	-1.019721
F69	F	1.436916	0.394076	-0.669796
H70	H	1.383057	0.352724	-0.861447
F71	F	1.208743	0.219211	-0.687114
H72	H	1.416046	0.378121	-0.528836
F73	F	0.970356	0.403319	-0.371993
F74	F	0.830023	0.169889	-0.157249
F75	F	1.164877	0.552356	-0.171485
H76	H	0.647238	0.190165	-0.175891
H77	H	0.646495	0.360017	-0.332123
H78	H	1.396715	0.557437	-0.335589
F79	F	1.168291	0.188063	-0.868558
F80	F	1.404104	0.699840	-0.340821
F81	F	1.440062	1.029299	-0.366201
F82	F	1.403964	0.368651	-1.002399
H83	H	1.215307	0.890748	-0.207132
