data_functionalizedCrystal
_audit_creation_method	'MofGen! by Chris Wilmer'
_symmetry_space_group_name_H-M	'P1'
_symmetry_Int_Tables_number	1
_symmetry_cell_setting	triclinic
loop_
_symmetry_equiv_pos_as_xyz
  x,y,z
_cell_length_a	23.532407
_cell_length_b	23.532357
_cell_length_c	15.072220
_cell_angle_alpha	89.993295
_cell_angle_beta	89.990208
_cell_angle_gamma	82.838519
loop_
_atom_site_label
_atom_site_type_symbol
_atom_site_fract_x
_atom_site_fract_y
_atom_site_fract_z
O1	O	0.755254	0.069133	-0.073737
O2	O	0.589389	0.079136	-0.073753
O3	O	0.677338	-0.008799	-0.073726
O4	O	0.667305	0.157069	-0.073764
O5	O	0.677316	-0.008794	0.073839
O6	O	0.589367	0.079141	0.073812
O7	O	0.755232	0.069138	0.073828
Zn8	Zn	0.672296	0.074141	0.097249
Zn9	Zn	0.672325	0.074134	-0.097174
O10	O	0.667283	0.157073	0.073802
C11	C	0.568162	0.078884	0.000028
C12	C	0.504945	0.078118	0.000023
C13	C	0.238788	0.022922	0.000060
C14	C	0.298188	0.023633	0.000059
O15	O	0.334940	-0.020154	0.000100
N16	N	0.320805	0.075911	0.000041
C17	C	0.284018	0.127480	0.000033
O18	O	0.308710	0.172012	0.000019
C19	C	0.224619	0.126768	0.000040
C20	C	0.202006	0.074487	0.000049
C21	C	0.216174	-0.029355	0.000069
C22	C	0.156778	-0.030066	0.000068
C23	C	0.119996	0.021499	0.000057
C24	C	0.142610	0.073776	0.000047
C25	C	0.187833	0.178337	0.000038
C26	C	0.128431	0.177620	0.000045
C27	C	0.105818	0.125339	0.000054
C28	C	0.046431	0.124630	0.000035
N29	N	0.023815	0.072353	0.000053
C30	C	0.060597	0.020787	0.000064
C31	C	0.408760	0.128971	0.000020
C32	C	0.468158	0.129684	0.000007
C33	C	0.482324	0.025837	0.000035
C34	C	0.422925	0.025125	0.000042
C35	C	0.386143	0.076694	0.000038
C36	C	-0.064140	0.019297	0.000060
C37	C	-0.123542	0.018591	0.000056
C38	C	-0.137702	0.122438	0.000032
C39	C	-0.078306	0.123145	0.000033
C40	C	-0.041525	0.071570	0.000050
O41	O	0.009644	0.168394	-0.000002
O42	O	0.035897	-0.023737	0.000090
C43	C	0.677076	-0.030013	0.000059
C44	C	0.676322	-0.093232	0.000067
C45	C	0.671597	-0.485246	-0.080419
C46	C	0.670880	-0.544645	-0.080424
O47	O	0.670499	-0.575364	-0.148833
N48	N	0.670512	-0.574354	0.000013
C49	C	0.670856	-0.544659	0.080460
O50	O	0.670477	-0.575382	0.148877
C51	C	0.671569	-0.485260	0.080464
C52	C	0.671942	-0.455555	0.000022
C53	C	0.671969	-0.455541	-0.160854
C54	C	0.672688	-0.396146	-0.160849
C55	C	0.673033	-0.366455	-0.080408
C56	C	0.672661	-0.396160	0.000028
C57	C	0.671909	-0.455565	0.160910
C58	C	0.672622	-0.396162	0.160907
C59	C	0.672995	-0.366458	0.080465
C60	C	0.673725	-0.307074	0.080474
N61	N	0.674092	-0.277366	0.000037
C62	C	0.673746	-0.307056	-0.080404
C63	C	0.669357	-0.669400	0.080445
C64	C	0.668648	-0.728799	0.080442
C65	C	0.668671	-0.728781	-0.080442
C66	C	0.669384	-0.669382	-0.080438
C67	C	0.669725	-0.639692	0.000008
C68	C	0.675255	-0.182322	-0.080386
C69	C	0.675976	-0.122922	-0.080373
C70	C	0.675951	-0.122945	0.080510
C71	C	0.675233	-0.182340	0.080498
C72	C	0.674883	-0.212027	0.000043
O73	O	0.674103	-0.276318	0.148848
O74	O	0.674118	-0.276324	-0.148809
C75	C	0.776459	0.069390	0.000045
C76	C	0.839676	0.070156	0.000044
C77	C	0.667545	0.178288	0.000014
C78	C	0.668300	0.241506	0.000000
N79	N	0.672281	0.074145	0.229938
N80	N	0.672345	0.074125	-0.229863
C81	C	0.672324	0.074132	0.589140
C82	C	0.625108	0.121028	0.551519
C83	C	0.625214	0.121198	0.448693
C84	C	0.672302	0.074138	0.410936
C85	C	0.731651	0.086781	0.448229
C86	C	0.731386	0.087114	0.551087
C87	C	0.660722	0.014451	0.551252
C88	C	0.659356	0.014857	0.448389
C89	C	0.672294	0.074141	0.310222
C90	C	0.672336	0.074131	0.689853
H91	H	0.098485	0.219615	0.000046
N92	N	0.671626	-0.485853	-0.243040
N93	N	0.711869	-0.484679	-0.296884
H94	H	0.711632	-0.506082	-0.354935
N95	N	0.676293	-0.092618	0.162682
N96	N	0.675954	-0.119141	0.234501
H97	H	0.676190	-0.097721	0.292537
N98	N	0.210934	0.231735	0.000030
N99	N	0.242504	0.243727	-0.062170
H100	H	0.258820	0.281442	-0.062174
H101	H	0.669637	-0.645230	0.145958
H102	H	0.669687	-0.645200	-0.145941
N103	N	0.399838	-0.028283	0.000049
N104	N	0.432693	-0.074317	0.000054
H105	H	0.416391	-0.112040	0.000060
N106	N	-0.055213	0.176552	0.000012
N107	N	-0.088063	0.222588	-0.000001
H108	H	-0.071758	0.260309	-0.000008
N109	N	0.703909	-0.029336	0.581775
N110	N	0.702471	-0.080212	0.559012
H111	H	0.732973	-0.111133	0.580573
N112	N	0.776769	0.045896	0.582348
N113	N	0.765741	0.005196	0.630010
H114	H	0.797798	-0.023904	0.652095
N115	N	0.253748	-0.082028	0.000087
N116	N	0.288471	-0.093223	0.062285
H117	H	0.315006	-0.130426	0.062292
N118	N	0.776764	0.045052	0.417561
N119	N	0.776087	-0.006699	0.435654
H120	H	0.807947	-0.036172	0.413995
H121	H	0.671606	-0.479741	0.226415
H122	H	0.691539	-0.021650	0.422691
H123	H	0.615701	0.005254	0.424015
H124	H	0.742182	0.129798	0.422451
N125	N	-0.175290	0.175102	0.000030
N126	N	-0.210023	0.186281	0.062233
H127	H	-0.236573	0.223475	0.062236
N128	N	-0.146630	-0.034821	0.000058
N129	N	-0.113778	-0.080856	0.000069
H130	H	-0.130082	-0.118577	0.000071
N131	N	0.668326	-0.759125	-0.162606
N132	N	0.667692	-0.812160	-0.162589
H133	H	0.667451	-0.833593	-0.220612
H134	H	0.581088	0.113715	0.423480
N135	N	0.634212	0.176289	0.583916
N136	N	0.596342	0.205028	0.628975
H137	H	0.602772	0.244055	0.651858
H138	H	0.486564	0.172256	-0.000012
H139	H	0.632587	0.165493	0.424070
N140	N	-0.026583	-0.033389	0.000084
N141	N	-0.046792	-0.080057	0.000095
H142	H	-0.020269	-0.117268	0.000109
H143	H	0.580838	0.113673	0.576278
H144	H	0.668353	-0.752980	0.145945
H145	H	0.138372	-0.072639	0.000079
N146	N	0.607620	-0.000887	0.583825
N147	N	0.577678	0.031986	0.635367
H148	H	0.540171	0.021162	0.658369
N149	N	0.744268	0.141708	0.581150
N150	N	0.712509	0.186210	0.559924
H151	H	0.721605	0.224770	0.581150
N152	N	0.519911	-0.026833	0.000047
N153	N	0.572943	-0.026183	0.000045
H154	H	0.599490	-0.063378	0.000053
H155	H	0.674934	-0.206527	0.146000
N156	N	0.672964	-0.365844	0.243092
N157	N	0.672628	-0.392377	0.314902
H158	H	0.672870	-0.370966	0.372945
N159	N	0.371199	0.181657	0.000012
N160	N	0.391406	0.228326	-0.000003
H161	H	0.364881	0.265536	-0.000006
H162	H	0.674968	-0.206486	-0.145900
N163	N	0.676362	-0.092590	-0.162555
N164	N	0.676053	-0.119111	-0.234369
H165	H	0.676325	-0.097691	-0.292409
H166	H	0.672989	-0.371965	-0.226353
