data_functionalizedCrystal
_audit_creation_method	'MofGen! by Chris Wilmer'
_symmetry_space_group_name_H-M	'P1'
_symmetry_Int_Tables_number	1
_symmetry_cell_setting	triclinic
loop_
_symmetry_equiv_pos_as_xyz
  x,y,z
_cell_length_a	14.472310
_cell_length_b	19.288862
_cell_length_c	19.288865
_cell_angle_alpha	96.864237
_cell_angle_beta	90.006324
_cell_angle_gamma	89.970338
loop_
_atom_site_label
_atom_site_type_symbol
_atom_site_fract_x
_atom_site_fract_y
_atom_site_fract_z
O1	O	0.077208	-0.921359	0.086635
O2	O	0.577208	-0.421359	0.586635
O3	O	0.077133	-0.719098	0.098326
O4	O	0.577133	-0.219098	0.598326
O5	O	0.077154	-0.826072	-0.008650
O6	O	0.577154	-0.326072	0.491350
O7	O	0.077187	-0.814384	0.193611
O8	O	0.577187	-0.314384	0.693611
O9	O	-0.076528	-0.826045	-0.008644
O10	O	0.423472	-0.326045	0.491356
O11	O	-0.076549	-0.719070	0.098332
O12	O	0.423451	-0.219070	0.598332
O13	O	-0.076474	-0.921331	0.086641
O14	O	0.423526	-0.421331	0.586641
Cu15	Cu	-0.090544	-0.820198	0.092487
Cu16	Cu	0.409456	-0.320198	0.592487
Cu17	Cu	0.091203	-0.820231	0.092480
Cu18	Cu	0.591203	-0.320231	0.592480
O19	O	-0.076495	-0.814356	0.193617
O20	O	0.423505	-0.314356	0.693617
C21	C	0.000282	-0.693207	0.097953
C22	C	0.500282	-0.193207	0.597953
C23	C	0.000253	-0.616104	0.096824
C24	C	0.500253	-0.116104	0.596824
N25	N	-0.218375	-0.820180	0.092492
N26	N	0.281625	-0.320180	0.592492
C27	C	0.000310	-0.825683	-0.034523
C28	C	0.500310	-0.325683	0.465477
C29	C	0.000302	-0.824554	-0.111627
C30	C	0.500302	-0.324554	0.388373
C31	C	-0.592466	-0.820230	0.092477
C32	C	-0.092466	-0.320230	0.592477
C33	C	-0.553312	-0.762799	0.149527
C34	C	-0.053312	-0.262799	0.649527
C35	C	-0.446224	-0.762930	0.149734
C36	C	0.053776	-0.262930	0.649734
C37	C	-0.406875	-0.820205	0.092484
C38	C	0.093125	-0.320205	0.592484
C39	C	-0.445682	-0.892629	0.108086
C40	C	0.054318	-0.392629	0.608086
C41	C	-0.552803	-0.892306	0.108492
C42	C	-0.052803	-0.392306	0.608492
C43	C	-0.553014	-0.805883	0.019655
C44	C	-0.053014	-0.305883	0.519655
C45	C	-0.445887	-0.804219	0.020146
C46	C	0.054113	-0.304219	0.520146
C47	C	-0.301987	-0.820195	0.092487
C48	C	0.198013	-0.320195	0.592487
C49	C	-0.697354	-0.820244	0.092476
C50	C	-0.197354	-0.320244	0.592476
N51	N	0.219034	-0.820254	0.092469
N52	N	0.719034	-0.320254	0.592469
C53	C	0.000275	-0.571407	0.159593
C54	C	0.500275	-0.071407	0.659593
C55	C	0.000280	-0.498960	0.158533
C56	C	0.500280	0.001040	0.658533
C57	C	0.000282	-0.471213	0.094701
C58	C	0.500282	0.028787	0.594701
C59	C	0.000255	-0.515919	0.031924
C60	C	0.500255	-0.015919	0.531924
C61	C	0.000240	-0.588364	0.032986
C62	C	0.500240	-0.088364	0.532986
C63	C	0.054139	-0.362960	0.044520
C64	C	0.554139	0.137040	0.544520
C65	C	0.054160	-0.290516	0.043461
C66	C	0.554160	0.209484	0.543461
C67	C	0.000323	-0.247767	0.091423
C68	C	0.500323	0.252233	0.591423
C69	C	-0.053523	-0.277470	0.140456
C70	C	0.446477	0.222530	0.640456
C71	C	-0.053537	-0.349916	0.141518
C72	C	0.446463	0.150084	0.641518
C73	C	0.000297	-0.392659	0.093542
C74	C	0.500297	0.107341	0.593542
C75	C	0.000349	-0.124514	0.153046
C76	C	0.500349	0.375486	0.653046
C77	C	0.000349	-0.052066	0.151983
C78	C	0.500349	0.447934	0.651983
C79	C	0.000333	-0.069027	0.025373
C80	C	0.500333	0.430973	0.525373
C81	C	0.000324	-0.141473	0.026438
C82	C	0.500324	0.358527	0.526438
C83	C	0.000336	-0.169212	0.090276
C84	C	0.500336	0.330788	0.590276
C85	C	0.000362	0.052779	0.087016
C86	C	0.500362	0.552779	0.587016
C87	C	0.000349	-0.024324	0.088151
C88	C	0.500349	0.475676	0.588151
C89	C	0.000321	-0.887322	-0.156324
C90	C	0.500321	-0.387322	0.343676
C91	C	0.000335	-0.886261	-0.228771
C92	C	0.500335	-0.386261	0.271229
C93	C	0.000312	-0.822429	-0.256518
C94	C	0.500312	-0.322429	0.243482
C95	C	0.000298	-0.759652	-0.211811
C96	C	0.500298	-0.259652	0.288189
C97	C	0.000293	-0.760715	-0.139366
C98	C	0.500293	-0.260715	0.360634
C99	C	-0.053538	-0.772239	-0.364803
C100	C	0.446462	-0.272239	0.135197
C101	C	-0.053539	-0.771180	-0.437247
C102	C	0.446461	-0.271180	0.062753
C103	C	0.000331	-0.819149	-0.479963
C104	C	0.500331	-0.319149	0.020037
C105	C	0.054190	-0.868190	-0.450228
C106	C	0.554190	-0.368190	0.049772
C107	C	0.054185	-0.869253	-0.377782
C108	C	0.554185	-0.369253	0.122218
C109	C	0.000318	-0.821270	-0.335072
C110	C	0.500318	-0.321270	0.164928
C111	C	0.000367	-0.880771	-0.603216
C112	C	0.500367	-0.380771	-0.103216
C113	C	0.000387	-0.879708	-0.675664
C114	C	0.500387	-0.379708	-0.175664
C115	C	0.000341	-0.753098	-0.658703
C116	C	0.500341	-0.253098	-0.158703
C117	C	0.000330	-0.754163	-0.586257
C118	C	0.500330	-0.254163	-0.086257
C119	C	0.000339	-0.818001	-0.558518
C120	C	0.500339	-0.318001	-0.058518
C121	C	0.000350	-0.814746	0.219490
C122	C	0.500350	-0.314746	0.719490
C123	C	0.000365	-0.815875	0.296594
C124	C	0.500365	-0.315875	0.796594
H125	H	-0.419990	-0.709088	0.140471
H126	H	0.080010	-0.209088	0.640471
H127	H	0.000286	-0.593988	0.211575
H128	H	0.500286	-0.093988	0.711575
Br129	Br	-0.403623	-0.715423	0.000399
Br130	Br	0.096377	-0.215423	0.500399
H131	H	0.000331	-0.939304	-0.133744
H132	H	0.500331	-0.439304	0.366256
Br133	Br	0.000422	-0.964901	-0.736327
Br134	Br	0.500422	-0.464901	-0.236327
H135	H	-0.419106	-0.843350	-0.024280
H136	H	0.080894	-0.343350	0.475720
H137	H	-0.579122	-0.708782	0.140420
H138	H	-0.079122	-0.208782	0.640420
H139	H	-0.097383	-0.374097	0.181440
H140	H	0.402617	0.125903	0.681440
Br141	Br	-0.403202	-0.965549	0.040656
Br142	Br	0.096798	-0.465549	0.540656
Br143	Br	-0.400929	-0.914278	0.195581
Br144	Br	0.099071	-0.414278	0.695581
Br145	Br	-0.595210	-0.875692	-0.051102
Br146	Br	-0.095210	-0.375692	0.448898
H147	H	0.000311	-0.177866	-0.024675
H148	H	0.500311	0.322134	0.475325
Br149	Br	0.000319	-0.666466	-0.696351
Br150	Br	0.500319	-0.166466	-0.196351
H151	H	0.000310	-0.703050	-0.549863
H152	H	0.500310	-0.203050	-0.049863
H153	H	-0.577764	-0.904983	0.161594
H154	H	-0.077764	-0.404983	0.661594
H155	H	-0.580104	-0.754230	0.004596
H156	H	-0.080104	-0.254230	0.504596
H157	H	0.000295	-0.462562	0.209648
H158	H	0.500295	0.037438	0.709648
H159	H	-0.097362	-0.242665	0.179511
H160	H	0.402638	0.257335	0.679511
Br161	Br	0.000364	-0.971452	-0.289443
Br162	Br	0.500364	-0.471452	0.210557
Br163	Br	0.000359	-0.162165	0.239681
Br164	Br	0.500359	0.337835	0.739681
H165	H	0.000361	-0.015674	0.203099
H166	H	0.500361	0.484326	0.703099
H167	H	-0.097389	-0.731244	-0.461451
H168	H	0.402611	-0.231244	0.038549
H169	H	0.000223	-0.624757	-0.018129
H170	H	0.500223	-0.124757	0.481871
H171	H	0.000392	-0.046435	-0.026600
H172	H	0.500392	0.453565	0.473400
Br173	Br	0.127247	-0.250210	-0.023074
Br174	Br	0.627247	0.249790	0.476926
H175	H	0.000378	-0.932752	-0.580630
H176	H	0.500378	-0.432752	-0.080630
H177	H	-0.580208	-0.771809	0.203268
H178	H	-0.080208	-0.271809	0.703268
H179	H	0.000281	-0.707680	-0.234407
H180	H	0.500281	-0.207680	0.265593
H181	H	0.097985	-0.397761	0.005462
H182	H	0.597985	0.102239	0.505462
H183	H	0.000269	-0.493322	-0.020048
H184	H	0.500269	0.006678	0.479952
H185	H	-0.097411	-0.733175	-0.330028
H186	H	0.402589	-0.233175	0.169972
H187	H	-0.420576	-0.772068	0.203779
H188	H	0.079424	-0.272068	0.703779
H189	H	0.098041	-0.909182	-0.353575
H190	H	0.598041	-0.409182	0.146425
H191	H	0.098057	-0.907251	-0.485006
H192	H	0.598057	-0.407251	0.014994
Br193	Br	-0.595972	-0.965584	0.041774
Br194	Br	-0.095972	-0.465584	0.541774
Br195	Br	0.000270	-0.675523	-0.078701
Br196	Br	0.500270	-0.175523	0.421299
