data_functionalizedCrystal
_audit_creation_method	'MofGen! by Chris Wilmer'
_symmetry_space_group_name_H-M	'P1'
_symmetry_Int_Tables_number	1
_symmetry_cell_setting	triclinic
loop_
_symmetry_equiv_pos_as_xyz
  x,y,z
_cell_length_a	19.188930
_cell_length_b	17.666332
_cell_length_c	19.188924
_cell_angle_alpha	90.008552
_cell_angle_beta	83.143372
_cell_angle_gamma	90.023234
loop_
_atom_site_label
_atom_site_type_symbol
_atom_site_fract_x
_atom_site_fract_y
_atom_site_fract_z
O1	O	0.926147	0.063195	0.087169
O2	O	1.426147	0.563195	0.587169
O3	O	0.722836	0.063144	0.098903
O4	O	1.222836	0.563144	0.598903
O5	O	0.830361	0.063162	-0.008620
O6	O	1.330361	0.563162	0.491380
O7	O	0.818622	0.063177	0.194692
O8	O	1.318622	0.563177	0.694692
O9	O	0.830343	-0.062735	-0.008625
O10	O	1.330343	0.437265	0.491375
O11	O	0.722817	-0.062753	0.098898
O12	O	1.222817	0.437247	0.598898
O13	O	0.926129	-0.062702	0.087163
O14	O	1.426129	0.437298	0.587163
Cu15	Cu	0.824471	-0.074223	0.093030
Cu16	Cu	1.324471	0.425777	0.593030
Cu17	Cu	0.824493	0.074665	0.093037
Cu18	Cu	1.324493	0.574665	0.593037
O19	O	0.818603	-0.062720	0.194687
O20	O	1.318603	0.437280	0.694687
C21	C	0.696815	0.000189	0.098521
C22	C	1.196815	0.500189	0.598521
C23	C	0.619311	0.000169	0.097380
C24	C	1.119311	0.500169	0.597380
N25	N	0.824461	-0.178942	0.093025
N26	N	1.324461	0.321058	0.593025
C27	C	0.574386	0.000185	0.160471
C28	C	1.074386	0.500185	0.660471
C29	C	0.501562	0.000193	0.159399
C30	C	1.001562	0.500193	0.659399
C31	C	0.473667	0.000200	0.095233
C32	C	0.973667	0.500200	0.595233
C33	C	0.518602	0.000180	0.032134
C34	C	1.018602	0.500180	0.532134
C35	C	0.591424	0.000164	0.033207
C36	C	1.091424	0.500164	0.533207
N37	N	0.365694	0.043075	0.046188
N38	N	0.865694	0.543075	0.546188
N39	N	0.296516	0.043092	0.045172
N40	N	0.796516	0.543092	0.545172
C41	C	0.254258	0.000246	0.091995
C42	C	0.754258	0.500246	0.591995
N43	N	0.283791	-0.042607	0.139882
N44	N	0.783791	0.457393	0.639882
N45	N	0.352976	-0.042620	0.140899
N46	N	0.852976	0.457380	0.640899
C47	C	0.394704	0.000217	0.094062
C48	C	0.894704	0.500217	0.594062
C49	C	0.130368	0.000271	0.153928
C50	C	0.630368	0.500271	0.653928
C51	C	0.057543	0.000274	0.152854
C52	C	0.557543	0.500274	0.652854
C53	C	0.074585	0.000268	0.025586
C54	C	0.574585	0.500268	0.525586
C55	C	0.147409	0.000257	0.026663
C56	C	0.647409	0.500257	0.526663
C57	C	0.175295	0.000262	0.090835
C58	C	0.675295	0.500262	0.590835
C59	C	0.872088	-0.218544	0.045437
C60	C	1.372088	0.281456	0.545437
C61	C	0.872092	-0.297791	0.045433
C62	C	1.372092	0.202209	0.545433
C63	C	0.824475	-0.337434	0.093030
C64	C	1.324475	0.162566	0.593030
C65	C	0.776839	-0.297823	0.140622
C66	C	1.276839	0.202177	0.640622
C67	C	0.776831	-0.218577	0.140619
C68	C	1.276831	0.281423	0.640619
N69	N	0.815398	-0.461850	0.154838
N70	N	1.315398	0.038150	0.654838
N71	N	0.815409	-0.537130	0.154838
N72	N	1.315409	-0.037130	0.654838
C73	C	0.824494	-0.576198	0.093040
C74	C	1.324494	-0.076198	0.593040
N75	N	0.833581	-0.537142	0.031239
N76	N	1.333581	-0.037142	0.531239
N77	N	0.833573	-0.461855	0.031240
N78	N	1.333573	0.038145	0.531240
C79	C	0.824478	-0.423363	0.093038
C80	C	1.324478	0.076637	0.593038
C81	C	0.872128	-0.701729	0.045444
C82	C	1.372128	-0.201729	0.545444
C83	C	0.872128	-0.780978	0.045440
C84	C	1.372128	-0.280978	0.545440
C85	C	0.776878	-0.781009	0.140634
C86	C	1.276878	-0.281009	0.640634
C87	C	0.776875	-0.701761	0.140633
C88	C	1.276875	-0.201761	0.640633
C89	C	0.824504	-0.662126	0.093038
C90	C	1.324504	-0.162126	0.593038
C91	C	0.952149	0.000255	0.087546
C92	C	1.452149	0.500255	0.587546
C93	C	1.029654	0.000280	0.088687
C94	C	1.529654	0.500280	0.588687
C95	C	0.829973	0.000213	-0.034634
C96	C	1.329973	0.500213	0.465366
C97	C	0.828834	0.000210	-0.112138
C98	C	1.328834	0.500210	0.387862
N99	N	0.824509	0.179384	0.093036
N100	N	1.324509	0.679384	0.593036
C101	C	0.828313	0.068837	-0.148534
C102	C	1.328313	0.568837	0.351466
C103	C	0.827233	0.068842	-0.221357
C104	C	1.327233	0.568842	0.278643
C105	C	0.826688	0.000217	-0.257783
C106	C	1.326688	0.500217	0.242217
C107	C	0.827205	-0.068418	-0.221378
C108	C	1.327205	0.431582	0.278622
C109	C	0.828278	-0.068421	-0.148556
C110	C	1.328278	0.431579	0.351444
N111	N	0.864728	-0.050849	-0.377448
N112	N	1.364728	0.449151	0.122552
N113	N	0.863710	-0.050841	-0.446627
N114	N	1.363710	0.449159	0.053373
C115	C	0.823454	0.000224	-0.477192
C116	C	1.323454	0.500224	0.022808
N117	N	0.784262	0.051292	-0.435967
N118	N	1.284262	0.551292	0.064033
N119	N	0.785283	0.051286	-0.366783
N120	N	1.285283	0.551286	0.133217
C121	C	0.825524	0.000214	-0.336746
C122	C	1.325524	0.500214	0.163254
C123	C	0.821761	0.068861	-0.592550
C124	C	1.321761	0.568861	-0.092550
C125	C	0.820676	0.068864	-0.665374
C126	C	1.320676	0.568864	-0.165374
C127	C	0.820656	-0.068399	-0.665394
C128	C	1.320656	0.431601	-0.165394
C129	C	0.821734	-0.068399	-0.592571
C130	C	1.321734	0.431601	-0.092571
C131	C	0.822289	0.000233	-0.556154
C132	C	1.322289	0.500233	-0.056154
C133	C	0.818992	0.000231	0.220700
C134	C	1.318992	0.500231	0.720700
C135	C	0.820131	0.000238	0.298205
C136	C	1.320131	0.500238	0.798205
H137	H	0.464976	0.000205	0.210777
H138	H	0.964976	0.500205	0.710777
N139	N	0.822260	-0.138501	-0.555390
N140	N	1.322260	0.361499	-0.055390
N141	N	0.772927	-0.184463	-0.556942
N142	N	1.272927	0.315537	-0.056942
H143	H	0.773296	-0.233976	-0.530682
H144	H	1.273296	0.266024	-0.030682
N145	N	0.820084	-0.138499	-0.702590
N146	N	1.320084	0.361501	-0.202590
N147	N	0.770273	-0.153822	-0.736634
N148	N	1.270273	0.346178	-0.236634
H149	H	0.769865	-0.203333	-0.762906
H150	H	1.269865	0.296667	-0.262906
H151	H	0.820249	0.124750	-0.695006
H152	H	1.320249	0.624750	-0.195006
H153	H	0.910910	-0.813223	0.006684
H154	H	1.410910	-0.313223	0.506684
H155	H	0.738095	-0.669515	0.179386
H156	H	1.238095	-0.169515	0.679386
H157	H	0.597086	0.000191	0.212725
H158	H	1.097086	0.500191	0.712725
H159	H	0.828763	0.124722	-0.118888
H160	H	1.328763	0.624722	0.381112
H161	H	0.828700	-0.124307	-0.118922
H162	H	1.328700	0.375693	0.381078
N163	N	0.728235	-0.821505	0.189243
N164	N	1.228235	-0.321505	0.689243
N165	N	0.728243	-0.892259	0.189236
N166	N	1.228243	-0.392259	0.689236
H167	H	0.693886	-0.920864	0.223565
H168	H	1.193886	-0.420864	0.723565
N169	N	0.637309	0.000143	-0.031248
N170	N	1.137309	0.500143	0.468752
N171	N	0.612398	0.000142	-0.088537
N172	N	1.112398	0.500142	0.411463
H173	H	0.644805	0.000128	-0.134061
H174	H	1.144805	0.500128	0.365939
H175	H	0.826804	0.124728	-0.250996
H176	H	1.326804	0.624728	0.249004
H177	H	0.822209	0.124745	-0.562898
H178	H	1.322209	0.624745	-0.062898
H179	H	0.826760	-0.124293	-0.251040
H180	H	1.326760	0.375707	0.248960
N181	N	0.490100	0.000179	-0.033405
N182	N	0.990100	0.500179	0.466595
N183	N	0.425080	0.000193	-0.034355
N184	N	0.925080	0.500193	0.465645
H185	H	0.404950	0.000189	-0.080644
H186	H	0.904950	0.500189	0.419356
N187	N	0.920723	-0.178048	-0.003184
N188	N	1.420723	0.321952	0.496816
N189	N	0.920709	-0.107293	-0.003186
N190	N	1.420709	0.392707	0.496814
H191	H	0.955055	-0.078689	-0.037526
H192	H	1.455055	0.421311	0.462474
N193	N	0.158848	0.000271	0.219481
N194	N	0.658848	0.500271	0.719481
N195	N	0.118723	0.000276	0.275811
N196	N	0.618723	0.500276	0.775811
H197	H	0.138835	0.000276	0.322109
H198	H	0.638835	0.500276	0.822109
N199	N	0.728183	-0.178108	0.189226
N200	N	1.228183	0.321892	0.689226
N201	N	0.684917	-0.133911	0.167178
N202	N	1.184917	0.366089	0.667178
H203	H	0.650559	-0.105327	0.201508
H204	H	1.150559	0.394673	0.701508
N205	N	0.011654	0.000271	0.217306
N206	N	0.511654	0.500271	0.717306
N207	N	0.014061	-0.052796	0.260029
N208	N	0.514061	0.447204	0.760029
H209	H	-0.018349	-0.052801	0.305550
H210	H	0.481651	0.447199	0.805550
N211	N	0.046089	0.000261	-0.039953
N212	N	0.546089	0.500261	0.460047
N213	N	-0.018931	0.000268	-0.040904
N214	N	0.481069	0.500268	0.459096
H215	H	-0.039060	0.000258	-0.087193
H216	H	0.460940	0.500258	0.412807
H217	H	0.183988	0.000248	-0.024713
H218	H	0.683988	0.500248	0.475287
H219	H	0.738067	-0.330104	0.179375
H220	H	1.238067	0.169896	0.679375
N221	N	0.920747	-0.338243	-0.003186
N222	N	1.420747	0.161757	0.496814
N223	N	0.963265	-0.302846	-0.045678
N224	N	1.463265	0.197154	0.454322
H225	H	0.997629	-0.331412	-0.080015
H226	H	1.497629	0.168588	0.419985
N227	N	0.920695	-0.661249	-0.003261
N228	N	1.420695	-0.161249	0.496739
N229	N	0.963156	-0.696622	-0.045811
N230	N	1.463156	-0.196622	0.454189
H231	H	0.997424	-0.668036	-0.080243
H232	H	1.497424	-0.168036	0.419757
