data_functionalizedCrystal
_audit_creation_method	'MofGen! by Chris Wilmer'
_symmetry_space_group_name_H-M	'P1'
_symmetry_Int_Tables_number	1
_symmetry_cell_setting	triclinic
loop_
_symmetry_equiv_pos_as_xyz
  x,y,z
_cell_length_a	10.654550
_cell_length_b	10.654550
_cell_length_c	9.130313
_cell_angle_alpha	89.995631
_cell_angle_beta	89.999724
_cell_angle_gamma	84.484931
loop_
_atom_site_label
_atom_site_type_symbol
_atom_site_fract_x
_atom_site_fract_y
_atom_site_fract_z
O1	O	1.667839	0.176399	-0.121690
O2	O	1.302361	0.193205	-0.121716
O3	O	1.493503	0.002063	-0.121693
O4	O	1.476697	0.367541	-0.121713
O5	O	1.493490	0.002057	0.121906
O6	O	1.302348	0.193199	0.121882
O7	O	1.667826	0.176393	0.121909
Cu8	Cu	1.485086	0.184796	0.144138
Cu9	Cu	1.485101	0.184802	-0.143946
O10	O	1.476684	0.367535	0.121886
C11	C	1.255556	0.191968	0.000080
C12	C	1.116113	0.188276	0.000070
C13	C	1.036628	0.300818	0.000068
C14	C	0.905607	0.297341	0.000093
C15	C	0.933570	0.068772	0.000117
C16	C	1.064588	0.072250	0.000101
C17	C	1.492263	-0.044738	0.000105
C18	C	1.488571	-0.184181	0.000103
C19	C	1.601112	-0.263667	0.000111
C20	C	1.597636	-0.394688	0.000092
C21	C	1.369066	-0.366725	0.000065
C22	C	1.372544	-0.235706	0.000073
C23	C	1.714631	0.177630	0.000110
C24	C	1.854074	0.181322	0.000110
C25	C	1.477925	0.414336	0.000084
C26	C	1.481616	0.553779	0.000077
N27	N	1.485084	0.184790	0.346761
N28	N	1.485113	0.184798	-0.346568
C29	C	1.569751	0.100188	0.423423
C30	C	1.569763	0.100189	0.576760
C31	C	1.400437	0.269404	0.576759
C32	C	1.400420	0.269396	0.423425
H33	H	0.891602	-0.025693	0.000151
C34	C	1.307282	0.362465	0.339083
C35	C	1.214209	0.455585	0.423401
C36	C	1.121072	0.548644	0.339057
C37	C	1.121009	0.548584	0.170396
C38	C	1.214086	0.455461	0.086068
C39	C	1.307222	0.362402	0.170412
H40	H	1.214253	0.455632	0.548262
H41	H	1.052171	0.617580	0.401483
H42	H	1.052064	0.617472	0.107959
H43	H	1.214042	0.455414	-0.038793
H44	H	1.376124	0.293466	0.107986
H45	H	1.078574	0.395294	0.000053
H46	H	0.840894	0.388984	0.000095
C47	C	1.662869	0.007115	0.339092
C48	C	1.662861	0.007100	0.170431
C49	C	1.755978	-0.085980	0.086105
C50	C	1.849104	-0.179046	0.170440
C51	C	1.849115	-0.179034	0.339111
C52	C	1.755998	-0.085954	0.423437
H53	H	1.593921	0.075996	0.107992
H54	H	1.755970	-0.085988	-0.038757
H55	H	1.918035	-0.247949	0.108017
H56	H	1.918055	-0.247930	0.401550
H57	H	1.756006	-0.085947	0.548299
H58	H	1.129309	-0.019401	0.000107
H59	H	1.695588	-0.221720	0.000132
H60	H	1.689279	-0.459401	0.000096
H61	H	1.274601	-0.408693	0.000043
H62	H	1.280893	-0.170985	0.000062
H63	H	1.638704	0.031297	0.639174
H64	H	1.331508	0.338290	0.639194
