data_functionalizedCrystal
_audit_creation_method	'MofGen! by Chris Wilmer'
_symmetry_space_group_name_H-M	'P1'
_symmetry_Int_Tables_number	1
_symmetry_cell_setting	triclinic
loop_
_symmetry_equiv_pos_as_xyz
  x,y,z
_cell_length_a	11.169417
_cell_length_b	12.827892
_cell_length_c	11.169409
_cell_angle_alpha	90.033086
_cell_angle_beta	90.019513
_cell_angle_gamma	90.016641
loop_
_atom_site_label
_atom_site_type_symbol
_atom_site_fract_x
_atom_site_fract_y
_atom_site_fract_z
Zn1	Zn	1.834920	-0.415914	0.678527
Zn2	Zn	2.334920	0.084086	1.178527
Zn3	Zn	1.834792	-0.590701	0.477841
Zn4	Zn	2.334792	-0.090701	0.977841
Zn5	Zn	1.634206	-0.415978	0.477862
Zn6	Zn	2.134206	0.084022	0.977862
Zn7	Zn	1.634196	-0.590617	0.678487
Zn8	Zn	2.134196	-0.090617	1.178487
O9	O	1.734528	-0.503303	0.578179
O10	O	2.234528	-0.003303	1.078179
O11	O	2.002853	-0.439108	0.651913
O12	O	2.502853	0.060892	1.151913
O13	O	1.808134	-0.567586	0.309894
O14	O	2.308134	-0.067586	0.809894
O15	O	1.660889	-0.269734	0.504506
O16	O	2.160889	0.230266	1.004506
O17	O	2.002759	-0.567523	0.504470
O18	O	2.502759	-0.067523	1.004470
O19	O	1.808353	-0.269686	0.651933
O20	O	2.308353	0.230314	1.151933
O21	O	1.660765	-0.439218	0.309909
O22	O	2.160765	0.060782	0.809909
O23	O	1.466255	-0.439137	0.504468
O24	O	1.966255	0.060863	1.004468
O25	O	1.660872	-0.567380	0.846442
O26	O	2.160872	-0.067380	1.346442
O27	O	1.466248	-0.567443	0.651866
O28	O	1.966248	-0.067443	1.151866
O29	O	1.808343	-0.439026	0.846471
O30	O	2.308343	0.060974	1.346471
O31	O	1.808124	-0.736926	0.504431
O32	O	2.308124	-0.236926	1.004431
O33	O	1.660747	-0.736864	0.651845
O34	O	2.160747	-0.236864	1.151845
C35	C	1.422704	-0.503288	0.578165
C36	C	1.922704	-0.003288	1.078165
C37	C	1.289304	-0.503308	0.578188
C38	C	1.789304	-0.003308	1.078188
C39	C	1.734453	-0.774812	0.578158
C40	C	2.234453	-0.274812	1.078158
C41	C	1.734531	-0.890966	0.578189
C42	C	2.234531	-0.390966	1.078189
C43	C	1.807544	-0.942746	0.505325
C44	C	2.307544	-0.442746	1.005325
C45	C	1.807626	-1.062796	0.505355
C46	C	2.307626	-0.562796	1.005355
C47	C	2.047571	-0.503317	0.578194
C48	C	2.547571	-0.003317	1.078194
C49	C	2.180971	-0.503324	0.578200
C50	C	2.680971	-0.003324	1.078200
C51	C	1.734621	-0.503186	0.891222
C52	C	2.234621	-0.003186	1.391222
C53	C	1.734660	-0.503137	1.024622
C54	C	2.234660	-0.003137	1.524622
C55	C	1.734637	-0.230732	0.578227
C56	C	2.234637	0.269268	1.078227
C57	C	1.734683	-0.114579	0.578247
C58	C	2.234683	0.385421	1.078247
C59	C	1.734506	-0.503343	0.266354
C60	C	2.234506	-0.003343	0.766354
C61	C	1.734699	-0.503098	0.132955
C62	C	2.234699	-0.003098	0.632955
H63	H	1.870133	-1.107327	0.442971
H64	H	2.370133	-0.607327	0.942971
H65	H	1.672165	-1.070057	0.640627
H66	H	2.172165	-0.570057	1.140627
N67	N	1.651802	-0.949951	0.660859
N68	N	2.151802	-0.449951	1.160859
H69	H	1.700623	-0.995161	0.716486
H70	H	2.200623	-0.495161	1.216486
H71	H	1.596302	-0.995253	0.611918
H72	H	2.096302	-0.495253	1.111918
H73	H	1.869999	-0.898203	0.442924
H74	H	2.369999	-0.398203	0.942924
