data_functionalizedCrystal
_audit_creation_method	'MofGen! by Chris Wilmer'
_symmetry_space_group_name_H-M	'P1'
_symmetry_Int_Tables_number	1
_symmetry_cell_setting	triclinic
loop_
_symmetry_equiv_pos_as_xyz
  x,y,z
_cell_length_a	6.394989
_cell_length_b	10.723024
_cell_length_c	9.198806
_cell_angle_alpha	89.996352
_cell_angle_beta	89.999906
_cell_angle_gamma	85.482790
loop_
_atom_site_label
_atom_site_type_symbol
_atom_site_fract_x
_atom_site_fract_y
_atom_site_fract_z
O1	O	0.293022	1.660298	-0.120872
O2	O	0.321070	1.297443	-0.120876
O3	O	0.003055	1.484021	-0.120876
O4	O	0.611036	1.473720	-0.120873
O5	O	0.003054	1.484006	0.120909
O6	O	0.321069	1.297428	0.120909
O7	O	0.293021	1.660282	0.120913
Cu8	Cu	0.307045	1.478854	0.142988
Cu9	Cu	0.307046	1.478872	-0.142951
O10	O	0.611035	1.473705	0.120912
C11	C	0.319028	1.250914	0.000016
C12	C	0.312921	1.112295	0.000014
C13	C	0.490865	1.039201	0.000013
C14	C	0.484558	0.895931	0.000011
C15	C	0.688886	1.475749	0.000013
C16	C	0.925210	1.481973	0.000009
C17	C	0.295062	1.706811	0.000018
C18	C	0.301169	1.845430	0.000010
N19	N	0.307043	1.478850	0.344102
N20	N	0.307031	1.478885	-0.344065
C21	C	0.172929	1.557183	0.416299
C22	C	0.172922	1.557202	0.583711
H23	H	0.155907	1.068806	-0.000024
O24	O	0.035699	1.637049	0.342227
C25	C	-0.326590	1.703934	0.295318
C26	C	-0.171432	1.613389	0.379284
H27	H	-0.494088	1.684856	0.325271
H28	H	-0.302302	1.689640	0.173495
H29	H	-0.298223	1.804412	0.325103
H30	H	-0.199704	1.512877	0.349621
H31	H	-0.195756	1.627792	0.501087
H32	H	0.421866	1.411822	0.593858
H33	H	0.647879	1.082689	0.000022
H34	H	0.636892	0.833115	0.000005
O35	O	0.119556	0.920480	-0.000185
C36	C	-0.094375	1.081422	-0.125495
C37	C	0.111399	0.996510	-0.125437
H38	H	-0.101057	1.142894	-0.226766
H39	H	-0.101092	1.143074	-0.024379
H40	H	-0.233398	1.021083	-0.125425
H41	H	0.250537	1.056752	-0.125558
H42	H	0.117932	0.934850	-0.226545
H43	H	0.421850	1.411796	0.406229
O44	O	0.036136	1.637386	0.657701
C45	C	-0.083995	1.852288	0.704434
C46	C	0.071074	1.761620	0.620574
H47	H	-0.055832	1.952750	0.674424
H48	H	-0.059602	1.838159	0.826273
H49	H	-0.251474	1.833064	0.674609
H50	H	0.238614	1.780789	0.650277
H51	H	0.046498	1.775768	0.498755
