data_functionalizedCrystal
_audit_creation_method	'MofGen! by Chris Wilmer'
_symmetry_space_group_name_H-M	'P1'
_symmetry_Int_Tables_number	1
_symmetry_cell_setting	triclinic
loop_
_symmetry_equiv_pos_as_xyz
  x,y,z
_cell_length_a	15.624884
_cell_length_b	14.519709
_cell_length_c	14.185569
_cell_angle_alpha	76.819419
_cell_angle_beta	94.310066
_cell_angle_gamma	96.034475
loop_
_atom_site_label
_atom_site_type_symbol
_atom_site_fract_x
_atom_site_fract_y
_atom_site_fract_z
O1	O	-1.079911	0.239561	-0.476377
O2	O	-0.838900	0.231972	-0.388681
O3	O	-0.965798	0.102105	-0.434846
O4	O	-0.953014	0.369428	-0.430212
O5	O	-1.003285	0.063745	-0.281649
O6	O	-0.876387	0.193613	-0.235484
O7	O	-1.117398	0.201201	-0.323180
Cu8	Cu	-1.000315	0.193904	-0.265344
Cu9	Cu	-0.955983	0.239269	-0.446517
O10	O	-0.990500	0.331069	-0.277015
C11	C	-0.826799	0.209336	-0.300859
C12	C	-0.734892	0.199025	-0.267416
C13	C	-0.330521	0.269635	-0.575059
C14	C	-0.244163	0.259928	-0.543633
C15	C	-0.285008	0.218108	-0.376616
C16	C	-0.371372	0.227807	-0.408028
C17	C	-0.394121	0.253572	-0.507250
C18	C	-0.434972	0.211743	-0.340219
C19	C	-0.521328	0.221447	-0.371628
C20	C	-0.544084	0.247213	-0.470846
C21	C	-0.480477	0.263275	-0.538659
C22	C	-0.412221	0.185985	-0.240997
C23	C	-0.475821	0.169922	-0.173189
C24	C	-0.562180	0.179618	-0.204598
C25	C	-0.584936	0.205385	-0.303816
C26	C	-0.625787	0.163557	-0.136785
C27	C	-0.712143	0.173260	-0.168194
C28	C	-0.671292	0.215088	-0.335225
C29	C	-0.983946	0.048511	-0.358030
C30	C	-0.982161	-0.054032	-0.357380
C31	C	-0.975585	-0.429517	-0.355013
C32	C	-0.977411	-0.325045	-0.355670
C33	C	-0.978873	-0.241778	-0.356196
C34	C	-0.980699	-0.137299	-0.356855
C35	C	-0.129499	0.223843	-0.410999
C36	C	-0.221407	0.234172	-0.444432
C37	C	-0.972352	0.384663	-0.353832
C38	C	-0.974135	0.487207	-0.354488
N39	N	-1.031502	0.161997	-0.137918
N40	N	-0.924803	0.271169	-0.573945
C41	C	-0.833175	0.364872	0.301883
C42	C	-0.856804	0.340710	0.398308
C43	C	-0.969195	0.225761	0.357381
C44	C	-0.945572	0.249910	0.260952
C45	C	-0.877562	0.319467	0.233210
C46	C	-0.989960	0.204505	0.192279
C47	C	-0.966341	0.228657	0.095857
C48	C	-0.898336	0.298213	0.068107
C49	C	-0.853944	0.343619	0.136788
C50	C	-1.057973	0.134953	0.220021
C51	C	-1.102361	0.089548	0.151349
C52	C	-1.078739	0.113695	0.054926
C53	C	-1.010733	0.183251	0.027176
C54	C	-1.123131	0.068289	-0.013755
C55	C	-1.099512	0.092440	-0.110177
C56	C	-0.987115	0.207402	-0.069246
H57	H	-0.614401	0.255119	-0.496418
H58	H	-0.879109	0.317879	-0.010408
H59	H	-1.077203	0.115295	0.298535
O60	O	-0.502430	0.288353	-0.635079
C61	C	-0.452815	0.328767	-0.797443
C62	C	-0.427831	0.300389	-0.688284
H63	H	-0.392519	0.338487	-0.840492
H64	H	-0.484688	0.398193	-0.813647
H65	H	-0.499754	0.270556	-0.819004
H66	H	-0.380868	0.358536	-0.666647
H67	H	-0.396005	0.230936	-0.672139
O68	O	-0.603801	0.138408	-0.040385
C69	C	-0.621514	0.020678	0.108608
C70	C	-0.646500	0.049052	-0.000551
H71	H	-0.656011	-0.051576	0.140842
H72	H	-0.641114	0.076023	0.146393
H73	H	-0.548861	0.016560	0.119385
H74	H	-0.719148	0.053161	-0.011417
H75	H	-0.626838	-0.006302	-0.038283
H76	H	-1.157738	0.032916	0.173947
H77	H	-1.178511	0.011661	0.008843
H78	H	-0.349044	0.290613	-0.655855
H79	H	-0.192379	0.273014	-0.598859
H80	H	-0.266473	0.197133	-0.295829
O81	O	-0.767100	0.432385	0.274774
C82	C	-0.680935	0.520566	0.144352
C83	C	-0.755764	0.444083	0.174927
H84	H	-0.671757	0.530063	0.063620
H85	H	-0.619225	0.497634	0.187396
H86	H	-0.696466	0.590679	0.159400
H87	H	-0.740315	0.373944	0.159880
H88	H	-0.817451	0.467095	0.131886
O89	O	-0.693339	0.240281	-0.431613
C90	C	-0.675548	0.357965	-0.580625
C91	C	-0.650518	0.329559	-0.471479
H92	H	-0.640925	0.430139	-0.612893
H93	H	-0.748183	0.362216	-0.591470
H94	H	-0.656019	0.302526	-0.618328
H95	H	-0.669990	0.384969	-0.433705
H96	H	-0.577883	0.325278	-0.460705
O97	O	-0.328294	0.176764	-0.210555
C98	C	-0.183949	0.253449	-0.207811
C99	C	-0.278961	0.263980	-0.242393
H100	H	-0.144039	0.323957	-0.233521
H101	H	-0.158800	0.196335	-0.238994
H102	H	-0.178683	0.232267	-0.125248
H103	H	-0.284301	0.285195	-0.324949
H104	H	-0.304067	0.321069	-0.211138
O105	O	-0.774022	0.157557	-0.102427
C106	C	-0.904481	0.065214	-0.044300
C107	C	-0.834470	0.082907	-0.118852
H108	H	-0.953361	0.004847	-0.057541
H109	H	-0.938502	0.132480	-0.052118
H110	H	-0.873366	0.045176	0.032004
H111	H	-0.865516	0.102919	-0.195188
H112	H	-0.800455	0.015625	-0.110949
H113	H	-0.820653	0.377691	0.454219
H114	H	-0.457286	0.148947	-0.092402
H115	H	-0.931729	0.264036	-0.091830
H116	H	-0.798558	0.400252	0.114204
H117	H	-1.024572	0.169129	0.379979
O118	O	-1.142692	0.048212	-0.176759
C119	C	-1.256698	-0.068321	-0.207202
C120	C	-1.207854	-0.018327	-0.131694
H121	H	-1.309404	-0.122115	-0.170800
H122	H	-1.209882	-0.106483	-0.239296
H123	H	-1.287007	-0.013319	-0.267436
H124	H	-1.177542	-0.073268	-0.071404
H125	H	-1.254707	0.019853	-0.099677
