data_functionalizedCrystal
_audit_creation_method	'MofGen! by Chris Wilmer'
_symmetry_space_group_name_H-M	'P1'
_symmetry_Int_Tables_number	1
_symmetry_cell_setting	triclinic
loop_
_symmetry_equiv_pos_as_xyz
  x,y,z
_cell_length_a	14.853568
_cell_length_b	13.330367
_cell_length_c	10.654550
_cell_angle_alpha	89.996556
_cell_angle_beta	84.060045
_cell_angle_gamma	89.995253
loop_
_atom_site_label
_atom_site_type_symbol
_atom_site_fract_x
_atom_site_fract_y
_atom_site_fract_z
O1	O	-1.197246	0.083356	-0.163964
O2	O	-0.934891	0.083372	-0.183495
O3	O	-1.072101	0.083359	0.009073
O4	O	-1.060037	0.083368	-0.356531
O5	O	-1.072081	-0.083488	0.009077
O6	O	-0.934871	-0.083476	-0.183490
O7	O	-1.197226	-0.083492	-0.163960
Cu8	Cu	-1.066047	-0.098718	-0.173725
Cu9	Cu	-1.066071	0.098598	-0.173730
O10	O	-1.060017	-0.083479	-0.356527
C11	C	-0.901288	-0.000050	-0.182607
C12	C	-0.801190	-0.000044	-0.179955
C13	C	-0.387984	-0.000070	-0.054354
C14	C	-0.367928	-0.000064	-0.283129
C15	C	-0.461975	-0.000061	-0.285622
C16	C	-0.519031	-0.000061	-0.172480
C17	C	-0.482040	-0.000064	-0.056844
C18	C	-0.498973	-0.000047	-0.401257
C19	C	-0.593025	-0.000043	-0.403755
C20	C	-0.650083	-0.000050	-0.290612
C21	C	-0.613087	-0.000054	-0.174971
C22	C	-0.670143	-0.000054	-0.061829
C23	C	-0.633149	-0.000065	0.053814
C24	C	-0.539098	-0.000071	0.056299
C25	C	-0.744134	-0.000044	-0.293097
C26	C	-0.764199	-0.000047	-0.064319
N27	N	-1.066037	-0.237500	-0.173720
C28	C	-1.005311	-0.710117	-0.258965
C29	C	-1.126854	-0.710096	-0.088485
C30	C	-1.126844	-0.605077	-0.088481
C31	C	-1.066067	-0.552574	-0.173721
C32	C	-1.005301	-0.605089	-0.258966
C33	C	-1.187615	-0.552555	-0.003246
C34	C	-1.187608	-0.447530	-0.003240
C35	C	-1.126827	-0.395025	-0.088476
C36	C	-1.066057	-0.447546	-0.173723
C37	C	-1.005281	-0.395043	-0.258964
C38	C	-0.944506	-0.447562	-0.344206
C39	C	-0.944520	-0.552584	-0.344202
C40	C	-1.126813	-0.290003	-0.088479
C41	C	-1.005270	-0.290014	-0.258965
C42	C	-0.230830	-0.000069	-0.164846
C43	C	-0.330928	-0.000071	-0.167496
C44	C	-1.071205	-0.000063	0.055864
C45	C	-1.068555	-0.000059	0.195279
N46	N	-1.066088	0.237380	-0.173724
C47	C	-1.060912	-0.000055	-0.403318
C48	C	-1.063563	-0.000052	-0.542733
C49	C	-1.149342	-0.000067	0.275604
C50	C	-1.146846	-0.000060	0.406599
C51	C	-0.982770	-0.000041	0.376931
C52	C	-0.985266	-0.000041	0.245939
C53	C	-1.232630	-0.000085	0.224944
C54	C	-1.313423	-0.000094	0.305270
C55	C	-1.310928	-0.000087	0.436265
C56	C	-1.227639	-0.000071	0.486934
H57	H	-0.508968	-0.000104	0.150449
Cl58	Cl	-0.341479	-0.000090	0.091017
Cl59	Cl	-0.296200	-0.000051	-0.425356
H60	H	-0.452511	-0.000037	-0.493370
H61	H	-0.810649	-0.000051	0.027817
H62	H	-0.623138	-0.000033	-0.497918
H63	H	-0.774251	-0.000036	-0.387251
H64	H	-1.381234	-0.000083	0.264007
Cl65	Cl	-0.928856	-0.224019	-0.366125
Cl66	Cl	-0.883704	-0.000031	0.144953
Cl67	Cl	-1.235773	-0.000097	0.060266
H68	H	-1.376714	-0.000084	0.501664
H69	H	-1.225613	-0.000054	0.593600
Cl70	Cl	-1.264004	-0.381512	0.103922
Cl71	Cl	-0.878071	-0.000024	0.440632
H72	H	-0.679616	-0.000058	0.145933
H73	H	-0.895025	-0.404802	-0.413615
H74	H	-0.895040	-0.595352	-0.413604
Cl75	Cl	-1.203262	-0.776097	0.018663
Cl76	Cl	-0.928909	-0.776136	-0.366117
H77	H	-1.237102	-0.595306	0.066149
H78	H	-1.176299	-0.247246	-0.019082
