data_functionalizedCrystal
_audit_creation_method	'MofGen! by Chris Wilmer'
_symmetry_space_group_name_H-M	'P1'
_symmetry_Int_Tables_number	1
_symmetry_cell_setting	triclinic
loop_
_symmetry_equiv_pos_as_xyz
  x,y,z
_cell_length_a	11.026607
_cell_length_b	10.723023
_cell_length_c	9.798715
_cell_angle_alpha	89.996770
_cell_angle_beta	89.998891
_cell_angle_gamma	96.526782
loop_
_atom_site_label
_atom_site_type_symbol
_atom_site_fract_x
_atom_site_fract_y
_atom_site_fract_z
O1	O	0.170514	1.693992	-0.113473
O2	O	0.186836	1.334362	-0.113478
O3	O	0.001774	1.484371	-0.113471
O4	O	0.355576	1.543983	-0.113480
O5	O	0.001773	1.484357	0.113511
O6	O	0.186836	1.334348	0.113504
O7	O	0.170513	1.693977	0.113509
Zn8	Zn	0.178674	1.514160	0.149545
Zn9	Zn	0.178675	1.514179	-0.149514
O10	O	0.355576	1.543968	0.113502
C11	C	0.185649	1.287599	0.000012
C12	C	0.182095	1.148278	0.000010
C13	C	0.180511	1.086156	0.117593
C14	C	0.176838	0.942161	0.117593
C15	C	-0.043529	1.473367	0.000018
C16	C	-0.178516	1.440583	0.000013
C17	C	-0.251568	1.531104	0.000012
C18	C	-0.391084	1.497223	0.000007
C19	C	0.400878	1.554973	0.000010
C20	C	0.535865	1.587756	0.000006
C21	C	0.171701	1.740740	0.000016
C22	C	0.175254	1.880062	0.000009
N23	N	0.178673	1.514156	0.353645
N24	N	0.178667	1.514191	-0.353613
C25	C	0.100628	1.577067	0.421425
C26	C	0.100624	1.577086	0.578587
H27	H	0.181866	1.139576	0.218259
H28	H	0.175482	0.888738	0.218260
O29	O	0.012118	1.648436	0.655796
H30	H	0.028195	1.749411	0.628436
O31	O	0.180283	1.077546	-0.133353
H32	H	0.261484	1.025364	-0.139210
O33	O	-0.197605	1.666986	0.000015
H34	H	-0.228367	1.714174	-0.092506
O35	O	-0.410175	1.723645	0.000005
H36	H	-0.440937	1.770830	-0.092518
H37	H	-0.431824	1.394636	-0.000004
O38	O	-0.232468	1.304697	0.000020
H39	H	-0.333583	1.299410	0.000029
H40	H	0.033809	1.630909	0.363105
O41	O	0.267164	1.442823	0.569187
H42	H	0.326504	1.508899	0.504058
O43	O	0.177052	0.950816	-0.133344
H44	H	0.259137	0.933236	-0.192713
O45	O	0.267201	1.442838	0.430871
H46	H	0.215622	1.370504	0.495999
