data_functionalizedCrystal
_audit_creation_method	'MofGen! by Chris Wilmer'
_symmetry_space_group_name_H-M	'P1'
_symmetry_Int_Tables_number	1
_symmetry_cell_setting	triclinic
loop_
_symmetry_equiv_pos_as_xyz
  x,y,z
_cell_length_a	6.817900
_cell_length_b	9.582860
_cell_length_c	19.453114
_cell_angle_alpha	93.805819
_cell_angle_beta	101.709288
_cell_angle_gamma	111.206767
loop_
_atom_site_label
_atom_site_type_symbol
_atom_site_fract_x
_atom_site_fract_y
_atom_site_fract_z
V1	V	-4.047101	-0.208613	-0.218869
V2	V	-3.547101	0.291387	0.281131
O3	O	-3.993116	0.008421	-0.214835
O4	O	-3.493116	0.508421	0.285165
O5	O	-4.038018	-0.412102	-0.217245
O6	O	-3.538018	0.087898	0.282755
O7	O	-3.989532	-0.206107	-0.314384
O8	O	-3.489532	0.293893	0.185616
O9	O	-4.041937	-0.198999	-0.117024
O10	O	-3.541937	0.301001	0.382976
V11	V	-4.526822	-0.182570	-0.206703
V12	V	-4.026822	0.317430	0.293297
O13	O	-4.316698	-0.265740	-0.245556
O14	O	-3.816698	0.234260	0.254444
O15	O	-4.707422	-0.125443	-0.180016
O16	O	-4.207422	0.374557	0.319984
O17	O	-4.312698	0.020919	-0.208328
O18	O	-3.812698	0.520919	0.291672
O19	O	-4.698204	-0.399604	-0.210737
O20	O	-4.198204	0.100396	0.289263
O21	O	-4.649382	-0.192183	-0.308548
O22	O	-4.149382	0.307817	0.191452
O23	O	-4.361185	-0.185075	-0.111189
O24	O	-3.861185	0.314925	0.388811
C25	C	-3.892880	-0.461686	-0.213759
C26	C	-3.392880	0.038314	0.286241
C27	C	-3.966679	-0.628046	-0.213068
C28	C	-3.466679	-0.128046	0.286932
C29	C	-3.831030	-0.198918	-0.337669
C30	C	-3.331030	0.301082	0.162331
C31	C	-3.865505	-0.198216	-0.415752
C32	C	-3.365505	0.301784	0.084248
C33	C	-4.064934	-0.205398	-0.456004
C34	C	-3.564934	0.294602	0.043996
C35	C	-4.097327	-0.204738	-0.529371
C36	C	-3.597327	0.295262	-0.029371
C37	C	-3.930294	-0.196927	-0.562485
C38	C	-3.430294	0.303073	-0.062485
C39	C	-3.730832	-0.189736	-0.522222
C40	C	-3.230832	0.310264	-0.022222
C41	C	-3.698437	-0.190380	-0.448856
C42	C	-3.198437	0.309620	0.051144
N43	N	-3.885821	-0.275959	-0.681225
N44	N	-3.385821	0.224041	-0.181225
N45	N	-3.916608	-0.275350	-0.750921
N46	N	-3.416608	0.224650	-0.250921
C47	C	-4.027884	-0.194982	-0.783535
C48	C	-3.527884	0.305018	-0.283535
N49	N	-4.107249	-0.115265	-0.743821
N50	N	-3.607249	0.384735	-0.243821
N51	N	-4.076468	-0.115880	-0.674120
N52	N	-3.576468	0.384120	-0.174120
C53	C	-3.965399	-0.196227	-0.642039
C54	C	-3.465399	0.303773	-0.142039
C55	C	-4.262450	-0.201447	-0.903340
C56	C	-3.762450	0.298553	-0.403340
C57	C	-4.294831	-0.200778	-0.976708
C58	C	-3.794831	0.299222	-0.476708
C59	C	-3.928337	-0.185790	-0.969559
C60	C	-3.428337	0.314210	-0.469559
C61	C	-3.895954	-0.186444	-0.896192
C62	C	-3.395954	0.313556	-0.396192
C63	C	-4.063021	-0.194280	-0.863087
C64	C	-3.563021	0.305720	-0.363087
C65	C	-4.121180	0.070496	-0.211811
C66	C	-3.621180	0.570496	0.288189
C67	C	-4.026619	0.236854	-0.212507
C68	C	-3.526619	0.736854	0.287493
C69	C	-4.183030	-0.192270	-0.087900
C70	C	-3.683030	0.307730	0.412100
C71	C	-4.127792	-0.192964	-0.009817
C72	C	-3.627792	0.307036	0.490183
H73	H	-4.259736	-0.210595	-0.562152
H74	H	-3.759736	0.289405	-0.062152
N75	N	-4.442630	-0.209867	-0.867635
N76	N	-3.942630	0.290133	-0.367635
H77	H	-4.392639	-0.117220	-0.830593
H78	H	-3.892639	0.382780	-0.330593
H79	H	-4.482020	-0.303776	-0.844159
H80	H	-3.982020	0.196224	-0.344159
H81	H	-4.457229	-0.206615	-1.009480
H82	H	-3.957229	0.293385	-0.509480
H83	H	-3.536030	-0.184520	-0.416081
H84	H	-3.036030	0.315480	0.083919
N85	N	-3.748136	-0.177377	-1.005245
N86	N	-3.248136	0.322623	-0.505245
H87	H	-3.708655	-0.083530	-1.028767
H88	H	-3.208655	0.416470	-0.528767
H89	H	-3.798232	-0.270095	-1.042249
H90	H	-3.298232	0.229905	-0.542249
N91	N	-4.245112	-0.213836	-0.420298
N92	N	-3.745112	0.286164	0.079702
H93	H	-4.376367	-0.218281	-0.456935
H94	H	-3.876367	0.281719	0.043065
H95	H	-4.194941	-0.121174	-0.383255
H96	H	-3.694941	0.378826	0.116745
N97	N	-3.550664	-0.181300	-0.557932
N98	N	-3.050664	0.318700	-0.057932
H99	H	-3.601448	-0.181986	-0.610518
H100	H	-3.101448	0.318014	-0.110518
H101	H	-3.509686	-0.271388	-0.550306
H102	H	-3.009686	0.228612	-0.050306
H103	H	-3.733566	-0.180612	-0.863418
H104	H	-3.233566	0.319388	-0.363418
