data_functionalizedCrystal
_audit_creation_method	'MofGen! by Chris Wilmer'
_symmetry_space_group_name_H-M	'P1'
_symmetry_Int_Tables_number	1
_symmetry_cell_setting	triclinic
loop_
_symmetry_equiv_pos_as_xyz
  x,y,z
_cell_length_a	23.532407
_cell_length_b	27.732048
_cell_length_c	22.010155
_cell_angle_alpha	89.999275
_cell_angle_beta	89.996931
_cell_angle_gamma	82.745667
loop_
_atom_site_label
_atom_site_type_symbol
_atom_site_fract_x
_atom_site_fract_y
_atom_site_fract_z
O1	O	0.755138	0.058672	-0.050456
O2	O	1.255138	0.558672	0.449544
O3	O	0.589257	0.067162	-0.050475
O4	O	1.089257	0.567162	0.449525
O5	O	0.677350	-0.007472	-0.050453
O6	O	1.177350	0.492528	0.449547
O7	O	0.667046	0.133306	-0.050477
O8	O	1.167046	0.633306	0.449523
O9	O	0.677334	-0.007461	0.050597
O10	O	1.177334	0.492539	0.550597
O11	O	0.589241	0.067173	0.050576
O12	O	1.089241	0.567173	0.550576
O13	O	0.755122	0.058683	0.050595
O14	O	1.255122	0.558683	0.550595
Cu15	Cu	0.672180	0.062929	0.059812
Cu16	Cu	1.172180	0.562929	0.559812
Cu17	Cu	0.672199	0.062916	-0.059692
Cu18	Cu	1.172199	0.562916	0.440308
O19	O	0.667030	0.133317	0.050573
O20	O	1.167030	0.633317	0.550573
C21	C	0.568033	0.066952	0.000048
C22	C	1.068033	0.566952	0.500048
C23	C	0.504818	0.066302	0.000042
C24	C	1.004818	0.566302	0.500042
C25	C	0.105629	0.106391	0.000062
C26	C	0.605629	0.606391	0.500062
C27	C	0.046230	0.105787	0.000066
C28	C	0.546230	0.605787	0.500066
O29	O	0.009406	0.142951	0.000082
O30	O	0.509406	0.642951	0.500082
N31	N	0.023699	0.061418	0.000073
N32	N	0.523699	0.561418	0.500073
C33	C	0.060570	0.017649	0.000082
C34	C	0.560570	0.517649	0.500082
O35	O	0.035951	-0.020147	0.000088
O36	O	0.535951	0.479853	0.500088
C37	C	0.119967	0.018253	0.000082
C38	C	0.619967	0.518253	0.500082
C39	C	0.142495	0.062626	0.000070
C40	C	0.642495	0.562626	0.500070
C41	C	0.128158	0.150760	0.000050
C42	C	0.628158	0.650760	0.500050
C43	C	0.187552	0.151364	0.000045
C44	C	0.687552	0.651364	0.500045
C45	C	0.224419	0.107599	0.000052
C46	C	0.724419	0.607599	0.500052
C47	C	0.201890	0.063229	0.000065
C48	C	0.701890	0.563229	0.500065
C49	C	0.156837	-0.025515	0.000096
C50	C	0.656837	0.474485	0.500096
C51	C	0.216239	-0.024907	0.000097
C52	C	0.716239	0.475093	0.500097
C53	C	0.238766	0.019466	0.000084
C54	C	0.738766	0.519466	0.500084
C55	C	0.298151	0.020068	0.000067
C56	C	0.798151	0.520068	0.500067
N57	N	0.320683	0.064437	0.000060
N58	N	0.820683	0.564437	0.500060
C59	C	0.283817	0.108203	0.000053
C60	C	0.783817	0.608203	0.500053
C61	C	-0.064170	0.016383	0.000082
C62	C	0.435830	0.516383	0.500082
C63	C	-0.123567	0.015778	0.000077
C64	C	0.376433	0.515778	0.500077
C65	C	-0.137902	0.103917	0.000062
C66	C	0.362098	0.603917	0.500062
C67	C	-0.078505	0.104521	0.000063
C68	C	0.421495	0.604521	0.500063
C69	C	-0.041639	0.060753	0.000075
C70	C	0.458361	0.560753	0.500075
C71	C	0.408551	0.109467	0.000042
C72	C	0.908551	0.609467	0.500042
C73	C	0.467951	0.110067	0.000035
C74	C	0.967951	0.610067	0.500035
C75	C	0.482282	0.021928	0.000052
C76	C	0.982282	0.521928	0.500052
C77	C	0.422886	0.021328	0.000057
C78	C	0.922886	0.521328	0.500057
C79	C	0.386021	0.065102	0.000053
C80	C	0.886021	0.565102	0.500053
O81	O	0.335010	-0.017077	0.000054
O82	O	0.835010	0.482923	0.500054
O83	O	0.308444	0.145992	0.000054
O84	O	0.808444	0.645992	0.500054
C85	C	0.677125	-0.025473	0.000074
C86	C	1.177125	0.474527	0.500074
C87	C	0.676474	-0.079129	0.000079
C88	C	1.176474	0.420871	0.500079
C89	C	0.724431	-0.417871	0.000053
C90	C	1.224431	0.082129	0.500053
C91	C	0.722014	-0.619534	0.000044
C92	C	1.222014	-0.119534	0.500044
O93	O	0.765867	-0.650722	0.000023
O94	O	1.265867	-0.150722	0.500023
N95	N	0.669779	-0.638738	0.000039
N96	N	1.169779	-0.138738	0.500039
C97	C	0.618144	-0.607523	0.000032
C98	C	1.118144	-0.107523	0.500032
O99	O	0.573659	-0.628484	0.000021
O100	O	1.073659	-0.128484	0.500021
C101	C	0.620561	-0.405860	0.000036
C102	C	1.120561	0.094140	0.500036
C103	C	0.672800	-0.386659	0.000048
C104	C	1.172800	0.113341	0.500048
C105	C	0.776665	-0.398669	0.000064
C106	C	1.276665	0.101331	0.500064
C107	C	0.777269	-0.348256	0.000069
C108	C	1.277269	0.151744	0.500069
C109	C	0.725638	-0.317045	0.000064
C110	C	1.225638	0.182955	0.500064
C111	C	0.673403	-0.336247	0.000053
C112	C	1.173403	0.163753	0.500053
C113	C	0.568927	-0.374646	0.000025
C114	C	1.068927	0.125354	0.500025
C115	C	0.569536	-0.324228	0.000024
C116	C	1.069536	0.175772	0.500024
C117	C	0.621775	-0.305027	0.000036
C118	C	1.121775	0.194973	0.500036
C119	C	0.622376	-0.254622	0.000053
C120	C	1.122376	0.245378	0.500053
N121	N	0.674611	-0.235418	0.000059
N122	N	1.174611	0.264582	0.500059
C123	C	0.726242	-0.266630	0.000064
C124	C	1.226242	0.233370	0.500064
C125	C	0.616879	-0.713399	0.000031
C126	C	1.116879	-0.213399	0.500031
C127	C	0.616274	-0.763814	0.000031
C128	C	1.116274	-0.263814	0.500031
C129	C	0.720145	-0.775822	0.000042
C130	C	1.220145	-0.275822	0.500042
C131	C	0.720749	-0.725406	0.000046
C132	C	1.220749	-0.225406	0.500046
C133	C	0.669114	-0.694195	0.000036
C134	C	1.169114	-0.194195	0.500036
C135	C	0.727506	-0.160758	0.000076
C136	C	1.227506	0.339242	0.500076
C137	C	0.728105	-0.110341	0.000084
C138	C	1.228105	0.389659	0.500084
C139	C	0.624235	-0.098337	0.000069
C140	C	1.124235	0.401663	0.500069
C141	C	0.623635	-0.148751	0.000065
C142	C	1.123635	0.351249	0.500065
C143	C	0.675276	-0.179961	0.000066
C144	C	1.175276	0.320039	0.500066
O145	O	0.578547	-0.223406	0.000068
O146	O	1.078547	0.276594	0.500068
O147	O	0.770721	-0.245659	0.000061
O148	O	1.270721	0.254341	0.500061
C149	C	0.723827	-0.468283	0.000047
C150	C	1.223827	0.031717	0.500047
C151	C	0.671593	-0.487485	0.000037
C152	C	1.171593	0.012515	0.500037
C153	C	0.619962	-0.456274	0.000031
C154	C	1.119962	0.043726	0.500031
C155	C	0.670988	-0.537900	0.000037
C156	C	1.170988	-0.037900	0.500037
C157	C	0.722619	-0.569112	0.000042
C158	C	1.222619	-0.069112	0.500042
C159	C	0.774855	-0.549908	0.000047
C160	C	1.274855	-0.049908	0.500047
C161	C	0.775458	-0.499495	0.000053
C162	C	1.275458	0.000505	0.500053
C163	C	0.567727	-0.475478	0.000026
C164	C	1.067727	0.024522	0.500026
C165	C	0.567127	-0.525891	0.000021
C166	C	1.067127	-0.025891	0.500021
C167	C	0.618758	-0.557103	0.000026
C168	C	1.118758	-0.057103	0.500026
C169	C	0.776346	0.058894	0.000070
C170	C	1.276346	0.558894	0.500070
C171	C	0.839562	0.059544	0.000073
C172	C	1.339562	0.559544	0.500073
C173	C	0.667254	0.151319	0.000045
C174	C	1.167254	0.651319	0.500045
C175	C	0.667905	0.204975	0.000036
C176	C	1.167905	0.704975	0.500036
N177	N	0.672171	0.062938	0.143864
N178	N	1.172171	0.562938	0.643864
N179	N	0.672213	0.062903	-0.143744
N180	N	1.172213	0.562903	0.356256
C181	C	0.711209	0.029873	0.563653
C182	C	1.211209	0.529873	1.063653
C183	C	0.711211	0.029869	0.627261
C184	C	1.211211	0.529869	1.127261
O185	O	0.744380	0.001762	0.660160
O186	O	1.244380	0.501762	1.160160
N187	N	0.672199	0.062906	0.659071
N188	N	1.172199	0.562906	1.159071
C189	C	0.633177	0.095945	0.627271
C190	C	1.133177	0.595945	1.127271
O191	O	0.599994	0.124044	0.660169
O192	O	1.099994	0.624044	1.160169
C193	C	0.633172	0.095945	0.563665
C194	C	1.133172	0.595945	1.063665
C195	C	0.672191	0.062910	0.531857
C196	C	1.172191	0.562910	1.031857
C197	C	0.750224	-0.003160	0.531846
C198	C	1.250224	0.496840	1.031846
C199	C	0.750222	-0.003156	0.468243
C200	C	1.250222	0.496844	0.968243
C201	C	0.711205	0.029881	0.436447
C202	C	1.211205	0.529881	0.936447
C203	C	0.672189	0.062914	0.468254
C204	C	1.172189	0.562914	0.968254
C205	C	0.594148	0.128981	0.531866
C206	C	1.094148	0.628981	1.031866
C207	C	0.594147	0.128979	0.468255
C208	C	1.094147	0.628979	0.968255
C209	C	0.633166	0.095943	0.436447
C210	C	1.133166	0.595943	0.936447
C211	C	0.633170	0.095955	0.372855
C212	C	1.133170	0.595955	0.872855
N213	N	0.672182	0.062919	0.341045
N214	N	1.172182	0.562919	0.841045
C215	C	0.711200	0.029881	0.372840
C216	C	1.211200	0.529881	0.872840
C217	C	0.633190	0.095940	0.760849
C218	C	1.133190	0.595940	1.260849
C219	C	0.633197	0.095942	0.824454
C220	C	1.133197	0.595942	1.324454
C221	C	0.711231	0.029866	0.824440
C222	C	1.211231	0.529866	1.324440
C223	C	0.711226	0.029867	0.760833
C224	C	1.211226	0.529867	1.260833
C225	C	0.672202	0.062904	0.729038
C226	C	1.172202	0.562904	1.229038
C227	C	0.711193	0.029893	0.239269
C228	C	1.211193	0.529893	0.739269
C229	C	0.711189	0.029901	0.175660
C230	C	1.211189	0.529901	0.675660
C231	C	0.633153	0.095975	0.175680
C232	C	1.133153	0.595975	0.675680
C233	C	0.633159	0.095969	0.239284
C234	C	1.133159	0.595969	0.739284
C235	C	0.672181	0.062924	0.271076
C236	C	1.172181	0.562924	0.771076
O237	O	0.600017	0.124047	0.339915
O238	O	1.100017	0.624047	0.839915
O239	O	0.744372	0.001783	0.339935
O240	O	1.244372	0.501783	0.839935
H241	H	-0.167930	0.139553	0.000059
H242	H	0.332070	0.639553	0.500059
O243	O	0.591067	0.131608	0.141386
O244	O	1.091067	0.631608	0.641386
H245	H	0.546730	0.125635	0.153607
H246	H	1.046730	0.625635	0.653607
H247	H	0.742965	0.003000	0.149765
H248	H	1.242965	0.503000	0.649765
O249	O	-0.024412	-0.030830	0.000086
O250	O	0.475588	0.469170	0.500086
H251	H	0.002987	-0.032665	0.041275
H252	H	0.502987	0.467335	0.541275
H253	H	0.246253	-0.060550	0.000107
H254	H	0.746253	0.439450	0.500107
H255	H	0.524585	-0.541520	0.000017
H256	H	1.024585	-0.041520	0.500017
O257	O	0.512583	-0.395349	0.000010
O258	O	1.012583	0.104651	0.500010
H259	H	0.476789	-0.365169	-0.000001
H260	H	0.976789	0.134831	0.499999
H261	H	0.601414	0.122847	0.734965
H262	H	1.101414	0.622847	1.234965
H263	H	0.601392	0.122874	0.265182
H264	H	1.101392	0.622874	0.765182
H265	H	0.573737	-0.779443	0.000032
H266	H	1.073737	-0.279443	0.500032
H267	H	0.781997	-0.030065	0.557728
H268	H	1.281997	0.469935	1.057728
O269	O	0.132548	-0.073375	0.000122
O270	O	0.632548	0.426625	0.500122
H271	H	0.168170	-0.103701	0.000139
H272	H	0.668170	0.396299	0.500139
O273	O	0.831804	-0.478791	0.000053
O274	O	1.331804	0.021209	0.500053
H275	H	0.856588	-0.491354	0.041237
H276	H	1.356588	0.008646	0.541237
O277	O	0.784452	-0.089633	0.000086
O278	O	1.284452	0.410367	0.500086
H279	H	0.809238	-0.102196	0.041270
H280	H	1.309238	0.397804	0.541270
O281	O	0.088398	0.197968	0.000040
O282	O	0.588398	0.697968	0.500040
H283	H	0.114053	0.228917	0.000028
H284	H	0.614053	0.728917	0.500028
H285	H	0.601430	0.122848	0.850347
H286	H	1.101430	0.622848	1.350347
O287	O	0.552046	0.164607	0.433966
O288	O	1.052046	0.664607	0.933966
H289	H	0.558589	0.159057	0.384391
H290	H	1.058589	0.659057	0.884391
H291	H	0.525681	-0.450070	0.000020
H292	H	1.025681	0.049930	0.500020
O293	O	0.398582	-0.026529	0.000068
O294	O	0.898582	0.473471	0.500068
H295	H	0.434199	-0.056860	0.000075
H296	H	0.934199	0.443140	0.500075
O297	O	0.753303	-0.005775	0.726536
O298	O	1.253303	0.494225	1.226536
H299	H	0.729530	-0.029165	0.697566
H300	H	1.229530	0.470835	1.197566
H301	H	0.512309	-0.013704	0.000056
H302	H	1.012309	0.486296	0.500056
H303	H	0.581099	-0.164385	0.000072
H304	H	1.081099	0.335615	0.500072
O305	O	0.368798	0.156681	0.000036
O306	O	0.868798	0.656681	0.500036
H307	H	0.341397	0.158527	0.041227
H308	H	0.841397	0.658527	0.541227
H309	H	-0.060167	0.140653	0.000056
H310	H	0.439833	0.640653	0.500056
O311	O	0.492246	0.157930	0.000031
O312	O	0.992246	0.657930	0.500031
H313	H	0.477403	0.178945	-0.041154
H314	H	0.977403	0.678945	0.458846
O315	O	0.211848	0.199223	0.000050
O316	O	0.711848	0.699223	0.500050
H317	H	0.176226	0.229550	0.000055
H318	H	0.676226	0.729550	0.500055
H319	H	0.819807	-0.332628	0.000076
H320	H	1.319807	0.167372	0.500076
O321	O	0.832357	-0.432330	0.000078
O322	O	1.332357	0.067670	0.500078
H323	H	0.868775	-0.410499	0.000092
H324	H	1.368775	0.089501	0.500092
O325	O	-0.147863	-0.032081	0.000089
O326	O	0.352137	0.467919	0.500089
H327	H	-0.112243	-0.062409	0.000099
H328	H	0.387757	0.437591	0.500099
H329	H	0.763286	-0.709776	0.000055
H330	H	1.263286	-0.209776	0.500055
H331	H	0.762185	-0.801243	0.000047
H332	H	1.262185	-0.301243	0.500047
O333	O	0.513841	-0.290567	0.000016
O334	O	1.013841	0.209433	0.500016
H335	H	0.523031	-0.252283	0.000017
H336	H	1.023031	0.247717	0.500017
H337	H	0.769556	-0.186164	0.000075
H338	H	1.269556	0.313836	0.500075
O339	O	0.561184	-0.679737	0.000032
O340	O	1.061184	-0.179737	0.500032
H341	H	0.524765	-0.701566	0.000038
H342	H	1.024765	-0.201566	0.500038
H343	H	0.743000	0.002965	0.850339
H344	H	1.243000	0.502965	1.350339
H345	H	0.582198	-0.072916	0.000067
H346	H	1.082198	0.427084	0.500067
H347	H	0.816894	-0.575329	0.000054
H348	H	1.316894	-0.075329	0.500054
H349	H	0.742967	0.002984	0.265148
H350	H	1.242967	0.502984	0.765148
H351	H	0.781993	-0.030058	0.442349
H352	H	1.281993	0.469942	0.942349
O353	O	0.552062	0.164623	0.566146
O354	O	1.052062	0.664623	1.066146
H355	H	0.524557	0.144405	0.595133
H356	H	1.024557	0.644405	1.095133
