data_functionalizedCrystal
_audit_creation_method	'MofGen! by Chris Wilmer'
_symmetry_space_group_name_H-M	'P1'
_symmetry_Int_Tables_number	1
_symmetry_cell_setting	triclinic
loop_
_symmetry_equiv_pos_as_xyz
  x,y,z
_cell_length_a	12.837932
_cell_length_b	12.811415
_cell_length_c	11.295483
_cell_angle_alpha	88.701575
_cell_angle_beta	85.460332
_cell_angle_gamma	89.412215
loop_
_atom_site_label
_atom_site_type_symbol
_atom_site_fract_x
_atom_site_fract_y
_atom_site_fract_z
O1	O	1.385596	0.264774	-0.127616
O2	O	1.083631	0.251381	-0.126172
O3	O	1.241062	0.107094	-0.110584
O4	O	1.228165	0.409061	-0.143204
O5	O	1.227234	0.119745	0.086100
O6	O	1.069803	0.264032	0.070512
O7	O	1.371769	0.277426	0.069068
Cu8	Cu	1.219523	0.271884	0.087749
Cu9	Cu	1.235876	0.256922	-0.144853
O10	O	1.214337	0.421712	0.053481
C11	C	1.038042	0.253182	-0.027341
C12	C	0.922804	0.239689	-0.025885
C13	C	0.771615	0.126912	-0.013700
C14	C	0.879893	0.139583	-0.015069
C15	C	0.857430	0.327130	-0.035328
C16	C	0.749152	0.314459	-0.033959
C17	C	0.706249	0.214346	-0.023146
C18	C	0.597971	0.201675	-0.021786
C19	C	0.575509	0.389222	-0.042036
C20	C	0.683786	0.401893	-0.043405
C21	C	1.233002	0.074501	-0.008040
C22	C	1.229573	-0.041467	0.004479
C23	C	1.238189	-0.273167	-0.186445
C24	C	1.234968	-0.382129	-0.174687
C25	C	1.219903	-0.368356	0.039751
C26	C	1.223124	-0.259393	0.027993
C27	C	1.232269	-0.211803	-0.085108
C28	C	1.235497	-0.102839	-0.096865
C29	C	1.220425	-0.089067	0.117572
C30	C	1.217204	-0.198030	0.129330
C31	C	1.417357	0.275624	-0.029765
C32	C	1.532596	0.289117	-0.031229
C33	C	1.222398	0.454305	-0.049066
C34	C	1.225827	0.570272	-0.061593
N35	N	1.208029	0.282407	0.251349
N36	N	1.247378	0.246391	-0.308451
C37	C	1.330120	0.170580	0.512719
C38	C	1.321441	0.178541	0.636523
C39	C	1.181988	0.306283	0.622762
C40	C	1.190667	0.298323	0.498959
C41	C	1.264736	0.230470	0.443941
C42	C	1.273419	0.222515	0.320135
C43	C	1.133962	0.350252	0.306378
C44	C	1.125284	0.358212	0.430181
H45	H	0.522275	0.460418	-0.049728
C46	C	1.077850	0.522256	0.249448
C47	C	1.062087	0.416094	0.230777
H48	H	1.033485	0.562904	0.202770
H49	H	1.062078	0.536692	0.331048
H50	H	1.148676	0.539170	0.227170
H51	H	0.991262	0.399177	0.253064
H52	H	1.077852	0.401650	0.149160
H53	H	0.563042	0.120159	-0.012986
H54	H	1.121676	0.361520	0.667575
C55	C	1.205591	-0.358947	0.242569
C56	C	1.207164	-0.250348	0.253646
H57	H	1.199404	-0.391242	0.319320
H58	H	1.147766	-0.377679	0.200254
H59	H	1.268547	-0.381570	0.200637
H60	H	1.144204	-0.227723	0.295571
H61	H	1.264994	-0.231607	0.295979
C62	C	1.460155	0.051476	0.637683
C63	C	1.393313	0.112710	0.712124
H64	H	1.504529	0.010837	0.684358
H65	H	1.419890	0.006554	0.593924
H66	H	1.501388	0.095514	0.584292
H67	H	1.352074	0.068671	0.765509
H68	H	1.433582	0.157636	0.755902
C69	C	1.360755	0.021985	0.388520
C70	C	1.411551	0.096032	0.452211
H71	H	1.411036	-0.024025	0.351155
H72	H	1.313753	-0.016760	0.441337
H73	H	1.323041	0.056524	0.329857
H74	H	1.449260	0.061493	0.510880
H75	H	1.458572	0.134782	0.399390
C76	C	0.799630	0.518439	-0.157806
C77	C	0.730951	0.511933	-0.055293
H78	H	0.828740	0.586377	-0.165149
H79	H	0.854051	0.468187	-0.152365
H80	H	0.762668	0.505182	-0.225432
H81	H	0.767914	0.525182	0.012333
H82	H	0.676521	0.562201	-0.060726
H83	H	1.333733	0.167270	0.275341
H84	H	1.064975	0.413454	0.474991
H85	H	0.892380	0.408638	-0.044121
H86	H	1.242946	-0.064093	-0.188958
H87	H	0.736685	0.045396	-0.004908
H88	H	0.933111	0.068384	-0.007377
H89	H	1.245644	-0.234419	-0.278536
H90	H	1.239785	-0.432088	-0.257206
H91	H	1.212449	-0.407122	0.131833
H92	H	1.215608	-0.039093	0.200088
