data_functionalizedCrystal
_audit_creation_method	'MofGen! by Chris Wilmer'
_symmetry_space_group_name_H-M	'P1'
_symmetry_Int_Tables_number	1
_symmetry_cell_setting	triclinic
loop_
_symmetry_equiv_pos_as_xyz
  x,y,z
_cell_length_a	19.805407
_cell_length_b	19.805405
_cell_length_c	19.805399
_cell_angle_alpha	90.029301
_cell_angle_beta	90.019573
_cell_angle_gamma	90.026410
loop_
_atom_site_label
_atom_site_type_symbol
_atom_site_fract_x
_atom_site_fract_y
_atom_site_fract_z
Zn1	Zn	1.034736	-0.269479	0.382712
Zn2	Zn	1.034651	-0.382667	0.269520
Zn3	Zn	0.921550	-0.269498	0.269536
Zn4	Zn	0.921514	-0.382631	0.382667
O5	O	0.978113	-0.326069	0.326109
O6	O	1.129441	-0.284501	0.367708
O7	O	1.019627	-0.367678	0.174805
O8	O	0.936616	-0.174778	0.284575
O9	O	1.129378	-0.367660	0.284547
O10	O	1.019772	-0.174765	0.367724
O11	O	0.936533	-0.284533	0.174817
O12	O	0.826829	-0.284498	0.284531
O13	O	0.936553	-0.367598	0.477389
O14	O	0.826802	-0.367617	0.367648
O15	O	1.019737	-0.284466	0.477422
O16	O	1.019592	-0.477379	0.284503
O17	O	0.936471	-0.477353	0.367632
C18	C	0.802257	-0.326056	0.326087
C19	C	0.727025	-0.326067	0.326093
C20	C	0.691684	-0.369412	0.369302
C21	C	0.620996	-0.369413	0.369312
C22	C	0.585649	-0.326072	0.326109
C23	C	0.620994	-0.282722	0.282898
C24	C	0.691681	-0.282718	0.282892
C25	C	0.335921	-0.282737	0.282920
C26	C	0.265229	-0.282746	0.282928
C27	C	0.265235	-0.369432	0.369340
C28	C	0.335922	-0.369428	0.369334
C29	C	0.371262	-0.326076	0.326126
C30	C	0.447910	-0.326074	0.326117
C31	C	0.509002	-0.326076	0.326114
C32	C	0.978036	-0.501925	0.326076
C33	C	0.978066	-0.577157	0.326084
C34	C	1.021389	-0.612492	0.282845
C35	C	1.021418	-0.683181	0.282860
C36	C	0.978119	-0.718532	0.326111
C37	C	0.934794	-0.683192	0.369356
C38	C	0.934769	-0.612505	0.369344
C39	C	0.934894	-0.968265	0.369406
C40	C	0.934921	-1.038957	0.369413
C41	C	1.021542	-1.038941	0.282922
C42	C	1.021517	-0.968254	0.282910
C43	C	0.978195	-0.932920	0.326157
C44	C	0.978166	-0.856271	0.326141
C45	C	0.978145	-0.795179	0.326124
C46	C	1.154655	-0.326082	0.326131
C47	C	1.229887	-0.326088	0.326140
C48	C	0.978151	-0.326026	0.502651
C49	C	0.978167	-0.326008	0.577883
C50	C	0.978207	-0.149526	0.326156
C51	C	0.978248	-0.074294	0.326177
C52	C	0.978114	-0.326062	0.150253
C53	C	0.978229	-0.325890	0.075021
C54	C	1.021481	-0.282719	0.613246
C55	C	1.021488	-0.282699	0.683934
C56	C	0.978184	-0.325973	0.719259
C57	C	0.934864	-0.369264	0.683892
C58	C	0.934854	-0.369279	0.613204
C59	C	0.934902	-0.369201	0.968965
C60	C	0.934917	-0.369183	1.039657
C61	C	1.021536	-0.282620	1.039695
C62	C	1.021527	-0.282636	0.969008
C63	C	0.978205	-0.325924	0.933647
C64	C	0.978197	-0.325944	0.856998
C65	C	0.978194	-0.325957	0.795906
H66	H	0.592209	-0.247430	0.247724
O67	O	1.063493	-0.240557	0.934625
C68	C	1.072612	-0.149150	0.854892
C69	C	1.025014	-0.196781	0.893771
H70	H	1.041520	-0.113736	0.821863
H71	H	1.107978	-0.180184	0.821744
H72	H	1.103580	-0.118236	0.892328
H73	H	0.994002	-0.227705	0.856384
H74	H	0.989693	-0.165708	0.926929
O75	O	0.370288	-0.411599	0.411206
C76	C	0.450100	-0.502956	0.420148
C77	C	0.411212	-0.455253	0.372646
H78	H	0.483207	-0.538252	0.388992
H79	H	0.412730	-0.533985	0.451023
H80	H	0.483190	-0.471906	0.455604
H81	H	0.378122	-0.486251	0.337149
H82	H	0.448619	-0.424221	0.341818
H83	H	0.364686	-0.247442	0.247733
O84	O	0.892739	-0.934052	0.411426
C85	C	0.806834	-0.941534	0.497229
C86	C	0.854536	-0.980368	0.449668
H87	H	0.775944	-0.978964	0.528170
H88	H	0.771406	-0.908512	0.466142
H89	H	0.837878	-0.908370	0.532621
H90	H	0.823547	-1.013569	0.414266
H91	H	0.889965	-1.013347	0.480797
O92	O	0.892957	-1.073373	0.411468
C93	C	0.883842	-1.153102	0.502879
C94	C	0.931438	-1.114180	0.455288
H95	H	0.914935	-1.186093	0.538328
H96	H	0.848488	-1.186291	0.471816
H97	H	0.852860	-1.115693	0.533757
H98	H	0.962463	-1.151540	0.424399
H99	H	0.966747	-1.080981	0.486390
O100	O	1.063731	-1.073185	0.240950
C101	C	1.178899	-1.094747	0.208234
C102	C	1.131197	-1.055918	0.255799
H103	H	1.233456	-1.080811	0.220232
H104	H	1.167096	-1.080880	0.153633
H105	H	1.171457	-1.151340	0.215655
H106	H	1.138613	-0.999316	0.248439
H107	H	1.143013	-1.069842	0.310383
O108	O	0.892859	-0.411433	0.578877
C109	C	0.859928	-0.526570	0.557232
C110	C	0.907539	-0.478908	0.596139
H111	H	0.871770	-0.581133	0.571184
H112	H	0.867366	-0.519204	0.500636
H113	H	0.805360	-0.514649	0.571109
H114	H	0.962125	-0.490800	0.582319
H115	H	0.900042	-0.486283	0.652726
O116	O	0.892756	-0.717635	0.411307
C117	C	0.854427	-0.826537	0.449685
C118	C	0.902062	-0.787617	0.402131
H119	H	0.861945	-0.883124	0.442293
H120	H	0.799837	-0.812740	0.437745
H121	H	0.866268	-0.812553	0.504264
H122	H	0.890282	-0.801580	0.347536
H123	H	0.956637	-0.801417	0.414130
H124	H	0.899492	-0.583735	0.404555
O125	O	0.725909	-0.240595	0.240851
C126	C	0.718447	-0.154588	0.155164
C127	C	0.679602	-0.202271	0.202729
H128	H	0.681025	-0.123580	0.124340
H129	H	0.751494	-0.185584	0.119669
H130	H	0.751588	-0.119263	0.186310
H131	H	0.646425	-0.237605	0.171637
H132	H	0.646597	-0.171233	0.238226
O133	O	1.063512	-0.578259	0.240806
C134	C	1.149405	-0.585712	0.154987
C135	C	1.101745	-0.624562	0.202573
H136	H	1.180318	-0.623131	0.124053
H137	H	1.184812	-0.552586	0.186055
H138	H	1.118327	-0.552651	0.119590
H139	H	1.132768	-0.657660	0.237980
H140	H	1.066335	-0.657646	0.171463
O141	O	0.230801	-0.411477	0.411297
C142	C	0.121908	-0.449935	0.449581
C143	C	0.160817	-0.402274	0.402046
H144	H	0.065319	-0.442522	0.442108
H145	H	0.135786	-0.438121	0.504194
H146	H	0.135820	-0.504488	0.437598
H147	H	0.146926	-0.347705	0.413968
H148	H	0.146935	-0.414146	0.347447
H149	H	1.056695	-0.711948	0.247649
H150	H	1.056773	-0.939473	0.247688
H151	H	0.236452	-0.247448	0.247747
H152	H	1.056747	-0.247482	0.584489
O153	O	0.892943	-0.411293	1.074002
C154	C	0.883798	-0.502631	1.153811
C155	C	0.931406	-0.454996	1.114948
H156	H	0.914876	-0.537967	1.186936
H157	H	0.852845	-0.533621	1.116425
H158	H	0.848420	-0.471530	1.186881
H159	H	0.966826	-0.486045	1.081878
H160	H	0.962312	-0.424003	1.152371
H161	H	1.056761	-0.247450	0.712723
H162	H	1.056809	-0.247370	1.068495
H163	H	0.899637	-0.404459	0.940183
H164	H	0.899602	-0.404495	0.712659
H165	H	0.592225	-0.404709	0.404496
O166	O	0.725912	-0.411535	0.411335
C167	C	0.718450	-0.497544	0.497023
C168	C	0.679605	-0.449864	0.449463
H169	H	0.681027	-0.528555	0.527852
H170	H	0.751552	-0.466545	0.532513
H171	H	0.751535	-0.532865	0.465871
H172	H	0.646483	-0.414533	0.480560
H173	H	0.646545	-0.480904	0.413971
