data_functionalizedCrystal
_audit_creation_method	'MofGen! by Chris Wilmer'
_symmetry_space_group_name_H-M	'P1'
_symmetry_Int_Tables_number	1
_symmetry_cell_setting	triclinic
loop_
_symmetry_equiv_pos_as_xyz
  x,y,z
_cell_length_a	19.851628
_cell_length_b	14.628931
_cell_length_c	14.628931
_cell_angle_alpha	60.000000
_cell_angle_beta	90.003599
_cell_angle_gamma	59.998289
loop_
_atom_site_label
_atom_site_type_symbol
_atom_site_fract_x
_atom_site_fract_y
_atom_site_fract_z
Zr1	Zr	0.648978	1.000475	-0.119855
O2	O	0.541412	1.191197	-0.265834
O3	O	0.681953	0.809764	-0.075105
O4	O	0.681953	1.000469	-0.265810
O5	O	0.541411	1.000492	0.075304
O6	O	0.792815	1.000451	-0.265792
O7	O	0.541411	1.000492	-0.075128
O8	O	0.792815	0.659315	0.075346
O9	O	0.541412	1.341629	-0.265834
O10	O	0.778751	0.888189	-0.056006
O11	O	0.696016	0.888202	0.056246
O12	O	0.696017	1.112733	-0.168285
O13	O	0.613282	1.112746	-0.056033
Zr14	Zr	0.825790	1.000447	0.120095
Zr15	Zr	0.825790	1.000447	-0.119826
Zr16	Zr	0.648978	1.000475	0.120066
Zr17	Zr	0.648979	1.240396	-0.119855
Zr18	Zr	0.825790	0.760526	0.120096
O19	O	0.792815	1.191158	0.075345
O20	O	0.792815	1.191157	-0.265792
O21	O	0.541412	1.191198	0.075303
O22	O	0.933356	0.809725	0.266074
O23	O	0.933357	0.809724	-0.075063
O24	O	0.681953	0.809765	0.266032
O25	O	0.933357	1.000429	-0.075063
O26	O	0.792815	1.000453	0.266050
O27	O	0.681953	1.000471	0.266032
O28	O	0.933357	1.000430	0.075368
O29	O	0.681954	1.341607	-0.265811
O30	O	0.792814	0.659315	0.266051
O31	O	0.933356	0.659293	0.266074
O32	O	0.933356	0.659292	0.075369
O33	O	0.541412	1.341629	-0.075128
O34	O	0.681954	1.341607	-0.075105
O35	O	0.778751	0.888189	0.168525
O36	O	0.861486	0.888176	0.056274
O37	O	0.778752	1.112720	-0.056006
O38	O	0.696017	1.112733	0.056246
C39	C	0.737384	0.700356	0.000121
C40	C	0.737384	0.598503	0.000121
C41	C	0.516220	1.000496	0.000084
C42	C	0.441158	1.000508	0.000071
C43	C	0.778426	0.553087	-0.055564
C44	C	0.778427	0.447816	-0.055565
C45	C	0.214703	1.122910	-0.061111
C46	C	0.192342	1.061711	-0.105469
C47	C	0.303752	1.000475	0.000103
C48	C	0.192372	1.061682	0.044441
C49	C	0.171020	1.000451	0.000134
C50	C	0.282379	0.939274	-0.044317
C51	C	0.282407	0.939264	0.105652
C52	C	0.260099	0.877974	0.061320
C53	C	0.380214	1.000492	0.000083
C54	C	0.094562	1.000425	0.000152
C55	C	0.958549	1.000426	0.000157
C56	C	1.033610	1.000414	0.000169
C57	C	0.737384	1.000460	-0.299985
C58	C	0.737384	1.000460	-0.401837
C59	C	0.737384	1.300566	0.000120
C60	C	0.737384	1.402419	0.000120
C61	C	0.696343	1.111849	-0.502945
C62	C	0.696342	1.111851	-0.608216
C63	C	0.737384	1.000462	0.300225
C64	C	0.737384	1.000462	0.402078
C65	C	0.958548	0.700320	0.000157
C66	C	1.033609	0.598456	0.000170
C67	C	0.737383	0.700357	0.300225
C68	C	0.737383	0.598504	0.402078
C69	C	0.958548	0.700321	0.300262
C70	C	1.033609	0.598457	0.402127
C71	C	0.516220	1.300601	-0.300022
C72	C	0.441159	1.402465	-0.401887
C73	C	0.516220	1.300601	0.000083
C74	C	0.441159	1.402466	0.000071
C75	C	0.737385	1.300565	-0.299985
C76	C	0.737385	1.402418	-0.401838
C77	C	1.025672	0.550625	-0.058443
C78	C	1.096193	0.454926	-0.058454
C79	C	1.174651	0.407051	0.000156
C80	C	1.182586	0.454891	0.058770
C81	C	1.112066	0.550595	0.058773
C82	C	1.112053	0.550613	0.391370
C83	C	1.182587	0.454914	0.487074
C84	C	1.174676	0.407053	0.593534
C85	C	1.096224	0.454906	0.604290
C86	C	1.025692	0.550611	0.508586
C87	C	0.362715	1.450321	-0.391130
C88	C	0.292181	1.546050	-0.486834
C89	C	0.300092	1.593915	-0.593294
C90	C	0.378544	1.546056	-0.604049
C91	C	0.449077	1.450335	-0.508346
C92	C	0.449096	1.450307	0.058673
C93	C	0.378575	1.546033	0.058658
C94	C	0.300117	1.593910	0.000045
C95	C	0.292182	1.546066	-0.058565
C96	C	0.362702	1.450348	-0.058555
C97	C	0.778425	0.553088	0.503186
C98	C	0.778426	0.447818	0.608457
H99	H	0.813561	0.408766	-0.103244
O100	O	0.949402	0.597226	-0.115288
C101	C	0.888849	0.691982	-0.102754
H102	H	0.916328	0.676257	-0.023594
H103	H	0.866791	0.792084	-0.178469
C104	C	0.781628	0.700822	-0.190943
C105	C	0.815377	0.681501	-0.093712
H106	H	0.736305	0.694363	-0.185371
H107	H	0.822423	0.636987	-0.199392
H108	H	0.763254	0.784240	-0.254029
H109	H	0.833760	0.598079	-0.030631
H110	H	0.774583	0.745323	-0.085253
H111	H	0.702241	0.441475	0.047790
H112	H	0.702249	0.559448	0.047796
H113	H	0.661199	1.207215	-0.694952
H114	H	0.772519	0.905093	-0.511190
H115	H	0.228309	1.585000	-0.478055
O116	O	1.088327	0.408559	-0.115403
C117	C	1.003955	0.471353	-0.167136
H118	H	0.966359	0.510783	-0.121161
H119	H	0.983161	0.554481	-0.258100
C120	C	1.036840	0.325960	-0.219342
C121	C	0.990665	0.374379	-0.162868
H122	H	1.028641	0.266145	-0.216715
H123	H	1.093683	0.283657	-0.184492
H124	H	1.019507	0.395245	-0.295140
H125	H	1.008006	0.305097	-0.087069
H126	H	0.933824	0.416669	-0.197706
H127	H	1.246460	0.415961	0.478297
H128	H	1.232066	0.329122	0.000145
H129	H	0.813559	0.592146	0.511812
O130	O	0.525366	1.403633	0.115591
C131	C	0.585919	1.308913	0.103022
H132	H	0.558440	1.267049	0.081451
H133	H	0.607977	1.354689	0.032857
C134	C	0.693140	1.251577	0.239707
C135	C	0.659391	1.200151	0.213222
H136	H	0.738463	1.184490	0.307681
H137	H	0.652345	1.315395	0.248172
H138	H	0.711514	1.289723	0.181228
H139	H	0.641008	1.162021	0.271694
H140	H	0.700185	1.136324	0.204769
O141	O	0.949537	0.597090	0.519188
C142	C	0.940491	0.652470	0.578204
H143	H	1.003979	0.609250	0.631013
H144	H	0.906765	0.761478	0.516218
C145	C	0.812428	0.677175	0.590208
C146	C	0.890406	0.624084	0.655076
H147	H	0.781530	0.659671	0.637623
H148	H	0.818521	0.639869	0.550444
H149	H	0.784334	0.768012	0.538557
H150	H	0.918503	0.533247	0.706716
H151	H	0.884317	0.661373	0.694851
O152	O	0.146119	1.123530	-0.212012
C153	C	0.184596	1.167868	-0.286839
H154	H	0.226989	1.178370	-0.246522
H155	H	0.222356	1.095462	-0.307432
C156	C	0.066282	1.287026	-0.444740
C157	C	0.118345	1.299934	-0.395224
H158	H	0.025416	1.368487	-0.511599
H159	H	0.040360	1.257151	-0.394328
H160	H	0.097758	1.226682	-0.461890
H161	H	0.086870	1.360264	-0.378062
H162	H	0.144260	1.329823	-0.445636
H163	H	0.385052	1.584971	0.106389
H164	H	0.661210	1.207211	-0.511571
H165	H	0.242653	1.671857	-0.671213
O166	O	1.258864	0.408191	0.115689
C167	C	1.319396	0.313484	0.103089
H168	H	1.291891	0.271665	0.081488
H169	H	1.341459	0.359259	0.032933
C170	C	1.426648	0.256046	0.239806
C171	C	1.392868	0.204676	0.213285
H172	H	1.471972	0.188930	0.307777
H173	H	1.385868	0.319855	0.248292
H174	H	1.445028	0.294191	0.181334
H175	H	1.374480	0.166546	0.271749
H176	H	1.433648	0.140857	0.204811
O177	O	0.328615	0.877676	-0.089180
C178	C	0.399350	0.878449	-0.088669
H179	H	0.387273	0.961674	-0.085861
H180	H	0.453746	0.783029	-0.011972
C181	C	0.434283	0.793547	-0.198956
C182	C	0.419447	0.895773	-0.195518
H183	H	0.446683	0.804227	-0.264862
H184	H	0.386629	0.793022	-0.199297
H185	H	0.479611	0.714040	-0.135036
H186	H	0.374113	0.975275	-0.259429
H187	H	0.467094	0.896312	-0.195190
O188	O	1.119636	0.597214	0.115635
C189	C	1.040576	0.691921	0.103115
H190	H	0.993813	0.733824	0.023951
H191	H	1.022616	0.646118	0.178829
C192	C	1.099080	0.749175	0.191328
C193	C	1.041647	0.800649	0.094093
H194	H	1.099740	0.816242	0.185768
H195	H	1.152345	0.685367	0.199768
H196	H	1.084106	0.711007	0.254413
H197	H	1.056627	0.838801	0.031012
H198	H	0.988384	0.864467	0.085642
H199	H	1.118510	0.589567	0.304693
O200	O	1.243281	0.314040	0.686380
C201	C	1.314210	0.282104	0.654042
H202	H	1.298006	0.308489	0.565701
H203	H	1.337956	0.338063	0.655779
C204	C	1.401404	0.103579	0.844210
C205	C	1.381504	0.135976	0.735711
H206	H	1.442916	0.013442	0.894589
H207	H	1.353619	0.125097	0.865998
H208	H	1.421187	0.150222	0.845641
H209	H	1.361712	0.089345	0.734278
H210	H	1.429288	0.114447	0.713924
O211	O	0.525214	1.403943	-0.519004
C212	C	0.517060	1.466745	-0.633493
H213	H	0.454115	1.506203	-0.684524
H214	H	0.522846	1.549855	-0.661688
C215	C	0.662677	1.321316	-0.588858
C216	C	0.585369	1.369769	-0.651534
H217	H	0.704815	1.261500	-0.599987
H218	H	0.668172	1.279008	-0.511724
H219	H	0.667487	1.390585	-0.612360
H220	H	0.580556	1.300502	-0.628021
H221	H	0.579875	1.412064	-0.728665
H222	H	0.242702	1.671850	0.000046
O223	O	0.386074	1.592653	-0.707552
C224	C	0.306994	1.687415	-0.789702
H225	H	0.260255	1.671700	-0.752389
H226	H	0.289028	1.787515	-0.819642
C227	C	0.365418	1.696241	-0.935227
C228	C	0.308014	1.676932	-0.889401
H229	H	0.366047	1.689780	-0.996729
H230	H	0.418697	1.632402	-0.879882
H231	H	0.350440	1.779657	-0.960168
H232	H	0.322999	1.593512	-0.864448
H233	H	0.254738	1.740758	-0.944744
O234	O	0.216027	1.592468	-0.115584
C235	C	0.224130	1.529697	-0.167285
H236	H	0.287055	1.490256	-0.178907
H237	H	0.218356	1.446579	-0.112351
C238	C	0.078495	1.675130	-0.267994
C239	C	0.155778	1.626697	-0.282277
H240	H	0.036331	1.734960	-0.338925
H241	H	0.073035	1.717417	-0.233160
H242	H	0.073695	1.605854	-0.222212
H243	H	0.160581	1.695970	-0.328047
H244	H	0.161238	1.584423	-0.317122
O245	O	0.820274	0.401133	0.712012
C246	C	0.810969	0.306405	0.794066
H247	H	0.752633	0.322214	0.756660
H248	H	0.866753	0.206294	0.823992
C249	C	0.875903	0.297389	0.939743
C250	C	0.804250	0.316813	0.893803
H251	H	0.871762	0.303804	1.001269
H252	H	0.882175	0.361205	0.884463
H253	H	0.922382	0.213964	0.964673
H254	H	0.757773	0.400243	0.868862
H255	H	0.797970	0.253011	0.949082
O256	O	0.328611	0.877768	0.212102
C257	C	0.281851	0.942647	0.258544
H258	H	0.230733	1.047122	0.188345
H259	H	0.253398	0.892398	0.311020
C260	C	0.401045	0.811951	0.419437
C261	C	0.338266	0.940272	0.333217
H262	H	0.435844	0.810481	0.465503
H263	H	0.432548	0.768236	0.388151
H264	H	0.377324	0.770091	0.463155
H265	H	0.361987	0.982125	0.289494
H266	H	0.306768	0.983993	0.364499
H267	H	0.772524	0.905097	-0.393211
H268	H	1.089795	0.415924	0.690982
H269	H	0.702249	0.441465	0.511431
H270	H	0.356228	1.411400	-0.106273
H271	H	0.813567	0.592132	-0.103232
H272	H	0.196252	1.226435	-0.112951
H273	H	0.278705	0.774365	0.113088
H274	H	0.153571	1.113453	0.081926
H275	H	0.356258	1.411354	-0.304453
H276	H	0.702243	0.559456	0.393452
