data_functionalizedCrystal
_audit_creation_method	'MofGen! by Chris Wilmer'
_symmetry_space_group_name_H-M	'P1'
_symmetry_Int_Tables_number	1
_symmetry_cell_setting	triclinic
loop_
_symmetry_equiv_pos_as_xyz
  x,y,z
_cell_length_a	29.839135
_cell_length_b	29.839131
_cell_length_c	19.120904
_cell_angle_alpha	87.590850
_cell_angle_beta	87.580563
_cell_angle_gamma	90.043950
loop_
_atom_site_label
_atom_site_type_symbol
_atom_site_fract_x
_atom_site_fract_y
_atom_site_fract_z
Zn1	Zn	0.675899	-0.189671	0.397159
Zn2	Zn	0.925899	0.060329	0.647159
Zn3	Zn	1.175899	0.310329	0.897159
Zn4	Zn	1.425899	0.560329	1.147159
Zn5	Zn	0.679031	-0.261593	0.279706
Zn6	Zn	0.929031	-0.011593	0.529706
Zn7	Zn	1.179031	0.238407	0.779706
Zn8	Zn	1.429031	0.488407	1.029706
Zn9	Zn	0.603982	-0.186482	0.279719
Zn10	Zn	0.853982	0.063518	0.529719
Zn11	Zn	1.103982	0.313518	0.779719
Zn12	Zn	1.353982	0.563518	1.029719
Zn13	Zn	0.600731	-0.264776	0.397107
Zn14	Zn	0.850731	-0.014776	0.647107
Zn15	Zn	1.100731	0.235224	0.897107
Zn16	Zn	1.350731	0.485224	1.147107
O17	O	0.639911	-0.225631	0.338423
O18	O	0.889911	0.024369	0.588423
O19	O	1.139911	0.274369	0.838423
O20	O	1.389911	0.524369	1.088423
O21	O	0.739181	-0.199214	0.381595
O22	O	0.989181	0.050786	0.631595
O23	O	1.239181	0.300786	0.881595
O24	O	1.489181	0.550786	1.131595
O25	O	0.671747	-0.248963	0.181426
O26	O	0.921747	0.001037	0.431426
O27	O	1.171747	0.251037	0.681426
O28	O	1.421747	0.501037	0.931426
O29	O	0.613571	-0.124038	0.295325
O30	O	0.863571	0.125962	0.545325
O31	O	1.113571	0.375962	0.795325
O32	O	1.363571	0.625962	1.045325
O33	O	0.741482	-0.252055	0.295303
O34	O	0.991482	-0.002055	0.545303
O35	O	1.241482	0.247945	0.795303
O36	O	1.491482	0.497945	1.045303
O37	O	0.666409	-0.126381	0.381608
O38	O	0.916409	0.123619	0.631608
O39	O	1.166409	0.373619	0.881608
O40	O	1.416409	0.623619	1.131608
O41	O	0.616608	-0.193779	0.181435
O42	O	0.866608	0.056221	0.431435
O43	O	1.116608	0.306221	0.681435
O44	O	1.366608	0.556221	0.931435
O45	O	0.540684	-0.196865	0.295274
O46	O	0.790684	0.053135	0.545274
O47	O	1.040684	0.303135	0.795274
O48	O	1.290684	0.553135	1.045274
O49	O	0.608031	-0.257480	0.495396
O50	O	0.858031	-0.007480	0.745396
O51	O	1.108031	0.242520	0.995396
O52	O	1.358031	0.492520	1.245396
O53	O	0.538296	-0.254388	0.381519
O54	O	0.788296	-0.004388	0.631519
O55	O	1.038296	0.245612	0.881519
O56	O	1.288296	0.495612	1.131519
O57	O	0.663257	-0.202300	0.495434
O58	O	0.913257	0.047700	0.745434
O59	O	1.163257	0.297700	0.995434
O60	O	1.413257	0.547700	1.245434
O61	O	0.668595	-0.324882	0.295253
O62	O	0.918595	-0.074882	0.545253
O63	O	1.168595	0.175118	0.795253
O64	O	1.418595	0.425118	1.045253
O65	O	0.611068	-0.327221	0.381507
O66	O	0.861068	-0.077221	0.631507
O67	O	1.111068	0.172779	0.881507
O68	O	1.361068	0.422779	1.131507
C69	C	0.523189	-0.225626	0.338393
C70	C	0.773189	0.024374	0.588393
C71	C	1.023189	0.274374	0.838393
C72	C	1.273189	0.524374	1.088393
C73	C	0.473254	-0.225636	0.338397
C74	C	0.723254	0.024364	0.588397
C75	C	0.973254	0.274364	0.838397
C76	C	1.223254	0.524364	1.088397
C77	C	0.162407	-0.198162	0.383422
C78	C	0.412407	0.051838	0.633422
C79	C	0.662407	0.301838	0.883422
C80	C	0.912407	0.551838	1.133422
C81	C	-0.025266	-0.198165	0.383442
C82	C	0.224734	0.051835	0.633442
C83	C	0.474734	0.301835	0.883442
C84	C	0.724734	0.551835	1.133442
O85	O	-0.050554	-0.174794	0.421690
O86	O	0.199446	0.075206	0.671690
O87	O	0.449446	0.325206	0.921690
O88	O	0.699446	0.575206	1.171690
N89	N	-0.047532	-0.225632	0.338449
N90	N	0.202468	0.024368	0.588449
N91	N	0.452468	0.274368	0.838449
N92	N	0.702468	0.524368	1.088449
C93	C	-0.022876	-0.253097	0.293445
C94	C	0.227124	-0.003097	0.543445
C95	C	0.477124	0.246903	0.793445
C96	C	0.727124	0.496903	1.043445
O97	O	-0.046121	-0.276456	0.255171
O98	O	0.203879	-0.026456	0.505171
O99	O	0.453879	0.223544	0.755171
O100	O	0.703879	0.473544	1.005171
C101	C	0.164796	-0.253091	0.293422
C102	C	0.414796	-0.003091	0.543422
C103	C	0.664796	0.246909	0.793422
C104	C	0.914796	0.496909	1.043422
C105	C	0.187060	-0.225626	0.338422
C106	C	0.437060	0.024374	0.588422
C107	C	0.687060	0.274374	0.838422
C108	C	0.937060	0.524374	1.088422
C109	C	0.184671	-0.170698	0.428418
C110	C	0.434671	0.079302	0.678418
C111	C	0.684671	0.329302	0.928418
C112	C	0.934671	0.579302	1.178418
C113	C	0.231586	-0.170699	0.428415
C114	C	0.481586	0.079301	0.678415
C115	C	0.731586	0.329301	0.928415
C116	C	0.981586	0.579301	1.178415
C117	C	0.256238	-0.198164	0.383416
C118	C	0.506238	0.051836	0.633416
C119	C	0.756238	0.301836	0.883416
C120	C	1.006238	0.551836	1.133416
C121	C	0.233975	-0.225627	0.338420
C122	C	0.483975	0.024373	0.588420
C123	C	0.733975	0.274373	0.838420
C124	C	0.983975	0.524373	1.088420
C125	C	0.189451	-0.280554	0.248414
C126	C	0.439451	-0.030554	0.498414
C127	C	0.689451	0.219446	0.748414
C128	C	0.939451	0.469446	0.998414
C129	C	0.236372	-0.280549	0.248411
C130	C	0.486372	-0.030549	0.498411
C131	C	0.736372	0.219451	0.748411
C132	C	0.986372	0.469451	0.998411
C133	C	0.258636	-0.253084	0.293412
C134	C	0.508636	-0.003084	0.543412
C135	C	0.758636	0.246916	0.793412
C136	C	1.008636	0.496916	1.043412
C137	C	0.305543	-0.253093	0.293418
C138	C	0.555543	-0.003093	0.543418
C139	C	0.805543	0.246907	0.793418
C140	C	1.055543	0.496907	1.043418
N141	N	0.327809	-0.225626	0.338410
N142	N	0.577809	0.024374	0.588410
N143	N	0.827809	0.274374	0.838410
N144	N	1.077809	0.524374	1.088410
C145	C	0.303156	-0.198162	0.383410
C146	C	0.553156	0.051838	0.633410
C147	C	0.803156	0.301838	0.883410
C148	C	1.053156	0.551838	1.133410
C149	C	-0.121407	-0.253099	0.293461
C150	C	0.128593	-0.003099	0.543461
C151	C	0.378593	0.246901	0.793461
C152	C	0.628593	0.496901	1.043461
C153	C	-0.168325	-0.253102	0.293467
C154	C	0.081675	-0.003102	0.543467
C155	C	0.331675	0.246898	0.793467
C156	C	0.581675	0.496898	1.043467
C157	C	-0.170712	-0.198169	0.383464
C158	C	0.079288	0.051831	0.633464
C159	C	0.329288	0.301831	0.883464
C160	C	0.579288	0.551831	1.133464
C161	C	-0.123793	-0.198169	0.383460
C162	C	0.126207	0.051831	0.633460
C163	C	0.376207	0.301831	0.883460
C164	C	0.626207	0.551831	1.133460
C165	C	-0.099142	-0.225633	0.338454
C166	C	0.150858	0.024367	0.588454
C167	C	0.400858	0.274367	0.838454
C168	C	0.650858	0.524367	1.088454
C169	C	0.401682	-0.198166	0.383401
C170	C	0.651682	0.051834	0.633401
C171	C	0.901682	0.301834	0.883401
C172	C	1.151682	0.551834	1.133401
C173	C	0.448602	-0.198171	0.383396
C174	C	0.698602	0.051829	0.633396
C175	C	0.948602	0.301829	0.883396
C176	C	1.198602	0.551829	1.133396
C177	C	0.450985	-0.253102	0.293398
C178	C	0.700985	-0.003102	0.543398
C179	C	0.950985	0.246898	0.793398
C180	C	1.200985	0.496898	1.043398
C181	C	0.404069	-0.253099	0.293405
C182	C	0.654069	-0.003099	0.543405
C183	C	0.904069	0.246901	0.793405
C184	C	1.154069	0.496901	1.043405
C185	C	0.379419	-0.225628	0.338409
C186	C	0.629419	0.024372	0.588409
C187	C	0.879419	0.274372	0.838409
C188	C	1.129419	0.524372	1.088409
O189	O	0.330859	-0.276447	0.255184
O190	O	0.580859	-0.026447	0.505184
O191	O	0.830859	0.223553	0.755184
O192	O	1.080859	0.473553	1.005184
O193	O	0.326410	-0.174799	0.421667
O194	O	0.576410	0.075201	0.671667
O195	O	0.826410	0.325201	0.921667
O196	O	1.076410	0.575201	1.171667
C197	C	0.115492	-0.198160	0.383424
C198	C	0.365492	0.051840	0.633424
C199	C	0.615492	0.301840	0.883424
C200	C	0.865492	0.551840	1.133424
C201	C	0.093228	-0.225624	0.338428
C202	C	0.343228	0.024376	0.588428
C203	C	0.593228	0.274376	0.838428
C204	C	0.843228	0.524376	1.088428
C205	C	0.117881	-0.253088	0.293429
C206	C	0.367881	-0.003088	0.543429
C207	C	0.617881	0.246912	0.793429
C208	C	0.867881	0.496912	1.043429
C209	C	0.046310	-0.225626	0.338434
C210	C	0.296310	0.024374	0.588434
C211	C	0.546310	0.274374	0.838434
C212	C	0.796310	0.524374	1.088434
C213	C	0.021658	-0.198161	0.383434
C214	C	0.271658	0.051839	0.633434
C215	C	0.521658	0.301839	0.883434
C216	C	0.771658	0.551839	1.133434
C217	C	0.043924	-0.170695	0.428426
C218	C	0.293924	0.079305	0.678426
C219	C	0.543924	0.329305	0.928426
C220	C	0.793924	0.579305	1.178426
C221	C	0.090840	-0.170696	0.428424
C222	C	0.340840	0.079304	0.678424
C223	C	0.590840	0.329304	0.928424
C224	C	0.840840	0.579304	1.178424
C225	C	0.095615	-0.280555	0.248436
C226	C	0.345615	-0.030555	0.498436
C227	C	0.595615	0.219445	0.748436
C228	C	0.845615	0.469445	0.998436
C229	C	0.048699	-0.280552	0.248443
C230	C	0.298699	-0.030552	0.498443
C231	C	0.548699	0.219448	0.748443
C232	C	0.798699	0.469448	0.998443
C233	C	0.024047	-0.253087	0.293442
C234	C	0.274047	-0.003087	0.543442
C235	C	0.524047	0.246913	0.793442
C236	C	0.774047	0.496913	1.043442
C237	C	0.639831	-0.342352	0.338388
C238	C	0.889831	-0.092352	0.588388
C239	C	1.139831	0.157648	0.838388
C240	C	1.389831	0.407648	1.088388
C241	C	0.639837	-0.392287	0.338397
C242	C	0.889837	-0.142287	0.588397
C243	C	1.139837	0.107713	0.838397
C244	C	1.389837	0.357713	1.088397
C245	C	0.669915	-0.700702	0.293576
C246	C	0.919915	-0.450702	0.543576
C247	C	1.169915	-0.200702	0.793576
C248	C	1.419915	0.049298	1.043576
C249	C	0.669970	-0.888376	0.293603
C250	C	0.919970	-0.638376	0.543603
C251	C	1.169970	-0.388376	0.793603
C252	C	1.419970	-0.138376	1.043603
O253	O	0.695480	-0.911596	0.255468
O254	O	0.945480	-0.661596	0.505468
O255	O	1.195480	-0.411596	0.755468
O256	O	1.445480	-0.161596	1.005468
N257	N	0.640002	-0.913074	0.338476
N258	N	0.890002	-0.663074	0.588476
N259	N	1.140002	-0.413074	0.838476
N260	N	1.390002	-0.163074	1.088476
C261	C	0.610021	-0.890851	0.383348
C262	C	0.860021	-0.640851	0.633348
C263	C	1.110021	-0.390851	0.883348
C264	C	1.360021	-0.140851	1.133348
O265	O	0.584536	-0.916164	0.421521
O266	O	0.834536	-0.666164	0.671521
O267	O	1.084536	-0.416164	0.921521
O268	O	1.334536	-0.166164	1.171521
C269	C	0.609969	-0.703178	0.383324
C270	C	0.859969	-0.453178	0.633324
C271	C	1.109969	-0.203178	0.883324
C272	C	1.359969	0.046822	1.133324
C273	C	0.639935	-0.678482	0.338443
C274	C	0.889935	-0.428482	0.588443
C275	C	1.139935	-0.178482	0.838443
C276	C	1.389935	0.071518	1.088443
C277	C	0.699880	-0.676007	0.248700
C278	C	0.949880	-0.426007	0.498700
C279	C	1.199880	-0.176007	0.748700
C280	C	1.449880	0.073993	0.998700
C281	C	0.699864	-0.629091	0.248691
C282	C	0.949864	-0.379091	0.498691
C283	C	1.199864	-0.129091	0.748691
C284	C	1.449864	0.120909	0.998691
C285	C	0.669884	-0.606871	0.293558
C286	C	0.919884	-0.356871	0.543558
C287	C	1.169884	-0.106871	0.793558
C288	C	1.419884	0.143129	1.043558
C289	C	0.639920	-0.631567	0.338434
C290	C	0.889920	-0.381567	0.588434
C291	C	1.139920	-0.131567	0.838434
C292	C	1.389920	0.118433	1.088434
C293	C	0.579990	-0.680956	0.428199
C294	C	0.829990	-0.430956	0.678199
C295	C	1.079990	-0.180956	0.928199
C296	C	1.329990	0.069044	1.178199
C297	C	0.579980	-0.634034	0.428190
C298	C	0.829980	-0.384034	0.678190
C299	C	1.079980	-0.134034	0.928190
C300	C	1.329980	0.115966	1.178190
C301	C	0.609947	-0.609339	0.383310
C302	C	0.859947	-0.359339	0.633310
C303	C	1.109947	-0.109339	0.883310
C304	C	1.359947	0.140661	1.133310
C305	C	0.609924	-0.562431	0.383293
C306	C	0.859924	-0.312431	0.633293
C307	C	1.109924	-0.062431	0.883293
C308	C	1.359924	0.187569	1.133293
N309	N	0.639892	-0.537733	0.338420
N310	N	0.889892	-0.287733	0.588420
N311	N	1.139892	-0.037733	0.838420
N312	N	1.389892	0.212267	1.088420
C313	C	0.669872	-0.559953	0.293553
C314	C	0.919872	-0.309953	0.543553
C315	C	1.169872	-0.059953	0.793553
C316	C	1.419872	0.190047	1.043553
C317	C	0.610050	-0.989382	0.383357
C318	C	0.860050	-0.739382	0.633357
C319	C	1.110050	-0.489382	0.883357
C320	C	1.360050	-0.239382	1.133357
C321	C	0.610062	-1.036300	0.383362
C322	C	0.860062	-0.786300	0.633362
C323	C	1.110062	-0.536300	0.883362
C324	C	1.360062	-0.286300	1.133362
C325	C	0.670012	-1.033822	0.293618
C326	C	0.920012	-0.783822	0.543618
C327	C	1.170012	-0.533822	0.793618
C328	C	1.420012	-0.283822	1.043618
C329	C	0.669997	-0.986903	0.293610
C330	C	0.919997	-0.736903	0.543610
C331	C	1.169997	-0.486903	0.793610
C332	C	1.419997	-0.236903	1.043610
C333	C	0.640018	-0.964684	0.338484
C334	C	0.890018	-0.714684	0.588484
C335	C	1.140018	-0.464684	0.838484
C336	C	1.390018	-0.214684	1.088484
C337	C	0.669836	-0.461427	0.293537
C338	C	0.919836	-0.211427	0.543537
C339	C	1.169836	0.038573	0.793537
C340	C	1.419836	0.288573	1.043537
C341	C	0.669817	-0.414507	0.293530
C342	C	0.919817	-0.164507	0.543530
C343	C	1.169817	0.085493	0.793530
C344	C	1.419817	0.335493	1.043530
C345	C	0.609869	-0.416989	0.383276
C346	C	0.859869	-0.166989	0.633276
C347	C	1.109869	0.083011	0.883276
C348	C	1.359869	0.333011	1.133276
C349	C	0.609886	-0.463905	0.383281
C350	C	0.859886	-0.213905	0.633281
C351	C	1.109886	0.036095	0.883281
C352	C	1.359886	0.286095	1.133281
C353	C	0.639874	-0.486122	0.338409
C354	C	0.889874	-0.236122	0.588409
C355	C	1.139874	0.013878	0.838409
C356	C	1.389874	0.263878	1.088409
O357	O	0.584430	-0.539181	0.421413
O358	O	0.834430	-0.289181	0.671413
O359	O	1.084430	-0.039181	0.921413
O360	O	1.334430	0.210819	1.171413
O361	O	0.695360	-0.534632	0.255397
O362	O	0.945360	-0.284632	0.505397
O363	O	1.195360	-0.034632	0.755397
O364	O	1.445360	0.215368	1.005397
C365	C	0.669931	-0.747618	0.293585
C366	C	0.919931	-0.497618	0.543585
C367	C	1.169931	-0.247618	0.793585
C368	C	1.419931	0.002382	1.043585
C369	C	0.639967	-0.772314	0.338462
C370	C	0.889967	-0.522314	0.588462
C371	C	1.139967	-0.272314	0.838462
C372	C	1.389967	-0.022314	1.088462
C373	C	0.609986	-0.750094	0.383329
C374	C	0.859986	-0.500094	0.633329
C375	C	1.109986	-0.250094	0.883329
C376	C	1.359986	-0.000094	1.133329
C377	C	0.639979	-0.819232	0.338467
C378	C	0.889979	-0.569232	0.588467
C379	C	1.139979	-0.319232	0.838467
C380	C	1.389979	-0.069232	1.088467
C381	C	0.669959	-0.841452	0.293600
C382	C	0.919959	-0.591452	0.543600
C383	C	1.169959	-0.341452	0.793600
C384	C	1.419959	-0.091452	1.043600
C385	C	0.699927	-0.816754	0.248727
C386	C	0.949927	-0.566754	0.498727
C387	C	1.199927	-0.316754	0.748727
C388	C	1.449927	-0.066754	0.998727
C389	C	0.699911	-0.769838	0.248718
C390	C	0.949911	-0.519838	0.498718
C391	C	1.199911	-0.269838	0.748718
C392	C	1.449911	-0.019838	0.998718
C393	C	0.580019	-0.774791	0.428201
C394	C	0.830019	-0.524791	0.678201
C395	C	1.080019	-0.274791	0.928201
C396	C	1.330019	-0.024791	1.178201
C397	C	0.580037	-0.821707	0.428206
C398	C	0.830037	-0.571707	0.678206
C399	C	1.080037	-0.321707	0.928206
C400	C	1.330037	-0.071707	1.178206
C401	C	0.610017	-0.843927	0.383339
C402	C	0.860017	-0.593927	0.633339
C403	C	1.110017	-0.343927	0.883339
C404	C	1.360017	-0.093927	1.133339
C405	C	0.757088	-0.225635	0.338454
C406	C	1.007088	0.024365	0.588454
C407	C	1.257088	0.274365	0.838454
C408	C	1.507088	0.524365	1.088454
C409	C	0.807022	-0.225637	0.338467
C410	C	1.057022	0.024363	0.588467
C411	C	1.307022	0.274363	0.838467
C412	C	1.557022	0.524363	1.088467
C413	C	0.634932	-0.230601	0.521611
C414	C	0.884932	0.019399	0.771611
C415	C	1.134932	0.269399	1.021611
C416	C	1.384932	0.519399	1.271611
C417	C	0.632810	-0.232719	0.599675
C418	C	0.882810	0.017281	0.849675
C419	C	1.132810	0.267281	1.099675
C420	C	1.382810	0.517281	1.349675
C421	C	0.640003	-0.108454	0.338473
C422	C	0.890003	0.141546	0.588473
C423	C	1.140003	0.391546	0.838473
C424	C	1.390003	0.641546	1.088473
C425	C	0.640042	-0.058520	0.338495
C426	C	0.890042	0.191480	0.588495
C427	C	1.140042	0.441480	0.838495
C428	C	1.390042	0.691480	1.088495
C429	C	0.644896	-0.220647	0.155947
C430	C	0.894896	0.029353	0.405947
C431	C	1.144896	0.279353	0.655947
C432	C	1.394896	0.529353	0.905947
C433	C	0.647105	-0.218402	0.077884
C434	C	0.897105	0.031598	0.327884
C435	C	1.147105	0.281598	0.577884
C436	C	1.397105	0.531598	0.827884
C437	C	0.660565	-0.204986	0.636371
C438	C	0.910565	0.045014	0.886371
C439	C	1.160565	0.295014	1.136371
C440	C	1.410565	0.545014	1.386371
C441	C	0.658566	-0.206975	0.709720
C442	C	0.908566	0.043025	0.959720
C443	C	1.158566	0.293025	1.209720
C444	C	1.408566	0.543025	1.459720
C445	C	0.628814	-0.236699	0.746373
C446	C	0.878814	0.013301	0.996373
C447	C	1.128814	0.263301	1.246373
C448	C	1.378814	0.513301	1.496373
C449	C	0.601056	-0.264432	0.709672
C450	C	0.851056	-0.014432	0.959672
C451	C	1.101056	0.235568	1.209672
C452	C	1.351056	0.485568	1.459672
C453	C	0.603053	-0.262441	0.636324
C454	C	0.853053	-0.012441	0.886324
C455	C	1.103053	0.237559	1.136324
C456	C	1.353053	0.487559	1.386324
C457	C	0.621344	-0.244145	0.967835
C458	C	0.871344	0.005855	1.217835
C459	C	1.121344	0.255855	1.467835
C460	C	1.371344	0.505855	1.717835
C461	C	0.619350	-0.246135	1.041188
C462	C	0.869350	0.003865	1.291188
C463	C	1.119350	0.253865	1.541188
C464	C	1.369350	0.503865	1.791188
C465	C	0.676859	-0.188677	1.041232
C466	C	0.926859	0.061323	1.291232
C467	C	1.176859	0.311323	1.541232
C468	C	1.426859	0.561323	1.791232
C469	C	0.678856	-0.186690	0.967882
C470	C	0.928856	0.063310	1.217882
C471	C	1.178856	0.313310	1.467882
C472	C	1.428856	0.563310	1.717882
C473	C	0.651096	-0.214422	0.931188
C474	C	0.901096	0.035578	1.181188
C475	C	1.151096	0.285578	1.431188
C476	C	1.401096	0.535578	1.681188
C477	C	0.626771	-0.238733	0.821347
C478	C	0.876771	0.011267	1.071347
C479	C	1.126771	0.261267	1.321347
C480	C	1.376771	0.511267	1.571347
C481	C	0.653137	-0.212386	0.856214
C482	C	0.903137	0.037614	1.106214
C483	C	1.153137	0.287614	1.356214
C484	C	1.403137	0.537614	1.606214
H485	H	0.256442	-0.302913	0.211760
H486	H	0.506442	-0.052913	0.461760
H487	H	0.756442	0.197087	0.711760
H488	H	1.006442	0.447087	0.961760
Br489	Br	0.478814	-0.160897	0.444476
Br490	Br	0.728814	0.089103	0.694476
Br491	Br	0.978814	0.339103	0.944476
Br492	Br	1.228814	0.589103	1.194476
Br493	Br	0.539328	-0.744643	0.489101
Br494	Br	0.789328	-0.494643	0.739101
Br495	Br	1.039328	-0.244643	0.989101
Br496	Br	1.289328	0.005357	1.239101
H497	H	0.602549	-0.262936	0.851198
H498	H	0.852549	-0.012936	1.101198
H499	H	1.102549	0.237064	1.351198
H500	H	1.352549	0.487064	1.601198
Br501	Br	0.696256	-0.169357	0.759519
Br502	Br	0.946256	0.080643	1.009519
Br503	Br	1.196256	0.330643	1.259519
Br504	Br	1.446256	0.580643	1.509519
H505	H	0.381618	-0.175795	0.420045
H506	H	0.631618	0.074205	0.670045
H507	H	0.881618	0.324205	0.920045
H508	H	1.131618	0.574205	1.170045
Br509	Br	0.560676	-0.304770	0.759414
Br510	Br	0.810676	-0.054770	1.009414
Br511	Br	1.060676	0.195230	1.259414
Br512	Br	1.310676	0.445230	1.509414
Br513	Br	0.710488	-0.380994	0.232615
Br514	Br	0.960488	-0.130994	0.482615
Br515	Br	1.210488	0.119006	0.732615
Br516	Br	1.460488	0.369006	0.982615
H517	H	0.699459	-0.166098	1.071116
H518	H	0.949459	0.083902	1.321116
H519	H	1.199459	0.333902	1.571116
H520	H	1.449459	0.583902	1.821116
Br521	Br	0.539293	-0.603883	0.489098
Br522	Br	0.789293	-0.353883	0.739098
Br523	Br	1.039293	-0.103883	0.989098
Br524	Br	1.289293	0.146117	1.239098
Br525	Br	0.700948	-0.164648	0.586635
Br526	Br	0.950948	0.085352	0.836635
Br527	Br	1.200948	0.335352	1.086635
Br528	Br	1.450948	0.585352	1.336635
H529	H	0.598747	-0.266733	0.937968
H530	H	0.848747	-0.016733	1.187968
H531	H	1.098747	0.233267	1.437968
H532	H	1.348747	0.483267	1.687968
Br533	Br	0.710698	-1.063986	0.232724
Br534	Br	0.960698	-0.813986	0.482724
Br535	Br	1.210698	-0.563986	0.732724
Br536	Br	1.460698	-0.313986	0.982724
Br537	Br	0.373853	-0.290389	0.232356
Br538	Br	0.623853	-0.040389	0.482356
Br539	Br	0.873853	0.209611	0.732356
Br540	Br	1.123853	0.459611	0.982356
H541	H	0.595121	-0.270341	1.071029
H542	H	0.845121	-0.020341	1.321029
H543	H	1.095121	0.229659	1.571029
H544	H	1.345121	0.479659	1.821029
Br545	Br	0.569385	-1.069809	0.444263
Br546	Br	0.819385	-0.819809	0.694263
Br547	Br	1.069385	-0.569809	0.944263
Br548	Br	1.319385	-0.319809	1.194263
Br549	Br	-0.198534	-0.290383	0.232401
Br550	Br	0.051466	-0.040383	0.482401
Br551	Br	0.301466	0.209617	0.732401
Br552	Br	0.551466	0.459617	0.982401
Br553	Br	0.710667	-0.953392	0.232698
Br554	Br	0.960667	-0.703392	0.482698
Br555	Br	1.210667	-0.453392	0.732698
Br556	Br	1.460667	-0.203392	0.982698
Br557	Br	-0.087958	-0.290370	0.232366
Br558	Br	0.162042	-0.040370	0.482366
Br559	Br	0.412042	0.209630	0.732366
Br560	Br	0.662042	0.459630	0.982366
Br561	Br	0.719236	-0.146351	0.918144
Br562	Br	0.969236	0.103649	1.168144
Br563	Br	1.219236	0.353649	1.418144
Br564	Br	1.469236	0.603649	1.668144
Br565	Br	0.261793	-0.133422	0.489490
Br566	Br	0.511793	0.116578	0.739490
Br567	Br	0.761793	0.366578	0.989490
Br568	Br	1.011793	0.616578	1.239490
H569	H	0.030577	-0.302921	0.211799
H570	H	0.280577	-0.052921	0.461799
H571	H	0.530577	0.197079	0.711799
H572	H	0.780577	0.447079	0.961799
H573	H	0.585487	-0.484013	0.419828
H574	H	0.835487	-0.234013	0.669828
H575	H	1.085487	0.015987	0.919828
H576	H	1.335487	0.265987	1.169828
H577	H	0.164604	-0.148331	0.465062
H578	H	0.414604	0.101669	0.715062
H579	H	0.664604	0.351669	0.965062
H580	H	0.914604	0.601669	1.215062
Br581	Br	0.159249	-0.317821	0.187324
Br582	Br	0.409249	-0.067821	0.437324
Br583	Br	0.659249	0.182179	0.687324
Br584	Br	0.909249	0.432179	0.937324
Br585	Br	-0.093584	-0.160894	0.444534
Br586	Br	0.156416	0.089106	0.694534
Br587	Br	0.406416	0.339106	0.944534
Br588	Br	0.656416	0.589106	1.194534
H589	H	0.585458	-0.398890	0.419804
H590	H	0.835458	-0.148890	0.669804
H591	H	1.085458	0.101110	0.919804
H592	H	1.335458	0.351110	1.169804
Br593	Br	0.010458	-0.133425	0.489500
Br594	Br	0.260458	0.116575	0.739500
Br595	Br	0.510458	0.366575	0.989500
Br596	Br	0.760458	0.616575	1.239500
H597	H	0.580448	-0.285020	0.606447
H598	H	0.830448	-0.035020	0.856447
H599	H	1.080448	0.214980	1.106447
H600	H	1.330448	0.464980	1.356447
H601	H	0.471065	-0.275464	0.256762
H602	H	0.721065	-0.025464	0.506762
H603	H	0.971065	0.224536	0.756762
H604	H	1.221065	0.474536	1.006762
H605	H	-0.190792	-0.175806	0.420104
H606	H	0.059208	0.074194	0.670104
H607	H	0.309208	0.324194	0.920104
H608	H	0.559208	0.574194	1.170104
H609	H	0.108962	-0.148331	0.465067
H610	H	0.358962	0.101669	0.715067
H611	H	0.608962	0.351669	0.965067
H612	H	0.858962	0.601669	1.215067
H613	H	0.677359	-0.188183	0.826369
H614	H	0.927359	0.061817	1.076369
H615	H	1.177359	0.311817	1.326369
H616	H	1.427359	0.561817	1.576369
H617	H	0.115682	-0.302919	0.211790
H618	H	0.365682	-0.052919	0.461790
H619	H	0.615682	0.197081	0.711790
H620	H	0.865682	0.447081	0.961790
H621	H	0.724313	-0.749734	0.212172
H622	H	0.974313	-0.499734	0.462172
H623	H	1.224313	-0.249734	0.712172
H624	H	1.474313	0.000266	0.962172
Br625	Br	0.710534	-0.491572	0.232639
Br626	Br	0.960534	-0.241572	0.482639
Br627	Br	1.210534	0.008428	0.732639
Br628	Br	1.460534	0.258428	0.982639
H629	H	0.724267	-0.608987	0.212147
H630	H	0.974267	-0.358987	0.462147
H631	H	1.224267	-0.108987	0.712147
H632	H	1.474267	0.141013	0.962147
Br633	Br	0.740574	-0.706154	0.187802
Br634	Br	0.990574	-0.456154	0.437802
Br635	Br	1.240574	-0.206154	0.687802
Br636	Br	1.490574	0.043846	0.937802
H637	H	0.724336	-0.834854	0.212192
H638	H	0.974336	-0.584854	0.462192
H639	H	1.224336	-0.334854	0.712192
H640	H	1.474336	-0.084854	0.962192
H641	H	0.585636	-0.971294	0.419900
H642	H	0.835636	-0.721294	0.669900
H643	H	1.085636	-0.471294	0.919900
H644	H	1.335636	-0.221294	1.169900
H645	H	0.555586	-0.701055	0.464743
H646	H	0.805586	-0.451055	0.714743
H647	H	1.055586	-0.201055	0.964743
H648	H	1.305586	0.048945	1.214743
H649	H	0.555630	-0.841810	0.464753
H650	H	0.805630	-0.591810	0.714753
H651	H	1.055630	-0.341810	0.964753
H652	H	1.305630	-0.091810	1.214753
