data_functionalizedCrystal
_audit_creation_method	'MofGen! by Chris Wilmer'
_symmetry_space_group_name_H-M	'P1'
_symmetry_Int_Tables_number	1
_symmetry_cell_setting	triclinic
loop_
_symmetry_equiv_pos_as_xyz
  x,y,z
_cell_length_a	12.759401
_cell_length_b	12.594516
_cell_length_c	12.759393
_cell_angle_alpha	89.970876
_cell_angle_beta	89.981504
_cell_angle_gamma	90.016214
loop_
_atom_site_label
_atom_site_type_symbol
_atom_site_fract_x
_atom_site_fract_y
_atom_site_fract_z
Zn1	Zn	1.606246	-0.423675	-0.593999
Zn2	Zn	1.606136	-0.601694	-0.418327
Zn3	Zn	1.430547	-0.423730	-0.418339
Zn4	Zn	1.430532	-0.601612	-0.593968
O5	O	1.518365	-0.512678	-0.506158
O6	O	1.753252	-0.447300	-0.570704
O7	O	1.582804	-0.578144	-0.271307
O8	O	1.453907	-0.274777	-0.441658
O9	O	1.753171	-0.578090	-0.441638
O10	O	1.582991	-0.274736	-0.570715
O11	O	1.453800	-0.447395	-0.271316
O12	O	1.283524	-0.447316	-0.441628
O13	O	1.453880	-0.577951	-0.740993
O14	O	1.283513	-0.578005	-0.570663
O15	O	1.582976	-0.447221	-0.741016
O16	O	1.582789	-0.750629	-0.441608
O17	O	1.453774	-0.750569	-0.570651
C18	C	1.245398	-0.512658	-0.506144
C19	C	1.128621	-0.512676	-0.506163
C20	C	1.073781	-0.580834	-0.573240
C21	C	0.964057	-0.580848	-0.573251
C22	C	0.964023	-0.444541	-0.439099
C23	C	1.073745	-0.444523	-0.439094
C24	C	1.073799	-0.659533	-0.650688
C25	C	0.964075	-0.659547	-0.650700
C26	C	1.518296	-0.789219	-0.506148
C27	C	1.518363	-0.907524	-0.506179
C28	C	1.448185	-0.976783	-0.576316
C29	C	1.422585	-1.047654	-0.480449
C30	C	1.544058	-1.047453	-0.602062
C31	C	1.492713	-0.976836	-0.410261
C32	C	1.614230	-0.976629	-0.531938
C33	C	1.588667	-1.047468	-0.436006
C34	C	1.792398	-0.512698	-0.506173
C35	C	1.909175	-0.512707	-0.506179
C36	C	1.518439	-0.512570	-0.780192
C37	C	1.518470	-0.512525	-0.896968
C38	C	1.518463	-0.235057	-0.506192
C39	C	1.518505	-0.116752	-0.506206
C40	C	1.585700	-0.444447	-0.951844
C41	C	1.585725	-0.444409	-1.061568
C42	C	1.451288	-0.580534	-1.061531
C43	C	1.451258	-0.580567	-0.951809
C44	C	1.663319	-0.365859	-0.951866
C45	C	1.663344	-0.365821	-1.061590
C46	C	1.518352	-0.512708	-0.233191
C47	C	1.518525	-0.512454	-0.116415
H48	H	1.118392	-0.389014	-0.384480
H49	H	1.107811	-0.737797	-0.621407
O50	O	1.570050	-1.084586	-0.698701
C51	C	1.662125	-1.146033	-0.691562
H52	H	1.671499	-1.176598	-0.607978
H53	H	1.656606	-1.216169	-0.747738
H54	H	1.732722	-1.095022	-0.713199
H55	H	1.396564	-0.635930	-1.106196
O56	O	1.385902	-0.646781	-0.898665
C57	C	1.326566	-0.706802	-0.970601
H58	H	1.369624	-0.710487	-1.048812
H59	H	1.315292	-0.790666	-0.938875
H60	H	1.246803	-0.667791	-0.982283
H61	H	1.641552	-0.283430	-0.922107
H62	H	1.740590	-0.395410	-0.917831
H63	H	0.934278	-0.741961	-0.628771
H64	H	0.930078	-0.630122	-0.728050
H65	H	1.634232	-0.287500	-1.095635
O66	O	1.760379	-0.392349	-1.097082
C67	C	1.787150	-0.494317	-1.060136
H68	H	1.712679	-0.540291	-1.040620
H69	H	1.832966	-0.538515	-1.123210
H70	H	1.837454	-0.486601	-0.986706
H71	H	1.388731	-0.945746	-0.635542
O72	O	1.325878	-1.084826	-0.454633
C73	C	1.252045	-1.048798	-0.528743
H74	H	1.293770	-1.028844	-0.605278
H75	H	1.191432	-1.113619	-0.543427
H76	H	1.211230	-0.974800	-0.497452
H77	H	1.103608	-0.637550	-0.732094
O78	O	0.910552	-0.378450	-0.373977
C79	C	0.801948	-0.393060	-0.388383
H80	H	0.786965	-0.475242	-0.422662
H81	H	0.760220	-0.385758	-0.309701
H82	H	0.770840	-0.329994	-0.444434
O83	O	1.466709	-0.939815	-0.313584
C84	C	1.466929	-0.827872	-0.314742
H85	H	1.455180	-0.798528	-0.398450
H86	H	1.400662	-0.797059	-0.263111
H87	H	1.545122	-0.797509	-0.283601
H88	H	1.695219	-0.945412	-0.553750
O89	O	1.659422	-1.084221	-0.365041
C90	C	1.632032	-1.048024	-0.264138
H91	H	1.544853	-1.028349	-0.262062
H92	H	1.649741	-1.112635	-0.204102
H93	H	1.679351	-0.973822	-0.244657
