data_functionalizedCrystal
_audit_creation_method	'MofGen! by Chris Wilmer'
_symmetry_space_group_name_H-M	'P1'
_symmetry_Int_Tables_number	1
_symmetry_cell_setting	triclinic
loop_
_symmetry_equiv_pos_as_xyz
  x,y,z
_cell_length_a	12.594516
_cell_length_b	12.759401
_cell_length_c	12.759401
_cell_angle_alpha	89.994097
_cell_angle_beta	90.004178
_cell_angle_gamma	89.985739
loop_
_atom_site_label
_atom_site_type_symbol
_atom_site_fract_x
_atom_site_fract_y
_atom_site_fract_z
Zn1	Zn	-0.423992	-1.606104	0.594027
Zn2	Zn	-0.601934	-1.606036	0.418355
Zn3	Zn	-0.423964	-1.430448	0.418363
Zn4	Zn	-0.601924	-1.430391	0.593993
O5	O	-0.512954	-1.518245	0.506185
O6	O	-0.447613	-1.753116	0.570734
O7	O	-0.578319	-1.582740	0.271335
O8	O	-0.275022	-1.453802	0.441684
O9	O	-0.578346	-1.753066	0.441669
O10	O	-0.275043	-1.582856	0.570743
O11	O	-0.447565	-1.453736	0.271341
O12	O	-0.447555	-1.283419	0.441651
O13	O	-0.578328	-1.453704	0.741019
O14	O	-0.578301	-1.283377	0.570685
O15	O	-0.447602	-1.582800	0.741044
O16	O	-0.750878	-1.582684	0.441636
O17	O	-0.750871	-1.453638	0.570676
C18	C	-0.512925	-1.245278	0.506165
C19	C	-0.512938	-1.128501	0.506182
C20	C	-0.444986	-1.073666	0.573490
C21	C	-0.444993	-0.963942	0.573495
C22	C	-0.580912	-0.963898	0.438883
C23	C	-0.580899	-1.073620	0.438873
C24	C	-0.789495	-1.518176	0.506174
C25	C	-0.907800	-1.518243	0.506205
C26	C	-0.977088	-1.448048	0.576341
C27	C	-1.047915	-1.422471	0.480474
C28	C	-1.047772	-1.543915	0.602088
C29	C	-0.977069	-1.492615	0.410287
C30	C	-0.976920	-1.614104	0.531966
C31	C	-1.047715	-1.588564	0.436033
C32	C	-0.235333	-1.518343	0.506218
C33	C	-0.117027	-1.518384	0.506232
C34	C	-0.512967	-1.518253	0.780218
C35	C	-0.512973	-1.518257	0.896994
C36	C	-0.512974	-0.792278	0.506200
C37	C	-0.512957	-0.909055	0.506197
C38	C	-0.581045	-1.585416	1.061589
C39	C	-0.581050	-1.585418	0.951864
C40	C	-0.444894	-1.451083	0.951854
C41	C	-0.444895	-1.451076	1.061576
C42	C	-0.512967	-1.518235	1.233217
C43	C	-0.512969	-1.518249	1.116441
H44	H	-1.079123	-1.341469	0.458707
H45	H	-1.078532	-1.647986	0.376665
C46	C	-0.370222	-1.134036	0.647519
C47	C	-0.295472	-1.073713	0.721551
C48	C	-0.220703	-1.134080	0.795580
C49	C	-0.220685	-1.254770	0.795578
C50	C	-0.295438	-1.315100	0.721543
C51	C	-0.370207	-1.254733	0.647514
H52	H	-0.295483	-0.984365	0.721556
H53	H	-0.165366	-1.089419	0.850386
H54	H	-0.165337	-1.299457	0.850379
H55	H	-0.295427	-1.404448	0.721539
H56	H	-0.425544	-1.299394	0.592709
H57	H	-0.636245	-0.919200	0.384083
C58	C	-0.370247	-0.903625	0.647540
C59	C	-0.379138	-0.918733	0.766959
C60	C	-0.304388	-0.858419	0.841007
C61	C	-0.220747	-0.782997	0.795636
C62	C	-0.211854	-0.767885	0.676210
C63	C	-0.286604	-0.828200	0.602162
H64	H	-0.441056	-0.974568	0.800551
H65	H	-0.310972	-0.869606	0.929414
H66	H	-0.165413	-0.738348	0.850450
H67	H	-0.149935	-0.712050	0.642618
H68	H	-0.280019	-0.817013	0.513755
C69	C	-0.655653	-1.133947	0.364832
C70	C	-0.730419	-1.073585	0.290804
C71	C	-0.805166	-1.133913	0.216764
C72	C	-0.805148	-1.254603	0.216752
C73	C	-0.730380	-1.314972	0.290783
C74	C	-0.655632	-1.254644	0.364823
H75	H	-0.730435	-0.984237	0.290811
H76	H	-0.860514	-1.089224	0.161962
H77	H	-0.860480	-1.299262	0.161944
H78	H	-0.730364	-1.404320	0.290777
H79	H	-0.600284	-1.299334	0.419625
C80	C	-0.935178	-1.367718	0.656349
C81	C	-0.964656	-1.378239	0.773004
C82	C	-0.922744	-1.297908	0.853006
C83	C	-0.851356	-1.207054	0.816353
C84	C	-0.821875	-1.196529	0.699692
C85	C	-0.863786	-1.276861	0.619690
H86	H	-1.017505	-1.445498	0.800143
H87	H	-0.944568	-1.305700	0.939366
H88	H	-0.820331	-1.147588	0.875574
H89	H	-0.769026	-1.129271	0.672554
H90	H	-0.841962	-1.269069	0.533330
C91	C	-0.655935	-1.659291	1.121943
C92	C	-0.776933	-1.650662	1.106846
C93	C	-0.851829	-1.724534	1.167198
C94	C	-0.805728	-1.807035	1.242648
C95	C	-0.684724	-1.815667	1.257748
C96	C	-0.609828	-1.741795	1.197396
H97	H	-0.811065	-1.589587	1.050991
H98	H	-0.941405	-1.718143	1.156020
H99	H	-0.861171	-1.861719	1.287324
H100	H	-0.650592	-1.876742	1.313603
H101	H	-0.520252	-1.748186	1.208574
C102	C	-0.935298	-1.463239	0.300723
C103	C	-0.814895	-1.457696	0.280473
C104	C	-0.773123	-1.428322	0.170911
C105	C	-0.851753	-1.404491	0.081600
C106	C	-0.972163	-1.410033	0.101847
C107	C	-1.013936	-1.439407	0.211409
H108	H	-0.756682	-1.475338	0.346589
H109	H	-0.683987	-1.424220	0.155923
H110	H	-0.820830	-1.382746	0.000496
H111	H	-1.030377	-1.392390	0.035731
H112	H	-1.103072	-1.443509	0.226397
H113	H	-0.945715	-1.695088	0.553779
C114	C	-0.370005	-1.377189	1.121923
C115	C	-0.286454	-1.422741	1.197375
C116	C	-0.211572	-1.348854	1.257723
C117	C	-0.220243	-1.229415	1.242619
C118	C	-0.303798	-1.183857	1.167165
C119	C	-0.378679	-1.257744	1.106817
H120	H	-0.280032	-1.511162	1.208558
H121	H	-0.149719	-1.382580	1.313579
H122	H	-0.164811	-1.174720	1.287293
H123	H	-0.310220	-1.095436	1.155981
H124	H	-0.440533	-1.224018	1.050960
H125	H	-0.636484	-1.640112	0.907209
H126	H	-1.078828	-1.565572	0.683165
H127	H	-0.389469	-1.396394	0.907170
