data_functionalizedCrystal
_audit_creation_method	'MofGen! by Chris Wilmer'
_symmetry_space_group_name_H-M	'P1'
_symmetry_Int_Tables_number	1
_symmetry_cell_setting	triclinic
loop_
_symmetry_equiv_pos_as_xyz
  x,y,z
_cell_length_a	29.839134
_cell_length_b	29.839132
_cell_length_c	29.839126
_cell_angle_alpha	89.973634
_cell_angle_beta	90.029638
_cell_angle_gamma	89.959876
loop_
_atom_site_label
_atom_site_type_symbol
_atom_site_fract_x
_atom_site_fract_y
_atom_site_fract_z
Zn1	Zn	0.686742	0.178949	0.254118
Zn2	Zn	1.186742	0.678949	0.754118
Zn3	Zn	0.686659	0.254070	0.178985
Zn4	Zn	1.186659	0.754070	0.678985
Zn5	Zn	0.611614	0.178948	0.178988
Zn6	Zn	1.111614	0.678948	0.678988
Zn7	Zn	0.611567	0.254046	0.254074
Zn8	Zn	1.111567	0.754046	0.754074
O9	O	0.649145	0.216503	0.216541
O10	O	1.149145	0.716503	0.716541
O11	O	0.749598	0.188925	0.244169
O12	O	1.249598	0.688925	0.744169
O13	O	0.676689	0.244114	0.116118
O14	O	1.176689	0.744114	0.616118
O15	O	0.621635	0.116081	0.188974
O16	O	1.121635	0.616081	0.688974
O17	O	0.749537	0.244115	0.188969
O18	O	1.249537	0.744115	0.688969
O19	O	0.676830	0.116082	0.244172
O20	O	1.176830	0.616082	0.744172
O21	O	0.621554	0.188922	0.116120
O22	O	1.121554	0.688922	0.616120
O23	O	0.548741	0.188899	0.188930
O24	O	1.048741	0.688899	0.688930
O25	O	0.621554	0.244075	0.316947
O26	O	1.121554	0.744075	0.816947
O27	O	0.548706	0.244074	0.244096
O28	O	1.048706	0.744074	0.744096
O29	O	0.676784	0.188902	0.316979
O30	O	1.176784	0.688902	0.816979
O31	O	0.676643	0.316934	0.188926
O32	O	1.176643	0.816934	0.688926
O33	O	0.621474	0.316917	0.244093
O34	O	1.121474	0.816917	0.744093
C35	C	0.532423	0.216484	0.216509
C36	C	1.032423	0.716484	0.716509
C37	C	0.482488	0.216487	0.216506
C38	C	0.982488	0.716487	0.716506
C39	C	0.172836	0.245275	0.245230
C40	C	0.672836	0.745275	0.745230
C41	C	-0.014837	0.245288	0.245250
C42	C	0.485163	0.745288	0.745250
O43	O	-0.039109	0.269743	0.269654
O44	O	0.460891	0.769743	0.769654
N45	N	-0.038297	0.216520	0.216575
N46	N	0.461703	0.716520	0.716575
C47	C	-0.014836	0.187744	0.187894
C48	C	0.485164	0.687744	0.687894
O49	O	-0.039096	0.163273	0.163508
O50	O	0.460904	0.663273	0.663508
C51	C	0.172837	0.187730	0.187877
C52	C	0.672837	0.687730	0.687877
C53	C	0.196294	0.216503	0.216551
C54	C	0.696294	0.716503	0.716551
C55	C	0.196294	0.274046	0.273903
C56	C	0.696294	0.774046	0.773903
C57	C	0.243209	0.274044	0.273896
C58	C	0.743209	0.774044	0.773896
C59	C	0.266667	0.245272	0.245216
C60	C	0.766667	0.745272	0.745216
C61	C	0.243210	0.216501	0.216544
C62	C	0.743210	0.716501	0.716544
C63	C	0.196297	0.158953	0.159199
C64	C	0.696297	0.658953	0.659199
C65	C	0.243218	0.158951	0.159198
C66	C	0.743218	0.658951	0.659198
C67	C	0.266676	0.187724	0.187872
C68	C	0.766676	0.687724	0.687872
C69	C	0.313583	0.187727	0.187858
C70	C	0.813583	0.687727	0.687858
N71	N	0.337043	0.216495	0.216534
N72	N	0.837043	0.716495	0.716534
C73	C	0.313585	0.245268	0.245213
C74	C	0.813585	0.745268	0.745213
C75	C	-0.113366	0.187755	0.187905
C76	C	0.386634	0.687755	0.687905
C77	C	-0.160284	0.187759	0.187909
C78	C	0.339716	0.687759	0.687909
C79	C	-0.160282	0.245302	0.245265
C80	C	0.339718	0.745302	0.745265
C81	C	-0.113363	0.245300	0.245259
C82	C	0.386637	0.745300	0.745259
C83	C	-0.089906	0.216523	0.216581
C84	C	0.410094	0.716523	0.716581
C85	C	0.412111	0.245262	0.245196
C86	C	0.912111	0.745262	0.745196
C87	C	0.459031	0.245259	0.245185
C88	C	0.959031	0.745259	0.745185
C89	C	0.459024	0.187715	0.187830
C90	C	0.959024	0.687715	0.687830
C91	C	0.412109	0.187719	0.187839
C92	C	0.912109	0.687719	0.687839
C93	C	0.388653	0.216494	0.216525
C94	C	0.888653	0.716494	0.716525
O95	O	0.337884	0.163281	0.163471
O96	O	0.837884	0.663281	0.663471
O97	O	0.337854	0.269729	0.269603
O98	O	0.837854	0.769729	0.769603
C99	C	0.125921	0.245277	0.245237
C100	C	0.625921	0.745277	0.745237
C101	C	0.102463	0.216506	0.216565
C102	C	0.602463	0.716506	0.716565
C103	C	0.125921	0.187734	0.187886
C104	C	0.625921	0.687734	0.687886
C105	C	0.055545	0.216511	0.216569
C106	C	0.555545	0.716511	0.716569
C107	C	0.032088	0.245283	0.245248
C108	C	0.532088	0.745283	0.745248
C109	C	0.055548	0.274051	0.273924
C110	C	0.555548	0.774051	0.773924
C111	C	0.102463	0.274049	0.273917
C112	C	0.602463	0.774049	0.773917
C113	C	0.102461	0.158966	0.159211
C114	C	0.602461	0.658966	0.659211
C115	C	0.055546	0.158971	0.159220
C116	C	0.555546	0.658971	0.659220
C117	C	0.032088	0.187743	0.187899
C118	C	0.532088	0.687743	0.687899
C119	C	0.649056	0.333226	0.216514
C120	C	1.149056	0.833226	0.716514
C121	C	0.649059	0.383160	0.216518
C122	C	1.149059	0.883160	0.716518
C123	C	0.677892	0.692800	0.187839
C124	C	1.177892	1.192800	0.687839
C125	C	0.677935	0.880473	0.187849
C126	C	1.177935	1.380473	0.687849
O127	O	0.702402	0.904735	0.163458
O128	O	1.202402	1.404735	0.663458
N129	N	0.649192	0.903945	0.216548
N130	N	1.149192	1.403945	0.716548
C131	C	0.620439	0.880497	0.245249
C132	C	1.120439	1.380497	0.745249
O133	O	0.595996	0.904767	0.269663
O134	O	1.095996	1.404767	0.769663
C135	C	0.620399	0.692824	0.245241
C136	C	1.120399	1.192824	0.745241
C137	C	0.649140	0.669354	0.216537
C138	C	1.149140	1.169354	0.716537
C139	C	0.706632	0.669330	0.159138
C140	C	1.206632	1.169330	0.659138
C141	C	0.706619	0.622415	0.159134
C142	C	1.206619	1.122415	0.659134
C143	C	0.677867	0.598969	0.187831
C144	C	1.177867	1.098969	0.687831
C145	C	0.649127	0.622439	0.216533
C146	C	1.149127	1.122439	0.716533
C147	C	0.591648	0.669376	0.273943
C148	C	1.091648	1.169376	0.773943
C149	C	0.591641	0.622455	0.273940
C150	C	1.091641	1.122455	0.773940
C151	C	0.620383	0.598985	0.245235
C152	C	1.120383	1.098985	0.745235
C153	C	0.620362	0.552078	0.245226
C154	C	1.120362	1.052078	0.745226
N155	N	0.649105	0.528606	0.216527
N156	N	1.149105	1.028606	0.716527
C157	C	0.677858	0.552051	0.187830
C158	C	1.177858	1.052051	0.687830
C159	C	0.620461	0.979027	0.245251
C160	C	1.120461	1.479027	0.745251
C161	C	0.620471	1.025945	0.245252
C162	C	1.120471	1.525945	0.745252
C163	C	0.677968	1.025918	0.187853
C164	C	1.177968	1.525918	0.687853
C165	C	0.677956	0.979000	0.187850
C166	C	1.177956	1.479000	0.687850
C167	C	0.649204	0.955555	0.216552
C168	C	1.149204	1.455555	0.716552
C169	C	0.677828	0.453525	0.187823
C170	C	1.177828	0.953525	0.687823
C171	C	0.677812	0.406606	0.187820
C172	C	1.177812	0.906606	0.687820
C173	C	0.620317	0.406637	0.245221
C174	C	1.120317	0.906637	0.745221
C175	C	0.620331	0.453552	0.245222
C176	C	1.120331	0.953552	0.745222
C177	C	0.649091	0.476995	0.216522
C178	C	1.149091	0.976995	0.716522
O179	O	0.595912	0.527787	0.269609
O180	O	1.095912	1.027787	0.769609
O181	O	0.702304	0.527772	0.163426
O182	O	1.202304	1.027772	0.663426
C183	C	0.677905	0.739716	0.187843
C184	C	1.177905	1.239716	0.687843
C185	C	0.649166	0.763185	0.216545
C186	C	1.149166	1.263185	0.716545
C187	C	0.620413	0.739740	0.245242
C188	C	1.120413	1.239740	0.745242
C189	C	0.649175	0.810103	0.216546
C190	C	1.149175	1.310103	0.716546
C191	C	0.677927	0.833549	0.187849
C192	C	1.177927	1.333549	0.687849
C193	C	0.706670	0.810077	0.159150
C194	C	1.206670	1.310077	0.659150
C195	C	0.706657	0.763161	0.159146
C196	C	1.206657	1.263161	0.659146
C197	C	0.591671	0.763212	0.273941
C198	C	1.091671	1.263212	0.773941
C199	C	0.591685	0.810128	0.273942
C200	C	1.091685	1.310128	0.773942
C201	C	0.620437	0.833573	0.245245
C202	C	1.120437	1.333573	0.745245
C203	C	0.766324	0.216523	0.216574
C204	C	1.266324	0.716523	0.716574
C205	C	0.816258	0.216531	0.216588
C206	C	1.316258	0.716531	0.716588
C207	C	0.649230	1.099325	0.216568
C208	C	1.149230	1.599325	0.716568
C209	C	0.649223	1.049391	0.216555
C210	C	1.149223	1.549391	0.716555
C211	C	0.649173	0.216486	0.333720
C212	C	1.149173	0.716486	0.833720
C213	C	0.649185	0.216479	0.383654
C214	C	1.149185	0.716479	0.883654
C215	C	0.649144	0.216488	0.099819
C216	C	1.149144	0.716488	0.599819
C217	C	0.649219	0.216369	0.049884
C218	C	1.149219	0.716369	0.549884
C219	C	0.620485	0.187695	0.693301
C220	C	1.120485	0.687695	1.193301
C221	C	0.620498	0.187664	0.880974
C222	C	1.120498	0.687664	1.380974
O223	O	0.596074	0.163236	0.905243
O224	O	1.096074	0.663236	1.405243
N225	N	0.649206	0.216394	0.904439
N226	N	1.149206	0.716394	1.404439
C227	C	0.677911	0.245137	0.880983
C228	C	1.177911	0.745137	1.380983
O229	O	0.702327	0.269576	0.905247
O230	O	1.202327	0.769576	1.405247
C231	C	0.677896	0.245170	0.693311
C232	C	1.177896	0.745170	1.193311
C233	C	0.649189	0.216434	0.669848
C234	C	1.149189	0.716434	1.169848
C235	C	0.591780	0.158963	0.669839
C236	C	1.091780	0.658963	1.169839
C237	C	0.591779	0.158969	0.622923
C238	C	1.091779	0.658969	1.122923
C239	C	0.620483	0.187708	0.599470
C240	C	1.120483	0.687708	1.099470
C241	C	0.649188	0.216441	0.622933
C242	C	1.149188	0.716441	1.122933
C243	C	0.706599	0.273914	0.669855
C244	C	1.206599	0.773914	1.169855
C245	C	0.706591	0.273920	0.622934
C246	C	1.206591	0.773920	1.122934
C247	C	0.677884	0.245185	0.599472
C248	C	1.177884	0.745185	1.099472
C249	C	0.677891	0.245186	0.552564
C250	C	1.177891	0.745186	1.052564
N251	N	0.649182	0.216456	0.529099
N252	N	1.149182	0.716456	1.029099
C253	C	0.620479	0.187717	0.552553
C254	C	1.120479	0.687717	1.052553
C255	C	0.677918	0.245117	0.979514
C256	C	1.177918	0.745117	1.479514
C257	C	0.677923	0.245108	1.026431
C258	C	1.177923	0.745108	1.526431
C259	C	0.620509	0.187636	1.026420
C260	C	1.120509	0.687636	1.526420
C261	C	0.620507	0.187643	0.979501
C262	C	1.120507	0.687643	1.479501
C263	C	0.649210	0.216386	0.956049
C264	C	1.149210	0.716386	1.456049
C265	C	0.620479	0.187732	0.454027
C266	C	1.120479	0.687732	0.954027
C267	C	0.620481	0.187740	0.407107
C268	C	1.120481	0.687740	0.907107
C269	C	0.677893	0.245213	0.407123
C270	C	1.177893	0.745213	0.907123
C271	C	0.677893	0.245204	0.454038
C272	C	1.177893	0.745204	0.954038
C273	C	0.649182	0.216462	0.477489
C274	C	1.149182	0.716462	0.977489
O275	O	0.702298	0.269605	0.528267
O276	O	1.202298	0.769605	1.028267
O277	O	0.596060	0.163288	0.528280
O278	O	1.096060	0.663288	1.028280
C279	C	0.620487	0.187689	0.740217
C280	C	1.120487	0.687689	1.240217
C281	C	0.649192	0.216422	0.763679
C282	C	1.149192	0.716422	1.263679
C283	C	0.677895	0.245161	0.740226
C284	C	1.177895	0.745161	1.240226
C285	C	0.649196	0.216413	0.810597
C286	C	1.149196	0.716413	1.310597
C287	C	0.620492	0.187674	0.834050
C288	C	1.120492	0.687674	1.334050
C289	C	0.591784	0.158944	0.810585
C290	C	1.091784	0.658944	1.310585
C291	C	0.591783	0.158950	0.763670
C292	C	1.091783	0.658950	1.263670
C293	C	0.706604	0.273891	0.763691
C294	C	1.206604	0.773891	1.263691
C295	C	0.706603	0.273882	0.810606
C296	C	1.206603	0.773882	1.310606
C297	C	0.677899	0.245143	0.834060
C298	C	1.177899	0.745143	1.334060
H299	H	0.036450	0.135541	0.135866
H300	H	0.536450	0.635541	0.635866
H301	H	0.121556	0.135536	0.135856
H302	H	0.621556	0.635536	0.635856
H303	H	0.597047	0.959942	0.268624
H304	H	1.097047	1.459942	0.768624
H305	H	-0.179379	0.164333	0.164555
H306	H	0.320621	0.664333	0.664555
C307	C	0.484834	0.276915	0.276722
C308	C	0.984834	0.776915	0.776722
H309	H	0.516136	0.272799	0.272608
H310	H	1.016136	0.772799	0.772608
H311	H	0.477171	0.270388	0.306922
H312	H	0.977171	0.770388	0.806922
H313	H	0.477116	0.307090	0.270083
H314	H	0.977116	0.807090	0.770083
H315	H	0.597105	0.164338	0.388006
H316	H	1.097105	0.664338	0.888006
C317	C	0.709593	1.051714	0.156285
C318	C	1.209593	1.551714	0.656285
H319	H	0.705481	1.083017	0.160401
H320	H	1.205481	1.583017	0.660401
H321	H	0.703037	1.044048	0.126092
H322	H	1.203037	1.544048	0.626092
H323	H	0.739775	1.043998	0.162896
H324	H	1.239775	1.543998	0.662896
C325	C	0.709575	0.953187	0.156279
C326	C	1.209575	1.453187	0.656279
H327	H	0.726700	0.973874	0.139191
H328	H	1.226700	1.473874	0.639191
H329	H	0.692400	0.934908	0.136684
H330	H	1.192400	1.434908	0.636684
H331	H	0.729139	0.934861	0.173488
H332	H	1.229139	1.434861	0.673488
C333	C	0.709431	0.380792	0.156247
C334	C	1.209431	0.880792	0.656247
H335	H	0.726559	0.401477	0.139160
H336	H	1.226559	0.901477	0.639160
H337	H	0.692254	0.362515	0.136651
H338	H	1.192254	0.862515	0.636651
H339	H	0.728993	0.362462	0.173455
H340	H	1.228993	0.862462	0.673455
C341	C	0.128261	0.305696	0.305462
C342	C	0.628261	0.805696	0.805462
H343	H	0.107565	0.322827	0.322544
H344	H	0.607565	0.822827	0.822544
H345	H	0.146541	0.325248	0.288243
H346	H	0.646541	0.825248	0.788243
H347	H	0.146584	0.288535	0.325070
H348	H	0.646584	0.788535	0.825070
H349	H	0.597062	1.045050	0.268622
H350	H	1.097062	1.545050	0.768622
C351	C	0.170504	0.127298	0.127661
C352	C	0.670504	0.627298	0.627661
H353	H	0.191200	0.110160	0.110587
H354	H	0.691200	0.610160	0.610587
H355	H	0.152176	0.144449	0.108051
H356	H	0.652176	0.644449	0.608051
H357	H	0.152227	0.107747	0.144889
H358	H	0.652227	0.607747	0.644889
C359	C	0.588900	0.156114	0.479816
C360	C	1.088900	0.656114	0.979816
H361	H	0.571810	0.139002	0.459118
H362	H	1.071810	0.639002	0.959118
H363	H	0.569308	0.173288	0.498105
H364	H	1.069308	0.673288	0.998105
H365	H	0.606107	0.136537	0.498131
H366	H	1.106107	0.636537	0.998131
C367	C	0.588695	0.380843	0.276791
C368	C	1.088695	0.880843	0.776791
H369	H	0.571577	0.401538	0.293887
H370	H	1.071577	0.901538	0.793887
H371	H	0.605872	0.362515	0.296379
H372	H	1.105872	0.862515	0.796379
H373	H	0.569124	0.362566	0.259584
H374	H	1.069124	0.862566	0.759584
H375	H	0.393019	0.268692	0.268556
H376	H	0.893019	0.768692	0.768556
C377	C	-0.087569	0.156103	0.156352
C378	C	0.412431	0.656103	0.656352
H379	H	-0.108265	0.138977	0.139273
H380	H	0.391735	0.638977	0.639273
H381	H	-0.069243	0.136547	0.173566
H382	H	0.430757	0.636547	0.673566
H383	H	-0.069291	0.173263	0.136741
H384	H	0.430709	0.673263	0.636741
C385	C	0.269007	0.305689	0.305443
C386	C	0.769007	0.805689	0.805443
H387	H	0.248311	0.322819	0.322525
H388	H	0.748311	0.822819	0.822525
H389	H	0.287289	0.325242	0.288226
H390	H	0.787289	0.825242	0.788226
H391	H	0.287330	0.288526	0.325050
H392	H	0.787330	0.788526	0.825050
C393	C	0.560068	0.835939	0.305520
C394	C	1.060068	1.335939	0.805520
H395	H	0.542948	0.815252	0.322613
H396	H	1.042948	1.315252	0.822613
H397	H	0.540506	0.854273	0.288321
H398	H	1.040506	1.354273	0.788321
H399	H	0.577252	0.854211	0.325117
H400	H	1.077252	1.354211	0.825117
C401	C	-0.087564	0.276946	0.276804
C402	C	0.412436	0.776946	0.776804
H403	H	-0.108258	0.294079	0.293885
H404	H	0.391742	0.794079	0.793885
H405	H	-0.069282	0.296496	0.259584
H406	H	0.430718	0.796496	0.759584
H407	H	-0.069242	0.259784	0.296413
H408	H	0.430758	0.759784	0.796413
H409	H	0.177200	0.297475	0.297259
H410	H	0.677200	0.797475	0.797259
C411	C	0.709504	0.276713	1.052235
C412	C	1.209504	0.776713	1.552235
H413	H	0.726593	0.293831	1.031543
H414	H	1.226593	0.793831	1.531543
H415	H	0.729096	0.259531	1.070552
H416	H	1.229096	0.759531	1.570552
H417	H	0.692301	0.296284	1.070523
H418	H	1.192301	0.796284	1.570523
H419	H	0.729976	0.297296	0.744600
H420	H	1.229976	0.797296	1.244600
C421	C	-0.186091	0.276947	0.276815
C422	C	0.313909	0.776947	0.776815
H423	H	-0.217393	0.272823	0.272711
H424	H	0.282607	0.772823	0.772711
H425	H	-0.178429	0.307125	0.270190
H426	H	0.321571	0.807125	0.770190
H427	H	-0.178381	0.270406	0.307012
H428	H	0.321619	0.770406	0.807012
C429	C	0.269018	0.127295	0.127651
C430	C	0.769018	0.627295	0.627651
H431	H	0.248325	0.110164	0.110575
H432	H	0.748325	0.610164	0.610575
H433	H	0.287345	0.107745	0.144871
H434	H	0.787345	0.607745	0.644871
H435	H	0.287296	0.144452	0.108038
H436	H	0.787296	0.644452	0.608038
H437	H	0.393009	0.164291	0.164489
H438	H	0.893009	0.664291	0.664489
C439	C	0.709498	0.276732	0.953722
C440	C	1.209498	0.776732	1.453722
H441	H	0.726598	0.293835	0.974420
H442	H	1.226598	0.793835	1.474420
H443	H	0.692300	0.296311	0.935405
H444	H	1.192300	0.796311	1.435405
H445	H	0.729089	0.259550	0.935435
H446	H	1.229089	0.759550	1.435435
C447	C	0.738171	0.305529	0.695654
C448	C	1.238171	0.805529	1.195654
H449	H	0.755257	0.322648	0.674960
H450	H	1.255257	0.822648	1.174960
H451	H	0.757767	0.288354	0.713973
H452	H	1.257767	0.788354	1.213973
H453	H	0.720963	0.325099	0.713938
H454	H	1.220963	0.825099	1.213938
C455	C	0.709460	0.479307	0.156250
C456	C	1.209460	0.979307	0.656250
H457	H	0.726569	0.458604	0.139155
H458	H	1.226569	0.958604	0.639155
H459	H	0.729032	0.497583	0.173452
H460	H	1.229032	0.997583	0.673452
H461	H	0.692287	0.497634	0.136655
H462	H	1.192287	0.997634	0.636655
C463	C	0.738166	0.305539	0.597139
C464	C	1.238166	0.805539	1.097139
H465	H	0.755263	0.322647	0.617835
H466	H	1.255263	0.822647	1.117835
H467	H	0.720963	0.325112	0.578822
H468	H	1.220963	0.825112	1.078822
H469	H	0.757759	0.288359	0.578852
H470	H	1.257759	0.788359	1.078852
H471	H	0.478132	0.164291	0.164479
H472	H	0.978132	0.664291	0.664479
C473	C	0.560035	0.695183	0.305522
C474	C	1.060035	1.195183	0.805522
H475	H	0.542917	0.674494	0.322614
H476	H	1.042917	1.174494	0.822614
H477	H	0.540470	0.713515	0.288324
H478	H	1.040470	1.213515	0.788324
H479	H	0.577217	0.713457	0.325119
H480	H	1.077217	1.213457	0.825119
H481	H	0.036440	0.297479	0.297274
H482	H	0.536440	0.797479	0.797274
H483	H	0.568401	0.135572	0.603825
H484	H	1.068401	0.635572	1.103825
H485	H	0.701273	0.268598	0.473142
H486	H	1.201273	0.768598	0.973142
C487	C	0.738241	0.596604	0.127564
C488	C	1.238241	1.096604	0.627564
H489	H	0.755367	0.617292	0.110480
H490	H	1.255367	1.117292	0.610480
H491	H	0.721069	0.578325	0.107967
H492	H	1.221069	1.078325	0.607967
H493	H	0.757804	0.578277	0.144774
H494	H	1.257804	1.078277	0.644774
C495	C	0.560014	0.596667	0.305511
C496	C	1.060014	1.096667	0.805511
H497	H	0.564123	0.565362	0.301403
H498	H	1.064123	1.065362	0.801403
H499	H	0.529834	0.604389	0.298907
H500	H	1.029834	1.104389	0.798907
H501	H	0.566579	0.604335	0.335705
H502	H	1.066579	1.104335	0.835705
H503	H	0.730048	0.688415	0.135769
H504	H	1.230048	1.188415	0.635769
H505	H	0.730062	0.744055	0.135772
H506	H	1.230062	1.244055	0.635772
C507	C	0.588716	0.479370	0.276795
C508	C	1.088716	0.979370	0.776795
H509	H	0.571592	0.458685	0.293887
H510	H	1.071592	0.958685	0.793887
H511	H	0.569156	0.497705	0.259595
H512	H	1.069156	0.997705	0.759595
H513	H	0.605901	0.497641	0.296393
H514	H	1.105901	0.997641	0.796393
H515	H	0.730080	0.829174	0.135782
H516	H	1.230080	1.329174	0.635782
C517	C	0.560206	0.127345	0.695630
C518	C	1.060206	0.627345	1.195630
H519	H	0.543115	0.110234	0.674931
H520	H	1.043115	0.610234	1.174931
H521	H	0.540614	0.144516	0.713922
H522	H	1.040614	0.644516	1.213922
H523	H	0.577414	0.107766	0.713942
H524	H	1.077414	0.607766	1.213942
H525	H	0.568257	0.744126	0.297311
H526	H	1.068257	1.244126	0.797311
H527	H	0.568407	0.135551	0.744571
H528	H	1.068407	0.635551	1.244571
H529	H	0.597131	0.164244	0.960401
H530	H	1.097131	0.664244	1.460401
C531	C	0.709463	0.276825	0.381318
C532	C	1.209463	0.776825	0.881318
H533	H	0.705344	0.272715	0.350016
H534	H	1.205344	0.772715	0.850016
H535	H	0.739656	0.270260	0.389020
H536	H	1.239656	0.770260	0.889020
H537	H	0.702856	0.307009	0.388994
H538	H	1.202856	0.807009	0.888994
C539	C	0.560206	0.127336	0.836390
C540	C	1.060206	0.627336	1.336390
H541	H	0.564318	0.131455	0.867692
H542	H	1.064318	0.631455	1.367692
H543	H	0.566799	0.097151	0.828719
H544	H	1.066799	0.597151	1.328719
H545	H	0.530014	0.133915	0.828685
H546	H	1.030014	0.633915	1.328685
C547	C	0.588925	0.156033	1.052224
C548	C	1.088925	0.656033	1.552224
H549	H	0.593037	0.160151	1.083526
H550	H	1.093037	0.660151	1.583526
H551	H	0.595513	0.125846	1.044553
H552	H	1.095513	0.625846	1.544553
H553	H	0.558735	0.162618	1.044518
H554	H	1.058735	0.662618	1.544518
H555	H	0.729984	0.297281	0.829706
H556	H	1.229984	0.797281	1.329706
