data_functionalizedCrystal
_audit_creation_method	'MofGen! by Chris Wilmer'
_symmetry_space_group_name_H-M	'P1'
_symmetry_Int_Tables_number	1
_symmetry_cell_setting	triclinic
loop_
_symmetry_equiv_pos_as_xyz
  x,y,z
_cell_length_a	15.995350
_cell_length_b	12.837942
_cell_length_c	11.295483
_cell_angle_alpha	94.530417
_cell_angle_beta	85.898253
_cell_angle_gamma	89.160658
loop_
_atom_site_label
_atom_site_type_symbol
_atom_site_fract_x
_atom_site_fract_y
_atom_site_fract_z
O1	O	1.126724	0.126645	-0.098922
O2	O	0.884267	0.143143	-0.098946
O3	O	1.000119	-0.016009	-0.098927
O4	O	1.010872	0.285796	-0.098941
O5	O	0.989941	-0.002051	0.099122
O6	O	0.874089	0.157100	0.099103
O7	O	1.116547	0.140602	0.099127
Cu8	Cu	0.994389	0.150125	0.117198
Cu9	Cu	1.006425	0.133619	-0.117018
O10	O	1.000695	0.299753	0.099108
C11	C	0.991398	-0.047651	0.000096
C12	C	0.980565	-0.162728	0.000093
C13	C	0.847929	0.149439	0.000075
C14	C	0.754816	0.147393	0.000066
C15	C	1.110803	-0.403687	0.000081
C16	C	1.100628	-0.511813	0.000078
C17	C	0.950041	-0.487109	0.000075
C18	C	0.960216	-0.378983	0.000078
C19	C	1.040599	-0.337276	0.000083
C20	C	1.050773	-0.229147	0.000095
C21	C	0.900187	-0.204446	0.000083
C22	C	0.890012	-0.312572	0.000080
C23	C	0.416481	0.140051	0.000091
C24	C	0.454849	0.026737	0.000538
C25	C	0.551725	0.028750	0.000083
C26	C	0.584333	0.143693	0.000079
C27	C	0.553518	0.191629	-0.113014
C28	C	0.456659	0.188775	-0.113101
C29	C	0.444934	0.206989	0.112118
C30	C	0.541801	0.207067	0.113605
C31	C	0.679196	0.145757	0.000069
C32	C	0.321619	0.137990	0.000094
C33	C	1.152885	0.134305	0.000103
C34	C	1.245998	0.136350	0.000104
C35	C	1.009416	0.331395	0.000082
C36	C	1.020249	0.446472	0.000077
N37	N	0.985930	0.161734	0.281933
N38	N	1.014890	0.122002	-0.281753
C39	C	1.075780	0.038379	0.531237
C40	C	1.069394	0.047159	0.655900
C41	C	0.966767	0.188069	0.655923
C42	C	0.973153	0.179289	0.531261
C43	C	1.027662	0.104442	0.468922
C44	C	1.034052	0.095668	0.344257
C45	C	0.931422	0.236572	0.344283
C46	C	0.925036	0.245352	0.468945
H47	H	1.116225	-0.195192	0.000103
H48	H	0.824566	-0.346545	0.000072
H49	H	0.892244	0.290368	0.293532
C50	C	0.454612	-0.127372	0.107942
C51	C	0.419327	-0.026723	0.110014
H52	H	0.432678	-0.160373	0.175532
H53	H	0.441327	-0.167080	0.037455
H54	H	0.513760	-0.122920	0.109453
H55	H	0.360179	-0.031175	0.108494
H56	H	0.432606	0.012994	0.180518
H57	H	1.078439	0.034727	0.293502
C58	C	0.865943	0.326449	0.643440
C59	C	0.906839	0.270318	0.724459
H60	H	0.828939	0.377218	0.685754
H61	H	0.906258	0.360354	0.594825
H62	H	0.834886	0.279840	0.594808
H63	H	0.937902	0.316926	0.773085
H64	H	0.866518	0.236412	0.773094
C65	C	0.848915	-0.027729	0.000080
C66	C	0.823013	-0.131443	0.000077
H67	H	0.801271	0.017337	0.000070
H68	H	0.877963	-0.010226	0.069143
H69	H	0.885066	-0.019957	-0.068986
H70	H	0.786866	-0.139217	0.069148
H71	H	0.793950	-0.148951	-0.068993
H72	H	1.176253	-0.369728	0.000097
H73	H	1.157795	-0.565882	0.000073
C74	C	1.176586	-0.100018	0.543731
C75	C	1.135696	-0.043887	0.462707
H76	H	1.213572	-0.150809	0.501421
H77	H	1.207654	-0.053422	0.592342
H78	H	1.136260	-0.133905	0.592365
H79	H	1.176022	-0.009993	0.414078
H80	H	1.104626	-0.090490	0.414074
H81	H	0.439442	0.142049	-0.197638
H82	H	0.419801	0.290612	0.112880
H83	H	0.435801	-0.024046	-0.080115
C84	C	0.867589	-0.641897	0.000066
C85	C	0.861689	-0.532966	0.000071
H86	H	0.813043	-0.670204	0.000071
H87	H	0.900400	-0.669541	-0.068997
H88	H	0.893316	-0.659818	0.069132
H89	H	0.835968	-0.515045	-0.069001
H90	H	0.828866	-0.505312	0.069140
H91	H	0.580226	-0.021215	-0.081124
H92	H	1.108575	-0.006638	0.706634
H93	H	0.572482	-0.009482	0.081154
H94	H	0.574597	0.275778	-0.117222
C95	C	0.489198	0.369896	-0.124138
C96	C	0.422439	0.300618	-0.120062
H97	H	0.468074	0.438938	-0.128452
H98	H	0.518719	0.366966	-0.054406
H99	H	0.526070	0.350774	-0.192336
H100	H	0.385570	0.319735	-0.051859
H101	H	0.392905	0.303552	-0.189801
C102	C	0.680867	0.137498	-0.228333
C103	C	0.593475	0.131199	-0.226632
H104	H	0.705534	0.100181	-0.298470
H105	H	0.696451	0.208653	-0.227332
H106	H	0.699885	0.107915	-0.160359
H107	H	0.574456	0.160790	-0.294602
H108	H	0.577884	0.060030	-0.227645
H109	H	0.417037	0.175975	0.197840
H110	H	0.880653	0.306288	0.519716
H111	H	0.563503	0.291368	0.120433
C112	C	0.497395	0.127006	0.292000
C113	C	0.568467	0.159924	0.226552
H114	H	0.513865	0.097895	0.361721
H115	H	0.460503	0.185073	0.313884
H116	H	0.469624	0.075712	0.244781
H117	H	0.596234	0.211225	0.273768
H118	H	0.605372	0.101850	0.204669
