data_functionalizedCrystal
_audit_creation_method	'MofGen! by Chris Wilmer'
_symmetry_space_group_name_H-M	'P1'
_symmetry_Int_Tables_number	1
_symmetry_cell_setting	triclinic
loop_
_symmetry_equiv_pos_as_xyz
  x,y,z
_cell_length_a	10.654562
_cell_length_b	16.109304
_cell_length_c	9.730223
_cell_angle_alpha	90.001479
_cell_angle_beta	89.996961
_cell_angle_gamma	83.976371
loop_
_atom_site_label
_atom_site_type_symbol
_atom_site_fract_x
_atom_site_fract_y
_atom_site_fract_z
O1	O	1.666242	0.116820	-0.114371
O2	O	1.300615	0.127935	-0.114353
O3	O	1.493470	0.001407	-0.114363
O4	O	1.473386	0.243348	-0.114361
O5	O	1.493468	0.001410	0.114217
O6	O	1.300612	0.127938	0.114227
O7	O	1.666239	0.116824	0.114209
Zn8	Zn	1.483426	0.122381	0.150510
Zn9	Zn	1.483429	0.122377	-0.150654
O10	O	1.473384	0.243352	0.114219
C11	C	1.253827	0.127118	-0.000061
C12	C	1.114418	0.124670	-0.000054
C13	C	1.048901	0.123530	0.124534
C14	C	0.917910	0.121236	0.124511
C15	C	0.917963	0.121226	-0.124699
C16	C	1.048953	0.123514	-0.124675
C17	C	1.048869	0.123539	0.268414
C18	C	0.917878	0.121245	0.268391
C19	C	1.492655	-0.029571	-0.000076
C20	C	1.490214	-0.121881	-0.000085
C21	C	1.484576	-0.334254	-0.124679
C22	C	1.482271	-0.420988	-0.124678
C23	C	1.482275	-0.420981	0.124533
C24	C	1.484571	-0.334248	0.124530
C25	C	1.485728	-0.290887	-0.000080
C26	C	1.481126	-0.464354	-0.000076
C27	C	1.478627	-0.558395	-0.000073
C28	C	1.488225	-0.196840	-0.000083
C29	C	1.713027	0.117640	-0.000086
C30	C	1.852436	0.120088	-0.000102
C31	C	1.474199	0.274330	-0.000071
C32	C	1.476640	0.366639	-0.000070
N33	N	1.483433	0.122384	0.356046
N34	N	1.483431	0.122368	-0.356190
C35	C	1.568851	0.066376	0.427968
C36	C	1.568848	0.066366	0.571851
C37	C	1.398004	0.178378	0.571878
C38	C	1.398002	0.178384	0.427998
C39	C	1.667490	0.001709	0.427953
C40	C	1.667487	0.001699	0.571836
H41	H	1.102294	0.124430	-0.226127
H42	H	1.637792	-0.058690	0.616453
C43	C	1.305457	0.239234	0.349740
C44	C	1.372315	0.290539	0.267119
C45	C	1.287102	0.346601	0.194998
H46	H	1.254551	0.272664	0.413048
H47	H	1.253217	0.209027	0.293529
H48	H	1.424534	0.320744	0.323325
H49	H	1.423217	0.257133	0.203786
H50	H	1.234862	0.316394	0.138787
H51	H	1.236201	0.380025	0.258316
H52	H	1.332453	0.381413	0.138922
C53	C	1.305198	0.239045	0.650179
C54	C	1.228374	0.194273	0.732799
C55	C	1.142877	0.250132	0.804960
H56	H	1.254203	0.272426	0.586894
H57	H	1.350318	0.273920	0.706393
H58	H	1.183257	0.159412	0.676590
H59	H	1.279334	0.160894	0.796109
H60	H	1.187997	0.285007	0.861174
H61	H	1.091891	0.283510	0.741665
H62	H	1.090749	0.219762	0.861035
H63	H	1.758399	0.021961	0.383323
H64	H	1.095907	0.066083	0.323666
C65	C	1.795976	0.020744	0.623645
C66	C	1.874573	0.032404	0.511492
C67	C	1.992935	0.049957	0.559164
H68	H	1.832482	-0.024555	0.677834
H69	H	1.786443	0.070055	0.677856
H70	H	1.884109	-0.016901	0.457303
H71	H	1.838106	0.077705	0.457291
H72	H	1.983402	0.099268	0.613375
H73	H	2.029429	0.004656	0.613354
H74	H	2.046273	0.057878	0.483077
H75	H	1.646913	-0.062195	0.388900
C76	C	1.480838	-0.468155	0.259715
C77	C	1.371565	-0.509242	0.266997
C78	C	1.370214	-0.552715	0.391500
H79	H	1.481786	-0.429994	0.334039
H80	H	1.553097	-0.507948	0.264893
H81	H	1.299326	-0.469454	0.261833
H82	H	1.370594	-0.547416	0.192702
H83	H	1.442472	-0.592508	0.396679
H84	H	1.371165	-0.514549	0.465815
H85	H	1.296080	-0.580604	0.396453
C86	C	1.086972	0.204423	0.328058
C87	C	0.978689	0.255678	0.367534
C88	C	1.013742	0.330191	0.422496
H89	H	1.131648	0.232290	0.260717
H90	H	1.139514	0.192330	0.405929
H91	H	0.926169	0.267773	0.289673
H92	H	0.934000	0.227837	0.434888
H93	H	1.066284	0.318098	0.500367
H94	H	1.058420	0.358050	0.355147
H95	H	0.940280	0.364974	0.449298
H96	H	0.889111	0.060612	0.313036
C97	C	1.485750	-0.287319	-0.260109
C98	C	1.484213	-0.343863	-0.369226
C99	C	1.485273	-0.300658	-0.494006
H100	H	1.559814	-0.259396	-0.265498
H101	H	1.413427	-0.247584	-0.265355
H102	H	1.556529	-0.383584	-0.363982
H103	H	1.410154	-0.371788	-0.363882
H104	H	1.412949	-0.260923	-0.499253
H105	H	1.559338	-0.272737	-0.499381
H106	H	1.484218	-0.339016	-0.568057
H107	H	0.864645	0.120285	-0.226161
H108	H	0.870813	0.178704	0.323627
C109	C	1.481218	-0.468193	-0.259858
C110	C	1.587856	-0.526733	-0.267130
C111	C	1.586918	-0.570241	-0.391635
H112	H	1.482298	-0.430045	-0.334180
H113	H	1.407167	-0.496160	-0.265046
H114	H	1.661888	-0.498768	-0.261955
H115	H	1.586799	-0.564899	-0.192837
H116	H	1.512867	-0.598207	-0.396824
H117	H	1.587994	-0.532086	-0.465948
H118	H	1.659263	-0.609970	-0.396581
H119	H	1.485501	-0.298938	0.226000
