data_functionalizedCrystal
_audit_creation_method	'MofGen! by Chris Wilmer'
_symmetry_space_group_name_H-M	'P1'
_symmetry_Int_Tables_number	1
_symmetry_cell_setting	triclinic
loop_
_symmetry_equiv_pos_as_xyz
  x,y,z
_cell_length_a	12.811457
_cell_length_b	10.268362
_cell_length_c	12.837932
_cell_angle_alpha	90.001922
_cell_angle_beta	89.412058
_cell_angle_gamma	84.572630
loop_
_atom_site_label
_atom_site_type_symbol
_atom_site_fract_x
_atom_site_fract_y
_atom_site_fract_z
O1	O	1.406629	-0.057843	0.139673
O2	O	1.102567	-0.021929	0.154865
O3	O	1.247855	-0.039088	-0.003663
O4	O	1.261341	-0.040683	0.298201
O5	O	1.247840	-0.255687	-0.003670
O6	O	1.102553	-0.238528	0.154858
O7	O	1.406614	-0.274442	0.139667
Cu8	Cu	1.254582	-0.276262	0.147262
Cu9	Cu	1.254599	-0.020109	0.147270
O10	O	1.261327	-0.257282	0.298194
C11	C	1.063371	-0.125600	0.154011
C12	C	0.946600	-0.111807	0.151463
N13	N	1.254577	-0.456427	0.147256
C14	C	0.727157	-0.322052	0.146649
C15	C	0.617440	-0.309099	0.144255
C16	C	0.617447	-0.072950	0.144273
C17	C	0.727164	-0.085903	0.146667
C18	C	0.782015	-0.210458	0.147857
C19	C	0.891734	-0.223409	0.150258
C20	C	0.891739	0.012739	0.150269
C21	C	0.782022	0.025691	0.147875
C22	C	1.254594	-0.722100	0.147267
C23	C	1.254582	-0.574260	0.147264
C24	C	1.445810	-0.170768	0.140521
C25	C	1.562581	-0.184552	0.143068
C26	C	1.243292	-0.146847	-0.042307
C27	C	1.229705	-0.145233	-0.157442
N28	N	1.254611	0.160056	0.147267
C29	C	1.116146	-0.131822	-0.307774
C30	C	1.128905	-0.133327	-0.199593
C31	C	1.317753	-0.155631	-0.223481
C32	C	1.304994	-0.154126	-0.331662
C33	C	1.204187	-0.142223	-0.373804
C34	C	1.191429	-0.140728	-0.481987
C35	C	1.380275	-0.163023	-0.505874
C36	C	1.393035	-0.164528	-0.397693
C37	C	1.265889	-0.149521	0.336838
C38	C	1.279476	-0.151126	0.451973
H39	H	0.771818	-0.423469	0.147631
H40	H	1.057213	-0.124856	-0.145833
H41	H	0.936416	0.103607	0.151259
H42	H	1.399825	-0.165404	-0.189150
N43	N	0.950892	-0.357747	0.151546
H44	H	0.933883	-0.407351	0.086913
H45	H	1.028703	-0.348917	0.153289
N46	N	0.722850	0.160021	0.146586
H47	H	0.675241	0.170897	0.209802
H48	H	0.774317	0.228672	0.147677
N49	N	1.501755	-0.177382	-0.352233
H50	H	1.555592	-0.183747	-0.410482
H51	H	1.511173	-0.098197	-0.307868
N52	N	0.558272	-0.429461	0.142947
H53	H	0.609694	-0.510325	0.143351
H54	H	0.511190	-0.429442	0.206530
H55	H	1.451965	-0.171495	-0.559649
N56	N	1.007425	-0.118983	-0.353232
H57	H	1.012702	-0.119608	-0.431784
H58	H	0.968422	-0.194677	-0.329110
N59	N	0.558279	0.061381	0.142968
H60	H	0.480450	0.052647	0.141260
H61	H	0.575360	0.110934	0.207600
H62	H	1.109347	-0.131048	-0.516297
