data_functionalizedCrystal
_audit_creation_method	'MofGen! by Chris Wilmer'
_symmetry_space_group_name_H-M	'P1'
_symmetry_Int_Tables_number	1
_symmetry_cell_setting	triclinic
loop_
_symmetry_equiv_pos_as_xyz
  x,y,z
_cell_length_a	12.759401
_cell_length_b	11.169416
_cell_length_c	12.759393
_cell_angle_alpha	89.971939
_cell_angle_beta	89.980198
_cell_angle_gamma	90.009235
loop_
_atom_site_label
_atom_site_type_symbol
_atom_site_fract_x
_atom_site_fract_y
_atom_site_fract_z
Zn1	Zn	1.606300	-0.477778	-0.594006
Zn2	Zn	1.606205	-0.678507	-0.418334
Zn3	Zn	1.430598	-0.477834	-0.418345
Zn4	Zn	1.430604	-0.678415	-0.593974
O5	O	1.518427	-0.578134	-0.506165
O6	O	1.753308	-0.504421	-0.570711
O7	O	1.582868	-0.651949	-0.271314
O8	O	1.453943	-0.309877	-0.441664
O9	O	1.753238	-0.651896	-0.441646
O10	O	1.583030	-0.309836	-0.570722
O11	O	1.453851	-0.504515	-0.271322
O12	O	1.283578	-0.504426	-0.441634
O13	O	1.453953	-0.651738	-0.741000
O14	O	1.283582	-0.651792	-0.570668
O15	O	1.583035	-0.504331	-0.741023
O16	O	1.582874	-0.846445	-0.441615
O17	O	1.453861	-0.846377	-0.570657
C18	C	1.245459	-0.578106	-0.506149
C19	C	1.128683	-0.578123	-0.506168
C20	C	0.964121	-0.501499	-0.573483
C21	C	1.073845	-0.501475	-0.573476
C22	C	1.073791	-0.654807	-0.438869
C23	C	0.964069	-0.654836	-0.438882
C24	C	1.518386	-0.889958	-0.506154
C25	C	1.518465	-1.023358	-0.506185
C26	C	1.792460	-0.578162	-0.506181
C27	C	1.909237	-0.578175	-0.506188
C28	C	1.518505	-0.578018	-0.780198
C29	C	1.518539	-0.577969	-0.896975
C30	C	1.518496	-0.265091	-0.506198
C31	C	1.518526	-0.131691	-0.506212
C32	C	1.585757	-0.501202	-0.951851
C33	C	1.585775	-0.501151	-1.061575
C34	C	1.451353	-0.654643	-1.061538
C35	C	1.451331	-0.654688	-0.951816
C36	C	1.518409	-0.578162	-0.233197
C37	C	1.518579	-0.577873	-0.116421
H38	H	1.118526	-0.439039	-0.628276
O39	O	1.127220	-0.729150	-0.373519
C40	C	1.296228	-0.797106	-0.313880
C41	C	1.235855	-0.712834	-0.387929
H42	H	1.384070	-0.783962	-0.325520
H43	H	1.274690	-0.775916	-0.229175
H44	H	1.274608	-0.893900	-0.332176
H45	H	1.257442	-0.616012	-0.369727
H46	H	1.257398	-0.734126	-0.472612
O47	O	0.910910	-0.729361	-0.373407
C48	C	0.922426	-0.881495	-0.239940
C49	C	0.982759	-0.797138	-0.314010
H50	H	0.980490	-0.936333	-0.191914
H51	H	0.871055	-0.826390	-0.185023
H52	H	0.871056	-0.944275	-0.288112
H53	H	1.034186	-0.734342	-0.265923
H54	H	1.034064	-0.852318	-0.368930
O55	O	1.651067	-0.426560	-0.898740
C56	C	1.784434	-0.274355	-0.910363
C57	C	1.710509	-0.358811	-0.970636
H58	H	1.832528	-0.219576	-0.968465
H59	H	1.736253	-0.211534	-0.859023
H60	H	1.839303	-0.329501	-0.858967
H61	H	1.655625	-0.303762	-1.022089
H62	H	1.758755	-0.421635	-1.021910
H63	H	1.640509	-0.438637	-1.106250
H64	H	1.396586	-0.717200	-0.907134
O65	O	0.910693	-0.427082	-0.638770
C66	C	0.741687	-0.359224	-0.698500
C67	C	0.802058	-0.443540	-0.624487
H68	H	0.653844	-0.372520	-0.686994
H69	H	0.763168	-0.262390	-0.680193
H70	H	0.763365	-0.380403	-0.783169
H71	H	0.780411	-0.422470	-0.539793
H72	H	0.780571	-0.540349	-0.642884
O73	O	1.386130	-0.729338	-1.114698
C74	C	1.335135	-0.933475	-1.148287
C75	C	1.409047	-0.849013	-1.088003
H76	H	1.353651	-1.030251	-1.126743
H77	H	1.250401	-0.912497	-1.126687
H78	H	1.346682	-0.920197	-1.236130
H79	H	1.397593	-0.862244	-1.000146
H80	H	1.493753	-0.870012	-1.109690
