data_functionalizedCrystal
_audit_creation_method	'MofGen! by Chris Wilmer'
_symmetry_space_group_name_H-M	'P1'
_symmetry_Int_Tables_number	1
_symmetry_cell_setting	triclinic
loop_
_symmetry_equiv_pos_as_xyz
  x,y,z
_cell_length_a	31.640172
_cell_length_b	14.560432
_cell_length_c	31.640172
_cell_angle_alpha	60.002346
_cell_angle_beta	90.014226
_cell_angle_gamma	59.997648
loop_
_atom_site_label
_atom_site_type_symbol
_atom_site_fract_x
_atom_site_fract_y
_atom_site_fract_z
Zr1	Zr	0.407167	1.005181	-0.055403
O2	O	0.339660	1.196821	-0.122900
O3	O	0.427862	0.813568	-0.034713
O4	O	0.427839	1.005196	-0.122891
O5	O	0.339700	1.005171	0.034835
O6	O	0.497396	1.005177	-0.122881
O7	O	0.339683	1.005193	-0.034723
O8	O	0.497436	0.662389	0.034852
O9	O	0.339660	1.347959	-0.122899
O10	O	0.488597	0.892357	-0.025880
O11	O	0.436700	0.892355	0.026023
O12	O	0.436674	1.117972	-0.077795
O13	O	0.384778	1.117970	-0.025892
Zr14	Zr	0.518130	1.005116	0.055548
Zr15	Zr	0.518102	1.005150	-0.055388
Zr16	Zr	0.407195	1.005146	0.055533
Zr17	Zr	0.407167	1.246228	-0.055400
Zr18	Zr	0.518130	0.764068	0.055546
O19	O	0.497436	1.196729	0.034858
O20	O	0.497396	1.196778	-0.122879
O21	O	0.339700	1.196772	0.034837
O22	O	0.585637	0.813475	0.123045
O23	O	0.585598	0.813525	-0.034692
O24	O	0.427901	0.813519	0.123024
O25	O	0.585597	1.005125	-0.034690
O26	O	0.497458	1.005100	0.123036
O27	O	0.427901	1.005119	0.123026
O28	O	0.585615	1.005104	0.034868
O29	O	0.427839	1.347935	-0.122887
O30	O	0.497458	0.662362	0.123032
O31	O	0.585637	0.662337	0.123044
O32	O	0.585615	0.662365	0.034864
O33	O	0.339682	1.347931	-0.034719
O34	O	0.427861	1.347907	-0.034707
O35	O	0.488623	0.892324	0.077940
O36	O	0.540520	0.892326	0.026037
O37	O	0.488597	1.117942	-0.025878
O38	O	0.436700	1.117940	0.026025
C39	C	0.462649	0.703634	0.000069
C40	C	0.462649	0.601303	0.000068
C41	C	0.516825	0.601299	-0.054124
C42	C	0.543910	0.553226	-0.081221
C43	C	0.543908	0.457076	-0.081220
C44	C	0.516820	0.408996	-0.054118
C45	C	0.489735	0.457069	-0.027021
C46	C	0.489738	0.553223	-0.027026
C47	C	0.435563	0.457067	0.027174
C48	C	0.435561	0.553222	0.027170
C49	C	0.408475	0.408986	0.054276
C50	C	0.381386	0.457066	0.081371
C51	C	0.381388	0.553222	0.081368
C52	C	0.408476	0.601296	0.054267
C53	C	0.323885	1.005186	0.000054
C54	C	0.276790	1.005199	0.000048
C55	C	0.011887	0.887367	0.027182
C56	C	-0.165098	0.887344	0.027192
O57	O	-0.164933	0.787185	0.050258
N58	N	-0.214330	1.005113	0.000093
C59	C	-0.219316	1.122895	-0.027009
O60	O	-0.265253	1.223063	-0.050054
C61	C	-0.042332	1.122916	-0.027016
C62	C	0.006901	1.005140	0.000081
C63	C	0.061118	0.769601	0.054277
C64	C	0.105361	0.769608	0.054272
C65	C	0.100374	0.887381	0.027172
C66	C	0.051144	1.005147	0.000076
C67	C	-0.047318	1.240697	-0.054114
C68	C	-0.003067	1.240691	-0.054112
C69	C	0.046166	1.122916	-0.027015
C70	C	0.090400	1.122927	-0.027029
N71	N	0.139633	1.005159	0.000070
C72	C	0.144620	0.887386	0.027171
C73	C	-0.312234	1.122875	-0.027004
C74	C	-0.356480	1.122870	-0.027003
C75	C	-0.302258	0.887320	0.027199
C76	C	-0.258011	0.887326	0.027194
C77	C	-0.263001	1.005107	0.000096
C78	C	0.237532	0.887409	0.027158
C79	C	0.281777	0.887426	0.027148
C80	C	0.227552	1.122976	-0.027051
C81	C	0.183310	1.122960	-0.027044
C82	C	0.188304	1.005165	0.000064
O83	O	0.090275	1.223033	-0.050078
O84	O	0.190561	0.787232	0.050222
C85	C	-0.032356	0.887360	0.027187
C86	C	-0.081586	1.005126	0.000092
C87	C	-0.086573	1.122899	-0.027009
C88	C	-0.125832	1.005121	0.000093
C89	C	-0.120845	0.887348	0.027193
C90	C	-0.071612	0.769580	0.054293
C91	C	-0.027369	0.769587	0.054287
C92	C	-0.135806	1.240668	-0.054108
C93	C	-0.180047	1.240651	-0.054101
C94	C	-0.175060	1.122878	-0.027001
C95	C	0.601412	1.005110	0.000091
C96	C	0.648507	1.005097	0.000097
C97	C	0.462614	1.005192	-0.138692
C98	C	0.462602	1.005206	-0.185787
C99	C	0.462648	1.306662	0.000076
C100	C	0.462648	1.408993	0.000077
C101	C	0.424332	1.005133	-0.522065
C102	C	0.424306	1.005172	-0.345084
O103	O	0.391726	1.005135	-0.322196
N104	N	0.462623	1.005167	-0.322944
C105	C	0.500952	1.005144	-0.345051
O106	O	0.533545	1.005127	-0.322156
C107	C	0.500979	1.005094	-0.522029
C108	C	0.462656	1.005113	-0.544169
C109	C	0.386013	1.005150	-0.544204
C110	C	0.386018	1.005147	-0.588449
C111	C	0.424342	1.005127	-0.610553
C112	C	0.462662	1.005110	-0.588414
C113	C	0.539309	1.005061	-0.544133
C114	C	0.539314	1.005046	-0.588380
C115	C	0.500991	1.005064	-0.610520
C116	C	0.500991	1.005087	-0.654762
N117	N	0.462674	1.005093	-0.676902
C118	C	0.424350	1.005112	-0.654797
C119	C	0.500934	1.005172	-0.252136
C120	C	0.500927	1.005186	-0.207892
C121	C	0.424281	1.005213	-0.207927
C122	C	0.424287	1.005208	-0.252174
C123	C	0.462617	1.005177	-0.274275
C124	C	0.424363	1.005107	-0.747714
C125	C	0.424371	1.005110	-0.791963
C126	C	0.501017	1.005077	-0.791923
C127	C	0.501008	1.005081	-0.747679
C128	C	0.462679	1.005092	-0.725574
O129	O	0.533558	1.005110	-0.677674
O130	O	0.391767	1.005100	-0.677693
C131	C	0.424327	1.005135	-0.477821
C132	C	0.462646	1.005119	-0.455681
C133	C	0.500971	1.005099	-0.477785
C134	C	0.462639	1.005133	-0.411437
C135	C	0.424314	1.005153	-0.389333
C136	C	0.385997	1.005158	-0.411472
C137	C	0.386002	1.005155	-0.455716
C138	C	0.539288	1.005094	-0.455646
C139	C	0.539279	1.005098	-0.411402
C140	C	0.500955	1.005118	-0.389298
C141	C	0.462683	1.005105	0.138837
C142	C	0.462695	1.005090	0.185933
C143	C	0.601412	0.703596	0.000088
C144	C	0.648507	0.601252	0.000093
C145	C	0.462684	0.703591	0.138834
C146	C	0.462696	0.601245	0.185928
C147	C	0.601447	0.703553	0.138852
C148	C	0.648554	0.601194	0.185953
C149	C	0.323850	1.306743	-0.138707
C150	C	0.276743	1.409102	-0.185808
C151	C	0.323885	1.306700	0.000057
C152	C	0.276790	1.409044	0.000052
C153	C	0.462614	1.306705	-0.138689
C154	C	0.462602	1.409051	-0.185783
C155	C	0.643521	0.553206	-0.027009
C156	C	0.687767	0.457057	-0.027015
C157	C	0.737000	0.408948	0.000085
C158	C	0.741986	0.457004	0.027188
C159	C	0.697740	0.553158	0.027191
C160	C	0.489804	0.553167	0.235149
C161	C	0.489813	0.457016	0.279403
C162	C	0.462717	0.408938	0.274436
C163	C	0.435605	0.457026	0.225210
C164	C	0.435593	0.553182	0.180957
C165	C	0.697770	0.553127	0.180979
C166	C	0.742036	0.456963	0.225231
C167	C	0.737085	0.408863	0.274456
C168	C	0.687864	0.456940	0.279429
C169	C	0.643599	0.553108	0.235178
C170	C	0.227527	1.457181	-0.180834
C171	C	0.183261	1.553375	-0.225086
C172	C	0.188212	1.601480	-0.274311
C173	C	0.237433	1.553397	-0.279284
C174	C	0.281699	1.457212	-0.235033
C175	C	0.281777	1.457100	0.027150
C176	C	0.237530	1.553276	0.027143
C177	C	0.188297	1.601388	0.000041
C178	C	0.183311	1.553328	-0.027060
C179	C	0.227558	1.457160	-0.027056
C180	C	0.489704	1.457098	-0.180799
C181	C	0.489703	1.553250	-0.225045
C182	C	0.462596	1.601360	-0.274274
C183	C	0.435493	1.553303	-0.279257
C184	C	0.435498	1.457147	-0.235012
H185	H	0.408478	0.330690	0.054278
C186	C	0.351592	0.404178	0.111178
H187	H	0.355470	0.340032	0.107298
H188	H	0.364982	0.366661	0.146828
H189	H	0.315937	0.473221	0.097790
H190	H	0.462597	1.679657	-0.310297
H191	H	0.393082	1.005222	-0.270197
C192	C	0.405803	0.404131	0.219749
H193	H	0.389651	0.446535	0.184098
H194	H	0.429200	0.313342	0.235894
H195	H	0.380164	0.419901	0.235883
H196	H	0.701807	0.592265	0.049264
C197	C	0.129124	1.606246	-0.219609
H198	H	0.103466	1.670433	-0.253011
H199	H	0.125250	1.537211	-0.201227
H200	H	0.125254	1.643737	-0.201216
H201	H	0.359332	0.592356	0.103434
H202	H	0.321771	1.418067	-0.239089
C203	C	0.405642	1.606308	-0.333410
H204	H	0.389491	1.563944	-0.330047
H205	H	0.380007	1.697092	-0.351769
H206	H	0.429005	1.590589	-0.351821
C207	C	0.405677	1.404320	-0.240501
H208	H	0.389530	1.446761	-0.276158
H209	H	0.429059	1.313533	-0.224366
H210	H	0.380033	1.420107	-0.224374
H211	H	0.143220	1.592516	-0.049125
H212	H	0.511870	0.592301	0.239204
H213	H	0.511777	1.417942	-0.140718
H214	H	0.408477	0.679592	0.054260
H215	H	0.393075	1.005232	-0.189923
C216	C	0.405775	0.606050	0.126816
H217	H	0.389645	0.563630	0.130201
H218	H	0.380127	0.696838	0.108418
H219	H	0.429163	0.590269	0.108433
C220	C	-0.008559	1.370254	-0.083924
H221	H	-0.044217	1.440388	-0.100063
H222	H	0.007584	1.375149	-0.060539
H223	H	0.007563	1.375164	-0.109572
H224	H	0.462731	0.330642	0.310474
H225	H	0.223486	1.418019	-0.140756
C226	C	0.335933	0.757871	0.056957
H227	H	0.361572	0.774734	0.053071
H228	H	0.339829	0.709473	0.092607
H229	H	0.339809	0.709490	0.043574
C230	C	0.519640	0.404126	0.333546
H231	H	0.515764	0.339984	0.359194
H232	H	0.555289	0.366603	0.337429
H233	H	0.506258	0.473170	0.337420
C234	C	0.796142	0.404059	0.057006
H235	H	0.792780	0.446439	0.073150
H236	H	0.814527	0.313270	0.082643
H237	H	0.814528	0.419819	0.033620
H238	H	-0.220133	1.336566	-0.076172
C239	C	-0.141299	1.370225	-0.083925
H240	H	-0.176958	1.440353	-0.100065
H241	H	-0.125159	1.375135	-0.060544
H242	H	-0.125178	1.375129	-0.109572
C243	C	-0.317730	1.252443	-0.056820
H244	H	-0.353389	1.322570	-0.072962
H245	H	-0.301592	1.257353	-0.033438
H246	H	-0.301606	1.257349	-0.082466
H247	H	0.701811	0.592276	0.140901
C248	C	0.589369	0.606117	-0.056823
H249	H	0.563727	0.670260	-0.052941
H250	H	0.585480	0.643644	-0.092472
H251	H	0.585492	0.537081	-0.043442
C252	C	0.796173	0.404083	0.219751
H253	H	0.792777	0.446491	0.184096
H254	H	0.814570	0.419837	0.235881
H255	H	0.814565	0.313291	0.235889
H256	H	0.773133	0.330556	0.310484
C257	C	0.026781	0.640033	0.084099
H258	H	0.023407	0.569900	0.100242
H259	H	0.045165	0.635131	0.060715
H260	H	0.045176	0.635128	0.109745
C261	C	0.682424	0.404009	0.333578
H262	H	0.715838	0.339840	0.359216
H263	H	0.664040	0.473018	0.337469
H264	H	0.664046	0.366481	0.337459
H265	H	0.773024	0.330652	0.000080
H266	H	0.223500	1.218864	-0.049117
H267	H	0.516823	0.679601	-0.054133
H268	H	0.152165	1.679800	-0.310339
C269	C	0.682277	0.404198	-0.056824
H270	H	0.715677	0.340051	-0.052952
H271	H	0.663896	0.366687	-0.043439
H272	H	0.663875	0.473253	-0.092475
H273	H	0.603526	0.592232	0.239235
H274	H	0.241459	1.592577	-0.319368
C275	C	0.139631	1.707167	0.000043
H276	H	0.149657	1.728881	0.020068
H277	H	0.119601	1.782209	-0.034480
H278	H	0.119616	1.675650	0.014554
H279	H	0.321860	1.417934	0.049223
H280	H	0.570497	1.005075	-0.473640
C281	C	0.519510	1.606110	-0.219554
H282	H	0.535644	1.563698	-0.183897
H283	H	0.545155	1.590345	-0.235678
H284	H	0.496114	1.696902	-0.235693
H285	H	0.143222	1.218862	-0.049116
H286	H	0.241600	1.592390	0.049214
C287	C	0.243031	0.757839	0.056972
H288	H	0.278690	0.687712	0.073103
H289	H	0.226910	0.752915	0.082619
H290	H	0.226890	0.752947	0.033582
H291	H	0.565966	0.592379	-0.103287
C292	C	0.222069	1.404290	-0.056858
H293	H	0.255468	1.340128	-0.052979
H294	H	0.203682	1.366797	-0.043475
H295	H	0.203673	1.473339	-0.092511
C296	C	0.573702	0.404186	-0.111023
H297	H	0.569823	0.340031	-0.107136
H298	H	0.560312	0.473220	-0.146674
H299	H	0.609358	0.366651	-0.097636
C300	C	0.516830	0.303207	-0.054103
H301	H	0.496823	0.281447	-0.034078
H302	H	0.502316	0.334707	-0.088623
H303	H	0.551362	0.228179	-0.039585
C304	C	0.159511	0.640053	0.084085
H305	H	0.156137	0.569921	0.100228
H306	H	0.177896	0.635149	0.060701
H307	H	0.177905	0.635151	0.109730
H308	H	0.065187	0.673690	0.076348
H309	H	-0.217927	0.791422	0.049264
H310	H	-0.298204	0.791424	0.049262
H311	H	-0.396564	1.218775	-0.049075
H312	H	-0.087399	1.336603	-0.076178
H313	H	-0.067559	0.673685	0.076356
C314	C	0.382219	1.005109	-0.816310
H315	H	0.359399	1.005103	-0.796801
H316	H	0.363285	1.080444	-0.850911
H317	H	0.397972	0.929751	-0.816225
H318	H	0.354813	1.005156	-0.606471
C319	C	0.382199	1.005134	-0.723408
H320	H	0.359378	1.005156	-0.742939
H321	H	0.397934	0.929799	-0.688808
H322	H	0.363263	1.080492	-0.723494
H323	H	0.354804	1.005161	-0.526210
C324	C	0.543070	1.005213	-0.183552
H325	H	0.537576	1.005243	-0.154039
H326	H	0.576158	0.929873	-0.173455
H327	H	0.541466	1.080566	-0.208147
C328	C	0.581469	1.005025	-0.519785
H329	H	0.604295	1.004993	-0.539288
H330	H	0.565732	1.080364	-0.519861
H331	H	0.600400	0.929671	-0.485184
C332	C	0.543095	1.005157	-0.276446
H333	H	0.565908	1.005171	-0.256924
H334	H	0.562035	0.929813	-0.276366
H335	H	0.527350	1.080506	-0.311047
H336	H	0.570528	1.005017	-0.606372
H337	H	0.532219	1.005066	-0.809928
C338	C	0.543160	1.005070	-0.723326
H339	H	0.565986	1.005053	-0.742828
H340	H	0.527416	1.080405	-0.723399
H341	H	0.562092	0.929713	-0.688725
C342	C	0.343851	1.005154	-0.480060
H343	H	0.321033	1.005153	-0.460549
H344	H	0.324917	1.080488	-0.514661
H345	H	0.359603	0.929795	-0.479974
H346	H	0.570486	1.005093	-0.393381
C347	C	0.343841	1.005181	-0.387151
H348	H	0.349332	1.005172	-0.357628
H349	H	0.310756	1.080525	-0.411746
H350	H	0.345437	0.929832	-0.377064
