data_functionalizedCrystal
_audit_creation_method	'MofGen! by Chris Wilmer'
_symmetry_space_group_name_H-M	'P1'
_symmetry_Int_Tables_number	1
_symmetry_cell_setting	triclinic
loop_
_symmetry_equiv_pos_as_xyz
  x,y,z
_cell_length_a	26.455835
_cell_length_b	26.455273
_cell_length_c	26.451828
_cell_angle_alpha	60.005170
_cell_angle_beta	60.010757
_cell_angle_gamma	59.993435
loop_
_atom_site_label
_atom_site_type_symbol
_atom_site_fract_x
_atom_site_fract_y
_atom_site_fract_z
O1	O	0.069940	-0.738516	0.617604
O2	O	0.026299	-0.574986	0.497618
O3	O	0.129847	-0.678463	0.497546
O4	O	-0.033607	-0.635040	0.617676
O5	O	0.164197	-0.644116	0.531822
O6	O	0.060649	-0.540639	0.531894
O7	O	0.104290	-0.704170	0.651880
Cu8	Cu	0.085606	-0.619268	0.595016
Cu9	Cu	0.044984	-0.659887	0.554481
O10	O	0.000742	-0.600693	0.651952
N11	N	0.114179	-0.590703	0.623530
N12	N	0.016416	-0.688458	0.525968
C13	C	0.157553	-0.547535	0.933368
C14	C	0.424104	-0.547506	0.666656
C15	C	0.157413	-0.547503	0.666729
C16	C	0.157397	-0.280846	0.666749
C17	C	0.200330	-0.409550	0.709625
C18	C	0.200339	-0.504608	0.709615
C19	C	0.224118	-0.480848	0.733375
C20	C	0.327800	-0.462984	0.678792
C21	C	0.392611	-0.484588	0.657175
C22	C	0.392630	-0.589450	0.697162
C23	C	0.327821	-0.567844	0.718781
C24	C	0.215955	-0.377135	0.645910
C25	C	0.194327	-0.312320	0.624323
C26	C	0.141457	-0.312339	0.730169
C27	C	0.163084	-0.377154	0.751756
C28	C	0.136618	-0.488954	0.725292
C29	C	0.115007	-0.510553	0.703686
C30	C	0.220833	-0.563461	0.650740
C31	C	0.242447	-0.541861	0.672339
C32	C	0.136680	-0.488971	0.837094
C33	C	0.115112	-0.510589	0.901907
C34	C	0.220969	-0.563508	0.901868
C35	C	0.242535	-0.541892	0.837053
C36	C	0.200389	-0.504622	0.804668
C37	C	0.295409	-0.504610	0.709593
C38	C	0.132990	-0.570876	1.004655
C39	C	0.495389	-0.570440	0.642547
C40	C	0.132802	-0.570856	0.643399
C41	C	0.133212	-0.209553	0.643833
C42	C	-0.097217	-0.706972	0.506986
C43	C	-0.002040	-0.707108	0.412067
C44	C	-0.002230	-0.802124	0.507163
C45	C	-0.002214	-0.707101	0.507221
C46	C	-0.025925	-0.730827	0.483360
N47	N	0.553723	-0.590712	0.623415
O48	O	0.751638	-0.596429	0.475603
O49	O	0.751819	-0.716773	0.638980
O50	O	0.751753	-0.716500	0.535361
O51	O	0.751705	-0.596703	0.579222
O52	O	0.648791	-0.682239	0.569747
O53	O	0.648858	-0.682512	0.673366
O54	O	0.648676	-0.562169	0.509989
Cu55	Cu	0.639366	-0.619212	0.594817
Cu56	Cu	0.761130	-0.659729	0.554152
O57	O	0.648743	-0.562442	0.613609
N58	N	0.846773	-0.688230	0.525548
N59	N	0.114157	-0.151217	0.623565
O60	O	-0.033591	0.046803	0.617717
O61	O	0.129795	0.046806	0.497390
O62	O	0.026157	0.046789	0.497680
O63	O	0.070046	0.046819	0.617427
O64	O	0.060509	-0.056181	0.532004
O65	O	0.164146	-0.056164	0.531714
O66	O	0.000760	-0.056167	0.652041
Cu67	Cu	0.085590	-0.065568	0.595012
Cu68	Cu	0.044965	0.056206	0.554419
O69	O	0.104397	-0.056151	0.651751
N70	N	0.016390	0.141855	0.525867
N71	N	0.114410	-0.590756	1.062992
O72	O	0.108565	-0.738494	1.260998
O73	O	-0.011747	-0.575059	1.261012
O74	O	-0.011470	-0.678679	1.260970
O75	O	0.108287	-0.634874	1.261040
O76	O	0.022849	-0.644347	1.158004
O77	O	0.022572	-0.540726	1.158046
O78	O	0.142884	-0.704162	1.158033
Cu79	Cu	0.085861	-0.619309	1.148638
Cu80	Cu	0.045275	-0.659911	1.270406
O81	O	0.142606	-0.600541	1.158074
N82	N	0.016726	-0.688471	1.356052
C83	C	0.039385	-0.537207	0.498225
C84	C	0.167616	-0.665350	0.498136
C85	C	0.091204	-0.741950	0.651272
C86	C	-0.037027	-0.613806	0.651361
C87	C	0.700360	-0.716215	0.676756
C88	C	0.700279	-0.715877	0.548436
C89	C	0.700133	-0.562725	0.472214
C90	C	0.700218	-0.563065	0.600533
C91	C	0.167511	-0.004552	0.497940
C92	C	0.039211	-0.004699	0.498341
C93	C	-0.036999	-0.004682	0.651449
C94	C	0.091344	-0.004663	0.651090
C95	C	-0.011156	-0.537302	1.209530
C96	C	-0.010806	-0.665617	1.209458
C97	C	0.142293	-0.741918	1.209514
C98	C	0.141950	-0.613596	1.209563
H99	H	0.102355	-0.458618	0.810728
H100	H	0.179573	-0.604224	1.209577
O101	O	-0.092978	-0.004596	0.696541
C102	C	-0.120378	0.048748	0.713138
H103	H	-0.082832	0.066531	0.700576
H104	H	-0.146283	0.036763	0.765105
H105	H	-0.154174	0.086086	0.687154
O106	O	0.304412	-0.556989	0.805488
C107	C	0.320056	-0.502530	0.768012
H108	H	0.277334	-0.461803	0.758319
H109	H	0.357625	-0.508323	0.722428
H110	H	0.337861	-0.493429	0.792984
O111	O	0.147873	-0.408549	0.813672
C112	C	0.110345	-0.366057	0.846228
H113	H	0.118597	-0.319851	0.815323
H114	H	0.122514	-0.384792	0.889475
H115	H	0.059581	-0.359169	0.860213
O116	O	0.187282	-0.797957	1.209535
C117	C	0.165005	-0.836471	1.209491
H118	H	0.112272	-0.819696	1.228976
H119	H	0.183989	-0.886071	1.239377
H120	H	0.180742	-0.834789	1.160085
O121	O	0.027995	-0.004604	0.453409
C122	C	0.034864	0.048712	0.401189
H123	H	0.028164	0.085996	0.415992
H124	H	-0.001217	0.066601	0.379241
H125	H	0.083196	0.036652	0.366108
O126	O	0.223665	-0.676482	0.453205
C127	C	0.262126	-0.737324	0.475585
H128	H	0.245319	-0.753716	0.528319
H129	H	0.311736	-0.738114	0.456634
H130	H	0.260426	-0.769339	0.459899
O131	O	0.102662	-0.004692	0.695917
C132	C	0.163514	-0.004676	0.673358
H133	H	0.192791	-0.024164	0.633612
H134	H	0.184363	-0.034575	0.712127
H135	H	0.162597	0.044724	0.656093
H136	H	0.700208	-0.525435	0.609919
O137	O	-0.055651	-0.676873	1.209463
C138	C	-0.069907	-0.726996	1.262768
H139	H	-0.029009	-0.756657	1.280590
H140	H	-0.079780	-0.756229	1.250719
H141	H	-0.112460	-0.708636	1.300098
O142	O	0.700090	-0.517724	0.416198
C143	C	0.700060	-0.540008	0.377674
H144	H	0.719600	-0.592745	0.394416
H145	H	0.729903	-0.520999	0.328072
H146	H	0.650653	-0.524301	0.379383
O147	O	0.223427	-0.004292	0.452835
C148	C	0.270326	-0.057506	0.473753
H149	H	0.253463	-0.075483	0.526523
H150	H	0.313382	-0.045274	0.455620
H151	H	0.282057	-0.094791	0.456032
O152	O	0.053200	-0.495295	0.933303
C153	C	0.020631	-0.457776	0.890817
H154	H	0.051526	-0.434215	0.844613
H155	H	-0.022615	-0.421104	0.909556
H156	H	0.006647	-0.487670	0.883927
O157	O	0.261994	-0.599716	0.933226
C158	C	0.322850	-0.608874	0.890705
H159	H	0.322707	-0.601629	0.844510
H160	H	0.353644	-0.658029	0.909413
H161	H	0.341408	-0.574372	0.883807
O162	O	-0.056162	-0.481280	1.209561
C163	C	-0.033874	-0.442755	1.209569
H164	H	0.005866	-0.472532	1.229073
H165	H	-0.072782	-0.413091	1.239466
H166	H	-0.016684	-0.411490	1.160177
H167	H	0.419022	-0.640939	0.704632
O168	O	0.102411	-0.798033	0.696154
C169	C	0.163258	-0.836435	0.673704
H170	H	0.179595	-0.819565	0.620970
H171	H	0.164097	-0.886059	0.692615
H172	H	0.195285	-0.834732	0.689374
H173	H	0.063121	-0.497793	0.716436
O174	O	0.095689	-0.452676	0.761406
C175	C	0.058185	-0.398320	0.728701
H176	H	0.083189	-0.389300	0.676845
H177	H	0.048386	-0.357497	0.740304
H178	H	0.012652	-0.404208	0.742507
O179	O	0.261770	-0.599554	0.614443
C180	C	0.299222	-0.566815	0.560098
H181	H	0.274173	-0.514963	0.551105
H182	H	0.309017	-0.578400	0.519263
H183	H	0.344759	-0.580609	0.565982
O184	O	0.304337	-0.556951	0.657046
C185	C	0.319962	-0.502483	0.624444
H186	H	0.283404	-0.463550	0.602526
H187	H	0.367002	-0.511008	0.586666
H188	H	0.322116	-0.488845	0.657778
O189	O	-0.093006	-0.602704	0.696386
C190	C	-0.104085	-0.552589	0.710672
H191	H	-0.058116	-0.547620	0.696984
H192	H	-0.129140	-0.561420	0.762499
H193	H	-0.133959	-0.508206	0.684086
H194	H	0.700405	-0.753994	0.723681
H195	H	0.301449	-0.601745	0.743862
H196	H	0.418982	-0.450689	0.632093
H197	H	0.246280	-0.403511	0.611604
O198	O	0.296385	-0.401535	0.669760
C199	C	0.312181	-0.368095	0.605767
H200	H	0.359232	-0.396416	0.580239
H201	H	0.314396	-0.322405	0.597204
H202	H	0.275690	-0.358424	0.588113
O203	O	0.209395	-0.280800	0.562433
C204	C	0.154922	-0.243295	0.546792
H205	H	0.116003	-0.262835	0.583336
H206	H	0.163440	-0.242548	0.499741
H207	H	0.141276	-0.194177	0.544650
O208	O	0.105363	-0.280833	0.771064
C209	C	0.134804	-0.243319	0.761712
H210	H	0.186758	-0.262843	0.738180
H211	H	0.125792	-0.242580	0.808267
H212	H	0.115669	-0.194199	0.731129
H213	H	0.700298	-0.753510	0.539047
O214	O	0.028158	-0.481143	0.453324
C215	C	-0.032679	-0.442731	0.475784
H216	H	-0.062020	-0.472602	0.515541
H217	H	-0.053464	-0.413049	0.436968
H218	H	-0.031746	-0.411481	0.493003
