data_functionalizedCrystal
_audit_creation_method	'MofGen! by Chris Wilmer'
_symmetry_space_group_name_H-M	'P1'
_symmetry_Int_Tables_number	1
_symmetry_cell_setting	triclinic
loop_
_symmetry_equiv_pos_as_xyz
  x,y,z
_cell_length_a	10.967819
_cell_length_b	14.044220
_cell_length_c	9.482900
_cell_angle_alpha	100.188801
_cell_angle_beta	68.706355
_cell_angle_gamma	88.854482
loop_
_atom_site_label
_atom_site_type_symbol
_atom_site_fract_x
_atom_site_fract_y
_atom_site_fract_z
O1	O	1.753045	0.064847	-0.560092
O2	O	2.253045	0.564847	-0.060092
O3	O	1.377292	0.089041	-0.465957
O4	O	1.877292	0.589041	0.034043
O5	O	1.559526	-0.060902	-0.511597
O6	O	2.059526	0.439098	-0.011597
O7	O	1.570811	0.214790	-0.514452
O8	O	2.070811	0.714790	-0.014452
O9	O	1.522524	-0.030327	-0.260537
O10	O	2.022524	0.469673	0.239463
O11	O	1.340289	0.119617	-0.214898
O12	O	1.840289	0.619617	0.285102
O13	O	1.716043	0.095422	-0.309032
O14	O	2.216043	0.595422	0.190968
Cu15	Cu	1.524788	0.110311	-0.239041
Cu16	Cu	2.024788	0.610311	0.260959
Cu17	Cu	1.568547	0.074152	-0.535948
Cu18	Cu	2.068547	0.574152	-0.035948
O19	O	1.533808	0.245365	-0.263393
O20	O	2.033808	0.745365	0.236607
C21	C	1.310412	0.104878	-0.328307
C22	C	1.810412	0.604878	0.171693
C23	C	1.166257	0.106502	-0.292193
C24	C	1.666257	0.606502	0.207807
C25	C	0.972176	0.093072	-0.368851
C26	C	1.472176	0.593072	0.131149
C27	C	1.121166	0.091388	-0.406168
C28	C	1.621166	0.591388	0.093832
C29	C	1.536087	-0.080809	-0.384829
C30	C	2.036087	0.419191	0.115171
C31	C	1.521359	-0.185678	-0.381138
C32	C	2.021359	0.314322	0.118862
C33	C	1.494436	-0.377689	-0.374414
C34	C	1.994436	0.122311	0.125586
C35	C	1.598895	-0.437855	-0.400588
C36	C	2.098895	0.062145	0.099412
C37	C	1.583915	-0.544696	-0.396846
C38	C	2.083915	-0.044696	0.103154
C39	C	1.509414	-0.270837	-0.378155
C40	C	2.009414	0.229163	0.121845
C41	C	1.782923	0.079585	-0.446686
C42	C	2.282923	0.579585	0.053314
C43	C	1.927080	0.077960	-0.482810
C44	C	2.427080	0.577960	0.017190
C45	C	1.557248	0.265272	-0.390164
C46	C	2.057248	0.765272	0.109836
C47	C	1.571978	0.370139	-0.393865
C48	C	2.071978	0.870139	0.106135
N49	N	1.494019	0.135742	-0.030215
N50	N	1.994019	0.635742	0.469785
N51	N	1.599325	0.048713	-0.744777
N52	N	2.099325	0.548713	-0.244777
C53	C	1.559462	0.081649	0.025594
C54	C	2.059462	0.581649	0.525594
C55	C	1.533872	0.102815	0.199420
C56	C	2.033872	0.602815	0.699420
H57	H	0.998773	0.063780	-0.608001
H58	H	1.498773	0.563780	-0.108001
H59	H	1.674298	-0.013276	0.174323
H60	H	2.174298	0.486724	0.674323
H61	H	1.458889	0.164797	0.280324
H62	H	1.958889	0.664797	0.780324
H63	H	1.393762	-0.406419	-0.349196
H64	H	1.893762	0.093581	0.150804
H65	H	0.900482	0.107262	-0.243660
H66	H	1.400482	0.607262	0.256340
H67	H	1.419041	0.197721	0.050692
H68	H	1.919041	0.697721	0.550692
H69	H	1.634431	0.019663	-0.055309
H70	H	2.134431	0.519663	0.444691
H71	H	1.192856	0.077207	-0.531368
H72	H	1.692856	0.577207	-0.031368
H73	H	1.699593	-0.409136	-0.425912
H74	H	2.199593	0.090864	0.074088
H75	H	1.094568	0.120694	-0.166992
H76	H	1.594568	0.620694	0.333008
