data_functionalizedCrystal
_audit_creation_method	'MofGen! by Chris Wilmer'
_symmetry_space_group_name_H-M	'P1'
_symmetry_Int_Tables_number	1
_symmetry_cell_setting	triclinic
loop_
_symmetry_equiv_pos_as_xyz
  x,y,z
_cell_length_a	10.540539
_cell_length_b	10.540510
_cell_length_c	9.730223
_cell_angle_alpha	90.000321
_cell_angle_beta	90.002389
_cell_angle_gamma	84.519401
loop_
_atom_site_label
_atom_site_type_symbol
_atom_site_fract_x
_atom_site_fract_y
_atom_site_fract_z
O1	O	1.685868	0.178899	0.114217
O2	O	1.316454	0.195755	0.114233
O3	O	1.509609	0.002618	0.114224
O4	O	1.492713	0.372036	0.114226
O5	O	1.509591	0.002619	-0.114356
O6	O	1.316436	0.195756	-0.114347
O7	O	1.685851	0.178900	-0.114363
Zn8	Zn	1.501141	0.187328	-0.150647
Zn9	Zn	1.501164	0.187327	0.150517
O10	O	1.492696	0.372037	-0.114354
C11	C	1.269142	0.194492	-0.000055
C12	C	1.128194	0.190710	-0.000048
C13	C	0.944783	0.045791	-0.000583
C14	C	1.091401	0.049624	-0.000053
C15	C	1.066524	0.258605	0.130477
C16	C	0.919980	0.253790	0.130572
C17	C	0.919472	0.256662	-0.129366
C18	C	1.066454	0.257961	-0.131077
C19	C	1.508341	-0.044685	-0.000063
C20	C	1.504574	-0.185635	-0.000055
C21	C	1.638758	-0.403090	-0.000584
C22	C	1.642776	-0.256495	-0.000062
C23	C	1.433838	-0.230394	0.130476
C24	C	1.430799	-0.377155	0.130578
C25	C	1.427901	-0.376962	-0.129360
C26	C	1.434456	-0.230621	-0.131078
C27	C	1.733163	0.180164	-0.000072
C28	C	1.874110	0.183946	-0.000070
C29	C	1.493964	0.419340	-0.000064
C30	C	1.497731	0.560290	-0.000063
N31	N	1.501134	0.187329	-0.356183
C32	C	1.415594	0.272812	-0.428141
C33	C	1.415620	0.272809	-0.572024
C34	C	1.586730	0.101830	-0.571979
C35	C	1.586709	0.101839	-0.428099
C36	C	1.330019	0.358301	-0.356225
C37	C	1.244471	0.443790	-0.428183
C38	C	1.244497	0.443787	-0.572065
C39	C	1.330070	0.358296	-0.643991
N40	N	1.501180	0.187317	0.356053
H41	H	1.107414	0.208361	-0.227639
C42	C	0.906151	-0.029507	-0.127036
C43	C	1.007996	-0.081107	-0.231574
C44	C	0.969350	-0.156404	-0.358032
C45	C	0.828861	-0.180101	-0.379954
C46	C	0.727008	-0.128501	-0.275414
C47	C	0.765653	-0.053204	-0.148955
H48	H	1.112002	-0.063566	-0.215348
H49	H	1.044750	-0.194602	-0.435420
H50	H	0.800254	-0.235840	-0.473567
H51	H	0.623001	-0.146042	-0.291639
H52	H	0.690253	-0.015006	-0.071568
H53	H	1.174807	0.513401	-0.369613
H54	H	1.327432	-0.400150	0.136497
H55	H	1.174849	0.513404	-0.630652
H56	H	1.479154	-0.417371	0.228148
C57	C	1.486899	-0.434288	-0.263023
C58	C	1.599248	-0.538829	-0.256469
C59	C	1.658262	-0.596157	-0.390124
C60	C	1.604927	-0.548945	-0.530332
C61	C	1.492571	-0.444399	-0.536891
C62	C	1.433557	-0.387070	-0.403237
H63	H	1.638736	-0.573783	-0.152674
H64	H	1.741435	-0.673549	-0.385267
H65	H	1.648613	-0.591383	-0.629271
H66	H	1.453084	-0.409444	-0.640686
H67	H	1.350384	-0.309678	-0.408093
C68	C	1.680846	0.007785	-0.651092
C69	C	1.680867	0.007767	-0.809355
C70	C	1.774982	-0.086283	-0.888465
C71	C	1.869077	-0.180315	-0.809313
C72	C	1.869060	-0.180301	-0.651041
C73	C	1.774945	-0.086250	-0.571931
H74	H	1.611209	0.077378	-0.867956
H75	H	1.774994	-0.086294	-1.005629
H76	H	1.938747	-0.249937	-0.867875
H77	H	1.938718	-0.249912	-0.592440
H78	H	1.774933	-0.086240	-0.454767
C79	C	1.711498	-0.459786	-0.127034
C80	C	1.664062	-0.423044	-0.272682
C81	C	1.736800	-0.479756	-0.399135
C82	C	1.856976	-0.573208	-0.379938
C83	C	1.904418	-0.609955	-0.234283
C84	C	1.831679	-0.553243	-0.107831
H85	H	1.575095	-0.353860	-0.286898
H86	H	1.701680	-0.452553	-0.506958
H87	H	1.910821	-0.615189	-0.473546
H88	H	1.993385	-0.679138	-0.220067
H89	H	1.866800	-0.580446	-0.000007
H90	H	0.872234	0.358566	-0.130247
H91	H	1.332096	-0.183005	0.135334
H92	H	1.324138	-0.399112	-0.130234
H93	H	1.330092	0.358310	-0.761150
H94	H	1.656365	0.032232	-0.369511
H95	H	1.134013	-0.003798	-0.093620
H96	H	0.914589	-0.009710	0.092503
H97	H	1.482976	-0.199538	0.227612
H98	H	1.329988	0.358308	-0.239068
H99	H	0.891783	0.203608	0.228141
C100	C	1.147825	-0.023038	0.126576
C101	C	1.059453	-0.084732	0.227537
C102	C	1.115876	-0.157393	0.354176
C103	C	1.260671	-0.168360	0.379854
C104	C	1.349051	-0.106664	0.278890
C105	C	1.292628	-0.034003	0.152251
H106	H	0.952259	-0.076616	0.208531
H107	H	1.050450	-0.203065	0.428916
H108	H	1.302438	-0.222148	0.473599
H109	H	1.456245	-0.114781	0.297895
H110	H	1.358054	0.011668	0.077511
H111	H	1.485926	-0.202009	-0.227643
H112	H	0.872001	0.355256	0.136497
H113	H	1.088867	0.362214	0.135334
H114	H	1.109125	0.211440	0.227617
C115	C	1.099155	0.396924	-0.141721
C116	C	1.171894	0.440462	-0.267828
C117	C	1.204594	0.579431	-0.278458
C118	C	1.164555	0.674862	-0.162980
C119	C	1.091812	0.631326	-0.036864
C120	C	1.059112	0.492357	-0.026235
H121	H	1.201537	0.369817	-0.353320
H122	H	1.258444	0.611659	-0.371818
H123	H	1.188762	0.777735	-0.170849
H124	H	1.062169	0.701971	0.048627
H125	H	1.005262	0.460129	0.067125
H126	H	1.698123	-0.227150	-0.093630
H127	H	0.887923	0.211003	-0.228303
H128	H	1.333557	-0.181554	-0.138956
H129	H	1.692297	-0.446596	0.092492
H130	H	1.698459	-0.228090	0.093664
