data_functionalizedCrystal
_audit_creation_method	'MofGen! by Chris Wilmer'
_symmetry_space_group_name_H-M	'P1'
_symmetry_Int_Tables_number	1
_symmetry_cell_setting	triclinic
loop_
_symmetry_equiv_pos_as_xyz
  x,y,z
_cell_length_a	13.339070
_cell_length_b	13.330367
_cell_length_c	13.262508
_cell_angle_alpha	74.076694
_cell_angle_beta	99.430496
_cell_angle_gamma	90.009798
loop_
_atom_site_label
_atom_site_type_symbol
_atom_site_fract_x
_atom_site_fract_y
_atom_site_fract_z
O1	O	1.344488	-0.060297	0.526832
O2	O	1.049672	-0.041433	0.457680
O3	O	1.204502	-0.009768	0.341622
O4	O	1.189658	-0.091962	0.642890
O5	O	1.204478	-0.176620	0.341641
O6	O	1.049648	-0.208286	0.457699
O7	O	1.344464	-0.227149	0.526851
Cu8	Cu	1.197054	-0.232952	0.492277
Cu9	Cu	1.197082	-0.035630	0.492254
O10	O	1.189634	-0.258814	0.642909
C11	C	1.011922	-0.121673	0.446009
C12	C	0.899475	-0.112174	0.411190
N13	N	1.197042	-0.371738	0.492294
C14	C	0.535813	-0.186021	0.681920
C15	C	0.641462	-0.194943	0.714637
C16	C	0.705970	-0.174252	0.638778
C17	C	0.664819	-0.144637	0.530197
C18	C	0.559159	-0.135706	0.497476
C19	C	0.729317	-0.123937	0.454334
C20	C	0.688166	-0.094321	0.345753
C21	C	0.582516	-0.085393	0.313038
C22	C	0.518008	-0.106084	0.388897
C23	C	0.834977	-0.132868	0.487055
C24	C	0.858324	-0.082552	0.302611
C25	C	0.752674	-0.073630	0.269894
C26	C	1.258788	-0.866615	0.573903
C27	C	1.135407	-0.822045	0.410572
C28	C	1.135392	-0.717029	0.410584
C29	C	1.197077	-0.686803	0.492256
C30	C	1.258777	-0.761591	0.573916
C31	C	1.073702	-0.642232	0.328919
C32	C	1.073685	-0.537210	0.328928
C33	C	1.135366	-0.506982	0.410605
C34	C	1.197067	-0.581778	0.492269
C35	C	1.258752	-0.551551	0.573941
C36	C	1.320449	-0.626347	0.655610
C37	C	1.320457	-0.731364	0.655594
C38	C	1.135357	-0.401965	0.410622
C39	C	1.258741	-0.446527	0.573954
C40	C	1.382214	-0.146907	0.538522
C41	C	1.494661	-0.156399	0.573341
C42	C	1.203660	-0.082457	0.302285
C43	C	1.201175	-0.050463	0.185041
N44	N	1.197103	0.103158	0.492231
C45	C	1.194112	-0.324094	-0.145425
C46	C	1.196439	-0.354154	-0.035269
C47	C	1.197624	-0.278234	0.019814
C48	C	1.196480	-0.172249	-0.035270
C49	C	1.194145	-0.142185	-0.145438
C50	C	1.197656	-0.096325	0.019801
C51	C	1.196512	0.009661	-0.035283
C52	C	1.194178	0.039719	-0.145439
C53	C	1.192994	-0.036201	-0.200522
C54	C	1.199992	-0.126389	0.129969
C55	C	1.200024	0.055520	0.129956
C56	C	1.197697	0.085581	0.019800
C57	C	1.190476	-0.186123	0.682246
C58	C	1.192961	-0.218110	0.799490
H59	H	0.868471	-0.156985	0.575462
H60	H	1.085193	-0.846661	0.344073
H61	H	1.023490	-0.666850	0.262420
H62	H	0.431979	-0.098821	0.362264
H63	H	0.791994	-0.181516	0.665423
C64	C	1.196430	0.202164	-0.040807
N65	N	1.195474	0.289974	-0.086458
H66	H	0.910847	-0.065700	0.240840
C67	C	1.005810	-0.454946	0.239097
N68	N	0.954682	-0.392985	0.171438
C69	C	1.388325	-0.813642	0.745416
N70	N	1.439446	-0.875618	0.813066
H71	H	0.719154	-0.049509	0.181485
C72	C	1.190430	-0.003139	-0.321701
N73	N	1.188498	0.021760	-0.412975
C74	C	1.197698	-0.470735	0.025314
N75	N	1.198647	-0.558550	0.070947
C76	C	1.201330	0.139039	0.190543
N77	N	1.202313	0.201939	0.236184
C78	C	1.200194	-0.311306	0.140990
N79	N	1.202136	-0.336220	0.232265
H80	H	1.309016	-0.927518	0.640399
C81	C	1.067495	-0.319697	0.320791
N82	N	1.016376	-0.257732	0.253127
H83	H	1.193141	-0.385896	-0.190285
H84	H	1.308969	-0.421927	0.640466
C85	C	0.537253	-0.052816	0.193595
N86	N	0.503163	-0.028284	0.103630
C87	C	1.192973	0.156304	-0.206020
N88	N	1.192090	0.244116	-0.251644
H89	H	0.674960	-0.219048	0.803044
H90	H	0.483282	-0.202856	0.743673
C91	C	1.388307	-0.593081	0.745442
N92	N	1.439417	-0.568021	0.813100
H93	H	1.200914	-0.212683	0.174806
