data_functionalizedCrystal
_audit_creation_method	'MofGen! by Chris Wilmer'
_symmetry_space_group_name_H-M	'P1'
_symmetry_Int_Tables_number	1
_symmetry_cell_setting	triclinic
loop_
_symmetry_equiv_pos_as_xyz
  x,y,z
_cell_length_a	12.837943
_cell_length_b	27.732048
_cell_length_c	26.210047
_cell_angle_alpha	89.990375
_cell_angle_beta	89.984667
_cell_angle_gamma	88.735798
loop_
_atom_site_label
_atom_site_type_symbol
_atom_site_fract_x
_atom_site_fract_y
_atom_site_fract_z
O1	O	1.373461	0.125565	-0.042431
O2	O	1.071754	0.119362	-0.042434
O3	O	1.231978	0.052531	-0.042423
O4	O	1.213237	0.192396	-0.042442
O5	O	1.231928	0.052528	0.042435
O6	O	1.071704	0.119359	0.042424
O7	O	1.373411	0.125562	0.042427
Cu8	Cu	1.222553	0.122461	0.050174
Cu9	Cu	1.222612	0.122463	-0.050181
O10	O	1.213187	0.192393	0.042416
C11	C	1.033142	0.117265	-0.000005
C12	C	0.918165	0.111016	-0.000006
C13	C	1.231559	0.034503	0.000008
C14	C	1.230375	-0.019210	0.000012
C15	C	0.676003	0.186145	-0.000009
C16	C	0.567972	0.180275	-0.000009
C17	C	0.594068	0.093408	-0.000002
C18	C	0.702100	0.099277	-0.000002
C19	C	0.743063	0.145647	-0.000006
C20	C	0.851097	0.151516	-0.000010
C21	C	0.877191	0.064649	0.000001
C22	C	0.769159	0.058780	0.000001
C23	C	1.317599	-0.353704	-0.000014
C24	C	1.313204	-0.555581	-0.000021
O25	O	1.392964	-0.582885	-0.000043
N26	N	1.218198	-0.579412	-0.000021
C27	C	1.124284	-0.552771	-0.000023
O28	O	1.043375	-0.577672	-0.000029
C29	C	1.128680	-0.350894	-0.000020
C30	C	1.223692	-0.327066	-0.000014
C31	C	1.412603	-0.329876	-0.000009
C32	C	1.413701	-0.279409	-0.000004
C33	C	1.319794	-0.252771	-0.000005
C34	C	1.224790	-0.276600	-0.000010
C35	C	1.034768	-0.324253	-0.000025
C36	C	1.035875	-0.273781	-0.000025
C37	C	1.130887	-0.249953	-0.000020
C38	C	1.131981	-0.199495	-0.000005
N39	N	1.226987	-0.175664	-0.000005
C40	C	1.320894	-0.202302	-0.000005
C41	C	1.121983	-0.658759	-0.000024
C42	C	1.120883	-0.709228	-0.000024
C43	C	1.309804	-0.712035	-0.000023
C44	C	1.310902	-0.661565	-0.000019
C45	C	1.216989	-0.634928	-0.000024
C46	C	1.323192	-0.096319	0.000005
C47	C	1.324281	-0.045848	0.000012
C48	C	1.135362	-0.043046	0.000008
C49	C	1.134272	-0.093512	0.000004
C50	C	1.228195	-0.120148	0.000001
O51	O	1.052264	-0.172161	0.000011
O52	O	1.401791	-0.177392	-0.000010
C53	C	1.316501	-0.404170	-0.000018
C54	C	1.221497	-0.427999	-0.000023
C55	C	1.127590	-0.401361	-0.000024
C56	C	1.220398	-0.478468	-0.000023
C57	C	1.314304	-0.505106	-0.000023
C58	C	1.409310	-0.481275	-0.000023
C59	C	1.410408	-0.430808	-0.000018
C60	C	1.032584	-0.425191	-0.000024
C61	C	1.031494	-0.475658	-0.000028
C62	C	1.125401	-0.502296	-0.000028
C63	C	1.412023	0.127659	-0.000003
C64	C	1.527000	0.133908	-0.000006
C65	C	1.213605	0.210421	-0.000016
C66	C	1.214790	0.264134	-0.000024
N67	N	1.222519	0.122459	0.120758
N68	N	1.222654	0.122462	-0.120765
C69	C	1.284953	0.154663	0.473268
C70	C	1.284984	0.154664	0.686926
O71	O	1.338044	0.182039	0.714545
N72	N	1.222637	0.122460	0.713651
C73	C	1.160283	0.090251	0.686958
O74	O	1.107261	0.062856	0.714592
C75	C	1.160258	0.090248	0.473301
C76	C	1.222602	0.122457	0.446579
C77	C	1.347292	0.186870	0.446546
C78	C	1.347280	0.186871	0.393134
C79	C	1.284928	0.154665	0.366445
C80	C	1.222589	0.122459	0.393167
C81	C	1.097910	0.058037	0.446609
C82	C	1.097912	0.058038	0.393191
C83	C	1.160255	0.090248	0.366469
C84	C	1.160225	0.090254	0.313067
N85	N	1.222572	0.122459	0.286342
C86	C	1.284924	0.154664	0.313031
C87	C	1.160298	0.090255	0.799132
C88	C	1.160303	0.090256	0.852546
C89	C	1.285006	0.154669	0.852510
C90	C	1.284995	0.154670	0.799095
C91	C	1.222645	0.122460	0.772407
C92	C	1.284892	0.154664	0.200863
C93	C	1.284870	0.154664	0.147447
C94	C	1.160172	0.090250	0.147487
C95	C	1.160189	0.090252	0.200899
C96	C	1.222557	0.122461	0.227585
O97	O	1.107201	0.062890	0.285415
O98	O	1.337954	0.182048	0.285388
C99	C	1.284966	0.154662	0.526679
C100	C	1.222627	0.122455	0.553402
C101	C	1.160275	0.090249	0.526712
C102	C	1.222631	0.122456	0.606816
C103	C	1.284983	0.154662	0.633505
C104	C	1.347330	0.186866	0.606780
C105	C	1.347317	0.186867	0.553368
C106	C	1.097928	0.058045	0.553437
C107	C	1.097945	0.058047	0.606849
C108	C	1.160296	0.090253	0.633538
H109	H	0.884447	0.189273	-0.000012
H110	H	1.398051	0.213098	0.371382
H111	H	1.045503	-0.637075	-0.000027
F112	F	0.933641	-0.349602	-0.000033
H113	H	1.047145	0.031807	0.468357
H114	H	0.735791	0.021026	0.000010
F115	F	1.093917	0.055977	0.770735
H116	H	0.709356	0.223901	-0.000013
F117	F	1.093814	0.055977	0.119073
F118	F	0.496605	0.223379	-0.000010
H119	H	1.335760	0.180898	0.777341
F120	F	1.019759	-0.734582	-0.000020
H121	H	1.056905	-0.112914	0.000014
F122	F	1.511533	-0.405455	-0.000015
F123	F	0.948569	0.021546	-0.000003
H124	H	1.047139	0.031807	0.371464
F125	F	0.550453	0.044061	0.000008
F126	F	1.093826	0.055975	0.229339
F127	F	1.425410	-0.020492	0.000018
H128	H	1.399674	-0.118000	0.000001
H129	H	1.047154	0.031818	0.531712
H130	H	1.491070	-0.260013	-0.000002
H131	H	1.489078	-0.351559	-0.000011
F132	F	1.412025	-0.636210	-0.000013
H133	H	1.398094	0.213091	0.628520
H134	H	1.386266	-0.733732	-0.000022
H135	H	1.335678	0.180892	0.222585
H136	H	0.959398	-0.252096	-0.000030
H137	H	1.485772	-0.502972	-0.000020
H138	H	1.058906	-0.021348	0.000010
F139	F	0.930362	-0.501012	-0.000030
F140	F	0.932630	-0.396848	-0.000026
H141	H	1.398084	0.213096	0.531616
F142	F	1.351221	0.188950	0.119010
H143	H	1.335771	0.180894	0.874250
F144	F	1.413662	0.221150	0.474942
F145	F	1.031579	0.023765	0.635283
F146	F	1.093934	0.055981	0.880980
