data_functionalizedCrystal
_audit_creation_method	'MofGen! by Chris Wilmer'
_symmetry_space_group_name_H-M	'P1'
_symmetry_Int_Tables_number	1
_symmetry_cell_setting	triclinic
loop_
_symmetry_equiv_pos_as_xyz
  x,y,z
_cell_length_a	19.288864
_cell_length_b	19.288859
_cell_length_c	17.766277
_cell_angle_alpha	89.993887
_cell_angle_beta	89.976791
_cell_angle_gamma	83.134986
loop_
_atom_site_label
_atom_site_type_symbol
_atom_site_fract_x
_atom_site_fract_y
_atom_site_fract_z
O1	O	0.921351	0.086649	-0.062835
O2	O	0.719090	0.098338	-0.062784
O3	O	0.826067	-0.008637	-0.062806
O4	O	0.814374	0.193624	-0.062812
O5	O	0.826049	-0.008643	0.062382
O6	O	0.719072	0.098332	0.062405
O7	O	0.921332	0.086644	0.062353
Cu8	Cu	0.820200	0.092487	0.073810
Cu9	Cu	0.820222	0.092494	-0.074240
O10	O	0.814355	0.193619	0.062376
C11	C	0.693204	0.097959	-0.000183
C12	C	0.616101	0.096830	-0.000163
C13	C	0.571403	0.159598	-0.000177
C14	C	0.498956	0.158537	-0.000185
C15	C	0.471210	0.094705	-0.000195
C16	C	0.515918	0.031929	-0.000177
C17	C	0.588363	0.032991	-0.000161
C18	C	0.362956	0.044528	-0.044078
C19	C	0.290511	0.043468	-0.044098
C20	C	0.247765	0.091425	-0.000240
C21	C	0.277470	0.140455	0.043629
C22	C	0.349915	0.141517	0.043644
C23	C	0.392656	0.093546	-0.000211
C24	C	0.124511	0.153048	-0.000262
C25	C	0.052063	0.151984	-0.000265
C26	C	0.069026	0.025374	-0.000265
C27	C	0.141472	0.026439	-0.000254
C28	C	0.169210	0.090278	-0.000256
C29	C	0.825682	-0.034516	-0.000213
C30	C	0.824555	-0.111620	-0.000214
C31	C	0.879698	-0.675661	-0.000248
C32	C	0.880764	-0.603214	-0.000241
C33	C	0.817994	-0.558508	-0.000225
C34	C	0.754155	-0.586253	-0.000197
C35	C	0.753092	-0.658698	-0.000196
C36	C	0.771188	-0.437232	-0.044071
C37	C	0.772254	-0.364788	-0.044077
C38	C	0.821272	-0.335062	-0.000225
C39	C	0.869235	-0.377789	0.043622
C40	C	0.868172	-0.450235	0.043623
C41	C	0.819141	-0.479952	-0.000226
C42	C	0.886262	-0.228770	-0.000242
C43	C	0.887325	-0.156322	-0.000231
C44	C	0.760715	-0.139362	-0.000194
C45	C	0.759654	-0.211809	-0.000197
C46	C	0.822430	-0.256509	-0.000225
C47	C	0.947218	0.087022	-0.000249
C48	C	1.024322	0.088151	-0.000274
C49	C	0.814740	0.219498	-0.000219
C50	C	0.815868	0.296602	-0.000223
N51	N	0.820190	0.092483	0.177940
N52	N	0.820238	0.092493	-0.178370
C53	C	0.867574	0.045137	0.217317
C54	C	0.867578	0.045134	0.296119
C55	C	0.820204	0.092488	0.335541
C56	C	0.772811	0.139837	0.296154
C57	C	0.772804	0.139834	0.217354
C58	C	0.810904	0.155776	0.460378
C59	C	0.810916	0.155780	0.539177
C60	C	0.820223	0.092496	0.578587
C61	C	0.829532	0.029207	0.539188
C62	C	0.829525	0.029204	0.460388
C63	C	0.820207	0.092496	0.420986
C64	C	0.867615	0.045144	0.703410
C65	C	0.867614	0.045139	0.782213
C66	C	0.772849	0.139849	0.782247
C67	C	0.772847	0.139847	0.703445
C68	C	0.820233	0.092495	0.664031
H69	H	0.462556	0.209652	-0.000194
Br70	Br	0.931921	-0.019121	0.649917
H71	H	0.177866	-0.024674	-0.000247
H72	H	0.837110	-0.022324	0.571274
H73	H	0.906157	0.006579	0.185228
Br74	Br	0.668967	-0.525581	-0.000168
H75	H	0.939306	-0.133741	-0.000246
Br76	Br	0.931920	-0.019126	0.835658
H77	H	0.493322	-0.020044	-0.000195
H78	H	0.837103	-0.022328	0.428313
H79	H	0.932744	-0.580626	-0.000261
Br80	Br	-0.008601	0.237177	-0.000277
H81	H	0.701111	-0.681280	-0.000174
H82	H	0.709607	-0.102962	-0.000175
Br83	Br	0.931891	-0.019127	0.349568
Br84	Br	0.390228	0.208051	0.103179
Br85	Br	0.649029	-0.052201	-0.000141
Br86	Br	0.933258	-0.508220	0.103131
Br87	Br	0.708548	0.204108	0.835742
H88	H	0.242666	0.179506	0.079343
H89	H	0.909146	-0.353588	0.079336
Br90	Br	0.162160	0.239684	-0.000259
H91	H	0.734265	0.178403	0.671383
H92	H	0.731263	-0.461427	-0.079775
H93	H	0.593982	0.211581	-0.000180
H94	H	0.046436	-0.026600	-0.000319
Br95	Br	0.798291	0.241671	0.592639
H96	H	0.266331	0.003548	-0.079822
H97	H	0.397755	0.005473	-0.079797
H98	H	0.803314	0.207312	0.428297
H99	H	0.930816	-0.712052	-0.000266
Br100	Br	0.708512	0.204099	0.349653
Br101	Br	0.708490	0.204093	0.163909
H102	H	0.937378	-0.265167	-0.000264
H103	H	0.707676	-0.234392	-0.000183
H104	H	0.733203	-0.330005	-0.079784
