data_functionalizedCrystal
_audit_creation_method	'MofGen! by Chris Wilmer'
_symmetry_space_group_name_H-M	'P1'
_symmetry_Int_Tables_number	1
_symmetry_cell_setting	triclinic
loop_
_symmetry_equiv_pos_as_xyz
  x,y,z
_cell_length_a	21.295417
_cell_length_b	16.625547
_cell_length_c	21.295411
_cell_angle_alpha	90.031012
_cell_angle_beta	89.978356
_cell_angle_gamma	89.970308
loop_
_atom_site_label
_atom_site_type_symbol
_atom_site_fract_x
_atom_site_fract_y
_atom_site_fract_z
Zn1	Zn	-0.250695	-1.232667	-0.356020
Zn2	Zn	0.249305	-0.732667	0.143980
Zn3	Zn	-0.355946	-1.232542	-0.250745
Zn4	Zn	0.144054	-0.732542	0.249255
Zn5	Zn	-0.250694	-1.097819	-0.250753
Zn6	Zn	0.249306	-0.597819	0.249247
Zn7	Zn	-0.355928	-1.097780	-0.355965
Zn8	Zn	0.144072	-0.597780	0.144035
O9	O	-0.303316	-1.165202	-0.303371
O10	O	0.196684	-0.665202	0.196629
O11	O	-0.264664	-1.345483	-0.342075
O12	O	0.235336	-0.845483	0.157925
O13	O	-0.341992	-1.214635	-0.162657
O14	O	0.158008	-0.714635	0.337343
O15	O	-0.162604	-1.115776	-0.264743
O16	O	0.337396	-0.615776	0.235257
O17	O	-0.341993	-1.345391	-0.264730
O18	O	0.158007	-0.845391	0.235270
O19	O	-0.162605	-1.214848	-0.342082
O20	O	0.337395	-0.714848	0.157918
O21	O	-0.264663	-1.115655	-0.162662
O22	O	0.235337	-0.615655	0.337338
O23	O	-0.264645	-0.984982	-0.264690
O24	O	0.235355	-0.484982	0.235310
O25	O	-0.341962	-1.115709	-0.444062
O26	O	0.158038	-0.615709	0.055938
O27	O	-0.341961	-0.984953	-0.341989
O28	O	0.158039	-0.484953	0.158011
O29	O	-0.264647	-1.214810	-0.444102
O30	O	0.235353	-0.714810	0.055898
O31	O	-0.444033	-1.214597	-0.264677
O32	O	0.055967	-0.714597	0.235323
O33	O	-0.444020	-1.115588	-0.341981
O34	O	0.055980	-0.615588	0.158019
C35	C	-0.303301	-0.955711	-0.303335
C36	C	0.196699	-0.455711	0.196665
C37	C	-0.303310	-0.866090	-0.303334
C38	C	0.196690	-0.366090	0.196666
C39	C	-0.303311	-0.793308	-0.303340
C40	C	0.196689	-0.293308	0.196660
C41	C	-0.303313	-0.701999	-0.303353
C42	C	0.196687	-0.201999	0.196647
C43	C	-0.303318	-0.629223	-0.303366
C44	C	0.196682	-0.129223	0.196634
C45	C	-0.303322	-0.537909	-0.303379
C46	C	0.196678	-0.037909	0.196621
C47	C	-0.466867	-1.165096	-0.303336
C48	C	0.033133	-0.665096	0.196664
C49	C	-0.536835	-1.165125	-0.303342
C50	C	-0.036835	-0.665125	0.196658
C51	C	-0.569688	-1.216725	-0.263131
C52	C	-0.069688	-0.716725	0.236869
C53	C	-0.635431	-1.216762	-0.263145
C54	C	-0.135431	-0.716762	0.236855
C55	C	-0.668318	-1.165186	-0.303364
C56	C	-0.168318	-0.665186	0.196636
C57	C	-0.635457	-1.113583	-0.343583
C58	C	-0.135457	-0.613583	0.156417
C59	C	-0.569716	-1.113552	-0.343572
C60	C	-0.069716	-0.613552	0.156428
N61	N	-0.771584	-1.094652	-0.308150
N62	N	-0.271584	-0.594652	0.191850
N63	N	-0.834035	-1.094683	-0.308157
N64	N	-0.334035	-0.594683	0.191843
C65	C	-0.866393	-1.165276	-0.303400
C66	C	-0.366393	-0.665276	0.196600
N67	N	-0.833939	-1.235839	-0.298623
N68	N	-0.333939	-0.735839	0.201377
N69	N	-0.771482	-1.235807	-0.298613
N70	N	-0.271482	-0.735807	0.201387
C71	C	-0.739603	-1.165214	-0.303380
C72	C	-0.239603	-0.665214	0.196620
C73	C	-0.970531	-1.216921	-0.263202
C74	C	-0.470531	-0.716921	0.236798
C75	C	-1.036275	-1.216961	-0.263220
C76	C	-0.536275	-0.716961	0.236780
C77	C	-1.036300	-1.113774	-0.343655
C78	C	-0.536300	-0.613774	0.156345
C79	C	-0.970558	-1.113742	-0.343640
C80	C	-0.470558	-0.613742	0.156360
C81	C	-0.937677	-1.165315	-0.303410
C82	C	-0.437677	-0.665315	0.196590
C83	C	-0.139125	-1.165330	-0.303419
C84	C	0.360875	-0.665330	0.196581
C85	C	-0.069157	-1.165385	-0.303440
C86	C	0.430843	-0.665385	0.196560
C87	C	-0.303302	-1.165269	-0.467561
C88	C	0.196698	-0.665269	0.032439
C89	C	-0.303297	-1.165298	-0.537529
C90	C	0.196703	-0.665298	-0.037529
C91	C	-0.303328	-0.375511	-0.303400
C92	C	0.196672	0.124489	0.196600
C93	C	-0.303327	-0.465132	-0.303392
C94	C	0.196673	0.034868	0.196608
C95	C	-0.263037	-1.216897	-0.570418
C96	C	0.236963	-0.716897	-0.070418
C97	C	-0.263010	-1.216896	-0.636160
C98	C	0.236990	-0.716896	-0.136160
C99	C	-0.303253	-1.165304	-0.669012
C100	C	0.196747	-0.665304	-0.169012
C101	C	-0.343516	-1.113694	-0.636115
C102	C	0.156484	-0.613694	-0.136115
C103	C	-0.343538	-1.113691	-0.570374
C104	C	0.156462	-0.613691	-0.070374
N105	N	-0.358321	-1.159083	-0.772227
N106	N	0.141679	-0.659083	-0.272227
N107	N	-0.358299	-1.159091	-0.834678
N108	N	0.141701	-0.659091	-0.334678
C109	C	-0.303190	-1.165309	-0.867087
C110	C	0.196810	-0.665309	-0.367087
N111	N	-0.248102	-1.171535	-0.834684
N112	N	0.251898	-0.671535	-0.334684
N113	N	-0.248126	-1.171531	-0.772227
N114	N	0.251874	-0.671531	-0.272227
C115	C	-0.303234	-1.165301	-0.740297
C116	C	0.196766	-0.665301	-0.240297
C117	C	-0.262897	-1.216910	-0.971261
C118	C	0.237103	-0.716910	-0.471261
C119	C	-0.262869	-1.216903	-1.037005
C120	C	0.237131	-0.716903	-0.537005
C121	C	-0.343380	-1.113706	-1.036958
C122	C	0.156620	-0.613706	-0.536958
C123	C	-0.343403	-1.113708	-0.971216
C124	C	0.156597	-0.613708	-0.471216
C125	C	-0.303162	-1.165315	-0.938371
C126	C	0.196838	-0.665315	-0.438371
C127	C	-0.303284	-1.165182	-0.139819
C128	C	0.196716	-0.665182	0.360181
C129	C	-0.303112	-1.165310	-0.069851
C130	C	0.196888	-0.665310	0.430149
H131	H	-0.542919	-1.258720	-0.230375
H132	H	-0.042919	-0.758720	0.269625
H133	H	-0.542967	-1.071533	-0.376317
H134	H	-0.042967	-0.571533	0.123683
H135	H	-0.230127	-1.258926	-0.944517
H136	H	0.269873	-0.758926	-0.444517
F137	F	-0.670402	-1.271683	-0.220344
F138	F	-0.170402	-0.771683	0.279656
F139	F	-0.386206	-1.058791	-1.071917
F140	F	0.113794	-0.558791	-0.571917
F141	F	-0.220024	-1.271835	-1.072007
F142	F	0.279976	-0.771835	-0.572007
F143	F	-0.935535	-1.271808	-0.220386
F144	F	-0.435535	-0.771808	0.279614
H145	H	-1.063022	-1.258984	-0.230477
H146	H	-0.563022	-0.758984	0.269523
F147	F	-1.071297	-1.058887	-0.386463
F148	F	-0.571297	-0.558887	0.113537
F149	F	-0.386256	-1.058791	-0.936212
F150	F	0.113744	-0.558791	-0.436212
H151	H	-0.230269	-1.258918	-0.543680
H152	H	0.269731	-0.758918	-0.043680
F153	F	-0.935592	-1.058818	-0.386436
F154	F	-0.435592	-0.558818	0.113564
H155	H	-0.230222	-1.258913	-0.662943
H156	H	0.269778	-0.758913	-0.162943
H157	H	-0.376280	-1.071685	-0.662867
H158	H	0.123720	-0.571685	-0.162867
H159	H	-0.376321	-1.071669	-0.543596
H160	H	0.123679	-0.571669	-0.043596
H161	H	-0.662238	-1.071590	-0.376330
H162	H	-0.162238	-0.571590	0.123670
