data_functionalizedCrystal
_audit_creation_method	'MofGen! by Chris Wilmer'
_symmetry_space_group_name_H-M	'P1'
_symmetry_Int_Tables_number	1
_symmetry_cell_setting	triclinic
loop_
_symmetry_equiv_pos_as_xyz
  x,y,z
_cell_length_a	14.971498
_cell_length_b	9.730217
_cell_length_c	14.971486
_cell_angle_alpha	89.990291
_cell_angle_beta	83.616562
_cell_angle_gamma	89.997155
loop_
_atom_site_label
_atom_site_type_symbol
_atom_site_fract_x
_atom_site_fract_y
_atom_site_fract_z
O1	O	1.186936	-0.114272	0.116620
O2	O	0.926537	-0.114279	0.130567
O3	O	1.063716	-0.114265	-0.006606
O4	O	1.049757	-0.114285	0.253793
O5	O	1.063708	0.114315	-0.006623
O6	O	0.926530	0.114301	0.130550
O7	O	1.186928	0.114308	0.116603
Zn8	Zn	1.056728	0.150597	0.123574
Zn9	Zn	1.056738	-0.150567	0.123596
O10	O	1.049750	0.114295	0.253776
C11	C	0.893209	0.000010	0.129933
C12	C	0.793912	0.000008	0.128058
C13	C	1.063088	0.000024	-0.039939
C14	C	1.061217	0.000023	-0.139237
N15	N	1.056745	-0.356104	0.123605
C16	C	1.220257	0.000016	0.117237
C17	C	1.319553	0.000009	0.119112
C18	C	1.366202	-0.124591	0.120003
C19	C	1.459502	-0.124593	0.121757
C20	C	1.506152	0.000007	0.122627
C21	C	1.459497	0.124618	0.121733
C22	C	1.366199	0.124618	0.119972
C23	C	1.653960	0.124608	0.125405
C24	C	1.747264	0.124609	0.127167
C25	C	1.747263	-0.124603	0.127190
C26	C	1.653965	-0.124602	0.125429
C27	C	1.607316	0.000008	0.124537
C28	C	1.178438	-0.643816	0.002316
C29	C	1.239302	-0.571851	-0.058291
C30	C	1.239316	-0.427972	-0.058267
C31	C	1.178459	-0.356054	0.002369
C32	C	1.117595	-0.428019	0.062975
C33	C	1.117588	-0.571902	0.062946
C34	C	0.995881	-0.428069	0.184211
C35	C	0.995870	-0.571949	0.184193
C36	C	0.935024	-0.356151	0.244847
C37	C	0.874163	-0.428116	0.305459
C38	C	0.874151	-0.572004	0.305433
C39	C	0.935006	-0.643914	0.244799
N40	N	1.056727	0.356133	0.123558
C41	C	1.141806	0.000026	-0.196458
C42	C	1.140043	0.000012	-0.289758
C43	C	1.057690	0.000005	-0.325834
C44	C	0.977095	-0.000002	-0.268605
C45	C	0.978859	0.000002	-0.175307
C46	C	0.973424	-0.000007	-0.463067
C47	C	0.971660	-0.000009	-0.556371
C48	C	1.134608	0.000003	-0.577518
C49	C	1.136372	0.000007	-0.484221
C50	C	1.055776	0.000002	-0.426998
C51	C	1.050378	0.000002	0.287110
C52	C	1.052248	-0.000006	0.386407
H53	H	1.328226	-0.226056	0.119301
H54	H	1.178467	-0.238899	0.002377
H55	H	0.824585	-0.630591	0.354782
H56	H	0.904601	0.000007	-0.585741
O57	O	1.792653	-0.245566	0.128174
C58	C	1.836560	-0.253042	0.206607
H59	H	1.847192	-0.144858	0.232664
H60	H	1.904425	-0.305786	0.190440
H61	H	1.793570	-0.314527	0.260140
O62	O	0.897153	-0.000193	-0.303753
C63	C	0.891253	-0.118594	-0.357057
H64	H	0.961728	-0.158059	-0.380211
H65	H	0.855531	-0.091969	-0.418192
H66	H	0.851729	-0.201492	-0.315874
O67	O	1.792450	0.245766	0.127956
C68	C	1.731272	0.355751	0.126802
H69	H	1.668435	0.319224	0.097261
H70	H	1.763863	0.442883	0.083899
H71	H	1.712048	0.394084	0.198309
H72	H	1.615980	0.226080	0.124689
O73	O	0.935028	-0.216387	0.245037
C74	C	0.953153	-0.168389	0.330030
H75	H	0.934776	-0.251340	0.382657
H76	H	0.911661	-0.072134	0.348214
H77	H	1.027676	-0.142880	0.327946
H78	H	1.203431	0.000023	-0.454851
H79	H	1.497480	-0.226055	0.122477
H80	H	1.497487	0.226069	0.122435
H81	H	0.935005	-0.761068	0.244776
O82	O	0.895193	0.000173	-0.407390
C83	C	0.891325	0.118577	-0.352822
H84	H	0.962325	0.158045	-0.348031
H85	H	0.858082	0.091957	-0.282735
H86	H	0.850439	0.201473	-0.383571
H87	H	1.328218	0.226081	0.119256
O88	O	1.298396	-0.358205	-0.117263
C89	C	1.283912	-0.393261	-0.205885
H90	H	1.249443	-0.497723	-0.205920
H91	H	1.351161	-0.398157	-0.249712
H92	H	1.239421	-0.312254	-0.233686
H93	H	1.615984	-0.226063	0.124728
O94	O	1.212817	-0.000069	-0.633227
C95	C	1.193605	-0.000052	-0.723310
H96	H	1.123347	-0.043330	-0.726958
H97	H	1.244970	-0.066421	-0.765510
H98	H	1.196965	0.109605	-0.750308
O99	O	1.178524	-0.783580	0.002151
C100	C	1.245305	-0.831625	-0.064340
H101	H	1.260953	-0.748682	-0.117568
H102	H	1.220140	-0.927858	-0.097039
H103	H	1.308821	-0.857185	-0.032180
H104	H	1.205667	0.000018	-0.336345
H105	H	0.913235	-0.000001	-0.128717
H106	H	0.824613	-0.369551	0.354819
O107	O	1.298560	-0.641527	-0.117150
C108	C	1.387054	-0.606382	-0.102242
H109	H	1.386885	-0.501951	-0.067720
H110	H	1.431163	-0.601377	-0.169323
H111	H	1.414674	-0.687397	-0.057630
O112	O	1.221883	-0.000031	-0.161567
C113	C	1.292633	-0.000002	-0.232084
H114	H	1.267489	-0.043276	-0.295484
H115	H	1.350125	-0.066368	-0.212518
H116	H	1.317497	0.109658	-0.245272
