data_functionalizedCrystal
_audit_creation_method	'MofGen! by Chris Wilmer'
_symmetry_space_group_name_H-M	'P1'
_symmetry_Int_Tables_number	1
_symmetry_cell_setting	triclinic
loop_
_symmetry_equiv_pos_as_xyz
  x,y,z
_cell_length_a	23.532407
_cell_length_b	14.044220
_cell_length_c	13.101039
_cell_angle_alpha	93.667477
_cell_angle_beta	93.338869
_cell_angle_gamma	91.981223
loop_
_atom_site_label
_atom_site_type_symbol
_atom_site_fract_x
_atom_site_fract_y
_atom_site_fract_z
O1	O	0.764361	-0.109747	0.085276
O2	O	0.599399	-0.126389	0.085265
O3	O	0.679404	0.019893	0.085260
O4	O	0.684357	-0.256028	0.085281
O5	O	0.673664	0.009380	-0.085169
O6	O	0.593660	-0.136901	-0.085164
O7	O	0.758622	-0.120260	-0.085154
Zn8	Zn	0.675230	-0.130250	-0.112218
Zn9	Zn	0.682791	-0.116399	0.112330
O10	O	0.678617	-0.266541	-0.085149
C11	C	0.575291	-0.131221	0.000049
C12	C	0.512004	-0.129948	0.000045
C13	C	0.782730	-0.115427	0.000065
C14	C	0.846017	-0.116700	0.000075
C15	C	0.674366	0.049930	0.000045
C16	C	0.667900	0.155095	0.000043
C17	C	1.240860	-0.038128	0.000034
C18	C	1.300324	-0.039311	0.000030
O19	O	1.333119	0.033526	-0.000012
N20	N	1.327664	-0.126275	0.000039
C21	C	1.295536	-0.212062	0.000043
O22	O	1.324251	-0.286140	0.000049
C23	C	1.236073	-0.210877	0.000040
C24	C	1.208736	-0.123907	0.000041
C25	C	1.213523	0.048835	0.000034
C26	C	1.154063	0.050019	0.000040
C27	C	1.121940	-0.035760	0.000047
C28	C	1.149276	-0.122723	0.000047
C29	C	1.203946	-0.296663	0.000036
C30	C	1.144479	-0.295471	0.000032
C31	C	1.117142	-0.208501	0.000033
C32	C	1.057693	-0.207319	0.000060
N33	N	1.030353	-0.120356	0.000051
C34	C	1.062476	-0.034576	0.000044
C35	C	1.420413	-0.214542	0.000047
C36	C	1.479876	-0.215727	0.000057
C37	C	1.484659	-0.042977	0.000042
C38	C	1.425196	-0.041792	0.000039
C39	C	1.393073	-0.127578	0.000037
C40	C	0.937606	-0.032097	0.000058
C41	C	0.878140	-0.030921	0.000069
C42	C	0.873362	-0.203671	0.000078
C43	C	0.932822	-0.204848	0.000073
C44	C	0.964943	-0.119053	0.000060
O45	O	1.024861	-0.280119	0.000098
O46	O	1.033753	0.039489	0.000024
C47	C	0.683655	-0.296579	0.000069
C48	C	0.690121	-0.401743	0.000077
N49	N	0.670073	-0.139702	-0.265467
C50	C	0.656080	0.347646	0.000057
C51	C	0.701939	0.405712	0.000063
C52	C	0.695362	0.512854	0.000071
C53	C	0.662656	0.240494	0.000049
C54	C	0.663058	-0.152571	-0.474509
C55	C	0.694966	-0.094073	-0.525386
C56	C	0.691062	-0.101233	-0.641705
C57	C	0.666960	-0.145412	-0.358180
N58	N	0.687952	-0.106939	0.265578
H59	H	0.963751	0.037765	0.000048
C60	C	0.622198	-0.227497	-0.533669
C61	C	0.617898	-0.234030	-0.651665
C62	C	0.577042	-0.308959	-0.710839
C63	C	0.540486	-0.377355	-0.652016
C64	C	0.544785	-0.370824	-0.534013
C65	C	0.585641	-0.295895	-0.474839
H66	H	0.644960	-0.183398	-0.695216
H67	H	0.573859	-0.313793	-0.798193
H68	H	0.510241	-0.432821	-0.695820
H69	H	0.517723	-0.421456	-0.490463
H70	H	0.588824	-0.291061	-0.387485
H71	H	0.855886	0.039904	0.000072
H72	H	0.746142	0.374961	0.000135
H73	H	1.131811	0.120839	0.000037
H74	H	0.725215	-0.038614	-0.481586
C75	C	1.248852	0.143204	0.000032
C76	C	1.287408	0.160713	-0.088462
C77	C	1.322732	0.255090	-0.088455
C78	C	1.319500	0.331958	0.000047
C79	C	1.280942	0.314451	0.088548
C80	C	1.245618	0.220075	0.088540
H81	H	1.289802	0.103809	-0.153983
H82	H	1.351275	0.268049	-0.153969
H83	H	1.345649	0.401822	0.000052
H84	H	1.278548	0.371356	0.154068
H85	H	1.217075	0.207115	0.154055
C86	C	1.520001	0.051385	0.000024
C87	C	1.558555	0.068853	-0.088484
C88	C	1.593898	0.163208	-0.088503
C89	C	1.590687	0.240095	-0.000013
C90	C	1.552132	0.222629	0.088502
C91	C	1.516790	0.128273	0.088520
H92	H	1.560932	0.011935	-0.153996
H93	H	1.622438	0.176138	-0.154028
H94	H	1.616850	0.309942	-0.000027
H95	H	1.549755	0.279547	0.154013
H96	H	1.488249	0.115344	0.154045
C97	C	0.596369	0.389186	0.000056
C98	C	0.589792	0.497899	0.000061
C99	C	0.530082	0.539453	0.000058
C100	C	0.476950	0.472293	0.000049
C101	C	0.483526	0.363573	0.000043
C102	C	0.543235	0.322019	0.000047
H103	H	0.629125	0.547621	0.000068
H104	H	0.525215	0.619935	0.000063
H105	H	0.432749	0.503053	0.000047
H106	H	0.444193	0.313851	0.000037
H107	H	0.548103	0.241537	0.000042
C108	C	1.385082	-0.308914	0.000062
C109	C	1.394272	-0.374867	0.088572
C110	C	1.358944	-0.469238	0.088586
C111	C	1.314426	-0.497656	0.000090
C112	C	1.305234	-0.431702	-0.088427
C113	C	1.340562	-0.337331	-0.088441
H114	H	1.427228	-0.353832	0.154089
H115	H	1.365748	-0.518062	0.154113
H116	H	1.288274	-0.567515	0.000100
H117	H	1.272278	-0.452737	-0.153944
H118	H	1.333757	-0.288507	-0.153968
H119	H	1.502129	-0.286546	0.000071
C120	C	1.109144	-0.389839	0.000036
C121	C	1.118332	-0.455802	0.088538
C122	C	1.082999	-0.550168	0.088545
C123	C	1.038478	-0.578572	0.000050
C124	C	1.029288	-0.512608	-0.088459
C125	C	1.064621	-0.418241	-0.088466
H126	H	1.151291	-0.434777	0.154053
H127	H	1.089802	-0.598998	0.154066
H128	H	1.012322	-0.648427	0.000055
H129	H	0.996329	-0.533633	-0.153975
H130	H	1.057818	-0.369411	-0.153987
H131	H	1.402943	0.029026	0.000039
H132	H	0.847196	-0.273510	0.000089
H133	H	1.226193	-0.367483	0.000040
H134	H	0.955081	-0.275666	0.000074
