data_functionalizedCrystal
_audit_creation_method	'MofGen! by Chris Wilmer'
_symmetry_space_group_name_H-M	'P1'
_symmetry_Int_Tables_number	1
_symmetry_cell_setting	triclinic
loop_
_symmetry_equiv_pos_as_xyz
  x,y,z
_cell_length_a	12.645331
_cell_length_b	21.295417
_cell_length_c	12.645323
_cell_angle_alpha	89.966008
_cell_angle_beta	89.977324
_cell_angle_gamma	90.029485
loop_
_atom_site_label
_atom_site_type_symbol
_atom_site_fract_x
_atom_site_fract_y
_atom_site_fract_z
Zn1	Zn	1.620637	-0.250621	-0.599379
Zn2	Zn	1.620479	-0.355896	-0.422091
Zn3	Zn	1.443351	-0.250643	-0.422123
Zn4	Zn	1.443294	-0.355855	-0.599306
O5	O	1.531940	-0.303254	-0.510725
O6	O	1.768963	-0.264595	-0.575878
O7	O	1.596941	-0.341960	-0.273748
O8	O	1.466959	-0.162550	-0.445681
O9	O	1.768847	-0.341939	-0.445625
O10	O	1.597210	-0.162535	-0.575910
O11	O	1.466806	-0.264631	-0.273772
O12	O	1.294996	-0.264591	-0.445610
O13	O	1.466860	-0.341869	-0.747663
O14	O	1.294954	-0.341890	-0.575786
O15	O	1.597154	-0.264555	-0.747717
O16	O	1.596884	-0.443980	-0.445555
O17	O	1.466707	-0.443950	-0.575754
C18	C	1.256510	-0.303239	-0.510694
C19	C	1.138680	-0.303247	-0.510706
C20	C	1.531801	-0.466805	-0.510666
C21	C	1.531839	-0.536773	-0.510677
C22	C	0.971108	-0.254395	-0.429265
C23	C	1.093667	-0.254521	-0.428906
C24	C	1.094135	-0.369560	-0.480174
C25	C	0.971537	-0.369293	-0.479618
C26	C	0.971537	-0.286418	-0.622995
C27	C	1.094144	-0.284937	-0.622372
C28	C	1.599682	-0.569635	-0.442951
C29	C	1.599732	-0.635377	-0.442975
C30	C	1.531919	-0.668256	-0.510713
C31	C	1.464071	-0.635386	-0.578452
C32	C	1.464031	-0.569645	-0.578433
N33	N	1.439183	-0.771521	-0.518784
N34	N	1.439224	-0.833972	-0.518796
C35	C	1.532038	-0.866331	-0.510774
N36	N	1.624811	-0.833879	-0.502720
N37	N	1.624768	-0.771421	-0.502703
C38	C	1.531956	-0.739541	-0.510741
C39	C	1.599941	-0.970478	-0.443071
C40	C	1.599993	-1.036221	-0.443102
C41	C	1.464322	-1.036229	-0.578573
C42	C	1.464280	-0.970487	-0.578547
C43	C	1.532088	-0.937615	-0.510791
C44	C	1.808445	-0.303269	-0.510756
C45	C	1.926275	-0.303276	-0.510770
C46	C	1.532018	-0.303205	-0.787230
C47	C	1.532052	-0.303184	-0.905061
C48	C	1.532109	-0.139063	-0.510807
C49	C	1.532180	-0.069095	-0.510842
C50	C	1.449831	-0.351594	-1.072591
C51	C	1.450046	-0.351833	-0.950031
C52	C	1.643744	-0.321189	-0.949576
C53	C	1.643293	-0.321492	-1.072174
C54	C	1.503635	-0.236500	-1.072276
C55	C	1.501143	-0.236899	-0.949670
C56	C	1.531923	-0.303257	-0.235295
C57	C	1.532096	-0.303100	-0.117466
H58	H	1.123787	-0.205348	-0.448045
O59	O	1.727112	-0.275888	-0.910984
H60	H	1.764882	-0.252533	-0.979816
H61	H	1.367222	-0.340567	-0.919932
H62	H	1.655158	-0.943712	-0.387902
O63	O	1.339788	-0.336810	-1.111620
H64	H	1.308756	-0.377413	-1.157045
O65	O	0.930650	-0.223483	-0.659779
H66	H	0.877605	-0.203514	-0.598474
O67	O	1.582998	-0.188641	-1.110725
H68	H	1.623225	-0.166962	-1.041807
O69	O	1.474452	-0.416579	-1.113442
H70	H	1.555121	-0.430375	-1.087861
H71	H	0.942886	-0.383589	-0.397575
O72	O	0.932032	-0.189074	-0.454322
H73	H	0.958384	-0.175565	-0.534925
H74	H	0.942545	-0.322021	-0.683723
H75	H	1.654898	-0.542873	-0.387782
O76	O	1.676257	-0.385002	-0.908907
H77	H	1.755356	-0.397208	-0.940921
H78	H	1.122941	-0.265663	-0.345743
O79	O	1.574716	-0.186505	-0.909140
H80	H	1.634734	-0.208012	-0.856339
H81	H	1.655246	-1.062976	-0.387954
O82	O	1.474793	-0.417251	-0.911167
H83	H	1.486687	-0.448834	-0.979941
O84	O	1.675233	-0.385983	-1.110069
H85	H	1.690851	-0.416661	-1.040830
H86	H	1.706664	-0.287705	-1.101861
O87	O	1.391098	-0.935034	-0.651583
H88	H	1.337182	-0.905129	-0.604069
O89	O	0.932236	-0.419162	-0.554825
H90	H	1.000799	-0.443367	-0.591422
O91	O	1.132750	-0.419099	-0.556329
H92	H	1.184229	-0.396928	-0.616889
H93	H	1.654982	-0.662138	-0.387825
H94	H	1.418947	-0.223321	-0.920574
O95	O	1.397620	-0.214761	-1.113190
H96	H	1.364029	-0.251188	-1.166198
H97	H	1.124785	-0.384101	-0.399012
H98	H	0.940256	-0.265413	-0.346591
H99	H	1.408859	-0.662160	-0.633606
O100	O	1.390834	-0.534195	-0.651463
H101	H	1.343678	-0.568100	-0.698564
H102	H	1.123266	-0.236138	-0.645395
H103	H	1.409112	-1.062998	-0.633731
H104	H	1.124789	-0.317942	-0.686348
