data_functionalizedCrystal
_audit_creation_method	'MofGen! by Chris Wilmer'
_symmetry_space_group_name_H-M	'P1'
_symmetry_Int_Tables_number	1
_symmetry_cell_setting	triclinic
loop_
_symmetry_equiv_pos_as_xyz
  x,y,z
_cell_length_a	21.295417
_cell_length_b	16.120530
_cell_length_c	16.120297
_cell_angle_alpha	90.128140
_cell_angle_beta	87.132998
_cell_angle_gamma	92.874222
loop_
_atom_site_label
_atom_site_type_symbol
_atom_site_fract_x
_atom_site_fract_y
_atom_site_fract_z
Zn1	Zn	-0.318915	-1.247391	0.534523
Zn2	Zn	-0.419125	-1.254326	0.395453
Zn3	Zn	-0.308278	-1.115383	0.388443
Zn4	Zn	-0.418545	-1.108282	0.527422
O5	O	-0.366216	-1.181345	0.461460
O6	O	-0.336903	-1.364676	0.521981
O7	O	-0.400212	-1.241769	0.278158
O8	O	-0.221604	-1.132963	0.407859
O9	O	-0.410526	-1.369771	0.419806
O10	O	-0.229419	-1.229949	0.515184
O11	O	-0.318773	-1.139688	0.273008
O12	O	-0.318211	-0.998075	0.400973
O13	O	-0.409538	-1.120862	0.644729
O14	O	-0.399224	-0.992859	0.503081
O15	O	-0.336340	-1.223064	0.649946
O16	O	-0.507133	-1.234884	0.412921
O17	O	-0.506707	-1.127586	0.509878
C18	C	-0.357501	-0.965295	0.450496
C19	C	-0.353788	-0.872866	0.445825
C20	C	-0.529761	-1.181239	0.461409
C21	C	-0.599731	-1.181268	0.461418
C22	C	-0.374061	-1.170397	0.678353
C23	C	-0.377404	-1.165731	0.770780
C24	C	-0.632802	-1.237182	0.410990
C25	C	-0.698547	-1.237220	0.411010
C26	C	-0.731217	-1.181329	0.461450
C27	C	-0.698138	-1.125411	0.511889
C28	C	-0.632395	-1.125380	0.511873
N29	N	-0.831783	-1.108264	0.464098
N30	N	-0.894236	-1.108296	0.464108
C31	C	-0.929297	-1.181420	0.461503
N32	N	-0.899546	-1.254514	0.458870
N33	N	-0.837087	-1.254481	0.458855
C34	C	-0.802504	-1.181357	0.461473
C35	C	-1.033657	-1.237380	0.411094
C36	C	-1.099403	-1.237419	0.411120
C37	C	-1.098992	-1.125603	0.511994
C38	C	-1.033248	-1.125571	0.511973
C39	C	-1.000584	-1.181459	0.461518
C40	C	-0.202033	-1.181474	0.461531
C41	C	-0.132068	-1.181529	0.461562
C42	C	-0.374966	-1.398240	0.472468
C43	C	-0.378694	-1.490667	0.477159
C44	C	-0.346996	-0.703638	0.437305
C45	C	-0.385485	-0.659891	0.485677
C46	C	-0.381705	-0.565726	0.480936
C47	C	-0.350774	-0.797811	0.442045
C48	C	-0.358358	-1.192299	0.245413
C49	C	-0.354844	-1.197126	0.152995
C50	C	-0.383493	-1.157183	0.940004
C51	C	-0.348757	-1.205672	0.983777
C52	C	-0.352144	-1.200915	1.077938
C53	C	-0.380106	-1.161938	0.845834
H54	H	-0.725479	-1.282755	0.369945
H55	H	-0.415774	-1.112102	0.973246
C56	C	-0.273716	-1.310459	0.997644
C57	C	-0.305178	-1.266542	0.938907
H58	H	-0.246812	-1.348033	0.969939
H59	H	-0.303621	-1.340561	1.033134
H60	H	-0.249368	-1.272564	1.029684
H61	H	-0.329529	-1.304437	0.906871
H62	H	-0.275269	-1.236438	0.903403
C63	C	-0.639818	-1.347715	0.311288
C64	C	-0.596900	-1.298625	0.355543
H65	H	-0.617651	-1.385651	0.277064
H66	H	-0.662881	-1.313129	0.277617
H67	H	-0.668022	-1.377668	0.349173
H68	H	-0.568699	-1.268667	0.317658
H69	H	-0.573827	-1.333215	0.389216
H70	H	-0.724742	-1.079906	0.552959
C71	C	-0.638594	-1.014859	0.611584
C72	C	-0.596039	-1.063910	0.567303
H73	H	-0.616146	-0.976907	0.645799
H74	H	-0.666807	-1.049470	0.645266
H75	H	-0.661682	-0.984926	0.573715
H76	H	-0.572953	-1.093848	0.605173
H77	H	-0.567815	-1.029295	0.533619
H78	H	-1.007061	-1.282890	0.370013
H79	H	-1.125592	-1.080099	0.553068
C80	C	-1.093200	-1.347926	0.311394
C81	C	-1.135758	-1.298885	0.355683
H82	H	-1.115646	-1.385868	0.277166
H83	H	-1.070115	-1.377864	0.349252
H84	H	-1.064984	-1.313302	0.277717
H85	H	-1.163972	-1.333508	0.389365
H86	H	-1.158853	-1.268944	0.317821
H87	H	-1.006319	-1.080037	0.553033
H88	H	-0.421274	-0.693157	0.530651
H89	H	-0.311209	-0.670373	0.392335
