data_functionalizedCrystal
_audit_creation_method	'MofGen! by Chris Wilmer'
_symmetry_space_group_name_H-M	'P1'
_symmetry_Int_Tables_number	1
_symmetry_cell_setting	triclinic
loop_
_symmetry_equiv_pos_as_xyz
  x,y,z
_cell_length_a	14.908571
_cell_length_b	13.897448
_cell_length_c	13.897441
_cell_angle_alpha	89.971988
_cell_angle_beta	93.314722
_cell_angle_gamma	93.284087
loop_
_atom_site_label
_atom_site_type_symbol
_atom_site_fract_x
_atom_site_fract_y
_atom_site_fract_z
Zn1	Zn	1.379248	0.469208	0.630374
Zn2	Zn	1.379144	0.630523	0.469077
Zn3	Zn	1.228377	0.459928	0.459798
Zn4	Zn	1.228355	0.621139	0.621039
O5	O	1.303781	0.545199	0.545072
O6	O	1.505480	0.498417	0.616768
O7	O	1.359110	0.607937	0.332862
O8	O	1.248444	0.326180	0.482448
O9	O	1.505404	0.616935	0.498263
O10	O	1.359288	0.332998	0.607770
O11	O	1.248343	0.482601	0.326045
O12	O	1.102129	0.473502	0.473396
O13	O	1.248406	0.600941	0.757261
O14	O	1.102113	0.591943	0.591860
O15	O	1.359266	0.489318	0.764120
O16	O	1.359089	0.764256	0.489211
O17	O	1.248305	0.757362	0.600857
C18	C	1.069387	0.530698	0.530609
C19	C	0.969112	0.524517	0.524444
C20	C	0.780716	0.636427	0.636051
C21	C	0.686498	0.630623	0.630262
C22	C	0.686458	0.507100	0.507084
C23	C	0.780675	0.512904	0.512872
C24	C	0.827801	0.577571	0.577357
C25	C	0.922020	0.583379	0.583140
C26	C	0.921978	0.459852	0.459967
C27	C	0.827760	0.454048	0.454179
C28	C	1.303708	0.795809	0.545051
C29	C	1.303759	0.903026	0.545079
C30	C	1.303848	1.099327	0.545154
C31	C	1.303796	0.990091	0.545115
C32	C	1.539091	0.559758	0.559592
C33	C	1.639366	0.565962	0.565780
C34	C	1.303845	0.545118	0.796669
C35	C	1.303873	0.545083	0.903885
C36	C	1.303872	1.293612	0.545127
C37	C	1.303891	1.186399	0.545178
C38	C	1.303769	0.545214	0.294457
C39	C	1.303917	0.544987	0.187252
C40	C	1.303897	0.545019	1.100181
C41	C	1.303881	0.545057	0.990948
H42	H	0.648072	0.454445	0.454590
H43	H	0.648165	0.678547	0.678058
H44	H	0.960388	0.636036	0.635646
H45	H	0.819086	0.689086	0.688552
Br46	Br	0.763796	0.366284	0.366675
H47	H	0.960324	0.411929	0.412172
