data_functionalizedCrystal
_audit_creation_method	'MofGen! by Chris Wilmer'
_symmetry_space_group_name_H-M	'P1'
_symmetry_Int_Tables_number	1
_symmetry_cell_setting	triclinic
loop_
_symmetry_equiv_pos_as_xyz
  x,y,z
_cell_length_a	6.817900
_cell_length_b	12.840946
_cell_length_c	15.301131
_cell_angle_alpha	81.995001
_cell_angle_beta	75.011263
_cell_angle_gamma	88.344365
loop_
_atom_site_label
_atom_site_type_symbol
_atom_site_fract_x
_atom_site_fract_y
_atom_site_fract_z
V1	V	-3.903300	0.282022	0.126898
O2	O	-3.888166	0.320352	-0.003898
O3	O	-3.860468	0.238065	0.249503
O4	O	-3.798860	0.424196	0.125911
O5	O	-3.950200	0.132933	0.120548
V6	V	-4.393468	0.269295	0.111139
O7	O	-4.149982	0.309939	0.161467
O8	O	-4.596983	0.241378	0.076571
O9	O	-4.213093	0.313252	-0.011465
O10	O	-4.525999	0.230965	0.241936
O11	O	-4.463965	0.418384	0.117490
O12	O	-4.274701	0.127121	0.112126
C13	C	-3.708637	0.222772	0.279361
C14	C	-3.754530	0.187779	0.379598
C15	C	-3.956337	0.174982	0.431302
C16	C	-3.999487	0.142118	0.525488
C17	C	-3.840827	0.122045	0.567967
C18	C	-3.639003	0.134848	0.516256
C19	C	-3.595856	0.167719	0.422073
C20	C	-3.630062	0.460200	0.121704
C21	C	-3.625914	0.578331	0.121707
C22	C	-4.089871	-0.027023	0.116369
C23	C	-4.106871	0.091112	0.116349
V24	V	-3.886272	0.768181	0.126924
O25	O	-3.922567	0.921545	0.120585
O26	O	-3.791966	0.621336	0.125926
O27	O	-3.841903	0.767852	0.249529
O28	O	-3.872284	0.774014	-0.003873
V29	V	-4.374496	0.810988	0.111173
O30	O	-4.134889	0.740887	0.161493
O31	O	-4.575283	0.860965	0.076610
O32	O	-4.245989	0.946586	0.112168
O33	O	-4.455391	0.663538	0.117514
O34	O	-4.505674	0.811069	0.241972
O35	O	-4.196052	0.800069	-0.011434
C36	C	-4.028268	0.328541	-0.041318
C37	C	-3.961610	0.363540	-0.141554
C38	C	-3.689623	0.765226	0.279381
C39	C	-3.734182	0.768099	0.379618
C40	C	-4.012265	0.785730	-0.041296
C41	C	-3.946981	0.781821	-0.141534
C42	C	-3.935343	0.773317	0.431339
C43	C	-3.977199	0.776022	0.525521
C44	C	-3.817892	0.773502	0.567981
C45	C	-3.616715	0.768287	0.516252
C46	C	-3.574861	0.765589	0.422071
C47	C	-3.703964	0.773907	0.712557
C48	C	-3.745821	0.776603	0.806745
C49	C	-4.106302	0.784341	0.816006
C50	C	-4.064448	0.781643	0.721825
C51	C	-3.863273	0.776426	0.670103
C52	C	-4.104790	0.376340	-0.193258
C53	C	-4.042181	0.409209	-0.287443
C54	C	-3.836394	0.429284	-0.329922
C55	C	-3.693205	0.416478	-0.278212
C56	C	-3.755813	0.383603	-0.184029
H57	H	-4.085552	0.191314	0.396728
C58	C	-3.482662	0.768165	0.655665
N59	N	-3.315981	0.763834	0.612815
C60	C	-4.221507	0.128030	0.582351
N61	N	-4.388732	0.117418	0.625177
C62	C	-3.373846	0.181776	0.365205
N63	N	-3.206618	0.192360	0.322376
H64	H	-4.065075	0.775361	0.396776
H65	H	-4.140999	0.780273	0.567628
C66	C	-4.327598	0.790081	0.872902
N67	N	-4.494274	0.794401	0.915760
C68	C	-3.353571	0.759845	0.365178
N69	N	-3.186889	0.755522	0.322328
H70	H	-4.194173	0.783689	0.687258
H71	H	-3.616094	0.774573	0.841310
H72	H	-3.487007	0.766241	0.550830
H73	H	-4.272361	0.360000	-0.158685
C74	C	-3.767553	0.465435	-0.433529
N75	N	-3.715713	0.492662	-0.511566
H76	H	-4.158801	0.419631	-0.329533
H77	H	-3.525649	0.432827	-0.312812
H78	H	-3.875988	0.095281	0.644658
H79	H	-3.639208	0.373192	-0.141937
H80	H	-3.509834	0.118501	0.550857
