data_functionalizedCrystal
_audit_creation_method	'MofGen! by Chris Wilmer'
_symmetry_space_group_name_H-M	'P1'
_symmetry_Int_Tables_number	1
_symmetry_cell_setting	triclinic
loop_
_symmetry_equiv_pos_as_xyz
  x,y,z
_cell_length_a	10.654550
_cell_length_b	14.971486
_cell_length_c	9.730223
_cell_angle_alpha	89.995390
_cell_angle_beta	89.999957
_cell_angle_gamma	84.049530
loop_
_atom_site_label
_atom_site_type_symbol
_atom_site_fract_x
_atom_site_fract_y
_atom_site_fract_z
O1	O	1.666491	0.125631	-0.114188
O2	O	1.300884	0.137600	-0.114213
O3	O	1.493487	0.001469	-0.114190
O4	O	1.473889	0.261762	-0.114211
O5	O	1.493475	0.001465	0.114390
O6	O	1.300872	0.137596	0.114366
O7	O	1.666479	0.125627	0.114392
Zn8	Zn	1.483674	0.131611	0.150671
Zn9	Zn	1.483690	0.131616	-0.150493
O10	O	1.473876	0.261759	0.114369
C11	C	1.254090	0.136720	0.000073
C12	C	1.114675	0.134090	0.000064
C13	C	1.034329	0.214242	0.000061
C14	C	0.903335	0.211766	0.000086
C15	C	0.933044	0.048979	0.000109
C16	C	1.064036	0.051456	0.000095
C17	C	1.492604	-0.031863	0.000099
C18	C	1.489978	-0.131174	0.000098
C19	C	1.603127	-0.187783	0.000107
C20	C	1.600651	-0.281096	0.000093
C21	C	1.485026	-0.317798	0.000080
C22	C	1.371868	-0.261181	0.000067
C23	C	1.374345	-0.167870	0.000071
C24	C	1.366714	-0.455672	0.000061
C25	C	1.364237	-0.548989	0.000060
C26	C	1.593020	-0.568898	0.000083
C27	C	1.595497	-0.475587	0.000087
C28	C	1.482339	-0.418976	0.000077
C29	C	1.713274	0.126508	0.000102
C30	C	1.852689	0.129137	0.000102
C31	C	1.474759	0.295090	0.000076
C32	C	1.477385	0.394401	0.000069
N33	N	1.483672	0.131607	0.356208
N34	N	1.483702	0.131613	-0.356029
C35	C	1.568985	0.071354	0.428144
C36	C	1.568997	0.071354	0.572027
C37	C	1.398379	0.191869	0.572025
C38	C	1.398362	0.191864	0.428144
H39	H	1.075554	0.281528	0.000047
H40	H	1.129457	-0.013817	0.000101
H41	H	1.274568	-0.409581	0.000049
C42	C	1.145976	-0.232123	0.000026
C43	C	1.244768	-0.301520	0.000043
H44	H	1.067509	-0.257026	0.000003
H45	H	1.151690	-0.196149	0.079734
H46	H	1.151720	-0.196136	-0.079688
H47	H	1.239029	-0.337503	0.079762
H48	H	1.239051	-0.337508	-0.079674
C49	C	1.829018	-0.216845	0.000105
C50	C	1.730228	-0.147446	0.000111
H51	H	1.907486	-0.191942	0.000094
H52	H	1.823295	-0.252827	0.079812
H53	H	1.823281	-0.252822	-0.079611
H54	H	1.735960	-0.111472	0.079833
H55	H	1.735954	-0.111449	-0.079603
C56	C	1.324841	0.346228	0.616285
C57	C	1.304611	0.258106	0.651094
H58	H	1.266944	0.387120	0.665091
H59	H	1.408653	0.356498	0.639861
H60	H	1.312622	0.354833	0.520296
H61	H	1.316838	0.249499	0.747082
H62	H	1.220778	0.247833	0.627528
H63	H	0.837922	0.277034	0.000086
C64	C	0.918038	-0.090535	0.117634
C65	C	0.877378	-0.041849	0.000127
H66	H	0.883667	-0.146608	0.117642
H67	H	1.007539	-0.100529	0.117619
H68	H	0.890461	-0.057492	0.197334
H69	H	0.904963	-0.074891	-0.079574
H70	H	0.787857	-0.031859	0.000129
H71	H	1.692789	-0.327185	0.000103
H72	H	1.689649	-0.445708	0.000108
H73	H	1.328883	0.240930	0.369570
H74	H	1.685158	-0.614995	0.000087
H75	H	1.270084	-0.578868	0.000071
H76	H	1.638448	0.022288	0.369576
C77	C	1.244399	-0.051381	0.117562
C78	C	1.249970	-0.105639	0.000063
H79	H	1.167615	-0.012960	0.117545
H80	H	1.248173	-0.088200	0.197259
H81	H	1.313622	-0.016175	0.117555
H82	H	1.180751	-0.140850	0.000075
H83	H	1.246183	-0.068816	-0.079655
C84	C	1.737653	-0.047759	0.557567
C85	C	1.662782	0.005126	0.651099
H86	H	1.795558	-0.088644	0.606385
H87	H	1.685333	-0.080283	0.501465
H88	H	1.782862	-0.010214	0.501433
H89	H	1.617566	-0.032419	0.707226
H90	H	1.715109	0.037652	0.707224
