data_functionalizedCrystal
_audit_creation_method	'MofGen! by Chris Wilmer'
_symmetry_space_group_name_H-M	'P1'
_symmetry_Int_Tables_number	1
_symmetry_cell_setting	triclinic
loop_
_symmetry_equiv_pos_as_xyz
  x,y,z
_cell_length_a	10.540510
_cell_length_b	10.540539
_cell_length_c	8.140239
_cell_angle_alpha	89.998610
_cell_angle_beta	89.997029
_cell_angle_gamma	84.519401
loop_
_atom_site_label
_atom_site_type_symbol
_atom_site_fract_x
_atom_site_fract_y
_atom_site_fract_z
O1	O	1.685906	0.178718	-0.136615
O2	O	1.316488	0.195614	-0.136616
O3	O	1.509625	0.002459	-0.136613
O4	O	1.492769	0.371874	-0.136617
O5	O	1.509615	0.002456	0.136614
O6	O	1.316478	0.195612	0.136612
O7	O	1.685895	0.178716	0.136612
Zn8	Zn	1.501185	0.187164	0.179992
Zn9	Zn	1.501199	0.187167	-0.179996
O10	O	1.492758	0.371871	0.136610
C11	C	1.269179	0.194354	-0.000002
C12	C	1.128229	0.190587	-0.000002
C13	C	0.910774	0.324771	-0.000632
C14	C	1.057370	0.328789	-0.000006
C15	C	1.083463	0.119839	0.156021
C16	C	0.936702	0.116800	0.156141
C17	C	0.936909	0.113925	-0.154569
C18	C	1.083250	0.120480	-0.156621
C19	C	1.508356	-0.044845	-0.000003
C20	C	1.504574	-0.185793	-0.000012
C21	C	1.359655	-0.369204	-0.000625
C22	C	1.363489	-0.222587	-0.000010
C23	C	1.572464	-0.247459	0.156014
C24	C	1.567649	-0.394003	0.156146
C25	C	1.570531	-0.394519	-0.154564
C26	C	1.571830	-0.247537	-0.156627
C27	C	1.733204	0.179976	-0.000005
C28	C	1.874154	0.183743	-0.000016
C29	C	1.494028	0.419175	-0.000005
C30	C	1.497810	0.560123	-0.000007
N31	N	1.501184	0.187161	0.425675
N32	N	1.501209	0.187159	-0.425679
H33	H	0.867263	0.378302	0.110626
H34	H	1.674693	-0.223327	-0.166049
O35	O	0.883431	0.180840	0.310633
H36	H	0.833192	0.111971	0.383438
O37	O	0.906224	-0.020112	0.165555
H38	H	0.996277	-0.083860	0.170014
H39	H	1.517466	-0.422198	0.272779
H40	H	1.310069	-0.179977	-0.111856
O41	O	1.286129	-0.409198	0.146764
H42	H	1.200383	-0.453443	0.104733
H43	H	1.130853	0.018098	0.161825
H44	H	1.132318	0.019582	-0.166042
H45	H	0.914755	0.010163	-0.155623
O46	O	1.709704	-0.217859	0.163713
H47	H	1.755482	-0.262508	0.275025
O48	O	1.124307	0.184914	0.309837
H49	H	1.176475	0.267632	0.275555
O50	O	1.506135	-0.193307	-0.309537
H51	H	1.425920	-0.122666	-0.274159
H52	H	1.086720	0.384136	-0.111854
O53	O	0.880714	0.171783	-0.311230
H54	H	0.807421	0.250958	-0.280676
H55	H	1.303927	-0.397797	-0.112514
H56	H	1.111873	0.171955	-0.272046
H57	H	1.309685	-0.180826	0.112022
H58	H	1.085769	0.384470	0.112024
O59	O	1.702043	-0.457573	0.165562
H60	H	1.770183	-0.383607	0.170015
O61	O	1.509998	-0.191034	0.309828
H62	H	1.430609	-0.119091	0.275543
H63	H	1.672436	-0.441756	-0.155614
O64	O	0.855185	0.396105	-0.148829
H65	H	0.892685	0.347764	-0.262393
O66	O	1.510055	-0.436289	-0.311221
H67	H	1.427482	-0.489850	-0.280662
