data_functionalizedCrystal
_audit_creation_method	'MofGen! by Chris Wilmer'
_symmetry_space_group_name_H-M	'P1'
_symmetry_Int_Tables_number	1
_symmetry_cell_setting	triclinic
loop_
_symmetry_equiv_pos_as_xyz
  x,y,z
_cell_length_a	16.956995
_cell_length_b	13.339070
_cell_length_c	16.053802
_cell_angle_alpha	86.732386
_cell_angle_beta	92.392061
_cell_angle_gamma	95.841883
loop_
_atom_site_label
_atom_site_type_symbol
_atom_site_fract_x
_atom_site_fract_y
_atom_site_fract_z
O1	O	1.069524	0.036704	0.069486
O2	O	0.845081	0.071573	0.069475
O3	O	0.931544	-0.090971	0.069477
O4	O	0.983062	0.199248	0.069485
O5	O	0.926777	-0.082059	-0.069382
O6	O	0.840315	0.080486	-0.069384
O7	O	1.064757	0.045616	-0.069373
Zn8	Zn	0.951779	0.064466	-0.091425
Zn9	Zn	0.958060	0.052723	0.091528
O10	O	0.978295	0.208160	-0.069374
C11	C	0.813385	0.077815	0.000044
C12	C	0.726039	0.083123	0.000040
C13	C	0.920458	-0.123476	0.000048
C14	C	0.894519	-0.233609	0.000050
C15	C	0.235525	0.122830	0.000072
C16	C	0.317595	0.117835	0.000071
C17	C	0.347939	0.024075	0.000062
C18	C	0.296208	-0.064696	0.000063
C19	C	0.214140	-0.059700	0.000070
C20	C	0.592240	-0.000652	0.000047
C21	C	0.674314	-0.005641	0.000038
C22	C	0.695696	0.176890	0.000048
C23	C	0.613625	0.181878	0.000049
C24	C	0.561901	0.093107	0.000054
N25	N	0.431827	0.018967	0.000059
N26	N	0.478015	0.098215	0.000064
C27	C	1.096211	-0.615268	0.000060
C28	C	1.120585	-0.511792	0.000053
C29	C	1.064070	-0.442242	0.000053
C30	C	0.983178	-0.476176	0.000058
C31	C	0.958802	-0.579661	0.000059
C32	C	0.926661	-0.406635	0.000051
C33	C	0.845769	-0.440569	0.000057
C34	C	0.821396	-0.544044	0.000058
C35	C	0.877911	-0.613595	0.000058
C36	C	0.951037	-0.303150	0.000051
C37	C	0.813628	-0.267544	0.000050
C38	C	0.789254	-0.371019	0.000057
C39	C	1.096454	0.039374	0.000060
C40	C	1.183800	0.034066	0.000070
C41	C	0.989381	0.240666	0.000056
C42	C	1.015320	0.350798	0.000060
N43	N	0.947499	0.072479	-0.216285
C44	C	0.984312	0.003337	-0.259979
C45	C	0.981327	0.008951	-0.347385
C46	C	0.941533	0.083711	-0.391098
C47	C	0.904714	0.152856	-0.347398
C48	C	0.907695	0.147237	-0.259993
C49	C	0.928507	0.108228	-0.652507
C50	C	0.925531	0.113844	-0.739919
C51	C	1.002143	-0.030063	-0.739900
C52	C	1.005124	-0.035672	-0.652493
C53	C	0.968302	0.033469	-0.608801
N54	N	0.938483	0.089453	-0.480441
N55	N	0.971348	0.027722	-0.519459
N56	N	0.962345	0.044702	0.216388
H57	H	0.210826	0.199180	0.000073
C58	C	0.752592	0.274529	0.000054
H59	H	0.805816	0.258129	0.000056
H60	H	0.741870	0.315963	-0.048363
H61	H	0.745200	0.309726	0.048490
C62	C	0.732418	-0.581370	0.000057
H63	H	0.702250	-0.525132	0.000064
H64	H	0.718388	-0.617892	-0.048365
H65	H	0.721720	-0.624102	0.048487
C66	C	0.374492	0.215472	0.000076
H67	H	0.427715	0.199071	0.000083
H68	H	0.363772	0.256903	-0.048343
H69	H	0.367098	0.250674	0.048509
H70	H	0.699016	-0.081996	0.000035
H71	H	0.723390	-0.398663	0.000061
C72	C	1.209557	-0.474465	0.000044
H73	H	1.215980	-0.402876	0.000033
H74	H	1.235462	-0.501842	0.048465
H75	H	1.232119	-0.495636	-0.048388
H76	H	0.172026	-0.131982	0.000070
C77	C	0.888031	0.184302	-0.604454
H78	H	0.895502	0.170253	-0.546137
H79	H	0.910724	0.250799	-0.618776
H80	H	0.832894	0.178780	-0.618790
H81	H	0.588926	0.258227	0.000059
C82	C	0.881702	0.196034	-0.788001
H83	H	0.860178	0.236389	-0.749462
H84	H	0.917816	0.237266	-0.822106
H85	H	0.840047	0.165132	-0.822090
H86	H	1.016900	-0.275532	0.000047
C87	C	0.860911	0.235065	-0.395475
H88	H	0.839398	0.275425	-0.356932
H89	H	0.897039	0.276286	-0.429571
H90	H	0.819250	0.204190	-0.429572
C91	C	0.535354	-0.098295	0.000038
H92	H	0.565182	-0.154847	0.000021
H93	H	0.504560	-0.103263	0.048462
H94	H	0.501230	-0.097025	-0.048390
H95	H	0.767609	-0.210914	0.000045
C96	C	1.042635	-0.106122	-0.787958
H97	H	1.066765	-0.151448	-0.749406
H98	H	1.004159	-0.142941	-0.822068
H99	H	1.081977	-0.070900	-0.822040
H100	H	1.037528	-0.096548	-0.616904
C101	C	0.329584	-0.167829	0.000051
H102	H	0.385869	-0.158093	0.000038
H103	H	0.313410	-0.207625	0.048472
H104	H	0.310071	-0.201392	-0.048381
C105	C	0.867204	0.223292	-0.211927
H106	H	0.874671	0.209233	-0.153611
H107	H	0.889880	0.289799	-0.226238
H108	H	0.812067	0.217748	-0.226269
C109	C	1.090881	-0.328423	0.000056
H110	H	1.147151	-0.318174	0.000062
H111	H	1.069356	-0.295323	-0.048362
H112	H	1.072688	-0.301553	0.048490
H113	H	1.142216	-0.671903	0.000053
C114	C	1.028085	-0.078901	-0.211903
H115	H	1.049575	-0.119281	-0.250447
H116	H	1.069746	-0.048069	-0.177790
H117	H	0.991928	-0.120108	-0.177822
C118	C	1.021832	-0.067096	-0.395444
H119	H	1.045969	-0.112415	-0.356893
H120	H	0.983363	-0.103924	-0.429557
H121	H	1.061169	-0.031860	-0.429524
H122	H	0.858070	-0.697855	0.000067
