data_functionalizedCrystal
_audit_creation_method	'MofGen! by Chris Wilmer'
_symmetry_space_group_name_H-M	'P1'
_symmetry_Int_Tables_number	1
_symmetry_cell_setting	triclinic
loop_
_symmetry_equiv_pos_as_xyz
  x,y,z
_cell_length_a	15.944551
_cell_length_b	15.944551
_cell_length_c	14.421503
_cell_angle_alpha	89.996660
_cell_angle_beta	89.996859
_cell_angle_gamma	96.501262
loop_
_atom_site_label
_atom_site_type_symbol
_atom_site_fract_x
_atom_site_fract_y
_atom_site_fract_z
O1	O	1.114529	-0.108320	-0.077017
O2	O	1.364529	0.141680	0.172983
O3	O	1.614529	0.391680	0.422983
O4	O	1.864529	0.641680	0.672983
O5	O	0.869980	-0.121677	-0.077040
O6	O	1.119980	0.128323	0.172960
O7	O	1.369980	0.378323	0.422960
O8	O	1.619980	0.628323	0.672960
O9	O	0.998933	0.007276	-0.077020
O10	O	1.248933	0.257276	0.172980
O11	O	1.498933	0.507276	0.422980
O12	O	1.748933	0.757276	0.672980
O13	O	0.985576	-0.237273	-0.077038
O14	O	1.235576	0.012727	0.172962
O15	O	1.485576	0.262727	0.422962
O16	O	1.735576	0.512727	0.672962
O17	O	0.998911	0.007257	0.077204
O18	O	1.248911	0.257257	0.327204
O19	O	1.498911	0.507257	0.577204
O20	O	1.748911	0.757257	0.827204
O21	O	0.869958	-0.121696	0.077183
O22	O	1.119958	0.128304	0.327183
O23	O	1.369958	0.378304	0.577183
O24	O	1.619958	0.628304	0.827183
O25	O	1.114508	-0.108340	0.077206
O26	O	1.364508	0.141660	0.327206
O27	O	1.614508	0.391660	0.577206
O28	O	1.864508	0.641660	0.827206
Cu29	Cu	0.992231	-0.115020	0.091277
Cu30	Cu	1.242231	0.134980	0.341277
Cu31	Cu	1.492231	0.384980	0.591277
Cu32	Cu	1.742231	0.634980	0.841277
Cu33	Cu	0.992256	-0.114997	-0.091110
Cu34	Cu	1.242256	0.135003	0.158890
Cu35	Cu	1.492256	0.385003	0.408890
Cu36	Cu	1.742256	0.635003	0.658890
O37	O	0.985555	-0.237293	0.077186
O38	O	1.235555	0.012707	0.327186
O39	O	1.485555	0.262707	0.577186
O40	O	1.735555	0.512707	0.827186
C41	C	0.838675	-0.121132	0.000069
C42	C	1.088675	0.128868	0.250069
C43	C	1.338675	0.378868	0.500069
C44	C	1.588675	0.628868	0.750069
C45	C	0.745429	-0.119470	0.000060
C46	C	0.995429	0.130530	0.250060
C47	C	1.245429	0.380530	0.500060
C48	C	1.495429	0.630530	0.750060
C49	C	0.998367	0.038561	0.000092
C50	C	1.248367	0.288561	0.250092
C51	C	1.498367	0.538561	0.500092
C52	C	1.748367	0.788561	0.750092
C53	C	0.996705	0.131807	0.000093
C54	C	1.246705	0.381807	0.250093
C55	C	1.496705	0.631807	0.500093
C56	C	1.746705	0.881807	0.750093
C57	C	0.530572	-0.035565	0.000084
C58	C	0.780572	0.214435	0.250084
C59	C	1.030572	0.464435	0.500084
C60	C	1.280572	0.714435	0.750084
C61	C	0.469563	-0.074518	-0.075959
C62	C	0.719563	0.175482	0.174041
C63	C	0.969563	0.425482	0.424041
C64	C	1.219563	0.675482	0.674041
C65	C	0.574703	-0.116462	0.000071
C66	C	0.824703	0.133538	0.250071
C67	C	1.074703	0.383538	0.500071
C68	C	1.324703	0.633538	0.750071
C69	C	0.469564	-0.074556	0.076093
C70	C	0.719564	0.175444	0.326093
C71	C	0.969564	0.425444	0.576093
C72	C	1.219564	0.675444	0.826093
C73	C	0.409790	-0.113551	0.000086
C74	C	0.659790	0.136449	0.250086
C75	C	0.909790	0.386449	0.500086
C76	C	1.159790	0.636449	0.750086
C77	C	0.514922	-0.155437	-0.076035
C78	C	0.764922	0.094563	0.173965
C79	C	1.014922	0.344563	0.423965
C80	C	1.264922	0.594563	0.673965
C81	C	0.514929	-0.155464	0.076086
C82	C	0.764929	0.094536	0.326086
C83	C	1.014929	0.344536	0.576086
C84	C	1.264929	0.594536	0.826086
C85	C	0.453937	-0.194476	0.000024
C86	C	0.703937	0.055524	0.250024
C87	C	0.953937	0.305524	0.500024
C88	C	1.203937	0.555524	0.750024
C89	C	0.669705	-0.118137	0.000062
C90	C	0.919705	0.131863	0.250062
C91	C	1.169705	0.381863	0.500062
C92	C	1.419705	0.631863	0.750062
C93	C	0.314789	-0.111883	0.000089
C94	C	0.564789	0.138117	0.250089
C95	C	0.814789	0.388117	0.500089
C96	C	1.064789	0.638117	0.750089
C97	C	1.145813	-0.108885	0.000096
C98	C	1.395813	0.141115	0.250096
C99	C	1.645813	0.391115	0.500096
C100	C	1.895813	0.641115	0.750096
C101	C	1.239059	-0.110547	0.000098
C102	C	1.489059	0.139453	0.250098
C103	C	1.739059	0.389453	0.500098
C104	C	1.989059	0.639453	0.750098
C105	C	0.986120	-0.268577	0.000072
C106	C	1.236120	-0.018577	0.250072
C107	C	1.486120	0.231423	0.500072
C108	C	1.736120	0.481423	0.750072
C109	C	0.987782	-0.361823	0.000066
C110	C	1.237782	-0.111823	0.250066
C111	C	1.487782	0.138177	0.500066
C112	C	1.737782	0.388177	0.750066
N113	N	0.992219	-0.115035	0.219558
N114	N	1.242219	0.134965	0.469558
N115	N	1.492219	0.384965	0.719558
N116	N	1.742219	0.634965	0.969558
C117	C	0.912801	0.346663	0.000072
C118	C	1.162801	0.596663	0.250072
C119	C	1.412801	0.846663	0.500072
C120	C	1.662801	1.096663	0.750072
C121	C	0.951753	0.407671	0.076117
C122	C	1.201753	0.657671	0.326117
C123	C	1.451753	0.907671	0.576117
C124	C	1.701753	1.157671	0.826117
C125	C	0.993698	0.302533	0.000085
C126	C	1.243698	0.552533	0.250085
C127	C	1.493698	0.802533	0.500085
C128	C	1.743698	1.052533	0.750085
C129	C	0.951793	0.407674	-0.075935
C130	C	1.201793	0.657674	0.174065
C131	C	1.451793	0.907674	0.424065
C132	C	1.701793	1.157674	0.674065
C133	C	0.990787	0.467445	0.000074
C134	C	1.240787	0.717445	0.250074
C135	C	1.490787	0.967445	0.500074
C136	C	1.740787	1.217445	0.750074
C137	C	1.032672	0.362312	0.076193
C138	C	1.282672	0.612312	0.326193
C139	C	1.532672	0.862312	0.576193
C140	C	1.782672	1.112312	0.826193
C141	C	1.032701	0.362308	-0.075927
C142	C	1.282701	0.612308	0.174073
C143	C	1.532701	0.862308	0.424073
C144	C	1.782701	1.112308	0.674073
C145	C	1.071711	0.423298	0.000136
C146	C	1.321711	0.673298	0.250136
C147	C	1.571711	0.923298	0.500136
C148	C	1.821711	1.173298	0.750136
C149	C	0.995372	0.207530	0.000092
C150	C	1.245372	0.457530	0.250092
C151	C	1.495372	0.707530	0.500092
C152	C	1.745372	0.957530	0.750092
C153	C	0.989119	0.562446	0.000073
C154	C	1.239119	0.812446	0.250073
C155	C	1.489119	1.062446	0.500073
C156	C	1.739119	1.312446	0.750073
N157	N	0.992275	-0.114975	-0.219392
N158	N	1.242275	0.135025	0.030608
N159	N	1.492275	0.385025	0.280608
N160	N	1.742275	0.635025	0.530608
C161	C	0.932581	-0.174636	0.469202
C162	C	1.182581	0.075364	0.719202
C163	C	1.432581	0.325364	0.969202
C164	C	1.682581	0.575364	1.219202
C165	C	1.008481	-0.190943	0.531011
C166	C	1.258481	0.059057	0.781011
C167	C	1.508481	0.309057	1.031011
C168	C	1.758481	0.559057	1.281011
C169	C	0.992240	-0.115015	0.408719
C170	C	1.242240	0.134985	0.658719
C171	C	1.492240	0.384985	0.908719
C172	C	1.742240	0.634985	1.158719
C173	C	0.916359	-0.098727	0.531005
C174	C	1.166359	0.151273	0.781005
C175	C	1.416359	0.401273	1.031005
C176	C	1.666359	0.651273	1.281005
C177	C	0.992253	-0.114997	0.591441
C178	C	1.242253	0.135003	0.841441
C179	C	1.492253	0.385003	1.091441
C180	C	1.742253	0.635003	1.341441
C181	C	1.068178	-0.131360	0.469167
C182	C	1.318178	0.118640	0.719167
C183	C	1.568178	0.368640	0.969167
C184	C	1.818178	0.618640	1.219167
C185	C	0.976007	-0.039111	0.469156
C186	C	1.226007	0.210889	0.719156
C187	C	1.476007	0.460889	0.969156
C188	C	1.726007	0.710889	1.219156
C189	C	1.051961	-0.055386	0.530936
C190	C	1.301961	0.194614	0.780936
C191	C	1.551961	0.444614	1.030936
C192	C	1.801961	0.694614	1.280936
C193	C	0.992231	-0.115027	0.303458
C194	C	1.242231	0.134973	0.553458
C195	C	1.492231	0.384973	0.803458
C196	C	1.742231	0.634973	1.053458
C197	C	0.992270	-0.114985	0.696700
C198	C	1.242270	0.135015	0.946700
C199	C	1.492270	0.385015	1.196700
C200	C	1.742270	0.635015	1.446700
H201	H	0.563905	0.031573	-0.000005
H202	H	0.813905	0.281573	0.249995
H203	H	1.063905	0.531573	0.499995
H204	H	1.313905	0.781573	0.749995
H205	H	0.962240	0.025051	0.441965
H206	H	1.212240	0.275051	0.691965
H207	H	1.462240	0.525051	0.941965
H208	H	1.712240	0.775051	1.191965
Br209	Br	0.848577	-0.258734	0.424018
Br210	Br	1.098577	-0.008734	0.674018
Br211	Br	1.348577	0.241266	0.924018
Br212	Br	1.598577	0.491266	1.174018
H213	H	1.022224	-0.255126	0.558180
H214	H	1.272224	-0.005126	0.808180
H215	H	1.522224	0.244874	1.058180
H216	H	1.772224	0.494874	1.308180
Br217	Br	0.894713	0.441172	0.183263
Br218	Br	1.144713	0.691172	0.433263
Br219	Br	1.394713	0.941172	0.683263
Br220	Br	1.644713	1.191172	0.933263
H221	H	0.845652	0.313356	0.000141
H222	H	1.095652	0.563356	0.250141
H223	H	1.345652	0.813356	0.500141
H224	H	1.595652	1.063356	0.750141
H225	H	1.066897	0.342186	-0.140214
H226	H	1.316897	0.592186	0.109786
H227	H	1.566897	0.842186	0.359786
H228	H	1.816897	1.092186	0.609786
Br229	Br	0.809397	-0.075777	0.576283
Br230	Br	1.059397	0.174223	0.826283
Br231	Br	1.309397	0.424223	1.076283
Br232	Br	1.559397	0.674223	1.326283
H233	H	0.449461	-0.040294	-0.140243
H234	H	0.699461	0.209706	0.109757
H235	H	0.949461	0.459706	0.359757
H236	H	1.199461	0.709706	0.609757
Br237	Br	0.398667	-0.306490	-0.000049
Br238	Br	0.648667	-0.056490	0.249951
Br239	Br	0.898667	0.193510	0.499951
Br240	Br	1.148667	0.443510	0.749951
Br241	Br	0.894754	0.441176	-0.183080
Br242	Br	1.144754	0.691176	0.066920
Br243	Br	1.394754	0.941176	0.316920
Br244	Br	1.644754	1.191176	0.566920
H245	H	1.138919	0.456457	0.000186
H246	H	1.388919	0.706457	0.250186
H247	H	1.638919	0.956457	0.500186
H248	H	1.888919	1.206457	0.750186
Br249	Br	1.175170	-0.154432	0.424092
Br250	Br	1.425170	0.095568	0.674092
Br251	Br	1.675170	0.345568	0.924092
Br252	Br	1.925170	0.595568	1.174092
H253	H	1.066850	0.342314	0.140554
H254	H	1.316850	0.592314	0.390554
H255	H	1.566850	0.842314	0.640554
H256	H	1.816850	1.092314	0.890554
H257	H	1.102474	-0.004956	0.557872
H258	H	1.352474	0.245044	0.807872
H259	H	1.602474	0.495044	1.057872
H260	H	1.852474	0.745044	1.307872
H261	H	0.535052	-0.189660	0.140373
H262	H	0.785052	0.060340	0.390373
H263	H	1.035052	0.310340	0.640373
H264	H	1.285052	0.560340	0.890373
Br265	Br	0.548244	-0.212412	-0.183305
Br266	Br	0.798244	0.037588	0.066695
Br267	Br	1.048244	0.287588	0.316695
Br268	Br	1.298244	0.537588	0.566695
Br269	Br	0.436070	-0.017519	0.183242
Br270	Br	0.686070	0.232481	0.433242
Br271	Br	0.936070	0.482481	0.683242
Br272	Br	1.186070	0.732481	0.933242
