data_functionalizedCrystal
_audit_creation_method	'MofGen! by Chris Wilmer'
_symmetry_space_group_name_H-M	'P1'
_symmetry_Int_Tables_number	1
_symmetry_cell_setting	triclinic
loop_
_symmetry_equiv_pos_as_xyz
  x,y,z
_cell_length_a	10.723023
_cell_length_b	10.654550
_cell_length_c	9.130313
_cell_angle_alpha	89.995631
_cell_angle_beta	90.003377
_cell_angle_gamma	95.523761
loop_
_atom_site_label
_atom_site_type_symbol
_atom_site_fract_x
_atom_site_fract_y
_atom_site_fract_z
O1	O	1.657214	-0.176145	0.121795
O2	O	2.157214	0.323855	0.621795
O3	O	1.294064	-0.193006	0.121799
O4	O	1.794064	0.306994	0.621799
O5	O	1.483988	-0.001835	0.121788
O6	O	1.983988	0.498165	0.621788
O7	O	1.467289	-0.367316	0.121806
O8	O	1.967289	0.132684	0.621806
O9	O	1.483975	-0.001829	-0.121811
O10	O	1.983975	0.498171	0.378189
O11	O	1.294050	-0.193001	-0.121800
O12	O	1.794050	0.306999	0.378200
O13	O	1.657200	-0.176139	-0.121804
O14	O	2.157200	0.323861	0.378196
Cu15	Cu	1.475624	-0.184569	-0.144045
Cu16	Cu	1.975624	0.315431	0.355955
Cu17	Cu	1.475640	-0.184576	0.144039
Cu18	Cu	1.975640	0.315424	0.644039
O19	O	1.467276	-0.367310	-0.121793
O20	O	1.967276	0.132690	0.378207
C21	C	1.247557	-0.191777	-0.000000
C22	C	1.747557	0.308223	0.500000
C23	C	1.109002	-0.188106	0.000001
C24	C	1.609002	0.311894	0.500001
C25	C	0.904027	-0.182673	-0.126185
C26	C	1.404027	0.317327	0.373815
C27	C	1.047230	-0.186467	-0.126189
C28	C	1.547230	0.313533	0.373811
C29	C	1.482755	0.044966	-0.000011
C30	C	1.982755	0.544966	0.499989
C31	C	1.479087	0.184408	-0.000009
C32	C	1.979087	0.684408	0.499991
C33	C	1.703707	-0.177369	-0.000002
C34	C	2.203707	0.322631	0.499998
C35	C	1.842262	-0.181039	0.000007
C36	C	2.342262	0.318961	0.500007
C37	C	1.468509	-0.414111	0.000009
C38	C	1.968509	0.085889	0.500009
C39	C	1.472177	-0.553554	0.000016
C40	C	1.972177	-0.053554	0.500016
N41	N	1.475622	-0.184564	-0.346667
N42	N	1.975622	0.315436	0.153333
C43	C	1.590911	0.263911	-0.000009
C44	C	2.090911	0.763911	0.499991
C45	C	1.587457	0.394931	0.000008
C46	C	2.087457	0.894931	0.500008
C47	C	1.360344	0.366933	0.000021
C48	C	1.860344	0.866933	0.500021
C49	C	1.363800	0.235916	0.000014
C50	C	1.863800	0.735916	0.500014
C51	C	1.559750	-0.099949	-0.423324
C52	C	2.059750	0.400051	0.076676
C53	C	1.559762	-0.099949	-0.576661
C54	C	2.059762	0.400051	-0.076661
C55	C	1.391515	-0.269190	-0.576671
C56	C	1.891515	0.230810	-0.076671
C57	C	1.391498	-0.269183	-0.423336
C58	C	1.891498	0.230817	0.076664
N59	N	1.475651	-0.184572	0.346662
N60	N	1.975651	0.315428	0.846662
H61	H	1.100348	-0.187866	-0.234227
H62	H	1.600348	0.312134	0.265773
O63	O	1.695999	0.472289	-0.000189
O64	O	2.195999	0.972289	0.499811
C65	C	1.700800	0.548911	-0.126359
C66	C	2.200800	1.048911	0.373641
H67	H	1.601687	0.556391	-0.168413
H68	H	2.101687	1.056391	0.331587
H69	H	1.746433	0.646963	-0.097975
H70	H	2.246433	1.146963	0.402025
H71	H	1.758162	0.505339	-0.214712
H72	H	2.258162	1.005339	0.285288
O73	O	1.248467	0.417179	-0.000035
O74	O	1.748467	0.917179	0.499965
C75	C	1.269392	0.549867	0.000003
C76	C	1.769392	1.049867	0.500003
H77	H	1.366508	0.579796	-0.046117
H78	H	1.866508	1.079796	0.453883
H79	H	1.195553	0.590725	-0.070718
H80	H	1.695553	1.090725	0.429282
H81	H	1.263035	0.586375	0.116870
H82	H	1.763035	1.086375	0.616870
O83	O	1.255250	0.158548	-0.000180
O84	O	1.755250	0.658548	0.499820
C85	C	1.250430	0.081954	-0.126360
C86	C	1.750430	0.581954	0.373640
H87	H	1.349536	0.074491	-0.168432
H88	H	1.849536	0.574491	0.331568
H89	H	1.204811	-0.016107	-0.097982
H90	H	1.704811	0.483893	0.402018
H91	H	1.193047	0.125540	-0.214698
H92	H	1.693047	0.625540	0.285302
H93	H	0.895399	-0.182457	0.108041
H94	H	1.395399	0.317543	0.608041
H95	H	1.684786	0.221979	-0.000025
H96	H	2.184786	0.721979	0.499975
H97	H	1.628264	-0.031047	-0.639071
H98	H	2.128264	0.468953	-0.139071
H99	H	1.628247	-0.031045	-0.360903
H100	H	2.128247	0.468955	0.139097
O101	O	1.309756	-0.351218	-0.651315
O102	O	1.809756	0.148782	-0.151315
C103	C	1.232188	-0.283250	-0.740015
C104	C	1.732188	0.216750	-0.240015
H105	H	1.281047	-0.185431	-0.762988
H106	H	1.781047	0.314569	-0.262988
H107	H	1.212914	-0.335494	-0.847837
H108	H	1.712914	0.164506	-0.347837
H109	H	1.139880	-0.273865	-0.680949
H110	H	1.639880	0.226135	-0.180949
H111	H	0.850887	-0.181270	-0.234220
H112	H	1.350887	0.318730	0.265780
O113	O	1.045737	-0.186212	0.128941
O114	O	1.545737	0.313788	0.628941
C115	C	1.090680	-0.078493	0.209787
C116	C	1.590680	0.421507	0.709787
H117	H	1.135767	-0.003547	0.132143
H118	H	1.635767	0.496453	0.632143
H119	H	1.009433	-0.039780	0.269895
H120	H	1.509433	0.460220	0.769895
H121	H	1.163180	-0.105047	0.292696
H122	H	1.663180	0.394953	0.792696
H123	H	1.322986	-0.338087	-0.360918
H124	H	1.822986	0.161913	0.139082
