data_functionalizedCrystal
_audit_creation_method	'MofGen! by Chris Wilmer'
_symmetry_space_group_name_H-M	'P1'
_symmetry_Int_Tables_number	1
_symmetry_cell_setting	triclinic
loop_
_symmetry_equiv_pos_as_xyz
  x,y,z
_cell_length_a	15.297475
_cell_length_b	21.295417
_cell_length_c	15.298259
_cell_angle_alpha	80.280707
_cell_angle_beta	88.370891
_cell_angle_gamma	80.332118
loop_
_atom_site_label
_atom_site_type_symbol
_atom_site_fract_x
_atom_site_fract_y
_atom_site_fract_z
Zn1	Zn	1.253450	-0.314417	-0.726615
Zn2	Zn	1.753450	0.185583	-0.226615
Zn3	Zn	1.278670	-0.440441	-0.580094
Zn4	Zn	1.778670	0.059559	-0.080094
Zn5	Zn	1.132302	-0.320540	-0.554838
Zn6	Zn	1.632302	0.179460	-0.054838
Zn7	Zn	1.106920	-0.404997	-0.701241
Zn8	Zn	1.606920	0.095003	-0.201241
O9	O	1.192836	-0.370099	-0.640697
O10	O	1.692836	0.129901	-0.140697
O11	O	1.379375	-0.343406	-0.728368
O12	O	1.879375	0.156594	-0.228368
O13	O	1.280431	-0.441932	-0.454154
O14	O	1.780431	0.058068	0.045846
O15	O	1.148441	-0.231641	-0.577674
O16	O	1.648441	0.268359	-0.077674
O17	O	1.397903	-0.435995	-0.620720
O18	O	1.897903	0.064005	-0.120720
O19	O	1.237448	-0.227142	-0.703878
O20	O	1.737448	0.272858	-0.203878
O21	O	1.172895	-0.353841	-0.435598
O22	O	1.672895	0.146159	0.064402
O23	O	1.006356	-0.319472	-0.553069
O24	O	1.506356	0.180528	-0.053069
O25	O	1.105180	-0.375585	-0.827196
O26	O	1.605180	0.124415	-0.327196
O27	O	0.987708	-0.381522	-0.660631
O28	O	1.487708	0.118478	-0.160631
O29	O	1.212836	-0.309037	-0.845839
O30	O	1.712836	0.190963	-0.345839
O31	O	1.255818	-0.523827	-0.596115
O32	O	1.755818	-0.023827	-0.096115
O33	O	1.129634	-0.497786	-0.685121
O34	O	1.629634	0.002214	-0.185121
C35	C	0.965249	-0.347316	-0.601357
C36	C	1.465249	0.152684	-0.101357
C37	C	0.867882	-0.337581	-0.584547
C38	C	1.367882	0.162419	-0.084547
C39	C	0.554744	-0.439678	-0.760837
C40	C	1.054744	0.060322	-0.260837
C41	C	0.646225	-0.448829	-0.776628
C42	C	1.146225	0.051171	-0.276628
C43	C	0.701643	-0.421018	-0.728609
C44	C	1.201643	0.078982	-0.228609
C45	C	0.665573	-0.384054	-0.664797
C46	C	1.165573	0.115946	-0.164797
C47	C	0.574084	-0.374906	-0.649000
C48	C	1.074084	0.125094	-0.149000
C49	C	0.720983	-0.356246	-0.616772
C50	C	1.220983	0.143754	-0.116772
C51	C	0.684913	-0.319282	-0.552960
C52	C	1.184913	0.180718	-0.052960
C53	C	0.593432	-0.310135	-0.537166
C54	C	1.093432	0.189865	-0.037166
C55	C	0.538014	-0.337947	-0.585184
C56	C	1.038014	0.162053	-0.085184
C57	C	0.812472	-0.365394	-0.632569
C58	C	1.312472	0.134606	-0.132569
C59	C	0.831812	-0.300622	-0.520732
C60	C	1.331812	0.199378	-0.020732
C61	C	0.740331	-0.291471	-0.504941
C62	C	1.240331	0.208529	-0.004941
C63	C	1.192729	-0.533646	-0.640629
C64	C	1.692729	-0.033646	-0.140629
C65	C	1.192759	-0.603616	-0.640643
C66	C	1.692759	-0.103616	-0.140643
C67	C	1.258503	-0.650018	-0.594363
C68	C	1.758503	-0.150018	-0.094363
C69	C	1.258540	-0.715762	-0.594390
C70	C	1.758540	-0.215762	-0.094390
C71	C	1.192820	-0.735101	-0.640684
C72	C	1.692820	-0.235101	-0.140684
C73	C	1.127070	-0.688689	-0.686974
C74	C	1.627070	-0.188689	-0.186974
C75	C	1.127040	-0.622946	-0.686953
C76	C	1.627040	-0.122946	-0.186953
N77	N	1.115037	-0.829753	-0.634117
N78	N	1.615037	-0.329753	-0.134117
N79	N	1.115069	-0.892206	-0.634132
N80	N	1.615069	-0.392206	-0.134132
C81	C	1.192909	-0.933178	-0.640751
C82	C	1.692909	-0.433178	-0.140751
N83	N	1.270720	-0.909340	-0.647339
N84	N	1.770720	-0.409340	-0.147339
N85	N	1.270688	-0.846881	-0.647319
N86	N	1.770688	-0.346881	-0.147319
C87	C	1.192846	-0.806386	-0.640712
C88	C	1.692846	-0.306386	-0.140712
C89	C	1.258699	-1.050868	-0.594499
C90	C	1.758699	-0.550868	-0.094499
C91	C	1.258737	-1.116612	-0.594532
C92	C	1.758737	-0.616612	-0.094532
C93	C	1.127260	-1.089538	-0.687110
C94	C	1.627260	-0.589538	-0.187110
C95	C	1.127229	-1.023795	-0.687083
C96	C	1.627229	-0.523795	-0.187083
C97	C	1.192948	-1.004465	-0.640772
C98	C	1.692948	-0.504465	-0.140772
C99	C	1.421311	-0.392972	-0.680191
C100	C	1.921311	0.107028	-0.180191
C101	C	1.518674	-0.402719	-0.697022
C102	C	2.018674	0.097281	-0.197022
C103	C	1.153363	-0.337674	-0.869193
C104	C	1.653363	0.162326	-0.369193
C105	C	1.136543	-0.323857	-0.966564
C106	C	1.636543	0.176143	-0.466564
C107	C	1.192963	-0.205913	-0.640789
C108	C	1.692963	0.294087	-0.140789
C109	C	1.193017	-0.135947	-0.640828
C110	C	1.693017	0.364053	-0.140828
C111	C	1.313084	-0.468372	-1.279674
C112	C	1.813084	0.031628	-0.779674
C113	C	1.328883	-0.481358	-1.188188
C114	C	1.828883	0.018642	-0.688188
C115	C	1.280800	-0.441983	-1.132778
C116	C	1.780800	0.058017	-0.632778
C117	C	1.216914	-0.389622	-1.168862
C118	C	1.716914	0.110378	-0.668862
C119	C	1.201108	-0.376638	-1.260356
C120	C	1.701108	0.123362	-0.760356
C121	C	1.168824	-0.350249	-1.113460
C122	C	1.668824	0.149751	-0.613460
C123	C	1.104938	-0.297887	-1.149544
C124	C	1.604938	0.202113	-0.649544
C125	C	1.089135	-0.284905	-1.241029
C126	C	1.589135	0.215095	-0.741029
C127	C	1.137219	-0.324280	-1.296439
C128	C	1.637219	0.175720	-0.796439
C129	C	1.184630	-0.363233	-1.021966
C130	C	1.684630	0.136767	-0.521966
C131	C	1.072654	-0.271499	-1.002647
C132	C	1.572654	0.228501	-0.502647
C133	C	1.056854	-0.258513	-1.094133
C134	C	1.556854	0.241487	-0.594133
C135	C	1.232205	-0.402357	-0.413099
C136	C	1.732205	0.097643	0.086901
C137	C	1.249195	-0.416014	-0.315758
C138	C	1.749195	0.083986	0.184242
H139	H	0.841832	-0.395489	-0.684526
H140	H	1.341832	0.104511	-0.184526
H141	H	1.236651	-0.405864	-0.992596
H142	H	1.736651	0.094136	-0.492596
H143	H	1.312214	-1.035129	-0.556793
H144	H	1.812214	-0.535129	-0.056793
Cl145	Cl	0.976542	-0.192690	-1.139507
Cl146	Cl	1.476542	0.307310	-0.639507
Cl147	Cl	1.373514	-0.517870	-1.349333
Cl148	Cl	1.873514	-0.017870	-0.849333
Cl149	Cl	0.816649	-0.432520	-0.748464
Cl150	Cl	1.316649	0.067480	-0.248464
Cl151	Cl	0.691565	-0.495296	-0.856844
Cl152	Cl	1.191565	0.004704	-0.356844
H153	H	1.124361	-0.313708	-1.370936
H154	H	1.624361	0.186292	-0.870936
H155	H	0.876935	-0.277977	-0.481630
H156	H	1.376935	0.222023	0.018370
H157	H	0.509615	-0.462322	-0.799921
H158	H	1.009615	0.037678	-0.299921
H159	H	1.293667	-0.452560	-1.058286
H160	H	1.793667	0.047440	-0.558286
H161	H	1.380891	-0.523996	-1.158814
H162	H	1.880891	-0.023996	-0.658814
H163	H	1.073562	-0.704438	-0.724669
H164	H	1.573562	-0.204438	-0.224669
H165	H	1.312017	-0.634282	-0.556657
H166	H	1.812017	-0.134282	-0.056657
H167	H	1.037107	-0.242274	-1.270404
H168	H	1.537107	0.257726	-0.770404
H169	H	1.073753	-1.105283	-0.724808
H170	H	1.573753	-0.605283	-0.224808
Cl171	Cl	1.044571	-0.965458	-0.745261
Cl172	Cl	1.544571	-0.465458	-0.245261
H173	H	0.710949	-0.261374	-0.452985
H174	H	1.210949	0.238626	0.047015
Cl175	Cl	0.423002	-0.326439	-0.565341
Cl176	Cl	0.923002	0.173561	-0.065341
Cl177	Cl	1.012191	-0.222004	-0.932993
Cl178	Cl	1.512191	0.277996	-0.432993
H179	H	0.564068	-0.280045	-0.485197
H180	H	1.064068	0.219955	0.014803
Cl181	Cl	1.341195	-0.774106	-0.536204
Cl182	Cl	1.841195	-0.274106	-0.036204
H183	H	1.073502	-0.585163	-0.724640
H184	H	1.573502	-0.085163	-0.224640
Cl185	Cl	1.341400	-1.174949	-0.536354
Cl186	Cl	1.841400	-0.674949	-0.036354
