data_functionalizedCrystal
_audit_creation_method	'MofGen! by Chris Wilmer'
_symmetry_space_group_name_H-M	'P1'
_symmetry_Int_Tables_number	1
_symmetry_cell_setting	triclinic
loop_
_symmetry_equiv_pos_as_xyz
  x,y,z
_cell_length_a	16.109301
_cell_length_b	10.654550
_cell_length_c	9.730223
_cell_angle_alpha	90.000043
_cell_angle_beta	89.994178
_cell_angle_gamma	96.026794
loop_
_atom_site_label
_atom_site_type_symbol
_atom_site_fract_x
_atom_site_fract_y
_atom_site_fract_z
O1	O	0.116774	-1.666255	-0.114192
O2	O	0.616774	-1.166255	0.385808
O3	O	0.127899	-1.300625	-0.114218
O4	O	0.627899	-0.800625	0.385782
O5	O	0.001365	-1.493484	-0.114190
O6	O	0.501365	-0.993484	0.385810
O7	O	0.243308	-1.473396	-0.114220
O8	O	0.743308	-0.973396	0.385780
O9	O	0.001362	-1.493472	0.114390
O10	O	0.501362	-0.993472	0.614390
O11	O	0.127896	-1.300613	0.114362
O12	O	0.627896	-0.800613	0.614362
O13	O	0.116770	-1.666243	0.114388
O14	O	0.616770	-1.166243	0.614388
Zn15	Zn	0.122333	-1.483426	0.150667
Zn16	Zn	0.622333	-0.983426	0.650667
Zn17	Zn	0.122337	-1.483442	-0.150497
Zn18	Zn	0.622337	-0.983442	0.349503
O19	O	0.243304	-1.473384	0.114360
O20	O	0.743304	-0.973384	0.614360
C21	C	0.127081	-1.253832	0.000069
C22	C	0.627081	-0.753832	0.500069
C23	C	0.124637	-1.114422	0.000060
C24	C	0.624637	-0.614422	0.500060
C25	C	-0.029616	-1.492664	0.000100
C26	C	0.470384	-0.992664	0.500100
C27	C	-0.121926	-1.490225	0.000102
C28	C	0.378074	-0.990225	0.500102
C29	C	-0.343552	-1.598991	0.000088
C30	C	0.156448	-1.098991	0.500088
C31	C	-0.430286	-1.596689	0.000076
C32	C	0.069714	-1.096689	0.500076
C33	C	-0.411772	-1.367868	0.000066
C34	C	0.088228	-0.867868	0.500066
C35	C	-0.325039	-1.370172	0.000067
C36	C	0.174961	-0.870172	0.500067
C37	C	-0.290932	-1.485737	0.000085
C38	C	0.209068	-0.985737	0.500085
C39	C	-0.464398	-1.481131	0.000072
C40	C	0.035602	-0.981131	0.500072
C41	C	-0.558439	-1.478634	0.000060
C42	C	-0.058439	-0.978634	0.500060
C43	C	-0.196885	-1.488234	0.000095
C44	C	0.303115	-0.988234	0.500095
C45	C	0.117589	-1.713036	0.000098
C46	C	0.617589	-1.213036	0.500098
C47	C	0.120033	-1.852446	0.000098
C48	C	0.620033	-1.352446	0.500098
C49	C	0.274286	-1.474203	0.000067
C50	C	0.774286	-0.974203	0.500067
C51	C	0.366596	-1.476643	0.000056
C52	C	0.866596	-0.976643	0.500056
N53	N	0.122329	-1.483424	0.356203
N54	N	0.622329	-0.983424	0.856203
C55	C	0.199138	-1.033926	0.000054
C56	C	0.699138	-0.533926	0.500054
C57	C	0.196836	-0.902936	0.000079
C58	C	0.696836	-0.402936	0.500079
C59	C	0.045526	-0.932952	0.000107
C60	C	0.545526	-0.432952	0.500107
C61	C	0.047828	-1.063939	0.000093
C62	C	0.547828	-0.563939	0.500093
N63	N	0.122334	-1.483454	-0.356033
N64	N	0.622334	-0.983454	0.143967
C65	C	0.066324	-1.568851	0.428141
C66	C	0.566324	-1.068851	0.928141
C67	C	0.066324	-1.568863	0.572024
C68	C	0.566324	-1.068863	1.072024
C69	C	0.178342	-1.398018	0.572018
C70	C	0.678342	-0.898018	1.072018
C71	C	0.178337	-1.398001	0.428138
C72	C	0.678337	-0.898001	0.928138
H73	H	-0.315784	-1.693091	0.000100
H74	H	0.184216	-1.193091	0.500100
C75	C	0.283621	-1.089460	0.000029
C76	C	0.783621	-0.589460	0.500029
H77	H	0.274324	-1.179001	0.000008
H78	H	0.774324	-0.679001	0.500008
H79	H	0.314329	-1.061835	0.079736
H80	H	0.814329	-0.561835	0.579736
H81	H	0.314326	-1.061818	-0.079695
H82	H	0.814326	-0.561818	0.420305
C83	C	0.278788	-0.814396	0.000063
C84	C	0.778788	-0.314396	0.500063
H85	H	0.324858	-0.863226	0.000031
H86	H	0.824858	-0.363226	0.500031
H87	H	0.281041	-0.762680	0.079779
H88	H	0.781041	-0.262680	0.579779
H89	H	0.281031	-0.762668	-0.079653
H90	H	0.781031	-0.262668	0.420347
H91	H	0.223944	-1.328470	0.630602
H92	H	0.723944	-0.828470	1.130602
C93	C	-0.488164	-1.721269	0.000088
C94	C	0.011836	-1.221269	0.500088
H95	H	-0.455426	-1.790419	0.000109
H96	H	0.044574	-1.290419	0.500109
H97	H	-0.522378	-1.725136	-0.079624
H98	H	-0.022378	-1.225136	0.420376
H99	H	-0.522388	-1.725120	0.079808
H100	H	-0.022388	-1.225120	0.579808
H101	H	-0.017009	-0.891833	0.000143
H102	H	0.482991	-0.391833	0.500143
H103	H	0.223944	-1.328430	0.369562
H104	H	0.723944	-0.828430	0.869562
C105	C	-0.034127	-1.152491	0.000093
C106	C	0.465873	-0.652491	0.500093
H107	H	-0.080201	-1.103667	0.000094
H108	H	0.419799	-0.603667	0.500094
H109	H	-0.036373	-1.204222	0.079797
H110	H	0.463627	-0.704222	0.579797
H111	H	-0.036370	-1.204203	-0.079635
H112	H	0.463630	-0.704203	0.420365
H113	H	0.020717	-1.638406	0.369575
H114	H	0.520717	-1.138406	0.869575
H115	H	-0.439553	-1.273779	0.000054
H116	H	0.060447	-0.773779	0.500054
C117	C	0.004719	-1.662830	0.651157
C118	C	0.504719	-1.162830	1.151157
H119	H	0.012735	-1.650600	0.747150
H120	H	0.512735	-1.150600	1.247150
H121	H	0.014265	-1.746631	0.627566
H122	H	0.514265	-1.246631	1.127566
H123	H	-0.050856	-1.649210	0.627588
H124	H	0.449144	-1.149210	1.127588
C125	C	-0.267154	-1.245586	0.000069
C126	C	0.232846	-0.745586	0.500069
H127	H	-0.299888	-1.176430	0.000078
H128	H	0.200112	-0.676430	0.500078
H129	H	-0.232929	-1.241732	-0.079641
H130	H	0.267071	-0.741732	0.420359
H131	H	-0.232942	-1.241732	0.079791
H132	H	0.267058	-0.741732	0.579791
