data_functionalizedCrystal
_audit_creation_method	'MofGen! by Chris Wilmer'
_symmetry_space_group_name_H-M	'P1'
_symmetry_Int_Tables_number	1
_symmetry_cell_setting	triclinic
loop_
_symmetry_equiv_pos_as_xyz
  x,y,z
_cell_length_a	17.077404
_cell_length_b	12.759400
_cell_length_c	17.077396
_cell_angle_alpha	89.975532
_cell_angle_beta	89.981638
_cell_angle_gamma	90.011136
loop_
_atom_site_label
_atom_site_type_symbol
_atom_site_fract_x
_atom_site_fract_y
_atom_site_fract_z
Zn1	Zn	1.200108	-0.418323	-0.443841
Zn2	Zn	1.200037	-0.594024	-0.312584
Zn3	Zn	1.068839	-0.418353	-0.312591
Zn4	Zn	1.068830	-0.593954	-0.443810
O5	O	1.134453	-0.506164	-0.378207
O6	O	1.309945	-0.441647	-0.426439
O7	O	1.182608	-0.570762	-0.202738
O8	O	1.086286	-0.271328	-0.330018
O9	O	1.309893	-0.570733	-0.330005
O10	O	1.182728	-0.271306	-0.426446
O11	O	1.086218	-0.441698	-0.202743
O12	O	0.958991	-0.441631	-0.329988
O13	O	1.086269	-0.570615	-0.553661
O14	O	0.958984	-0.570644	-0.426394
O15	O	1.182719	-0.441580	-0.553684
O16	O	1.182598	-0.741036	-0.329975
O17	O	1.086201	-0.740985	-0.426387
C18	C	0.930506	-0.506134	-0.378189
C19	C	0.843256	-0.506146	-0.378200
C20	C	0.802293	-0.439051	-0.428490
C21	C	0.720313	-0.439057	-0.428493
C22	C	0.679296	-0.506166	-0.378211
C23	C	0.720264	-0.573265	-0.327915
C24	C	0.802243	-0.573252	-0.327908
C25	C	0.549394	-0.573289	-0.327935
C26	C	0.467410	-0.573303	-0.327943
C27	C	0.467464	-0.439094	-0.428520
C28	C	0.549443	-0.439081	-0.428513
C29	C	0.590405	-0.506182	-0.378218
C30	C	1.134412	-0.779131	-0.378194
C31	C	1.134466	-0.895908	-0.378215
C32	C	1.184659	-0.950678	-0.428466
C33	C	1.184695	-1.060402	-0.428486
C34	C	1.084345	-1.060575	-0.327995
C35	C	1.084305	-0.950853	-0.327981
C36	C	1.234820	-0.895733	-0.478701
C37	C	1.285017	-0.950504	-0.528956
C38	C	1.285054	-1.060228	-0.528975
C39	C	1.234893	-1.115181	-0.478739
C40	C	1.339198	-0.506194	-0.378225
C41	C	1.426447	-0.506207	-0.378232
C42	C	1.134501	-0.506086	-0.582951
C43	C	1.134521	-0.506053	-0.670201
C44	C	1.134516	-0.232130	-0.378236
C45	C	1.134543	-0.115354	-0.378249
C46	C	1.184744	-0.438859	-0.711204
C47	C	1.184754	-0.438824	-0.793184
C48	C	1.134543	-0.505989	-0.834160
C49	C	1.084315	-0.573187	-0.793151
C50	C	1.084302	-0.573216	-0.711172
C51	C	1.084347	-0.573124	-0.964022
C52	C	1.084360	-0.573096	-1.046006
C53	C	1.184798	-0.438732	-1.046034
C54	C	1.184785	-0.438761	-0.964055
C55	C	1.134557	-0.505960	-0.923051
C56	C	1.134451	-0.506165	-0.174259
C57	C	1.134583	-0.505902	-0.087009
H58	H	0.434016	-0.627950	-0.286999
H59	H	1.234798	-0.806390	-0.478689
H60	H	1.043397	-0.627922	-0.677789
H61	H	1.043433	-0.627828	-0.930639
H62	H	0.434108	-0.384456	-0.469470
H63	H	1.225675	-0.384075	-0.930694
H64	H	1.325852	-0.905755	-0.569861
C65	C	1.384244	-1.049031	-0.628299
C66	C	1.340227	-1.120434	-0.584214
H67	H	1.418311	-1.086200	-0.662397
H68	H	1.350013	-1.006243	-0.658289
H69	H	1.414270	-1.006236	-0.594107
H70	H	1.310196	-1.163224	-0.618406
H71	H	1.374462	-1.163240	-0.554222
H72	H	1.234918	-1.204526	-0.478768
H73	H	0.835683	-0.384406	-0.469438
C74	C	0.728601	-0.306408	-0.527914
C75	C	0.675287	-0.365306	-0.483776
H76	H	0.700802	-0.260879	-0.562046
H77	H	0.760564	-0.266159	-0.493764
H78	H	0.760584	-0.352245	-0.557876
H79	H	0.643307	-0.319469	-0.453809
H80	H	0.643310	-0.405558	-0.517930
H81	H	1.043507	-1.105327	-0.287095
H82	H	1.043433	-0.906258	-0.287062
C83	C	1.195700	-0.297449	-0.885372
C84	C	1.239957	-0.364948	-0.838247
H85	H	1.229781	-0.251831	-0.913185
H86	H	1.165811	-0.337441	-0.921510
H87	H	1.161503	-0.257285	-0.853376
H88	H	1.274150	-0.405117	-0.870244
H89	H	1.269859	-0.324952	-0.802105
C90	C	0.541111	-0.705970	-0.228529
C91	C	0.594422	-0.647055	-0.272657
H92	H	0.568911	-0.751516	-0.194411
H93	H	0.509131	-0.660153	-0.198559
H94	H	0.509143	-0.746210	-0.262692
H95	H	0.626386	-0.606808	-0.238493
H96	H	0.626415	-0.692878	-0.302629
H97	H	1.225634	-0.384168	-0.677847
H98	H	1.225694	-0.384014	-1.079422
C99	C	0.793961	-0.705925	-0.228503
C100	C	0.847272	-0.647013	-0.272634
H101	H	0.821761	-0.751466	-0.194381
H102	H	0.761979	-0.660106	-0.198538
H103	H	0.761996	-0.746172	-0.262665
H104	H	0.879234	-0.606760	-0.238472
H105	H	0.879268	-0.692838	-0.302601
H106	H	0.582836	-0.384442	-0.469462
H107	H	1.043430	-0.627870	-0.826520
C108	C	0.985067	-0.705897	-1.037749
C109	C	1.029163	-0.646917	-1.091049
H110	H	0.950987	-0.751465	-1.065559
H111	H	1.019246	-0.746107	-1.005776
H112	H	0.955050	-0.660113	-1.005774
H113	H	1.059185	-0.692700	-1.123020
H114	H	0.994979	-0.606704	-1.123036
H115	H	0.686862	-0.627901	-0.286970
