data_functionalizedCrystal
_audit_creation_method	'MofGen! by Chris Wilmer'
_symmetry_space_group_name_H-M	'P1'
_symmetry_Int_Tables_number	1
_symmetry_cell_setting	triclinic
loop_
_symmetry_equiv_pos_as_xyz
  x,y,z
_cell_length_a	8.559649
_cell_length_b	10.654550
_cell_length_c	7.681452
_cell_angle_alpha	96.370705
_cell_angle_beta	82.932170
_cell_angle_gamma	102.868203
loop_
_atom_site_label
_atom_site_type_symbol
_atom_site_fract_x
_atom_site_fract_y
_atom_site_fract_z
O1	O	2.106056	0.051844	0.146399
O2	O	1.641569	-0.012942	0.146409
O3	O	1.884493	0.203293	0.146393
O4	O	1.863132	-0.164390	0.146415
O5	O	1.911678	0.184720	-0.146465
O6	O	1.668755	-0.031515	-0.146449
O7	O	2.133241	0.033271	-0.146458
Zn8	Zn	1.905314	-0.002071	-0.192951
Zn9	Zn	1.869496	0.022400	0.192901
O10	O	1.890318	-0.182963	-0.146442
C11	C	1.595686	-0.027138	-0.000019
C12	C	1.418468	-0.041752	-0.000015
C13	C	1.896517	0.240642	-0.000035
C14	C	1.891825	0.379601	-0.000032
C15	C	2.179124	0.047468	-0.000027
C16	C	2.356341	0.062083	-0.000019
C17	C	1.878293	-0.220313	-0.000011
C18	C	1.882984	-0.359271	-0.000002
N19	N	1.929771	-0.018769	-0.456285
C20	C	2.034854	0.473861	-0.000035
C21	C	2.030434	0.604427	-0.000013
C22	C	1.739943	0.546458	0.000006
C23	C	1.744364	0.415896	-0.000003
N24	N	1.845052	0.039110	0.456235
H25	H	2.154925	0.444316	-0.000055
H26	H	2.146902	0.681171	-0.000011
O27	O	1.730539	0.117414	-0.444171
H28	H	1.733735	0.115261	-0.300533
H29	H	1.619886	0.576026	0.000026
O30	O	1.465458	0.194655	-0.000044
H31	H	1.592200	0.185715	-0.000064
H32	H	1.627885	0.339143	0.000004
O33	O	1.309345	-0.174333	-0.000020
H34	H	1.182606	-0.165399	-0.000033
H35	H	2.016251	-0.077842	-0.531482
