data_functionalizedCrystal
_audit_creation_method	'MofGen! by Chris Wilmer'
_symmetry_space_group_name_H-M	'P1'
_symmetry_Int_Tables_number	1
_symmetry_cell_setting	triclinic
loop_
_symmetry_equiv_pos_as_xyz
  x,y,z
_cell_length_a	16.992694
_cell_length_b	18.266242
_cell_length_c	16.974813
_cell_angle_alpha	93.660911
_cell_angle_beta	87.024634
_cell_angle_gamma	90.003271
loop_
_atom_site_label
_atom_site_type_symbol
_atom_site_fract_x
_atom_site_fract_y
_atom_site_fract_z
O1	O	1.040217	0.070720	0.167651
O2	O	1.540217	0.570720	0.667651
O3	O	0.811933	0.070633	0.165812
O4	O	1.311933	0.570633	0.665812
O5	O	0.932438	0.063877	0.052030
O6	O	1.432438	0.563877	0.552030
O7	O	0.919712	0.077476	0.281433
O8	O	1.419712	0.577476	0.781433
O9	O	0.932418	-0.057886	0.052022
O10	O	1.432418	0.442114	0.552022
O11	O	0.811913	-0.051130	0.165804
O12	O	1.311913	0.448870	0.665804
O13	O	1.040196	-0.051042	0.167644
O14	O	1.540196	0.448958	0.667644
Zn15	Zn	0.926051	-0.070418	0.166723
Zn16	Zn	1.426051	0.429582	0.666723
Zn17	Zn	0.926078	0.090009	0.166733
Zn18	Zn	1.426078	0.590009	0.666733
O19	O	0.919691	-0.044286	0.281426
O20	O	1.419691	0.455714	0.781426
C21	C	0.782713	0.009614	0.163442
C22	C	1.282713	0.509614	0.663442
C23	C	0.695676	0.009204	0.156382
C24	C	1.195676	0.509204	0.656382
N25	N	0.926039	-0.179906	0.166716
N26	N	1.426039	0.320094	0.666716
C27	C	0.645363	0.013241	0.224498
C28	C	1.145363	0.513241	0.724498
C29	C	0.563583	0.012838	0.217860
C30	C	1.063583	0.512838	0.717860
C31	C	0.532119	0.008402	0.143106
C32	C	1.032119	0.508402	0.643106
C33	C	0.582439	0.004362	0.074985
C34	C	1.082439	0.504362	0.574985
C35	C	0.664217	0.004761	0.081624
C36	C	1.164217	0.504761	0.581624
C37	C	0.288551	0.006751	0.115591
C38	C	0.788551	0.506751	0.615591
C39	C	0.206766	0.006355	0.108957
C40	C	0.706766	0.506355	0.608957
C41	C	0.187917	0.014830	0.251833
C42	C	0.687917	0.514830	0.751833
C43	C	0.269697	0.015232	0.258466
C44	C	0.769697	0.515232	0.758466
C45	C	0.320010	0.011189	0.190345
C46	C	0.820010	0.511189	0.690345
N47	N	0.448528	0.007992	0.136319
N48	N	0.948528	0.507992	0.636319
N49	N	0.403600	0.011594	0.197132
N50	N	0.903600	0.511594	0.697132
C51	C	0.979416	-0.221205	0.116361
C52	C	1.479416	0.278795	0.616361
C53	C	0.979421	-0.297850	0.116357
C54	C	1.479421	0.202150	0.616357
C55	C	0.926056	-0.333192	0.166723
C56	C	1.426056	0.166808	0.666723
C57	C	0.872669	-0.291884	0.217082
C58	C	1.372669	0.208116	0.717082
C59	C	0.872660	-0.215241	0.217078
C60	C	1.372660	0.284759	0.717078
N61	N	0.916001	-0.449414	0.236053
N62	N	1.416001	0.050586	0.736053
N63	N	0.916015	-0.522222	0.236054
N64	N	1.416015	-0.022222	0.736054
C65	C	0.926078	-0.564114	0.166736
C66	C	1.426078	-0.064114	0.666736
N67	N	0.936144	-0.530447	0.097415
N68	N	1.436144	-0.030447	0.597415
N69	N	0.936135	-0.457632	0.097415
N70	N	1.436135	0.042368	0.597415
C71	C	0.926059	-0.416299	0.166732
C72	C	1.426059	0.083701	0.666732
C73	C	0.979464	-0.688520	0.116373
C74	C	1.479464	-0.188520	0.616373
C75	C	0.979463	-0.765167	0.116368
C76	C	1.479463	-0.265167	0.616368
C77	C	0.872715	-0.759199	0.217100
C78	C	1.372715	-0.259199	0.717100
C79	C	0.872712	-0.682555	0.217098
C80	C	1.372712	-0.182555	0.717098
C81	C	0.926090	-0.647220	0.166735
C82	C	1.426090	-0.147220	0.666735
C83	C	1.069416	0.009978	0.170013
C84	C	1.569416	0.509978	0.670013
C85	C	1.156453	0.010393	0.177073
C86	C	1.656453	0.510393	0.677073
C87	C	0.931944	0.001249	0.022537
C88	C	1.431944	0.501249	0.522537
C89	C	0.930491	-0.003955	-0.065332
C90	C	1.430491	0.496045	0.434668
N91	N	0.926097	0.199496	0.166734
N92	N	1.426097	0.699496	0.666734
C93	C	0.929822	0.059973	-0.106604
C94	C	1.429822	0.559973	0.393396
C95	C	0.928452	0.055081	-0.189166
C96	C	1.428452	0.555081	0.310834
C97	C	0.927757	-0.013739	-0.230454
C98	C	1.427757	0.486261	0.269546
C99	C	0.928424	-0.077671	-0.189176
C100	C	1.428424	0.422329	0.310824
C101	C	0.929788	-0.072779	-0.106615
C102	C	1.429788	0.427221	0.393385
C103	C	0.923670	-0.035488	-0.477374
C104	C	1.423670	0.464512	0.022626
C105	C	0.922308	-0.040376	-0.559941
C106	C	1.422308	0.459624	-0.059941
C107	C	0.922334	0.092377	-0.559925
C108	C	1.422334	0.592377	-0.059925
C109	C	0.923703	0.097263	-0.477363
C110	C	1.423703	0.597263	0.022637
C111	C	0.924366	0.033331	-0.436092
C112	C	1.424366	0.533331	0.063908
N113	N	0.926359	-0.018741	-0.314845
N114	N	1.426359	0.481259	0.185155
N115	N	0.925758	0.038334	-0.351701
N116	N	1.425758	0.538334	0.148299
C117	C	0.920186	0.018343	0.310918
C118	C	1.420186	0.518343	0.810918
C119	C	0.921638	0.023551	0.398787
C120	C	1.421638	0.523551	0.898787
H121	H	0.670974	0.016854	0.285371
H122	H	1.170974	0.516854	0.785371
H123	H	0.522621	0.016126	0.273328
H124	H	1.022621	0.516126	0.773328
H125	H	0.930391	0.116014	-0.072993
H126	H	1.430391	0.616014	0.427007
H127	H	0.927854	-0.133706	-0.222799
H128	H	1.427854	0.366294	0.277201
H129	H	1.022925	-0.659750	0.075362
H130	H	1.522925	-0.159750	0.575362
F131	F	0.342087	0.002448	0.043090
F132	F	0.842087	0.502448	0.543090
H133	H	0.930322	-0.124835	-0.073012
H134	H	1.430322	0.375165	0.426988
H135	H	0.927910	0.107138	-0.222766
H136	H	1.427910	0.607138	0.277234
H137	H	0.924270	0.153304	-0.443751
H138	H	1.424270	0.653304	0.056249
H139	H	0.921793	0.144427	-0.593536
H140	H	1.421793	0.644427	-0.093536
H141	H	0.829217	-0.320664	0.258089
H142	H	1.329217	0.179336	0.758089
F143	F	0.548950	-0.000364	-0.004575
F144	F	1.048950	0.499636	0.495425
F145	F	0.921573	-0.113627	-0.603881
F146	F	1.421573	0.386373	-0.103881
F147	F	0.303177	0.019957	0.338029
F148	F	0.803177	0.519957	0.838029
F149	F	0.134365	0.019132	0.324327
F150	F	0.634365	0.519132	0.824327
F151	F	0.717764	0.000461	0.009125
F152	F	1.217764	0.500461	0.509125
H153	H	0.181152	0.002744	0.048080
H154	H	0.681152	0.502744	0.548080
H155	H	0.924225	-0.087547	-0.443782
H156	H	1.424225	0.412453	0.056218
H157	H	1.022878	-0.192437	0.075351
H158	H	1.522878	0.307563	0.575351
H159	H	0.829193	-0.181614	0.258084
H160	H	1.329193	0.318386	0.758084
F161	F	1.036235	-0.341810	0.062760
F162	F	1.536235	0.158190	0.562760
H163	H	1.022927	-0.798794	0.075359
H164	H	1.522927	-0.298794	0.575359
F165	F	0.815916	-0.796810	0.270698
F166	F	1.315916	-0.296810	0.770698
H167	H	0.829250	-0.648927	0.258105
H168	H	1.329250	-0.148927	0.758105
