data_functionalizedCrystal
_audit_creation_method	'MofGen! by Chris Wilmer'
_symmetry_space_group_name_H-M	'P1'
_symmetry_Int_Tables_number	1
_symmetry_cell_setting	triclinic
loop_
_symmetry_equiv_pos_as_xyz
  x,y,z
_cell_length_a	17.640112
_cell_length_b	14.908932
_cell_length_c	14.908662
_cell_angle_alpha	89.829774
_cell_angle_beta	82.721545
_cell_angle_gamma	105.099652
loop_
_atom_site_label
_atom_site_type_symbol
_atom_site_fract_x
_atom_site_fract_y
_atom_site_fract_z
Zn1	Zn	1.215101	-0.091461	0.224904
Zn2	Zn	1.715101	0.408539	0.724904
Zn3	Zn	1.199828	-0.236878	0.069194
Zn4	Zn	1.699828	0.263122	0.569194
Zn5	Zn	1.075581	-0.116788	0.104744
Zn6	Zn	1.575581	0.383212	0.604744
Zn7	Zn	1.074717	-0.275956	0.246578
Zn8	Zn	1.574717	0.224044	0.746578
O9	O	1.141307	-0.180271	0.161355
O10	O	1.641307	0.319729	0.661355
O11	O	1.323824	-0.083797	0.180300
O12	O	1.823824	0.416203	0.680300
O13	O	1.177317	-0.215193	-0.050613
O14	O	1.677317	0.284807	0.449387
O15	O	1.100842	0.014042	0.126491
O16	O	1.600842	0.514042	0.626491
O17	O	1.312603	-0.190635	0.065900
O18	O	1.812603	0.309365	0.565900
O19	O	1.203347	0.032649	0.214772
O20	O	1.703347	0.532649	0.714772
O21	O	1.086033	-0.126963	-0.024495
O22	O	1.586033	0.373037	0.475505
O23	O	0.964718	-0.164855	0.147507
O24	O	1.464718	0.335145	0.647507
O25	O	1.099369	-0.257237	0.368226
O26	O	1.599369	0.242763	0.868226
O27	O	0.964083	-0.281795	0.251712
O28	O	1.464083	0.218205	0.751712
O29	O	1.202508	-0.121690	0.352302
O30	O	1.702508	0.378310	0.852302
O31	O	1.176479	-0.369532	0.086917
O32	O	1.676479	0.130468	0.586917
O33	O	1.084560	-0.398242	0.217240
O34	O	1.584560	0.101758	0.717240
C35	C	0.935684	-0.230315	0.205820
C36	C	1.435684	0.269685	0.705820
C37	C	0.847718	-0.251747	0.224862
C38	C	1.347718	0.248253	0.724862
C39	C	1.128791	-0.416934	0.150587
C40	C	1.628791	0.083066	0.650587
C41	C	1.123510	-0.518163	0.145995
C42	C	1.623510	-0.018163	0.645995
C43	C	1.152546	-0.190997	0.393454
C44	C	1.652546	0.309003	0.893454
C45	C	1.157335	-0.195568	0.492361
C46	C	1.657335	0.304432	0.992361
C47	C	0.559994	-0.017439	0.016701
C48	C	1.059994	0.482561	0.516701
C49	C	0.477336	-0.037596	0.034605
C50	C	0.977336	0.462404	0.534605
C51	C	0.476711	-0.159517	0.142909
C52	C	0.976711	0.340483	0.642909
C53	C	0.559371	-0.139367	0.125017
C54	C	1.059371	0.360633	0.625017
C55	C	0.601006	-0.068327	0.061911
C56	C	1.101006	0.431673	0.561911
C57	C	0.600383	-0.190256	0.170228
C58	C	1.100383	0.309744	0.670228
C59	C	0.683036	-0.170110	0.152334
C60	C	1.183036	0.329890	0.652334
C61	C	0.724676	-0.099075	0.089229
C62	C	1.224676	0.400925	0.589229
C63	C	0.683659	-0.048182	0.044017
C64	C	1.183659	0.451818	0.544017
C65	C	0.558746	-0.261299	0.233329
C66	C	1.058746	0.238701	0.733329
C67	C	0.599758	-0.312188	0.278540
C68	C	1.099758	0.187812	0.778540
C69	C	0.682413	-0.292038	0.260651
C70	C	1.182413	0.207962	0.760651
C71	C	0.724053	-0.221004	0.197545
C72	C	1.224053	0.278996	0.697545
C73	C	0.723430	-0.342932	0.305862
C74	C	1.223430	0.157068	0.805862
C75	C	0.806083	-0.322786	0.287968
C76	C	1.306083	0.177214	0.787968
C77	C	0.806706	-0.200858	0.179651
C78	C	1.306706	0.299142	0.679651
C79	C	1.347733	-0.130032	0.116717
C80	C	1.847733	0.369968	0.616717
C81	C	1.435699	-0.108623	0.097695
C82	C	1.935699	0.391377	0.597695
C83	C	1.153894	0.057321	0.172179
C84	C	1.653894	0.557321	0.672179
C85	C	1.159259	0.158569	0.176792
C86	C	1.659259	0.658569	0.676792
C87	C	1.062582	0.329445	0.093540
C88	C	1.562582	0.829445	0.593540
C89	C	1.067619	0.424575	0.097871
C90	C	1.567619	0.924575	0.597871
C91	C	1.174366	0.443961	0.189792
C92	C	1.674366	0.943961	0.689792
C93	C	1.169329	0.348830	0.185460
C94	C	1.669329	0.848830	0.685460
C95	C	1.113436	0.291576	0.137331
C96	C	1.613436	0.791576	0.637331
C97	C	1.108403	0.196445	0.132995
C98	C	1.608403	0.696445	0.632995
C99	C	1.215145	0.215830	0.224921
C100	C	1.715145	0.715830	0.724921
C101	C	1.220182	0.310961	0.229252
C102	C	1.720182	0.810961	0.729252
C103	C	1.130161	-0.169509	-0.069848
C104	C	1.630161	0.330491	0.430152
C105	C	1.125538	-0.164644	-0.168776
C106	C	1.625538	0.335356	0.331224
C107	C	1.211603	-0.247943	0.618172
C108	C	1.711603	0.252057	1.118172
C109	C	1.207108	-0.243652	0.525239
C110	C	1.707108	0.256348	1.025239
C111	C	1.112051	-0.151775	0.552423
C112	C	1.612051	0.348225	1.052423
C113	C	1.116546	-0.156067	0.645357
C114	C	1.616546	0.343933	1.145357
C115	C	1.166324	-0.204151	0.678227
C116	C	1.666324	0.295849	1.178227
C117	C	1.170822	-0.208437	0.771161
C118	C	1.670822	0.291563	1.271161
C119	C	1.075761	-0.116567	0.798345
C120	C	1.575761	0.383433	1.298345
C121	C	1.071267	-0.112275	0.705412
C122	C	1.571267	0.387725	1.205412
H123	H	0.840609	-0.142997	0.128278
H124	H	1.340609	0.357003	0.628278
N125	N	1.017586	-0.060413	0.669946
N126	N	1.517586	0.439587	1.169946
H127	H	1.034112	0.006916	0.686423
H128	H	1.534112	0.506916	1.186423
H129	H	0.961090	-0.089137	0.697710
H130	H	1.461090	0.410863	1.197710
N131	N	0.728571	0.028447	-0.024041
N132	N	1.228571	0.528447	0.475959
H133	H	0.710355	0.013836	-0.085168
H134	H	1.210355	0.513836	0.414832
H135	H	0.787141	0.033448	-0.028438
H136	H	1.287141	0.533448	0.471562
N137	N	1.265297	-0.299789	0.653632
N138	N	1.765297	0.200211	1.153632
H139	H	1.293303	-0.326877	0.601484
H140	H	1.793303	0.173123	1.101484
H141	H	1.232717	-0.351567	0.697236
H142	H	1.732717	0.148433	1.197236
N143	N	1.255942	-0.290888	0.460465
N144	N	1.755942	0.209112	0.960465
H145	H	1.288154	-0.321998	0.495396
H146	H	1.788154	0.178002	0.995396
H147	H	1.292668	-0.243117	0.415677
H148	H	1.792668	0.256883	0.915677
N149	N	0.604910	0.059190	-0.051356
N150	N	1.104910	0.559190	0.448644
H151	H	0.566390	0.088377	-0.077282
H152	H	1.066390	0.588377	0.422718
H153	H	0.635246	0.032439	-0.101703
H154	H	1.135246	0.532439	0.398297
N155	N	1.270004	0.175010	0.272172
N156	N	1.770004	0.675010	0.772172
H157	H	1.302846	0.146139	0.226290
H158	H	1.802846	0.646139	0.726290
H159	H	1.237702	0.125849	0.318577
H160	H	1.737702	0.625849	0.818577
N161	N	1.234632	0.505717	0.241718
N162	N	1.734632	1.005717	0.741718
H163	H	1.230099	0.571725	0.237821
H164	H	1.730099	1.071725	0.737821
H165	H	1.289609	0.503499	0.214894
H166	H	1.789609	1.003499	0.714894
N167	N	0.678524	-0.419551	0.373924
N168	N	1.178524	0.080449	0.873924
H169	H	0.688805	-0.480458	0.353923
H170	H	1.188805	0.019542	0.853923
H171	H	0.619957	-0.424514	0.378370
H172	H	1.119957	0.075486	0.878370
N173	N	1.048123	0.134693	0.081082
N174	N	1.548123	0.634693	0.581082
H175	H	0.993124	0.136844	0.107889
H176	H	1.493124	0.636844	0.607889
H177	H	1.052718	0.068713	0.084992
H178	H	1.552718	0.568713	0.584992
H179	H	1.211357	-0.247586	0.797922
H180	H	1.711357	0.252414	1.297922
N181	N	1.002310	0.267691	0.041620
N182	N	1.502310	0.767691	0.541620
H183	H	0.947306	0.269839	0.068417
H184	H	1.447306	0.769839	0.568417
H185	H	1.006907	0.201712	0.045535
H186	H	1.506907	0.701712	0.545535
N187	N	0.813823	-0.077350	0.069923
N188	N	1.313823	0.422650	0.569923
H189	H	0.837583	-0.058668	0.127435
H190	H	1.337583	0.441332	0.627435
H191	H	0.833908	-0.024649	0.023059
H192	H	1.333908	0.475351	0.523059
N193	N	0.433099	0.017291	-0.014165
N194	N	0.933099	0.517291	0.485835
H195	H	0.472019	0.065348	-0.056856
H196	H	0.972019	0.565348	0.443144
H197	H	0.402789	0.049354	0.031461
H198	H	0.902789	0.549354	0.531461
N199	N	0.431795	-0.236130	0.210973
N200	N	0.931795	0.263870	0.710973
H201	H	0.450012	-0.221509	0.272097
H202	H	0.950012	0.278491	0.772097
H203	H	0.442087	-0.297009	0.190901
H204	H	0.942087	0.202991	0.690901
N205	N	1.026930	-0.069317	0.863117
N206	N	1.526930	0.430683	1.363117
H207	H	1.037333	-0.079326	0.926978
H208	H	1.537333	0.420674	1.426978
H209	H	0.968869	-0.096494	0.858453
H210	H	1.468869	0.403506	1.358453
H211	H	1.071517	-0.112637	0.525644
H212	H	1.571517	0.387363	1.025644
H213	H	1.265687	0.357588	0.268441
H214	H	1.765687	0.857588	0.768441
N215	N	0.469598	-0.283040	0.252623
N216	N	0.969598	0.216960	0.752623
H217	H	0.453530	-0.274079	0.318759
H218	H	0.953530	0.225921	0.818759
H219	H	0.445670	-0.349588	0.237572
H220	H	0.945670	0.150412	0.737572
N221	N	1.012770	0.465422	0.050641
N222	N	1.512770	0.965422	0.550641
H223	H	0.976600	0.414714	0.019496
H224	H	1.476600	0.914714	0.519496
H225	H	1.045080	0.514635	0.004289
H226	H	1.545080	1.014635	0.504289
N227	N	0.554850	-0.388811	0.346597
N228	N	1.054850	0.111189	0.846597
H229	H	0.496266	-0.393854	0.351072
H230	H	0.996266	0.106146	0.851072
H231	H	0.573129	-0.374145	0.407682
H232	H	1.073129	0.125855	0.907682
H233	H	0.839476	-0.364224	0.324784
H234	H	1.339476	0.135776	0.824784
