data_functionalizedCrystal
_audit_creation_method	'MofGen! by Chris Wilmer'
_symmetry_space_group_name_H-M	'P1'
_symmetry_Int_Tables_number	1
_symmetry_cell_setting	triclinic
loop_
_symmetry_equiv_pos_as_xyz
  x,y,z
_cell_length_a	12.759401
_cell_length_b	12.594516
_cell_length_c	12.759393
_cell_angle_alpha	90.030800
_cell_angle_beta	90.018496
_cell_angle_gamma	90.011977
loop_
_atom_site_label
_atom_site_type_symbol
_atom_site_fract_x
_atom_site_fract_y
_atom_site_fract_z
Zn1	Zn	1.606276	-0.423675	0.593987
Zn2	Zn	1.606180	-0.601694	0.418309
Zn3	Zn	1.430578	-0.423730	0.418326
Zn4	Zn	1.430576	-0.601612	0.593951
O5	O	1.518403	-0.512678	0.506143
O6	O	1.753285	-0.447300	0.570691
O7	O	1.582846	-0.578144	0.271291
O8	O	1.453927	-0.274777	0.441650
O9	O	1.753213	-0.578090	0.441621
O10	O	1.583011	-0.274736	0.570707
O11	O	1.453833	-0.447395	0.271303
O12	O	1.283557	-0.447316	0.441615
O13	O	1.453922	-0.577951	0.740977
O14	O	1.283555	-0.578005	0.570646
O15	O	1.583009	-0.447221	0.741003
O16	O	1.582844	-0.750629	0.441586
O17	O	1.453829	-0.750569	0.570629
C18	C	1.245435	-0.512658	0.506129
C19	C	1.128659	-0.512676	0.506148
C20	C	1.518354	-0.789219	0.506125
C21	C	1.518429	-0.907524	0.506152
C22	C	1.073823	-0.580834	0.573223
C23	C	0.964099	-0.580848	0.573234
C24	C	0.964056	-0.444541	0.439087
C25	C	1.073778	-0.444523	0.439081
C26	C	1.073847	-0.659533	0.650669
C27	C	0.964123	-0.659547	0.650681
C28	C	1.588682	-0.976771	0.436041
C29	C	1.614358	-1.047463	0.531933
C30	C	1.492885	-1.047632	0.410321
C31	C	1.544154	-0.976657	0.602095
C32	C	1.422637	-0.976820	0.480418
C33	C	1.448276	-1.047480	0.576377
C34	C	1.792436	-0.512698	0.506158
C35	C	1.909212	-0.512707	0.506165
C36	C	1.518476	-0.512570	0.780177
C37	C	1.518507	-0.512525	0.896954
C38	C	1.518480	-0.235057	0.506185
C39	C	1.518513	-0.116752	0.506202
C40	C	1.518390	-0.512708	0.233176
C41	C	1.518562	-0.512454	0.116400
C42	C	1.585732	-0.444447	0.951831
C43	C	1.585757	-0.444409	1.061555
C44	C	1.451330	-0.580534	1.061515
C45	C	1.451300	-0.580567	0.951793
C46	C	1.663346	-0.365859	0.951855
C47	C	1.663371	-0.365821	1.061580
H48	H	1.118421	-0.389014	0.384469
H49	H	1.341614	-0.945764	0.458595
F50	F	0.919678	-0.621087	0.751782
F51	F	0.925178	-0.767258	0.621988
H52	H	0.919358	-0.389052	0.384484
H53	H	1.744742	-0.387898	1.091358
F54	F	1.464599	-1.088381	0.304366
H55	H	1.103654	-0.637550	0.732076
F56	F	1.764347	-0.404479	0.907363
H57	H	1.648102	-0.945723	0.376803
F58	F	1.625194	-0.263498	1.106087
F59	F	1.379737	-0.653009	0.893391
F60	F	1.720293	-1.088007	0.560436
H61	H	1.565714	-0.945615	0.683229
H62	H	1.107865	-0.737797	0.621386
H63	H	1.388901	-1.078331	0.635758
F64	F	1.379807	-0.652945	1.119887
F65	F	1.634887	-0.258121	0.912956
