data_functionalizedCrystal
_audit_creation_method	'MofGen! by Chris Wilmer'
_symmetry_space_group_name_H-M	'P1'
_symmetry_Int_Tables_number	1
_symmetry_cell_setting	triclinic
loop_
_symmetry_equiv_pos_as_xyz
  x,y,z
_cell_length_a	19.077269
_cell_length_b	12.759400
_cell_length_c	19.076919
_cell_angle_alpha	92.276034
_cell_angle_beta	94.669058
_cell_angle_gamma	87.716118
loop_
_atom_site_label
_atom_site_type_symbol
_atom_site_fract_x
_atom_site_fract_y
_atom_site_fract_z
Zn1	Zn	1.061721	-0.503246	-0.355291
Zn2	Zn	1.561721	-0.003246	0.144709
Zn3	Zn	1.066398	-0.672151	-0.237418
Zn4	Zn	1.566398	-0.172151	0.262582
Zn5	Zn	0.948576	-0.489708	-0.242159
Zn6	Zn	1.448576	0.010292	0.257841
Zn7	Zn	0.943828	-0.672098	-0.360001
Zn8	Zn	1.443828	-0.172098	0.139999
O9	O	1.005131	-0.584301	-0.298717
O10	O	1.505131	-0.084301	0.201283
O11	O	1.160988	-0.531339	-0.335701
O12	O	1.660988	-0.031339	0.164299
O13	O	1.054712	-0.642306	-0.139399
O14	O	1.554712	-0.142306	0.360601
O15	O	0.963615	-0.344485	-0.257179
O16	O	1.463615	0.155515	0.242821
O17	O	1.164424	-0.655433	-0.249099
O18	O	1.664424	-0.155433	0.250901
O19	O	1.046742	-0.354431	-0.340297
O20	O	1.546742	0.145569	0.159703
O21	O	0.968150	-0.508265	-0.142882
O22	O	1.468150	-0.008265	0.357118
O23	O	0.849299	-0.508214	-0.261745
O24	O	1.349299	-0.008214	0.238255
O25	O	0.955523	-0.655343	-0.458024
O26	O	1.455523	-0.155343	0.041976
O27	O	0.845811	-0.642216	-0.348324
O28	O	1.345811	-0.142216	0.151676
O29	O	1.042138	-0.531288	-0.454564
O30	O	1.542138	-0.031288	0.045436
O31	O	1.050109	-0.819162	-0.253666
O32	O	1.550109	-0.319162	0.246334
O33	O	0.960058	-0.819124	-0.343727
O34	O	1.460058	-0.319124	0.156273
C35	C	0.821977	-0.573741	-0.306060
C36	C	1.321977	-0.073741	0.193940
C37	C	0.743623	-0.569250	-0.309218
C38	C	1.243623	-0.069250	0.190782
C39	C	0.708600	-0.631636	-0.265546
C40	C	1.208600	-0.131636	0.234454
C41	C	0.634977	-0.627416	-0.268523
C42	C	1.134977	-0.127416	0.231477
C43	C	0.596378	-0.560805	-0.315169
C44	C	1.096378	-0.060805	0.184831
C45	C	0.631406	-0.498417	-0.358845
C46	C	1.131406	0.001583	0.141155
C47	C	0.705027	-0.502642	-0.355872
C48	C	1.205027	-0.002642	0.144128
C49	C	0.376002	-0.541257	-0.328908
C50	C	0.876002	-0.041257	0.171092
C51	C	0.302376	-0.537034	-0.331877
C52	C	0.802376	-0.037034	0.168123
C53	C	0.305952	-0.666036	-0.241555
C54	C	0.805952	-0.166036	0.258445
C55	C	0.379575	-0.670250	-0.238582
C56	C	0.879575	-0.170250	0.261418
C57	C	0.414596	-0.607866	-0.282262
C58	C	0.914596	-0.107866	0.217738
N59	N	0.521124	-0.556489	-0.318211
N60	N	1.021124	-0.056489	0.181789
N61	N	0.489849	-0.612189	-0.279223
N62	N	0.989849	-0.112189	0.220777
C63	C	1.005094	-0.857265	-0.298708
C64	C	1.505094	-0.357265	0.201292
C65	C	1.005142	-0.974046	-0.298724
C66	C	1.505142	-0.474046	0.201276
C67	C	1.048402	-1.034008	-0.342042
C68	C	1.548402	-0.534008	0.157958
C69	C	1.048434	-1.143735	-0.342058
C70	C	1.548434	-0.643735	0.157942
C71	C	0.961944	-1.133527	-0.255433
C72	C	1.461944	-0.633527	0.244567
C73	C	0.961909	-1.023802	-0.255421
C74	C	1.461909	-0.523802	0.244579
C75	C	1.091635	-0.984251	-0.385345
C76	C	1.591635	-0.484251	0.114655
C77	C	1.134899	-1.044214	-0.428666
C78	C	1.634899	-0.544214	0.071334
C79	C	1.134932	-1.153941	-0.428682
C80	C	1.634932	-0.653941	0.071318
C81	C	1.091699	-1.203705	-0.385377
C82	C	1.591699	-0.703705	0.114623
C83	C	1.188999	-0.594902	-0.291346
C84	C	1.688999	-0.094902	0.208654
C85	C	1.267353	-0.599420	-0.288205
C86	C	1.767353	-0.099420	0.211795
C87	C	0.997779	-0.594820	-0.482587
C88	C	1.497779	-0.094820	0.017413
C89	C	0.994646	-0.599303	-0.560942
C90	C	1.494646	-0.099303	-0.060942
C91	C	1.005186	-0.310272	-0.298742
C92	C	1.505186	0.189728	0.201258
C93	C	1.005210	-0.193497	-0.298752
C94	C	1.505210	0.306503	0.201248
C95	C	1.038268	-0.536823	-0.595953
C96	C	1.538268	-0.036823	-0.095953
C97	C	1.035316	-0.541030	-0.669576
C98	C	1.535316	-0.041030	-0.169576
C99	C	0.988745	-0.607724	-0.708186
C100	C	1.488745	-0.107724	-0.208186
C101	C	0.945119	-0.670206	-0.673170
C102	C	1.445119	-0.170206	-0.173170
C103	C	0.948068	-0.665992	-0.599549
C104	C	1.448068	-0.165992	-0.099549
C105	C	0.975086	-0.627247	-0.928564
C106	C	1.475086	-0.127247	-0.428564
C107	C	0.972142	-0.631458	-1.002190
C108	C	1.472142	-0.131458	-0.502190
C109	C	1.062339	-0.502280	-0.998591
C110	C	1.562339	-0.002280	-0.498591
C111	C	1.065286	-0.498077	-0.924968
C112	C	1.565286	0.001923	-0.424968
C113	C	1.021657	-0.560555	-0.889958
C114	C	1.521657	-0.060555	-0.389958
N115	N	0.985728	-0.612029	-0.783440
N116	N	1.485728	-0.112029	-0.283440
N117	N	1.024672	-0.556244	-0.814706
N118	N	1.524672	-0.056244	-0.314706
C119	C	1.012494	-0.573749	-0.115561
C120	C	1.512494	-0.073749	0.384439
C121	C	1.015764	-0.568978	-0.037201
C122	C	1.515764	-0.068978	0.462799
H123	H	0.270950	-0.482782	-0.369859
H124	H	0.770950	0.017218	0.130141
C125	C	1.173258	-0.880545	-0.467103
C126	C	1.673258	-0.380545	0.032897
C127	C	1.182417	-0.989518	-0.476266
C128	C	1.682417	-0.489518	0.023734
H129	H	1.202597	-0.846782	-0.496488
H130	H	1.702597	-0.346782	0.003512
H131	H	1.125475	-0.860473	-0.479282
H132	H	1.625475	-0.360473	0.020718
H133	H	1.185501	-0.860477	-0.419327
H134	H	1.685501	-0.360477	0.080673
H135	H	1.170169	-1.009587	-0.524041
H136	H	1.670169	-0.509587	-0.024041
H137	H	1.230211	-1.009598	-0.464092
H138	H	1.730211	-0.509598	0.035908
H139	H	0.277430	-0.716827	-0.205995
H140	H	0.777430	-0.216827	0.294005
H141	H	1.170153	-1.202760	-0.463961
H142	H	1.670153	-0.702760	0.036039
C143	C	0.555936	-0.631612	-0.177037
C144	C	1.055936	-0.131612	0.322963
C145	C	0.596475	-0.695991	-0.220521
C146	C	1.096475	-0.195991	0.279479
H147	H	0.532163	-0.673953	-0.147406
H148	H	1.032163	-0.173953	0.352594
H149	H	0.585727	-0.585893	-0.148963
H150	H	1.085727	-0.085893	0.351037
H151	H	0.522418	-0.591342	-0.205253
H152	H	1.022418	-0.091342	0.294747
H153	H	0.629997	-0.736256	-0.192304
H154	H	1.129997	-0.236256	0.307696
H155	H	0.566682	-0.741728	-0.248597
H156	H	1.066682	-0.241728	0.251403
H157	H	0.404507	-0.490461	-0.364475
H158	H	0.904507	0.009539	0.135525
H159	H	0.410998	-0.724491	-0.200598
H160	H	0.910998	-0.224491	0.299402
H161	H	0.599973	-0.444185	-0.396828
H162	H	1.099973	0.055815	0.103172
H163	H	0.733541	-0.451840	-0.391434
H164	H	1.233541	0.048160	0.108566
C165	C	1.138823	-1.366446	-0.432573
C166	C	1.638823	-0.866446	0.067427
C167	C	1.091727	-1.324320	-0.385401
C168	C	1.591727	-0.824320	0.114599
H169	H	1.138842	-1.440906	-0.432584
H170	H	1.638842	-0.940906	0.067416
H171	H	1.124769	-1.343504	-0.478532
H172	H	1.624769	-0.843504	0.021468
H173	H	1.184802	-1.343509	-0.418584
H174	H	1.684802	-0.843509	0.081416
H175	H	1.045747	-1.347250	-0.399393
H176	H	1.545747	-0.847250	0.100607
H177	H	1.105778	-1.347272	-0.339432
H178	H	1.605778	-0.847272	0.160568
C179	C	0.923602	-1.297198	-0.216984
C180	C	1.423602	-0.797198	0.283016
C181	C	0.914432	-1.188226	-0.207829
C182	C	1.414432	-0.688226	0.292171
H183	H	0.894273	-1.330964	-0.187590
H184	H	1.394273	-0.830964	0.312410
H185	H	0.911358	-1.317276	-0.264752
H186	H	1.411358	-0.817276	0.235248
H187	H	0.971394	-1.317259	-0.204808
H188	H	1.471394	-0.817259	0.295192
H189	H	0.866641	-1.168165	-0.220010
H190	H	1.366641	-0.668165	0.279990
H191	H	0.926672	-1.168140	-0.160050
H192	H	1.426672	-0.668140	0.339950
C193	C	0.939550	-0.678149	-0.817313
C194	C	1.439550	-0.178149	-0.317313
C195	C	0.927135	-0.695929	-0.890086
C196	C	1.427135	-0.195929	-0.390086
H197	H	0.909942	-0.720550	-0.793558
H198	H	1.409942	-0.220550	-0.293558
H199	H	0.987388	-0.695566	-0.803352
H200	H	1.487388	-0.195566	-0.303352
H201	H	0.929726	-0.606272	-0.805674
H202	H	1.429726	-0.106272	-0.305674
H203	H	0.936963	-0.767804	-0.901726
H204	H	1.436963	-0.267804	-0.401726
H205	H	0.879286	-0.678519	-0.904052
H206	H	1.379286	-0.178519	-0.404052
H207	H	1.091615	-0.894907	-0.385336
H208	H	1.591615	-0.394907	0.114664
H209	H	0.926682	-0.974980	-0.220148
H210	H	1.426682	-0.474980	0.279852
C211	C	0.791779	-0.777110	-0.252249
C212	C	1.291779	-0.277110	0.247751
C213	C	0.751028	-0.704857	-0.214273
C214	C	1.251028	-0.204857	0.285727
H215	H	0.817973	-0.822312	-0.220593
H216	H	1.317973	-0.322312	0.279407
H217	H	0.761837	-0.817471	-0.284070
H218	H	1.261837	-0.317471	0.215930
H219	H	0.823172	-0.740546	-0.277829
H220	H	1.323172	-0.240546	0.222171
H221	H	0.719630	-0.741421	-0.188697
H222	H	1.219630	-0.241421	0.311303
H223	H	0.780972	-0.664492	-0.182439
H224	H	1.280972	-0.164492	0.317561
C225	C	1.109809	-0.434192	-0.810517
C226	C	1.609809	0.065808	-0.310517
C227	C	1.116445	-0.424714	-0.882530
C228	C	1.616445	0.075286	-0.382530
H229	H	1.141388	-0.388891	-0.784319
H230	H	1.641388	0.111109	-0.284319
H231	H	1.062925	-0.415437	-0.800370
H232	H	1.562925	0.084563	-0.300370
H233	H	1.120626	-0.504674	-0.798022
H234	H	1.620626	-0.004674	-0.298022
H235	H	1.105623	-0.354232	-0.895025
H236	H	1.605623	0.145768	-0.395025
H237	H	1.163339	-0.443462	-0.892681
H238	H	1.663339	0.056538	-0.392681
H239	H	1.097858	-0.451412	-1.027103
H240	H	1.597858	0.048588	-0.527103
H241	H	0.934216	-0.685770	-1.033625
H242	H	1.434216	-0.185770	-0.533625
C243	C	0.931979	-0.815702	-0.756338
C244	C	1.431979	-0.315702	-0.256338
C245	C	0.893927	-0.743518	-0.715609
C246	C	1.393927	-0.243518	-0.215609
H247	H	0.900374	-0.860967	-0.782533
H248	H	1.400374	-0.360967	-0.282533
H249	H	0.957530	-0.779094	-0.787724
H250	H	1.457530	-0.279094	-0.287724
H251	H	0.963831	-0.856012	-0.726375
H252	H	1.463831	-0.356012	-0.226375
H253	H	0.862077	-0.703203	-0.745572
H254	H	1.362077	-0.203203	-0.245572
H255	H	0.868364	-0.780130	-0.684219
H256	H	1.368364	-0.280130	-0.184219
C257	C	1.127120	-0.409551	-0.599798
C258	C	1.627120	0.090449	-0.099798
C259	C	1.089459	-0.463507	-0.553516
C260	C	1.589459	0.036493	-0.053516
H261	H	1.158719	-0.364283	-0.573599
H262	H	1.658719	0.135717	-0.073599
H263	H	1.152925	-0.458523	-0.627427
H264	H	1.652925	0.041477	-0.127427
H265	H	1.095255	-0.369242	-0.629748
H266	H	1.595255	0.130758	-0.129748
H267	H	1.121324	-0.503823	-0.523569
H268	H	1.621324	-0.003823	-0.023569
H269	H	1.063653	-0.414529	-0.525875
H270	H	1.563653	0.085471	-0.025875
H271	H	1.070839	-0.490155	-0.698078
H272	H	1.570839	0.009845	-0.198078
H273	H	0.912539	-0.716859	-0.571044
H274	H	1.412539	-0.216859	-0.071044
