data_functionalizedCrystal
_audit_creation_method	'MofGen! by Chris Wilmer'
_symmetry_space_group_name_H-M	'P1'
_symmetry_Int_Tables_number	1
_symmetry_cell_setting	triclinic
loop_
_symmetry_equiv_pos_as_xyz
  x,y,z
_cell_length_a	17.038272
_cell_length_b	17.699077
_cell_length_c	16.776229
_cell_angle_alpha	89.993415
_cell_angle_beta	90.000135
_cell_angle_gamma	92.803934
loop_
_atom_site_label
_atom_site_type_symbol
_atom_site_fract_x
_atom_site_fract_y
_atom_site_fract_z
O1	O	-0.098839	1.010621	-0.066267
O2	O	0.401161	1.510621	0.433733
O3	O	-0.111705	0.791094	-0.066269
O4	O	0.388295	1.291094	0.433731
O5	O	0.008541	0.899553	-0.066275
O6	O	0.508541	1.399553	0.433725
O7	O	-0.219085	0.902162	-0.066261
O8	O	0.280915	1.402162	0.433739
O9	O	0.008549	0.899537	0.066301
O10	O	0.508549	1.399537	0.566301
O11	O	-0.111698	0.791078	0.066307
O12	O	0.388302	1.291078	0.566307
O13	O	-0.098831	1.010606	0.066310
O14	O	0.401169	1.510606	0.566310
Zn15	Zn	-0.105263	0.900839	0.087358
Zn16	Zn	0.394737	1.400839	0.587358
Zn17	Zn	-0.105273	0.900860	-0.087318
Zn18	Zn	0.394727	1.400860	0.412682
O19	O	-0.219078	0.902146	0.066315
O20	O	0.280922	1.402146	0.566315
C21	C	-0.111241	0.762858	0.000018
C22	C	0.388759	1.262858	0.500018
C23	C	-0.109861	0.678749	0.000017
C24	C	0.390139	1.178749	0.500017
C25	C	-0.109206	0.639230	0.072285
C26	C	0.390794	1.139230	0.572285
C27	C	-0.107896	0.560200	0.072286
C28	C	0.392104	1.060200	0.572286
C29	C	-0.107247	0.520691	0.000017
C30	C	0.392753	1.020691	0.500017
C31	C	-0.107899	0.560216	-0.072256
C32	C	0.392101	1.060216	0.427744
C33	C	-0.109203	0.639244	-0.072256
C34	C	0.390797	1.139244	0.427744
C35	C	-0.102638	0.241505	-0.072258
C36	C	0.397362	0.741505	0.427742
C37	C	-0.101336	0.162471	-0.072253
C38	C	0.398664	0.662471	0.427747
C39	C	-0.101331	0.162461	0.072284
C40	C	0.398669	0.662461	0.572284
C41	C	-0.102635	0.241489	0.072284
C42	C	0.397365	0.741489	0.572284
C43	C	-0.103283	0.281007	0.000011
C44	C	0.396717	0.781007	0.500011
C45	C	-0.104702	0.366700	0.000011
C46	C	0.395298	0.866700	0.500011
C47	C	-0.105833	0.435000	0.000017
C48	C	0.394167	0.935000	0.500017
C49	C	-0.248206	0.904528	0.000029
C50	C	0.251794	1.404528	0.500029
C51	C	-0.334987	0.911609	0.000034
C52	C	0.165013	1.411609	0.500034
C53	C	-0.385209	0.846598	0.000033
C54	C	0.114791	1.346598	0.500033
C55	C	-0.466748	0.853256	0.000023
C56	C	0.033252	1.353256	0.500023
C57	C	-0.498065	0.924925	0.000020
C58	C	0.001935	1.424925	0.500020
C59	C	-0.447837	0.989940	0.000019
C60	C	0.052163	1.489940	0.500019
C61	C	-0.366299	0.983282	0.000023
C62	C	0.133701	1.483282	0.500023
C63	C	-0.743784	0.948448	0.000002
C64	C	-0.243784	1.448448	0.500002
C65	C	-0.825328	0.955101	0.000000
C66	C	-0.325328	1.455101	0.500000
C67	C	-0.844234	0.818416	0.000003
C68	C	-0.344234	1.318416	0.500003
C69	C	-0.762694	0.811764	0.000012
C70	C	-0.262694	1.311764	0.500012
C71	C	-0.712473	0.876780	0.000007
C72	C	-0.212473	1.376780	0.500007
C73	C	-0.581411	0.931732	0.000012
C74	C	-0.081411	1.431732	0.500012
C75	C	-0.629128	0.869972	0.000009
C76	C	-0.129128	1.369972	0.500009
C77	C	0.037669	0.897172	0.000010
C78	C	0.537669	1.397172	0.500010
C79	C	0.124450	0.890091	-0.000001
C80	C	0.624450	1.390091	0.499999
C81	C	-0.099295	1.038841	0.000020
C82	C	0.400705	1.538841	0.500020
C83	C	-0.100676	1.122951	0.000016
C84	C	0.399324	1.622951	0.500016
N85	N	-0.105256	0.900830	0.206569
N86	N	0.394744	1.400830	0.706569
N87	N	-0.105274	0.900875	-0.206529
N88	N	0.394726	1.400875	0.293471
C89	C	-0.052033	0.948873	0.248283
C90	C	0.447967	1.448873	0.748283
C91	C	-0.052032	0.948877	0.331736
C92	C	0.447968	1.448877	0.831736
C93	C	-0.105259	0.900842	0.373472
C94	C	0.394741	1.400842	0.873472
C95	C	-0.158485	0.852794	0.331751
C96	C	0.341515	1.352794	0.831751
C97	C	-0.158482	0.852786	0.248301
C98	C	0.341518	1.352786	0.748301
C99	C	-0.158501	0.852822	0.668299
C100	C	0.341499	1.352822	1.168299
C101	C	-0.158502	0.852835	0.751755
C102	C	0.341498	1.352835	1.251755
C103	C	-0.052051	0.948913	0.751734
C104	C	0.447949	1.448913	1.251734
C105	C	-0.052048	0.948906	0.668283
C106	C	0.447952	1.448906	1.168283
C107	C	-0.105270	0.900855	0.626570
C108	C	0.394730	1.400855	1.126570
C109	C	-0.105270	0.900850	0.536081
C110	C	0.394730	1.400850	1.036081
C111	C	-0.105265	0.900850	0.463959
C112	C	0.394735	1.400850	0.963959
H113	H	-0.100800	0.130276	0.131132
H114	H	0.399200	0.630276	0.631132
H115	H	-0.107350	0.528028	0.131134
H116	H	0.392650	1.028028	0.631134
C117	C	0.005873	1.001005	0.376919
C118	C	0.505873	1.501005	0.876919
C119	C	0.082682	0.983814	0.356609
C120	C	0.582682	1.483814	0.856609
C121	C	0.136046	1.031830	0.398205
C122	C	0.636046	1.531830	0.898205
H123	H	-0.001636	0.994182	0.432609
H124	H	0.498364	1.494182	0.932609
H125	H	-0.002515	1.052064	0.363208
H126	H	0.497485	1.552064	0.863208
H127	H	0.091067	0.932767	0.370325
H128	H	0.591067	1.432767	0.870325
H129	H	0.090216	0.990642	0.300925
H130	H	0.590216	1.490642	0.800925
H131	H	0.127658	1.082889	0.384494
H132	H	0.627658	1.582889	0.884494
H133	H	0.128530	1.025003	0.453893
H134	H	0.628530	1.525003	0.953893
H135	H	0.188167	1.020178	0.384425
H136	H	0.688167	1.520178	0.884425
H137	H	-0.702903	1.001388	0.000002
H138	H	-0.202903	1.501388	0.500002
C139	C	-0.595282	0.792094	-0.000029
C140	C	-0.095282	1.292094	0.499971
C141	C	-0.656712	0.736579	-0.000048
C142	C	-0.156712	1.236579	0.499952
C143	C	-0.625556	0.664830	-0.000090
C144	C	-0.125556	1.164830	0.499910
H145	H	-0.563879	0.786550	0.046192
H146	H	-0.063879	1.286550	0.546192
H147	H	-0.563888	0.786623	-0.046279
H148	H	-0.063888	1.286623	0.453721
H149	H	-0.688093	0.742048	0.046198
H150	H	-0.188093	1.242048	0.546198
H151	H	-0.688121	0.742099	-0.046265
H152	H	-0.188121	1.242099	0.453735
H153	H	-0.594162	0.659358	-0.046340
H154	H	-0.094162	1.159358	0.453660
H155	H	-0.594153	0.659293	0.046131
H156	H	-0.094153	1.159293	0.546131
H157	H	-0.667231	0.627154	-0.000110
H158	H	-0.167231	1.127154	0.499890
H159	H	-0.103168	0.273653	0.131132
H160	H	0.396832	0.773653	0.631132
H161	H	-0.100807	0.130305	-0.131106
H162	H	0.399193	0.630305	0.368894
C163	C	-0.898721	0.747805	0.000163
C164	C	-0.398721	1.247805	0.500163
C165	C	-0.884610	0.704954	0.068379
C166	C	-0.384610	1.204954	0.568379
C167	C	-0.934795	0.639904	0.068554
C168	C	-0.434795	1.139904	0.568554
H169	H	-0.889284	0.718555	-0.046016
H170	H	-0.389284	1.218555	0.453984
H171	H	-0.951780	0.762000	0.000201
H172	H	-0.451780	1.262000	0.500201
H173	H	-0.831563	0.690758	0.068333
H174	H	-0.331563	1.190758	0.568333
H175	H	-0.894052	0.734181	0.114569
H176	H	-0.394052	1.234181	0.614569
H177	H	-0.987854	0.654099	0.068593
H178	H	-0.487854	1.154099	0.568593
H179	H	-0.925353	0.610660	0.022372
H180	H	-0.425353	1.110660	0.522372
H181	H	-0.925232	0.610825	0.114841
H182	H	-0.425232	1.110825	0.614841
C183	C	-0.109747	0.682092	0.150774
C184	C	0.390253	1.182092	0.650774
C185	C	-0.042185	0.667069	0.194359
C186	C	0.457815	1.167069	0.694359
C187	C	-0.042648	0.706547	0.266664
C188	C	0.457352	1.206547	0.766664
H189	H	-0.155048	0.666333	0.180569
H190	H	0.344952	1.166333	0.680569
H191	H	-0.110576	0.734829	0.140460
H192	H	0.389424	1.234829	0.640460
H193	H	-0.041364	0.614344	0.204676
H194	H	0.458636	1.114344	0.704676
H195	H	0.003126	0.682832	0.164589
H196	H	0.503126	1.182832	0.664589
H197	H	-0.043478	0.759283	0.256350
H198	H	0.456522	1.259283	0.756350
H199	H	-0.087952	0.690784	0.296451
H200	H	0.412048	1.190784	0.796451
H201	H	0.003194	0.696365	0.296242
H202	H	0.503194	1.196365	0.796242
H203	H	-0.008693	0.987992	0.214307
H204	H	0.491307	1.487992	0.714307
H205	H	-0.107365	0.528042	-0.131099
H206	H	0.392635	1.028042	0.368901
C207	C	-0.109756	0.682202	-0.150697
C208	C	0.390244	1.182202	0.349303
C209	C	-0.043263	0.731748	-0.154933
C210	C	0.456737	1.231748	0.345067
C211	C	-0.043738	0.771324	-0.227187
C212	C	0.456262	1.271324	0.272813
H213	H	-0.155782	0.710257	-0.153777
H214	H	0.344218	1.210257	0.346223
H215	H	-0.109142	0.647380	-0.193760
H216	H	0.390858	1.147380	0.306240
H217	H	-0.043885	0.766566	-0.111882
H218	H	0.456115	1.266566	0.388118
H219	H	0.002773	0.703713	-0.151866
H220	H	0.502773	1.203713	0.348134
H221	H	-0.043124	0.736502	-0.270251
H222	H	0.456876	1.236502	0.229749
H223	H	-0.089766	0.799374	-0.230262
H224	H	0.410234	1.299374	0.269738
H225	H	0.001380	0.804941	-0.230075
H226	H	0.501380	1.304941	0.269925
H227	H	-0.201838	0.813699	0.634342
H228	H	0.298162	1.313699	1.134342
C229	C	-0.351060	0.768851	0.000076
C230	C	0.148940	1.268851	0.500076
C231	C	-0.268903	0.776931	0.000101
C232	C	0.231097	1.276931	0.500101
C233	C	-0.237422	0.705325	0.000148
C234	C	0.262578	1.205325	0.500148
H235	H	-0.368220	0.741805	-0.046146
H236	H	0.131780	1.241805	0.453854
H237	H	-0.368267	0.741847	0.046325
H238	H	0.131733	1.241847	0.546325
H239	H	-0.251703	0.803924	-0.046144
H240	H	0.248297	1.303924	0.453856
H241	H	-0.251722	0.803964	0.046319
H242	H	0.248278	1.303964	0.546319
H243	H	-0.254629	0.678321	0.046397
H244	H	0.245371	1.178321	0.546397
H245	H	-0.254587	0.678285	-0.046074
H246	H	0.245413	1.178285	0.453926
H247	H	-0.181676	0.710798	0.000173
H248	H	0.318324	1.210798	0.500173
H249	H	-0.507636	0.800317	0.000020
H250	H	-0.007636	1.300317	0.500020
H251	H	-0.103163	0.273671	-0.131108
H252	H	0.396837	0.773671	0.368892
C253	C	-0.216241	0.800723	0.377206
C254	C	0.283759	1.300723	0.877206
C255	C	-0.204870	0.811027	0.459218
C256	C	0.295130	1.311027	0.959218
C257	C	-0.258071	0.763080	0.501113
C258	C	0.241929	1.263080	1.001113
H259	H	-0.207869	0.749638	0.363640
H260	H	0.292131	1.249638	0.863640
H261	H	-0.268422	0.812305	0.363569
H262	H	0.231578	1.312305	0.863569
H263	H	-0.152703	0.799439	0.472850
H264	H	0.347297	1.299439	0.972850
H265	H	-0.213249	0.862101	0.472808
H266	H	0.286751	1.362101	0.972808
H267	H	-0.310251	0.774662	0.487476
H268	H	0.189749	1.274662	0.987476
H269	H	-0.249694	0.711999	0.487541
H270	H	0.250306	1.211999	0.987541
H271	H	-0.250368	0.770070	0.556762
H272	H	0.249632	1.270070	1.056762
H273	H	-0.737202	0.753404	0.000005
H274	H	-0.237202	1.253404	0.500005
C275	C	-0.311731	1.053839	-0.000139
C276	C	0.188269	1.553839	0.499861
C277	C	-0.264380	1.054024	-0.068356
C278	C	0.235620	1.554024	0.431644
C279	C	-0.214111	1.119016	-0.068541
C280	C	0.285889	1.619016	0.431459
H281	H	-0.279456	1.054147	0.046040
H282	H	0.220544	1.554147	0.546040
H283	H	-0.342030	1.097496	-0.000183
H284	H	0.157970	1.597496	0.499817
H285	H	-0.234084	1.010378	-0.068304
H286	H	0.265916	1.510378	0.431696
H287	H	-0.296634	1.053727	-0.114545
H288	H	0.203366	1.553727	0.385455
H289	H	-0.244411	1.162673	-0.068586
H290	H	0.255589	1.662673	0.431414
H291	H	-0.181842	1.119318	-0.022360
H292	H	0.318158	1.619318	0.477640
H293	H	-0.181983	1.119153	-0.114829
H294	H	0.318017	1.619153	0.385171
H295	H	-0.606918	0.990085	0.000037
H296	H	-0.106918	1.490085	0.500037
C297	C	-0.859370	1.032900	0.000156
C298	C	-0.359370	1.532900	0.500156
C299	C	-0.905612	1.040722	0.068373
C300	C	-0.405612	1.540722	0.568373
C301	C	-0.936974	1.112380	0.068551
C302	C	-0.436974	1.612380	0.568551
H303	H	-0.890839	1.038419	-0.046023
H304	H	-0.390839	1.538419	0.453977
H305	H	-0.817801	1.070689	0.000194
H306	H	-0.317801	1.570689	0.500194
H307	H	-0.947174	1.002944	0.068327
H308	H	-0.447174	1.502944	0.568327
H309	H	-0.874160	1.035218	0.114563
H310	H	-0.374160	1.535218	0.614563
H311	H	-0.895405	1.150168	0.068589
H312	H	-0.395405	1.650168	0.568589
H313	H	-0.968439	1.117891	0.022369
H314	H	-0.468439	1.617891	0.522369
H315	H	-0.968346	1.117698	0.114839
H316	H	-0.468346	1.617698	0.614839
C317	C	-0.481986	1.067686	0.000056
C318	C	0.018014	1.567686	0.500056
C319	C	-0.564143	1.059605	0.000076
C320	C	-0.064143	1.559605	0.500076
C321	C	-0.595626	1.131210	0.000123
C322	C	-0.095626	1.631210	0.500123
H323	H	-0.464824	1.094745	-0.046163
H324	H	0.035176	1.594745	0.453837
H325	H	-0.464783	1.094679	0.046307
H326	H	0.035217	1.594679	0.546307
H327	H	-0.581339	1.032624	-0.046171
H328	H	-0.081339	1.532624	0.453829
H329	H	-0.581327	1.032560	0.046291
H330	H	-0.081327	1.532560	0.546291
H331	H	-0.578423	1.158203	0.046375
H332	H	-0.078423	1.658203	0.546375
H333	H	-0.578458	1.158262	-0.046096
H334	H	-0.078458	1.658262	0.453904
H335	H	-0.651372	1.125736	0.000144
H336	H	-0.151372	1.625736	0.500144
H337	H	-0.008708	0.988023	0.634304
H338	H	0.491292	1.488023	1.134304
H339	H	-0.008712	0.988036	0.785705
H340	H	0.491288	1.488036	1.285705
C341	C	-0.216324	0.800591	0.796927
C342	C	0.283676	1.300591	1.296927
C343	C	-0.262919	0.758491	0.742536
C344	C	0.237081	1.258491	1.242536
C345	C	-0.316182	0.710352	0.784119
C346	C	0.183818	1.210352	1.284119
H347	H	-0.248911	0.829823	0.829475
H348	H	0.251089	1.329823	1.329475
H349	H	-0.188257	0.767248	0.829473
H350	H	0.311743	1.267248	1.329473
H351	H	-0.290984	0.791830	0.710003
H352	H	0.209016	1.291830	1.210003
H353	H	-0.230354	0.729243	0.709986
H354	H	0.269646	1.229243	1.209986
H355	H	-0.288115	0.677010	0.816665
H356	H	0.211885	1.177010	1.316665
H357	H	-0.348763	0.739591	0.816666
H358	H	0.151237	1.239591	1.316666
H359	H	-0.347798	0.681777	0.747221
H360	H	0.152202	1.181777	1.247221
C361	C	-0.216358	0.800599	0.203151
C362	C	0.283642	1.300599	0.703151
C363	C	-0.262988	0.758548	0.257561
C364	C	0.237012	1.258548	0.757561
C365	C	-0.316318	0.710469	0.216000
C366	C	0.183682	1.210469	0.716000
H367	H	-0.188366	0.767219	0.170604
H368	H	0.311634	1.267219	0.670604
H369	H	-0.248907	0.829896	0.170606
H370	H	0.251093	1.329896	0.670606
H371	H	-0.230443	0.729253	0.290093
H372	H	0.269557	1.229253	0.790093
H373	H	-0.290997	0.791908	0.290111
H374	H	0.209003	1.291908	0.790111
H375	H	-0.348867	0.739766	0.183454
H376	H	0.151133	1.239766	0.683454
H377	H	-0.288319	0.677094	0.183454
H378	H	0.211681	1.177094	0.683454
H379	H	-0.347967	0.681936	0.252911
H380	H	0.152033	1.181936	0.752911
