data_functionalizedCrystal
_audit_creation_method	'MofGen! by Chris Wilmer'
_symmetry_space_group_name_H-M	'P1'
_symmetry_Int_Tables_number	1
_symmetry_cell_setting	triclinic
loop_
_symmetry_equiv_pos_as_xyz
  x,y,z
_cell_length_a	29.839131
_cell_length_b	13.032831
_cell_length_c	13.032268
_cell_angle_alpha	89.113023
_cell_angle_beta	82.859460
_cell_angle_gamma	82.845366
loop_
_atom_site_label
_atom_site_type_symbol
_atom_site_fract_x
_atom_site_fract_y
_atom_site_fract_z
Zn1	Zn	-0.303377	1.498202	0.780727
Zn2	Zn	-0.370307	1.519883	0.608723
Zn3	Zn	-0.284611	1.348078	0.586974
Zn4	Zn	-0.367878	1.326134	0.758849
O5	O	-0.331543	1.423074	0.683818
O6	O	-0.321125	1.644991	0.776168
O7	O	-0.352102	1.515350	0.461924
O8	O	-0.224242	1.368102	0.612730
O9	O	-0.370299	1.660920	0.649797
O10	O	-0.238029	1.478398	0.755079
O11	O	-0.289141	1.389125	0.445945
O12	O	-0.286786	1.201254	0.591516
O13	O	-0.366159	1.330702	0.905665
O14	O	-0.347962	1.185132	0.717792
O15	O	-0.318770	1.457120	0.921739
O16	O	-0.432843	1.494072	0.628583
O17	O	-0.431059	1.351725	0.738880
C18	C	-0.315075	1.155878	0.649920
C19	C	-0.308042	1.041567	0.635443
C20	C	-0.335214	0.982667	0.691374
C21	C	-0.327945	0.864520	0.676412
C22	C	-0.448252	1.422895	0.683744
C23	C	-0.498188	1.422908	0.683758
C24	C	-0.808772	1.497302	0.626498
C25	C	-0.996455	1.497423	0.626554
O26	O	-1.021509	1.560533	0.577811
N27	N	-1.019002	1.423278	0.683923
C28	C	-0.994626	1.349100	0.741287
O29	O	-1.018111	1.286044	0.790093
C30	C	-0.806945	1.348984	0.741236
C31	C	-0.784399	1.423128	0.683855
C32	C	-0.786226	1.571441	0.569122
C33	C	-0.739308	1.571406	0.569105
C34	C	-0.714935	1.497232	0.626462
C35	C	-0.737481	1.423093	0.683837
C36	C	-0.782571	1.274811	0.798606
C37	C	-0.735648	1.274790	0.798590
C38	C	-0.713102	1.348935	0.741209
C39	C	-0.666190	1.348885	0.741177
N40	N	-0.643643	1.423031	0.683808
C41	C	-0.668015	1.497205	0.626451
C42	C	-1.093162	1.349165	0.741308
C43	C	-1.140082	1.349193	0.741320
C44	C	-1.141907	1.497518	0.626588
C45	C	-1.094986	1.497485	0.626571
C46	C	-1.070614	1.423311	0.683939
C47	C	-0.569483	1.497126	0.626417
C48	C	-0.522561	1.497082	0.626401
C49	C	-0.520740	1.348761	0.741137
C50	C	-0.567658	1.348801	0.741149
C51	C	-0.592029	1.422992	0.683787
O52	O	-0.641109	1.285815	0.789903
O53	O	-0.644524	1.560265	0.577671
C54	C	-0.855690	1.497336	0.626516
C55	C	-0.878236	1.423197	0.683891
C56	C	-0.853863	1.349024	0.741249
C57	C	-0.925156	1.423225	0.683903
C58	C	-0.949529	1.497399	0.626545
C59	C	-0.926981	1.571545	0.569176
C60	C	-0.880063	1.571510	0.569158
C61	C	-0.876411	1.274878	0.798618
C62	C	-0.923329	1.274918	0.798630
C63	C	-0.947702	1.349091	0.741272
C64	C	-0.214382	1.423279	0.683919
C65	C	-0.164454	1.423367	0.683962
C66	C	-0.344287	1.389044	0.952061
C67	C	-0.349718	1.374543	1.066370
C68	C	-0.348076	1.691313	0.717849
C69	C	-0.355122	1.805621	0.732351
C70	C	-0.318820	1.457031	0.416627
C71	C	-0.313275	1.471732	0.302344
C72	C	-0.328692	1.430627	1.125285
C73	C	-0.334304	1.415640	1.243430
H74	H	-0.504205	1.557459	0.579670
H75	H	-0.383766	0.842654	0.791322
H76	H	-0.363857	1.019706	0.750338
H77	H	-0.356458	1.356519	1.280451
H78	H	-0.299297	0.827484	0.617452
H79	H	-0.306534	1.489733	1.088259
H80	H	-1.158433	1.288809	0.788034
H81	H	-0.279396	1.004527	0.576487
H82	H	-0.371870	1.315426	1.103395
H83	H	-0.589321	1.557541	0.579709
H84	H	-0.291115	1.530841	1.265323
H85	H	-0.720955	1.631783	0.522384
H86	H	-0.806066	1.631847	0.522415
H87	H	-0.800919	1.214431	0.845326
H88	H	-1.076632	1.557860	0.579847
H89	H	-1.161759	1.557913	0.579885
H90	H	-0.586016	1.288429	0.787877
H91	H	-1.073321	1.288761	0.788025
H92	H	-0.500888	1.288366	0.787833
H93	H	-0.715807	1.214390	0.845310
H94	H	-0.861710	1.631885	0.522433
H95	H	-0.946834	1.631937	0.522470
H96	H	-0.941681	1.214531	0.845354
H97	H	-0.856570	1.214477	0.845327
