data_functionalizedCrystal
_audit_creation_method	'MofGen! by Chris Wilmer'
_symmetry_space_group_name_H-M	'P1'
_symmetry_Int_Tables_number	1
_symmetry_cell_setting	triclinic
loop_
_symmetry_equiv_pos_as_xyz
  x,y,z
_cell_length_a	14.519709
_cell_length_b	14.519709
_cell_length_c	15.186229
_cell_angle_alpha	90.001226
_cell_angle_beta	90.000004
_cell_angle_gamma	83.680145
loop_
_atom_site_label
_atom_site_type_symbol
_atom_site_fract_x
_atom_site_fract_y
_atom_site_fract_z
O1	O	1.223870	0.120885	0.073116
O2	O	0.955393	0.135122	0.073143
O3	O	1.096750	-0.006235	0.073121
O4	O	1.082513	0.262242	0.073138
O5	O	1.096733	-0.006227	-0.073337
O6	O	0.955376	0.135130	-0.073314
O7	O	1.223853	0.120893	-0.073341
Zn8	Zn	1.089612	0.128013	-0.096581
Zn9	Zn	1.089634	0.128002	0.096383
O10	O	1.082496	0.262250	-0.073319
C11	C	0.921025	0.134462	-0.000082
C12	C	0.818643	0.132474	-0.000072
C13	C	0.443748	0.125154	-0.000113
C14	C	0.548056	0.127187	-0.000101
C15	C	0.631192	0.128814	-0.000092
C16	C	0.735507	0.130847	-0.000082
C17	C	1.096078	-0.040591	-0.000108
C18	C	1.094090	-0.142972	-0.000108
C19	C	1.086770	-0.517868	-0.000085
C20	C	1.088803	-0.413560	-0.000091
C21	C	1.090430	-0.330423	-0.000097
C22	C	1.092463	-0.226109	-0.000102
C23	C	1.258221	0.121553	-0.000114
C24	C	1.360602	0.123541	-0.000119
C25	C	1.083168	0.296606	-0.000089
C26	C	1.085156	0.398987	-0.000082
N27	N	1.089604	0.128019	-0.228274
C28	C	1.145643	0.184064	-0.453999
C29	C	1.145653	0.184057	-0.546188
C30	C	1.033608	0.071937	-0.546193
C31	C	1.033603	0.071940	-0.454005
C32	C	1.089619	0.128008	-0.407910
C33	C	1.089634	0.127999	-0.592288
C34	C	1.089644	0.127992	-0.692244
C35	C	1.089610	0.128015	-0.307948
N36	N	1.089649	0.127988	0.228075
H37	H	1.191256	0.229718	-0.416471
Br38	Br	0.957565	-0.004142	-0.391451
Br39	Br	0.957583	-0.004146	-0.608756
H40	H	1.191275	0.229702	-0.583709
