data_functionalizedCrystal
_audit_creation_method	'MofGen! by Chris Wilmer'
_symmetry_space_group_name_H-M	'P1'
_symmetry_Int_Tables_number	1
_symmetry_cell_setting	triclinic
loop_
_symmetry_equiv_pos_as_xyz
  x,y,z
_cell_length_a	8.597366
_cell_length_b	9.482900
_cell_length_c	8.559649
_cell_angle_alpha	81.982926
_cell_angle_beta	77.624636
_cell_angle_gamma	91.873750
loop_
_atom_site_label
_atom_site_type_symbol
_atom_site_fract_x
_atom_site_fract_y
_atom_site_fract_z
O1	O	2.023628	-0.132593	0.264991
O2	O	2.523628	0.367407	0.764991
O3	O	1.577188	-0.076669	0.271882
O4	O	2.077188	0.423331	0.771882
O5	O	1.839740	-0.109559	0.037468
O6	O	2.339740	0.390441	0.537468
O7	O	1.761077	-0.099703	0.499404
O8	O	2.261077	0.400297	0.999404
O9	O	1.786386	-0.344668	0.085282
O10	O	2.286386	0.155332	0.585282
O11	O	1.523835	-0.311778	0.319695
O12	O	2.023835	0.188222	0.819695
O13	O	1.970275	-0.367702	0.312805
O14	O	2.470275	0.132298	0.812805
Cu15	Cu	1.742183	-0.361207	0.320616
Cu16	Cu	2.242183	0.138793	0.820616
Cu17	Cu	1.805280	-0.083164	0.264071
Cu18	Cu	2.305280	0.416836	0.764071
O19	O	1.707723	-0.334811	0.547218
O20	O	2.207723	0.165189	1.047218
C21	C	1.493887	-0.187130	0.292385
C22	C	1.993887	0.312870	0.792385
C23	C	1.325164	-0.165995	0.282225
C24	C	1.825164	0.334005	0.782225
N25	N	1.697816	-0.556769	0.360386
N26	N	2.197816	-0.056769	0.860386
C27	C	1.792184	-0.640790	0.275792
C28	C	2.292184	-0.140790	0.775792
C29	C	1.755279	-0.803584	0.308895
C30	C	2.255279	-0.303584	0.808895
C31	C	2.053577	-0.257237	0.292301
C32	C	2.553577	0.242763	0.792301
C33	C	2.222301	-0.278363	0.302459
C34	C	2.722301	0.221637	0.802459
N35	N	1.849661	0.112397	0.224288
N36	N	2.349661	0.612397	0.724288
C37	C	1.819025	-0.227858	0.002092
C38	C	2.319025	0.272142	0.502092
C39	C	1.836771	-0.230073	-0.174552
C40	C	2.336771	0.269927	0.325448
C41	C	1.728439	-0.216510	0.582593
C42	C	2.228439	0.283490	1.082593
C43	C	1.710695	-0.214286	0.759236
C44	C	2.210695	0.285714	1.259236
H45	H	1.284157	-0.053614	0.257115
H46	H	1.784157	0.446386	0.757115
Cl47	Cl	1.958806	-0.565750	0.125765
Cl48	Cl	2.458806	-0.065750	0.625765
H49	H	1.589180	-0.199069	-0.162313
H50	H	2.089180	0.300931	0.337687
H51	H	1.958291	-0.245307	-0.253009
H52	H	2.458291	0.254693	0.246991
Cl53	Cl	1.285616	-0.451886	0.341211
Cl54	Cl	1.785616	0.048114	0.841211
H55	H	1.647153	-0.852164	0.405826
H56	H	2.147153	-0.352164	0.905826
H57	H	1.957777	-0.839023	0.127345
H58	H	2.457777	-0.339023	0.627345
Cl59	Cl	1.530884	-0.631771	0.510035
Cl60	Cl	2.030884	-0.131771	1.010035
