data_functionalizedCrystal
_audit_creation_method	'MofGen! by Chris Wilmer'
_symmetry_space_group_name_H-M	'P1'
_symmetry_Int_Tables_number	1
_symmetry_cell_setting	triclinic
loop_
_symmetry_equiv_pos_as_xyz
  x,y,z
_cell_length_a	17.019383
_cell_length_b	17.019294
_cell_length_c	13.596369
_cell_angle_alpha	86.115041
_cell_angle_beta	86.118699
_cell_angle_gamma	83.133350
loop_
_atom_site_label
_atom_site_type_symbol
_atom_site_fract_x
_atom_site_fract_y
_atom_site_fract_z
O1	O	1.046555	0.100560	-0.178861
O2	O	1.379888	0.433893	0.154472
O3	O	1.713222	0.767226	0.487806
O4	O	0.816878	0.113362	-0.160513
O5	O	1.150211	0.446695	0.172820
O6	O	1.483545	0.780029	0.506154
O7	O	0.938124	-0.007879	-0.160498
O8	O	1.271457	0.325454	0.172835
O9	O	1.604790	0.658788	0.506169
O10	O	0.925309	0.221801	-0.178876
O11	O	1.258643	0.555134	0.154457
O12	O	1.591976	0.888467	0.487791
O13	O	0.938112	-0.007885	0.003087
O14	O	1.271445	0.325448	0.336420
O15	O	1.604778	0.658781	0.669753
O16	O	0.816866	0.113356	0.003072
O17	O	1.150199	0.446689	0.336405
O18	O	1.483533	0.780022	0.669738
O19	O	1.046543	0.100553	-0.015276
O20	O	1.379876	0.433887	0.318057
O21	O	1.713210	0.767220	0.651390
Zn22	Zn	0.931703	0.106953	0.019870
Zn23	Zn	1.265036	0.440287	0.353203
Zn24	Zn	1.598369	0.773620	0.686537
Zn25	Zn	0.931718	0.106962	-0.195659
Zn26	Zn	1.265052	0.440295	0.137674
Zn27	Zn	1.598385	0.773629	0.471007
O28	O	0.925297	0.221794	-0.015291
O29	O	1.258631	0.555128	0.318042
O30	O	1.591964	0.888461	0.651375
C31	C	0.787484	0.112871	-0.076193
C32	C	1.120817	0.446205	0.257140
C33	C	1.454151	0.779538	0.590474
C34	C	0.699916	0.111409	-0.068660
C35	C	1.033250	0.444742	0.264673
C36	C	1.366583	0.778076	0.598007
C37	C	0.658776	0.110727	-0.154284
C38	C	0.992109	0.444061	0.179049
C39	C	1.325443	0.777394	0.512383
C40	C	0.576495	0.109366	-0.147193
C41	C	0.909829	0.442699	0.186141
C42	C	1.243162	0.776032	0.519474
C43	C	0.535357	0.108680	-0.054476
C44	C	0.868691	0.442014	0.278857
C45	C	1.202024	0.775347	0.612190
C46	C	0.576503	0.109364	0.031154
C47	C	0.909836	0.442698	0.364487
C48	C	1.243169	0.776031	0.697821
C49	C	0.658781	0.110732	0.024061
C50	C	0.992115	0.444065	0.357395
C51	C	1.325448	0.777398	0.690728
C52	C	0.286929	0.104558	-0.028600
C53	C	0.620262	0.437891	0.304733
C54	C	0.953595	0.771224	0.638066
C55	C	0.204645	0.103188	-0.021514
C56	C	0.537978	0.436521	0.311819
C57	C	0.871312	0.769855	0.645153
C58	C	0.204643	0.103191	-0.199861
C59	C	0.537976	0.436524	0.133472
C60	C	0.871310	0.769858	0.466805
C61	C	0.286924	0.104553	-0.206946
C62	C	0.620257	0.437887	0.126388
C63	C	0.953590	0.771220	0.459721
C64	C	0.328062	0.105242	-0.121316
C65	C	0.661395	0.438575	0.212017
C66	C	0.994728	0.771908	0.545351
C67	C	0.451253	0.107286	-0.047225
C68	C	0.784587	0.440620	0.286108
C69	C	1.117920	0.773953	0.619441
C70	C	0.412163	0.106641	-0.128568
C71	C	0.745496	0.439975	0.204765
C72	C	1.078830	0.773308	0.538099
C73	C	0.937632	-0.037271	-0.076176
C74	C	1.270965	0.296062	0.257157
C75	C	1.604298	0.629396	0.590490
C76	C	0.936174	-0.124840	-0.068639
C77	C	1.269507	0.208493	0.264694
C78	C	1.602840	0.541827	0.598028
C79	C	0.935497	-0.165972	-0.154267
C80	C	1.268831	0.167361	0.179066
C81	C	1.602164	0.500695	0.512399
C82	C	0.934123	-0.248252	-0.147182
C83	C	1.267456	0.085082	0.186152
C84	C	1.600789	0.418415	0.519485
C85	C	0.933430	-0.289399	-0.054467
C86	C	1.266763	0.043935	0.278866
C87	C	1.600097	0.377268	0.612199
C88	C	0.934104	-0.248260	0.031168
C89	C	1.267437	0.085073	0.364501
C90	C	1.600771	0.418406	0.697834
C91	C	0.935473	-0.165981	0.024082
C92	C	1.268806	0.167352	0.357415
C93	C	1.602140	0.500685	0.690748
C94	C	0.929291	-0.537828	-0.028610
C95	C	1.262624	-0.204494	0.304723
C96	C	1.595957	0.128839	0.638056
C97	C	0.927924	-0.620113	-0.021531
C98	C	1.261257	-0.286779	0.311803
C99	C	1.594590	0.046554	0.645136
C100	C	0.927941	-0.620098	-0.199881
C101	C	1.261274	-0.286765	0.133453
C102	C	1.594607	0.046569	0.466786
C103	C	0.929315	-0.537818	-0.206959
C104	C	1.262648	-0.204485	0.126374
C105	C	1.595981	0.128848	0.459708
C106	C	0.929985	-0.496687	-0.121324
C107	C	1.263318	-0.163353	0.212009
C108	C	1.596651	0.169980	0.545343
C109	C	0.932027	-0.373502	-0.047223
C110	C	1.265360	-0.040169	0.286111
C111	C	1.598694	0.293165	0.619444
C112	C	0.931382	-0.412584	-0.128569
C113	C	1.264715	-0.079251	0.204764
C114	C	1.598048	0.254083	0.538098
C115	C	1.075937	0.101044	-0.099599
C116	C	1.409270	0.434377	0.233735
C117	C	1.742604	0.767711	0.567068
C118	C	1.163505	0.102507	-0.107138
C119	C	1.496838	0.435840	0.226196
C120	C	1.830171	0.769173	0.559529
C121	C	0.925789	0.251186	-0.099615
C122	C	1.259123	0.584520	0.233718
C123	C	1.592456	0.917853	0.567052
C124	C	0.927247	0.338755	-0.107159
C125	C	1.260581	0.672089	0.226174
C126	C	1.593914	1.005422	0.559508
N127	N	0.931697	0.106947	0.166963
N128	N	1.265031	0.440281	0.500296
N129	N	1.598364	0.773614	0.833630
N130	N	0.931730	0.106962	-0.342752
N131	N	1.265063	0.440295	-0.009419
N132	N	1.598396	0.773629	0.323914
C133	C	0.931717	0.106963	0.568251
C134	C	1.265051	0.440296	0.901584
C135	C	1.598384	0.773629	1.234918
C136	C	0.931710	0.106961	0.456600
C137	C	1.265043	0.440294	0.789934
C138	C	1.598376	0.773628	1.123267
C139	C	0.931708	0.106956	0.367610
C140	C	1.265041	0.440289	0.700944
C141	C	1.598374	0.773622	1.034277
C142	C	0.931699	0.106953	0.255953
C143	C	1.265033	0.440286	0.589286
C144	C	1.598366	0.773619	0.922620
H145	H	0.543003	0.108811	-0.216917
H146	H	0.876336	0.442144	0.116416
H147	H	1.209669	0.775477	0.449750
H148	H	0.543001	0.108811	0.106645
H149	H	0.876334	0.442144	0.439979
H150	H	1.209668	0.775478	0.773312
Br151	Br	0.148817	0.102237	0.104326
Br152	Br	0.482150	0.435570	0.437659
Br153	Br	0.815484	0.768904	0.770992
Br154	Br	0.930183	-0.482014	0.087611
Br155	Br	1.263517	-0.148681	0.420944
Br156	Br	1.596850	0.184652	0.754278
H157	H	0.927394	-0.653596	-0.269600
H158	H	1.260727	-0.320263	0.063734
H159	H	1.594060	0.013070	0.397067
H160	H	0.931940	-0.379078	-0.204056
H161	H	1.265273	-0.045745	0.129277
H162	H	1.598607	0.287589	0.462610
Br163	Br	0.148811	0.102245	-0.316066
Br164	Br	0.482144	0.435579	0.017268
Br165	Br	0.815477	0.768912	0.350601
Br166	Br	0.342750	0.105475	-0.332779
Br167	Br	0.676083	0.438809	0.000554
Br168	Br	1.009416	0.772142	0.333888
H169	H	0.931466	-0.407013	0.028266
H170	H	1.264799	-0.073680	0.361599
H171	H	1.598132	0.259653	0.694932
Br172	Br	0.342748	0.105493	0.087612
Br173	Br	0.676082	0.438826	0.420946
Br174	Br	1.009415	0.772160	0.754279
H175	H	0.692276	0.111290	0.093785
H176	H	1.025609	0.444623	0.427119
H177	H	1.358943	0.777957	0.760452
H178	H	0.936013	-0.132491	0.093810
H179	H	1.269346	0.200842	0.427144
H180	H	1.602680	0.534176	0.760477
Br181	Br	0.467994	0.107576	-0.254394
Br182	Br	0.801327	0.440910	0.078939
Br183	Br	1.134660	0.774243	0.412273
Br184	Br	0.933151	-0.304100	0.156997
Br185	Br	1.266484	0.029234	0.490331
Br186	Br	1.599818	0.362567	0.823664
H187	H	0.417750	0.106726	0.028265
H188	H	0.751083	0.440059	0.361598
H189	H	1.084416	0.773392	0.694932
H190	H	0.936066	-0.132477	-0.229766
H191	H	1.269399	0.200857	0.103568
H192	H	1.602732	0.534190	0.436901
Br193	Br	0.930260	-0.481982	-0.332791
Br194	Br	1.263593	-0.148649	0.000542
Br195	Br	1.596927	0.184684	0.333876
H196	H	0.692265	0.111283	-0.229784
H197	H	1.025599	0.444616	0.103550
H198	H	1.358932	0.777950	0.436883
H199	H	0.933575	-0.281738	-0.216910
H200	H	1.266908	0.051595	0.116424
H201	H	1.600242	0.384928	0.449757
H202	H	0.927356	-0.653612	0.053973
H203	H	1.260689	-0.320278	0.387306
H204	H	1.594022	0.013055	0.720639
