data_functionalizedCrystal
_audit_creation_method	'MofGen! by Chris Wilmer'
_symmetry_space_group_name_H-M	'P1'
_symmetry_Int_Tables_number	1
_symmetry_cell_setting	triclinic
loop_
_symmetry_equiv_pos_as_xyz
  x,y,z
_cell_length_a	12.645331
_cell_length_b	19.121063
_cell_length_c	12.645323
_cell_angle_alpha	92.408124
_cell_angle_beta	89.977324
_cell_angle_gamma	92.467980
loop_
_atom_site_label
_atom_site_type_symbol
_atom_site_fract_x
_atom_site_fract_y
_atom_site_fract_z
Zn1	Zn	1.602654	-0.279627	-0.617388
Zn2	Zn	2.102654	0.220373	-0.117388
Zn3	Zn	1.594942	-0.397086	-0.447665
Zn4	Zn	2.094942	0.102914	0.052335
Zn5	Zn	1.425367	-0.279651	-0.440134
Zn6	Zn	1.925367	0.220349	0.059866
Zn7	Zn	1.417760	-0.397040	-0.624877
Zn8	Zn	1.917760	0.102960	-0.124877
O9	O	1.510181	-0.338351	-0.532516
O10	O	2.010181	0.161649	-0.032516
O11	O	1.749978	-0.295217	-0.594892
O12	O	2.249978	0.204783	-0.094892
O13	O	1.572404	-0.381537	-0.298321
O14	O	2.072404	0.118463	0.201679
O15	O	1.455295	-0.181363	-0.457361
O16	O	1.955295	0.318637	0.042639
O17	O	1.744312	-0.381514	-0.470197
O18	O	2.244312	0.118486	0.029803
O19	O	1.585547	-0.181346	-0.587589
O20	O	2.085547	0.318654	-0.087589
O21	O	1.447818	-0.295258	-0.292788
O22	O	1.947818	0.204742	0.207212
O23	O	1.276011	-0.295213	-0.464623
O24	O	1.776011	0.204787	0.035377
O25	O	1.442330	-0.381436	-0.772230
O26	O	1.942330	0.118564	-0.272230
O27	O	1.270422	-0.381459	-0.600353
O28	O	1.770422	0.118541	-0.100353
O29	O	1.578171	-0.295173	-0.766727
O30	O	2.078171	0.204827	-0.266727
O31	O	1.565027	-0.495364	-0.477459
O32	O	2.065027	0.004636	0.022541
O33	O	1.434852	-0.495330	-0.607656
O34	O	1.934852	0.004670	-0.107656
C35	C	1.234752	-0.338334	-0.532485
C36	C	1.734752	0.161666	-0.032485
C37	C	1.116921	-0.338344	-0.532497
C38	C	1.616921	0.161656	-0.032497
C39	C	0.952854	-0.283838	-0.447545
C40	C	1.452854	0.216162	0.052455
C41	C	1.075405	-0.283979	-0.447195
C42	C	1.575405	0.216021	0.052805
C43	C	1.067618	-0.412331	-0.506730
C44	C	1.567618	0.087669	-0.006730
C45	C	0.945039	-0.412033	-0.506155
C46	C	1.445039	0.087967	-0.006155
C47	C	0.950986	-0.319567	-0.643576
C48	C	1.450986	0.180433	-0.143576
C49	C	1.073698	-0.317914	-0.642847
C50	C	1.573698	0.182086	-0.142847
C51	C	1.498306	-0.520831	-0.544210
C52	C	1.998306	-0.020831	-0.044210
C53	C	1.493323	-0.598897	-0.549248
C54	C	1.993323	-0.098897	-0.049248
C55	C	1.558810	-0.635567	-0.483885
C56	C	2.058810	-0.135567	0.016115
C57	C	1.554130	-0.708918	-0.488629
C58	C	2.054130	-0.208918	0.011371
C59	C	1.483957	-0.745598	-0.558733
C60	C	1.983957	-0.245598	-0.058733
C61	C	1.418467	-0.708923	-0.624104
C62	C	1.918467	-0.208923	-0.124104
C63	C	1.423154	-0.635573	-0.619364
C64	C	1.923154	-0.135573	-0.119364
C65	C	1.466419	-0.967067	-0.576438
C66	C	1.966419	-0.467067	-0.076438
C67	C	1.461736	-1.040422	-0.581171
C68	C	1.961736	-0.540422	-0.081171
C69	C	1.597400	-1.040412	-0.445697
C70	C	2.097400	-0.540412	0.054303
C71	C	1.602076	-0.967061	-0.440959
C72	C	2.102076	-0.467061	0.059041
C73	C	1.536590	-0.930392	-0.506334
C74	C	2.036590	-0.430392	-0.006334
C75	C	1.479169	-0.820575	-0.563582
C76	C	1.979169	-0.320575	-0.063582
C77	C	1.541384	-0.855417	-0.501489
C78	C	2.041384	-0.355417	-0.001489
C79	C	1.786685	-0.338368	-0.532549
C80	C	2.286685	0.161632	-0.032549
C81	C	1.904514	-0.338375	-0.532563
C82	C	2.404514	0.161625	-0.032563
C83	C	1.510262	-0.338296	-0.809018
C84	C	2.010262	0.161704	-0.309018
C85	C	1.510297	-0.338273	-0.926847
C86	C	2.010297	0.161727	-0.426847
C87	C	1.522130	-0.155158	-0.520800
C88	C	2.022130	0.344842	-0.020800
C89	C	1.527222	-0.077092	-0.515807
C90	C	2.027222	0.422908	-0.015807
C91	C	1.424603	-0.392285	-1.097856
C92	C	1.924603	0.107715	-0.597856
C93	C	1.424801	-0.392553	-0.975313
C94	C	1.924801	0.107447	-0.475313
C95	C	1.620698	-0.358362	-0.972656
C96	C	2.120698	0.141638	-0.472656
C97	C	1.620225	-0.358700	-1.095276
C98	C	2.120225	0.141300	-0.595276
C99	C	1.486666	-0.263871	-1.089271
C100	C	1.986666	0.236129	-0.589271
C101	C	1.484145	-0.264317	-0.966693
C102	C	1.984145	0.235683	-0.466693
C103	C	1.510164	-0.338354	-0.257087
C104	C	2.010164	0.161646	0.242913
C105	C	1.510347	-0.338179	-0.139246
C106	C	2.010347	0.161821	0.360754
H107	H	0.926948	-0.228808	-0.462935
H108	H	1.426948	0.271192	0.037065
H109	H	1.686088	-0.320200	-0.941072
H110	H	2.186088	0.179800	-0.441072
H111	H	1.402923	-0.249167	-0.936622
H112	H	1.902923	0.250833	-0.436622
H113	H	1.641782	-0.412113	-0.945416
H114	H	2.141782	0.087887	-0.445416
H115	H	1.404605	-1.070285	-0.638276
H116	H	1.904605	-0.570285	-0.138276
H117	H	1.103879	-0.296410	-0.364833
H118	H	1.603879	0.203590	0.135167
H119	H	1.542416	-0.221874	-0.933348
H120	H	2.042416	0.278126	-0.433348
H121	H	0.921211	-0.296131	-0.365663
H122	H	1.421211	0.203869	0.134337
H123	H	0.915362	-0.427984	-0.425139
H124	H	1.415362	0.072016	0.074861
H125	H	1.407816	-0.245560	-1.119000
H126	H	1.907816	0.254440	-0.619000
H127	H	1.101976	-0.354739	-0.709195
H128	H	1.601976	0.145261	-0.209195
H129	H	0.912678	-0.454044	-0.565636
H130	H	1.412678	0.045956	-0.065636
H131	H	1.106322	-0.263468	-0.662363
H132	H	1.606322	0.236532	-0.162363
H133	H	1.439685	-0.447029	-1.132188
H134	H	1.939685	0.052971	-0.632188
H135	H	1.094090	-0.454052	-0.566917
H136	H	1.594090	0.045948	-0.066917
H137	H	0.919439	-0.359290	-0.706863
H138	H	1.419439	0.140710	-0.206863
H139	H	1.413096	-0.937218	-0.629667
H140	H	1.913096	-0.437218	-0.129667
H141	H	1.549176	-0.223560	-1.115698
H142	H	2.049176	0.276440	-0.615698
H143	H	1.615948	-0.605707	-0.426794
H144	H	2.115948	-0.105707	0.073206
H145	H	1.097224	-0.428555	-0.426612
H146	H	1.597224	0.071445	0.073388
H147	H	0.923516	-0.266557	-0.667927
H148	H	1.423516	0.233443	-0.167927
H149	H	1.607456	-0.738771	-0.435402
H150	H	2.107456	-0.238771	0.064598
H151	H	1.640858	-0.413021	-1.127372
H152	H	2.140858	0.086979	-0.627372
H153	H	1.109052	-0.229114	-0.462801
H154	H	1.609052	0.270886	0.037199
H155	H	1.659216	-0.937197	-0.383875
H156	H	2.159216	-0.437197	0.116125
H157	H	1.361335	-0.738794	-0.681188
H158	H	1.861335	-0.238794	-0.181188
H159	H	1.369829	-0.605717	-0.672591
H160	H	1.869829	-0.105717	-0.172591
H161	H	1.650716	-1.070275	-0.392474
H162	H	2.150716	-0.570275	0.107526
H163	H	1.598523	-0.825550	-0.444415
H164	H	2.098523	-0.325550	0.055585
H165	H	1.422032	-0.850448	-0.620658
H166	H	1.922032	-0.350448	-0.120658
H167	H	1.342785	-0.379982	-0.944405
H168	H	1.842785	0.120018	-0.444405
H169	H	1.342333	-0.379835	-1.126531
H170	H	1.842333	0.120165	-0.626531
H171	H	1.440044	-0.447641	-0.949534
H172	H	1.940044	0.052359	-0.449534
H173	H	1.686020	-0.321003	-1.122535
H174	H	2.186020	0.178997	-0.622535
