data_functionalizedCrystal
_audit_creation_method	'MofGen! by Chris Wilmer'
_symmetry_space_group_name_H-M	'P1'
_symmetry_Int_Tables_number	1
_symmetry_cell_setting	triclinic
loop_
_symmetry_equiv_pos_as_xyz
  x,y,z
_cell_length_a	10.654550
_cell_length_b	10.654550
_cell_length_c	9.730223
_cell_angle_alpha	89.996763
_cell_angle_beta	89.999957
_cell_angle_gamma	84.484917
loop_
_atom_site_label
_atom_site_type_symbol
_atom_site_fract_x
_atom_site_fract_y
_atom_site_fract_z
O1	O	1.667839	0.176399	-0.114183
O2	O	1.302361	0.193205	-0.114208
O3	O	1.493503	0.002062	-0.114190
O4	O	1.476697	0.367541	-0.114202
O5	O	1.493490	0.002057	0.114390
O6	O	1.302348	0.193199	0.114372
O7	O	1.667827	0.176393	0.114396
Zn8	Zn	1.485085	0.184796	0.150676
Zn9	Zn	1.485102	0.184802	-0.150488
O10	O	1.476684	0.367536	0.114378
C11	C	1.255556	0.191968	0.000078
C12	C	1.116113	0.188276	0.000069
C13	C	1.036627	0.300818	0.000069
C14	C	0.905607	0.297341	0.000093
C15	C	0.933570	0.068772	0.000111
C16	C	1.064588	0.072250	0.000097
C17	C	1.492263	-0.044738	0.000098
C18	C	1.488571	-0.184181	0.000093
C19	C	1.601112	-0.263667	0.000105
C20	C	1.597636	-0.394688	0.000095
C21	C	1.369066	-0.366725	0.000067
C22	C	1.372544	-0.235706	0.000067
C23	C	1.733075	-0.279813	0.000127
C24	C	1.729599	-0.410834	0.000117
C25	C	1.714631	0.177630	0.000107
C26	C	1.854074	0.181322	0.000107
C27	C	1.477924	0.414336	0.000087
C28	C	1.481616	0.553779	0.000083
N29	N	1.485083	0.184790	0.356212
N30	N	1.485114	0.184798	-0.356024
C31	C	1.569750	0.100188	0.428146
C32	C	1.569763	0.100189	0.572029
C33	C	1.400438	0.269404	0.572032
C34	C	1.400420	0.269396	0.428151
H35	H	1.078574	0.395294	0.000057
N36	N	1.788717	-0.232669	0.130893
H37	H	1.866020	-0.188738	0.108247
H38	H	1.724296	-0.171483	0.177976
N39	N	1.782451	-0.471294	-0.130599
H40	H	1.715314	-0.516463	-0.177766
H41	H	1.810546	-0.404068	-0.193636
H42	H	0.840894	0.388984	0.000097
H43	H	0.891602	-0.025693	0.000142
N44	N	1.309138	0.360671	0.649617
H45	H	1.219877	0.345375	0.624596
H46	H	1.322104	0.347802	0.751656
N47	N	1.795447	-0.466167	0.126824
H48	H	1.827332	-0.396357	0.183380
H49	H	1.734193	-0.511397	0.183249
H50	H	1.331468	0.338290	0.369579
N51	N	1.150331	-0.049140	0.000112
H52	H	1.097812	-0.123170	0.000124
H53	H	1.205299	-0.052679	-0.084626
H54	H	1.280902	-0.170993	0.000039
N55	N	1.801459	-0.240907	-0.126558
H56	H	1.743076	-0.181058	-0.183113
H57	H	1.877656	-0.197604	-0.098215
N58	N	1.661047	0.008908	0.350574
H59	H	1.612559	-0.047149	0.290901
H60	H	1.717054	0.057483	0.290936
H61	H	1.274601	-0.408693	0.000045
N62	N	1.661099	0.008958	0.649617
H63	H	1.714733	-0.044631	0.582207
H64	H	1.717029	0.057583	0.709289
