data_functionalizedCrystal
_audit_creation_method	'MofGen! by Chris Wilmer'
_symmetry_space_group_name_H-M	'P1'
_symmetry_Int_Tables_number	1
_symmetry_cell_setting	triclinic
loop_
_symmetry_equiv_pos_as_xyz
  x,y,z
_cell_length_a	14.395555
_cell_length_b	14.395555
_cell_length_c	14.395555
_cell_angle_alpha	59.993552
_cell_angle_beta	89.997643
_cell_angle_gamma	60.002087
loop_
_atom_site_label
_atom_site_type_symbol
_atom_site_fract_x
_atom_site_fract_y
_atom_site_fract_z
Zr1	Zr	0.894863	1.016892	-0.122008
O2	O	0.746539	1.210698	-0.270350
O3	O	0.940333	0.823086	-0.076523
O4	O	0.940334	1.016900	-0.270340
O5	O	0.746535	1.016876	0.076341
O6	O	1.093201	1.016907	-0.270343
O7	O	0.746538	1.016883	-0.076533
O8	O	1.093200	0.670208	0.076359
O9	O	0.746537	1.363575	-0.270362
O10	O	1.073807	0.902806	-0.057139
O11	O	0.959722	0.902796	0.056952
O12	O	0.959723	1.130988	-0.171243
O13	O	0.845638	1.130977	-0.057152
Zr14	Zr	1.138664	1.016892	0.121803
Zr15	Zr	1.138668	1.016903	-0.122014
Zr16	Zr	0.894858	1.016881	0.121808
Zr17	Zr	0.894859	1.260714	-0.122027
Zr18	Zr	1.138667	0.773069	0.121822
O19	O	1.093193	1.210698	0.076317
O20	O	1.093199	1.210713	-0.270358
O21	O	0.746533	1.210682	0.076326
O22	O	1.286987	0.823086	0.270145
O23	O	1.286994	0.823101	-0.076531
O24	O	0.940327	0.823070	0.270153
O25	O	1.286991	1.016907	-0.076546
O26	O	1.093192	1.016883	0.270134
O27	O	0.940325	1.016876	0.270138
O28	O	1.286988	1.016900	0.076328
O29	O	0.940330	1.363584	-0.270367
O30	O	1.093197	0.670199	0.270161
O31	O	1.286989	0.670208	0.270156
O32	O	1.286993	0.670217	0.076355
O33	O	0.746533	1.363566	-0.076560
O34	O	0.940326	1.363575	-0.076565
O35	O	1.073803	0.902796	0.171037
O36	O	1.187888	0.902806	0.056946
O37	O	1.073804	1.130988	-0.057157
O38	O	0.959719	1.130977	0.056934
C39	C	1.016767	0.711907	-0.000079
C40	C	1.016769	0.608398	-0.000071
C41	C	0.711800	1.016878	-0.000096
C42	C	0.608298	1.016873	-0.000093
C43	C	0.954549	0.485921	0.062098
C44	C	1.061822	0.471645	0.107216
C45	C	0.909515	0.624013	-0.045137
C46	C	1.124094	0.409683	0.045046
C47	C	0.971710	0.562114	-0.107367
C48	C	1.079048	0.547791	-0.062275
C49	C	0.609913	0.892458	0.062119
C50	C	0.516895	0.954650	0.107202
C51	C	0.516887	0.954686	-0.045143
C52	C	0.516643	1.079066	0.045052
C53	C	0.516649	1.079084	-0.107352
C54	C	0.423614	1.141367	-0.062296
C55	C	1.321727	1.016905	-0.000110
C56	C	1.425229	1.016910	-0.000112
C57	C	1.016768	1.016905	-0.305080
C58	C	1.016770	1.016910	-0.408587
C59	C	1.016759	1.321876	-0.000126
C60	C	1.016758	1.425385	-0.000134
C61	C	0.954554	1.141325	-0.531390
C62	C	1.061819	1.079133	-0.562227
C63	C	0.909511	1.079097	-0.562173
C64	C	1.124099	0.954718	-0.438060
C65	C	0.971713	0.954699	-0.438010
C66	C	1.079042	0.892417	-0.468773
C67	C	1.016758	1.016878	0.304875
C68	C	1.016756	1.016873	0.408381
C69	C	1.321731	0.711921	-0.000086
C70	C	1.425234	0.608417	-0.000081
C71	C	1.016762	0.711894	0.304898
C72	C	1.016761	0.608380	0.408413
C73	C	1.321725	0.711907	0.304891
C74	C	1.425227	0.608398	0.408403
C75	C	0.711801	1.321876	-0.305097
C76	C	0.608300	1.425385	-0.408609
C77	C	0.711796	1.321862	-0.000119
C78	C	0.608292	1.425366	-0.000125
C79	C	1.016764	1.321890	-0.305104
C80	C	1.016765	1.425403	-0.408618
C81	C	1.548023	0.547860	0.062093
C82	C	1.578884	0.409744	0.107157
C83	C	1.578790	0.562164	-0.045199
C84	C	1.454731	0.471601	0.045047
C85	C	1.454641	0.624094	-0.107369
C86	C	1.485429	0.485988	-0.062332
C87	C	0.954557	0.547789	0.406805
C88	C	1.061832	0.409681	0.499835
C89	C	0.909522	0.562015	0.499834
C90	C	1.124100	0.471573	0.500080
C91	C	0.971712	0.623980	0.500064
C92	C	1.079052	0.485882	0.593112
C93	C	1.423611	0.547780	0.531203
C94	C	1.516600	0.409681	0.562006
C95	C	1.516666	0.561960	0.562033
C96	C	1.516852	0.471600	0.437843
C97	C	1.516904	0.623953	0.437873
C98	C	1.609910	0.485862	0.468603
H99	H	0.902024	0.458659	0.114760
H100	H	1.099956	0.434371	0.197940
H101	H	0.818809	1.131700	-0.615676
C102	C	1.081037	0.728915	-0.476978
C103	C	1.150150	0.750283	-0.434138
H104	H	1.124939	0.641167	-0.455590
H105	H	1.050885	0.788152	-0.557579
H106	H	1.020423	0.742914	-0.446801
H107	H	1.210760	0.736294	-0.464322
H108	H	1.180319	0.691028	-0.353521
H109	H	1.573462	0.574932	0.114780
C110	C	1.219394	0.682506	0.467560
C111	C	1.315938	0.584376	0.565540
H112	H	1.152924	0.705101	0.488762
H113	H	1.219557	0.651087	0.423122
H114	H	1.220218	0.757889	0.424358
H115	H	1.315118	0.508989	0.608739
H116	H	1.315774	0.615792	0.609998
C117	C	1.814113	0.352796	0.531821
C118	C	1.717417	0.449349	0.433986
H119	H	1.880482	0.330256	0.510451
H120	H	1.813987	0.277059	0.576203
H121	H	1.813454	0.385605	0.575150
H122	H	1.718072	0.416536	0.390661
H123	H	1.717543	0.525100	0.389586
C124	C	1.293880	0.309422	0.498679
C125	C	1.246599	0.421102	0.498975
H126	H	1.369506	0.278263	0.498001
H127	H	1.249595	0.331323	0.432935
H128	H	1.294620	0.242930	0.564913
H129	H	1.245851	0.487597	0.432736
H130	H	1.290896	0.399206	0.564726
H131	H	0.902034	1.246528	-0.556839
C132	C	1.081030	0.475762	0.764783
C133	C	1.150145	0.449478	0.700577
H134	H	1.124917	0.453318	0.831110
H135	H	1.050928	0.425261	0.786215
H136	H	1.020382	0.566543	0.720569
H137	H	1.210789	0.358695	0.744788
H138	H	1.180265	0.499978	0.679147
C139	C	0.420804	1.193707	0.128312
C140	C	0.517750	1.149990	0.096624
H141	H	0.421489	1.237495	0.160145
H142	H	0.420564	1.120630	0.183057
H143	H	0.354609	1.252662	0.063216
H144	H	0.583945	1.091027	0.161722
H145	H	0.518000	1.223076	0.041875
C146	C	1.517299	0.724463	0.569720
C147	C	1.517946	0.612128	0.634284
H148	H	1.518096	0.755429	0.614326
H149	H	1.450709	0.790784	0.504360
H150	H	1.582669	0.703350	0.546703
H151	H	1.452572	0.633243	0.657294
H152	H	1.584544	0.545793	0.699664
H153	H	0.933567	0.715637	0.499072
H154	H	1.632263	0.599411	-0.083319
H155	H	0.902035	0.574876	0.327042
C156	C	1.048010	0.317337	0.404752
C157	C	1.113286	0.285984	0.501110
H158	H	1.079768	0.240973	0.405540
H159	H	1.047742	0.382975	0.338161
H160	H	0.972253	0.349307	0.405217
H161	H	1.189042	0.254023	0.500640
H162	H	1.113567	0.220323	0.567717
C163	C	0.722095	0.716256	-0.031284
C164	C	0.787076	0.747678	-0.096566
H165	H	0.646506	0.792596	-0.063034
H166	H	0.754524	0.684263	0.044477
H167	H	0.721174	0.650612	-0.031039
H168	H	0.788005	0.813316	-0.096804
H169	H	0.754638	0.779690	-0.172347
C170	C	0.739297	0.724576	0.500374
C171	C	0.787085	0.612221	0.501066
H172	H	0.663713	0.755562	0.501136
H173	H	0.738362	0.790876	0.433779
H174	H	0.783401	0.703477	0.565751
H175	H	0.742986	0.633322	0.435685
H176	H	0.788013	0.545906	0.567668
C177	C	0.519436	1.084657	-0.276780
C178	C	0.517975	1.150008	-0.229763
H179	H	0.520267	1.128432	-0.352351
H180	H	0.453544	1.084495	-0.277630
H181	H	0.585503	0.996726	-0.232254
H182	H	0.451904	1.237936	-0.274285
H183	H	0.583874	1.150183	-0.228921
C184	C	1.245499	0.884454	-0.269107
C185	C	1.246606	0.883758	-0.366024
H186	H	1.321130	0.840645	-0.224636
H187	H	1.213396	0.840591	-0.225446
H188	H	1.201235	0.972604	-0.291517
H189	H	1.290864	0.795608	-0.343615
H190	H	1.278725	0.927619	-0.409693
H191	H	1.517503	0.318066	0.615496
C192	C	0.807859	0.949126	-0.429620
C193	C	0.920234	0.883775	-0.365743
H194	H	0.776069	0.905351	-0.385004
H195	H	0.806836	0.949288	-0.495674
H196	H	0.764456	1.037057	-0.451487
H197	H	0.963639	0.795847	-0.343883
H198	H	0.921263	0.883600	-0.299668
H199	H	1.516006	0.434264	0.384450
C200	C	1.418482	0.843575	0.268267
C201	C	1.515618	0.747666	0.365654
H202	H	1.417689	0.919953	0.223683
H203	H	1.352431	0.865133	0.290136
H204	H	1.419462	0.810688	0.224925
H205	H	1.514633	0.780551	0.409001
H206	H	1.581686	0.726108	0.343786
C207	C	1.262398	0.472955	-0.085860
C208	C	1.150166	0.584218	-0.133266
H209	H	1.306304	0.495447	-0.129681
H210	H	1.263276	0.406491	-0.085763
H211	H	1.293733	0.441484	-0.009990
H212	H	1.118828	0.615684	-0.209134
H213	H	1.149283	0.650704	-0.133376
C214	C	0.718738	0.685598	0.245540
C215	C	0.717595	0.750449	0.133233
H216	H	0.785222	0.597934	0.289445
H217	H	0.653250	0.684626	0.246575
H218	H	0.718536	0.730244	0.276773
H219	H	0.717789	0.705807	0.101997
H220	H	0.783101	0.751414	0.132194
C221	C	1.255606	0.179443	0.192533
C222	C	1.246594	0.286078	0.096618
H223	H	1.331232	0.103137	0.224375
H224	H	1.204450	0.164862	0.170995
H225	H	1.237264	0.198005	0.247283
H226	H	1.264928	0.267520	0.041864
H227	H	1.297767	0.300659	0.118153
H228	H	1.401108	0.715763	-0.198038
H229	H	1.632420	0.318099	0.197846
C230	C	0.219411	1.282370	-0.133508
C231	C	0.316110	1.283497	-0.133318
H232	H	0.153044	1.370115	-0.177357
H233	H	0.219509	1.237872	-0.057656
H234	H	0.220094	1.238375	-0.165660
H235	H	0.315432	1.327484	-0.101158
H236	H	0.316012	1.328014	-0.209186
H237	H	0.515978	0.902083	-0.083236
C238	C	1.372115	0.422651	0.192624
C239	C	1.382754	0.421053	0.096660
H240	H	1.327688	0.391436	0.224494
H241	H	1.335992	0.509910	0.171132
H242	H	1.445453	0.367671	0.247336
H243	H	1.309415	0.476041	0.041944
H244	H	1.418875	0.333779	0.118149
H245	H	0.515968	0.902065	0.197902
H246	H	0.933573	0.599328	-0.198060
C247	C	1.548635	0.353047	-0.133590
C248	C	1.450812	0.449508	-0.133356
H249	H	1.527264	0.330528	-0.177440
H250	H	1.593055	0.277280	-0.057747
H251	H	1.591920	0.385926	-0.165762
H252	H	1.407532	0.416625	-0.101176
H253	H	1.406374	0.525289	-0.209215
H254	H	1.099926	1.131720	-0.615756
