data_functionalizedCrystal
_audit_creation_method	'MofGen! by Chris Wilmer'
_symmetry_space_group_name_H-M	'P1'
_symmetry_Int_Tables_number	1
_symmetry_cell_setting	triclinic
loop_
_symmetry_equiv_pos_as_xyz
  x,y,z
_cell_length_a	18.101397
_cell_length_b	19.805407
_cell_length_c	19.805399
_cell_angle_alpha	89.980427
_cell_angle_beta	90.029325
_cell_angle_gamma	89.979534
loop_
_atom_site_label
_atom_site_type_symbol
_atom_site_fract_x
_atom_site_fract_y
_atom_site_fract_z
Zn1	Zn	-0.294847	-1.034764	0.382711
Zn2	Zn	0.205153	-0.534764	0.882711
Zn3	Zn	-0.418690	-1.034690	0.269520
Zn4	Zn	0.081310	-0.534690	0.769520
Zn5	Zn	-0.294867	-0.921578	0.269536
Zn6	Zn	0.205133	-0.421578	0.769536
Zn7	Zn	-0.418651	-0.921554	0.382667
Zn8	Zn	0.081349	-0.421554	0.882667
O9	O	-0.356764	-0.978146	0.326108
O10	O	0.143236	-0.478146	0.826108
O11	O	-0.311283	-1.129470	0.367708
O12	O	0.188717	-0.629470	0.867708
O13	O	-0.402290	-1.019665	0.174805
O14	O	0.097710	-0.519665	0.674805
O15	O	-0.191232	-0.936634	0.284575
O16	O	0.308768	-0.436634	0.784575
O17	O	-0.402270	-1.129417	0.284547
O18	O	0.097730	-0.629417	0.784547
O19	O	-0.191217	-1.019790	0.367724
O20	O	0.308783	-0.519790	0.867724
O21	O	-0.311318	-0.936562	0.174817
O22	O	0.188682	-0.436562	0.674817
O23	O	-0.311279	-0.826858	0.284531
O24	O	0.188721	-0.326858	0.784531
O25	O	-0.402203	-0.936591	0.477389
O26	O	0.097797	-0.436591	0.977389
O27	O	-0.402223	-0.826840	0.367648
O28	O	0.097777	-0.326840	0.867648
O29	O	-0.311245	-1.019766	0.477422
O30	O	0.188755	-0.519766	0.977422
O31	O	-0.522318	-1.019641	0.284503
O32	O	-0.022318	-0.519641	0.784503
O33	O	-0.522289	-0.936520	0.367632
O34	O	-0.022289	-0.436520	0.867632
C35	C	-0.549174	-0.978088	0.326076
C36	C	-0.049174	-0.478088	0.826076
C37	C	-0.631488	-0.978126	0.326084
C38	C	-0.131488	-0.478126	0.826084
C39	C	-0.356750	-0.802290	0.326087
C40	C	0.143250	-0.302290	0.826087
C41	C	-0.356761	-0.727058	0.326093
C42	C	0.143239	-0.227058	0.826093
C43	C	-0.356717	-0.978184	0.502651
C44	C	0.143283	-0.478184	1.002651
C45	C	-0.356697	-0.978201	0.577883
C46	C	0.143303	-0.478201	1.077883
C47	C	-0.930579	-0.978212	0.326146
C48	C	-0.430579	-0.478212	0.826146
C49	C	-0.899242	-1.030364	0.273704
C50	C	-0.399242	-0.530364	0.773704
C51	C	-0.813623	-1.030544	0.273840
C52	C	-0.313623	-0.530544	0.773840
C53	C	-0.782197	-0.978169	0.326115
C54	C	-0.282197	-0.478169	0.826115
C55	C	-0.813206	-0.997504	0.397460
C56	C	-0.313206	-0.497504	0.897460
C57	C	-0.898851	-0.997908	0.397174
C58	C	-0.398851	-0.497908	0.897174
C59	C	-0.899088	-0.906586	0.307861
C60	C	-0.399088	-0.406586	0.807861
C61	C	-0.813438	-0.906940	0.306268
C62	C	-0.313438	-0.406940	0.806268
C63	C	-0.698337	-0.978144	0.326101
C64	C	-0.198337	-0.478144	0.826101
C65	C	-1.014439	-0.978239	0.326164
C66	C	-0.514439	-0.478239	0.826164
C67	C	-0.163602	-0.978223	0.326156
C68	C	0.336398	-0.478223	0.826156
C69	C	-0.081288	-0.978256	0.326177
C70	C	0.418712	-0.478256	0.826177
C71	C	-0.356779	-1.154689	0.326131
C72	C	0.143221	-0.654689	0.826131
C73	C	-0.356785	-1.229921	0.326140
C74	C	0.143215	-0.729921	0.826140
C75	C	-0.404187	-0.691722	0.369302
C76	C	0.095813	-0.191722	0.869302
C77	C	-0.404188	-0.621034	0.369311
C78	C	0.095812	-0.121034	0.869311
C79	C	-0.356767	-0.585683	0.326108
C80	C	0.143233	-0.085683	0.826108
C81	C	-0.309336	-0.621024	0.282898
C82	C	0.190664	-0.121024	0.782898
C83	C	-0.309332	-0.691711	0.282892
C84	C	0.190668	-0.191711	0.782892
C85	C	-0.309353	-0.335950	0.282920
C86	C	0.190647	0.164050	0.782920
C87	C	-0.309362	-0.265258	0.282928
C88	C	0.190638	0.234742	0.782928
C89	C	-0.404209	-0.265274	0.369339
C90	C	0.095791	0.234726	0.869339
C91	C	-0.404205	-0.335961	0.369334
C92	C	0.095795	0.164039	0.869334
C93	C	-0.356771	-0.371295	0.326126
C94	C	0.143229	0.128705	0.826126
C95	C	-0.356770	-0.447944	0.326117
C96	C	0.143230	0.052056	0.826117
C97	C	-0.356772	-0.509036	0.326113
C98	C	0.143228	-0.009036	0.826113
C99	C	-0.356757	-0.978148	0.150252
C100	C	0.143243	-0.478148	0.650252
C101	C	-0.356568	-0.978263	0.075021
C102	C	0.143432	-0.478263	0.575021
C103	C	-0.309333	-1.021511	0.613246
C104	C	0.190667	-0.521511	1.113246
C105	C	-0.309311	-1.021518	0.683934
C106	C	0.190689	-0.521518	1.183934
C107	C	-0.356659	-0.978217	0.719259
C108	C	0.143341	-0.478217	1.219259
C109	C	-0.404025	-0.934902	0.683892
C110	C	0.095975	-0.434902	1.183892
C111	C	-0.404042	-0.934893	0.613204
C112	C	0.095958	-0.434893	1.113204
C113	C	-0.403956	-0.934941	0.968965
C114	C	0.096044	-0.434941	1.468965
C115	C	-0.403937	-0.934955	1.039657
C116	C	0.096063	-0.434955	1.539657
C117	C	-0.309225	-1.021566	1.039695
C118	C	0.190775	-0.521566	1.539695
C119	C	-0.309242	-1.021556	0.969008
C120	C	0.190758	-0.521556	1.469008
C121	C	-0.356606	-0.978239	0.933646
C122	C	0.143394	-0.478239	1.433646
C123	C	-0.356627	-0.978231	0.856998
C124	C	0.143373	-0.478231	1.356998
C125	C	-0.356641	-0.978228	0.795906
C126	C	0.143359	-0.478228	1.295906
H127	H	-0.792660	-1.018448	0.220938
H128	H	-0.292660	-0.518448	0.720938
N129	N	-0.455121	-0.888173	0.575060
N130	N	0.044879	-0.388173	1.075060
H131	H	-0.485112	-0.860743	0.608163
H132	H	0.014888	-0.360743	1.108163
H133	H	-0.489404	-0.915701	0.545724
H134	H	0.010596	-0.415701	1.045724
H135	H	-0.442805	-0.720500	0.404481
H136	H	0.057195	-0.220500	0.904481
H137	H	-0.442808	-0.592267	0.404496
H138	H	0.057192	-0.092267	0.904496
H139	H	-0.442494	-0.899692	1.068417
H140	H	0.057506	-0.399692	1.568417
N141	N	-0.926315	-0.949782	0.450696
N142	N	-0.426315	-0.449782	0.950696
H143	H	-0.882784	-0.928401	0.474373
H144	H	-0.382784	-0.428401	0.974373
H145	H	-0.957199	-0.975345	0.484597
H146	H	-0.457199	-0.475345	0.984597
N147	N	-0.455077	-0.888183	0.721988
N148	N	0.044923	-0.388183	1.221988
H149	H	-0.447877	-0.894758	0.772134
H150	H	0.052123	-0.394758	1.272134
H151	H	-0.507976	-0.898682	0.709625
H152	H	-0.007976	-0.398682	1.209625
H153	H	-0.442822	-0.364740	0.404512
H154	H	0.057178	0.135260	0.904512
N155	N	-0.258174	-1.068255	0.930906
N156	N	0.241826	-0.568255	1.430906
H157	H	-0.288281	-1.099606	0.901577
H158	H	0.211719	-0.599606	1.401577
H159	H	-0.228173	-1.095648	0.964076
H160	H	0.271827	-0.595648	1.464076
H161	H	-0.919355	-0.867729	0.346057
H162	H	-0.419355	-0.367729	0.846057
N163	N	-0.925240	-1.067261	0.417675
N164	N	-0.425240	-0.567261	0.917675
H165	H	-0.956291	-1.063632	0.459875
H166	H	-0.456291	-0.563632	0.959875
H167	H	-0.881201	-1.097242	0.426777
H168	H	-0.381201	-0.597242	0.926777
N169	N	-0.926587	-1.014559	0.203415
N170	N	-0.426587	-0.514559	0.703415
H171	H	-0.883062	-1.005360	0.172883
H172	H	-0.383062	-0.505360	0.672883
H173	H	-0.959571	-0.973449	0.204932
H174	H	-0.459571	-0.473449	0.704932
N175	N	-0.927677	-1.100261	0.289536
N176	N	-0.427677	-0.600261	0.789536
H177	H	-0.960770	-1.098291	0.330532
H178	H	-0.460770	-0.598291	0.830532
H179	H	-0.884601	-1.131305	0.298924
H180	H	-0.384601	-0.631305	0.798924
H181	H	-0.791699	-1.049274	0.413210
H182	H	-0.291699	-0.549274	0.913210
N183	N	-0.786400	-1.100820	0.289868
N184	N	-0.286400	-0.600820	0.789868
H185	H	-0.805147	-1.133387	0.254571
H186	H	-0.305147	-0.633387	0.754571
H187	H	-0.805218	-1.114869	0.335767
H188	H	-0.305218	-0.614869	0.835767
N189	N	-0.786246	-0.948731	0.450614
N190	N	-0.286246	-0.448731	0.950614
H191	H	-0.753592	-0.913549	0.428906
H192	H	-0.253592	-0.413549	0.928906
H193	H	-0.757160	-0.974145	0.485969
H194	H	-0.257160	-0.474145	0.985969
H195	H	-0.920747	-0.888996	0.256738
H196	H	-0.420747	-0.388996	0.756738
N197	N	-0.258132	-1.068276	1.077842
N198	N	0.241868	-0.568276	1.577842
H199	H	-0.205221	-1.057784	1.065548
H200	H	0.294779	-0.557784	1.565548
H201	H	-0.269704	-1.116613	1.065535
H202	H	0.230296	-0.616613	1.565535
N203	N	-0.455365	-0.227165	0.415952
N204	N	0.044635	0.272835	0.915952
H205	H	-0.508261	-0.239448	0.405346
H206	H	-0.008261	0.260552	0.905346
H207	H	-0.448111	-0.177032	0.409384
H208	H	0.051889	0.322968	0.909384
N209	N	-0.258233	-1.068239	0.722073
N210	N	0.241767	-0.568239	1.222073
H211	H	-0.265403	-1.061675	0.772214
H212	H	0.234597	-0.561675	1.272214
H213	H	-0.205343	-1.057730	0.709728
H214	H	0.294657	-0.557730	1.209728
H215	H	-0.793179	-0.892360	0.253764
H216	H	-0.293179	-0.392360	0.753764
H217	H	-0.270742	-0.236477	0.247747
H218	H	0.229258	0.263523	0.747747
H219	H	-0.270735	-0.364711	0.247733
H220	H	0.229265	0.135289	0.747733
N221	N	-0.258202	-0.582899	0.236287
N222	N	0.241798	-0.082899	0.736287
H223	H	-0.265408	-0.532756	0.242839
H224	H	0.234592	-0.032756	0.742839
H225	H	-0.269676	-0.595242	0.187933
H226	H	0.230324	-0.095242	0.687933
N227	N	-0.785100	-0.852693	0.353143
N228	N	-0.285100	-0.352693	0.853143
H229	H	-0.751462	-0.873615	0.388067
H230	H	-0.251462	-0.373615	0.888067
H231	H	-0.828182	-0.830169	0.376422
H232	H	-0.328182	-0.330169	0.876422
H233	H	-0.270709	-0.720480	0.247711
H234	H	0.229291	-0.220480	0.747711
N235	N	-0.258270	-1.068218	0.575148
N236	N	0.241730	-0.568218	1.075148
H237	H	-0.228261	-1.095655	0.608279
H238	H	0.271739	-0.595655	1.108279
H239	H	-0.224002	-1.040677	0.545822
H240	H	0.275998	-0.540677	1.045822
N241	N	-0.455014	-0.888200	0.930830
N242	N	0.044986	-0.388200	1.430830
H243	H	-0.484998	-0.860767	0.963937
H244	H	0.015002	-0.360767	1.463937
H245	H	-0.489305	-0.915708	0.901484
H246	H	0.010695	-0.415708	1.401484
