data_functionalizedCrystal
_audit_creation_method	'MofGen! by Chris Wilmer'
_symmetry_space_group_name_H-M	'P1'
_symmetry_Int_Tables_number	1
_symmetry_cell_setting	triclinic
loop_
_symmetry_equiv_pos_as_xyz
  x,y,z
_cell_length_a	12.759395
_cell_length_b	18.050590
_cell_length_c	12.759387
_cell_angle_alpha	90.034864
_cell_angle_beta	90.017228
_cell_angle_gamma	90.020089
loop_
_atom_site_label
_atom_site_type_symbol
_atom_site_fract_x
_atom_site_fract_y
_atom_site_fract_z
Zn1	Zn	1.606207	-0.295592	0.593974
Zn2	Zn	1.606095	-0.419800	0.418281
Zn3	Zn	1.430515	-0.295632	0.418310
Zn4	Zn	1.430485	-0.419748	0.593920
O5	O	1.518326	-0.357693	0.506121
O6	O	1.753213	-0.312073	0.570678
O7	O	1.582770	-0.403367	0.271263
O8	O	1.453880	-0.191702	0.441647
O9	O	1.753131	-0.403329	0.441597
O10	O	1.582960	-0.191672	0.570706
O11	O	1.453772	-0.312141	0.271285
O12	O	1.283490	-0.312091	0.441595
O13	O	1.453829	-0.403240	0.740948
O14	O	1.283468	-0.403278	0.570615
O15	O	1.582931	-0.312023	0.740988
O16	O	1.582741	-0.523718	0.441545
O17	O	1.453721	-0.523679	0.570586
C18	C	1.245358	-0.357684	0.506103
C19	C	1.128581	-0.357698	0.506120
C20	C	1.128597	-0.452805	0.640251
C21	C	1.073745	-0.500364	0.707319
C22	C	0.964023	-0.500373	0.707332
C23	C	0.909152	-0.452816	0.640272
C24	C	0.964004	-0.405257	0.573203
C25	C	1.073729	-0.405255	0.573195
C26	C	0.963988	-0.310147	0.439080
C27	C	1.073710	-0.310141	0.439060
C28	C	0.909117	-0.262590	0.372019
C29	C	0.963970	-0.215033	0.304944
C30	C	1.073698	-0.215027	0.304933
C31	C	1.128563	-0.262581	0.371991
C32	C	1.518245	-0.550645	0.506079
C33	C	1.518306	-0.633191	0.506096
C34	C	1.588613	-0.832635	0.436022
C35	C	1.614277	-0.881960	0.531909
C36	C	1.518366	-0.784321	0.506138
C37	C	1.492809	-0.882078	0.410295
C38	C	1.518426	-0.930306	0.506170
C39	C	1.544079	-0.832558	0.602076
C40	C	1.422566	-0.832672	0.480397
C41	C	1.448194	-0.881975	0.576350
C42	C	1.518334	-0.700223	0.506119
C43	C	1.518457	-1.014403	0.506201
C44	C	1.792359	-0.357702	0.506140
C45	C	1.909136	-0.357706	0.506148
C46	C	1.518389	-0.357621	0.780155
C47	C	1.518416	-0.357590	0.896932
C48	C	1.518435	-0.163987	0.506186
C49	C	1.518482	-0.081441	0.506214
C50	C	1.518323	-0.357711	0.233154
C51	C	1.518499	-0.357532	0.116377
C52	C	1.652816	-0.452532	1.116334
C53	C	1.719959	-0.500044	1.061451
C54	C	1.719924	-0.500072	0.951730
C55	C	1.652737	-0.452585	0.896888
C56	C	1.585594	-0.405074	0.951771
C57	C	1.585638	-0.405049	1.061495
C58	C	1.451273	-0.310078	0.951814
C59	C	1.451312	-0.310045	1.061536
C60	C	1.384086	-0.262591	0.896972
C61	C	1.316947	-0.215075	0.951855
C62	C	1.316985	-0.215048	1.061583
C63	C	1.384169	-0.262533	1.116418
H64	H	0.919362	-0.539097	0.761950
C65	C	0.903612	-0.162725	0.231185
C66	C	0.782922	-0.162729	0.231205
C67	C	0.722561	-0.110421	0.157443
C68	C	0.782889	-0.058109	0.083662
C69	C	0.903586	-0.058103	0.083640
C70	C	0.963947	-0.110411	0.157401
H71	H	0.738258	-0.201455	0.285825
H72	H	0.633213	-0.110425	0.157460
H73	H	0.738205	-0.019387	0.029060
H74	H	0.948250	-0.019377	0.029020
H75	H	1.053295	-0.110407	0.157384
C76	C	1.134103	-0.552675	0.781084
C77	C	1.254793	-0.552672	0.781076
C78	C	1.315147	-0.604981	0.854843
C79	C	1.254811	-0.657292	0.928619
C80	C	1.134115	-0.657297	0.928629
C81	C	1.073761	-0.604989	0.854862
H82	H	1.299464	-0.513946	0.726460
H83	H	1.404495	-0.604977	0.854835
H84	H	1.299489	-0.696014	0.983226
H85	H	1.089444	-0.696023	0.983245
H86	H	0.984413	-0.604993	0.854870
H87	H	1.774658	-0.538709	1.106116
H88	H	1.262244	-0.176418	0.907194
H89	H	1.384059	-0.262621	0.807631
H90	H	0.819776	-0.262598	0.372039
C91	C	1.243124	-0.162783	1.121951
C92	C	1.169227	-0.110555	1.061623
C93	C	1.095364	-0.058290	1.121985
C94	C	1.095399	-0.058253	1.242675
C95	C	1.169298	-0.110484	1.303010
C96	C	1.243161	-0.162749	1.242647
H97	H	1.169199	-0.110580	0.972275
H98	H	1.040659	-0.019625	1.077321
H99	H	1.040721	-0.019563	1.287359
H100	H	1.169326	-0.110458	1.392358
H101	H	1.297867	-0.201413	1.287312
C102	C	1.668886	-0.803359	0.356000
C103	C	1.785775	-0.822814	0.367991
C104	C	1.866049	-0.793537	0.287976
C105	C	1.829434	-0.744804	0.195970
C106	C	1.712540	-0.725347	0.183975
C107	C	1.632266	-0.754624	0.263990
H108	H	1.812884	-0.858891	0.436103
H109	H	1.952582	-0.807941	0.296856
H110	H	1.888858	-0.723131	0.136738
H111	H	1.685430	-0.689270	0.115863
H112	H	1.545733	-0.740220	0.255110
H113	H	1.774604	-0.538757	0.907045
H114	H	1.217938	-0.452808	0.640239
H115	H	0.819810	-0.452821	0.640297
C116	C	1.723756	-0.911212	0.561352
C117	C	1.784241	-0.961130	0.484400
C118	C	1.893723	-0.990377	0.513836
C119	C	1.942719	-0.969707	0.620223
C120	C	1.882234	-0.919787	0.697182
C121	C	1.772752	-0.890540	0.667747
H122	H	1.747972	-0.976433	0.405640
H123	H	1.938498	-1.027331	0.456865
H124	H	2.023764	-0.991358	0.642013
H125	H	1.918503	-0.904484	0.775943
H126	H	1.727977	-0.853586	0.724717
H127	H	1.118353	-0.176293	0.250325
H128	H	1.217904	-0.262583	0.371986
H129	H	1.565639	-0.810899	0.683213
H130	H	1.388813	-0.903502	0.635728
C131	C	1.313117	-0.803393	0.450922
C132	C	1.264976	-0.822924	0.343717
C133	C	1.155527	-0.793644	0.314229
C134	C	1.094218	-0.744833	0.391944
C135	C	1.142358	-0.725299	0.499156
C136	C	1.251808	-0.754580	0.528644
H137	H	1.310361	-0.859060	0.286181
H138	H	1.119890	-0.808104	0.234863
H139	H	1.013196	-0.723158	0.370115
H140	H	1.096973	-0.689164	0.556691
H141	H	1.287444	-0.740119	0.608010
C142	C	1.463562	-0.911459	0.300781
C143	C	1.532282	-0.891993	0.205495
C144	C	1.503044	-0.921370	0.095979
C145	C	1.405086	-0.970213	0.081749
C146	C	1.336359	-0.989681	0.177038
C147	C	1.365597	-0.960304	0.286554
H148	H	1.604803	-0.855834	0.216026
H149	H	1.553921	-0.906958	0.025440
H150	H	1.383442	-0.991959	0.000679
H151	H	1.263838	-1.025840	0.166507
H152	H	1.314720	-0.974716	0.357093
H153	H	1.652861	-0.452507	1.205675
H154	H	1.652706	-0.452619	0.807547
H155	H	1.384211	-0.262513	1.205760
