data_functionalizedCrystal
_audit_creation_method	'MofGen! by Chris Wilmer'
_symmetry_space_group_name_H-M	'P1'
_symmetry_Int_Tables_number	1
_symmetry_cell_setting	triclinic
loop_
_symmetry_equiv_pos_as_xyz
  x,y,z
_cell_length_a	19.805407
_cell_length_b	19.120785
_cell_length_c	19.805399
_cell_angle_alpha	87.529508
_cell_angle_beta	89.982197
_cell_angle_gamma	92.461008
loop_
_atom_site_label
_atom_site_type_symbol
_atom_site_fract_x
_atom_site_fract_y
_atom_site_fract_z
Zn1	Zn	1.023249	-0.279696	-0.371174
Zn2	Zn	1.018340	-0.397155	-0.253151
Zn3	Zn	0.910063	-0.279710	-0.258002
Zn4	Zn	0.905205	-0.397112	-0.366303
O5	O	0.964214	-0.338418	-0.312158
O6	O	1.117314	-0.295289	-0.355527
O7	O	1.003955	-0.381599	-0.159077
O8	O	0.929165	-0.181418	-0.277083
O9	O	1.113707	-0.381586	-0.268816
O10	O	1.012322	-0.181408	-0.360230
O11	O	0.924405	-0.295313	-0.162641
O12	O	0.814702	-0.295271	-0.272360
O13	O	0.920885	-0.381513	-0.461667
O14	O	0.811133	-0.381526	-0.351928
O15	O	1.007611	-0.295248	-0.465246
O16	O	0.999245	-0.495439	-0.264092
O17	O	0.916125	-0.495408	-0.347224
C18	C	0.788359	-0.338396	-0.312142
C19	C	0.713127	-0.338404	-0.312151
C20	C	0.679658	-0.293549	-0.357364
C21	C	0.608969	-0.293552	-0.357366
C22	C	0.571751	-0.338415	-0.312158
C23	C	0.605224	-0.383272	-0.266940
C24	C	0.675912	-0.383264	-0.266935
C25	C	0.320150	-0.383304	-0.266960
C26	C	0.249457	-0.383310	-0.266970
C27	C	0.253207	-0.293592	-0.357391
C28	C	0.323895	-0.293584	-0.357386
C29	C	0.357362	-0.338438	-0.312166
C30	C	0.434011	-0.338433	-0.312163
C31	C	0.495103	-0.338425	-0.312164
C32	C	0.956643	-0.520909	-0.304618
C33	C	0.953466	-0.598979	-0.301415
C34	C	0.933311	-1.040533	-0.281150
C35	C	0.936297	-0.967177	-0.284160
C36	C	0.981056	-0.930435	-0.328989
C37	C	1.022827	-0.967052	-0.370816
C38	C	1.019837	-1.040406	-0.367810
C39	C	0.992247	-0.708950	-0.340236
C40	C	0.995235	-0.635591	-0.343238
C41	C	0.908704	-0.635721	-0.256582
C42	C	0.905721	-0.709077	-0.253577
C43	C	0.947489	-0.745687	-0.295407
C44	C	0.984112	-0.855454	-0.332064
C45	C	0.944430	-0.820667	-0.292334
C46	C	1.140756	-0.338441	-0.312174
C47	C	1.215987	-0.338450	-0.312180
C48	C	0.964254	-0.338374	-0.488702
C49	C	0.964271	-0.338355	-0.563935
C50	C	0.971833	-0.155215	-0.319741
C51	C	0.975080	-0.077144	-0.322973
C52	C	1.009430	-0.293435	-0.601144
C53	C	1.009438	-0.293414	-0.671833
C54	C	0.964289	-0.338318	-0.705312
C55	C	0.919125	-0.383241	-0.668098
C56	C	0.919114	-0.383257	-0.597410
C57	C	0.919166	-0.383175	-0.953174
C58	C	0.919181	-0.383157	-1.023867
C59	C	1.009490	-0.293333	-1.027597
C60	C	1.009479	-0.293349	-0.956909
C61	C	0.964313	-0.338268	-0.919702
C62	C	0.964304	-0.338289	-0.843052
C63	C	0.964301	-0.338302	-0.781960
C64	C	0.964215	-0.338412	-0.136302
C65	C	0.964338	-0.338233	-0.061078
H66	H	0.225950	-0.257067	-0.394209
H67	H	0.709956	-0.257018	-0.394179
H68	H	0.896865	-1.070443	-0.244643
O69	O	1.053295	-0.249712	-1.063846
C70	C	1.093366	-0.209898	-1.174395
C71	C	1.043711	-0.259318	-1.133430
H72	H	1.085644	-0.217657	-1.230661
H73	H	1.083834	-0.153248	-1.162888
H74	H	1.147421	-0.222237	-1.159955
H75	H	0.989638	-0.247041	-1.147847
H76	H	1.053301	-0.315953	-1.144942
H77	H	1.031686	-0.605679	-0.379745
O78	O	0.895702	-0.931722	-0.243459
C79	C	0.809544	-0.939592	-0.157207
C80	C	0.855491	-0.979832	-0.203255
H81	H	0.777012	-0.978472	-0.124701
H82	H	0.842011	-0.905271	-0.123207
H83	H	0.775560	-0.905235	-0.189664
H84	H	0.889483	-1.014228	-0.170851
H85	H	0.822984	-1.014109	-0.237258
O86	O	0.862194	-0.744838	-0.210128
C87	C	0.767398	-0.827686	-0.197566
C88	C	0.816661	-0.787246	-0.246845
H89	H	0.730563	-0.861971	-0.227234
H90	H	0.797042	-0.862081	-0.160796
H91	H	0.738089	-0.788898	-0.168183
H92	H	0.845982	-0.825984	-0.276275
H93	H	0.786978	-0.752840	-0.283571
H94	H	1.026265	-0.738749	-0.374290
H95	H	0.219156	-0.419844	-0.230154
H96	H	0.354195	-0.257054	-0.394201
O97	O	1.060475	-1.075864	-0.408467
C98	C	1.146573	-1.067998	-0.494778
C99	C	1.100606	-1.027756	-0.448753
H100	H	1.179021	-1.029120	-0.527371
H101	H	1.180631	-1.102322	-0.462369
H102	H	1.114057	-1.102352	-0.528703
H103	H	1.133069	-0.993363	-0.414820
H104	H	1.066545	-0.993476	-0.481202
H105	H	0.581722	-0.257028	-0.394185
H106	H	0.347390	-0.419827	-0.230140
H107	H	0.574915	-0.419797	-0.230128
O108	O	0.875253	-0.426799	-1.056284
C109	C	0.785694	-0.515920	-1.045128
C110	C	0.835391	-0.466523	-1.008331
H111	H	0.753463	-0.548061	-1.006374
H112	H	0.751609	-0.483689	-1.079535
H113	H	0.815258	-0.552615	-1.076725
H114	H	0.805882	-0.429819	-0.976698
H115	H	0.869477	-0.498798	-0.973966
O116	O	0.875384	-0.426848	-0.916968
C117	C	0.862301	-0.521735	-0.833275
C118	C	0.911962	-0.472306	-0.874223
H119	H	0.891855	-0.558510	-0.798716
H120	H	0.828248	-0.489533	-0.801467
H121	H	0.830028	-0.553789	-0.869371
H122	H	0.944280	-0.440242	-0.838176
H123	H	0.945969	-0.504549	-0.906039
H124	H	0.882361	-0.419800	-0.695363
H125	H	0.907984	-0.850586	-0.255838
H126	H	0.874698	-0.605907	-0.222527
O127	O	0.875230	-0.426968	-0.561365
C128	C	0.785642	-0.516050	-0.565121
C129	C	0.835315	-0.466592	-0.606024
H130	H	0.753348	-0.548088	-0.601211
H131	H	0.815159	-0.552832	-0.530532
H132	H	0.751613	-0.483803	-0.533334
H133	H	0.869356	-0.498783	-0.637850
H134	H	0.805756	-0.429808	-0.640570
O135	O	1.053302	-0.249785	-0.924282
C136	C	1.093257	-0.209944	-0.817039
C137	C	1.043610	-0.259337	-0.853902
H138	H	1.085428	-0.217639	-0.760132
H139	H	1.147344	-0.222267	-0.830377
H140	H	1.083720	-0.153316	-0.833329
H141	H	1.053084	-0.315982	-0.837633
H142	H	0.989539	-0.246954	-0.840563
H143	H	0.703161	-0.419790	-0.230118
O144	O	1.066289	-0.931254	-0.414304
C145	C	1.109221	-0.818193	-0.457366
C146	C	1.059978	-0.858644	-0.408075
H147	H	1.104125	-0.759481	-0.452357
H148	H	1.163235	-0.832532	-0.444938
H149	H	1.096724	-0.832628	-0.511335
H150	H	1.072413	-0.844231	-0.354090
H151	H	1.005978	-0.844302	-0.420562
O152	O	1.053262	-0.249877	-0.568518
C153	C	1.093238	-0.210051	-0.461278
C154	C	1.043577	-0.259432	-0.498137
H155	H	1.085415	-0.217748	-0.404370
H156	H	1.147321	-0.222385	-0.474623
H157	H	1.083712	-0.153420	-0.477563
H158	H	1.053042	-0.316080	-0.481872
H159	H	0.989511	-0.247037	-0.484791
O160	O	1.027502	-0.819681	-0.375642
C161	C	1.039926	-0.736813	-0.470447
C162	C	0.990717	-0.777273	-0.421129
H163	H	1.010204	-0.702527	-0.507244
H164	H	1.076719	-0.702415	-0.440843
H165	H	1.069289	-0.775587	-0.499794
H166	H	0.961308	-0.738550	-0.391770
H167	H	0.953968	-0.811681	-0.450771
H168	H	1.046213	-0.256837	-0.702126
