data_functionalizedCrystal
_audit_creation_method	'MofGen! by Chris Wilmer'
_symmetry_space_group_name_H-M	'P1'
_symmetry_Int_Tables_number	1
_symmetry_cell_setting	triclinic
loop_
_symmetry_equiv_pos_as_xyz
  x,y,z
_cell_length_a	17.640280
_cell_length_b	13.033304
_cell_length_c	13.032268
_cell_angle_alpha	90.922231
_cell_angle_beta	87.294217
_cell_angle_gamma	95.479665
loop_
_atom_site_label
_atom_site_type_symbol
_atom_site_fract_x
_atom_site_fract_y
_atom_site_fract_z
Zn1	Zn	-0.234117	-1.567886	-0.727854
Zn2	Zn	0.265883	-1.067886	-0.227854
Zn3	Zn	-0.342244	-1.621695	-0.531093
Zn4	Zn	0.157756	-1.121695	-0.031093
Zn5	Zn	-0.230140	-1.416567	-0.534937
Zn6	Zn	0.269860	-0.916567	-0.034937
Zn7	Zn	-0.373607	-1.437247	-0.673938
Zn8	Zn	0.126393	-0.937247	-0.173938
O9	O	-0.295027	-1.510849	-0.616955
O10	O	0.204973	-1.010849	-0.116955
O11	O	-0.236999	-1.715543	-0.722708
O12	O	0.263001	-1.215543	-0.222708
O13	O	-0.312584	-1.608349	-0.391086
O14	O	0.187416	-1.108349	0.108914
O15	O	-0.125375	-1.405467	-0.584700
O16	O	0.374625	-0.905467	-0.084700
O17	O	-0.316440	-1.755076	-0.578149
O18	O	0.183560	-1.255076	-0.078149
O19	O	-0.128296	-1.516639	-0.726435
O20	O	0.371704	-1.016639	-0.226435
O21	O	-0.230222	-1.457643	-0.393909
O22	O	0.269778	-0.957643	0.106091
O23	O	-0.260633	-1.278791	-0.532420
O24	O	0.239367	-0.778791	-0.032420
O25	O	-0.369893	-1.440712	-0.821608
O26	O	0.130107	-0.940712	-0.321608
O27	O	-0.366037	-1.293984	-0.634544
O28	O	0.133963	-0.793984	-0.134544
O29	O	-0.267410	-1.536691	-0.861219
O30	O	0.232590	-1.036691	-0.361219
O31	O	-0.451698	-1.628401	-0.525870
O32	O	0.048302	-1.128401	-0.025870
O33	O	-0.474740	-1.492888	-0.630817
O34	O	0.025260	-0.992888	-0.130817
C35	C	-0.316307	-1.249953	-0.578049
C36	C	0.183693	-0.749953	-0.078049
C37	C	-0.325432	-1.138344	-0.561424
C38	C	0.174568	-0.638344	-0.061424
C39	C	-0.290275	-1.069036	-0.625616
C40	C	0.209725	-0.569036	-0.125616
C41	C	-0.299705	-0.953681	-0.608435
C42	C	0.200295	-0.453681	-0.108435
C43	C	-0.490520	-1.568752	-0.572102
C44	C	0.009480	-1.068752	-0.072102
C45	C	-0.574149	-1.593612	-0.552961
C46	C	-0.074149	-1.093612	-0.052961
C47	C	-0.909298	-1.322366	-0.762796
C48	C	-0.409298	-0.822366	-0.262796
C49	C	-0.987876	-1.345731	-0.744778
C50	C	-0.487876	-0.845731	-0.244778
C51	C	-0.963825	-1.486907	-0.635638
C52	C	-0.463825	-0.986907	-0.135638
C53	C	-0.885242	-1.463557	-0.653651
C54	C	-0.385242	-0.963557	-0.153651
C55	C	-0.857986	-1.381285	-0.717230
C56	C	-0.357986	-0.881285	-0.217230
C57	C	-0.833930	-1.522476	-0.608084
C58	C	-0.333930	-1.022476	-0.108084
C59	C	-0.755355	-1.499124	-0.626092
C60	C	-0.255355	-0.999124	-0.126092
C61	C	-0.728092	-1.416854	-0.689665
C62	C	-0.228092	-0.916854	-0.189665
C63	C	-0.779410	-1.357933	-0.735237
C64	C	-0.279410	-0.857933	-0.235237
C65	C	-0.861189	-1.604744	-0.544500
C66	C	-0.361189	-1.104744	-0.044500
C67	C	-0.809876	-1.663663	-0.498934
C68	C	-0.309876	-1.163663	0.001066
C69	C	-0.731300	-1.640316	-0.516946
C70	C	-0.231300	-1.140316	-0.016946
C71	C	-0.704037	-1.558045	-0.580520
C72	C	-0.204037	-1.058045	-0.080520
C73	C	-0.679981	-1.699237	-0.471375
C74	C	-0.179981	-1.199237	0.028625
C75	C	-0.601406	-1.675885	-0.489382
C76	C	-0.101406	-1.175885	0.010618
C77	C	-0.625461	-1.534694	-0.598527
C78	C	-0.125461	-1.034694	-0.098527
C79	C	-0.098771	-1.452744	-0.662010
C80	C	0.401229	-0.952744	-0.162010
C81	C	-0.015138	-1.427983	-0.681210
C82	C	0.484862	-0.927983	-0.181210
C83	C	-0.322593	-1.485006	-0.878867
C84	C	0.177407	-0.985006	-0.378867
C85	C	-0.334340	-1.473993	-0.990478
C86	C	0.165660	-0.973993	-0.490478
C87	C	-0.273660	-0.772763	-0.656008
C88	C	0.226340	-0.272763	-0.156008
C89	C	-0.264543	-0.884374	-0.672635
C90	C	0.235457	-0.384374	-0.172635
C91	C	-0.288871	-1.516573	-1.059837
C92	C	0.211129	-1.016573	-0.559837
C93	C	-0.301010	-1.505192	-1.175193
C94	C	0.198990	-1.005192	-0.675193
C95	C	-0.267509	-1.536632	-0.356084
C96	C	0.232491	-1.036632	0.143916
C97	C	-0.255535	-1.547777	-0.244551
C98	C	0.244465	-1.047777	0.255449
H99	H	-0.603269	-1.467705	-0.650308
H100	H	-0.103269	-0.967705	-0.150308
H101	H	-0.362510	-1.112280	-0.493747
H102	H	0.137490	-0.612280	0.006253
C103	C	-0.190798	-1.608409	-1.209423
C104	C	0.309202	-1.108409	-0.709423
H105	H	-0.163843	-1.633640	-1.267898
H106	H	0.336157	-1.133640	-0.767898
H107	H	-0.211735	-1.664690	-1.168411
H108	H	0.288265	-1.164690	-0.668411
H109	H	-0.156868	-1.564290	-1.170298
H110	H	0.343132	-1.064290	-0.670298
H111	H	-0.832080	-1.730646	-0.447164
H112	H	-0.332080	-1.230646	0.052836
H113	H	-1.029654	-1.297756	-0.781903
H114	H	-0.529654	-0.797756	-0.281903
H115	H	-0.986028	-1.553891	-0.583869
H116	H	-0.486028	-1.053891	-0.083869
C117	C	-0.399074	-1.413370	-1.025619
C118	C	0.100926	-0.913370	-0.525619
H119	H	-0.398745	-1.413682	-1.098542
H120	H	0.101255	-0.913682	-0.598542
H121	H	-0.391780	-1.344319	-1.000943
H122	H	0.108220	-0.844319	-0.500943
H123	H	-0.446641	-1.444725	-0.999062
H124	H	0.053359	-0.944725	-0.499062
H125	H	-0.348925	-1.460301	-1.201209
H126	H	0.151075	-0.960301	-0.701209
C127	C	-0.240183	-1.104235	-0.717043
C128	C	0.259817	-0.604235	-0.217043
H129	H	-0.240421	-1.177149	-0.716600
H130	H	0.259579	-0.677149	-0.216600
H131	H	-0.189467	-1.073540	-0.711529
H132	H	0.310533	-0.573540	-0.211529
H133	H	-0.259768	-1.083741	-0.779412
H134	H	0.240232	-0.583741	-0.279412
H135	H	-0.336786	-0.927623	-0.540753
H136	H	0.163214	-0.427623	-0.040753
C137	C	-0.709971	-1.789728	-0.401440
C138	C	-0.209971	-1.289728	0.098560
H139	H	-0.764116	-1.795198	-0.397245
H140	H	-0.264116	-1.295198	0.102755
H141	H	-0.691201	-1.777928	-0.334725
H142	H	-0.191201	-1.277928	0.165275
H143	H	-0.693104	-1.851893	-0.429221
H144	H	-0.193104	-1.351893	0.070779
H145	H	-0.227455	-0.910430	-0.740312
H146	H	0.272545	-0.410430	-0.240312
C147	C	-0.641662	-1.391160	-0.709478
C148	C	-0.141662	-0.891160	-0.209478
H149	H	-0.632779	-1.333720	-0.753863
H150	H	-0.132779	-0.833720	-0.253863
H151	H	-0.620389	-1.448929	-0.740641
H152	H	-0.120389	-0.948929	-0.240641
H153	H	-0.618497	-1.374960	-0.646148
H154	H	-0.118497	-0.874960	-0.146148
H155	H	-0.757218	-1.290945	-0.787018
H156	H	-0.257218	-0.790945	-0.287018
C157	C	-0.879310	-1.231879	-0.832747
C158	C	-0.379310	-0.731879	-0.332747
H159	H	-0.921123	-1.200131	-0.857310
H160	H	-0.421123	-0.700131	-0.357310
H161	H	-0.850106	-1.256830	-0.889278
H162	H	-0.350106	-0.756830	-0.389278
H163	H	-0.848210	-1.182844	-0.794797
H164	H	-0.348210	-0.682844	-0.294797
C165	C	-0.947619	-1.630433	-0.524686
C166	C	-0.447619	-1.130433	-0.024686
H167	H	-0.956503	-1.687860	-0.480284
H168	H	-0.456503	-1.187860	0.019716
H169	H	-0.970787	-1.646631	-0.588009
H170	H	-0.470787	-1.146631	-0.088009
H171	H	-0.968886	-1.572656	-0.493520
H172	H	-0.468886	-1.072656	0.006480
C173	C	-0.544960	-1.740696	-0.439265
C174	C	-0.044960	-1.240696	0.060735
H175	H	-0.572447	-1.793045	-0.398830
H176	H	-0.072447	-1.293045	0.101170
H177	H	-0.512859	-1.697541	-0.396777
H178	H	-0.012859	-1.197541	0.103223
H179	H	-0.514758	-1.771504	-0.491275
H180	H	-0.014758	-1.271504	0.008725
H181	H	-0.240953	-1.561447	-1.033815
H182	H	0.259047	-1.061447	-0.533815
