data_functionalizedCrystal
_audit_creation_method	'MofGen! by Chris Wilmer'
_symmetry_space_group_name_H-M	'P1'
_symmetry_Int_Tables_number	1
_symmetry_cell_setting	triclinic
loop_
_symmetry_equiv_pos_as_xyz
  x,y,z
_cell_length_a	11.026607
_cell_length_b	10.654551
_cell_length_c	9.482900
_cell_angle_alpha	99.428019
_cell_angle_beta	78.636152
_cell_angle_gamma	96.535689
loop_
_atom_site_label
_atom_site_type_symbol
_atom_site_fract_x
_atom_site_fract_y
_atom_site_fract_z
O1	O	1.633381	0.511465	-0.120876
O2	O	1.279570	0.451469	-0.120880
O3	O	1.464609	0.300494	-0.120878
O4	O	1.448341	0.662441	-0.120877
O5	O	1.427025	0.331318	0.120914
O6	O	1.241986	0.482293	0.120912
O7	O	1.595796	0.542289	0.120916
Cu8	Cu	1.415459	0.515106	0.142992
Cu9	Cu	1.459907	0.478653	-0.142955
O10	O	1.410757	0.693265	0.120915
C11	C	1.215474	0.455813	0.000015
C12	C	1.080482	0.422818	0.000013
C13	C	1.007444	0.513921	0.000013
C14	C	0.867923	0.479822	0.000011
C15	C	1.444623	0.268848	0.000014
C16	C	1.441050	0.128628	0.000004
C17	C	1.459860	0.045950	-0.131794
C18	C	1.456490	-0.085801	-0.131787
C19	C	1.415503	-0.052183	0.131828
C20	C	1.418865	0.079565	0.131820
C21	C	1.482045	0.095013	-0.263609
C22	C	1.500858	0.012333	-0.395418
C23	C	1.497488	-0.119417	-0.395412
C24	C	1.475305	-0.168489	-0.263596
C25	C	1.659893	0.537945	0.000018
C26	C	1.794886	0.570939	0.000010
C27	C	1.430744	0.724910	0.000019
C28	C	1.434318	0.865129	0.000019
N29	N	1.384206	0.540746	0.344112
N30	N	1.491170	0.453005	-0.344075
C31	C	1.450680	0.486207	0.416312
C32	C	1.424686	0.507552	0.583729
H33	H	1.039727	0.319572	-0.000024
H34	H	1.512794	-0.186733	-0.502737
F35	F	1.524462	0.064561	-0.535697
F36	F	1.284657	0.622426	0.425314
F37	F	1.325132	0.589236	0.664925
F38	F	1.550005	0.404249	0.335110
F39	F	0.814657	0.344869	0.000020
F40	F	1.391897	-0.104414	0.272105
F41	F	1.471707	-0.308714	-0.263596
F42	F	1.398851	0.167562	0.272094
F43	F	1.485639	0.235232	-0.263627
F44	F	1.590923	0.371568	0.574732
F45	F	0.848145	0.705896	0.000028
F46	F	1.060713	0.648869	0.000018
