data_functionalizedCrystal
_audit_creation_method	'MofGen! by Chris Wilmer'
_symmetry_space_group_name_H-M	'P1'
_symmetry_Int_Tables_number	1
_symmetry_cell_setting	triclinic
loop_
_symmetry_equiv_pos_as_xyz
  x,y,z
_cell_length_a	14.519709
_cell_length_b	15.186229
_cell_length_c	16.109304
_cell_angle_alpha	90.003016
_cell_angle_beta	83.571391
_cell_angle_gamma	89.994892
loop_
_atom_site_label
_atom_site_type_symbol
_atom_site_fract_x
_atom_site_fract_y
_atom_site_fract_z
O1	O	1.223631	0.073108	0.108987
O2	O	0.955127	0.073135	0.121822
O3	O	1.096754	0.073121	-0.005614
O4	O	1.082004	0.073122	0.236422
O5	O	1.096753	-0.073336	-0.005621
O6	O	0.955126	-0.073323	0.121814
O7	O	1.223630	-0.073349	0.108979
Zn8	Zn	1.089378	-0.096589	0.115395
Zn9	Zn	1.089379	0.096375	0.115406
O10	O	1.082003	-0.073336	0.236415
C11	C	0.920768	-0.000091	0.121220
C12	C	0.818390	-0.000080	0.119427
N13	N	1.089383	-0.228282	0.115388
N14	N	1.089381	0.228067	0.115406
C15	C	0.443509	-0.000121	0.112829
C16	C	0.547813	-0.000109	0.114661
C17	C	0.630946	-0.000100	0.116128
C18	C	0.735257	-0.000090	0.117961
C19	C	1.257989	-0.000122	0.109581
C20	C	1.360366	-0.000126	0.111374
C21	C	1.096155	-0.000105	-0.036593
C22	C	1.094363	-0.000099	-0.128892
C23	C	1.152214	0.453784	0.059087
C24	C	1.152217	0.545974	0.059085
C25	C	1.026547	0.545995	0.171713
C26	C	1.026550	0.453807	0.171719
C27	C	1.089382	0.407704	0.115401
C28	C	1.089382	0.592082	0.115393
C29	C	1.089385	0.692038	0.115391
C30	C	1.089381	0.307741	0.115404
C31	C	1.090222	0.079732	-0.341232
C32	C	1.088529	0.079731	-0.427955
C33	C	1.088532	-0.079945	-0.427960
C34	C	1.090219	-0.079943	-0.341238
C35	C	1.091068	-0.000102	-0.297877
C36	C	1.087689	-0.000104	-0.471322
C37	C	1.085854	-0.000106	-0.565351
C38	C	1.092902	-0.000101	-0.203842
C39	C	1.082602	-0.000107	0.267394
C40	C	1.084394	-0.000107	0.359693
H41	H	1.203377	0.416249	0.013232
C42	C	1.221328	0.596659	-0.002863
H43	H	1.258741	0.555995	-0.036405
H44	H	1.259635	0.632622	0.027190
H45	H	1.188240	0.632618	-0.037608
H46	H	0.975389	0.583541	0.217564
C47	C	1.087607	0.167548	-0.475643
H48	H	1.088362	0.215095	-0.437397
H49	H	1.033203	0.170878	-0.503214
H50	H	1.140704	0.170858	-0.515734
C51	C	0.957433	0.403111	0.233665
H52	H	0.966442	0.341605	0.225608
H53	H	0.895921	0.418217	0.224406
H54	H	0.967315	0.418225	0.289205
H55	H	1.090911	0.144743	-0.305929
H56	H	1.090902	-0.144957	-0.305937
H57	H	1.087843	-0.144948	-0.463276
