data_functionalizedCrystal
_audit_creation_method	'MofGen! by Chris Wilmer'
_symmetry_space_group_name_H-M	'P1'
_symmetry_Int_Tables_number	1
_symmetry_cell_setting	triclinic
loop_
_symmetry_equiv_pos_as_xyz
  x,y,z
_cell_length_a	13.635800
_cell_length_b	23.752963
_cell_length_c	17.982968
_cell_angle_alpha	83.428473
_cell_angle_beta	102.451960
_cell_angle_gamma	79.933268
loop_
_atom_site_label
_atom_site_type_symbol
_atom_site_fract_x
_atom_site_fract_y
_atom_site_fract_z
V1	V	1.999094	-0.079699	0.237999
O2	O	2.001758	0.003278	0.233008
O3	O	1.966644	-0.157500	0.236813
O4	O	1.972452	-0.078715	0.341596
O5	O	1.995911	-0.076051	0.127500
V6	V	2.242293	-0.069746	0.224728
O7	O	2.126569	-0.101533	0.267108
O8	O	2.339917	-0.047911	0.195619
O9	O	2.163139	0.008055	0.225914
O10	O	2.298327	-0.152723	0.229719
O11	O	2.304175	-0.073393	0.335227
O12	O	2.157332	-0.070729	0.121131
V13	V	2.499094	-0.079699	0.237999
O14	O	2.501758	0.003278	0.233008
O15	O	2.466644	-0.157500	0.236813
O16	O	2.472452	-0.078715	0.341596
O17	O	2.495911	-0.076051	0.127500
V18	V	2.742293	-0.069746	0.224728
O19	O	2.626569	-0.101533	0.267108
O20	O	2.839917	-0.047911	0.195619
O21	O	2.663139	0.008055	0.225914
O22	O	2.798327	-0.152723	0.229719
O23	O	2.804175	-0.073393	0.335227
O24	O	2.657332	-0.070729	0.121131
C25	C	1.887217	-0.176458	0.233173
C26	C	1.901313	-0.240063	0.232894
C27	C	1.971277	-0.626143	0.161267
C28	C	1.984534	-0.685905	0.160994
O29	O	1.976520	-0.709733	0.101480
N30	N	2.008684	-0.724122	0.230677
C31	C	2.019589	-0.702575	0.300638
O32	O	2.041349	-0.740569	0.359884
C33	C	2.006340	-0.642814	0.300910
C34	C	1.982179	-0.604599	0.231222
C35	C	1.947119	-0.587928	0.091584
C36	C	1.933861	-0.528170	0.091857
C37	C	1.944763	-0.506626	0.161812
C38	C	1.968921	-0.544841	0.231494
C39	C	2.017252	-0.621268	0.370869
C40	C	2.004001	-0.561502	0.371135
C41	C	1.979839	-0.523287	0.301447
C42	C	1.966565	-0.463539	0.301721
N43	N	1.942415	-0.425321	0.232038
C44	C	1.931513	-0.446865	0.162083
C45	C	2.047414	-0.828077	0.300062
C46	C	2.060656	-0.887837	0.299791
C47	C	2.025602	-0.871162	0.160147
C48	C	2.012352	-0.811401	0.160419
C49	C	2.023263	-0.789859	0.230379
C50	C	1.903672	-0.321369	0.162661
C51	C	1.890411	-0.261606	0.162940
C52	C	1.925472	-0.278286	0.302583
C53	C	1.938727	-0.338043	0.302305
C54	C	1.927828	-0.359583	0.232338
O55	O	1.974567	-0.439669	0.361206
O56	O	1.909767	-0.408865	0.102848
C57	C	1.894624	-0.075960	0.366833
C58	C	1.913429	-0.075670	0.451527
C59	C	2.074238	0.027010	0.229552
C60	C	2.049761	0.090614	0.229835
C61	C	2.066830	-0.073486	0.095890
C62	C	2.037645	-0.073773	0.011195
C63	C	2.387217	-0.176458	0.233173
C64	C	2.401313	-0.240063	0.232894
C65	C	2.012919	-0.078401	0.495214
C66	C	2.030582	-0.078129	0.574793
C67	C	1.948754	-0.075129	0.610685
C68	C	1.849255	-0.072396	0.566992
C69	C	1.831592	-0.072665	0.487413
C70	C	1.920484	-0.071313	0.887922
C71	C	1.938155	-0.071046	0.967507
C72	C	2.119473	-0.076777	0.975303
C73	C	2.101811	-0.077045	0.895724
C74	C	2.002313	-0.074309	0.852037
C75	C	1.983162	-0.074604	0.765748
C76	C	1.967905	-0.074839	0.696973
C77	C	2.498595	-0.272858	0.236587
C78	C	2.511856	-0.332623	0.236337
C79	C	2.427833	-0.359591	0.232389
C80	C	2.330543	-0.326791	0.228699
C81	C	2.317285	-0.267028	0.228954
C82	C	2.394624	-0.075960	0.366833
C83	C	2.413429	-0.075670	0.451527
C84	C	2.574238	0.027010	0.229552
C85	C	2.549761	0.090614	0.229835
C86	C	2.566830	-0.073486	0.095890
C87	C	2.537645	-0.073773	0.011195
C88	C	2.512925	-0.078396	0.495200
C89	C	2.530606	-0.078116	0.574779
C90	C	2.448790	-0.075115	0.610683
C91	C	2.349286	-0.072388	0.567004
C92	C	2.331605	-0.072663	0.487426
C93	C	2.624973	0.123409	0.226145
C94	C	2.601983	0.183174	0.226399
C95	C	2.503783	0.210142	0.230348
C96	C	2.428565	0.177342	0.234037
C97	C	2.451553	0.117580	0.233777
C98	C	2.437231	-0.076768	-0.024690
C99	C	2.409792	-0.077030	-0.104271
C100	C	2.482771	-0.074303	-0.147965
C101	C	2.583193	-0.071306	-0.112075
C102	C	2.610629	-0.071039	-0.032496
H103	H	1.870734	-0.230493	0.106188
H104	H	2.704938	0.101460	0.222930
H105	H	2.262137	-0.348758	0.225484
H106	H	2.692399	-0.068604	-0.003284
H107	H	1.839475	-0.069105	0.852366
H108	H	2.238064	-0.240330	0.225943
H109	H	2.328019	-0.079470	-0.133481
H110	H	2.460420	-0.074527	-0.212761
H111	H	2.377794	-0.078989	0.010875
H112	H	2.111595	-0.080350	0.610360
H113	H	2.591080	-0.359320	0.239340
H114	H	2.611634	-0.080339	0.610332
H115	H	2.200490	-0.079002	1.010882
H116	H	2.663241	0.209871	0.223396
H117	H	2.016726	-0.888714	0.103186
H118	H	2.080313	-0.918947	0.356537
H119	H	2.579556	-0.080841	0.465978
H120	H	2.250584	-0.070445	0.451874
H121	H	2.056297	-0.810542	0.357035
H122	H	1.782630	-0.069951	0.596220
H123	H	2.390304	0.090881	0.236789
H124	H	2.642605	-0.069084	-0.147663
H125	H	2.463201	-0.074891	0.675481
H126	H	2.348610	0.199309	0.237252
H127	H	1.894796	-0.338899	0.105687
H128	H	2.485078	0.258805	0.230559
H129	H	1.750574	-0.070427	0.451841
H130	H	1.938242	-0.605462	0.034616
H131	H	1.914195	-0.497060	0.035110
H132	H	2.567021	-0.250909	0.239797
H133	H	2.282677	-0.069945	0.596250
H134	H	2.438643	-0.408254	0.232181
H135	H	1.871514	-0.068602	0.996727
H136	H	1.992678	-0.780290	0.103672
H137	H	2.168446	-0.079491	0.866507
H138	H	2.036925	-0.652373	0.427617
H139	H	1.958384	-0.369160	0.359050
H140	H	1.934340	-0.260734	0.359538
H141	H	2.012898	-0.543967	0.428107
H142	H	2.079557	-0.080848	0.465999
