data_functionalizedCrystal
_audit_creation_method	'MofGen! by Chris Wilmer'
_symmetry_space_group_name_H-M	'P1'
_symmetry_Int_Tables_number	1
_symmetry_cell_setting	triclinic
loop_
_symmetry_equiv_pos_as_xyz
  x,y,z
_cell_length_a	15.298068
_cell_length_b	15.299816
_cell_length_c	15.298259
_cell_angle_alpha	91.589838
_cell_angle_beta	91.587309
_cell_angle_gamma	91.634773
loop_
_atom_site_label
_atom_site_type_symbol
_atom_site_fract_x
_atom_site_fract_y
_atom_site_fract_z
Zn1	Zn	1.255657	-0.015644	-0.730523
Zn2	Zn	1.755657	0.484356	-0.230523
Zn3	Zn	1.303453	-0.178023	-0.616083
Zn4	Zn	1.803453	0.321977	-0.116083
Zn5	Zn	1.141169	-0.063566	-0.568130
Zn6	Zn	1.641169	0.436434	-0.068130
Zn7	Zn	1.132839	-0.186220	-0.738736
Zn8	Zn	1.632839	0.313780	-0.238736
O9	O	1.208279	-0.110863	-0.663368
O10	O	1.708279	0.389137	-0.163368
O11	O	1.381313	-0.013697	-0.731974
O12	O	1.881313	0.486303	-0.231974
O13	O	1.305415	-0.179466	-0.490429
O14	O	1.805415	0.320534	0.009571
O15	O	1.139839	0.062078	-0.566166
O16	O	1.639839	0.562078	-0.066166
O17	O	1.416429	-0.132997	-0.647895
O18	O	1.916429	0.367003	-0.147895
O19	O	1.223953	0.097287	-0.685476
O20	O	1.723953	0.597287	-0.185476
O21	O	1.186185	-0.095375	-0.455198
O22	O	1.686185	0.404625	0.044802
O23	O	1.020747	-0.103323	-0.574129
O24	O	1.520747	0.396677	-0.074129
O25	O	1.125642	-0.146968	-0.856939
O26	O	1.625642	0.353032	-0.356939
O27	O	1.014627	-0.193437	-0.699473
O28	O	1.514627	0.306563	-0.199473
O29	O	1.215875	-0.021646	-0.850906
O30	O	1.715875	0.478354	-0.350906
O31	O	1.297338	-0.298398	-0.655859
O32	O	1.797338	0.201602	-0.155859
O33	O	1.171988	-0.304421	-0.745971
O34	O	1.671988	0.195579	-0.245971
C35	C	0.986750	-0.154470	-0.632490
C36	C	1.486750	0.345530	-0.132490
C37	C	0.891977	-0.173143	-0.619304
C38	C	1.391977	0.326857	-0.119304
C39	C	0.551679	0.022381	-0.757651
C40	C	1.051679	0.522381	-0.257651
C41	C	0.640722	0.039923	-0.770045
C42	C	1.140722	0.539923	-0.270045
C43	C	0.703540	-0.013342	-0.732361
C44	C	1.203540	0.486658	-0.232361
C45	C	0.677307	-0.084152	-0.682281
C46	C	1.177307	0.415848	-0.182281
C47	C	0.588255	-0.101700	-0.669891
C48	C	1.088255	0.398300	-0.169891
C49	C	0.740116	-0.137423	-0.644601
C50	C	1.240116	0.362577	-0.144601
C51	C	0.713882	-0.208233	-0.594521
C52	C	1.213882	0.291767	-0.094521
C53	C	0.624839	-0.225778	-0.582133
C54	C	1.124839	0.274222	-0.082133
C55	C	0.562021	-0.172513	-0.619817
C56	C	1.062021	0.327487	-0.119817
C57	C	0.829167	-0.119875	-0.656990
C58	C	1.329167	0.380125	-0.156990
C59	C	0.865743	-0.243956	-0.569230
C60	C	1.365743	0.256044	-0.069230
C61	C	0.776700	-0.261498	-0.556836
C62	C	1.276700	0.238502	-0.056836
C63	C	1.238965	-0.332332	-0.707032
C64	C	1.738965	0.167668	-0.207032
C65	C	1.252165	-0.427059	-0.725750
C66	C	1.752165	0.072941	-0.225750
C67	C	1.114440	-0.767674	-0.529949
C68	C	1.614440	-0.267674	-0.029949
C69	C	1.102033	-0.678675	-0.512363
C70	C	1.602033	-0.178675	-0.012363
C71	C	1.139565	-0.615766	-0.565708
C72	C	1.639565	-0.115766	-0.065708
C73	C	1.189506	-0.641866	-0.636642
C74	C	1.689506	-0.141866	-0.136642
C75	C	1.201908	-0.730874	-0.654234
C76	C	1.701908	-0.230874	-0.154234
C77	C	1.227033	-0.578967	-0.689993
C78	C	1.727033	-0.078967	-0.189993
C79	C	1.276974	-0.605066	-0.760928
C80	C	1.776974	-0.105066	-0.260928
C81	C	1.289374	-0.694066	-0.778516
C82	C	1.789374	-0.194066	-0.278516
C83	C	1.251842	-0.756974	-0.725171
C84	C	1.751842	-0.256974	-0.225171
C85	C	1.214631	-0.489958	-0.672402
C86	C	1.714631	0.010042	-0.172402
C87	C	1.302099	-0.453159	-0.796687
C88	C	1.802099	0.046841	-0.296687
C89	C	1.314506	-0.542158	-0.814273
C90	C	1.814506	-0.042158	-0.314273
C91	C	1.430674	-0.067087	-0.694367
C92	C	1.930674	0.432913	-0.194367
C93	C	1.525445	-0.048432	-0.707578
C94	C	2.025445	0.451568	-0.207578
C95	C	1.164498	-0.079875	-0.885719
C96	C	1.664498	0.420125	-0.385719
C97	C	1.145841	-0.066670	-0.980471
C98	C	1.645841	0.433330	-0.480471
C99	C	1.177493	0.111478	-0.619556
C100	C	1.677493	0.611478	-0.119556
C101	C	1.164374	0.206226	-0.600885
C102	C	1.664374	0.706226	-0.100885
C103	C	1.341561	-0.204581	-1.320930
C104	C	1.841561	0.295419	-0.820930
C105	C	1.359086	-0.216995	-1.231905
C106	C	1.859086	0.283005	-0.731905
C107	C	1.305777	-0.179414	-1.169043
C108	C	1.805777	0.320586	-0.669043
C109	C	1.234938	-0.129419	-1.195213
C110	C	1.734938	0.370581	-0.695213
C111	C	1.217407	-0.117010	-1.284246
C112	C	1.717407	0.382990	-0.784246
C113	C	1.181622	-0.091843	-1.132359
C114	C	1.681622	0.408157	-0.632359
C115	C	1.110784	-0.041848	-1.158529
C116	C	1.610784	0.458152	-0.658529
C117	C	1.093256	-0.029441	-1.247554
C118	C	1.593256	0.470559	-0.747554
C119	C	1.146566	-0.067021	-1.310417
C120	C	1.646566	0.432979	-0.810417
C121	C	1.199154	-0.104252	-1.043326
C122	C	1.699154	0.395748	-0.543326
C123	C	1.075000	-0.016681	-1.006642
C124	C	1.575000	0.483319	-0.506642
C125	C	1.057474	-0.004268	-1.095667
C126	C	1.557474	0.495732	-0.595667
C127	C	1.251931	-0.141660	-0.441877
C128	C	1.751931	0.358340	0.058123
C129	C	1.270720	-0.154592	-0.347100
C130	C	1.770720	0.345408	0.152900
H131	H	0.755328	-0.319153	-0.516061
H132	H	1.255328	0.180847	-0.016061
O133	O	1.129696	-0.054935	-1.396920
O134	O	1.629696	0.445065	-0.896920
C135	C	1.202519	-0.012794	-1.433734
C136	C	1.702519	0.487206	-0.933734
H137	H	1.263748	-0.024837	-1.392140
H138	H	1.763748	0.475163	-0.892140
H139	H	1.211275	-0.039964	-1.502982
H140	H	1.711275	0.460036	-1.002982
H141	H	1.191421	0.060492	-1.435851
H142	H	1.691421	0.560492	-0.935851
H143	H	1.384953	-0.235181	-1.372119
H144	H	1.884953	0.264819	-0.872119
H145	H	1.035567	0.011259	-1.268858
H146	H	1.535567	0.511259	-0.768858
H147	H	0.999796	0.036439	-1.116987
H148	H	1.499796	0.536439	-0.616987
O149	O	0.926832	-0.295709	-0.532758
O150	O	1.426832	0.204291	-0.032758
C151	C	0.976444	-0.333951	-0.599242
C152	C	1.476444	0.166049	-0.099242
H153	H	0.972911	-0.292347	-0.659844
H154	H	1.472911	0.207653	-0.159844
H155	H	1.047473	-0.337823	-0.575453
H156	H	1.547473	0.162177	-0.075453
H157	H	0.949069	-0.402605	-0.616189
H158	H	1.449069	0.097395	-0.116189
O159	O	1.322675	-0.191569	-1.082560
O160	O	1.822675	0.308431	-0.582560
C161	C	1.249835	-0.233663	-1.045728
C162	C	1.749835	0.266337	-0.545728
H163	H	1.209624	-0.270613	-1.099440
H164	H	1.709624	0.229387	-0.599440
H165	H	1.273325	-0.281636	-0.995072
H166	H	1.773325	0.218364	-0.495072
H167	H	1.207657	-0.182780	-1.012891
H168	H	1.707657	0.317220	-0.512891
H169	H	1.061371	-0.657428	-0.454609
H170	H	1.561371	-0.157428	0.045391
H171	H	1.173969	-0.468717	-0.614646
H172	H	1.673969	0.031283	-0.114646
O173	O	0.475505	-0.189609	-0.607931
O174	O	0.975505	0.310391	-0.107931
C175	C	0.432738	-0.206076	-0.689802
C176	C	0.932738	0.293924	-0.189802
H177	H	0.482292	-0.228282	-0.739463
H178	H	0.982292	0.271718	-0.239463
H179	H	0.380040	-0.259532	-0.683399
H180	H	0.880040	0.240468	-0.183399
H181	H	0.401300	-0.143734	-0.712746
H182	H	0.901300	0.356266	-0.212746
O183	O	1.338423	-0.391982	-0.848518
O184	O	1.838423	0.108018	-0.348518
C185	C	1.271829	-0.342431	-0.886611
C186	C	1.771829	0.157569	-0.386611
H187	H	1.211319	-0.346083	-0.844868
H188	H	1.711319	0.153917	-0.344868
H189	H	1.295568	-0.271376	-0.890524
H190	H	1.795568	0.228624	-0.390524
H191	H	1.254749	-0.369764	-0.955241
H192	H	1.754749	0.130236	-0.455241
H193	H	0.850517	-0.062219	-0.697765
H194	H	1.350517	0.437781	-0.197765
H195	H	1.416756	-0.257711	-1.210605
H196	H	1.916756	0.242289	-0.710605
O197	O	1.023202	0.019690	-0.945510
O198	O	1.523202	0.519690	-0.445510
C199	C	0.984976	-0.046862	-0.895914
C200	C	1.484976	0.453138	-0.395914
H201	H	1.026619	-0.107402	-0.899499
H202	H	1.526619	0.392598	-0.399499
H203	H	0.981071	-0.023115	-0.824873
H204	H	1.481071	0.476885	-0.324873
H205	H	0.916330	-0.063883	-0.923261
H206	H	1.416330	0.436117	-0.423261
O207	O	0.790002	0.003845	-0.744448
O208	O	1.290002	0.503845	-0.244448
C209	C	0.799686	0.077753	-0.796747
C210	C	1.299686	0.577753	-0.296747
H211	H	0.739099	0.119097	-0.791819
H212	H	1.239099	0.619097	-0.291819
H213	H	0.859813	0.118302	-0.772978
H214	H	1.359813	0.618302	-0.272978
H215	H	0.807976	0.055624	-0.867733
H216	H	1.307976	0.555624	-0.367733
H217	H	0.662074	0.097575	-0.810824
H218	H	1.162074	0.597575	-0.310824
H219	H	0.603484	-0.283442	-0.541362
H220	H	1.103484	0.216558	-0.041362
O221	O	0.490574	0.073981	-0.794307
O222	O	0.990574	0.573981	-0.294307
C223	C	0.435013	0.022876	-0.851721
C224	C	0.935013	0.522876	-0.351721
H225	H	0.436570	-0.048508	-0.832417
H226	H	0.936570	0.451492	-0.332417
H227	H	0.365320	0.046830	-0.847649
H228	H	0.865320	0.546830	-0.347649
H229	H	0.458219	0.028979	-0.921523
H230	H	0.958219	0.528979	-0.421523
H231	H	1.129462	-0.543300	-0.551384
H232	H	1.629462	-0.043300	-0.051384
H233	H	1.261945	-0.829446	-0.739483
H234	H	1.761945	-0.329446	-0.239483
O235	O	1.077934	-0.828867	-0.478269
O236	O	1.577934	-0.328867	0.021731
C237	C	1.020440	-0.884454	-0.529261
C238	C	1.520440	-0.384454	-0.029261
H239	H	1.039587	-0.882808	-0.600697
H240	H	1.539587	-0.382808	-0.100697
H241	H	1.024607	-0.954153	-0.505322
H242	H	1.524607	-0.454153	-0.005322
H243	H	0.950639	-0.861351	-0.522998
H244	H	1.450639	-0.361351	-0.022998
H245	H	1.330035	-0.715312	-0.836279
H246	H	1.830035	-0.215312	-0.336279
H247	H	1.355168	-0.563421	-0.872029
H248	H	1.855168	-0.063421	-0.372029
O249	O	1.268008	-0.152697	-1.017799
O250	O	1.768008	0.347303	-0.517799
C251	C	1.326516	-0.100500	-0.964434
C252	C	1.826516	0.399500	-0.464434
H253	H	1.290130	-0.043677	-0.934170
H254	H	1.790130	0.456323	-0.434170
H255	H	1.355079	-0.141701	-0.910267
H256	H	1.855079	0.358299	-0.410267
H257	H	1.381647	-0.073915	-1.005710
H258	H	1.881647	0.426085	-0.505710
