data_functionalizedCrystal
_audit_creation_method	'MofGen! by Chris Wilmer'
_symmetry_space_group_name_H-M	'P1'
_symmetry_Int_Tables_number	1
_symmetry_cell_setting	triclinic
loop_
_symmetry_equiv_pos_as_xyz
  x,y,z
_cell_length_a	15.944551
_cell_length_b	17.019294
_cell_length_c	14.421503
_cell_angle_alpha	86.125318
_cell_angle_beta	89.996859
_cell_angle_gamma	83.446674
loop_
_atom_site_label
_atom_site_type_symbol
_atom_site_fract_x
_atom_site_fract_y
_atom_site_fract_z
O1	O	1.114402	0.101726	-0.085136
O2	O	1.447735	0.435060	0.248197
O3	O	1.781069	0.768393	0.581530
O4	O	0.869837	0.114269	-0.086161
O5	O	1.203170	0.447603	0.247173
O6	O	1.536503	0.780936	0.580506
O7	O	0.998941	-0.006833	-0.076474
O8	O	1.332274	0.326500	0.256859
O9	O	1.665608	0.659833	0.590192
O10	O	0.985297	0.222829	-0.094823
O11	O	1.318631	0.556162	0.238511
O12	O	1.651964	0.889496	0.571844
O13	O	0.998920	-0.006815	0.077748
O14	O	1.332253	0.326518	0.411081
O15	O	1.665586	0.659851	0.744414
O16	O	0.869815	0.114287	0.068061
O17	O	1.203148	0.447621	0.401395
O18	O	1.536482	0.780954	0.734728
O19	O	1.114381	0.101744	0.069086
O20	O	1.447714	0.435078	0.402419
O21	O	1.781047	0.768411	0.735752
Cu22	Cu	0.992096	0.108018	0.082655
Cu23	Cu	1.325429	0.441351	0.415989
Cu24	Cu	1.658763	0.774684	0.749322
Cu25	Cu	0.992121	0.107996	-0.099730
Cu26	Cu	1.325455	0.441330	0.233603
Cu27	Cu	1.658788	0.774663	0.566936
O28	O	0.985276	0.222847	0.059399
O29	O	1.318609	0.556180	0.392733
O30	O	1.651943	0.889514	0.726066
C31	C	0.838533	0.113758	-0.009011
C32	C	1.171866	0.447091	0.324322
C33	C	1.505199	0.780424	0.657656
C34	C	0.745288	0.112197	-0.008895
C35	C	1.078622	0.445530	0.324438
C36	C	1.411955	0.778863	0.657772
C37	C	0.530530	0.033400	-0.002582
C38	C	0.863864	0.366733	0.330752
C39	C	1.197197	0.700067	0.664085
C40	C	0.469475	0.069982	-0.081545
C41	C	0.802808	0.403315	0.251789
C42	C	1.136142	0.736648	0.585122
C43	C	0.574566	0.109372	-0.008659
C44	C	0.907899	0.442706	0.324675
C45	C	1.241233	0.776039	0.658008
C46	C	0.469476	0.070017	0.070505
C47	C	0.802809	0.403351	0.403838
C48	C	1.136143	0.736684	0.737171
C49	C	0.409657	0.106639	-0.008425
C50	C	0.742990	0.439972	0.324908
C51	C	1.076324	0.773306	0.658241
C52	C	0.514739	0.145975	-0.087686
C53	C	0.848072	0.479308	0.245647
C54	C	1.181406	0.812642	0.578981
C55	C	0.514746	0.146000	0.064433
C56	C	0.848080	0.479333	0.397766
C57	C	1.181413	0.812667	0.731099
C58	C	0.453709	0.182637	-0.014553
C59	C	0.787042	0.515970	0.318780
C60	C	1.120375	0.849303	0.652113
C61	C	0.669566	0.110945	-0.008793
C62	C	1.002900	0.444278	0.324540
C63	C	1.336233	0.777612	0.657873
C64	C	0.314658	0.105072	-0.008298
C65	C	0.647991	0.438405	0.325036
C66	C	0.981324	0.771739	0.658369
C67	C	0.998413	-0.036213	0.002983
C68	C	1.331746	0.297120	0.336316
C69	C	1.665079	0.630454	0.669649
C70	C	0.996860	-0.123783	0.009972
C71	C	1.330193	0.209551	0.343306
C72	C	1.663527	0.542884	0.676639
C73	C	0.996144	-0.164928	-0.070810
C74	C	1.329478	0.168405	0.262524
C75	C	1.662811	0.501738	0.595857
C76	C	0.994680	-0.247209	-0.064239
C77	C	1.328013	0.086125	0.269094
C78	C	1.661347	0.419458	0.602427
C79	C	0.993938	-0.288342	0.023114
C80	C	1.327271	0.044991	0.356447
C81	C	1.660604	0.378324	0.689781
C82	C	0.994651	-0.247191	0.103902
C83	C	1.327984	0.086143	0.437235
C84	C	1.661318	0.419476	0.770569
C85	C	0.996109	-0.164911	0.097331
C86	C	1.329443	0.168422	0.430664
C87	C	1.662776	0.501756	0.763997
C88	C	0.989529	-0.536772	0.047161
C89	C	1.322862	-0.203439	0.380495
C90	C	1.656195	0.129894	0.713828
C91	C	0.988073	-0.619058	0.053727
C92	C	1.321406	-0.285724	0.387060
C93	C	1.654739	0.047609	0.720393
C94	C	0.988100	-0.619070	-0.114416
C95	C	1.321434	-0.285737	0.218918
C96	C	1.654767	0.047597	0.552251
C97	C	0.989564	-0.536790	-0.120979
C98	C	1.322897	-0.203456	0.212354
C99	C	1.656230	0.129877	0.545687
C100	C	0.990272	-0.495644	-0.040191
C101	C	1.323606	-0.162311	0.293142
C102	C	1.656939	0.171022	0.626475
C103	C	0.992444	-0.372446	0.029832
C104	C	1.325777	-0.039113	0.363166
C105	C	1.659110	0.294220	0.696499
C106	C	0.991760	-0.411541	-0.046910
C107	C	1.325094	-0.078208	0.286423
C108	C	1.658427	0.255125	0.619756
C109	C	1.145685	0.102256	-0.008066
C110	C	1.479018	0.435589	0.325267
C111	C	1.812351	0.768923	0.658601
C112	C	1.238929	0.103817	-0.008188
C113	C	1.572262	0.437150	0.325145
C114	C	1.905595	0.770484	0.658479
C115	C	0.985804	0.252227	-0.020060
C116	C	1.319138	0.585560	0.313274
C117	C	1.652471	0.918894	0.646607
C118	C	0.987357	0.339796	-0.027055
C119	C	1.320690	0.673130	0.306278
C120	C	1.654024	1.006463	0.639611
N121	N	0.992084	0.108032	0.210935
N122	N	1.325418	0.441365	0.544269
N123	N	1.658751	0.774699	0.877602
N124	N	0.992140	0.107975	-0.228010
N125	N	1.325473	0.441309	0.105324
N126	N	1.658806	0.774642	0.438657
C127	C	0.932376	0.164005	0.456112
C128	C	1.265709	0.497338	0.789445
C129	C	1.599042	0.830671	1.122779
C130	C	1.008257	0.179319	0.516698
C131	C	1.341590	0.512653	0.850032
C132	C	1.674923	0.845986	1.183365
C133	C	0.992105	0.108013	0.400098
C134	C	1.325438	0.441347	0.733432
C135	C	1.658771	0.774680	1.066765
C136	C	0.916243	0.092717	0.523604
C137	C	1.249577	0.426050	0.856938
C138	C	1.582910	0.759384	1.190271
C139	C	0.992118	0.107997	0.582821
C140	C	1.325451	0.441330	0.916154
C141	C	1.658784	0.774663	1.249488
C142	C	1.068024	0.123363	0.459321
C143	C	1.401357	0.456697	0.792654
C144	C	1.734690	0.790030	1.125987
C145	C	0.975961	0.036730	0.466224
C146	C	1.309294	0.370063	0.799557
C147	C	1.642627	0.703397	1.132891
C148	C	1.051896	0.052014	0.526785
C149	C	1.385230	0.385348	0.860118
C150	C	1.718563	0.718681	1.193451
C151	C	0.992096	0.108025	0.294836
C152	C	1.325429	0.441358	0.628169
C153	C	1.658763	0.774691	0.961503
C154	C	0.992135	0.107985	0.688081
C155	C	1.325468	0.441318	1.021414
C156	C	1.658802	0.774651	1.354747
H157	H	0.534829	0.178114	0.126157
H158	H	0.868162	0.511447	0.459490
H159	H	1.201495	0.844781	0.792823
Br160	Br	0.993630	-0.303012	0.222455
Br161	Br	1.326963	0.030321	0.555788
Br162	Br	1.660296	0.363654	0.889121
Br163	Br	0.436049	0.016452	0.181929
Br164	Br	0.769383	0.349785	0.515262
Br165	Br	1.102716	0.683119	0.848595
Br166	Br	0.809308	0.071164	0.570603
Br167	Br	1.142641	0.404498	0.903937
Br168	Br	1.475975	0.737831	1.237270
Br169	Br	0.848273	0.242983	0.404624
Br170	Br	1.181606	0.576317	0.737957
Br171	Br	1.514939	0.909650	1.071290
H172	H	0.996753	-0.131444	-0.141942
H173	H	1.330087	0.201890	0.191391
H174	H	1.663420	0.535223	0.524724
Br175	Br	0.436041	0.016417	-0.184418
Br176	Br	0.769375	0.349750	0.148915
Br177	Br	1.102708	0.683083	0.482249
H178	H	0.534695	0.178076	-0.154607
H179	H	0.868029	0.511410	0.178727
H180	H	1.201362	0.844743	0.512060
H181	H	0.563942	-0.029651	0.002362
H182	H	0.897276	0.303683	0.335695
H183	H	1.230609	0.637016	0.669028
Br184	Br	0.990473	-0.480941	0.156803
Br185	Br	1.323806	-0.147607	0.490136
Br186	Br	1.657140	0.185726	0.823469
H187	H	0.996680	-0.131410	0.163112
H188	H	1.330014	0.201923	0.496445
H189	H	1.663347	0.535257	0.829779
Br190	Br	0.993707	-0.303046	-0.173877
Br191	Br	1.327041	0.030287	0.159456
Br192	Br	1.660374	0.363620	0.492789
H193	H	0.987522	-0.652579	-0.180188
H194	H	1.320855	-0.319246	0.153145
H195	H	1.654188	0.014088	0.486478
Br196	Br	1.174988	0.145030	0.412516
Br197	Br	1.508321	0.478364	0.745850
Br198	Br	1.841655	0.811697	1.079183
H199	H	0.992359	-0.378046	-0.118033
H200	H	1.325693	-0.044713	0.215300
H201	H	1.659026	0.288621	0.548633
H202	H	0.420471	0.245753	-0.019638
H203	H	0.753804	0.579086	0.313695
H204	H	1.087138	0.912419	0.647028
H205	H	0.990169	-0.503304	-0.192112
H206	H	1.323503	-0.169971	0.141222
H207	H	1.656836	0.163363	0.474555
Br208	Br	1.031040	0.279781	0.553964
Br209	Br	1.364373	0.613114	0.887297
Br210	Br	1.697707	0.946447	1.220630
H211	H	0.987464	-0.652546	0.124864
H212	H	1.320797	-0.319213	0.458197
H213	H	1.654131	0.014121	0.791530
Br214	Br	1.136181	-0.026923	0.577988
Br215	Br	1.469514	0.306411	0.911321
Br216	Br	1.802847	0.639744	1.244654
Br217	Br	0.953143	-0.063703	0.428917
Br218	Br	1.286477	0.269630	0.762250
Br219	Br	1.619810	0.602964	1.095584
H220	H	0.991842	-0.405947	0.100956
H221	H	1.325175	-0.072614	0.434289
H222	H	1.658508	0.260720	0.767623
