data_functionalizedCrystal
_audit_creation_method	'MofGen! by Chris Wilmer'
_symmetry_space_group_name_H-M	'P1'
_symmetry_Int_Tables_number	1
_symmetry_cell_setting	triclinic
loop_
_symmetry_equiv_pos_as_xyz
  x,y,z
_cell_length_a	14.971486
_cell_length_b	10.654550
_cell_length_c	13.448316
_cell_angle_alpha	89.989735
_cell_angle_beta	89.993189
_cell_angle_gamma	84.049516
loop_
_atom_site_label
_atom_site_type_symbol
_atom_site_fract_x
_atom_site_fract_y
_atom_site_fract_z
O1	O	0.125633	1.666497	-0.082774
O2	O	0.137602	1.300890	-0.082758
O3	O	0.001471	1.493493	-0.082760
O4	O	0.261765	1.473895	-0.082773
O5	O	0.001462	1.493469	0.082624
O6	O	0.137594	1.300866	0.082626
O7	O	0.125625	1.666473	0.082610
Cu8	Cu	0.131608	1.483667	0.097718
Cu9	Cu	0.131619	1.483696	-0.097867
O10	O	0.261756	1.473870	0.082611
C11	C	0.136719	1.254090	-0.000064
C12	C	0.134090	1.114675	-0.000058
C13	C	-0.031863	1.492605	-0.000068
C14	C	-0.131174	1.489978	-0.000069
C15	C	-0.187784	1.603127	-0.000073
C16	C	-0.281097	1.600651	-0.000083
C17	C	-0.317798	1.485026	-0.000081
C18	C	-0.261181	1.371868	-0.000080
C19	C	-0.167870	1.374345	-0.000077
C20	C	-0.455672	1.366714	-0.000084
C21	C	-0.548989	1.364237	-0.000084
C22	C	-0.568898	1.593020	-0.000089
C23	C	-0.475587	1.595497	-0.000086
C24	C	-0.418977	1.482339	-0.000083
C25	C	0.214242	1.034329	-0.000077
C26	C	0.211766	0.903335	-0.000094
C27	C	0.048979	0.933045	-0.000078
C28	C	0.051456	1.064036	-0.000054
C29	C	0.308226	1.017175	-0.000090
C30	C	0.305750	0.886181	-0.000107
C31	C	0.295090	1.474759	-0.000083
C32	C	0.394401	1.477386	-0.000089
C33	C	0.126508	1.713274	-0.000087
C34	C	0.129137	1.852689	-0.000099
N35	N	0.131601	1.483656	0.235283
N36	N	0.131619	1.483717	-0.235431
C37	C	0.071347	1.568967	0.287323
C38	C	0.071346	1.568975	0.391426
C39	C	0.131604	1.483677	0.443487
C40	C	0.191861	1.398357	0.391440
C41	C	0.191857	1.398344	0.287339
C42	C	0.191867	1.398392	0.608420
C43	C	0.191873	1.398406	0.712529
C44	C	0.071357	1.569023	0.712507
C45	C	0.071352	1.569010	0.608406
C46	C	0.131611	1.483691	0.556366
H47	H	-0.157909	1.697283	-0.000068
Br48	Br	-0.010418	1.684782	0.537747
H49	H	-0.327185	1.692789	-0.000084
Br50	Br	-0.598799	1.207315	-0.000078
H51	H	0.240933	1.328912	0.566053
H52	H	0.022293	1.638492	0.754884
H53	H	-0.409581	1.274568	-0.000084
Br54	Br	-0.310989	1.214945	-0.000095
Br55	Br	-0.425778	1.752419	-0.000091
H56	H	-0.614995	1.685158	-0.000095
H57	H	-0.121779	1.282207	-0.000074
Br58	Br	0.364776	0.815996	-0.115472
H59	H	-0.018299	0.891798	-0.000089
Br60	Br	0.273656	1.282639	0.783176
Br61	Br	0.273636	1.282583	0.462091
H62	H	0.240920	1.328874	0.244969
H63	H	-0.013812	1.129450	-0.000024
H64	H	0.344979	1.046102	0.069125
H65	H	0.338155	1.052520	-0.071495
Br66	Br	0.353082	0.809520	0.118891
H67	H	0.022282	1.638441	0.433796
Br68	Br	-0.010431	1.684745	0.216678
