data_functionalizedCrystal
_audit_creation_method	'MofGen! by Chris Wilmer'
_symmetry_space_group_name_H-M	'P1'
_symmetry_Int_Tables_number	1
_symmetry_cell_setting	triclinic
loop_
_symmetry_equiv_pos_as_xyz
  x,y,z
_cell_length_a	11.792254
_cell_length_b	14.044209
_cell_length_c	10.268362
_cell_angle_alpha	89.991300
_cell_angle_beta	90.000669
_cell_angle_gamma	91.306725
loop_
_atom_site_label
_atom_site_type_symbol
_atom_site_fract_x
_atom_site_fract_y
_atom_site_fract_z
O1	O	1.519101	-0.130046	0.108308
O2	O	1.769101	0.119954	0.358308
O3	O	2.019101	0.369954	0.608308
O4	O	2.269101	0.619954	0.858308
O5	O	1.190018	-0.143430	0.108312
O6	O	1.440018	0.106570	0.358312
O7	O	1.690018	0.356570	0.608312
O8	O	1.940018	0.606570	0.858312
O9	O	1.349621	0.001272	0.108292
O10	O	1.599621	0.251272	0.358292
O11	O	1.849621	0.501272	0.608292
O12	O	2.099621	0.751272	0.858292
O13	O	1.359498	-0.274748	0.108329
O14	O	1.609498	-0.024748	0.358329
O15	O	1.859498	0.225252	0.608329
O16	O	2.109498	0.475252	0.858329
O17	O	1.349618	0.001281	-0.108309
O18	O	1.599618	0.251281	0.141691
O19	O	1.849618	0.501281	0.391691
O20	O	2.099618	0.751281	0.641691
O21	O	1.190015	-0.143422	-0.108288
O22	O	1.440015	0.106578	0.141712
O23	O	1.690015	0.356578	0.391712
O24	O	1.940015	0.606578	0.641712
O25	O	1.519098	-0.130038	-0.108292
O26	O	1.769098	0.119962	0.141708
O27	O	2.019098	0.369962	0.391708
O28	O	2.269098	0.619962	0.641708
Cu29	Cu	1.354556	-0.136729	-0.128068
Cu30	Cu	1.604556	0.113271	0.121932
Cu31	Cu	1.854556	0.363271	0.371932
Cu32	Cu	2.104556	0.613271	0.621932
Cu33	Cu	1.354560	-0.136739	0.128088
Cu34	Cu	1.604560	0.113261	0.378088
Cu35	Cu	1.854560	0.363261	0.628088
Cu36	Cu	2.104560	0.613261	0.878088
O37	O	1.359495	-0.274740	-0.108272
O38	O	1.609495	-0.024740	0.141728
O39	O	1.859495	0.225260	0.391728
O40	O	2.109495	0.475260	0.641728
C41	C	1.147647	-0.142583	0.000012
C42	C	1.397647	0.107417	0.250012
C43	C	1.647647	0.357417	0.500012
C44	C	1.897647	0.607417	0.750012
C45	C	1.021397	-0.140059	0.000013
C46	C	1.271397	0.109941	0.250013
C47	C	1.521397	0.359941	0.500013
C48	C	1.771397	0.609941	0.750013
C49	C	0.918868	-0.138009	0.000018
C50	C	1.168868	0.111991	0.250018
C51	C	1.418868	0.361991	0.500018
C52	C	1.668868	0.611991	0.750018
C53	C	0.790240	-0.135445	0.000019
C54	C	1.040240	0.114555	0.250019
C55	C	1.290240	0.364555	0.500019
C56	C	1.540240	0.614555	0.750019
C57	C	1.345296	0.036613	-0.000010
C58	C	1.595296	0.286613	0.249990
C59	C	1.845296	0.536613	0.499990
C60	C	2.095296	0.786613	0.749990
C61	C	1.332398	0.141906	-0.000016
C62	C	1.582398	0.391906	0.249984
C63	C	1.832398	0.641906	0.499984
C64	C	2.082398	0.891906	0.749984
C65	C	1.308818	0.334690	-0.000005
C66	C	1.558818	0.584690	0.249995
C67	C	1.808818	0.834690	0.499995
C68	C	2.058818	1.084690	0.749995
C69	C	1.400303	0.391849	-0.000004
C70	C	1.650303	0.641849	0.249996
C71	C	1.900303	0.891849	0.499996
C72	C	2.150303	1.141849	0.749996
C73	C	1.387182	0.499121	0.000002
C74	C	1.637182	0.749121	0.250002
C75	C	1.887182	0.999121	0.500002
C76	C	2.137182	1.249121	0.750002
C77	C	1.321936	0.227408	-0.000011
C78	C	1.571936	0.477408	0.249989
C79	C	1.821936	0.727408	0.499989
C80	C	2.071936	0.977408	0.749989
C81	C	1.561469	-0.130885	0.000011
C82	C	1.811469	0.119115	0.250011
C83	C	2.061469	0.369115	0.500011
C84	C	2.311469	0.619115	0.750011
C85	C	1.687719	-0.133409	0.000019
C86	C	1.937719	0.116591	0.250019
C87	C	2.187719	0.366591	0.500019
C88	C	2.437719	0.616591	0.750019
C89	C	1.363823	0.689919	0.000023
C90	C	1.613823	0.939919	0.250023
C91	C	1.863823	1.189919	0.500023
C92	C	2.113823	1.439919	0.750023
C93	C	1.376728	0.584627	0.000007
C94	C	1.626728	0.834627	0.250007
C95	C	1.876728	1.084627	0.500007
C96	C	2.126728	1.334627	0.750007
N97	N	1.354562	-0.136739	0.308254
N98	N	1.604562	0.113261	0.558254
N99	N	1.854562	0.363261	0.808254
N100	N	2.104562	0.613261	1.058254
N101	N	1.354562	-0.136721	-0.308234
N102	N	1.604562	0.113279	-0.058234
N103	N	1.854562	0.363279	0.191766
N104	N	2.104562	0.613279	0.441766
C105	C	1.354559	-0.136733	0.573924
C106	C	1.604559	0.113267	0.823924
C107	C	1.854559	0.363267	1.073924
C108	C	2.104559	0.613267	1.323924
C109	C	1.354557	-0.136740	0.426086
C110	C	1.604557	0.113260	0.676086
C111	C	1.854557	0.363260	0.926086
C112	C	2.104557	0.613260	1.176086
H113	H	1.488479	0.360222	0.000083
H114	H	1.738479	0.610222	0.250083
H115	H	1.988479	0.860222	0.500083
H116	H	2.238479	1.110222	0.750083
H117	H	1.220648	0.366315	-0.000002
H118	H	1.470648	0.616315	0.249998
H119	H	1.720648	0.866315	0.499998
H120	H	1.970648	1.116315	0.749998
