data_functionalizedCrystal
_audit_creation_method	'MofGen! by Chris Wilmer'
_symmetry_space_group_name_H-M	'P1'
_symmetry_Int_Tables_number	1
_symmetry_cell_setting	triclinic
loop_
_symmetry_equiv_pos_as_xyz
  x,y,z
_cell_length_a	18.215407
_cell_length_b	12.759400
_cell_length_c	18.215399
_cell_angle_alpha	90.021909
_cell_angle_beta	90.017368
_cell_angle_gamma	90.011727
loop_
_atom_site_label
_atom_site_type_symbol
_atom_site_fract_x
_atom_site_fract_y
_atom_site_fract_z
Zn1	Zn	1.125126	-0.418349	0.416098
Zn2	Zn	1.125057	-0.594046	0.293045
Zn3	Zn	1.002059	-0.418374	0.293051
Zn4	Zn	1.002047	-0.593978	0.416075
O5	O	1.063572	-0.506187	0.354567
O6	O	1.228101	-0.441673	0.399782
O7	O	1.108717	-0.570782	0.190062
O8	O	1.018417	-0.271350	0.309386
O9	O	1.228051	-0.570757	0.309376
O10	O	1.108835	-0.271331	0.399788
O11	O	1.018351	-0.441716	0.190066
O12	O	0.899073	-0.441650	0.309363
O13	O	1.018398	-0.570642	0.519063
O14	O	0.899065	-0.570666	0.399749
O15	O	1.108824	-0.441608	0.519080
O16	O	1.108706	-0.741058	0.309353
O17	O	1.018331	-0.741008	0.399743
C18	C	0.872366	-0.506154	0.354555
C19	C	0.790567	-0.506166	0.354566
C20	C	0.602399	-0.439090	0.401716
C21	C	0.525540	-0.439099	0.401718
C22	C	0.525498	-0.573313	0.307432
C23	C	0.602355	-0.573298	0.307427
C24	C	0.640804	-0.506188	0.354572
C25	C	0.487088	-0.506212	0.354581
C26	C	0.403754	-0.506222	0.354583
C27	C	0.724143	-0.506176	0.354569
C28	C	1.063530	-0.779154	0.354561
C29	C	1.063579	-0.895931	0.354583
C30	C	1.016511	-0.950805	0.401611
C31	C	1.016550	-1.060529	0.401618
C32	C	1.110732	-1.060495	0.307566
C33	C	1.110689	-0.950773	0.307556
C34	C	0.969402	-0.895963	0.448638
C35	C	0.922330	-0.950838	0.495672
C36	C	0.922369	-1.060562	0.495679
C37	C	0.969480	-1.115411	0.448652
C38	C	1.255525	-0.506220	0.354581
C39	C	1.337324	-0.506234	0.354586
C40	C	1.063617	-0.506114	0.546520
C41	C	1.063636	-0.506083	0.628319
C42	C	1.063635	-0.232154	0.354590
C43	C	1.063662	-0.115377	0.354600
C44	C	1.063570	-0.506183	0.163361
C45	C	1.063694	-0.505918	0.081563
C46	C	1.110738	-0.438832	0.816523
C47	C	1.110747	-0.438802	0.893382
C48	C	1.016587	-0.573172	0.893353
C49	C	1.016575	-0.573197	0.816496
C50	C	1.063655	-0.506028	0.778083
C51	C	1.063675	-0.505973	0.931799
C52	C	1.063684	-0.505940	1.015133
C53	C	1.063645	-0.506059	0.694744
H54	H	0.494184	-0.627952	0.269048
O55	O	0.969365	-0.777619	0.448622
H56	H	0.954515	-0.748755	0.393095
H57	H	1.149085	-0.384083	0.924677
O58	O	0.871518	-0.891675	0.546383
H59	H	0.813774	-0.912795	0.533704
H60	H	0.633701	-0.384442	0.440103
O61	O	1.161472	-0.891592	0.256842
H62	H	1.198869	-0.841542	0.289819
H63	H	0.978229	-0.627915	0.785197
O64	O	0.871602	-1.119754	0.546402
H65	H	0.838843	-1.063181	0.579102
O66	O	0.484114	-0.366732	0.452566
H67	H	0.523765	-0.320072	0.485349
O68	O	0.969522	-1.233758	0.448650
H69	H	0.984380	-1.262641	0.504169
O70	O	0.643787	-0.645667	0.256575
H71	H	0.604141	-0.692344	0.223799
O72	O	1.161562	-1.119646	0.256867
H73	H	1.153695	-1.205162	0.264786
H74	H	1.149071	-0.384137	0.785250
O75	O	0.965810	-0.645618	0.934783
H76	H	0.973731	-0.634319	0.994685
