data_functionalizedCrystal
_audit_creation_method	'MofGen! by Chris Wilmer'
_symmetry_space_group_name_H-M	'P1'
_symmetry_Int_Tables_number	1
_symmetry_cell_setting	triclinic
loop_
_symmetry_equiv_pos_as_xyz
  x,y,z
_cell_length_a	12.594516
_cell_length_b	12.594517
_cell_length_c	16.625539
_cell_angle_alpha	89.986122
_cell_angle_beta	89.976673
_cell_angle_gamma	90.016010
loop_
_atom_site_label
_atom_site_type_symbol
_atom_site_fract_x
_atom_site_fract_y
_atom_site_fract_z
Zn1	Zn	-0.423741	1.627262	-0.455793
Zn2	Zn	0.076259	2.127262	0.044207
Zn3	Zn	-0.601743	1.627155	-0.320972
Zn4	Zn	-0.101743	2.127155	0.179028
Zn5	Zn	-0.423779	1.449268	-0.320990
Zn6	Zn	0.076221	1.949268	0.179010
Zn7	Zn	-0.601678	1.449248	-0.455778
Zn8	Zn	-0.101678	1.949248	0.044222
O9	O	-0.512735	1.538233	-0.388383
O10	O	-0.012735	2.038233	0.111617
O11	O	-0.447365	1.776194	-0.437908
O12	O	0.052635	2.276194	0.062092
O13	O	-0.578178	1.603520	-0.208142
O14	O	-0.078178	2.103520	0.291858
O15	O	-0.274828	1.472932	-0.338885
O16	O	0.225172	1.972932	0.161115
O17	O	-0.578142	1.776115	-0.338856
O18	O	-0.078142	2.276115	0.161144
O19	O	-0.274801	1.603704	-0.437925
O20	O	0.225199	2.103704	0.062075
O21	O	-0.447428	1.472828	-0.208155
O22	O	0.052572	1.972828	0.291845
O23	O	-0.447366	1.300319	-0.338870
O24	O	0.052634	1.800319	0.161130
O25	O	-0.578032	1.472900	-0.568612
O26	O	-0.078032	1.972900	-0.068612
O27	O	-0.578068	1.300305	-0.437899
O28	O	-0.078068	1.800305	0.062101
O29	O	-0.447303	1.603686	-0.568624
O30	O	0.052697	2.103686	-0.068624
O31	O	-0.750680	1.603502	-0.338841
O32	O	-0.250680	2.103502	0.161159
O33	O	-0.750633	1.472795	-0.437882
O34	O	-0.250633	1.972795	0.062118
C35	C	-0.512715	1.261692	-0.388385
C36	C	-0.012715	1.761692	0.111615
C37	C	-0.512732	1.143387	-0.388405
C38	C	-0.012732	1.643387	0.111595
C39	C	-0.583949	1.003393	-0.442167
C40	C	-0.083949	1.503393	0.057833
C41	C	-0.609852	1.074165	-0.368579
C42	C	-0.109852	1.574165	0.131421
C43	C	-0.486876	1.074187	-0.461985
C44	C	0.013124	1.574187	0.038015
C45	C	-0.538719	1.003373	-0.314754
C46	C	-0.038719	1.503373	0.185246
C47	C	-0.415698	1.003389	-0.408210
C48	C	0.084302	1.503389	0.091790
C49	C	-0.441564	1.074128	-0.334571
C50	C	0.058436	1.574128	0.165429
C51	C	-0.789276	1.538164	-0.388375
C52	C	-0.289276	2.038164	0.111625
C53	C	-0.907582	1.538231	-0.388399
C54	C	-0.407582	2.038231	0.111601
C55	C	-0.976848	1.467133	-0.442230
C56	C	-0.476848	1.967133	0.057770
C57	C	-1.047708	1.441200	-0.368657
C58	C	-0.547708	1.941200	0.131343
C59	C	-1.047520	1.564261	-0.461984
C60	C	-0.547520	2.064261	0.038016
C61	C	-0.976884	1.512247	-0.314788
C62	C	-0.476884	2.012247	0.185212
C63	C	-0.976690	1.635353	-0.408164
C64	C	-0.476690	2.135353	0.091836
C65	C	-1.047518	1.609457	-0.334541
C66	C	-0.547518	2.109457	0.165459
C67	C	-0.235114	1.538332	-0.388409
C68	C	0.264886	2.038332	0.111591
C69	C	-0.116809	1.538374	-0.388420
C70	C	0.383191	2.038374	0.111580
C71	C	-0.512656	1.538302	-0.598692
C72	C	-0.012656	2.038302	-0.098692
C73	C	-0.512622	1.538332	-0.688313
C74	C	-0.012622	2.038332	-0.188313
C75	C	-0.512757	1.815854	-0.388382
C76	C	-0.012757	2.315854	0.111618
C77	C	-0.512766	1.934159	-0.388381
C78	C	-0.012766	2.434159	0.111619
C79	C	-0.512503	1.538381	-1.016489
C80	C	-0.012503	2.038381	-0.516489
C81	C	-0.512540	1.538364	-0.925181
C82	C	-0.012540	2.038364	-0.425181
C83	C	-0.512563	1.538357	-0.852404
C84	C	-0.012563	2.038357	-0.352404
C85	C	-0.512598	1.538339	-0.761090
C86	C	-0.012598	2.038339	-0.261090
C87	C	-0.512737	1.538226	-0.178892
C88	C	-0.012737	2.038226	0.321108
C89	C	-0.512471	1.538402	-0.089272
C90	C	-0.012471	2.038402	0.410728
H91	H	-0.691926	1.105252	-0.351812
H92	H	-0.191926	1.605252	0.148188
O93	O	-0.663758	0.962227	-0.502323
O94	O	-0.163758	1.462227	-0.002323
H95	H	-0.744259	0.990570	-0.485674
H96	H	-0.244259	1.490570	0.014326
H97	H	-0.560702	0.972397	-0.252502
H98	H	-0.060702	1.472397	0.247498
H99	H	-1.078353	1.669644	-0.288974
H100	H	-0.578353	2.169644	0.211026
O101	O	-0.935575	1.744121	-0.430344
O102	O	-0.435575	2.244121	0.069656
H103	H	-0.885847	1.738190	-0.485291
H104	H	-0.385847	2.238190	0.014709
O105	O	-0.361810	1.115033	-0.274272
O106	O	0.138190	1.615033	0.225728
H107	H	-0.383539	1.086521	-0.213270
H108	H	0.116461	1.586521	0.286730
O109	O	-0.935732	1.387356	-0.502443
O110	O	-0.435732	1.887356	-0.002443
H111	H	-0.847611	1.388536	-0.502303
H112	H	-0.347611	1.888536	-0.002303
O113	O	-0.307012	0.962169	-0.430439
O114	O	0.192988	1.462169	0.069561
H115	H	-0.285711	0.990481	-0.491581
H116	H	0.214289	1.490481	0.008419
H117	H	-0.464993	1.105293	-0.524221
H118	H	0.035007	1.605293	-0.024221
H119	H	-1.078926	1.359133	-0.351957
H120	H	-0.578926	1.859133	0.148043
H121	H	-0.945984	1.490194	-0.252549
H122	H	-0.445984	1.990194	0.247451
H123	H	-1.078548	1.586219	-0.524205
H124	H	-0.578548	2.086219	-0.024205
