data_functionalizedCrystal
_audit_creation_method	'MofGen! by Chris Wilmer'
_symmetry_space_group_name_H-M	'P1'
_symmetry_Int_Tables_number	1
_symmetry_cell_setting	triclinic
loop_
_symmetry_equiv_pos_as_xyz
  x,y,z
_cell_length_a	12.759401
_cell_length_b	12.759400
_cell_length_c	16.959447
_cell_angle_alpha	89.977220
_cell_angle_beta	90.014656
_cell_angle_gamma	89.997591
loop_
_atom_site_label
_atom_site_type_symbol
_atom_site_fract_x
_atom_site_fract_y
_atom_site_fract_z
Zn1	Zn	-1.606270	-0.418284	-0.446957
Zn2	Zn	-1.106270	0.081716	0.053043
Zn3	Zn	-1.606217	-0.593991	-0.314796
Zn4	Zn	-1.106217	-0.093991	0.185204
Zn5	Zn	-1.430591	-0.418322	-0.314794
Zn6	Zn	-0.930591	0.081678	0.185206
Zn7	Zn	-1.430594	-0.593917	-0.446934
Zn8	Zn	-0.930594	-0.093917	0.053066
O9	O	-1.518418	-0.506129	-0.380870
O10	O	-1.018418	-0.006129	0.119130
O11	O	-1.753284	-0.441607	-0.429436
O12	O	-1.253284	0.058393	0.070564
O13	O	-1.582897	-0.570735	-0.204185
O14	O	-1.082897	-0.070735	0.295815
O15	O	-1.453917	-0.271296	-0.332335
O16	O	-0.953917	0.228704	0.167665
O17	O	-1.753245	-0.570698	-0.332338
O18	O	-1.253245	-0.070698	0.167662
O19	O	-1.582987	-0.271268	-0.429434
O20	O	-1.082987	0.228732	0.070566
O21	O	-1.453865	-0.441672	-0.204183
O22	O	-0.953865	0.058328	0.295817
O23	O	-1.283571	-0.441601	-0.332312
O24	O	-0.783571	0.058399	0.167688
O25	O	-1.453922	-0.570573	-0.557548
O26	O	-0.953922	-0.070573	-0.057548
O27	O	-1.283573	-0.570610	-0.429395
O28	O	-0.783573	-0.070610	0.070605
O29	O	-1.582990	-0.441536	-0.557565
O30	O	-1.082990	0.058464	-0.057565
O31	O	-1.582900	-0.741002	-0.332316
O32	O	-1.082900	-0.241002	0.167684
O33	O	-1.453870	-0.740948	-0.429397
O34	O	-0.953870	-0.240948	0.070603
C35	C	-1.245451	-0.506102	-0.380851
C36	C	-0.745451	-0.006102	0.119149
C37	C	-1.128674	-0.506116	-0.380861
C38	C	-0.628674	-0.006116	0.119139
C39	C	-0.964069	-0.573249	-0.330245
C40	C	-0.464069	-0.073249	0.169755
C41	C	-1.073793	-0.573230	-0.330234
C42	C	-0.573793	-0.073230	0.169766
C43	C	-1.073826	-0.439009	-0.431498
C44	C	-0.573826	0.060991	0.068502
C45	C	-0.964104	-0.439024	-0.431505
C46	C	-0.464104	0.060976	0.068495
C47	C	-0.909193	-0.640375	-0.279620
C48	C	-0.409193	-0.140375	0.220380
C49	C	-0.964034	-0.707481	-0.228982
C50	C	-0.464034	-0.207481	0.271018
C51	C	-1.073758	-0.707462	-0.228971
C52	C	-0.573758	-0.207462	0.271029
C53	C	-1.128641	-0.640337	-0.279597
C54	C	-0.628641	-0.140337	0.220403
C55	C	-1.518408	-0.779096	-0.380871
C56	C	-1.018408	-0.279096	0.119129
C57	C	-1.518500	-0.895873	-0.380898
C58	C	-1.018500	-0.395873	0.119102
C59	C	-1.518462	-0.506042	-0.587039
C60	C	-1.018462	-0.006042	-0.087039
C61	C	-1.518481	-0.506005	-0.674895
C62	C	-1.018481	-0.006005	-0.174895
C63	C	-0.792452	-0.506152	-0.380885
C64	C	-0.292452	-0.006152	0.119115
C65	C	-0.909228	-0.506150	-0.380880
C66	C	-0.409228	-0.006150	0.119120
C67	C	-1.518457	-0.232095	-0.380887
C68	C	-1.018457	0.267905	0.119113
C69	C	-1.518474	-0.115319	-0.380894
C70	C	-1.018474	0.384681	0.119106
C71	C	-1.585669	0.049240	-0.330351
C72	C	-1.085669	0.549240	0.169649
C73	C	-1.585659	-0.060485	-0.330351
C74	C	-1.085659	0.439515	0.169649
C75	C	-1.451302	-0.060423	-0.431446
C76	C	-0.951302	0.439577	0.068554
C77	C	-1.451318	0.049299	-0.431450
C78	C	-0.951318	0.549299	0.068550
C79	C	-1.652851	0.104068	-0.279798
C80	C	-1.152851	0.604068	0.220202
C81	C	-1.720025	0.049180	-0.229247
C82	C	-1.220025	0.549180	0.270753
C83	C	-1.720015	-0.060544	-0.229246
C84	C	-1.220015	0.439456	0.270754
C85	C	-1.652831	-0.115380	-0.279798
C86	C	-1.152831	0.384620	0.220202
C87	C	-1.451406	-0.573077	-1.046365
C88	C	-0.951406	-0.073077	-0.546365
C89	C	-1.585806	-0.438710	-1.046377
C90	C	-1.085806	0.061290	-0.546377
C91	C	-1.585778	-0.438732	-0.963832
C92	C	-1.085778	0.061268	-0.463832
C93	C	-1.518564	-0.505929	-0.922548
C94	C	-1.018564	-0.005929	-0.422548
C95	C	-1.451378	-0.573104	-0.963811
C96	C	-0.951378	-0.073104	-0.463811
C97	C	-1.652971	-0.371567	-0.922563
C98	C	-1.152971	0.128433	-0.422563
C99	C	-1.652946	-0.371587	-0.840012
C100	C	-1.152946	0.128413	-0.340012
C101	C	-1.585726	-0.438779	-0.798727
C102	C	-1.085726	0.061221	-0.298727
C103	C	-1.518537	-0.505956	-0.839995
C104	C	-1.018537	-0.005956	-0.339995
C105	C	-1.451323	-0.573153	-0.798711
C106	C	-0.951323	-0.073153	-0.298711
C107	C	-1.384127	-0.640325	-0.839978
C108	C	-0.884127	-0.140325	-0.339978
C109	C	-1.384158	-0.640296	-0.922526
C110	C	-0.884158	-0.140296	-0.422526
C111	C	-1.585695	-0.438808	-0.716178
C112	C	-1.085695	0.061192	-0.216178
C113	C	-1.451295	-0.573179	-0.716158
C114	C	-0.951295	-0.073179	-0.216158
C115	C	-1.518435	-0.506139	-0.175504
C116	C	-1.018435	-0.006139	0.324496
C117	C	-1.518620	-0.505881	-0.087648
C118	C	-1.018620	-0.005881	0.412352
H119	H	-0.819850	-0.640400	-0.279625
H120	H	-0.319850	-0.140400	0.220375
C121	C	-1.377487	-0.646956	-1.091757
C122	C	-0.877487	-0.146956	-0.591757
N123	N	-1.321809	-0.702599	-1.125948
N124	N	-0.821809	-0.202599	-0.625948
C125	C	-0.903660	-0.781310	-0.173293
C126	C	-0.403660	-0.281310	0.326707
N127	N	-0.858188	-0.836920	-0.131347
N128	N	-0.358188	-0.336920	0.368653
C129	C	-1.377395	-0.120747	-0.487041
C130	C	-0.877395	0.379253	0.012959
N131	N	-1.321723	-0.166183	-0.528913
N132	N	-0.821723	0.333817	-0.028913
H133	H	-1.774730	0.093833	-0.188094
H134	H	-1.274730	0.593833	0.311906
H135	H	-1.118406	-0.762095	-0.187733
H136	H	-0.618406	-0.262095	0.312267
C137	C	-1.659730	-0.364791	-1.091792
C138	C	-1.159730	0.135209	-0.591792
N139	N	-1.715408	-0.309107	-1.126001
N140	N	-1.215408	0.190893	-0.626001
H141	H	-1.217986	-0.640319	-0.279578
H142	H	-0.717986	-0.140319	0.220422
C143	C	-1.134202	-0.365182	-0.487188
C144	C	-0.634202	0.134818	0.012812
N145	N	-1.179678	-0.309578	-0.529136
N146	N	-0.679678	0.190422	-0.029136
C147	C	-1.652883	0.224767	-0.279806
C148	C	-1.152883	0.724767	0.220194
N149	N	-1.652911	0.315677	-0.279815
N150	N	-1.152911	0.815677	0.220185
C151	C	-0.903776	-0.365214	-0.487208
C152	C	-0.403776	0.134786	0.012792
N153	N	-0.858337	-0.309617	-0.529164
N154	N	-0.358337	0.190383	-0.029164
H155	H	-1.640407	-0.384120	-0.682583
H156	H	-1.140407	0.115880	-0.182583
H157	H	-1.774719	-0.105231	-0.188091
H158	H	-1.274719	0.394769	0.311909
H159	H	-1.329455	-0.694987	-0.956133
H160	H	-0.829455	-0.194987	-0.456133
H161	H	-1.707699	-0.316865	-0.956182
H162	H	-1.207699	0.183135	-0.456182
H163	H	-1.652837	-0.204725	-0.279800
H164	H	-1.152837	0.295275	0.220200
C165	C	-1.377412	0.109679	-0.487043
C166	C	-0.877412	0.609679	0.012957
N167	N	-1.321742	0.155157	-0.528914
N168	N	-0.821742	0.655157	-0.028914
H169	H	-1.396551	-0.627890	-0.682551
H170	H	-0.896551	-0.127890	-0.182551
C171	C	-1.310194	-0.714239	-0.794556
C172	C	-0.810194	-0.214239	-0.294556
N173	N	-1.254508	-0.769908	-0.760340
N174	N	-0.754508	-0.269908	-0.260340
H175	H	-1.707660	-0.316891	-0.806420
H176	H	-1.207660	0.183109	-0.306420
