data_functionalizedCrystal
_audit_creation_method	'MofGen! by Chris Wilmer'
_symmetry_space_group_name_H-M	'P1'
_symmetry_Int_Tables_number	1
_symmetry_cell_setting	triclinic
loop_
_symmetry_equiv_pos_as_xyz
  x,y,z
_cell_length_a	15.995350
_cell_length_b	16.109301
_cell_length_c	15.186229
_cell_angle_alpha	90.000638
_cell_angle_beta	89.998487
_cell_angle_gamma	96.523072
loop_
_atom_site_label
_atom_site_type_symbol
_atom_site_fract_x
_atom_site_fract_y
_atom_site_fract_z
O1	O	0.107624	-1.103160	-0.073168
O2	O	0.121018	-0.861101	-0.073182
O3	O	-0.007569	-0.988747	-0.073174
O4	O	0.236210	-0.975514	-0.073176
O5	O	-0.007570	-0.988739	0.073283
O6	O	0.121016	-0.861093	0.073275
O7	O	0.107622	-1.103151	0.073289
Zn8	Zn	0.114319	-0.982121	0.096535
Zn9	Zn	0.114321	-0.982132	-0.096428
O10	O	0.236208	-0.975505	0.073281
C11	C	0.120474	-0.830122	0.000045
C12	C	0.118848	-0.737826	0.000040
C13	C	-0.038764	-0.988196	0.000053
C14	C	-0.131714	-0.986556	0.000048
N15	N	0.114317	-0.982119	0.228228
C16	C	-0.469460	-0.980665	0.000050
C17	C	-0.422001	-0.889758	-0.000283
C18	C	-0.325311	-0.891399	0.000047
C19	C	-0.301900	-0.983587	0.000049
C20	C	-0.342991	-1.028421	0.083684
C21	C	-0.439626	-1.026137	0.083754
C22	C	-0.439983	-1.028025	-0.082795
C23	C	-0.343037	-1.028003	-0.083901
C24	C	-0.207203	-0.985243	0.000051
C25	C	-0.564157	-0.979012	0.000054
C26	C	0.267404	-0.976056	0.000052
C27	C	0.360354	-0.977697	0.000051
C28	C	0.108166	-1.134130	0.000060
C29	C	0.109792	-1.226426	0.000059
C30	C	0.191366	-0.515573	0.000049
C31	C	0.189831	-0.428853	0.000055
C32	C	0.037268	-0.448686	0.000053
C33	C	0.038804	-0.535405	0.000053
C34	C	0.115855	-0.568846	0.000047
C35	C	0.112785	-0.395406	0.000052
C36	C	0.111120	-0.301380	0.000058
C37	C	0.117520	-0.662879	0.000043
N38	N	0.114317	-0.982140	-0.228121
C39	C	0.057398	-1.038660	0.453954
C40	C	0.057396	-1.038662	0.546144
C41	C	0.171238	-0.925593	0.546146
C42	C	0.171236	-0.925587	0.453958
C43	C	0.114316	-0.982125	0.407865
C44	C	0.114317	-0.982134	0.592242
C45	C	0.114315	-0.982136	0.692198
C46	C	0.114317	-0.982122	0.307902
H47	H	-0.296879	-0.856156	-0.059906
C48	C	-0.046299	-0.412215	0.000006
C49	C	-0.031485	-0.324867	-0.000020
C50	C	-0.108448	-0.291244	-0.000077
H51	H	-0.077458	-0.430407	0.051064
H52	H	-0.077394	-0.430456	-0.051088
H53	H	-0.000403	-0.306633	0.051069
H54	H	-0.000339	-0.306652	-0.051074
H55	H	-0.139543	-0.309485	-0.051171
H56	H	-0.139601	-0.309442	0.050982
H57	H	-0.098407	-0.231976	-0.000103
C58	C	-0.004290	-1.100092	0.403839
C59	C	0.040291	-1.151002	0.350896
C60	C	-0.016520	-1.207592	0.304719
H61	H	-0.039153	-1.070240	0.367826
H62	H	-0.038199	-1.133811	0.444448
H63	H	0.074185	-1.117287	0.310291
H64	H	0.075150	-1.180872	0.386887
H65	H	-0.050429	-1.241311	0.345328
H66	H	-0.051380	-1.177733	0.268710
H67	H	0.013719	-1.242146	0.268798
H68	H	0.011047	-1.084697	0.583668
C69	C	-0.322385	-1.117585	-0.090583
C70	C	-0.235031	-1.117962	-0.095709
C71	C	-0.215964	-1.200469	-0.101840
H72	H	-0.347929	-1.142966	-0.141849
H73	H	-0.343152	-1.147914	-0.039985
H74	H	-0.214273	-1.087645	-0.146303
H75	H	-0.209466	-1.092597	-0.044450
H76	H	-0.236731	-1.230799	-0.051241
H77	H	-0.241513	-1.225844	-0.153105
H78	H	-0.156693	-1.200737	-0.105310
C79	C	-0.043212	-0.593211	-0.000132
C80	C	-0.089594	-0.578119	-0.075494
C81	C	-0.165141	-0.631360	-0.075697
H82	H	-0.074909	-0.583122	0.050880
H83	H	-0.031296	-0.649659	-0.000177
H84	H	-0.101512	-0.521684	-0.075441
H85	H	-0.057923	-0.588213	-0.126518
H86	H	-0.153225	-0.687808	-0.075742
H87	H	-0.196831	-0.621267	-0.024682
H88	H	-0.196617	-0.621133	-0.126833
C89	C	0.233003	-0.864311	0.596352
C90	C	0.220841	-0.876431	0.686952
C91	C	0.277734	-0.820002	0.733226
H92	H	0.223951	-0.808787	0.581358
H93	H	0.288904	-0.873347	0.581288
H94	H	0.164953	-0.867389	0.702010
H95	H	0.229900	-0.931944	0.701972
H96	H	0.333635	-0.829038	0.718162
H97	H	0.268677	-0.764481	0.718225
H98	H	0.269495	-0.828223	0.794702
H99	H	0.251320	-0.385481	0.000058
C100	C	0.233131	-0.864166	0.404070
C101	C	0.282999	-0.814673	0.464166
C102	C	0.340028	-0.758092	0.418241
H103	H	0.203096	-0.829479	0.368110
H104	H	0.268039	-0.894050	0.368120
H105	H	0.248096	-0.784792	0.500100
H106	H	0.313053	-0.849337	0.500128
H107	H	0.374936	-0.787975	0.382291
H108	H	0.309986	-0.723411	0.382282
H109	H	0.373875	-0.724509	0.459009
C110	C	-0.324352	-1.118784	0.087793
C111	C	-0.400083	-1.171726	0.086617
C112	C	-0.382945	-1.254973	0.090387
H113	H	-0.294591	-1.127602	0.140477
H114	H	-0.291124	-1.130527	0.038449
H115	H	-0.433298	-1.159987	0.135956
H116	H	-0.429855	-1.162934	0.033938
H117	H	-0.349717	-1.266716	0.041044
H118	H	-0.353182	-1.263782	0.143072
H119	H	-0.434325	-1.290905	0.089582
C120	C	-0.446839	-0.841429	-0.080280
C121	C	-0.505229	-0.892442	-0.130735
C122	C	-0.528144	-0.847944	-0.204429
H123	H	-0.398329	-0.824701	-0.114819
H124	H	-0.471302	-0.793371	-0.061502
H125	H	-0.480764	-0.940484	-0.149514
H126	H	-0.553752	-0.909171	-0.096222
H127	H	-0.552608	-0.799887	-0.185651
H128	H	-0.479629	-0.831219	-0.238961
H129	H	-0.567770	-0.882547	-0.238667
H130	H	-0.457919	-0.993437	0.146271
H131	H	-0.441586	-0.853581	0.059355
H132	H	-0.297438	-0.855912	0.060099
H133	H	-0.471892	-1.092880	0.087550
C134	C	-0.482397	-1.117378	-0.083736
C135	C	-0.530115	-1.130963	-0.160749
C136	C	-0.569193	-1.213264	-0.161644
H137	H	-0.518172	-1.126410	-0.033908
H138	H	-0.440755	-1.154963	-0.081948
H139	H	-0.571752	-1.093390	-0.162529
H140	H	-0.494360	-1.121949	-0.210590
H141	H	-0.527551	-1.250848	-0.159856
H142	H	-0.604964	-1.222289	-0.111812
H143	H	-0.601568	-1.222494	-0.213900
C144	C	-0.305222	-0.987030	0.166778
C145	C	-0.342589	-1.027824	0.240708
C146	C	-0.307812	-0.989719	0.317266
H147	H	-0.315162	-0.930012	0.167650
H148	H	-0.246338	-0.990541	0.167696
H149	H	-0.401459	-1.024304	0.239791
H150	H	-0.332651	-1.084838	0.239866
H151	H	-0.248928	-0.993231	0.318184
H152	H	-0.317754	-0.932703	0.318129
H153	H	-0.333155	-1.017397	0.367437
C154	C	-0.306777	-0.984295	-0.166435
C155	C	-0.371631	-0.954269	-0.214656
C156	C	-0.338253	-0.913992	-0.290685
H157	H	-0.280430	-1.022704	-0.201442
H158	H	-0.266497	-0.938917	-0.150289
H159	H	-0.411897	-0.999641	-0.230804
H160	H	-0.397984	-0.915849	-0.179675
H161	H	-0.297972	-0.868615	-0.274538
H162	H	-0.311906	-0.952407	-0.325683
H163	H	-0.382249	-0.893608	-0.323407
C164	C	0.275105	-0.551721	0.000096
C165	C	0.340904	-0.486501	0.000124
C166	C	0.418057	-0.519765	0.000182
H167	H	0.279000	-0.585126	-0.050962
H168	H	0.278916	-0.585114	0.051190
H169	H	0.337094	-0.453123	-0.050965
H170	H	0.337037	-0.453091	0.051179
H171	H	0.421869	-0.553158	0.051276
H172	H	0.421944	-0.553170	-0.050878
H173	H	0.462712	-0.475519	0.000209
H174	H	-0.460513	-0.998306	-0.146186
