data_functionalizedCrystal
_audit_creation_method	'MofGen! by Chris Wilmer'
_symmetry_space_group_name_H-M	'P1'
_symmetry_Int_Tables_number	1
_symmetry_cell_setting	triclinic
loop_
_symmetry_equiv_pos_as_xyz
  x,y,z
_cell_length_a	10.654541
_cell_length_b	15.944551
_cell_length_c	9.130307
_cell_angle_alpha	89.995755
_cell_angle_beta	89.999822
_cell_angle_gamma	83.991333
loop_
_atom_site_label
_atom_site_type_symbol
_atom_site_fract_x
_atom_site_fract_y
_atom_site_fract_z
O1	O	1.666312	0.117965	-0.121758
O2	O	1.300688	0.129208	-0.121771
O3	O	1.493485	0.001369	-0.121751
O4	O	1.473516	0.245804	-0.121778
O5	O	1.493478	0.001368	0.121848
O6	O	1.300682	0.129206	0.121828
O7	O	1.666306	0.117964	0.121841
Cu8	Cu	1.483493	0.123585	0.144077
Cu9	Cu	1.483501	0.123587	-0.144007
O10	O	1.473509	0.245802	0.121821
C11	C	1.253897	0.128382	0.000027
C12	C	1.114486	0.125914	0.000022
C13	C	1.084537	0.278779	-0.000013
C14	C	1.004069	0.354048	-0.000036
C15	C	0.873081	0.351724	-0.000038
C16	C	0.822560	0.274122	-0.000011
C17	C	0.903028	0.198852	0.000012
C18	C	1.034017	0.201185	0.000009
C19	C	0.932976	0.045989	0.000058
C20	C	1.063965	0.048311	0.000049
C21	C	0.882455	-0.031613	0.000085
C22	C	0.962924	-0.106885	0.000098
C23	C	1.093919	-0.104557	0.000097
C24	C	1.144433	-0.026958	0.000072
C25	C	1.492652	-0.029930	0.000049
C26	C	1.490167	-0.123190	0.000049
C27	C	1.364722	-0.338772	0.000025
C28	C	1.422972	-0.399453	0.120136
C29	C	1.485671	-0.293942	0.000038
C30	C	1.423006	-0.399435	-0.120034
C31	C	1.481319	-0.458880	0.000021
C32	C	1.543954	-0.353395	0.120248
C33	C	1.543971	-0.353371	-0.120029
C34	C	1.602309	-0.414034	0.000111
C35	C	1.488175	-0.198925	0.000049
C36	C	1.478825	-0.553896	0.000020
C37	C	1.713097	0.118790	0.000040
C38	C	1.852508	0.121258	0.000035
C39	C	1.474342	0.277102	0.000018
C40	C	1.476827	0.370362	0.000008
N41	N	1.483497	0.123584	0.346700
N42	N	1.483507	0.123582	-0.346630
C43	C	1.654288	0.010416	0.346708
C44	C	1.739692	-0.046165	0.423378
C45	C	1.739704	-0.046166	0.576712
C46	C	1.654301	0.010420	0.653378
C47	C	1.568898	0.067001	0.576707
C48	C	1.568897	0.066997	0.423370
C49	C	1.398103	0.180163	0.576699
C50	C	1.398094	0.180169	0.423366
C51	C	1.312700	0.236748	0.653366
C52	C	1.227301	0.293335	0.576695
C53	C	1.227292	0.293334	0.423352
C54	C	1.312691	0.236750	0.346695
H55	H	0.715901	0.272236	0.000006
H56	H	1.702790	-0.446611	0.000183
H57	H	1.045218	0.417231	-0.000054
H58	H	0.921778	-0.170062	0.000118
O59	O	1.180707	-0.185743	0.000139
H60	H	1.241111	-0.188350	-0.099140
O61	O	1.831822	-0.107184	0.659421
H62	H	1.891213	-0.146527	0.580358
O63	O	1.831769	-0.107219	0.340694
H64	H	1.817413	-0.097720	0.221190
H65	H	1.654297	0.010418	0.221855
O66	O	1.611681	-0.326299	-0.254529
H67	H	1.561281	-0.344536	-0.354091
O68	O	1.355219	-0.426442	-0.254529
H69	H	1.420655	-0.470077	-0.320548
H70	H	1.191193	0.280679	-0.000044
H71	H	0.775797	-0.033501	0.000092
O72	O	1.654308	0.010422	0.818759
H73	H	1.728045	-0.038426	0.859193
O74	O	1.611656	-0.326526	0.254903
H75	H	1.709959	-0.357447	0.255207
H76	H	1.251088	-0.025055	0.000055
O77	O	1.231749	-0.295409	0.000168
H78	H	1.181840	-0.313746	0.100023
O79	O	1.312683	0.236740	0.181314
H80	H	1.332763	0.299611	0.140857
O81	O	1.312713	0.236758	0.818747
H82	H	1.386457	0.187916	0.859185
O83	O	1.135199	0.354364	0.659377
H84	H	1.149557	0.344858	0.778879
O85	O	1.355217	-0.426480	0.254647
H86	H	1.272770	-0.459036	0.220822
O87	O	0.786278	0.432903	-0.000066
H88	H	0.843408	0.487256	-0.000091
O89	O	1.135181	0.354363	0.340657
H90	H	1.075810	0.393710	0.419733
