data_functionalizedCrystal
_audit_creation_method	'MofGen! by Chris Wilmer'
_symmetry_space_group_name_H-M	'P1'
_symmetry_Int_Tables_number	1
_symmetry_cell_setting	triclinic
loop_
_symmetry_equiv_pos_as_xyz
  x,y,z
_cell_length_a	15.538191
_cell_length_b	15.995350
_cell_length_c	14.185569
_cell_angle_alpha	76.847063
_cell_angle_beta	97.875798
_cell_angle_gamma	65.382234
loop_
_atom_site_label
_atom_site_type_symbol
_atom_site_fract_x
_atom_site_fract_y
_atom_site_fract_z
O1	O	1.228538	-0.246460	-0.083440
O2	O	0.954280	-0.149782	-0.083436
O3	O	1.098906	-0.322287	-0.083437
O4	O	1.083912	-0.073955	-0.083439
O5	O	1.141630	-0.373243	0.083397
O6	O	0.997004	-0.200737	0.083399
O7	O	1.271262	-0.297416	0.083394
Cu8	Cu	1.138034	-0.253729	0.098629
Cu9	Cu	1.087508	-0.193468	-0.098671
O10	O	1.126635	-0.124910	0.083395
C11	C	0.940547	-0.165144	-0.000018
C12	C	0.835973	-0.135015	-0.000016
C13	C	1.119648	-0.378771	-0.000022
C14	C	1.117788	-0.471155	-0.000028
C15	C	0.548179	-0.434345	-0.000030
C16	C	0.449913	-0.406012	-0.000031
C17	C	0.427470	-0.246646	-0.000032
C18	C	0.525737	-0.274967	-0.000026
C19	C	0.586085	-0.368817	-0.000026
C20	C	0.563643	-0.209439	-0.000022
C21	C	0.661900	-0.237757	-0.000021
C22	C	0.722252	-0.331602	-0.000025
C23	C	0.684342	-0.397135	-0.000026
C24	C	0.503292	-0.115587	-0.000029
C25	C	0.541197	-0.050060	-0.000025
C26	C	0.639458	-0.078379	-0.000017
C27	C	0.699811	-0.172225	-0.000021
C28	C	0.677369	-0.012847	-0.000016
C29	C	0.775626	-0.041165	-0.000016
C30	C	0.798068	-0.200542	-0.000020
C31	C	1.111115	-0.806875	-0.000024
C32	C	1.008019	-0.728023	-0.000397
C33	C	1.009974	-0.632013	-0.000021
C34	C	1.114425	-0.640320	-0.000026
C35	C	1.189625	-0.725935	0.095241
C36	C	1.187058	-0.821808	0.095321
C37	C	1.140601	-0.764867	-0.094401
C38	C	1.140254	-0.667530	-0.095660
C39	C	1.116302	-0.546193	-0.000024
C40	C	1.109243	-0.901005	-0.000019
C41	C	1.284995	-0.282052	-0.000026
C42	C	1.389566	-0.312180	-0.000034
C43	C	1.105893	-0.068426	-0.000022
C44	C	1.107752	0.023960	-0.000023
N45	N	1.173578	-0.296116	0.237400
N46	N	1.051971	-0.151090	-0.237442
C47	C	0.947543	-0.026594	0.605052
C48	C	0.974474	-0.058698	0.710074
C49	C	1.102566	-0.211417	0.710033
C50	C	1.075643	-0.179328	0.605010
C51	C	0.998131	-0.086915	0.552528
C52	C	1.126231	-0.239649	0.552485
C53	C	1.099314	-0.207560	0.447471
C54	C	1.021807	-0.115150	0.394981
C55	C	0.971214	-0.054826	0.447514
C56	C	1.203747	-0.332059	0.604969
C57	C	1.254336	-0.392380	0.552445
C58	C	1.227413	-0.360294	0.447428
C59	C	1.149907	-0.267884	0.394939
C60	C	1.278007	-0.420618	0.394896
C61	C	1.251089	-0.388529	0.289882
C62	C	1.122989	-0.235795	0.289925
H63	H	0.847208	-0.276967	-0.000014
H64	H	0.733482	-0.473559	-0.000020
O65	O	0.925316	-0.000238	0.761211
C66	C	0.882760	-0.046007	0.821950
H67	H	0.924307	-0.127713	0.837663
H68	H	0.886791	-0.029108	0.895805
H69	H	0.802773	-0.018210	0.781499
H70	H	1.165679	-0.286660	0.752776
H71	H	0.492049	0.026355	-0.000029
H72	H	0.628218	0.063569	-0.000026
O73	O	1.230044	-0.363209	0.706981
C74	C	1.328449	-0.384049	0.742041
H75	H	1.349738	-0.341990	0.681515
H76	H	1.337074	-0.361943	0.812301
H77	H	1.378106	-0.465062	0.760659
H78	H	1.059865	-0.160547	0.247192
O79	O	1.229405	-0.674731	-0.102358
C80	C	1.270549	-0.655177	-0.020359
H81	H	1.236572	-0.669174	0.043987
H82	H	1.353168	-0.704361	0.005231
H83	H	1.255179	-0.576187	-0.043988
H84	H	0.949356	-0.713177	-0.068715
O85	O	0.812309	0.022592	0.000035
C86	C	0.737971	0.111505	0.000012
H87	H	0.679306	0.098686	0.031598
H88	H	0.770921	0.144259	0.048449
H89	H	0.703576	0.163466	-0.080026
H90	H	1.216377	-0.819511	-0.095045
H91	H	0.952551	-0.570596	-0.068312
H92	H	0.597319	-0.510769	-0.000024
O93	O	1.078483	-0.750826	-0.180643
C94	C	1.106917	-0.713139	-0.263695
H95	H	1.187837	-0.732873	-0.239710
H96	H	1.094814	-0.745162	-0.325274
H97	H	1.061092	-0.630911	-0.293261
O98	O	0.368977	-0.155498	0.000103
C99	C	0.408273	-0.140343	0.086525
H100	H	0.490181	-0.192364	0.115333
H101	H	0.396397	-0.062478	0.067097
H102	H	0.370018	-0.153932	0.147025
H103	H	1.263785	-0.878358	0.099639
O104	O	0.413260	-0.469805	0.000009
C105	C	0.487590	-0.558699	-0.000021
H106	H	0.562430	-0.565173	0.031569
H107	H	0.479449	-0.621046	0.048408
H108	H	0.480996	-0.561760	-0.080062
O109	O	1.353229	-0.510452	0.445777
C110	C	1.331328	-0.580856	0.420144
H111	H	1.275480	-0.546445	0.343905
H112	H	1.401206	-0.642477	0.416536
H113	H	1.299589	-0.610577	0.479260
O114	O	1.329505	-0.482204	0.603479
C115	C	1.294630	-0.537102	0.664254
H116	H	1.212237	-0.506306	0.632624
H117	H	1.333360	-0.615678	0.665437
H118	H	1.310092	-0.533714	0.743843
O119	O	0.980045	-0.761415	0.080732
C120	C	1.053219	-0.855765	0.137808
H121	H	1.126466	-0.867132	0.121600
H122	H	1.059562	-0.865331	0.221012
H123	H	1.032801	-0.911125	0.116964
O124	O	1.300090	-0.447028	0.238705
C125	C	1.234125	-0.464843	0.177936
H126	H	1.156367	-0.404381	0.162267
H127	H	1.254506	-0.467353	0.104062
H128	H	1.238159	-0.537199	0.218338
O129	O	0.982787	-0.609157	0.081561
C130	C	0.887218	-0.597850	0.077257
H131	H	0.870494	-0.639334	0.028060
H132	H	0.881842	-0.627395	0.156116
H133	H	0.832040	-0.517681	0.044116
H134	H	1.168250	-0.850603	0.166539
O135	O	0.407825	-0.088145	-0.000165
C136	C	0.359021	-0.095985	-0.086580
H137	H	0.414820	-0.150043	-0.115381
H138	H	0.303775	-0.122145	-0.067146
H139	H	0.319006	-0.022111	-0.147088
H140	H	1.267269	-0.736212	0.098780
H141	H	0.802256	-0.354653	-0.000038
O142	O	1.169030	-0.704993	0.179728
C143	C	1.086779	-0.613042	0.153047
H144	H	1.041452	-0.594646	0.074043
H145	H	1.039985	-0.613988	0.208156
H146	H	1.112388	-0.556137	0.155366
H147	H	1.085062	-0.607467	-0.166136
H148	H	0.999895	-0.089023	0.309472
H149	H	0.908089	0.020421	0.404781
H150	H	0.884419	0.048654	0.562320
