data_functionalizedCrystal
_audit_creation_method	'MofGen! by Chris Wilmer'
_symmetry_space_group_name_H-M	'P1'
_symmetry_Int_Tables_number	1
_symmetry_cell_setting	triclinic
loop_
_symmetry_equiv_pos_as_xyz
  x,y,z
_cell_length_a	6.817900
_cell_length_b	11.102183
_cell_length_c	12.200875
_cell_angle_alpha	92.492789
_cell_angle_beta	107.143593
_cell_angle_gamma	108.603876
loop_
_atom_site_label
_atom_site_type_symbol
_atom_site_fract_x
_atom_site_fract_y
_atom_site_fract_z
V1	V	-4.094459	-0.176127	-0.357659
O2	O	-4.053827	0.008167	-0.350853
O3	O	-4.071342	-0.348945	-0.355211
O4	O	-4.063799	-0.173548	-0.513647
O5	O	-4.061422	-0.168444	-0.191319
V6	V	-4.572512	-0.154068	-0.337764
O7	O	-4.367716	-0.224516	-0.401301
O8	O	-4.749452	-0.105680	-0.294122
O9	O	-4.372422	0.018750	-0.340212
O10	O	-4.730540	-0.338362	-0.344570
O11	O	-4.722945	-0.161751	-0.504103
O12	O	-4.379965	-0.156647	-0.181775
C13	C	-3.921919	-0.391070	-0.349568
C14	C	-3.984423	-0.532352	-0.348606
C15	C	-3.874090	-0.495905	-0.138500
C16	C	-3.848285	-0.544055	-0.032999
C17	C	-3.907021	-0.676802	-0.032102
C18	C	-3.991575	-0.761404	-0.136716
C19	C	-4.017381	-0.713254	-0.242217
C20	C	-3.958631	-0.580502	-0.243103
C21	C	-4.127728	-0.749702	-0.452321
C22	C	-4.068978	-0.616954	-0.453221
C23	C	-4.212282	-0.834304	-0.556936
C24	C	-4.238075	-0.786154	-0.662439
C25	C	-4.179330	-0.653398	-0.663332
C26	C	-4.094784	-0.568804	-0.558722
C27	C	-3.912296	-0.167333	-0.551668
C28	C	-3.968679	-0.166368	-0.679189
C29	C	-4.071869	-0.164603	-0.912664
C30	C	-4.014439	-0.165584	-0.782742
C31	C	-4.185187	0.060868	-0.345851
C32	C	-4.101922	0.202148	-0.346821
C33	C	-4.194809	-0.162867	-0.143749
C34	C	-4.117664	-0.163825	-0.016226
H35	H	-3.886012	-0.716004	0.053806
O36	O	-4.269520	-0.963293	-0.556278
C37	C	-4.414189	-1.173785	-0.670282
C38	C	-4.349522	-1.027736	-0.671192
H39	H	-4.478842	-1.225929	-0.763178
H40	H	-4.546838	-1.206816	-0.627934
H41	H	-4.264595	-1.196724	-0.619039
H42	H	-4.498981	-1.004688	-0.722448
H43	H	-4.216798	-0.994781	-0.713497
O44	O	-3.766396	-0.461750	0.068533
C45	C	-3.810732	-0.296917	0.184053
C46	C	-3.903669	-0.390039	0.069011
H47	H	-3.921699	-0.238934	0.184487
H48	H	-3.639464	-0.228803	0.193284
H49	H	-3.802300	-0.354152	0.259597
H50	H	-3.912248	-0.332910	-0.006602
H51	H	-4.074880	-0.458155	0.059880
H52	H	-4.306931	-0.855046	-0.747608
H53	H	-3.826199	-0.387811	-0.139219
H54	H	-4.039422	-0.869494	-0.135977
O55	O	-4.204456	-0.606840	-0.765918
C56	C	-4.320256	-0.657024	-0.974229
C57	C	-4.291862	-0.709913	-0.858131
H58	H	-4.390969	-0.740333	-1.048814
H59	H	-4.154482	-0.590870	-0.975599
H60	H	-4.436488	-0.600704	-0.984221
H61	H	-4.175716	-0.766292	-0.848064
H62	H	-4.457720	-0.775999	-0.856813
H63	H	-4.046915	-0.460711	-0.559438
