data_functionalizedCrystal
_audit_creation_method	'MofGen! by Chris Wilmer'
_symmetry_space_group_name_H-M	'P1'
_symmetry_Int_Tables_number	1
_symmetry_cell_setting	triclinic
loop_
_symmetry_equiv_pos_as_xyz
  x,y,z
_cell_length_a	23.532355
_cell_length_b	23.532357
_cell_length_c	11.804365
_cell_angle_alpha	101.747256
_cell_angle_beta	78.235620
_cell_angle_gamma	82.827896
loop_
_atom_site_label
_atom_site_type_symbol
_atom_site_fract_x
_atom_site_fract_y
_atom_site_fract_z
O1	O	0.766822	0.057447	-0.098874
O2	O	0.600957	0.067477	-0.098914
O3	O	0.688903	-0.020470	-0.098868
O4	O	0.678876	0.145393	-0.098920
O5	O	0.665750	0.002660	0.099175
O6	O	0.577804	0.090606	0.099130
O7	O	0.743669	0.080577	0.099170
Cu8	Cu	0.658623	0.087703	0.117233
Cu9	Cu	0.686003	0.060350	-0.116977
O10	O	0.655723	0.168523	0.099124
C11	C	0.568165	0.078790	0.000103
C12	C	0.504948	0.078034	0.000089
C13	C	0.100308	0.085910	0.108094
C14	C	0.040908	0.085193	0.108099
O15	O	-0.000543	0.095525	0.199908
N16	N	0.023820	0.072229	0.000146
C17	C	0.066137	0.059976	-0.107819
O18	O	0.046148	0.048883	-0.199642
C19	C	0.125536	0.060689	-0.107823
C20	C	0.142619	0.073659	0.000137
C21	C	0.117393	0.098879	0.216046
C22	C	0.176788	0.099597	0.216040
C23	C	0.219100	0.087346	0.108084
C24	C	0.202015	0.074377	0.000132
C25	C	0.167852	0.048432	-0.215787
C26	C	0.227254	0.049145	-0.215781
C27	C	0.244338	0.062116	-0.107821
C28	C	0.303722	0.062844	-0.107830
N29	N	0.320810	0.075808	0.000123
C30	C	0.278499	0.088059	0.108080
C31	C	-0.058606	0.058479	-0.107804
C32	C	-0.118005	0.057770	-0.107801
C33	C	-0.143229	0.082986	0.108117
C34	C	-0.083830	0.083699	0.108114
C35	C	-0.041518	0.071442	0.000150
C36	C	0.403235	0.089566	0.108061
C37	C	0.462636	0.090285	0.108046
C38	C	0.487856	0.065066	-0.107872
C39	C	0.428459	0.064350	-0.107858
C40	C	0.386149	0.076599	0.000118
O41	O	0.345206	0.052516	-0.199593
O42	O	0.298498	0.099143	0.199887
C43	C	0.677075	-0.030121	0.000157
C44	C	0.676319	-0.093338	0.000168
C45	C	0.684211	-0.497964	-0.107851
C46	C	0.683494	-0.557365	-0.107858
O47	O	0.693837	-0.598803	-0.199668
N48	N	0.670518	-0.574468	0.000094
C49	C	0.658252	-0.532166	0.108060
O50	O	0.647149	-0.552168	0.199882
C51	C	0.658964	-0.472767	0.108066
C52	C	0.671947	-0.455668	0.000107
C53	C	0.697192	-0.480865	-0.215801
C54	C	0.697909	-0.421469	-0.215794
C55	C	0.685645	-0.379173	-0.107836
C56	C	0.672665	-0.396272	0.000114
C57	C	0.646694	-0.430466	0.216031
C58	C	0.647408	-0.371063	0.216028
C59	C	0.660390	-0.353965	0.108068
C60	C	0.661118	-0.294580	0.108080
N61	N	0.674094	-0.277477	0.000127
C62	C	0.686358	-0.319773	-0.107830
C63	C	0.656756	-0.656910	0.108040
C64	C	0.656047	-0.716309	0.108036
C65	C	0.681288	-0.741503	-0.107883
C66	C	0.682001	-0.682103	-0.107877
C67	C	0.669732	-0.639807	0.000088
C68	C	0.687864	-0.195036	-0.107807
C69	C	0.688583	-0.135634	-0.107790
C70	C	0.663339	-0.110445	0.108128
C71	C	0.662623	-0.169842	0.108112
C72	C	0.674885	-0.212137	0.000135
O73	O	0.650779	-0.253109	0.199843
O74	O	0.697452	-0.299761	-0.199636
C75	C	0.776462	0.069263	0.000150
C76	C	0.839679	0.070018	0.000156
C77	C	0.667551	0.178174	0.000096
C78	C	0.668308	0.241390	0.000077
N79	N	0.639369	0.106942	0.281963
N80	N	0.705262	0.041107	-0.281708
C81	C	0.751498	-0.005104	0.655970
C82	C	0.766063	-0.019660	0.531316
C83	C	0.734390	0.011989	0.468972
C84	C	0.688151	0.058197	0.531294
C85	C	0.673587	0.072758	0.655960
C86	C	0.656480	0.089851	0.468962
C87	C	0.610240	0.136059	0.531284
C88	C	0.595679	0.150618	0.655938
C89	C	0.627351	0.118969	0.718282
C90	C	0.671043	0.075290	0.344295
C91	C	0.593133	0.153152	0.344285
C92	C	0.578568	0.167709	0.468940
H93	H	-0.024158	0.048503	-0.195727
C94	C	0.701356	-0.241555	-0.226581
C95	C	0.654878	-0.279095	-0.256316
C96	C	0.668374	-0.325613	-0.375090
C97	C	0.728348	-0.334592	-0.464128
C98	C	0.774829	-0.297051	-0.434395
C99	C	0.761333	-0.250533	-0.315622
H100	H	0.610479	-0.272449	-0.190403
H101	H	0.633965	-0.353404	-0.397099
H102	H	0.738338	-0.369028	-0.552051
H103	H	0.819229	-0.303697	-0.500309
H104	H	0.795742	-0.222742	-0.293612
C105	C	0.694773	-0.788037	-0.226640
C106	C	0.655821	-0.783509	-0.315714
C107	C	0.669306	-0.830044	-0.434462
C108	C	0.721742	-0.881107	-0.464136
C109	C	0.760698	-0.885638	-0.375060
C110	C	0.747213	-0.839102	-0.256312
H111	H	0.617002	-0.745707	-0.293749
H112	H	0.640468	-0.826690	-0.500402
H113	H	0.731724	-0.915556	-0.552041
H114	H	0.799517	-0.923440	-0.397025
H115	H	0.776051	-0.842456	-0.190372
H116	H	0.615491	0.130819	0.819786
H117	H	0.567343	0.178925	0.293526
H118	H	0.558032	0.188247	0.706681
H119	H	0.646766	-0.622474	0.195964
C120	C	0.481425	0.104547	0.226811
C121	C	0.456086	0.164307	0.315869
C122	C	0.474872	0.178565	0.434632
C123	C	0.518997	0.133063	0.464336
C124	C	0.544338	0.073299	0.375276
C125	C	0.525552	0.059041	0.256514
H126	H	0.423420	0.197993	0.293883
H127	H	0.456113	0.222806	0.500560
H128	H	0.532903	0.143618	0.552251
H129	H	0.577004	0.039613	0.397263
H130	H	0.544312	0.014800	0.190586
H131	H	0.692572	-0.668187	-0.195787
H132	H	0.368791	0.099546	0.195985
H133	H	0.540919	0.205333	0.519698
C134	C	-0.136792	0.043509	-0.226560
C135	C	-0.167395	-0.009913	-0.256244
C136	C	-0.186179	-0.024178	-0.375008
C137	C	-0.174360	0.014978	-0.464087
C138	C	-0.143756	0.068403	-0.434405
C139	C	-0.124972	0.082669	-0.315642
H140	H	-0.176145	-0.038902	-0.190300
H141	H	-0.208834	-0.063728	-0.396980
H142	H	-0.188265	0.004418	-0.552003
H143	H	-0.135006	0.097392	-0.500349
H144	H	-0.102317	0.122218	-0.293670
H145	H	0.746251	0.000135	0.367473
H146	H	0.190691	0.110155	0.303953
C147	C	0.273796	0.035666	-0.334548
C148	C	0.311339	0.082150	-0.364269
C149	C	0.357878	0.068673	-0.483034
C150	C	0.366874	0.008713	-0.572079
C151	C	0.329330	-0.037775	-0.542361
C152	C	0.282791	-0.024299	-0.423595
H153	H	0.304681	0.126540	-0.298351
H154	H	0.385671	0.103087	-0.505033
H155	H	0.401325	-0.001264	-0.659997
H156	H	0.335988	-0.082166	-0.608279
H157	H	0.254998	-0.058713	-0.401596
C158	C	0.070856	0.112358	0.334812
C159	C	0.061872	0.172321	0.423846
C160	C	0.015339	0.185807	0.542622
C161	C	-0.022210	0.139330	0.572364
C162	C	-0.013227	0.079364	0.483328
C163	C	0.033306	0.065878	0.364552
H164	H	0.089669	0.206729	0.401831
H165	H	0.008689	0.230198	0.608532
H166	H	-0.056657	0.149313	0.660288
H167	H	-0.041024	0.044955	0.505342
H168	H	0.039956	0.021486	0.298642
H169	H	0.637408	-0.336626	0.303948
H170	H	0.153955	0.037869	-0.303700
H171	H	0.699157	-0.121718	-0.195707
H172	H	0.803711	-0.057282	0.480578
C173	C	0.786336	-0.039913	0.724545
C174	C	0.770319	-0.023897	0.861665
C175	C	0.805162	-0.058710	0.930239
C176	C	0.856021	-0.109538	0.861693
C177	C	0.872040	-0.125557	0.724565
C178	C	0.837197	-0.090745	0.655991
H179	H	0.732668	0.013732	0.912414
H180	H	0.793303	-0.046851	1.031751
H181	H	0.881814	-0.135309	0.912456
H182	H	0.909691	-0.163186	0.673816
H183	H	0.849056	-0.102603	0.554479
H184	H	0.708479	-0.407553	-0.303706
H185	H	0.414549	0.053798	-0.195768
C186	C	0.721901	0.024461	0.275750
C187	C	0.719323	-0.038385	0.292919
C188	C	0.770183	-0.089218	0.224375
C189	C	0.823621	-0.077206	0.138662
C190	C	0.826201	-0.014357	0.121489
C191	C	0.775341	0.036477	0.190033
H192	H	0.679763	-0.047280	0.356373
H193	H	0.768273	-0.135743	0.237088
H194	H	0.861270	-0.114836	0.087921
H195	H	0.865761	-0.005462	0.058035
H196	H	0.777251	0.083002	0.177320
H197	H	0.652057	-0.183765	0.196021
C198	C	0.534407	0.051592	-0.226618
C199	C	0.585470	-0.000843	-0.256276
C200	C	0.632024	-0.014321	-0.375022
C201	C	0.627514	0.024635	-0.464110
C202	C	0.576449	0.077074	-0.434455
C203	C	0.529895	0.090552	-0.315709
H204	H	0.588811	-0.029685	-0.190326
H205	H	0.669827	-0.053140	-0.396974
H206	H	0.661976	0.014658	-0.552013
H207	H	0.573108	0.105915	-0.500405
H208	H	0.492093	0.129370	-0.293756
C209	C	0.710687	-0.527385	-0.334569
C210	C	0.770661	-0.536355	-0.423602
C211	C	0.784163	-0.582872	-0.542379
C212	C	0.737692	-0.620418	-0.572124
C213	C	0.677714	-0.611449	-0.483088
C214	C	0.664212	-0.564932	-0.364311
H215	H	0.805065	-0.508561	-0.401586
H216	H	0.828563	-0.589512	-0.608289
H217	H	0.747687	-0.654853	-0.660050
H218	H	0.643309	-0.639244	-0.505105
H219	H	0.619812	-0.558293	-0.298402
H220	H	0.636123	-0.444376	0.303943
C221	C	0.641774	-0.735111	0.226796
C222	C	0.588349	-0.765717	0.256489
C223	C	0.574072	-0.784515	0.375255
C224	C	0.613220	-0.772707	0.464327
C225	C	0.666649	-0.742099	0.434636
C226	C	0.680926	-0.723302	0.315871
H227	H	0.559366	-0.774460	0.190550
H228	H	0.534520	-0.807173	0.397233
H229	H	0.602651	-0.786622	0.552245
H230	H	0.695631	-0.733357	0.500575
H231	H	0.720477	-0.700644	0.293892
H232	H	-0.069926	0.094261	0.196025
H233	H	0.653357	-0.075998	0.196025
H234	H	-0.177690	0.092960	0.196022
