data_functionalizedCrystal
_audit_creation_method	'MofGen! by Chris Wilmer'
_symmetry_space_group_name_H-M	'P1'
_symmetry_Int_Tables_number	1
_symmetry_cell_setting	triclinic
loop_
_symmetry_equiv_pos_as_xyz
  x,y,z
_cell_length_a	17.038272
_cell_length_b	17.038272
_cell_length_c	15.500235
_cell_angle_alpha	93.045329
_cell_angle_beta	86.969189
_cell_angle_gamma	91.111556
loop_
_atom_site_label
_atom_site_type_symbol
_atom_site_fract_x
_atom_site_fract_y
_atom_site_fract_z
O1	O	1.052145	0.167125	-0.071836
O2	O	1.552145	0.667125	0.428164
O3	O	0.824335	0.164416	-0.071862
O4	O	1.324335	0.664416	0.428138
O5	O	0.936886	0.051865	-0.071842
O6	O	1.436886	0.551865	0.428158
O7	O	0.939594	0.279676	-0.071856
O8	O	1.439594	0.779676	0.428144
O9	O	0.930084	0.058694	0.072045
O10	O	1.430084	0.558694	0.572045
O11	O	0.817533	0.171245	0.072026
O12	O	1.317533	0.671245	0.572026
O13	O	1.045343	0.173954	0.072051
O14	O	1.545343	0.673954	0.572051
Cu15	Cu	0.930817	0.173223	0.085177
Cu16	Cu	1.430817	0.673223	0.585177
Cu17	Cu	0.938861	0.165147	-0.084987
Cu18	Cu	1.438861	0.665147	0.415013
O19	O	0.932792	0.286505	0.072032
O20	O	1.432792	0.786505	0.572032
C21	C	0.791641	0.165368	0.000079
C22	C	1.291641	0.665368	0.500079
C23	C	0.704358	0.158019	0.000069
C24	C	1.204358	0.658019	0.500069
C25	C	0.658749	0.225483	0.000066
C26	C	1.158749	0.725483	0.500066
C27	C	0.576737	0.218574	0.000078
C28	C	1.076737	0.718574	0.500078
C29	C	0.540335	0.144201	0.000088
C30	C	1.040335	0.644201	0.500088
C31	C	0.585950	0.076733	0.000094
C32	C	1.085950	0.576733	0.500094
C33	C	0.667961	0.083642	0.000088
C34	C	1.167961	0.583642	0.500088
C35	C	0.292946	0.119792	0.000112
C36	C	0.792946	0.619792	0.500112
C37	C	0.210929	0.112887	0.000116
C38	C	0.710929	0.612887	0.500116
C39	C	0.201721	0.254729	0.000102
C40	C	0.701721	0.754729	0.500102
C41	C	0.283734	0.261632	0.000091
C42	C	0.783734	0.761632	0.500091
C43	C	0.329342	0.194164	0.000101
C44	C	0.829342	0.694164	0.500101
C45	C	0.456505	0.137138	0.000098
C46	C	0.956505	0.637138	0.500098
C47	C	0.413170	0.201228	0.000098
C48	C	0.913170	0.701228	0.500098
C49	C	0.931022	0.025987	0.000101
C50	C	1.431022	0.525987	0.500101
C51	C	0.923674	-0.061297	0.000100
C52	C	1.423674	0.438703	0.500100
C53	C	0.991137	-0.106906	0.000108
C54	C	1.491137	0.393094	0.500108
C55	C	0.984229	-0.188918	0.000100
C56	C	1.484229	0.311082	0.500100
C57	C	0.909856	-0.225320	0.000088
C58	C	1.409856	0.274680	0.500088
C59	C	0.842388	-0.179705	0.000077
C60	C	1.342388	0.320295	0.500077
C61	C	0.849297	-0.097694	0.000080
C62	C	1.349297	0.402306	0.500080
C63	C	0.885446	-0.472708	0.000074
C64	C	1.385446	0.027292	0.500074
C65	C	0.878541	-0.554725	0.000074
C66	C	1.378541	-0.054725	0.500074
C67	C	1.020383	-0.563932	0.000094
C68	C	1.520383	-0.063932	0.500094
C69	C	1.027286	-0.481919	0.000102
C70	C	1.527286	0.018081	0.500102
C71	C	0.959818	-0.436312	0.000087
C72	C	1.459818	0.063688	0.500087
C73	C	0.902792	-0.309149	0.000082
C74	C	1.402792	0.190851	0.500082
C75	C	0.966882	-0.352484	0.000087
C76	C	1.466882	0.147516	0.500087
C77	C	1.078037	0.173003	0.000109
C78	C	1.578037	0.673003	0.500109
C79	C	1.165320	0.180351	0.000113
C80	C	1.665320	0.680351	0.500113
C81	C	0.938656	0.312383	0.000087
C82	C	1.438656	0.812383	0.500087
C83	C	0.946004	0.399667	0.000082
C84	C	1.446004	0.899667	0.500082
N85	N	0.925165	0.178904	0.204860
N86	N	1.425165	0.678904	0.704860
N87	N	0.944519	0.159461	-0.204671
N88	N	1.444519	0.659461	0.295329
C89	C	0.896814	0.207138	0.750043
C90	C	1.396814	0.707138	1.250043
C91	C	0.901107	0.202859	0.659471
C92	C	1.401107	0.702859	1.159471
C93	C	0.953109	0.150905	0.614187
C94	C	1.453109	0.650905	1.114187
C95	C	1.000815	0.103222	0.659479
C96	C	1.500815	0.603222	1.159479
C97	C	0.996518	0.107498	0.750050
C98	C	1.496518	0.607498	1.250050
C99	C	0.968574	0.135497	0.340723
C100	C	1.468574	0.635497	0.840723
C101	C	0.972869	0.131226	0.250146
C102	C	1.472869	0.631226	0.750146
C103	C	0.873160	0.230862	0.250144
C104	C	1.373160	0.730862	0.750144
C105	C	0.868871	0.235138	0.340717
C106	C	1.368871	0.735138	0.840717
C107	C	0.916574	0.187452	0.386001
C108	C	1.416574	0.687452	0.886001
C109	C	0.957500	0.146531	0.521608
C110	C	1.457500	0.646531	1.021608
C111	C	0.912179	0.191822	0.478579
C112	C	1.412179	0.691822	0.978579
H113	H	0.164579	0.309658	0.000096
H114	H	0.664579	0.809658	0.500096
H115	H	0.826527	0.277442	0.377585
H116	H	1.326527	0.777442	0.877585
O117	O	1.020041	0.084086	0.389562
O118	O	1.520041	0.584086	0.889562
H119	H	1.056933	0.047254	0.342854
H120	H	1.556933	0.547254	0.842854
H121	H	0.556305	0.016177	0.000114
H122	H	1.056305	0.516177	0.500114
H123	H	0.781832	-0.209350	0.000063
H124	H	1.281832	0.290650	0.500063
O125	O	0.342126	0.047022	0.000122
O126	O	0.842126	0.547022	0.500122
H127	H	0.382482	0.043989	-0.058520
H128	H	0.882482	0.543989	0.441480
O129	O	0.417240	0.056923	0.000101
O130	O	0.917240	0.556923	0.500101
H131	H	0.432420	0.027026	0.058750
H132	H	0.932420	0.527026	0.558750
H133	H	1.015218	0.088917	0.213280
H134	H	1.515218	0.588917	0.713280
O135	O	1.093146	-0.613127	0.000108
O136	O	1.593146	-0.113127	0.500108
H137	H	1.146022	-0.574036	0.000123
H138	H	1.646022	-0.074036	0.500123
H139	H	1.051699	-0.077273	0.000123
H140	H	1.551699	0.422727	0.500123
O141	O	1.107500	-0.442654	0.000114
O142	O	1.607500	0.057346	0.500114
H143	H	1.116807	-0.408283	-0.058527
H144	H	1.616807	0.091717	0.441473
H145	H	0.705095	0.028706	0.000090
H146	H	1.205095	0.528706	0.500090
O147	O	1.056881	0.047160	0.610644
O148	O	1.556881	0.547160	1.110644
H149	H	1.051853	0.052192	0.540056
H150	H	1.551853	0.552192	1.040056
H151	H	0.862262	0.241681	0.622600
H152	H	1.362262	0.741681	1.122600
H153	H	0.842237	-0.338796	0.000075
H154	H	1.342237	0.161204	0.500075
O155	O	0.698010	0.305700	0.000064
O156	O	1.198010	0.805700	0.500064
H157	H	0.652513	0.351450	0.000076
H158	H	1.152513	0.851450	0.500076
H159	H	0.817974	-0.584359	0.000078
H160	H	1.317974	-0.084359	0.500078
H161	H	0.869836	0.234120	0.515452
H162	H	1.369836	0.734120	1.015452
O163	O	0.821709	0.282287	0.201297
O164	O	1.321709	0.782287	0.701297
H165	H	0.784832	0.319135	0.248003
H166	H	1.284832	0.819135	0.748003
O167	O	0.812680	-0.423520	0.000079
O168	O	1.312680	0.076480	0.500079
H169	H	0.759805	-0.462613	0.000086
H170	H	1.259805	0.037387	0.500086
H171	H	0.442811	0.261782	0.000095
H172	H	0.942811	0.761782	0.500095
H173	H	1.039164	-0.226049	0.000108
H174	H	1.539164	0.273951	0.500108
O175	O	1.047980	0.056081	0.798895
O176	O	1.547980	0.556081	1.298895
H177	H	1.034741	-0.006635	0.781487
H178	H	1.534741	0.493365	1.281487
O179	O	0.776530	-0.048502	0.000075
O180	O	1.276530	0.451498	0.500075
H181	H	0.793829	0.014640	0.000070
H182	H	1.293829	0.514640	0.500070
O183	O	1.047099	-0.313231	0.000095
O184	O	1.547099	0.186769	0.500095
H185	H	1.050864	-0.273311	0.058746
H186	H	1.550864	0.226689	0.558746
H187	H	0.999842	0.104230	0.484730
H188	H	1.499842	0.604230	0.984730
O189	O	0.840740	0.263188	0.798885
O190	O	1.340740	0.763188	1.298885
H191	H	0.808289	0.295621	0.752174
H192	H	1.308289	0.795621	1.252174
H193	H	0.539605	0.273510	0.000075
H194	H	1.039605	0.773510	0.500075
H195	H	0.181294	0.052321	0.000123
H196	H	0.681294	0.552321	0.500123
O197	O	0.322996	0.341849	0.000103
O198	O	0.822996	0.841849	0.500103
H199	H	0.277501	0.387603	0.000116
H200	H	0.777501	0.887603	0.500116
