data_functionalizedCrystal
_audit_creation_method	'MofGen! by Chris Wilmer'
_symmetry_space_group_name_H-M	'P1'
_symmetry_Int_Tables_number	1
_symmetry_cell_setting	triclinic
loop_
_symmetry_equiv_pos_as_xyz
  x,y,z
_cell_length_a	17.699097
_cell_length_b	14.421503
_cell_length_c	17.699104
_cell_angle_alpha	89.996651
_cell_angle_beta	83.289974
_cell_angle_gamma	90.011209
loop_
_atom_site_label
_atom_site_type_symbol
_atom_site_fract_x
_atom_site_fract_y
_atom_site_fract_z
O1	O	1.004081	0.077191	0.095748
O2	O	0.783705	0.077176	0.108189
O3	O	0.900111	0.077175	-0.008219
O4	O	0.887675	0.077191	0.212156
O5	O	0.900092	-0.077048	-0.008202
O6	O	0.783686	-0.077048	0.108207
O7	O	1.004062	-0.077033	0.095765
Cu8	Cu	0.893872	-0.091122	0.101987
Cu9	Cu	0.893895	0.091265	0.101967
O10	O	0.887656	-0.077032	0.212174
C11	C	0.755499	0.000062	0.107751
C12	C	0.671481	0.000056	0.106408
N13	N	0.893862	-0.219403	0.102001
C14	C	0.155773	0.084160	0.098169
C15	C	0.234717	0.084156	0.099426
C16	C	0.274172	0.000085	0.100064
C17	C	0.234681	-0.083987	0.099439
C18	C	0.155739	-0.083982	0.098177
C19	C	0.553045	-0.084011	0.104526
C20	C	0.631992	-0.084010	0.105791
C21	C	0.632023	0.084126	0.105775
C22	C	0.553081	0.084132	0.104513
C23	C	0.513597	0.000060	0.103884
C24	C	0.427997	0.000066	0.102520
C25	C	0.359770	0.000078	0.101433
C26	C	0.840026	-0.469057	0.155805
C27	C	0.908390	-0.530854	0.170372
C28	C	0.893880	-0.408565	0.101983
C29	C	0.825534	-0.530862	0.087433
C30	C	0.893892	-0.591286	0.101968
C31	C	0.962278	-0.469001	0.116585
C32	C	0.879377	-0.469004	0.033616
C33	C	0.947791	-0.530772	0.048155
C34	C	0.893872	-0.303304	0.101994
C35	C	0.893907	-0.696545	0.101956
C36	C	1.032268	0.000083	0.096204
C37	C	1.116286	0.000095	0.097546
C38	C	0.899653	0.000063	-0.036407
C39	C	0.898308	0.000063	-0.120425
N40	N	0.893912	0.219546	0.101947
C41	C	0.959052	0.000093	-0.645293
C42	C	0.960311	0.000085	-0.566349
C43	C	0.891976	0.000078	-0.517735
C44	C	0.822378	0.000071	-0.548068
C45	C	0.821119	0.000072	-0.627010
C46	C	0.827451	0.000063	-0.229702
C47	C	0.828715	0.000064	-0.150754
C48	C	0.966642	0.000076	-0.169040
C49	C	0.965384	0.000078	-0.247983
C50	C	0.895786	0.000065	-0.278309
C51	C	0.894422	0.000072	-0.363909
C52	C	0.893340	0.000078	-0.432136
C53	C	0.888114	0.000082	0.240362
C54	C	0.889459	0.000088	0.324379
H55	H	0.123653	0.152621	0.097654
N56	N	0.277308	0.174826	0.100088
H57	H	0.240334	0.228085	0.099493
H58	H	0.303850	0.178493	0.147507
H59	H	0.770780	0.000064	-0.254383
H60	H	0.520960	0.152591	0.103997
N61	N	0.779761	-0.433166	0.216142
H62	H	0.804378	-0.393659	0.253546
H63	H	0.741796	-0.394672	0.191417
N64	N	0.113148	-0.174653	0.097501
H65	H	0.150191	-0.227910	0.097566
H66	H	0.074535	-0.178596	0.144146
N67	N	0.674555	-0.174688	0.106470
H68	H	0.701087	-0.178437	0.153894
H69	H	0.637523	-0.227896	0.105848
H70	H	0.766739	0.000060	-0.508480
H71	H	0.920667	-0.558021	0.228181
N72	N	0.277229	-0.174668	0.100129
H73	H	0.316202	-0.178423	0.053757
H74	H	0.303712	-0.178359	0.147585
H75	H	0.993388	-0.557700	0.002630
H76	H	0.664181	0.152581	0.106284
N77	N	0.746059	0.000058	-0.659726
H78	H	0.702959	0.000054	-0.616951
H79	H	0.742536	0.057229	-0.692086
N80	N	1.038866	-0.433170	0.132964
H81	H	1.038383	-0.363139	0.132891
H82	H	1.049906	-0.456282	0.184413
H83	H	0.867078	-0.441815	-0.024174
N84	N	0.510461	-0.174682	0.103850
H85	H	0.547503	-0.227939	0.103913
H86	H	0.471852	-0.178623	0.150498
N87	N	0.748971	-0.566865	0.071138
H88	H	0.708330	-0.544417	0.111835
H89	H	0.737659	-0.543396	0.019883
H90	H	1.014698	0.000106	-0.684870
H91	H	1.016980	0.000088	-0.541660
N92	N	1.039087	0.000087	-0.300417
H93	H	1.083367	0.000086	-0.269224
H94	H	1.041558	-0.057086	-0.333564
H95	H	1.023312	0.000099	-0.144340
N96	N	0.755008	0.000057	-0.098317
H97	H	0.710726	0.000047	-0.129507
H98	H	0.752525	-0.057115	-0.065161
