data_functionalizedCrystal
_audit_creation_method	'MofGen! by Chris Wilmer'
_symmetry_space_group_name_H-M	'P1'
_symmetry_Int_Tables_number	1
_symmetry_cell_setting	triclinic
loop_
_symmetry_equiv_pos_as_xyz
  x,y,z
_cell_length_a	10.685976
_cell_length_b	13.032721
_cell_length_c	13.034356
_cell_angle_alpha	90.866507
_cell_angle_beta	86.618628
_cell_angle_gamma	92.306968
loop_
_atom_site_label
_atom_site_type_symbol
_atom_site_fract_x
_atom_site_fract_y
_atom_site_fract_z
Zn1	Zn	1.937575	-0.471856	-0.527429
Zn2	Zn	1.885660	-0.662053	-0.380130
Zn3	Zn	1.701359	-0.477127	-0.368402
Zn4	Zn	1.707913	-0.627631	-0.561777
O5	O	1.808127	-0.559667	-0.459434
O6	O	2.103933	-0.509285	-0.498423
O7	O	1.836742	-0.654134	-0.236001
O8	O	1.751678	-0.333844	-0.370215
O9	O	2.065791	-0.649022	-0.390202
O10	O	1.925224	-0.329971	-0.487051
O11	O	1.701338	-0.518270	-0.227385
O12	O	1.528984	-0.484893	-0.403521
O13	O	1.762848	-0.590355	-0.699794
O14	O	1.533800	-0.595467	-0.545592
O15	O	1.931580	-0.475908	-0.674559
O16	O	1.843097	-0.800071	-0.423508
O17	O	1.712508	-0.774781	-0.556963
C18	C	1.486472	-0.537018	-0.477012
C19	C	1.348867	-0.527350	-0.484559
C20	C	1.772918	-0.824396	-0.495256
C21	C	1.757974	-0.937653	-0.510608
C22	C	1.816000	-1.000624	-0.451464
C23	C	1.800556	-1.117681	-0.467330
C24	C	2.131038	-0.582405	-0.441789
C25	C	2.268644	-0.592095	-0.434270
C26	C	1.853736	-0.528704	-0.725178
C27	C	1.873172	-0.515509	-0.838421
C28	C	1.843511	-0.293903	-0.423494
C29	C	1.858590	-0.180650	-0.408178
C30	C	1.818435	-0.552622	-1.018440
C31	C	1.798344	-0.566259	-0.901397
C32	C	1.762776	-0.590441	-0.194711
C33	C	1.743618	-0.603365	-0.081416
H34	H	1.312279	-0.464524	-0.533394
H35	H	1.952108	-0.461969	-0.871149
C36	C	1.925066	-0.480295	-1.062645
H37	H	1.969407	-0.450234	-1.007957
H38	H	1.890700	-0.427764	-1.100754
H39	H	1.980897	-0.518278	-1.106484
C40	C	1.941155	-1.136432	-0.323900
H41	H	1.975563	-1.191120	-0.288857
H42	H	1.891653	-1.096801	-0.276481
H43	H	2.007207	-1.094105	-0.354377
H44	H	1.305238	-0.654932	-0.385442
H45	H	1.877116	-0.967877	-0.389086
H46	H	1.739447	-1.150425	-0.529720
H47	H	1.696869	-0.970402	-0.572993
H48	H	1.719415	-0.619806	-0.868668
C49	C	1.636990	-0.675691	-1.037206
H50	H	1.637469	-0.675363	-0.964338
H51	H	1.648952	-0.743416	-1.062866
H52	H	1.558755	-0.652900	-1.057127
