data_functionalizedCrystal
_audit_creation_method	'MofGen! by Chris Wilmer'
_symmetry_space_group_name_H-M	'P1'
_symmetry_Int_Tables_number	1
_symmetry_cell_setting	triclinic
loop_
_symmetry_equiv_pos_as_xyz
  x,y,z
_cell_length_a	12.827893
_cell_length_b	14.908520
_cell_length_c	12.827885
_cell_angle_alpha	93.263516
_cell_angle_beta	89.980919
_cell_angle_gamma	93.320565
loop_
_atom_site_label
_atom_site_type_symbol
_atom_site_fract_x
_atom_site_fract_y
_atom_site_fract_z
Zn1	Zn	1.573615	-0.359115	-0.614811
Zn2	Zn	1.563402	-0.509998	-0.450142
Zn3	Zn	1.398853	-0.359159	-0.440088
Zn4	Zn	1.388739	-0.509931	-0.624838
O5	O	1.481152	-0.434551	-0.532470
O6	O	1.718495	-0.379139	-0.592979
O7	O	1.541533	-0.490036	-0.302575
O8	O	1.430542	-0.232908	-0.454862
O9	O	1.710992	-0.489993	-0.471997
O10	O	1.558939	-0.232876	-0.583230
O11	O	1.420640	-0.379214	-0.295189
O12	O	1.251276	-0.379149	-0.464585
O13	O	1.413304	-0.489879	-0.769741
O14	O	1.243845	-0.489921	-0.600319
O15	O	1.549132	-0.379074	-0.762374
O16	O	1.531726	-0.636234	-0.481719
O17	O	1.403401	-0.636184	-0.610068
C18	C	1.209643	-0.434533	-0.532450
C19	C	1.093489	-0.434548	-0.532467
C20	C	1.465386	-0.668943	-0.548095
C21	C	1.458737	-0.769217	-0.554815
C22	C	1.037998	-0.489317	-0.472512
C23	C	0.917946	-0.489333	-0.472528
C24	C	1.580004	-0.957632	-0.433900
C25	C	1.573760	-1.051849	-0.440210
C26	C	1.440011	-1.051867	-0.573750
C27	C	1.446255	-0.957651	-0.567440
C28	C	1.516253	-0.910537	-0.497511
C29	C	1.522491	-0.816319	-0.491196
C30	C	1.388748	-0.816339	-0.624741
C31	C	1.382504	-0.910555	-0.631051
C32	C	1.753721	-0.434569	-0.532491
C33	C	1.869874	-0.434576	-0.532500
C34	C	1.481229	-0.434464	-0.805034
C35	C	1.481262	-0.434427	-0.921185
C36	C	1.497008	-0.199243	-0.516806
C37	C	1.503765	-0.098969	-0.510132
C38	C	1.548481	-0.379587	-0.969324
C39	C	1.548516	-0.379547	-1.089372
C40	C	1.481140	-0.434572	-0.260961
C41	C	1.481327	-0.434355	-0.144794
H42	H	1.079366	-0.536198	-0.421173
H43	H	1.579483	-0.777959	-0.434255
H44	H	1.636991	-0.919271	-0.376954
H45	H	1.423733	-0.481343	-0.968846
H46	H	0.870239	-0.536221	-0.421196
H47	H	1.423778	-0.481311	-1.103389
H48	H	1.052120	-0.387672	-0.583814
H49	H	0.917575	-0.387680	-0.583828
H50	H	1.625675	-1.090190	-0.388413
H51	H	1.325517	-0.948929	-0.687987
H52	H	1.383030	-1.090244	-0.630689
H53	H	1.606000	-0.332662	-0.921662
H54	H	1.336834	-0.777983	-0.676535
H55	H	1.606069	-0.332600	-1.130784
