data_functionalizedCrystal
_audit_creation_method	'MofGen! by Chris Wilmer'
_symmetry_space_group_name_H-M	'P1'
_symmetry_Int_Tables_number	1
_symmetry_cell_setting	triclinic
loop_
_symmetry_equiv_pos_as_xyz
  x,y,z
_cell_length_a	17.699083
_cell_length_b	14.971486
_cell_length_c	13.448316
_cell_angle_alpha	90.006811
_cell_angle_beta	90.000733
_cell_angle_gamma	83.448572
loop_
_atom_site_label
_atom_site_type_symbol
_atom_site_fract_x
_atom_site_fract_y
_atom_site_fract_z
O1	O	-1.004356	-0.113113	-0.082553
O2	O	-0.504356	0.386887	0.417447
O3	O	-0.784014	-0.127829	-0.082586
O4	O	-0.284014	0.372171	0.417414
O5	O	-0.900091	0.009750	-0.082561
O6	O	-0.400091	0.509750	0.417439
O7	O	-0.888280	-0.250691	-0.082577
O8	O	-0.388280	0.249309	0.417423
O9	O	-0.900077	0.009758	0.082823
O10	O	-0.400077	0.509758	0.582823
O11	O	-0.784000	-0.127820	0.082798
O12	O	-0.284000	0.372180	0.582798
O13	O	-1.004342	-0.113104	0.082831
O14	O	-0.504342	0.386896	0.582831
Cu15	Cu	-0.894169	-0.120461	0.097915
Cu16	Cu	-0.394169	0.379539	0.597915
Cu17	Cu	-0.894187	-0.120471	-0.097670
Cu18	Cu	-0.394187	0.379529	0.402330
O19	O	-0.888265	-0.250683	0.082807
O20	O	-0.388265	0.249317	0.582807
C21	C	-0.899556	0.043077	0.000130
C22	C	-0.399556	0.543077	0.500130
C23	C	-0.897973	0.142368	0.000129
C24	C	-0.397973	0.642368	0.500129
C25	C	-0.755809	-0.127297	0.000102
C26	C	-0.255809	0.372703	0.500102
C27	C	-0.671787	-0.125715	0.000090
C28	C	-0.171787	0.374285	0.500090
C29	C	-1.032547	-0.113636	0.000141
C30	C	-0.532547	0.386364	0.500141
C31	C	-1.116569	-0.115218	0.000147
C32	C	-0.616569	0.384782	0.500147
C33	C	-0.623365	-0.206471	0.000085
C34	C	-0.123365	0.293529	0.500085
C35	C	-0.544418	-0.204979	0.000098
C36	C	-0.044418	0.295021	0.500098
C37	C	-0.513894	-0.122731	0.000109
C38	C	-0.013894	0.377269	0.500109
C39	C	-0.562323	-0.041969	0.000116
C40	C	-0.062323	0.458031	0.500116
C41	C	-0.641268	-0.043462	0.000111
C42	C	-0.141268	0.456538	0.500111
C43	C	-0.243945	-0.035947	0.000141
C44	C	0.256055	0.464053	0.500141
C45	C	-0.164993	-0.034461	0.000144
C46	C	0.335007	0.465539	0.500144
C47	C	-0.147094	-0.197465	0.000129
C48	C	0.352906	0.302535	0.500129
C49	C	-0.226040	-0.198958	0.000123
C50	C	0.273960	0.301042	0.500123
C51	C	-0.274461	-0.118196	0.000136
C52	C	0.225539	0.381804	0.500136
C53	C	-0.360064	-0.119815	0.000124
C54	C	0.139936	0.380185	0.500124
C55	C	-0.428293	-0.121111	0.000114
C56	C	0.071707	0.378889	0.500114
C57	C	-0.888801	-0.284010	0.000113
C58	C	-0.388801	0.215990	0.500113
C59	C	-0.890383	-0.383301	0.000108
C60	C	-0.390383	0.116699	0.500108
N61	N	-0.894163	-0.120454	0.235480
N62	N	-0.394163	0.379546	0.735480
C63	C	-0.966165	0.199828	0.000140
C64	C	-0.466165	0.699828	0.500140
C65	C	-0.964673	0.293123	0.000130
C66	C	-0.464673	0.793123	0.500130
C67	C	-0.894988	0.328955	0.000116
C68	C	-0.394988	0.828955	0.500116
C69	C	-0.826791	0.271488	0.000102
C70	C	-0.326791	0.771488	0.500102
C71	C	-0.828284	0.178196	0.000105
C72	C	-0.328284	0.678196	0.500105
C73	C	-0.823685	0.465940	0.000098
C74	C	-0.323685	0.965940	0.500098
C75	C	-0.822192	0.559239	0.000097
C76	C	-0.322192	1.059239	0.500097
C77	C	-0.960074	0.580867	0.000123
C78	C	-0.460074	1.080867	0.500123
C79	C	-0.961566	0.487574	0.000126
C80	C	-0.461566	0.987574	0.500126
C81	C	-0.893369	0.430114	0.000114
C82	C	-0.393369	0.930114	0.500114
N83	N	-0.894199	-0.120472	-0.235234
N84	N	-0.394199	0.379528	0.264766
C85	C	-0.945578	-0.059559	0.287531
C86	C	-0.445578	0.440441	0.787531
C87	C	-0.945582	-0.059558	0.391634
C88	C	-0.445582	0.440442	0.891634
C89	C	-0.894175	-0.120457	0.443684
C90	C	-0.394175	0.379543	0.943684
C91	C	-0.842755	-0.181355	0.391626
C92	C	-0.342755	0.318645	0.891626
C93	C	-0.842747	-0.181351	0.287525
C94	C	-0.342747	0.318649	0.787525
C95	C	-0.842776	-0.181361	0.608606
C96	C	-0.342776	0.318639	1.108606
C97	C	-0.842785	-0.181367	0.712715
C98	C	-0.342785	0.318633	1.212715
C99	C	-0.945611	-0.059569	0.712716
C100	C	-0.445611	0.440431	1.212716
C101	C	-0.945603	-0.059564	0.608614
C102	C	-0.445603	0.440436	1.108614
C103	C	-0.894184	-0.120463	0.556563
C104	C	-0.394184	0.379537	1.056563
H105	H	-0.648210	-0.273447	0.000076
H106	H	-0.148210	0.226553	0.500076
H107	H	-0.987448	-0.009973	0.434014
H108	H	-0.487448	0.490027	0.934014
F109	F	-0.132511	0.053083	0.000156
F110	F	0.367489	0.553083	0.500156
H111	H	-0.768151	0.419157	0.000086
H112	H	-0.268151	0.919157	0.500086
H113	H	-0.772754	0.131412	0.000096
H114	H	-0.272754	0.631412	0.500096
F115	F	-0.748025	0.597373	0.000083
F116	F	-0.248025	1.097373	0.500083
F117	F	-1.037252	0.354272	0.000143
F118	F	-0.537252	0.854272	0.500143
F119	F	-1.040334	0.161701	0.000164
F120	F	-0.540334	0.661701	0.500164
H121	H	-0.800879	-0.230936	0.245145
H122	H	-0.300879	0.269064	0.745145
H123	H	-0.107660	-0.263225	0.000124
H124	H	0.392340	0.236775	0.500124
H125	H	-1.018310	0.458403	0.000144
H126	H	-0.518310	0.958403	0.500144
H127	H	-0.770052	0.300671	0.000084
H128	H	-0.270052	0.800671	0.500084
H129	H	-0.800895	-0.230937	0.434011
H130	H	-0.300895	0.269063	0.934011
H131	H	-0.987478	-0.009982	0.755102
H132	H	-0.487478	0.490018	1.255102
F133	F	-0.692803	0.042490	0.000119
F134	F	-0.192803	0.542490	0.500119
F135	F	-1.032655	0.642022	0.000131
F136	F	-0.532655	1.142022	0.500131
F137	F	-1.000297	0.005255	0.232145
F138	F	-0.500297	0.505255	0.732145
H139	H	-0.283361	0.029814	0.000153
H140	H	0.216639	0.529814	0.500153
F141	F	-0.788046	-0.246175	0.553214
F142	F	-0.288046	0.253825	1.053214
H143	H	-0.987466	-0.009980	0.566235
H144	H	-0.487466	0.490020	1.066235
F145	F	-0.788069	-0.246183	0.768103
F146	F	-0.288069	0.253817	1.268103
H147	H	-0.504995	-0.270739	0.000093
H148	H	-0.004995	0.229261	0.500093
H149	H	-0.250887	-0.265933	0.000110
H150	H	0.249113	0.234067	0.500110
H151	H	-0.537465	0.024999	0.000139
H152	H	-0.037465	0.524999	0.500139
