data_functionalizedCrystal
_audit_creation_method	'MofGen! by Chris Wilmer'
_symmetry_space_group_name_H-M	'P1'
_symmetry_Int_Tables_number	1
_symmetry_cell_setting	triclinic
loop_
_symmetry_equiv_pos_as_xyz
  x,y,z
_cell_length_a	13.032831
_cell_length_b	12.594516
_cell_length_c	13.032268
_cell_angle_alpha	97.150744
_cell_angle_beta	89.113023
_cell_angle_gamma	97.168147
loop_
_atom_site_label
_atom_site_type_symbol
_atom_site_fract_x
_atom_site_fract_y
_atom_site_fract_z
Zn1	Zn	1.498367	0.718803	0.780851
Zn2	Zn	1.998367	1.218803	1.280851
Zn3	Zn	1.520085	0.877383	0.608875
Zn4	Zn	2.020085	1.377383	1.108875
Zn5	Zn	1.348233	0.674340	0.587091
Zn6	Zn	1.848233	1.174340	1.087091
Zn7	Zn	1.326334	0.871628	0.759000
Zn8	Zn	1.826334	1.371628	1.259000
O9	O	1.423255	0.785538	0.683954
O10	O	1.923255	1.285538	1.183954
O11	O	1.645165	0.760855	0.776300
O12	O	2.145165	1.260855	1.276300
O13	O	1.515542	0.834249	0.462068
O14	O	2.015542	1.334249	0.962068
O15	O	1.368224	0.531306	0.612822
O16	O	1.868224	1.031306	1.112822
O17	O	1.661121	0.877363	0.649949
O18	O	2.161121	1.377363	1.149949
O19	O	1.478527	0.563972	0.755177
O20	O	1.978527	1.063972	1.255177
O21	O	1.389283	0.685074	0.446064
O22	O	1.889283	1.185074	0.946064
O23	O	1.201410	0.679494	0.591634
O24	O	1.701410	1.179494	1.091634
O25	O	1.330901	0.867555	0.905816
O26	O	1.830901	1.367555	1.405816
O27	O	1.185321	0.824441	0.717935
O28	O	1.685321	1.324441	1.217935
O29	O	1.457293	0.755275	0.921870
O30	O	1.957293	1.255275	1.421870
O31	O	1.494307	1.025552	0.628761
O32	O	1.994307	1.525552	1.128761
O33	O	1.351959	1.021324	0.739057
O34	O	1.851959	1.521324	1.239057
C35	C	1.156050	0.746519	0.650050
C36	C	1.656050	1.246519	1.150050
C37	C	1.041735	0.729855	0.635570
C38	C	1.541735	1.229855	1.135570
C39	C	0.982849	0.794236	0.691512
C40	C	1.482849	1.294236	1.191512
C41	C	0.864699	0.777014	0.676547
C42	C	1.364699	1.277014	1.176547
C43	C	1.423139	1.062061	0.683928
C44	C	1.923139	1.562061	1.183928
C45	C	1.423179	1.180376	0.683963
C46	C	1.923179	1.680376	1.183963
C47	C	1.345743	1.247360	0.743902
C48	C	1.845743	1.747360	1.243902
C49	C	1.332599	1.303974	0.646882
C50	C	1.832599	1.803974	1.146882
C51	C	1.436377	1.334571	0.781004
C52	C	1.936377	1.834571	1.281004
C53	C	1.409992	1.235419	0.586887
C54	C	1.909992	1.735419	1.086887
C55	C	1.513806	1.266023	0.721078
C56	C	2.013806	1.766023	1.221078
C57	C	1.500705	1.322603	0.623998
C58	C	2.000705	1.822603	1.123998
C59	C	1.691503	0.824711	0.717992
C60	C	2.191503	1.324711	1.217992
C61	C	1.805814	0.841404	0.732497
C62	C	2.305814	1.341404	1.232497
C63	C	1.389232	0.815733	0.952202
C64	C	1.889232	1.315733	1.452202
C65	C	1.374733	0.828600	1.066514
C66	C	1.874733	1.328600	1.566514
C67	C	1.423351	1.507936	0.684000
C68	C	1.923351	2.007936	1.184000
C69	C	1.423277	1.389621	0.684001
C70	C	1.923277	1.889621	1.184001
C71	C	1.457204	0.755393	0.416758
C72	C	1.957204	1.255393	0.916758
C73	C	1.471902	0.742256	0.302472
C74	C	1.971902	1.242256	0.802472
C75	C	1.430806	0.778782	1.125420
C76	C	1.930806	1.278782	1.625420
C77	C	1.415822	0.792080	1.243567
C78	C	1.915822	1.292080	1.743567
H79	H	0.827647	0.709137	0.617575
H80	H	1.327647	1.209137	1.117575
Br81	Br	1.454919	1.406378	0.917759
Br82	Br	1.954919	1.906378	1.417759
H83	H	1.566241	1.355368	0.573259
H84	H	2.066241	1.855368	1.073259
H85	H	1.489900	0.726283	1.088385
H86	H	1.989900	1.226283	1.588385
H87	H	1.280181	1.214376	0.794495
H88	H	1.780181	1.714376	1.294495
Br89	Br	0.979984	0.616724	0.537283
Br90	Br	1.479984	1.116724	1.037283
H91	H	1.356713	0.844571	1.280597
H92	H	1.856713	1.344571	1.780597
Br93	Br	1.570426	0.654768	1.240765
Br94	Br	2.070426	1.154768	1.740765
Br95	Br	0.867554	0.954514	0.830818
Br96	Br	1.367554	1.454514	1.330818
Br97	Br	1.044599	0.907362	0.789804
Br98	Br	1.544599	1.407362	1.289804
Br99	Br	1.204933	1.332661	0.594573
Br100	Br	1.704933	1.832661	1.094573
Br101	Br	1.391306	1.163817	0.450070
Br102	Br	1.891306	1.663817	0.950070
H103	H	1.590377	1.248788	0.752485
H104	H	2.090377	1.748788	1.252485
Br105	Br	1.276219	0.916089	1.128229
Br106	Br	1.776219	1.416089	1.628229
