data_functionalizedCrystal
_audit_creation_method	'MofGen! by Chris Wilmer'
_symmetry_space_group_name_H-M	'P1'
_symmetry_Int_Tables_number	1
_symmetry_cell_setting	triclinic
loop_
_symmetry_equiv_pos_as_xyz
  x,y,z
_cell_length_a	16.109318
_cell_length_b	8.634740
_cell_length_c	14.586319
_cell_angle_alpha	89.998420
_cell_angle_beta	90.000075
_cell_angle_gamma	92.019435
loop_
_atom_site_label
_atom_site_type_symbol
_atom_site_fract_x
_atom_site_fract_y
_atom_site_fract_z
O1	O	1.119038	0.198328	-0.076159
O2	O	1.619038	0.698328	0.423841
O3	O	0.878955	0.222966	-0.076177
O4	O	1.378955	0.722966	0.423823
O5	O	0.987632	-0.013824	-0.076167
O6	O	1.487632	0.486176	0.423833
O7	O	1.010361	0.435119	-0.076170
O8	O	1.510361	0.935119	0.423830
O9	O	0.987623	-0.013828	0.076314
O10	O	1.487623	0.486172	0.576314
O11	O	0.878946	0.222963	0.076303
O12	O	1.378946	0.722963	0.576303
O13	O	1.119029	0.198325	0.076321
O14	O	1.619029	0.698325	0.576321
Cu15	Cu	0.998987	0.210644	0.090235
Cu16	Cu	1.498987	0.710644	0.590235
Cu17	Cu	0.998998	0.210648	-0.090091
Cu18	Cu	1.498998	0.710648	0.409909
O19	O	1.010352	0.435115	0.076311
O20	O	1.510352	0.935115	0.576311
C21	C	0.847896	0.221962	0.000061
C22	C	1.347896	0.721962	0.500061
C23	C	0.755360	0.218956	0.000054
C24	C	1.255360	0.718956	0.500054
C25	C	0.455512	0.209248	-0.083048
C26	C	0.955512	0.709248	0.416952
C27	C	0.542459	0.212063	-0.083053
C28	C	1.042459	0.712063	0.416947
C29	C	0.542466	0.212038	0.083190
C30	C	1.042466	0.712038	0.583190
C31	C	0.455521	0.209213	0.083194
C32	C	0.955521	0.709213	0.583194
C33	C	0.412046	0.207826	0.000073
C34	C	0.912046	0.707826	0.500073
C35	C	0.585938	0.213465	0.000063
C36	C	1.085938	0.713465	0.500063
C37	C	0.680210	0.216517	0.000057
C38	C	1.180210	0.716517	0.500057
C39	C	0.317768	0.204771	0.000078
C40	C	0.817768	0.704771	0.500078
C41	C	0.982478	-0.071274	0.000071
C42	C	1.482478	0.428726	0.500071
C43	C	0.967126	-0.242451	0.000066
C44	C	1.467126	0.257549	0.500066
C45	C	1.150089	0.199329	0.000081
C46	C	1.650089	0.699329	0.500081
C47	C	1.242624	0.202336	0.000082
C48	C	1.742624	0.702336	0.500082
C49	C	1.015506	0.492565	0.000070
C50	C	1.515506	0.992565	0.500070
C51	C	1.030858	0.663743	0.000070
C52	C	1.530858	1.163743	0.500070
N53	N	0.998985	0.210640	0.217067
N54	N	1.498985	0.710640	0.717067
N55	N	0.999005	0.210639	-0.216923
N56	N	1.499005	0.710639	0.283077
C57	C	1.047129	0.105824	0.452078
C58	C	1.547129	0.605824	0.952078
C59	C	1.047131	0.105820	0.548059
C60	C	1.547131	0.605820	1.048059
C61	C	0.950856	0.315460	0.548059
C62	C	1.450856	0.815460	1.048059
C63	C	0.950849	0.315455	0.452080
C64	C	1.450849	0.815455	0.952080
C65	C	0.998991	0.210639	0.404092
C66	C	1.498991	0.710639	0.904092
C67	C	0.998999	0.210640	0.596052
C68	C	1.498999	0.710640	1.096052
C69	C	0.999001	0.210637	0.700119
C70	C	1.499001	0.710637	1.200119
C71	C	0.998988	0.210640	0.300018
C72	C	1.498988	0.710640	0.800018
H73	H	0.420129	0.208053	0.150885
H74	H	0.920129	0.708053	0.650885
F75	F	0.588743	0.213526	0.171648
F76	F	1.088743	0.713526	0.671648
H77	H	0.900812	-0.293103	0.000055
H78	H	1.400812	0.206897	0.500055
H79	H	0.911661	0.400801	0.587141
H80	H	1.411661	0.900801	1.087141
F81	F	0.588715	0.213571	-0.171522
F82	F	1.088715	0.713571	0.328478
H83	H	1.097167	-0.285613	0.000043
H84	H	1.597167	0.214387	0.500043
H85	H	1.086327	0.020474	0.413008
H86	H	1.586327	0.520474	0.913008
H87	H	1.086328	0.020469	0.587127
H88	H	1.586328	0.520469	1.087127
H89	H	0.911646	0.400809	0.413007
H90	H	1.411646	0.900809	0.913007
H91	H	0.420117	0.208117	-0.150730
H92	H	0.920117	0.708117	0.349270
