data_functionalizedCrystal
_audit_creation_method	'MofGen! by Chris Wilmer'
_symmetry_space_group_name_H-M	'P1'
_symmetry_Int_Tables_number	1
_symmetry_cell_setting	triclinic
loop_
_symmetry_equiv_pos_as_xyz
  x,y,z
_cell_length_a	10.654541
_cell_length_b	26.809956
_cell_length_c	10.654545
_cell_angle_alpha	89.993258
_cell_angle_beta	84.484678
_cell_angle_gamma	90.007562
loop_
_atom_site_label
_atom_site_type_symbol
_atom_site_fract_x
_atom_site_fract_y
_atom_site_fract_z
O1	O	1.667854	0.041461	0.176367
O2	O	1.302375	0.041466	0.193176
O3	O	1.493517	0.041463	0.002032
O4	O	1.476713	0.041464	0.367511
O5	O	1.493481	-0.041496	0.002061
O6	O	1.302339	-0.041494	0.193205
O7	O	1.667818	-0.041498	0.176396
Zn8	Zn	1.485073	-0.054667	0.184805
Zn9	Zn	1.485121	0.054635	0.184767
O10	O	1.476677	-0.041495	0.367540
C11	C	1.255559	-0.000013	0.191957
C12	C	1.116116	-0.000012	0.188266
N13	N	1.485050	-0.129263	0.184831
C14	C	1.088146	-0.000005	0.416831
C15	C	1.008652	0.000000	0.529374
C16	C	0.877634	0.000001	0.525898
C17	C	0.826108	-0.000006	0.409867
C18	C	0.905602	-0.000011	0.297324
C19	C	1.036622	-0.000010	0.300812
C20	C	0.933572	-0.000021	0.068763
C21	C	1.064590	-0.000018	0.072235
C22	C	0.882046	-0.000028	-0.047269
C23	C	0.961540	-0.000030	-0.159814
C24	C	1.092565	-0.000030	-0.156334
C25	C	1.144084	-0.000024	-0.040308
C26	C	1.569747	-0.473890	0.100149
C27	C	1.569777	-0.682768	0.100130
O28	O	1.641739	-0.709773	0.028138
N29	N	1.485127	-0.708890	0.184739
C30	C	1.400458	-0.682790	0.269353
O31	O	1.328450	-0.709801	0.341309
C32	C	1.400424	-0.473913	0.269365
C33	C	1.485088	-0.447794	0.184759
C34	C	1.654404	-0.447771	0.015550
C35	C	1.654400	-0.395555	0.015560
C36	C	1.569740	-0.369458	0.100170
C37	C	1.485084	-0.395577	0.184769
C38	C	1.315750	-0.447814	0.353972
C39	C	1.315747	-0.395591	0.353965
C40	C	1.400411	-0.369472	0.269359
C41	C	1.400421	-0.317264	0.269390
N42	N	1.485071	-0.291142	0.184781
C43	C	1.569730	-0.317239	0.100171
C44	C	1.400484	-0.792453	0.269343
C45	C	1.400494	-0.844672	0.269342
C46	C	1.569812	-0.844647	0.100117
C47	C	1.569807	-0.792427	0.100125
C48	C	1.485134	-0.766331	0.184734
C49	C	1.569717	-0.207581	0.100199
C50	C	1.569709	-0.155360	0.100221
C51	C	1.400388	-0.155390	0.269440
C52	C	1.400400	-0.207606	0.269424
C53	C	1.485069	-0.233701	0.184793
O54	O	1.328487	-0.290227	0.341334
O55	O	1.641709	-0.290218	0.028207
C56	C	1.569751	-0.526107	0.100139
C57	C	1.485095	-0.552226	0.184739
C58	C	1.400435	-0.526130	0.269349
C59	C	1.485105	-0.604445	0.184738
C60	C	1.569765	-0.630542	0.100128
C61	C	1.654414	-0.604420	0.015519
C62	C	1.654411	-0.552203	0.015529
C63	C	1.315785	-0.552252	0.353958
C64	C	1.315797	-0.604468	0.353941
C65	C	1.400457	-0.630565	0.269332
C66	C	1.714634	-0.000018	0.177615
C67	C	1.854078	-0.000016	0.181306
C68	C	1.492265	-0.000016	-0.044751
C69	C	1.488572	-0.000013	-0.184195
N70	N	1.485154	0.129231	0.184732
C71	C	1.488627	0.090432	-0.184235
C72	C	1.486924	0.135654	-0.249765
C73	C	1.483455	0.135655	-0.380783
C74	C	1.481685	0.090428	-0.446275
C75	C	1.483388	0.045206	-0.380745
C76	C	1.486861	0.045211	-0.249723
C77	C	1.483324	-0.045237	-0.380704
C78	C	1.486802	-0.045239	-0.249686
C79	C	1.481554	-0.090464	-0.446195
C80	C	1.483266	-0.135687	-0.380666
C81	C	1.486736	-0.135686	-0.249639
C82	C	1.488505	-0.090461	-0.184156
C83	C	1.477929	-0.000016	0.414323
C84	C	1.481621	-0.000015	0.553766
H85	H	1.194826	0.000006	0.419672
H86	H	1.723353	-0.625676	-0.053370
H87	H	1.157283	-0.000036	-0.247981
H88	H	1.638747	-0.865903	0.031226
H89	H	0.919576	-0.000034	-0.254278
F90	F	1.488541	-0.183818	-0.179906
F91	F	1.659832	-0.235345	0.010125
F92	F	1.477970	0.090432	-0.585714
H93	H	1.331566	-0.865935	0.338248
H94	H	0.812909	0.000002	0.617541
H95	H	1.491337	-0.090456	-0.077474
F96	F	0.686666	-0.000013	0.406174
H97	H	1.050619	0.000004	0.623844
F98	F	1.477850	-0.090462	-0.585636
H99	H	1.723344	-0.469014	-0.053356
F100	F	0.742604	-0.000030	-0.050965
F101	F	1.283523	-0.000021	-0.036594
H102	H	1.638747	-0.771163	0.031231
F103	F	1.225637	-0.475603	0.444019
H104	H	1.638657	-0.134095	0.031324
H105	H	1.246792	-0.374347	0.422863
H106	H	1.723337	-0.374291	-0.053337
H107	H	1.491466	0.090436	-0.077554
H108	H	1.488364	0.172477	-0.196427
H109	H	1.331532	-0.771210	0.338245
F110	F	1.310303	-0.235404	0.359485
F111	F	1.310293	-0.127608	0.359487
H112	H	1.723352	-0.530941	-0.053365
H113	H	1.246844	-0.531008	0.422856
F114	F	1.225686	-0.632261	0.444003
F115	F	1.481368	-0.183815	-0.450371
F116	F	1.481633	0.183785	-0.450526
