data_functionalizedCrystal
_audit_creation_method	'MofGen! by Chris Wilmer'
_symmetry_space_group_name_H-M	'P1'
_symmetry_Int_Tables_number	1
_symmetry_cell_setting	triclinic
loop_
_symmetry_equiv_pos_as_xyz
  x,y,z
_cell_length_a	34.490303
_cell_length_b	34.489386
_cell_length_c	34.485816
_cell_angle_alpha	60.004462
_cell_angle_beta	60.008900
_cell_angle_gamma	59.994399
loop_
_atom_site_label
_atom_site_type_symbol
_atom_site_fract_x
_atom_site_fract_y
_atom_site_fract_z
O1	O	0.053846	-0.566517	0.473678
O2	O	0.553846	-0.066517	0.973678
O3	O	0.020329	-0.441078	0.381663
O4	O	0.520329	0.058922	0.881663
O5	O	0.099768	-0.520436	0.381578
O6	O	0.599768	-0.020436	0.881578
O7	O	-0.025592	-0.487159	0.473762
O8	O	0.474408	0.012841	0.973762
O9	O	0.126127	-0.494082	0.407849
O10	O	0.626127	0.005918	0.907849
O11	O	0.046689	-0.414724	0.407933
O12	O	0.546689	0.085276	0.907933
O13	O	0.080206	-0.540163	0.499949
O14	O	0.580206	-0.040163	0.999949
Zn15	Zn	0.067632	-0.473259	0.458112
Zn16	Zn	0.567632	0.026741	0.958112
Zn17	Zn	0.032903	-0.507982	0.423499
Zn18	Zn	0.532903	-0.007982	0.923499
O19	O	0.000767	-0.460805	0.500033
O20	O	0.500767	0.039195	1.000033
N21	N	0.091336	-0.449565	0.481736
N22	N	0.591336	0.050435	0.981736
N23	N	0.009203	-0.531680	0.399875
N24	N	0.509203	-0.031680	0.899875
C25	C	0.142510	-0.268211	0.532817
C26	C	0.642510	0.231789	1.032817
C27	C	0.142641	-0.398441	0.662987
C28	C	0.642641	0.101559	1.162987
C29	C	0.142524	-0.398421	0.532817
C30	C	0.642524	0.101579	1.032817
C31	C	0.272762	-0.398394	0.532723
C32	C	0.772762	0.101606	1.032723
C33	C	0.156853	-0.311177	0.547124
C34	C	0.656853	0.188823	1.047124
C35	C	0.156928	-0.384109	0.620020
C36	C	0.656928	0.115891	1.120020
C37	C	0.229794	-0.384081	0.547073
C38	C	0.729794	0.115919	1.047073
C39	C	0.156863	-0.384097	0.547124
C40	C	0.656863	0.115903	1.047124
C41	C	0.124253	-0.213522	0.514606
C42	C	0.624253	0.286478	1.014606
C43	C	0.124277	-0.416652	0.514606
C44	C	0.624277	0.083348	1.014606
C45	C	0.175110	-0.365866	0.565335
C46	C	0.675110	0.134134	1.065335
C47	C	0.352285	-0.384669	0.490824
C48	C	0.852285	0.115331	0.990824
C49	C	0.401998	-0.401229	0.474223
C50	C	0.901998	0.098771	0.974223
C51	C	0.402027	-0.481671	0.504898
C52	C	0.902027	0.018329	1.004898
C53	C	0.352316	-0.465109	0.521500
C54	C	0.852316	0.034891	1.021500
C55	C	0.136220	-0.188652	0.465734
C56	C	0.636220	0.311348	0.965734
C57	C	0.119621	-0.138936	0.449181
C58	C	0.619621	0.361064	0.949181
C59	C	0.079092	-0.138961	0.530374
C60	C	0.579092	0.361039	1.030374
C61	C	0.095691	-0.188678	0.546927
C62	C	0.595691	0.311322	1.046927
C63	C	0.075398	-0.404656	0.526651
C64	C	0.575398	0.095344	1.026651
C65	C	0.058814	-0.421229	0.510091
C66	C	0.558814	0.078771	1.010091
C67	C	0.139984	-0.461794	0.469452
C68	C	0.639984	0.038206	0.969452
C69	C	0.156570	-0.445221	0.486007
C70	C	0.656570	0.054779	0.986007
C71	C	0.075593	-0.404694	0.742565
C72	C	0.575593	0.095306	1.242565
C73	C	0.059066	-0.421281	0.792280
C74	C	0.559066	0.078719	1.292280
C75	C	0.140274	-0.461856	0.792215
C76	C	0.640274	0.038144	1.292215
C77	C	0.156800	-0.445269	0.742499
C78	C	0.656800	0.054731	1.242499
C79	C	0.124458	-0.416687	0.717675
C80	C	0.624458	0.083313	1.217675
C81	C	0.327446	-0.416608	0.514460
C82	C	0.827446	0.083392	1.014460
C83	C	-0.023585	-0.564792	0.161919
C84	C	0.476415	-0.064792	0.661919
C85	C	-0.023910	-0.769260	0.366530
C86	C	0.476090	-0.269260	0.866530
C87	C	-0.023880	-0.564780	0.366623
C88	C	0.476120	-0.064780	0.866623
C89	C	-0.228325	-0.564561	0.366222
C90	C	0.271675	-0.064561	0.866222
C91	C	-0.129610	-0.597564	0.333467
C92	C	0.370390	-0.097564	0.833467
C93	C	-0.056729	-0.597644	0.333613
C94	C	0.443271	-0.097644	0.833613
C95	C	-0.074925	-0.615849	0.315324
C96	C	0.425075	-0.115849	0.815324
C97	C	-0.088689	-0.695351	0.357144
C98	C	0.411311	-0.195351	0.857144
C99	C	-0.072155	-0.745068	0.373736
C100	C	0.427845	-0.245068	0.873736
C101	C	0.008283	-0.745150	0.343188
C102	C	0.508283	-0.245150	0.843188
C103	C	-0.008252	-0.695435	0.326596
C104	C	0.491748	-0.195435	0.826596
C105	C	-0.154529	-0.609541	0.382326
C106	C	0.345471	-0.109541	0.882326
C107	C	-0.204241	-0.592916	0.398818
C108	C	0.295759	-0.092916	0.898818
C109	C	-0.204114	-0.552341	0.317588
C110	C	0.295886	-0.052341	0.817588
C111	C	-0.154401	-0.568966	0.301096
C112	C	0.345599	-0.068966	0.801096
C113	C	-0.068707	-0.548770	0.321590
C114	C	0.431293	-0.048770	0.821590
C115	C	-0.052166	-0.532225	0.338221
C116	C	0.447834	-0.032225	0.838221
C117	C	-0.011669	-0.613425	0.378886
C118	C	0.488331	-0.113425	0.878886
C119	C	-0.028210	-0.629972	0.362261
C120	C	0.471790	-0.129972	0.862261
C121	C	-0.068581	-0.548777	0.235758
C122	C	0.431419	-0.048777	0.735758
C123	C	-0.051939	-0.532234	0.186043
C124	C	0.448061	-0.032234	0.686043
C125	C	-0.011379	-0.613438	0.186090
C126	C	0.488621	-0.113438	0.686090
C127	C	-0.028020	-0.629981	0.235806
C128	C	0.471980	-0.129981	0.735806
C129	C	-0.056622	-0.597649	0.260639
C130	C	0.443378	-0.097649	0.760639
C131	C	-0.056739	-0.670537	0.333576
C132	C	0.443261	-0.170537	0.833576
C133	C	-0.005614	-0.545951	0.107238
C134	C	0.494386	-0.045951	0.607238
C135	C	-0.006360	-0.823943	0.385033
C136	C	0.493640	-0.323943	0.885033
C137	C	-0.005995	-0.545937	0.384582
C138	C	0.494005	-0.045937	0.884582
C139	C	-0.283006	-0.545971	0.383725
C140	C	0.216994	-0.045971	0.883725
N141	N	0.426163	-0.449489	0.481488
N142	N	0.926163	0.050511	0.981488
O143	O	0.588601	-0.457377	0.364497
O144	O	1.088601	0.042623	0.864497
O145	O	0.588789	-0.549696	0.489801
O146	O	1.088789	-0.049696	0.989801
O147	O	0.588709	-0.549485	0.410335
O148	O	1.088709	-0.049485	0.910335
O149	O	0.588681	-0.457588	0.443963
O150	O	1.088681	0.042412	0.943963
O151	O	0.509731	-0.523223	0.436741
O152	O	1.009731	-0.023223	0.936741
O153	O	0.509811	-0.523434	0.516207
O154	O	1.009811	-0.023434	1.016207
O155	O	0.509624	-0.431115	0.390903
O156	O	1.009624	0.068885	0.890903
Zn157	Zn	0.497178	-0.473105	0.457747
Zn158	Zn	0.997178	0.026895	0.957747
Zn159	Zn	0.601234	-0.507706	0.422956
Zn160	Zn	1.101234	-0.007706	0.922956
O161	O	0.509704	-0.431326	0.470368
O162	O	1.009704	0.068674	0.970368
N163	N	0.672250	-0.531322	0.399211
N164	N	1.172250	-0.031322	0.899211
N165	N	0.091303	-0.114798	0.481730
N166	N	0.591303	0.385202	0.981730
O167	O	-0.025603	0.047729	0.473733
O168	O	0.474397	0.547729	0.973733
O169	O	0.099703	0.047764	0.381394
O170	O	0.599703	0.547764	0.881394
O171	O	0.020199	0.047731	0.381655
O172	O	0.520199	0.547731	0.881655
O173	O	0.053901	0.047761	0.473472
O174	O	0.553901	0.547761	0.973472
O175	O	0.046564	-0.031252	0.407974
O176	O	0.546564	0.468748	0.907974
O177	O	0.126068	-0.031219	0.407713
O178	O	0.626068	0.468781	0.907713
O179	O	0.000762	-0.031254	0.500052
O180	O	0.500762	0.468746	1.000052
Zn181	Zn	0.067601	-0.043777	0.458061
Zn182	Zn	0.567601	0.456223	0.958061
Zn183	Zn	0.032864	0.060287	0.423385
Zn184	Zn	0.532864	0.560287	0.923385
O185	O	0.080266	-0.031222	0.499791
O186	O	0.580266	0.468778	0.999791
N187	N	0.009156	0.131307	0.399717
N188	N	0.509156	0.631307	0.899717
N189	N	0.091635	-0.449614	0.816396
N190	N	0.591635	0.050386	1.316396
O191	O	0.083664	-0.566502	0.978913
O192	O	0.583664	-0.066502	1.478913
O193	O	-0.008637	-0.441152	0.978954
O194	O	0.491363	0.058848	1.478954
O195	O	-0.008421	-0.520640	0.978930
O196	O	0.491579	-0.020640	1.478930
O197	O	0.083448	-0.487013	0.978936
O198	O	0.583448	0.012987	1.478936
O199	O	0.017877	-0.494296	0.899950
O200	O	0.517877	0.005704	1.399950
O201	O	0.017661	-0.414807	0.899974
O202	O	0.517661	0.085193	1.399974
O203	O	0.109961	-0.540157	0.899933
O204	O	0.609961	-0.040157	1.399933
Zn205	Zn	0.067986	-0.473299	0.887414
Zn206	Zn	0.567986	0.026701	1.387414
Zn207	Zn	0.033338	-0.508010	0.991473
Zn208	Zn	0.533338	-0.008010	1.491473
O209	O	0.109746	-0.460669	0.899956
O210	O	0.609746	0.039331	1.399956
N211	N	0.009689	-0.531700	1.062491
N212	N	0.509689	-0.031700	1.562491
C213	C	0.030367	-0.412095	0.382120
C214	C	0.530367	0.087905	0.882120
C215	C	0.128741	-0.510370	0.382016
C216	C	0.628741	-0.010370	0.882016
C217	C	0.070168	-0.569147	0.499490
C218	C	0.570168	-0.069147	0.999490
C219	C	-0.028207	-0.470871	0.499595
C220	C	0.471793	0.029129	0.999595
C221	C	0.549323	-0.549278	0.518791
C222	C	1.049323	-0.049278	1.018791
C223	C	0.549225	-0.549017	0.420381
C224	C	1.049225	-0.049017	0.920381
C225	C	0.549087	-0.431532	0.361914
C226	C	1.049087	0.068468	0.861914
C227	C	0.549188	-0.431794	0.460322
C228	C	1.049188	0.068206	0.960322
C229	C	0.128638	0.008374	0.381806
C230	C	0.628638	0.508374	0.881806
C231	C	0.030215	0.008236	0.382161
C232	C	0.530215	0.508236	0.882161
C233	C	-0.028206	0.008233	0.499608
C234	C	0.471794	0.508233	0.999608
C235	C	0.070250	0.008272	0.499285
C236	C	0.570250	0.508272	0.999285
C237	C	-0.008199	-0.412187	0.939469
C238	C	0.491801	0.087813	1.439469
C239	C	-0.007927	-0.510619	0.939425
C240	C	0.492073	-0.010619	1.439425
C241	C	0.109523	-0.569121	0.939417
C242	C	0.609523	-0.069121	1.439417
C243	C	0.109257	-0.470684	0.939444
C244	C	0.609257	0.029316	1.439444
H245	H	0.049253	-0.381417	0.722357
H246	H	0.549253	0.118583	1.222357
H247	H	0.549237	-0.577886	0.413185
H248	H	1.049237	-0.077886	0.913185
H249	H	0.164551	0.008603	0.352745
H250	H	0.664551	0.508603	0.852745
O251	O	0.021541	0.008193	0.347809
O252	O	0.521541	0.508193	0.847809
C253	C	-0.034905	0.008164	0.326133
C254	C	0.465095	0.508164	0.826133
C255	C	-0.025145	0.008212	0.365079
C256	C	0.474855	0.508212	0.865079
H257	H	-0.072653	0.008189	0.340078
H258	H	0.427347	0.508189	0.840078
H259	H	-0.008640	-0.024902	0.315765
H260	H	0.491360	0.475098	0.815765
H261	H	-0.030656	0.041206	0.293709
H262	H	0.469344	0.541206	0.793709
H263	H	-0.029400	-0.024809	0.397529
H264	H	0.470600	0.475191	0.897529
H265	H	-0.051408	0.041299	0.375407
H266	H	0.448592	0.541299	0.875407
H267	H	-0.064213	-0.463781	0.528541
H268	H	0.435787	0.036219	1.028541
O269	O	0.078779	-0.612168	0.533911
O270	O	0.578779	-0.112168	1.033911
C271	C	0.135149	-0.690334	0.555750
C272	C	0.635149	-0.190334	1.055750
C273	C	0.125457	-0.641638	0.516724
C274	C	0.625457	-0.141638	1.016724
H275	H	0.172891	-0.714170	0.541872
H276	H	0.672891	-0.214170	1.041872
H277	H	0.108866	-0.707485	0.566144
H278	H	0.608866	-0.207485	1.066144
H279	H	0.130873	-0.685381	0.588142
H280	H	0.630873	-0.185381	1.088142
H281	H	0.129739	-0.646549	0.484306
H282	H	0.629739	-0.146549	0.984306
H283	H	0.151739	-0.624503	0.506370
H284	H	0.651739	-0.124503	1.006370
O285	O	0.171313	-0.489495	0.441613
O286	O	0.671313	0.010505	0.941613
C287	C	0.199687	-0.498305	0.365914
C288	C	0.699687	0.001695	0.865914
C289	C	0.164174	-0.466898	0.397400
C290	C	0.664174	0.033102	0.897400
H291	H	0.193934	-0.480043	0.330158
H292	H	0.693934	0.019957	0.830158
H293	H	0.193980	-0.534071	0.384087
H294	H	0.693980	-0.034071	0.884087
H295	H	0.237464	-0.504039	0.360179
H296	H	0.737464	-0.004039	0.860179
H297	H	0.126383	-0.461126	0.403145
H298	H	0.626383	0.038874	0.903145
H299	H	0.169922	-0.431152	0.379212
H300	H	0.669922	0.068848	0.879212
O301	O	-0.042389	-0.519191	0.939467
O302	O	0.457611	-0.019191	1.439467
C303	C	-0.121471	-0.523599	0.980315
C304	C	0.378529	-0.023599	1.480315
C305	C	-0.082480	-0.513890	0.980331
C306	C	0.417520	-0.013890	1.480331
H307	H	-0.153898	-0.519307	1.013345
H308	H	0.346102	-0.019307	1.513345
H309	H	-0.107576	-0.561337	0.980323
H310	H	0.392424	-0.061337	1.480323
H311	H	-0.131815	-0.497304	0.947241
H312	H	0.368185	0.002696	1.447241
H313	H	-0.072119	-0.540155	1.013400
H314	H	0.427881	-0.040155	1.513400
H315	H	-0.096397	-0.476139	0.980298
H316	H	0.403603	0.023861	1.480298
H317	H	0.138503	-0.605120	0.939399
H318	H	0.638503	-0.105120	1.439399
H319	H	0.549371	-0.578259	0.554780
H320	H	1.049371	-0.078259	1.054780
H321	H	0.138119	-0.463487	0.939440
H322	H	0.638119	0.036513	1.439440
O323	O	-0.228505	-0.604569	0.446271
O324	O	0.271495	-0.104569	0.946271
C325	C	-0.284693	-0.642772	0.512017
C326	C	0.215307	-0.142772	1.012017
C327	C	-0.257253	-0.629595	0.458270
C328	C	0.242747	-0.129595	0.958270
H329	H	-0.307936	-0.663016	0.521736
H330	H	0.192064	-0.163016	1.021736
H331	H	-0.308000	-0.609036	0.521799
H332	H	0.192000	-0.109036	1.021799
H333	H	-0.258428	-0.666049	0.532312
H334	H	0.241572	-0.166049	1.032312
H335	H	-0.283484	-0.606330	0.437938
H336	H	0.216516	-0.106330	0.937938
H337	H	-0.233940	-0.663350	0.448524
H338	H	0.266060	-0.163350	0.948524
O339	O	-0.071173	0.008313	0.534149
O340	O	0.428827	0.508313	1.034149
C341	C	-0.155657	0.049209	0.557103
C342	C	0.344343	0.549209	1.057103
C343	C	-0.107027	0.049180	0.517949
C344	C	0.392973	0.549180	1.017949
H345	H	-0.184659	0.082241	0.544016
H346	H	0.315341	0.582241	1.044016
H347	H	-0.155723	0.049248	0.590175
H348	H	0.344277	0.549248	1.090175
H349	H	-0.162591	0.016134	0.566095
H350	H	0.337409	0.516134	1.066095
H351	H	-0.100062	0.082249	0.508916
H352	H	0.399938	0.582249	1.008916
H353	H	-0.106984	0.049115	0.484902
H354	H	0.393016	0.549115	0.984902
O355	O	0.011580	-0.409561	0.816380
O356	O	0.511580	0.090439	1.316380
C357	C	-0.067220	-0.367580	0.811191
C358	C	0.432780	0.132420	1.311191
C359	C	-0.013456	-0.380806	0.783838
C360	C	0.486544	0.119194	1.283838
H361	H	-0.087478	-0.344337	0.784893
H362	H	0.412522	0.155663	1.284893
H363	H	-0.077015	-0.347317	0.834455
H364	H	0.422985	0.152683	1.334455
H365	H	-0.076970	-0.401328	0.834479
H366	H	0.423030	0.098672	1.334479
H367	H	-0.003668	-0.347082	0.760524
H368	H	0.496332	0.152918	1.260524
H369	H	-0.003690	-0.401087	0.760604
H370	H	0.496310	0.098913	1.260604
H371	H	0.549182	-0.402927	0.467517
H372	H	1.049182	0.097073	0.967517
O373	O	0.549037	-0.397010	0.318951
O374	O	1.049037	0.102990	0.818951
C375	C	0.548905	-0.374914	0.240757
C376	C	1.048905	0.125086	0.740757
C377	C	0.548974	-0.414056	0.289385
C378	C	1.048974	0.085944	0.789385
H379	H	0.548844	-0.388678	0.216842
H380	H	1.048844	0.111322	0.716842
H381	H	0.581944	-0.364526	0.223641
H382	H	1.081944	0.135474	0.723641
H383	H	0.515840	-0.342545	0.245800
H384	H	1.015840	0.157455	0.745800
H385	H	0.582018	-0.446451	0.284383
H386	H	1.082018	0.053549	0.784383
H387	H	0.515914	-0.424404	0.306485
H388	H	1.015914	0.075596	0.806485
H389	H	0.077468	0.008281	0.528131
H390	H	0.577468	0.508281	1.028131
H391	H	0.023205	-0.376060	0.353221
H392	H	0.523205	0.123940	0.853221
H393	H	-0.037176	-0.376187	0.939482
H394	H	0.462824	0.123813	1.439482
H395	H	0.196592	-0.455039	0.722237
H396	H	0.696592	0.044961	1.222237
O397	O	0.171755	-0.489630	0.816256
O398	O	0.671755	0.010370	1.316256
C399	C	0.254047	-0.528106	0.810945
C400	C	0.754047	-0.028106	1.310945
C401	C	0.218448	-0.496650	0.783660
C402	C	0.718448	0.003350	1.283660
H403	H	0.291806	-0.533783	0.784603
H404	H	0.791806	-0.033783	1.284603
H405	H	0.248376	-0.563892	0.834201
H406	H	0.748376	-0.063892	1.334201
H407	H	0.248310	-0.509900	0.834235
H408	H	0.748310	-0.009900	1.334235
H409	H	0.224164	-0.514814	0.760344
H410	H	0.724164	-0.014814	1.260344
H411	H	0.224127	-0.460866	0.760434
H412	H	0.724127	0.039134	1.260434
H413	H	0.019013	-0.411451	0.519888
H414	H	0.519013	0.088549	1.019888
O415	O	0.043964	-0.376889	0.554407
O416	O	0.543964	0.123111	1.054407
C417	C	-0.038298	-0.338420	0.592987
C418	C	0.461702	0.161580	1.092987
C419	C	-0.002751	-0.369861	0.561540
C420	C	0.497249	0.130139	1.061540
H421	H	-0.076075	-0.332737	0.598772
H422	H	0.423925	0.167263	1.098772
H423	H	-0.032622	-0.302636	0.574778
H424	H	0.467378	0.197364	1.074778
H425	H	-0.032509	-0.356642	0.628722
H426	H	0.467491	0.143358	1.128722
H427	H	-0.008519	-0.351681	0.525800
H428	H	0.491481	0.148319	1.025800
H429	H	-0.008436	-0.405644	0.579786
H430	H	0.491564	0.094356	1.079786
H431	H	0.164745	-0.517463	0.353068
H432	H	0.664745	-0.017463	0.853068
H433	H	0.011902	-0.639768	0.165877
H434	H	0.511902	-0.139768	0.665877
H435	H	0.196371	-0.454985	0.476195
H436	H	0.696371	0.045015	0.976195
H437	H	0.422274	-0.521162	0.510626
H438	H	0.922274	-0.021162	1.010626
O439	O	0.328262	-0.496198	0.544433
O440	O	0.828262	0.003802	1.044433
C441	C	0.333545	-0.577739	0.573129
C442	C	0.833545	-0.077739	1.073129
C443	C	0.360844	-0.542579	0.547140
C444	C	0.860844	-0.042579	1.047140
H445	H	0.359876	-0.615246	0.575334
H446	H	0.859876	-0.115246	1.075334
H447	H	0.310259	-0.567800	0.552824
H448	H	0.810259	-0.067800	1.052824
H449	H	0.310284	-0.576200	0.610502
H450	H	0.810284	-0.076200	1.110502
H451	H	0.384131	-0.544099	0.509767
H452	H	0.884131	-0.044099	1.009767
H453	H	0.384100	-0.552529	0.567481
H454	H	0.884100	-0.052529	1.067481
H455	H	0.422223	-0.375220	0.454977
H456	H	0.922223	0.124780	0.954977
H457	H	0.332037	-0.345175	0.485091
H458	H	0.832037	0.154825	0.985091
H459	H	0.129365	-0.118686	0.409385
H460	H	0.629365	0.381314	0.909385
O461	O	0.163942	-0.212710	0.434273
O462	O	0.663942	0.287290	0.934273
C463	C	0.202407	-0.207438	0.351992
C464	C	0.702407	0.292562	0.851992
C465	C	0.171000	-0.180131	0.387569
C466	C	0.671000	0.319869	0.887569
H467	H	0.208132	-0.181109	0.314224
H468	H	0.708132	0.318891	0.814224
H469	H	0.184202	-0.230708	0.357700
H470	H	0.684202	0.269292	0.857700
H471	H	0.238171	-0.230717	0.357719
H472	H	0.738171	0.269283	0.857719
H473	H	0.135231	-0.156825	0.381863
H474	H	0.635231	0.343175	0.881863
H475	H	0.189242	-0.156890	0.381852
H476	H	0.689242	0.343110	0.881852
H477	H	0.055841	-0.118733	0.556693
H478	H	0.555841	0.381267	1.056693
H479	H	0.085944	-0.208923	0.586721
H480	H	0.585944	0.291077	1.086721
H481	H	-0.061683	-0.492436	0.165791
H482	H	0.438317	0.007564	0.665791
H483	H	-0.018278	-0.669778	0.256062
H484	H	0.481722	-0.169778	0.756062
O485	O	-0.096336	-0.517303	0.259806
O486	O	0.403664	-0.017303	0.759806
C487	C	-0.134817	-0.435013	0.254512
C488	C	0.365183	0.064987	0.754512
C489	C	-0.103379	-0.470602	0.227218
C490	C	0.396621	0.029398	0.727218
H491	H	-0.140530	-0.397247	0.228176
H492	H	0.359470	0.102753	0.728176
H493	H	-0.116642	-0.440726	0.277820
H494	H	0.383358	0.059274	0.777820
H495	H	-0.170584	-0.440723	0.277751
H496	H	0.329416	0.059277	0.777751
H497	H	-0.067607	-0.464913	0.203953
H498	H	0.432393	0.035087	0.703953
H499	H	-0.121592	-0.464879	0.203940
H500	H	0.378408	0.035121	0.703940
H501	H	-0.061921	-0.492427	0.328433
H502	H	0.438079	0.007573	0.828433
O503	O	0.016015	-0.644893	0.406723
O504	O	0.516015	-0.144893	0.906723
C505	C	0.054463	-0.727182	0.445276
C506	C	0.554463	-0.227182	0.945276
C507	C	0.023099	-0.691595	0.413754
C508	C	0.523099	-0.191595	0.913754
H509	H	0.060208	-0.764949	0.450962
H510	H	0.560208	-0.264949	0.950962
H511	H	0.036210	-0.721473	0.481052
H512	H	0.536210	-0.221473	0.981052
H513	H	0.090220	-0.721467	0.427121
H514	H	0.590220	-0.221467	0.927121
H515	H	-0.012664	-0.697289	0.431868
H516	H	0.487336	-0.197289	0.931868
H517	H	0.041389	-0.697314	0.377980
H518	H	0.541389	-0.197314	0.877980
H519	H	-0.018458	-0.669769	0.372051
H520	H	0.481542	-0.169769	0.872051
O521	O	0.022840	-0.671381	0.303654
O522	O	0.522840	-0.171381	0.803654
C523	C	0.091797	-0.656226	0.236718
C524	C	0.591797	-0.156226	0.736718
C525	C	0.056626	-0.683504	0.262660
C526	C	0.556626	-0.183504	0.762660
H527	H	0.119115	-0.666010	0.203565
H528	H	0.619115	-0.166010	0.703565
H529	H	0.110650	-0.666024	0.261288
H530	H	0.610650	-0.166024	0.761288
H531	H	0.071638	-0.616418	0.226081
H532	H	0.571638	-0.116418	0.726081
H533	H	0.076748	-0.723319	0.273300
H534	H	0.576748	-0.223319	0.773300
H535	H	0.037773	-0.673666	0.238074
H536	H	0.537773	-0.173666	0.738074
O537	O	0.055365	-0.769413	0.336470
O538	O	0.555365	-0.269413	0.836470
C539	C	0.116489	-0.846042	0.348470
C540	C	0.616489	-0.346042	0.848470
C541	C	0.063157	-0.818625	0.356121
C542	C	0.563157	-0.318625	0.856121
H543	H	0.122807	-0.885835	0.364344
H544	H	0.622807	-0.385835	0.864344
H545	H	0.128822	-0.836319	0.366560
H546	H	0.628822	-0.336319	0.866560
H547	H	0.137329	-0.836265	0.308806
H548	H	0.637329	-0.336265	0.808806
H549	H	0.042280	-0.828387	0.395773
H550	H	0.542280	-0.328387	0.895773
H551	H	0.050862	-0.828351	0.337999
H552	H	0.550862	-0.328351	0.837999
O553	O	-0.103266	-0.769100	0.396695
O554	O	0.396734	-0.269100	0.896695
C555	C	-0.184810	-0.763774	0.425349
C556	C	0.315190	-0.263774	0.925349
C557	C	-0.149624	-0.736497	0.399314
C558	C	0.350376	-0.236497	0.899314
H559	H	-0.222297	-0.737426	0.427466
H560	H	0.277703	-0.237426	0.927466
H561	H	-0.183340	-0.786996	0.462753
H562	H	0.316660	-0.286996	0.962753
H563	H	-0.174833	-0.787099	0.405071
H564	H	0.325167	-0.287099	0.905071
H565	H	-0.159578	-0.713146	0.419552
H566	H	0.340422	-0.213146	0.919552
H567	H	-0.151100	-0.713304	0.361908
H568	H	0.348900	-0.213304	0.861908
H569	H	-0.091926	-0.522444	0.298262
H570	H	0.408074	-0.022444	0.798262
H571	H	-0.134345	-0.632833	0.408685
H572	H	0.365655	-0.132833	0.908685
O573	O	-0.135768	-0.671109	0.363833
O574	O	0.364232	-0.171109	0.863833
C575	C	-0.195826	-0.614952	0.327076
C576	C	0.304174	-0.114952	0.827076
C577	C	-0.142496	-0.642373	0.319438
C578	C	0.357504	-0.142373	0.819438
H579	H	-0.201284	-0.591720	0.291189
H580	H	0.298716	-0.091720	0.791189
H581	H	-0.209860	-0.591634	0.348908
H582	H	0.290140	-0.091634	0.848908
H583	H	-0.215821	-0.641232	0.346790
H584	H	0.284179	-0.141232	0.846790
H585	H	-0.122463	-0.616128	0.299711
H586	H	0.377537	-0.116128	0.799711
H587	H	-0.128500	-0.665699	0.297626
H588	H	0.371500	-0.165699	0.797626
H589	H	-0.134111	-0.559208	0.261309
H590	H	0.365889	-0.059208	0.761309
O591	O	-0.228125	-0.524553	0.286081
O592	O	0.271875	-0.024553	0.786081
C593	C	-0.222754	-0.486100	0.203770
C594	C	0.277246	0.013900	0.703770
C595	C	-0.195504	-0.517564	0.239400
C596	C	0.304496	-0.017564	0.739400
H597	H	-0.196392	-0.480448	0.166021
H598	H	0.303608	0.019552	0.666021
H599	H	-0.246005	-0.450304	0.209431
H600	H	0.253995	0.049696	0.709431
H601	H	-0.246046	-0.504286	0.209485
H602	H	0.253954	-0.004286	0.709485
H603	H	-0.172186	-0.499420	0.233706
H604	H	0.327814	0.000580	0.733706
H605	H	-0.172283	-0.553359	0.233729
H606	H	0.327717	-0.053359	0.733729
