data_functionalizedCrystal
_audit_creation_method	'MofGen! by Chris Wilmer'
_symmetry_space_group_name_H-M	'P1'
_symmetry_Int_Tables_number	1
_symmetry_cell_setting	triclinic
loop_
_symmetry_equiv_pos_as_xyz
  x,y,z
_cell_length_a	6.817900
_cell_length_b	17.982959
_cell_length_c	16.306216
_cell_angle_alpha	95.650275
_cell_angle_beta	103.467292
_cell_angle_gamma	102.451857
loop_
_atom_site_label
_atom_site_type_symbol
_atom_site_fract_x
_atom_site_fract_y
_atom_site_fract_z
V1	V	-4.021289	-0.106009	-0.263380
O2	O	-4.014155	0.004481	-0.258004
O3	O	-3.967796	-0.209609	-0.261927
O4	O	-3.972805	-0.104648	-0.378090
O5	O	-4.009112	-0.101207	-0.141037
V6	V	-4.505588	-0.092762	-0.248705
O7	O	-4.280846	-0.135069	-0.295572
O8	O	-4.696229	-0.063702	-0.216512
O9	O	-4.335875	0.010838	-0.250157
O10	O	-4.630119	-0.203252	-0.254081
O11	O	-4.635163	-0.097564	-0.371048
O12	O	-4.330866	-0.094123	-0.133994
C13	C	-3.811561	-0.234856	-0.257862
C14	C	-3.849110	-0.319551	-0.257439
C15	C	-3.817949	-0.100967	-0.406039
C16	C	-3.859558	-0.100539	-0.499817
C17	C	-4.048664	-0.363232	-0.261461
C18	C	-4.083936	-0.442813	-0.261069
C19	C	-3.919648	-0.478711	-0.256648
C20	C	-3.720078	-0.435025	-0.252628
C21	C	-3.684812	-0.355447	-0.253027
C22	C	-3.862300	-0.755957	-0.251021
C23	C	-3.897581	-0.835542	-0.250620
C24	C	-4.261424	-0.843323	-0.259063
C25	C	-4.226158	-0.763745	-0.259462
C26	C	-4.026595	-0.720067	-0.255447
C27	C	-3.988352	-0.633776	-0.255874
C28	C	-3.957885	-0.564999	-0.256215
C29	C	-4.010589	-0.099004	-0.840564
C30	C	-4.214764	-0.104058	-0.810133
C31	C	-4.171486	-0.104210	-0.712542
C32	C	-3.935662	-0.099766	-0.671515
C33	C	-3.803623	-0.024198	-0.691470
C34	C	-3.848273	-0.023728	-0.789066
C35	C	-3.920593	-0.169248	-0.814682
C36	C	-3.881955	-0.170740	-0.717369
C37	C	-3.893304	-0.100194	-0.575976
C38	C	-4.052939	-0.098571	-0.936103
C39	C	-4.155453	0.036081	-0.254220
C40	C	-4.097142	0.120776	-0.254649
C41	C	-4.149064	-0.097807	-0.106042
C42	C	-4.086694	-0.098231	-0.012262
H43	H	-4.182447	-0.334008	-0.265053
H44	H	-3.586317	-0.464261	-0.249034
C45	C	-3.716862	-0.875032	-0.245758
H46	H	-3.766449	-0.928681	-0.246085
H47	H	-3.661674	-0.867470	-0.293536
H48	H	-3.610987	-0.853316	-0.194637
H49	H	-3.630186	-0.018197	-0.663960
C50	C	-4.406877	-0.724261	-0.264328
H51	H	-4.530784	-0.761675	-0.266676
H52	H	-4.375348	-0.686304	-0.215215
H53	H	-4.426017	-0.700456	-0.314113
C54	C	-3.465299	-0.307397	-0.248595
H55	H	-3.372499	-0.340172	-0.245896
H56	H	-3.469312	-0.283263	-0.298020
H57	H	-3.418642	-0.269120	-0.199121
H58	H	-3.713013	-0.171906	-0.689963
C59	C	-4.310119	-0.177608	-0.695400
H60	H	-4.393473	-0.207596	-0.748155
H61	H	-4.224953	-0.206857	-0.665463
H62	H	-4.397475	-0.163654	-0.662020
C63	C	-4.308290	-0.035890	-0.833589
H64	H	-4.431588	-0.039383	-0.814975
H65	H	-4.210453	0.011196	-0.806535
H66	H	-4.340556	-0.037435	-0.893734
H67	H	-4.339123	-0.158195	-0.844875
H68	H	-4.219648	-0.053615	-0.682007
H69	H	-4.031095	-0.226033	-0.850715
C70	C	-3.927818	0.048046	-0.809313
H71	H	-3.932603	0.076640	-0.757932
H72	H	-3.836563	0.079331	-0.835319
H73	H	-4.063400	0.032441	-0.847167
C74	C	-3.852642	0.047020	-0.647957
H75	H	-3.953482	0.030859	-0.617613
H76	H	-3.729131	0.078429	-0.609352
H77	H	-3.905601	0.075702	-0.690069
C78	C	-3.642192	-0.014615	-0.815028
H79	H	-3.531574	-0.011200	-0.765933
H80	H	-3.651405	-0.057984	-0.855306
H81	H	-3.616453	0.030954	-0.839850
H82	H	-3.699806	-0.720403	-0.247747
H83	H	-3.979830	-0.226606	-0.705634
C84	C	-3.715989	-0.165200	-0.840797
H85	H	-3.662348	-0.207790	-0.824986
H86	H	-3.741738	-0.166773	-0.900834
H87	H	-3.617639	-0.118536	-0.812668
C88	C	-4.303448	-0.490863	-0.265507
H89	H	-4.300936	-0.543401	-0.264651
H90	H	-4.347103	-0.472357	-0.217864
H91	H	-4.397736	-0.486487	-0.316762
H92	H	-4.423922	-0.878896	-0.262334
