data_functionalizedCrystal
_audit_creation_method	'MofGen! by Chris Wilmer'
_symmetry_space_group_name_H-M	'P1'
_symmetry_Int_Tables_number	1
_symmetry_cell_setting	triclinic
loop_
_symmetry_equiv_pos_as_xyz
  x,y,z
_cell_length_a	12.759401
_cell_length_b	18.215405
_cell_length_c	12.759393
_cell_angle_alpha	90.033485
_cell_angle_beta	90.019676
_cell_angle_gamma	90.023158
loop_
_atom_site_label
_atom_site_type_symbol
_atom_site_fract_x
_atom_site_fract_y
_atom_site_fract_z
Zn1	Zn	1.606208	-0.292940	0.593963
Zn2	Zn	1.606074	-0.416024	0.418274
Zn3	Zn	1.430506	-0.292977	0.418302
Zn4	Zn	1.430474	-0.415971	0.593915
O5	O	1.518316	-0.354478	0.506113
O6	O	1.753211	-0.309275	0.570666
O7	O	1.582743	-0.399740	0.271256
O8	O	1.453883	-0.189988	0.441636
O9	O	1.753113	-0.399704	0.441588
O10	O	1.582970	-0.189961	0.570693
O11	O	1.453754	-0.309337	0.271277
O12	O	1.283481	-0.309285	0.441589
O13	O	1.453827	-0.399612	0.740942
O14	O	1.283457	-0.399648	0.570611
O15	O	1.582938	-0.309223	0.740978
O16	O	1.582711	-0.519001	0.441541
O17	O	1.453698	-0.518962	0.570584
C18	C	1.245348	-0.354465	0.506099
C19	C	1.128572	-0.354478	0.506117
C20	C	1.073761	-0.307476	0.573432
C21	C	0.964037	-0.307484	0.573439
C22	C	0.963943	-0.401500	0.438814
C23	C	1.073665	-0.401489	0.438802
C24	C	1.518215	-0.545684	0.506077
C25	C	1.518268	-0.627483	0.506097
C26	C	1.585515	-0.815602	0.573388
C27	C	1.585554	-0.892461	0.573408
C28	C	1.451245	-0.892602	0.438904
C29	C	1.451203	-0.815745	0.438890
C30	C	1.518344	-0.777247	0.506131
C31	C	1.518425	-0.930963	0.506164
C32	C	1.518465	-1.014296	0.506185
C33	C	1.518302	-0.693908	0.506112
C34	C	1.792349	-0.354491	0.506129
C35	C	1.909125	-0.354497	0.506136
C36	C	1.518394	-0.354407	0.780147
C37	C	1.518428	-0.354377	0.896924
C38	C	1.518445	-0.162525	0.506173
C39	C	1.518500	-0.080726	0.506198
C40	C	1.518298	-0.354495	0.233146
C41	C	1.518468	-0.354318	0.116370
C42	C	1.585661	-0.307304	0.951806
C43	C	1.585679	-0.307272	1.061530
C44	C	1.451227	-0.401394	1.061480
C45	C	1.451205	-0.401421	0.951758
H46	H	1.118293	-0.439764	0.383981
F47	F	1.379637	-0.451522	0.893345
H48	H	1.118463	-0.269194	0.628241
H49	H	0.919416	-0.269209	0.628251
H50	H	0.919225	-0.439776	0.384009
H51	H	1.640395	-0.268996	0.907163
H52	H	1.640184	-0.784259	0.628141
H53	H	1.640425	-0.268939	1.106210
H54	H	1.640249	-0.923686	0.628178
F55	F	1.379699	-0.774922	0.367309
F56	F	1.379792	-0.933581	0.367347
H57	H	1.396499	-0.439697	1.106140
