data_functionalizedCrystal
_audit_creation_method	'MofGen! by Chris Wilmer'
_symmetry_space_group_name_H-M	'P1'
_symmetry_Int_Tables_number	1
_symmetry_cell_setting	triclinic
loop_
_symmetry_equiv_pos_as_xyz
  x,y,z
_cell_length_a	17.000383
_cell_length_b	15.944551
_cell_length_c	15.021413
_cell_angle_alpha	89.996935
_cell_angle_beta	89.990106
_cell_angle_gamma	100.450480
loop_
_atom_site_label
_atom_site_type_symbol
_atom_site_fract_x
_atom_site_fract_y
_atom_site_fract_z
O1	O	1.056106	-0.030266	-0.074094
O2	O	0.824376	-0.060749	-0.074083
O3	O	0.946569	0.077235	-0.074080
O4	O	0.933913	-0.168250	-0.074096
O5	O	0.946549	0.077215	0.073984
O6	O	0.824356	-0.060769	0.073982
O7	O	1.056087	-0.030286	0.073971
Zn8	Zn	0.940218	-0.045530	0.097485
Zn9	Zn	0.940244	-0.045504	-0.097596
O10	O	0.933893	-0.168270	0.073968
C11	C	0.794712	-0.062396	-0.000049
C12	C	0.706354	-0.067264	-0.000044
C13	C	0.206139	-0.098699	-0.000080
C14	C	0.289162	-0.094118	-0.000079
C15	C	0.340152	-0.014608	-0.000067
C16	C	0.308116	0.060325	-0.000065
C17	C	0.225095	0.055744	-0.000073
C18	C	0.591297	0.003088	-0.000050
C19	C	0.674323	0.007664	-0.000040
C20	C	0.655363	-0.146780	-0.000055
C21	C	0.572341	-0.151354	-0.000057
C22	C	0.540312	-0.076421	-0.000060
C23	C	0.425015	-0.009924	-0.000063
C24	C	0.455451	-0.081106	-0.000070
C25	C	0.946034	0.108480	-0.000048
C26	C	0.944459	0.201610	-0.000048
C27	C	1.085750	-0.028639	-0.000065
C28	C	1.174108	-0.023771	-0.000075
C29	C	0.934429	-0.199515	-0.000066
C30	C	0.936004	-0.292645	-0.000072
N31	N	0.940207	-0.045547	0.230622
C32	C	0.864952	0.410590	-0.000056
C33	C	0.901863	0.474327	0.072947
C34	C	0.941609	0.372125	-0.000054
C35	C	0.901900	0.474331	-0.073033
C36	C	0.938851	0.536834	-0.000065
C37	C	0.978540	0.434635	0.073009
C38	C	0.978567	0.434632	-0.073036
C39	C	1.015533	0.498355	-0.000016
C40	C	0.943196	0.277240	-0.000047
C41	C	0.937270	0.631718	-0.000065
N42	N	0.940262	-0.045480	-0.230734
C43	C	0.883696	-0.109324	0.470304
C44	C	0.955618	-0.120315	0.529634
C45	C	0.940227	-0.045525	0.412229
C46	C	0.868325	-0.034551	0.529641
C47	C	0.940240	-0.045506	0.587653
C48	C	1.012185	-0.056551	0.470252
C49	C	0.924845	0.029243	0.470254
C50	C	0.996819	0.018287	0.529557
C51	C	0.940218	-0.045538	0.311172
C52	C	0.940257	-0.045491	0.688708
H53	H	0.530829	-0.216100	-0.000069
O54	O	1.091560	0.543394	0.000074
C55	C	1.146112	0.486512	0.000817
H56	H	1.115614	0.422521	0.029197
H57	H	1.166970	0.477134	-0.070028
C58	C	1.256181	0.602083	0.024133
C59	C	1.218725	0.523490	0.058997
H60	H	1.300975	0.624893	0.060018
H61	H	1.219429	0.640406	0.023629
H62	H	1.273556	0.594257	-0.034903
H63	H	1.201343	0.531318	0.118028
H64	H	1.255477	0.485168	0.059512
H65	H	0.413931	-0.145842	-0.000084
H66	H	0.466541	0.054813	-0.000050
H67	H	0.869432	0.492030	0.134668
O68	O	0.795712	-0.023584	0.560654
C69	C	0.736294	-0.091013	0.530481
H70	H	0.758268	-0.120165	0.467994
H71	H	0.723162	-0.141804	0.584553
C72	C	0.632455	-0.020874	0.585635
C73	C	0.659441	-0.056674	0.508883
H74	H	0.585047	0.000306	0.572316
H75	H	0.672486	0.024553	0.605966
H76	H	0.621518	-0.063206	0.630688
H77	H	0.670387	-0.014340	0.463836
H78	H	0.619410	-0.102093	0.488543
O79	O	1.053854	0.082654	0.560557
C80	C	1.052819	0.082374	0.654412
H81	H	0.991567	0.049150	0.678864
H82	H	1.100665	0.046916	0.680324
C83	C	1.145024	0.215653	0.658870
C84	C	1.069792	0.174853	0.688901
H85	H	1.155498	0.272697	0.680146
H86	H	1.145725	0.215840	0.595638
H87	H	1.184888	0.186095	0.680465
H88	H	1.029929	0.204404	0.667297
H89	H	1.069085	0.174672	0.752131
H90	H	0.801324	0.372580	0.000020
H91	H	0.681450	-0.207787	-0.000054
H92	H	1.010928	0.417030	0.134795
O93	O	0.909145	0.104592	0.439147
C94	C	0.833244	0.115908	0.469372
H95	H	0.795468	0.051192	0.486063
H96	H	0.840519	0.157741	0.531441
C97	C	0.837933	0.238667	0.375494
C98	C	0.791533	0.159180	0.395987
H99	H	0.812204	0.265363	0.330229
H100	H	0.889070	0.231046	0.355133
H101	H	0.843992	0.273517	0.427225
H102	H	0.785483	0.124328	0.344259
H103	H	0.740394	0.166797	0.416337
O104	O	1.017108	0.413489	-0.146761
C105	C	0.976505	0.433353	-0.223581
H106	H	0.911612	0.435320	-0.206087
H107	H	1.006613	0.498221	-0.250219
C108	C	1.058845	0.362351	-0.316632
C109	C	0.979140	0.364759	-0.295147
H110	H	1.060473	0.320042	-0.360779
H111	H	1.086202	0.348971	-0.264877
H112	H	1.083926	0.416412	-0.338824
H113	H	0.954063	0.310703	-0.272944
H114	H	0.951778	0.378129	-0.346900
H115	H	0.315236	-0.155132	-0.000091
O116	O	0.826819	-0.173767	0.439148
C117	C	0.863238	-0.228999	0.386252
H118	H	0.922976	-0.193236	0.360188
H119	H	0.873637	-0.285663	0.428051
C120	C	0.734908	-0.305022	0.339229
C121	C	0.808276	-0.261095	0.307210
H122	H	0.701004	-0.324824	0.290474
H123	H	0.710371	-0.267813	0.374868
H124	H	0.743584	-0.352237	0.374061
H125	H	0.799600	-0.213875	0.272388
H126	H	0.832810	-0.298296	0.271563
H127	H	0.869476	0.492019	-0.134755
O128	O	0.971019	-0.195802	0.560717
C129	C	0.911285	-0.262908	0.530516
H130	H	0.854812	-0.236960	0.513872
H131	H	0.933314	-0.292663	0.468423
C132	C	0.961925	-0.362937	0.624331
C133	C	0.892562	-0.331069	0.603896
H134	H	0.950378	-0.404985	0.669593
H135	H	1.002172	-0.317728	0.644676
H136	H	0.980275	-0.387727	0.572580
H137	H	0.874219	-0.306270	0.655643
H138	H	0.852312	-0.376276	0.583562
H139	H	0.164627	-0.163444	-0.000082
H140	H	0.715839	0.072413	-0.000035
H141	H	0.565230	0.064104	-0.000050
H142	H	0.349640	0.125064	-0.000061
H143	H	1.073010	-0.065901	0.444275
H144	H	0.199018	0.116758	-0.000071
