data_functionalizedCrystal
_audit_creation_method	'MofGen! by Chris Wilmer'
_symmetry_space_group_name_H-M	'P1'
_symmetry_Int_Tables_number	1
_symmetry_cell_setting	triclinic
loop_
_symmetry_equiv_pos_as_xyz
  x,y,z
_cell_length_a	12.759395
_cell_length_b	29.839132
_cell_length_c	12.759387
_cell_angle_alpha	90.039470
_cell_angle_beta	89.978972
_cell_angle_gamma	89.953975
loop_
_atom_site_label
_atom_site_type_symbol
_atom_site_fract_x
_atom_site_fract_y
_atom_site_fract_z
Zn1	Zn	1.606046	0.178821	-0.593956
Zn2	Zn	1.605842	0.253958	-0.418250
Zn3	Zn	1.430344	0.178844	-0.418292
Zn4	Zn	1.430242	0.253925	-0.593888
O5	O	1.518119	0.216387	-0.506096
O6	O	1.753040	0.188792	-0.570660
O7	O	1.582520	0.244018	-0.271234
O8	O	1.453778	0.115974	-0.441640
O9	O	1.752890	0.243995	-0.441569
O10	O	1.582866	0.115957	-0.570700
O11	O	1.453581	0.188832	-0.271265
O12	O	1.283309	0.188800	-0.441573
O13	O	1.453606	0.243939	-0.740918
O14	O	1.283235	0.243962	-0.570583
O15	O	1.582768	0.188760	-0.740968
O16	O	1.582421	0.316821	-0.441503
O17	O	1.453409	0.316797	-0.570543
C18	C	1.245151	0.216380	-0.506076
C19	C	1.128374	0.216388	-0.506092
C20	C	0.909095	0.159007	-0.640766
C21	C	0.964039	0.130307	-0.708073
C22	C	1.073760	0.130300	-0.708055
C23	C	1.128541	0.158996	-0.640724
C24	C	1.073597	0.187696	-0.573417
C25	C	0.963873	0.187699	-0.573441
C26	C	1.073430	0.245088	-0.438785
C27	C	0.963709	0.245094	-0.438796
C28	C	1.128211	0.273784	-0.371454
C29	C	1.073267	0.302482	-0.304141
C30	C	0.963539	0.302488	-0.304161
C31	C	0.908765	0.273794	-0.371489
C32	C	1.517911	0.333110	-0.506034
C33	C	1.517918	0.383044	-0.506042
C34	C	1.585343	0.692687	-0.438960
C35	C	1.585443	0.880360	-0.438984
O36	O	1.642657	0.904625	-0.381930
N37	N	1.518229	0.903829	-0.506113
C38	C	1.450989	0.880377	-0.573246
O39	O	1.393829	0.904644	-0.630352
C40	C	1.450895	0.692704	-0.573227
C41	C	1.518106	0.669238	-0.506086
C42	C	1.652550	0.669221	-0.371825
C43	C	1.652520	0.622306	-0.371816
C44	C	1.585283	0.598856	-0.438942
C45	C	1.518077	0.622323	-0.506077
C46	C	1.383661	0.669253	-0.640365
C47	C	1.383646	0.622332	-0.640356
C48	C	1.450857	0.598866	-0.573215
C49	C	1.450810	0.551958	-0.573193
N50	N	1.518025	0.528489	-0.506064
C51	C	1.585261	0.551939	-0.438938
C52	C	1.451042	0.978907	-0.573250
C53	C	1.451064	1.025825	-0.573254
C54	C	1.585520	1.025806	-0.438993
C55	C	1.585491	0.978887	-0.438985
C56	C	1.518256	0.955439	-0.506121
C57	C	1.585193	0.453413	-0.438923
C58	C	1.585154	0.406493	-0.438916
C59	C	1.450703	0.406517	-0.573181
C60	C	1.450737	0.453432	-0.573184
C61	C	1.517991	0.476879	-0.506051
O62	O	1.393634	0.527664	-0.630225
O63	O	1.642429	0.527663	-0.381857
C64	C	1.585373	0.739603	-0.438970
C65	C	1.518166	0.763069	-0.506105
C66	C	1.450929	0.739620	-0.573230
C67	C	1.518188	0.809987	-0.506108
C68	C	1.585424	0.833436	-0.438983
C69	C	1.652639	0.809967	-0.371853
C70	C	1.652609	0.763052	-0.371844
C71	C	1.383715	0.763089	-0.640360
C72	C	1.383749	0.810004	-0.640363
C73	C	1.450986	0.833453	-0.573237
C74	C	1.792152	0.216394	-0.506118
C75	C	1.908929	0.216398	-0.506127
C76	C	1.518198	0.216343	-0.780130
C77	C	1.518232	0.216324	-0.896907
C78	C	1.518317	1.099209	-0.506160
C79	C	1.518300	1.049274	-0.506128
C80	C	1.652737	0.158870	-0.896979
C81	C	1.720004	0.130136	-0.951876
C82	C	1.720030	0.130120	-1.061598
C83	C	1.652779	0.158839	-1.116425
C84	C	1.585511	0.187573	-1.061528
C85	C	1.585495	0.187587	-0.951804
C86	C	1.451003	0.245024	-1.061456
C87	C	1.450981	0.245044	-0.951734
C88	C	1.383751	0.273744	-1.116283
C89	C	1.316488	0.302481	-1.061386
C90	C	1.316466	0.302496	-0.951658
C91	C	1.383713	0.273778	-0.896837
C92	C	1.518100	0.216398	-0.233129
C93	C	1.518270	0.216291	-0.116353
H94	H	1.639960	0.472498	-0.384259
H95	H	1.652797	0.158820	-1.205766
H96	H	0.819754	0.159001	-0.640765
H97	H	0.919425	0.106945	-0.762894
O98	O	1.785470	0.102194	-1.114768
C99	C	1.918839	0.045189	-1.103273
C100	C	1.844801	0.076799	-1.042928
H101	H	1.966812	0.024642	-1.045217
H102	H	1.973807	0.065790	-1.154604
H103	H	1.870646	0.021709	-1.154684
H104	H	1.892910	0.100285	-0.991460
H105	H	1.789830	0.056169	-0.991663
O106	O	1.234794	0.273850	-0.371533
C107	C	1.392195	0.316933	-0.398248
C108	C	1.271491	0.316917	-0.398224
H109	H	1.421902	0.351751	-0.419804
H110	H	1.422113	0.291518	-0.457952
H111	H	1.421930	0.307546	-0.316923
H112	H	1.241666	0.326315	-0.479504
H113	H	1.241644	0.342323	-0.338464
O114	O	1.717920	0.599583	-0.306572
C115	C	1.851253	0.604533	-0.173377
C116	C	1.777249	0.630318	-0.247227
H117	H	1.899224	0.629371	-0.125361
H118	H	1.906225	0.582543	-0.221611
H119	H	1.803034	0.582592	-0.118430
H120	H	1.825383	0.652283	-0.302188
H121	H	1.722274	0.652280	-0.198927
O122	O	1.251270	0.330431	-0.898214
C123	C	1.236984	0.391122	-0.774333
C124	C	1.310934	0.359507	-0.834771
H125	H	1.285194	0.414644	-0.723042
H126	H	1.182105	0.370525	-0.722897
H127	H	1.188901	0.411624	-0.832385
H128	H	1.359085	0.338998	-0.776795
H129	H	1.365744	0.380129	-0.886223
H130	H	1.329008	0.829106	-0.695036
O131	O	1.650548	0.383768	-0.373660
C132	C	1.783865	0.388709	-0.240447
C133	C	1.709881	0.414499	-0.314308
H134	H	1.831840	0.413544	-0.192426
H135	H	1.838834	0.366715	-0.288674
H136	H	1.735630	0.366772	-0.185507
H137	H	1.758031	0.436460	-0.369264
H138	H	1.654909	0.436465	-0.266016
H139	H	1.117878	0.325846	-0.249331
H140	H	0.918810	0.325861	-0.249356
H141	H	1.707307	0.688308	-0.317163
O142	O	1.650882	0.956163	-0.373734
C143	C	1.784193	0.961109	-0.240515
C144	C	1.710205	0.986896	-0.314377
H145	H	1.832159	0.985945	-0.192490
H146	H	1.839170	0.939118	-0.288742
H147	H	1.735962	0.939168	-0.185579
H148	H	1.758351	1.008861	-0.369328
H149	H	1.655225	1.008858	-0.266085
O150	O	1.650864	1.048658	-0.373948
C151	C	1.710578	1.120935	-0.314576
C152	C	1.636499	1.095109	-0.388257
H153	H	1.698973	1.158495	-0.326104
H154	H	1.795272	1.111684	-0.333195
H155	H	1.692277	1.111741	-0.229819
H156	H	1.654705	1.104289	-0.473039
H157	H	1.551826	1.104362	-0.369548
H158	H	1.383773	0.273727	-1.205624
H159	H	1.328964	0.744000	-0.695023
O160	O	1.251218	0.330438	-1.114528
C161	C	1.200100	0.406849	-1.148094
C162	C	1.274066	0.375237	-1.087823
H163	H	1.218561	0.443076	-1.126543
H164	H	1.115380	0.398996	-1.126489
H165	H	1.211650	0.401875	-1.235939
H166	H	1.262610	0.380193	-0.999965
H167	H	1.358759	0.383097	-1.109515
O168	O	1.126976	0.102381	-0.773472
C169	C	1.115574	0.045477	-0.907071
C170	C	1.055178	0.077064	-0.833021
H171	H	1.057552	0.025007	-0.955251
H172	H	1.166926	0.021929	-0.858981
H173	H	1.166970	0.066139	-0.961853
H174	H	1.003725	0.056438	-0.778223
H175	H	1.003892	0.100614	-0.881176
H176	H	1.217882	0.158991	-0.640725
H177	H	0.819424	0.273790	-0.371499
H178	H	1.383706	0.273789	-0.807496
H179	H	1.328896	0.603242	-0.695030
H180	H	1.396324	1.044927	-0.627917
H181	H	1.396288	0.959819	-0.627922
H182	H	1.328926	0.688351	-0.695033
H183	H	1.396012	0.472539	-0.627859
O184	O	1.717853	0.740310	-0.306481
C185	C	1.768905	0.725981	-0.127806
C186	C	1.694963	0.751767	-0.201714
H187	H	1.750411	0.735227	-0.043086
H188	H	1.853631	0.735175	-0.146251
H189	H	1.757368	0.688420	-0.139374
H190	H	1.706406	0.789334	-0.190188
H191	H	1.610264	0.742536	-0.183251
O192	O	1.718091	0.832765	-0.306811
C193	C	1.859963	0.885686	-0.292882
C194	C	1.785906	0.859889	-0.366641
H195	H	1.914796	0.907630	-0.341223
H196	H	1.908081	0.860872	-0.244928
H197	H	1.811780	0.907678	-0.237872
H198	H	1.834008	0.837897	-0.421713
H199	H	1.737785	0.884728	-0.414520
H200	H	1.652733	0.158885	-0.807638
O201	O	1.785188	0.102220	-0.898499
C202	C	1.799445	0.041569	-0.774714
C203	C	1.725509	0.073162	-0.835075
H204	H	1.751224	0.018062	-0.723438
H205	H	1.854303	0.062184	-0.723269
H206	H	1.847552	0.021050	-0.832815
H207	H	1.677334	0.093688	-0.777049
H208	H	1.670720	0.052521	-0.886536
H209	H	1.395956	0.387417	-0.627831
