data_functionalizedCrystal
_audit_creation_method	'MofGen! by Chris Wilmer'
_symmetry_space_group_name_H-M	'P1'
_symmetry_Int_Tables_number	1
_symmetry_cell_setting	triclinic
loop_
_symmetry_equiv_pos_as_xyz
  x,y,z
_cell_length_a	11.169417
_cell_length_b	10.685194
_cell_length_c	11.169417
_cell_angle_alpha	94.382322
_cell_angle_beta	90.000551
_cell_angle_gamma	94.378522
loop_
_atom_site_label
_atom_site_type_symbol
_atom_site_fract_x
_atom_site_fract_y
_atom_site_fract_z
Zn1	Zn	1.798129	-0.502563	0.641859
Zn2	Zn	1.782716	-0.713544	0.425780
Zn3	Zn	1.597482	-0.502550	0.441195
Zn4	Zn	1.582055	-0.713534	0.626426
O5	O	1.690096	-0.608048	0.533815
O6	O	1.964033	-0.530560	0.613202
O7	O	1.758151	-0.685555	0.259875
O8	O	1.637005	-0.325958	0.480723
O9	O	1.952710	-0.685567	0.454450
O10	O	1.784420	-0.325968	0.628150
O11	O	1.622060	-0.530538	0.271201
O12	O	1.427487	-0.530528	0.465759
O13	O	1.610711	-0.685549	0.796423
O14	O	1.416152	-0.685537	0.601848
O15	O	1.769460	-0.530550	0.807761
O16	O	1.743191	-0.890137	0.439486
O17	O	1.595766	-0.890129	0.586900
C18	C	1.378272	-0.608031	0.533802
C19	C	1.244870	-0.608054	0.533823
C20	C	1.666164	-0.935922	0.509872
C21	C	1.656036	-1.076188	0.499669
C22	C	2.003137	-0.608066	0.533828
C23	C	2.136536	-0.608074	0.533834
C24	C	1.690084	-0.608050	0.846857
C25	C	1.690079	-0.608051	0.980257
C26	C	1.714153	-0.278894	0.557878
C27	C	1.724405	-0.138628	0.568132
C28	C	1.690091	-0.608069	1.221989
C29	C	1.690082	-0.608053	1.088590
H30	H	1.589739	-1.130045	0.433250
H31	H	1.790688	-1.084779	0.634558
