data_functionalizedCrystal
_audit_creation_method	'MofGen! by Chris Wilmer'
_symmetry_space_group_name_H-M	'P1'
_symmetry_Int_Tables_number	1
_symmetry_cell_setting	triclinic
loop_
_symmetry_equiv_pos_as_xyz
  x,y,z
_cell_length_a	25.639239
_cell_length_b	25.639243
_cell_length_c	25.639233
_cell_angle_alpha	90.015962
_cell_angle_beta	90.018747
_cell_angle_gamma	90.041410
loop_
_atom_site_label
_atom_site_type_symbol
_atom_site_fract_x
_atom_site_fract_y
_atom_site_fract_z
Zn1	Zn	-0.208176	0.799225	0.295656
Zn2	Zn	0.125157	1.132558	0.628989
Zn3	Zn	0.458490	1.465892	0.962322
Zn4	Zn	-0.295595	0.799149	0.208220
Zn5	Zn	0.037738	1.132482	0.541553
Zn6	Zn	0.371071	1.465815	0.874887
Zn7	Zn	-0.208180	0.711801	0.208229
Zn8	Zn	0.125154	1.045135	0.541563
Zn9	Zn	0.458487	1.378468	0.874896
Zn10	Zn	-0.295587	0.711746	0.295619
Zn11	Zn	0.037747	1.045080	0.628953
Zn12	Zn	0.371080	1.378413	0.962286
O13	O	-0.251885	0.755480	0.251931
O14	O	0.081449	1.088814	0.585264
O15	O	0.414782	1.422147	0.918598
O16	O	-0.219775	0.872380	0.284069
O17	O	0.113559	1.205713	0.617402
O18	O	0.446892	1.539047	0.950735
O19	O	-0.284004	0.787553	0.135056
O20	O	0.049329	1.120886	0.468389
O21	O	0.382662	1.454219	0.801723
O22	O	-0.135014	0.723453	0.219846
O23	O	0.198319	1.056787	0.553179
O24	O	0.531653	1.390120	0.886512
O25	O	-0.284001	0.872324	0.219830
O26	O	0.049332	1.205657	0.553163
O27	O	0.382666	1.538991	0.886497
O28	O	-0.135012	0.787683	0.284077
O29	O	0.198322	1.121016	0.617411
O30	O	0.531655	1.454350	0.950744
O31	O	-0.219781	0.723379	0.135063
O32	O	0.113553	1.056712	0.468396
O33	O	0.446886	1.390046	0.801729
O34	O	-0.219772	0.638629	0.219810
O35	O	0.113561	0.971962	0.553144
O36	O	0.446894	1.305296	0.886477
O37	O	-0.283987	0.723360	0.368789
O38	O	0.049347	1.056693	0.702123
O39	O	0.382680	1.390026	1.035456
O40	O	-0.283990	0.638589	0.284016
O41	O	0.049343	0.971922	0.617349
O42	O	0.382677	1.305255	0.950682
O43	O	-0.219767	0.787630	0.368816
O44	O	0.113567	1.120963	0.702149
O45	O	0.446900	1.454297	1.035483
O46	O	-0.368759	0.787499	0.219795
O47	O	-0.035426	1.120833	0.553128
O48	O	0.297907	1.454166	0.886461
O49	O	-0.368753	0.723286	0.284007
O50	O	-0.035420	1.056619	0.617340
O51	O	0.297914	1.389952	0.950673
C52	C	-0.251881	0.619638	0.251910
C53	C	0.081452	0.952971	0.585244
C54	C	0.414786	1.286304	0.918577
C55	C	-0.251892	0.561524	0.251914
C56	C	0.081441	0.894857	0.585247
C57	C	0.414775	1.228190	0.918581
C58	C	-0.218495	0.201184	0.285436
C59	C	0.114839	0.534518	0.618769
C60	C	0.448172	0.867851	0.952103
C61	C	-0.218494	0.146580	0.285439
C62	C	0.114839	0.479913	0.618772
C63	C	0.448173	0.813247	0.952106
O64	O	-0.190088	0.118363	0.313915
O65	O	0.143245	0.451697	0.647248
O66	O	0.476578	0.785030	0.980582
N67	N	-0.251883	0.119241	0.251945
N68	N	0.081450	0.452575	0.585279
N69	N	0.414784	0.785908	0.918612
C70	C	-0.285271	0.146510	0.218443
C71	C	0.048062	0.479843	0.551776
C72	C	0.381396	0.813176	0.885109
O73	O	-0.313670	0.118242	0.189954
O74	O	0.019663	0.451575	0.523287
O75	O	0.352996	0.784909	0.856620
C76	C	-0.285268	0.201113	0.218437
C77	C	0.048065	0.534446	0.551770
C78	C	0.381398	0.867780	0.885104
C79	C	-0.251881	0.228449	0.251937
C80	C	0.081452	0.561782	0.585270
C81	C	0.414786	0.895116	0.918603
C82	C	-0.185109	0.228520	0.318932
C83	C	0.148224	0.561854	0.652266
C84	C	0.481557	0.895187	0.985599
C85	C	-0.185111	0.283121	0.318930
C86	C	0.148223	0.616454	0.652263
C87	C	0.481556	0.949788	0.985596
C88	C	-0.218497	0.310385	0.285431
C89	C	0.114836	0.643719	0.618764
C90	C	0.448170	0.977052	0.952097
C91	C	-0.251882	0.283049	0.251934
C92	C	0.081451	0.616383	0.585267
C93	C	0.414785	0.949716	0.918601
C94	C	-0.318653	0.228380	0.184932
C95	C	0.014680	0.561714	0.518265
C96	C	0.348014	0.895047	0.851599
C97	C	-0.318647	0.282987	0.184929
C98	C	0.014686	0.616321	0.518263
C99	C	0.348019	0.949654	0.851596
C100	C	-0.285260	0.310323	0.218429
C101	C	0.048073	0.643657	0.551762
C102	C	0.381407	0.976990	0.885095
C103	C	-0.285270	0.364915	0.218432
C104	C	0.048064	0.698248	0.551766
C105	C	0.381397	1.031581	0.885099
N106	N	-0.251881	0.392253	0.251926
N107	N	0.081453	0.725587	0.585259
N108	N	0.414786	1.058920	0.918593
C109	C	-0.218494	0.364989	0.285425
C110	C	0.114839	0.698322	0.618758
C111	C	0.448172	1.031655	0.952092
C112	C	-0.285273	0.031839	0.218456
C113	C	0.048060	0.365172	0.551789
C114	C	0.381394	0.698506	0.885123
C115	C	-0.285279	-0.022763	0.218464
C116	C	0.048055	0.310570	0.551797
C117	C	0.381388	0.643903	0.885130
C118	C	-0.218501	-0.022689	0.285460
C119	C	0.114832	0.310644	0.618793
C120	C	0.448166	0.643978	0.952126
C121	C	-0.218499	0.031914	0.285454
C122	C	0.114835	0.365248	0.618788
C123	C	0.448168	0.698581	0.952121
C124	C	-0.251884	0.059178	0.251950
C125	C	0.081449	0.392511	0.585283
C126	C	0.414783	0.725844	0.918616
C127	C	-0.218500	0.479654	0.285417
C128	C	0.114833	0.812987	0.618751
C129	C	0.448167	1.146321	0.952084
C130	C	-0.218506	0.534259	0.285413
C131	C	0.114828	0.867593	0.618746
C132	C	0.448161	1.200926	0.952080
C133	C	-0.285281	0.534180	0.218415
C134	C	0.048052	0.867514	0.551749
C135	C	0.381386	1.200847	0.885082
C136	C	-0.285278	0.479580	0.218421
C137	C	0.048056	0.812913	0.551755
C138	C	0.381389	1.146246	0.885088
C139	C	-0.251883	0.452318	0.251924
C140	C	0.081451	0.785651	0.585257
C141	C	0.414784	1.118984	0.918591
O142	O	-0.313659	0.393166	0.189969
O143	O	0.019674	0.726499	0.523303
O144	O	0.353007	1.059833	0.856636
O145	O	-0.190095	0.393263	0.313904
O146	O	0.143238	0.726597	0.647238
O147	O	0.476572	1.059930	0.980571
C148	C	-0.387727	0.755392	0.251907
C149	C	-0.054394	1.088726	0.585241
C150	C	0.278940	1.422059	0.918574
C151	C	-0.445841	0.755403	0.251914
C152	C	-0.112508	1.088736	0.585248
C153	C	0.220825	1.422069	0.918581
C154	C	-0.806195	0.789004	0.218553
C155	C	-0.472861	1.122337	0.551886
C156	C	-0.139528	1.455670	0.885220
C157	C	-0.860799	0.789024	0.218560
C158	C	-0.527466	1.122357	0.551893
C159	C	-0.194132	1.455691	0.885227
O160	O	-0.889028	0.817502	0.190169
O161	O	-0.555695	1.150835	0.523502
O162	O	-0.222361	1.484168	0.856835
N163	N	-0.888124	0.755572	0.251966
N164	N	-0.554790	1.088906	0.585299
N165	N	-0.221457	1.422239	0.918632
C166	C	-0.860841	0.722102	0.285371
C167	C	-0.527508	1.055435	0.618704
C168	C	-0.194174	1.388768	0.952037
O169	O	-0.889096	0.693651	0.313786
O170	O	-0.555763	1.026984	0.647119
O171	O	-0.222430	1.360317	0.980452
C172	C	-0.806238	0.722085	0.285366
C173	C	-0.472904	1.055418	0.618699
C174	C	-0.139571	1.388751	0.952032
C175	C	-0.778916	0.755535	0.251954
C176	C	-0.445583	1.088868	0.585287
C177	C	-0.112249	1.422201	0.918621
C178	C	-0.778873	0.822452	0.185144
C179	C	-0.445540	1.155785	0.518478
C180	C	-0.112206	1.489118	0.851811
C181	C	-0.724273	0.822431	0.185137
C182	C	-0.390939	1.155764	0.518470
C183	C	-0.057606	1.489097	0.851803
C184	C	-0.696994	0.788962	0.218538
C185	C	-0.363660	1.122295	0.551871
C186	C	-0.030327	1.455628	0.885205
C187	C	-0.724315	0.755514	0.251946
C188	C	-0.390982	1.088847	0.585280
C189	C	-0.057649	1.422180	0.918613
C190	C	-0.778956	0.688617	0.318773
C191	C	-0.445623	1.021950	0.652106
C192	C	-0.112289	1.355284	0.985439
C193	C	-0.724349	0.688603	0.318765
C194	C	-0.391016	1.021936	0.652099
C195	C	-0.057682	1.355270	0.985432
C196	C	-0.697027	0.722053	0.285354
C197	C	-0.363694	1.055387	0.618687
C198	C	-0.030361	1.388720	0.952020
C199	C	-0.642436	0.722024	0.285340
C200	C	-0.309103	1.055357	0.618673
C201	C	0.024231	1.388690	0.952007
N202	N	-0.615112	0.755475	0.251934
N203	N	-0.281778	1.088809	0.585268
N204	N	0.051555	1.422142	0.918601
C205	C	-0.642390	0.788944	0.218533
C206	C	-0.309057	1.122278	0.551866
C207	C	0.024276	1.455611	0.885200
C208	C	-0.975511	0.722141	0.285379
C209	C	-0.642178	1.055474	0.618712
C210	C	-0.308845	1.388808	0.952045
C211	C	-1.030114	0.722155	0.285381
C212	C	-0.696780	1.055489	0.618714
C213	C	-0.363447	1.388822	0.952048
C214	C	-1.030068	0.789078	0.218571
C215	C	-0.696735	1.122412	0.551904
C216	C	-0.363402	1.455745	0.885238
C217	C	-0.975465	0.789061	0.218566
C218	C	-0.642132	1.122395	0.551900
C219	C	-0.308798	1.455728	0.885233
C220	C	-0.948187	0.755593	0.251973
C221	C	-0.614854	1.088926	0.585306
C222	C	-0.281520	1.422260	0.918639
C223	C	-0.527725	0.788897	0.218519
C224	C	-0.194392	1.122231	0.551853
C225	C	0.138941	1.455564	0.885186
C226	C	-0.473120	0.788872	0.218513
C227	C	-0.139787	1.122205	0.551847
C228	C	0.193547	1.455538	0.885180
C229	C	-0.473170	0.721951	0.285325
C230	C	-0.139837	1.055284	0.618658
C231	C	0.193496	1.388617	0.951992
C232	C	-0.527771	0.721974	0.285329
C233	C	-0.194438	1.055307	0.618663
C234	C	0.138896	1.388641	0.951996
C235	C	-0.555047	0.755452	0.251925
C236	C	-0.221714	1.088785	0.585258
C237	C	0.111620	1.422118	0.918592
O238	O	-0.614173	0.693562	0.313718
O239	O	-0.280839	1.026895	0.647052
O240	O	0.052494	1.360229	0.980385
O241	O	-0.614128	0.817396	0.190127
O242	O	-0.280795	1.150729	0.523461
O243	O	0.052538	1.484062	0.856794
C244	C	-0.115512	0.755583	0.251967
C245	C	0.217822	1.088916	0.585300
C246	C	0.551155	1.422250	0.918633
C247	C	-0.057397	0.755627	0.251982
C248	C	0.275936	1.088960	0.585315
C249	C	0.609269	1.422293	0.918648
C250	C	-0.251875	0.755497	0.388304
C251	C	0.081458	1.088831	0.721637
C252	C	0.414791	1.422164	1.054971
C253	C	-0.251871	0.755504	0.446418
C254	C	0.081462	1.088838	0.779752
C255	C	0.414795	1.422171	1.113085
C256	C	-0.251888	0.891853	0.251952
C257	C	0.081445	1.225187	0.585286
C258	C	0.414778	1.558520	0.918619
C259	C	-0.251890	0.949967	0.251961
C260	C	0.081443	1.283301	0.585295
C261	C	0.414776	1.616634	0.918628
C262	C	-0.251856	0.755494	0.116089
C263	C	0.081477	1.088827	0.449422
C264	C	0.414811	1.422160	0.782755
C265	C	-0.251713	0.755588	0.057975
C266	C	0.081621	1.088921	0.391308
C267	C	0.414954	1.422254	0.724642
C268	C	-0.218333	0.789012	0.806801
C269	C	0.115001	1.122346	1.140134
C270	C	0.448334	1.455679	1.473468
C271	C	-0.218318	0.789019	0.861405
C272	C	0.115015	1.122352	1.194739
C273	C	0.448348	1.455685	1.528072
O274	O	-0.189864	0.817466	0.889659
O275	O	0.143469	1.150799	1.222992
O276	O	0.476803	1.484133	1.556325
N277	N	-0.251749	0.755562	0.888701
N278	N	0.081584	1.088895	1.222034
N279	N	0.414918	1.422229	1.555368
C280	C	-0.285192	0.722093	0.861389
C281	C	0.048141	1.055426	1.194723
C282	C	0.381474	1.388760	1.528056
O283	O	-0.313626	0.693636	0.889620
O284	O	0.019707	1.026969	1.222954
O285	O	0.353041	1.360302	1.556287
C286	C	-0.285204	0.722084	0.806786
C287	C	0.048130	1.055418	1.140119
C288	C	0.381463	1.388751	1.473453
C289	C	-0.251775	0.755547	0.779493
C290	C	0.081559	1.088880	1.112827
C291	C	0.414892	1.422214	1.446160
C292	C	-0.184906	0.822472	0.779508
C293	C	0.148427	1.155805	1.112841
C294	C	0.481761	1.489138	1.446175
C295	C	-0.184921	0.822466	0.724908
C296	C	0.148412	1.155799	1.058241
C297	C	0.481745	1.489133	1.391574
C298	C	-0.218363	0.789001	0.697600
C299	C	0.114970	1.122334	1.030933
C300	C	0.448303	1.455667	1.364267
C301	C	-0.251790	0.755541	0.724893
C302	C	0.081543	1.088874	1.058226
C303	C	0.414877	1.422208	1.391559
C304	C	-0.318644	0.688613	0.779475
C305	C	0.014689	1.021946	1.112809
C306	C	0.348022	1.355280	1.446142
C307	C	-0.318653	0.688607	0.724868
C308	C	0.014681	1.021940	1.058202
C309	C	0.348014	1.355273	1.391535
C310	C	-0.285223	0.722069	0.697576
C311	C	0.048110	1.055403	1.030909
C312	C	0.381443	1.388736	1.364242
C313	C	-0.285247	0.722070	0.642984
C314	C	0.048086	1.055403	0.976318
C315	C	0.381419	1.388736	1.309651
N316	N	-0.251817	0.755526	0.615689
N317	N	0.081517	1.088860	0.949022
N318	N	0.414850	1.422193	1.282355
C319	C	-0.218375	0.788992	0.642996
C320	C	0.114959	1.122325	0.976330
C321	C	0.448292	1.455658	1.309663
C322	C	-0.285165	0.722113	0.976060
C323	C	0.048168	1.055446	1.309393
C324	C	0.381501	1.388780	1.642727
C325	C	-0.285157	0.722124	1.030662
C326	C	0.048177	1.055457	1.363996
C327	C	0.381510	1.388791	1.697329
C328	C	-0.218282	0.789049	1.030675
C329	C	0.115051	1.122383	1.364008
C330	C	0.448385	1.455716	1.697341
C331	C	-0.218293	0.789041	0.976071
C332	C	0.115040	1.122374	1.309405
C333	C	0.448373	1.455707	1.642738
C334	C	-0.251735	0.755570	0.948764
C335	C	0.081599	1.088903	1.282098
C336	C	0.414932	1.422237	1.615431
C337	C	-0.218410	0.788977	0.528331
C338	C	0.114924	1.122311	0.861665
C339	C	0.448257	1.455644	1.194998
C340	C	-0.218429	0.788970	0.473726
C341	C	0.114904	1.122303	0.807059
C342	C	0.448237	1.455637	1.140393
C343	C	-0.285302	0.722043	0.473719
C344	C	0.048031	1.055376	0.807052
C345	C	0.381364	1.388710	1.140385
C346	C	-0.285285	0.722052	0.528319
C347	C	0.048049	1.055385	0.861653
C348	C	0.381382	1.388719	1.194986
C349	C	-0.251834	0.755521	0.555624
C350	C	0.081499	1.088854	0.888958
C351	C	0.414833	1.422188	1.222291
O352	O	-0.313686	0.693635	0.614696
O353	O	0.019648	1.026969	0.948030
O354	O	0.352981	1.360302	1.281363
O355	O	-0.189941	0.817439	0.614759
O356	O	0.143392	1.150773	0.948092
O357	O	0.476726	1.484106	1.281425
H358	H	-0.191317	0.556514	0.312694
H359	H	0.142016	0.889847	0.646028
H360	H	0.475350	1.223180	0.979361
H361	H	-0.702031	0.849670	0.157932
H362	H	-0.368697	1.183003	0.491265
H363	H	-0.035364	1.516337	0.824598
H364	H	-0.312384	0.694881	1.052880
H365	H	0.020950	1.028214	1.386213
H366	H	0.354283	1.361548	1.719546
C367	C	-0.322061	0.685245	0.558342
C368	C	0.011272	1.018578	0.891675
C369	C	0.344605	1.351912	1.225009
N370	N	-0.349759	0.657517	0.580952
N371	N	-0.016425	0.990851	0.914285
N372	N	0.316908	1.324184	1.247618
C373	C	-0.181491	0.825859	1.060724
C374	C	0.151842	1.159192	1.394057
C375	C	0.485175	1.492525	1.727390
N376	N	-0.153782	0.853581	1.083358
N377	N	0.179552	1.186915	1.416691
N378	N	0.512885	1.520248	1.750025
C379	C	-0.322008	0.061824	0.181602
C380	C	0.011325	0.395157	0.514935
C381	C	0.344658	0.728491	0.848269
N382	N	-0.349678	0.084406	0.153844
N383	N	-0.016344	0.417739	0.487177
N384	N	0.316989	0.751073	0.820510
C385	C	-0.321961	0.685295	0.946027
C386	C	0.011373	1.018628	1.279361
C387	C	0.344706	1.351962	1.612694
N388	N	-0.349675	0.657564	0.923410
N389	N	-0.016341	0.990897	1.256743
N390	N	0.316992	1.324230	1.590076
H391	H	-0.191071	0.816288	0.953853
H392	H	0.142262	1.149621	1.287186
H393	H	0.475595	1.482955	1.620520
C394	C	-0.148374	0.313183	0.355775
C395	C	0.184959	0.646517	0.689109
C396	C	0.518292	0.979850	1.022442
N397	N	-0.120700	0.335823	0.383526
N398	N	0.212633	0.669156	0.716860
N399	N	0.545967	1.002490	1.050193
C400	C	-0.557826	0.685176	0.322082
C401	C	-0.224492	1.018509	0.655415
C402	C	0.108841	1.351842	0.988749
N403	N	-0.580459	0.657462	0.349769
N404	N	-0.247126	0.990796	0.683102
N405	N	0.086208	1.324129	1.016436
H406	H	-0.345866	0.661364	0.801688
H407	H	-0.012532	0.994697	1.135021
H408	H	0.320801	1.328031	1.468355
C409	C	-0.945511	0.685323	0.322133
C410	C	-0.612177	1.018656	0.655466
C411	C	-0.278844	1.351990	0.988800
N412	N	-0.922917	0.657595	0.349819
N413	N	-0.589583	0.990928	0.683153
N414	N	-0.256250	1.324261	1.016486
C415	C	-0.148381	0.198538	0.355790
C416	C	0.184953	0.531871	0.689123
C417	C	0.518286	0.865205	1.022456
N418	N	-0.120717	0.175959	0.383556
N419	N	0.212616	0.509292	0.716889
N420	N	0.545949	0.842626	1.050223
H421	H	-0.312472	-0.045016	0.191191
H422	H	0.020861	0.288318	0.524524
H423	H	0.354195	0.621651	0.857858
C424	C	-0.945416	0.825860	0.181813
C425	C	-0.612083	1.159194	0.515146
C426	C	-0.278750	1.492527	0.848479
N427	N	-0.922786	0.853580	0.154129
N428	N	-0.589453	1.186913	0.487462
N429	N	-0.256120	1.520247	0.820796
H430	H	-0.345834	0.305183	0.157644
H431	H	-0.012500	0.638516	0.490978
H432	H	0.320833	0.971849	0.824311
H433	H	-0.801078	0.849709	0.157945
H434	H	-0.467744	1.183042	0.491278
H435	H	-0.134411	1.516376	0.824612
C436	C	-0.322000	0.564182	0.181564
C437	C	0.011333	0.897515	0.514897
C438	C	0.344666	1.230848	0.848231
N439	N	-0.349653	0.586780	0.153803
N440	N	-0.016320	0.920114	0.487137
N441	N	0.317013	1.253447	0.820470
H442	H	-0.191207	0.816221	0.451507
H443	H	0.142126	1.149554	0.784840
H444	H	0.475460	1.482888	1.118173
C445	C	-1.060086	0.825899	0.181833
C446	C	-0.726752	1.159233	0.515166
C447	C	-0.393419	1.492566	0.848500
N448	N	-1.082696	0.853632	0.154164
N449	N	-0.749363	1.186965	0.487498
N450	N	-0.416029	1.520299	0.820831
H451	H	-0.191315	-0.044898	0.312735
H452	H	0.142019	0.288436	0.646069
H453	H	0.475352	0.621769	0.979402
H454	H	-0.191305	0.457464	0.312697
H455	H	0.142028	0.790797	0.646030
H456	H	0.475362	1.124130	0.979363
C457	C	-1.060161	0.685352	0.322132
C458	C	-0.726828	1.018686	0.655465
C459	C	-0.393495	1.352019	0.988798
N460	N	-1.082791	0.657633	0.349816
N461	N	-0.749458	0.990967	0.683149
N462	N	-0.416125	1.324300	1.016482
H463	H	-0.345880	0.661345	0.702638
H464	H	-0.012546	0.994678	1.035971
H465	H	0.320787	1.328011	1.369305
C466	C	-0.808998	0.651820	0.355531
C467	C	-0.475664	0.985153	0.688864
C468	C	-0.142331	1.318487	1.022197
N469	N	-0.831624	0.624103	0.383220
N470	N	-0.498291	0.957436	0.716553
N471	N	-0.164957	1.290770	1.049886
H472	H	-0.312531	0.694798	0.451475
H473	H	0.020802	1.028131	0.784808
H474	H	0.354135	1.361464	1.118141
H475	H	-0.345840	0.206133	0.157652
H476	H	-0.012507	0.539466	0.490986
H477	H	0.320827	0.872799	0.824319
C478	C	-0.181766	0.061979	0.322302
C479	C	0.151567	0.395312	0.655636
C480	C	0.484900	0.728645	0.988969
N481	N	-0.154096	0.084620	0.350056
N482	N	0.179237	0.417954	0.683389
N483	N	0.512570	0.751287	1.016723
H484	H	-0.702142	0.661350	0.345971
H485	H	-0.368808	0.994683	0.679304
H486	H	-0.035475	1.328016	1.012637
C487	C	-0.443153	0.685139	0.322067
C488	C	-0.109820	1.018472	0.655400
C489	C	0.223514	1.351805	0.988733
N490	N	-0.420543	0.657415	0.349744
N491	N	-0.087209	0.990748	0.683077
N492	N	0.246124	1.324081	1.016410
H493	H	-0.312470	0.457322	0.191149
H494	H	0.020863	0.790655	0.524483
H495	H	0.354196	1.123988	0.857816
C496	C	-0.443070	0.825669	0.181754
C497	C	-0.109736	1.159002	0.515087
C498	C	0.223597	1.492335	0.848420
N499	N	-0.420437	0.853383	0.154067
N500	N	-0.087104	1.186716	0.487400
N501	N	0.246229	1.520050	0.820733
H502	H	-0.549927	0.816159	0.191319
H503	H	-0.216594	1.149492	0.524653
H504	H	0.116739	1.482826	0.857986
H505	H	-0.191169	0.816229	0.550557
H506	H	0.142164	1.149562	0.883890
H507	H	0.475497	1.482896	1.217223
C508	C	-0.148139	0.859270	0.694893
C509	C	0.185194	1.192604	1.028226
C510	C	0.518528	1.525937	1.361559
N511	N	-0.120430	0.886991	0.672289
N512	N	0.212904	1.220324	1.005622
N513	N	0.546237	1.553657	1.338955
C514	C	-0.148116	0.859292	0.809538
C515	C	0.185218	1.192625	1.142871
C516	C	0.518551	1.525958	1.476205
N517	N	-0.120406	0.887030	0.832153
N518	N	0.212927	1.220363	1.165486
N519	N	0.546261	1.553697	1.498820
