data_functionalizedCrystal
_audit_creation_method	'MofGen! by Chris Wilmer'
_symmetry_space_group_name_H-M	'P1'
_symmetry_Int_Tables_number	1
_symmetry_cell_setting	triclinic
loop_
_symmetry_equiv_pos_as_xyz
  x,y,z
_cell_length_a	16.625547
_cell_length_b	21.295417
_cell_length_c	16.625539
_cell_angle_alpha	89.966627
_cell_angle_beta	89.975178
_cell_angle_gamma	90.030443
loop_
_atom_site_label
_atom_site_type_symbol
_atom_site_fract_x
_atom_site_fract_y
_atom_site_fract_z
Zn1	Zn	1.232635	-0.250609	-0.455972
Zn2	Zn	1.565969	0.082724	-0.122639
Zn3	Zn	1.899302	0.416058	0.210694
Zn4	Zn	1.232520	-0.355882	-0.321128
Zn5	Zn	1.565853	-0.022549	0.012206
Zn6	Zn	1.899186	0.310784	0.345539
Zn7	Zn	1.097797	-0.250631	-0.321143
Zn8	Zn	1.431131	0.082702	0.012190
Zn9	Zn	1.764464	0.416036	0.345524
Zn10	Zn	1.097749	-0.355844	-0.455908
Zn11	Zn	1.431082	-0.022511	-0.122574
Zn12	Zn	1.764415	0.310822	0.210759
O13	O	1.165175	-0.303242	-0.388538
O14	O	1.498509	0.030092	-0.055204
O15	O	1.831842	0.363425	0.278129
O16	O	1.345452	-0.264581	-0.438106
O17	O	1.678786	0.068753	-0.104772
O18	O	2.012119	0.402086	0.228561
O19	O	1.214620	-0.341946	-0.208297
O20	O	1.547954	-0.008612	0.125036
O21	O	1.881287	0.324721	0.458369
O22	O	1.115753	-0.162539	-0.339062
O23	O	1.449086	0.170795	-0.005729
O24	O	1.782419	0.504128	0.327605
O25	O	1.345367	-0.341925	-0.339036
O26	O	1.678701	-0.008591	-0.005703
O27	O	2.012034	0.324742	0.327631
O28	O	1.214818	-0.162523	-0.438121
O29	O	1.548151	0.170811	-0.104787
O30	O	1.881484	0.504144	0.228546
O31	O	1.115640	-0.264618	-0.208308
O32	O	1.448974	0.068715	0.125025
O33	O	1.782307	0.402049	0.458358
O34	O	0.984958	-0.264581	-0.338999
O35	O	1.318292	0.068752	-0.005666
O36	O	1.651625	0.402086	0.327668
O37	O	1.115670	-0.341859	-0.568749
O38	O	1.449003	-0.008526	-0.235415
O39	O	1.782337	0.324807	0.097918
O40	O	0.984923	-0.341881	-0.438010
O41	O	1.318256	-0.008547	-0.104677
O42	O	1.651589	0.324786	0.228657
O43	O	1.214771	-0.264544	-0.568796
O44	O	1.548104	0.068790	-0.235463
O45	O	1.881437	0.402123	0.097870
O46	O	1.214573	-0.443967	-0.338973
O47	O	1.547907	-0.110633	-0.005640
O48	O	1.881240	0.222700	0.327694
O49	O	1.115558	-0.443939	-0.437995
O50	O	1.448891	-0.110605	-0.104662
O51	O	1.782224	0.222728	0.228671
C52	C	0.955684	-0.303229	-0.388500
C53	C	1.289018	0.030104	-0.055166
C54	C	1.622351	0.363437	0.278167
C55	C	0.866063	-0.303239	-0.388502
C56	C	1.199397	0.030094	-0.055169
C57	C	1.532730	0.363427	0.278164
C58	C	0.793281	-0.303241	-0.388512
C59	C	1.126614	0.030093	-0.055179
C60	C	1.459948	0.363426	0.278154
C61	C	0.701972	-0.303244	-0.388533
C62	C	1.035306	0.030089	-0.055199
C63	C	1.368639	0.363423	0.278134
C64	C	0.629196	-0.303250	-0.388553
C65	C	0.962529	0.030084	-0.055220
C66	C	1.295863	0.363417	0.278114
C67	C	0.537882	-0.303254	-0.388572
C68	C	0.871215	0.030079	-0.055239
C69	C	1.204548	0.363413	0.278094
C70	C	1.165070	-0.466793	-0.388493
C71	C	1.498403	-0.133460	-0.055160
C72	C	1.831736	0.199873	0.278174
C73	C	1.165098	-0.536761	-0.388501
C74	C	1.498431	-0.203428	-0.055168
C75	C	1.831765	0.129905	0.278166
C76	C	1.216701	-0.569622	-0.336993
C77	C	1.550035	-0.236288	-0.003660
C78	C	1.883368	0.097045	0.329674
C79	C	1.216739	-0.635364	-0.337011
C80	C	1.550073	-0.302031	-0.003678
C81	C	1.883406	0.031302	0.329656
C82	C	1.165159	-0.668244	-0.388529
C83	C	1.498493	-0.334911	-0.055195
C84	C	1.831826	-0.001577	0.278138
C85	C	1.113552	-0.635376	-0.440047
C86	C	1.446886	-0.302042	-0.106713
C87	C	1.780219	0.031291	0.226620
C88	C	1.113522	-0.569634	-0.440033
C89	C	1.446855	-0.236301	-0.106699
C90	C	1.780189	0.097032	0.226634
N91	N	1.094624	-0.771510	-0.394663
N92	N	1.427958	-0.438176	-0.061329
N93	N	1.761291	-0.104843	0.272004
N94	N	1.094656	-0.833961	-0.394671
N95	N	1.427989	-0.500628	-0.061338
N96	N	1.761322	-0.167294	0.271995
C97	C	1.165250	-0.866319	-0.388575
C98	C	1.498583	-0.532985	-0.055242
C99	C	1.831916	-0.199652	0.278092
N100	N	1.235813	-0.833866	-0.382454
N101	N	1.569146	-0.500532	-0.049121
N102	N	1.902479	-0.167199	0.284213
N103	N	1.235780	-0.771408	-0.382441
N104	N	1.569114	-0.438075	-0.049108
N105	N	1.902447	-0.104742	0.284225
C106	C	1.165187	-0.739529	-0.388550
C107	C	1.498520	-0.406196	-0.055217
C108	C	1.831854	-0.072863	0.278117
C109	C	1.216898	-0.970465	-0.337084
C110	C	1.550232	-0.637131	-0.003751
C111	C	1.883565	-0.303798	0.329583
C112	C	1.216937	-1.036208	-0.337108
C113	C	1.550271	-0.702875	-0.003774
C114	C	1.883604	-0.369542	0.329559
C115	C	1.113743	-1.036218	-0.440139
C116	C	1.447077	-0.702885	-0.106806
C117	C	1.780410	-0.369552	0.226528
C118	C	1.113712	-0.970476	-0.440120
C119	C	1.447045	-0.637142	-0.106786
C120	C	1.780378	-0.303809	0.226547
C121	C	1.165288	-0.937603	-0.388588
C122	C	1.498621	-0.604270	-0.055254
C123	C	1.831954	-0.270936	0.278079
C124	C	1.375484	-0.303254	-0.388576
C125	C	1.708818	0.030079	-0.055243
C126	C	2.042151	0.363412	0.278090
C127	C	1.465105	-0.303260	-0.388593
C128	C	1.798439	0.030073	-0.055260
C129	C	2.131772	0.363407	0.278074
C130	C	1.165228	-0.303195	-0.598847
C131	C	1.498561	0.030139	-0.265513
C132	C	1.831894	0.363472	0.067820
C133	C	1.165250	-0.303175	-0.688468
C134	C	1.498583	0.030158	-0.355135
C135	C	1.831917	0.363492	-0.021801
C136	C	1.165303	-0.139051	-0.388600
C137	C	1.498637	0.194282	-0.055267
C138	C	1.831970	0.527615	0.278067
C139	C	1.165358	-0.069083	-0.388627
C140	C	1.498691	0.264250	-0.055293
C141	C	1.832025	0.597583	0.278040
C142	C	1.165287	-0.303104	-1.016644
C143	C	1.498621	0.030229	-0.683310
C144	C	1.831954	0.363562	-0.349977
C145	C	1.165275	-0.303126	-0.925335
C146	C	1.498608	0.030207	-0.592002
C147	C	1.831941	0.363541	-0.258669
C148	C	1.165269	-0.303140	-0.852559
C149	C	1.498602	0.030193	-0.519225
C150	C	1.831936	0.363527	-0.185892
C151	C	1.165256	-0.303161	-0.761244
C152	C	1.498589	0.030173	-0.427911
C153	C	1.831922	0.363506	-0.094578
C154	C	1.165169	-0.303243	-0.179047
C155	C	1.498503	0.030090	0.154286
C156	C	1.831836	0.363424	0.487620
C157	C	1.165303	-0.303086	-0.089426
C158	C	1.498637	0.030248	0.243907
C159	C	1.831970	0.363581	0.577240
H160	H	1.258700	-0.542859	-0.295035
H161	H	1.592033	-0.209525	0.038299
H162	H	1.925366	0.123808	0.371632
Br163	Br	1.286777	-0.679971	-0.267103
Br164	Br	1.620111	-0.346637	0.066231
Br165	Br	1.953444	-0.013304	0.399564
Br166	Br	1.043673	-0.925876	-0.510025
Br167	Br	1.377006	-0.592543	-0.176692
Br168	Br	1.710339	-0.259210	0.156641
Br169	Br	1.043557	-0.679996	-0.509971
Br170	Br	1.376890	-0.346663	-0.176637
Br171	Br	1.710224	-0.013329	0.156696
Br172	Br	1.043484	-0.525035	-0.509943
Br173	Br	1.376818	-0.191702	-0.176610
Br174	Br	1.710151	0.141632	0.156723
H175	H	1.258964	-1.062962	-0.295165
H176	H	1.592297	-0.729629	0.038168
H177	H	1.925631	-0.396295	0.371501
Br178	Br	1.286890	-0.925847	-0.267147
Br179	Br	1.620223	-0.592514	0.066186
Br180	Br	1.953557	-0.259181	0.399520
Br181	Br	1.043749	-1.080833	-0.510066
Br182	Br	1.377082	-0.747500	-0.176732
Br183	Br	1.710416	-0.414167	0.156601
