data_functionalizedCrystal
_audit_creation_method	'MofGen! by Chris Wilmer'
_symmetry_space_group_name_H-M	'P1'
_symmetry_Int_Tables_number	1
_symmetry_cell_setting	triclinic
loop_
_symmetry_equiv_pos_as_xyz
  x,y,z
_cell_length_a	12.827893
_cell_length_b	18.101397
_cell_length_c	12.827885
_cell_angle_alpha	89.963418
_cell_angle_beta	89.980728
_cell_angle_gamma	90.020436
loop_
_atom_site_label
_atom_site_type_symbol
_atom_site_fract_x
_atom_site_fract_y
_atom_site_fract_z
Zn1	Zn	1.597633	-0.294794	-0.590799
Zn2	Zn	1.930966	0.038539	-0.257466
Zn3	Zn	2.264299	0.371872	0.075867
Zn4	Zn	1.597511	-0.418654	-0.416039
Zn5	Zn	1.930845	-0.085320	-0.082706
Zn6	Zn	2.264178	0.248013	0.250628
Zn7	Zn	1.422874	-0.294830	-0.416073
Zn8	Zn	1.756207	0.038503	-0.082740
Zn9	Zn	2.089541	0.371836	0.250594
Zn10	Zn	1.422844	-0.418598	-0.590739
Zn11	Zn	1.756177	-0.085265	-0.257406
Zn12	Zn	2.089511	0.248068	0.075928
O13	O	1.510216	-0.356719	-0.503412
O14	O	1.843549	-0.023386	-0.170079
O15	O	2.176882	0.309947	0.163254
O16	O	1.743853	-0.311232	-0.567628
O17	O	2.077186	0.022101	-0.234295
O18	O	2.410519	0.355434	0.099039
O19	O	1.574307	-0.402266	-0.269807
O20	O	1.907641	-0.068933	0.063526
O21	O	2.240974	0.264400	0.396859
O22	O	1.446120	-0.191193	-0.439290
O23	O	1.779453	0.142141	-0.105957
O24	O	2.112786	0.475474	0.227376
O25	O	1.743763	-0.402231	-0.439232
O26	O	2.077097	-0.068898	-0.105899
O27	O	2.410430	0.264435	0.227434
O28	O	1.574514	-0.191166	-0.567661
O29	O	1.907847	0.142167	-0.234328
O30	O	2.241181	0.475500	0.099006
O31	O	1.446002	-0.311294	-0.269832
O32	O	1.779335	0.022039	0.063501
O33	O	2.112669	0.355373	0.396834
O34	O	1.276634	-0.311240	-0.439232
O35	O	1.609967	0.022093	-0.105898
O36	O	1.943301	0.355426	0.227435
O37	O	1.446068	-0.402137	-0.736983
O38	O	1.779402	-0.068804	-0.403650
O39	O	2.112735	0.264529	-0.070316
O40	O	1.276612	-0.402172	-0.567558
O41	O	1.609945	-0.068839	-0.234225
O42	O	1.943279	0.264494	0.099109
O43	O	1.574485	-0.311179	-0.737027
O44	O	1.907818	0.022154	-0.403694
O45	O	2.241151	0.355488	-0.070361
O46	O	1.574278	-0.522279	-0.439174
O47	O	1.907611	-0.188946	-0.105840
O48	O	2.240945	0.144388	0.227493
O49	O	1.445951	-0.522239	-0.567525
O50	O	1.779284	-0.188905	-0.234192
O51	O	2.112617	0.144428	0.099142
C52	C	1.238706	-0.356705	-0.503393
C53	C	1.572039	-0.023372	-0.170059
C54	C	1.905372	0.309962	0.163274
C55	C	1.122553	-0.356717	-0.503409
C56	C	1.455886	-0.023383	-0.170076
C57	C	1.789219	0.309950	0.163258
C58	C	1.070784	-0.401783	-0.566811
C59	C	1.404118	-0.068450	-0.233478
C60	C	1.737451	0.264884	0.099856
C61	C	0.950734	-0.401796	-0.566829
C62	C	1.284067	-0.068463	-0.233496
C63	C	1.617401	0.264871	0.099838
C64	C	1.510126	-0.549130	-0.503362
C65	C	1.843459	-0.215796	-0.170029
C66	C	2.176793	0.117537	0.163305
C67	C	1.510183	-0.631444	-0.503375
C68	C	1.843517	-0.298110	-0.170042
C69	C	2.176850	0.035223	0.163292
C70	C	1.510317	-0.930535	-0.503470
C71	C	1.843650	-0.597201	-0.170137
C72	C	2.176984	-0.263868	0.163196
C73	C	1.590832	-0.899204	-0.422499
C74	C	1.924165	-0.565871	-0.089166
C75	C	2.257498	-0.232538	0.244168
C76	C	1.591111	-0.813586	-0.422709
C77	C	1.924444	-0.480252	-0.089375
C78	C	2.257777	-0.146919	0.243958
C79	C	1.510251	-0.782152	-0.503422
C80	C	1.843584	-0.448819	-0.170089
C81	C	2.176917	-0.115486	0.163244
C82	C	1.540108	-0.813151	-0.613572
C83	C	1.873441	-0.479818	-0.280239
C84	C	2.206775	-0.146485	0.053094
C85	C	1.540731	-0.898796	-0.613131
C86	C	1.874065	-0.565463	-0.279798
C87	C	2.207398	-0.232130	0.053535
C88	C	1.399730	-0.899046	-0.475245
C89	C	1.733063	-0.565712	-0.141912
C90	C	2.066396	-0.232379	0.191422
C91	C	1.400276	-0.813396	-0.472786
C92	C	1.733609	-0.480063	-0.139453
C93	C	2.066943	-0.146730	0.193880
C94	C	1.510212	-0.698293	-0.503402
C95	C	1.843545	-0.364959	-0.170068
C96	C	2.176878	-0.031626	0.163265
C97	C	1.510359	-1.014394	-0.503498
C98	C	1.843692	-0.681061	-0.170165
C99	C	2.177025	-0.347728	0.163168
C100	C	1.782786	-0.356734	-0.503433
C101	C	2.116119	-0.023401	-0.170100
C102	C	2.449452	0.309933	0.163234
C103	C	1.898939	-0.356740	-0.503442
C104	C	2.232272	-0.023407	-0.170109
C105	C	2.565605	0.309926	0.163225
C106	C	1.510287	-0.356648	-0.775983
C107	C	1.843620	-0.023315	-0.442649
C108	C	2.176953	0.310019	-0.109316
C109	C	1.510317	-0.356618	-0.892136
C110	C	1.843650	-0.023284	-0.558803
C111	C	2.176984	0.310049	-0.225469
C112	C	1.510334	-0.163557	-0.503486
C113	C	1.843667	0.169776	-0.170153
C114	C	2.177000	0.503109	0.163180
C115	C	1.510384	-0.081243	-0.503518
C116	C	1.843717	0.252090	-0.170184
C117	C	2.177051	0.585424	0.163149
C118	C	1.573868	-0.311600	-0.943943
C119	C	1.907202	0.021733	-0.610609
C120	C	2.240535	0.355067	-0.277276
C121	C	1.573901	-0.311567	-1.063993
C122	C	1.907235	0.021766	-0.730660
C123	C	2.240568	0.355099	-0.397327
C124	C	1.510205	-0.356737	-0.231903
C125	C	1.843538	-0.023403	0.101431
C126	C	2.176872	0.309930	0.434764
C127	C	1.510377	-0.356558	-0.115750
C128	C	1.843710	-0.023225	0.217583
C129	C	2.177044	0.310108	0.550917
H130	H	0.906215	-0.440381	-0.621107
H131	H	1.239548	-0.107048	-0.287774
H132	H	1.572881	0.226286	0.045560
H133	H	1.620037	-0.791642	-0.637886
H134	H	1.953371	-0.458309	-0.304553
H135	H	2.286704	-0.124975	0.028781
H136	H	1.372568	-0.920712	-0.396317
H137	H	1.705902	-0.587379	-0.062983
H138	H	2.039235	-0.254045	0.270350
H139	H	1.077996	-0.318141	-0.449146
H140	H	1.411330	0.015193	-0.115813
H141	H	1.744663	0.348526	0.217521
Cl142	Cl	1.426341	-0.416085	-0.960867
Cl143	Cl	1.759675	-0.082752	-0.627534
Cl144	Cl	2.093008	0.250582	-0.294201
H145	H	0.943451	-0.318158	-0.449155
H146	H	1.276785	0.015175	-0.115821
H147	H	1.610118	0.348509	0.217512
Cl148	Cl	1.657812	-0.252110	-0.875211
Cl149	Cl	1.991146	0.081223	-0.541878
Cl150	Cl	2.324479	0.414557	-0.208545
Cl151	Cl	1.365508	-0.782123	-0.347637
Cl152	Cl	1.698841	-0.448790	-0.014304
Cl153	Cl	2.032174	-0.115457	0.319029
H154	H	1.572431	-0.792630	-0.341034
H155	H	1.905764	-0.459297	-0.007701
H156	H	2.239097	-0.125963	0.325633
H157	H	1.572377	-0.919853	-0.340579
H158	H	1.905711	-0.586520	-0.007246
H159	H	2.239044	-0.253187	0.326087
H160	H	1.115341	-0.440353	-0.621082
H161	H	1.448674	-0.107020	-0.287748
H162	H	1.782007	0.226313	0.045585
Cl163	Cl	1.716617	-0.932342	-0.450998
Cl164	Cl	2.049950	-0.599009	-0.117665
Cl165	Cl	2.383284	-0.265675	0.215669
Cl166	Cl	1.717583	-0.781860	-0.451548
Cl167	Cl	2.050916	-0.448527	-0.118215
Cl168	Cl	2.384249	-0.115194	0.215118
H169	H	1.337059	-0.792007	-0.527443
H170	H	1.670392	-0.458674	-0.194110
H171	H	2.003726	-0.125340	0.139223
H172	H	1.621565	-0.918714	-0.637041
H173	H	1.954899	-0.585380	-0.303708
H174	H	2.288232	-0.252047	0.029626
Cl175	Cl	1.454114	-0.930793	-0.709442
Cl176	Cl	1.787447	-0.597460	-0.376109
Cl177	Cl	2.120780	-0.264127	-0.042776
Cl178	Cl	1.657915	-0.252063	-1.132773
Cl179	Cl	1.991248	0.081270	-0.799439
Cl180	Cl	2.324581	0.414604	-0.466106
H181	H	1.483258	-0.792787	-0.675525
H182	H	1.816591	-0.459454	-0.342191
H183	H	2.149925	-0.126121	-0.008858
H184	H	1.339740	-0.919307	-0.534220
H185	H	1.673073	-0.585974	-0.200887
H186	H	2.006407	-0.252640	0.132446
H187	H	1.455969	-0.395104	-1.071204
H188	H	1.789303	-0.061771	-0.737871
H189	H	2.122636	0.271562	-0.404538
