data_functionalizedCrystal
_audit_creation_method	'MofGen! by Chris Wilmer'
_symmetry_space_group_name_H-M	'P1'
_symmetry_Int_Tables_number	1
_symmetry_cell_setting	triclinic
loop_
_symmetry_equiv_pos_as_xyz
  x,y,z
_cell_length_a	11.169417
_cell_length_b	16.120484
_cell_length_c	11.169409
_cell_angle_alpha	92.860730
_cell_angle_beta	89.980176
_cell_angle_gamma	92.926269
loop_
_atom_site_label
_atom_site_type_symbol
_atom_site_fract_x
_atom_site_fract_y
_atom_site_fract_z
Zn1	Zn	1.810616	-0.331818	-0.702705
Zn2	Zn	2.143949	0.001515	-0.369372
Zn3	Zn	2.477282	0.334848	-0.036039
Zn4	Zn	1.800274	-0.471261	-0.512176
Zn5	Zn	2.133607	-0.137928	-0.178843
Zn6	Zn	2.466940	0.195405	0.154490
Zn7	Zn	1.609898	-0.331869	-0.502043
Zn8	Zn	1.943231	0.001464	-0.168710
Zn9	Zn	2.276565	0.334798	0.164623
Zn10	Zn	1.599683	-0.471193	-0.712816
Zn11	Zn	1.933016	-0.137860	-0.379483
Zn12	Zn	2.266349	0.195473	-0.046149
O13	O	1.705118	-0.401535	-0.607435
O14	O	2.038451	-0.068202	-0.274102
O15	O	2.371784	0.265131	0.059231
O16	O	1.977193	-0.350323	-0.677440
O17	O	2.310526	-0.016989	-0.344107
O18	O	2.643860	0.316344	-0.010774
O19	O	1.774967	-0.452820	-0.342886
O20	O	2.108300	-0.119487	-0.009552
O21	O	2.441634	0.213846	0.323781
O22	O	1.645127	-0.215197	-0.520189
O23	O	1.978460	0.118136	-0.186856
O24	O	2.311794	0.451469	0.146477
O25	O	1.969595	-0.452771	-0.537459
O26	O	2.302928	-0.119438	-0.204126
O27	O	2.636262	0.213896	0.129207
O28	O	1.792593	-0.215160	-0.667615
O29	O	2.125927	0.118173	-0.334282
O30	O	2.459260	0.451507	-0.000948
O31	O	1.635099	-0.350409	-0.335441
O32	O	1.968432	-0.017076	-0.002108
O33	O	2.301765	0.316257	0.331225
O34	O	1.440594	-0.350344	-0.529994
O35	O	1.773927	-0.017010	-0.196660
O36	O	2.107260	0.316323	0.136673
O37	O	1.627717	-0.452655	-0.879421
O38	O	1.961050	-0.119322	-0.546088
O39	O	2.294383	0.214011	-0.212754
O40	O	1.433089	-0.452705	-0.684847
O41	O	1.766422	-0.119371	-0.351514
O42	O	2.099755	0.213962	-0.018181
O43	O	1.782688	-0.350257	-0.871993
O44	O	2.116021	-0.016924	-0.538659
O45	O	2.449355	0.316410	-0.205326
O46	O	1.765062	-0.587917	-0.547264
O47	O	2.098395	-0.254584	-0.213930
O48	O	2.431728	0.078749	0.119403
O49	O	1.617688	-0.587867	-0.694673
O50	O	1.951022	-0.254534	-0.361340
O51	O	2.284355	0.078799	-0.028006
C52	C	1.393294	-0.401523	-0.607419
C53	C	1.726627	-0.068189	-0.274086
C54	C	2.059960	0.265144	0.059248
C55	C	1.259893	-0.401537	-0.607442
C56	C	1.593226	-0.068204	-0.274108
C57	C	1.926559	0.265129	0.059225
C58	C	1.689177	-0.618142	-0.623191
C59	C	2.022510	-0.284809	-0.289858
C60	C	2.355844	0.048524	0.043476
C61	C	1.682467	-0.710808	-0.629972
C62	C	2.015801	-0.377474	-0.296638
C63	C	2.349134	-0.044141	0.036695
C64	C	1.670224	-0.880468	-0.642376
C65	C	2.003557	-0.547135	-0.309042
C66	C	2.336891	-0.213801	0.024291
C67	C	1.740226	-0.921762	-0.572514
C68	C	2.073559	-0.588429	-0.239181
C69	C	2.406893	-0.255096	0.094152
C70	C	1.733414	-1.016167	-0.579416
C71	C	2.066747	-0.682834	-0.246083
C72	C	2.400081	-0.349501	0.087251
C73	C	1.677035	-0.786055	-0.635476
C74	C	2.010368	-0.452721	-0.302142
C75	C	2.343701	-0.119388	0.031191
C76	C	2.018159	-0.401549	-0.607452
C77	C	2.351492	-0.068215	-0.274119
C78	C	2.684826	0.265118	0.059214
C79	C	2.151558	-0.401554	-0.607460
C80	C	2.484892	-0.068221	-0.274126
C81	C	2.818225	0.265112	0.059207
C82	C	1.705217	-0.401443	-0.920471
C83	C	2.038550	-0.068110	-0.587138
C84	C	2.371883	0.265224	-0.253804
C85	C	1.705259	-0.401403	-1.053868
C86	C	2.038592	-0.068070	-0.720535
C87	C	2.371925	0.265263	-0.387202
C88	C	1.721153	-0.184083	-0.591644
C89	C	2.054487	0.149250	-0.258311
C90	C	2.387820	0.482584	0.075023
C91	C	1.727987	-0.091417	-0.584915
C92	C	2.061320	0.241916	-0.251582
C93	C	2.394653	0.575249	0.081752
C94	C	1.705093	-0.401568	-0.295613
C95	C	2.038426	-0.068234	0.037721
C96	C	2.371759	0.265099	0.371054
C97	C	1.705300	-0.401372	-0.162199
C98	C	2.038633	-0.068039	0.171134
C99	C	2.371967	0.265295	0.504468
H100	H	1.805272	-0.886215	-0.507520
H101	H	2.138605	-0.552881	-0.174187
H102	H	2.471939	-0.219548	0.159147
Cl103	Cl	1.569799	-0.935348	-0.742712
Cl104	Cl	1.903133	-0.602014	-0.409379
Cl105	Cl	2.236466	-0.268681	-0.076046
