data_functionalizedCrystal
_audit_creation_method	'MofGen! by Chris Wilmer'
_symmetry_space_group_name_H-M	'P1'
_symmetry_Int_Tables_number	1
_symmetry_cell_setting	triclinic
loop_
_symmetry_equiv_pos_as_xyz
  x,y,z
_cell_length_a	16.120490
_cell_length_b	16.120484
_cell_length_c	12.827885
_cell_angle_alpha	87.136072
_cell_angle_beta	92.917123
_cell_angle_gamma	90.164100
loop_
_atom_site_label
_atom_site_type_symbol
_atom_site_fract_x
_atom_site_fract_y
_atom_site_fract_z
Zn1	Zn	1.254492	-0.395626	0.695598
Zn2	Zn	1.504492	-0.145626	0.945598
Zn3	Zn	1.754492	0.104374	1.195598
Zn4	Zn	2.004492	0.354374	1.445598
Zn5	Zn	1.247331	-0.534698	0.529224
Zn6	Zn	1.497331	-0.284698	0.779224
Zn7	Zn	1.747331	-0.034698	1.029224
Zn8	Zn	1.997331	0.215302	1.279224
Zn9	Zn	1.115427	-0.388599	0.511596
Zn10	Zn	1.365427	-0.138599	0.761596
Zn11	Zn	1.615427	0.111401	1.011596
Zn12	Zn	1.865427	0.361401	1.261596
Zn13	Zn	1.108344	-0.527572	0.694646
Zn14	Zn	1.358344	-0.277572	0.944646
Zn15	Zn	1.608344	-0.027572	1.194646
Zn16	Zn	1.858344	0.222428	1.444646
O17	O	1.181398	-0.461624	0.607766
O18	O	1.431398	-0.211624	0.857766
O19	O	1.681398	0.038376	1.107766
O20	O	1.931398	0.288376	1.357766
O21	O	1.369908	-0.419998	0.681304
O22	O	1.619908	-0.169998	0.931304
O23	O	1.869908	0.080002	1.181304
O24	O	2.119908	0.330002	1.431304
O25	O	1.229801	-0.515359	0.380650
O26	O	1.479801	-0.265359	0.630650
O27	O	1.729801	-0.015359	0.880650
O28	O	1.979801	0.234641	1.130650
O29	O	1.139835	-0.273169	0.529025
O30	O	1.389835	-0.023169	0.779025
O31	O	1.639835	0.226831	1.029025
O32	O	1.889835	0.476831	1.279025
O33	O	1.364647	-0.522173	0.559069
O34	O	1.614647	-0.272173	0.809069
O35	O	1.864647	-0.022173	1.059069
O36	O	2.114647	0.227827	1.309069
O37	O	1.242006	-0.278332	0.664211
O38	O	1.492006	-0.028332	0.914211
O39	O	1.742006	0.221668	1.164211
O40	O	1.992006	0.471668	1.414211
O41	O	1.132892	-0.408021	0.367698
O42	O	1.382892	-0.158021	0.617698
O43	O	1.632892	0.091979	0.867698
O44	O	1.882892	0.341979	1.117698
O45	O	0.998121	-0.401111	0.528102
O46	O	1.248121	-0.151111	0.778102
O47	O	1.498121	0.098889	1.028102
O48	O	1.748121	0.348889	1.278102
O49	O	1.127763	-0.510027	0.841008
O50	O	1.377763	-0.260027	1.091008
O51	O	1.627763	-0.010027	1.341008
O52	O	1.877763	0.239973	1.591008
O53	O	0.992918	-0.503213	0.662588
O54	O	1.242918	-0.253213	0.912588
O55	O	1.492918	-0.003213	1.162588
O56	O	1.742918	0.246787	1.412588
O57	O	1.235138	-0.413088	0.841707
O58	O	1.485138	-0.163088	1.091707
O59	O	1.735138	0.086912	1.341707
O60	O	1.985138	0.336912	1.591707
O61	O	1.222933	-0.650115	0.558146
O62	O	1.472933	-0.400115	0.808146
O63	O	1.722933	-0.150115	1.058146
O64	O	1.972933	0.099885	1.308146
O65	O	1.120820	-0.644879	0.679681
O66	O	1.370820	-0.394879	0.929681
O67	O	1.620820	-0.144879	1.179681
O68	O	1.870820	0.105121	1.429681
C69	C	0.965347	-0.450627	0.593329
C70	C	1.215347	-0.200627	0.843329
C71	C	1.465347	0.049373	1.093329
C72	C	1.715347	0.299373	1.343329
C73	C	0.872918	-0.445942	0.587179
C74	C	1.122918	-0.195942	0.837179
C75	C	1.372918	0.054058	1.087179
C76	C	1.622918	0.304058	1.337179
C77	C	0.659950	-0.485917	0.639668
C78	C	0.909950	-0.235917	0.889668
C79	C	1.159950	0.014083	1.139668
C80	C	1.409950	0.264083	1.389668
C81	C	0.703695	-0.437397	0.575950
C82	C	0.953695	-0.187397	0.825950
C83	C	1.203695	0.062603	1.075950
C84	C	1.453695	0.312603	1.325950
C85	C	0.797859	-0.442153	0.582200
C86	C	1.047859	-0.192153	0.832200
C87	C	1.297859	0.057847	1.082200
C88	C	1.547859	0.307847	1.332200
C89	C	0.565776	-0.481162	0.633420
C90	C	0.815776	-0.231162	0.883420
C91	C	1.065776	0.018838	1.133420
C92	C	1.315776	0.268838	1.383420
C93	C	1.170353	-0.677670	0.620747
C94	C	1.420353	-0.427670	0.870747
C95	C	1.670353	-0.177670	1.120747
C96	C	1.920353	0.072330	1.370747
C97	C	1.165704	-0.770099	0.626341
C98	C	1.415704	-0.520099	0.876341
C99	C	1.665704	-0.270099	1.126341
C100	C	1.915704	-0.020099	1.376341
C101	C	1.157221	-0.939328	0.636575
C102	C	1.407221	-0.689328	0.886575
C103	C	1.657221	-0.439328	1.136575
C104	C	1.907221	-0.189328	1.386575
C105	C	1.205725	-0.983086	0.578983
C106	C	1.455725	-0.733086	0.828983
C107	C	1.705725	-0.483086	1.078983
C108	C	1.955725	-0.233086	1.328983
C109	C	1.201005	-1.077251	0.584678
C110	C	1.451005	-0.827251	0.834678
C111	C	1.701005	-0.577251	1.084678
C112	C	1.951005	-0.327251	1.334678
C113	C	1.161940	-0.845155	0.630882
C114	C	1.411940	-0.595155	0.880882
C115	C	1.661940	-0.345155	1.130882
C116	C	1.911940	-0.095155	1.380882
C117	C	1.398293	-0.472664	0.622259
C118	C	1.648293	-0.222664	0.872259
C119	C	1.898293	0.027336	1.122259
C120	C	2.148293	0.277336	1.372259
C121	C	1.490721	-0.477369	0.628435
C122	C	1.740721	-0.227369	0.878435
C123	C	1.990721	0.022631	1.128435
C124	C	2.240721	0.272631	1.378435
C125	C	1.181459	-0.461547	0.880335
C126	C	1.431459	-0.211547	1.130335
C127	C	1.681459	0.038453	1.380335
C128	C	1.931459	0.288453	1.630335
C129	C	1.181485	-0.461514	0.996488
C130	C	1.431485	-0.211514	1.246488
C131	C	1.681485	0.038486	1.496488
C132	C	1.931485	0.288486	1.746488
C133	C	1.192509	-0.244735	0.594758
C134	C	1.442509	0.005265	0.844758
C135	C	1.692509	0.255265	1.094758
C136	C	1.942509	0.505265	1.344758
C137	C	1.197244	-0.152310	0.589215
C138	C	1.447244	0.097690	0.839215
C139	C	1.697244	0.347690	1.089215
C140	C	1.947244	0.597690	1.339215
C141	C	1.181389	-0.461643	0.336257
C142	C	1.431389	-0.211643	0.586257
C143	C	1.681389	0.038357	0.836257
C144	C	1.931389	0.288357	1.086257
C145	C	1.181536	-0.461449	0.220101
C146	C	1.431536	-0.211449	0.470101
C147	C	1.681536	0.038551	0.720101
C148	C	1.931536	0.288551	0.970101
C149	C	1.234623	-0.413536	1.048619
C150	C	1.484623	-0.163536	1.298619
C151	C	1.734623	0.086464	1.548619
C152	C	1.984623	0.336464	1.798619
C153	C	1.234651	-0.413501	1.168669
C154	C	1.484651	-0.163501	1.418669
C155	C	1.734651	0.086499	1.668669
C156	C	1.984651	0.336499	1.918669
H157	H	0.670426	-0.392286	0.516706
H158	H	0.920426	-0.142286	0.766706
H159	H	1.170426	0.107714	1.016706
H160	H	1.420426	0.357714	1.266706
C161	C	1.120050	-0.516972	1.056245
C162	C	1.370050	-0.266972	1.306245
C163	C	1.620050	-0.016972	1.556245
C164	C	1.870050	0.233028	1.806245
H165	H	1.086704	-0.547073	1.007970
H166	H	1.336704	-0.297073	1.257970
H167	H	1.586704	-0.047073	1.507970
H168	H	1.836704	0.202927	1.757970
H169	H	1.150044	-0.554779	1.103125
H170	H	1.400044	-0.304779	1.353125
H171	H	1.650044	-0.054779	1.603125
H172	H	1.900044	0.195221	1.853125
H173	H	1.085486	-0.483271	1.094490
H174	H	1.335486	-0.233271	1.344490
H175	H	1.585486	0.016729	1.594490
H176	H	1.835486	0.266729	1.844490
C177	C	0.704887	-0.546860	0.719688
C178	C	0.954887	-0.296860	0.969688
C179	C	1.204887	-0.046860	1.219688
C180	C	1.454887	0.203140	1.469688
H181	H	0.763198	-0.542106	0.713431
H182	H	1.013198	-0.292106	0.963431
H183	H	1.263198	-0.042106	1.213431
H184	H	1.513198	0.207894	1.463431
H185	H	0.691351	-0.534067	0.788284
H186	H	0.941351	-0.284067	1.038284
H187	H	1.191351	-0.034067	1.288284
H188	H	1.441351	0.215933	1.538284
H189	H	0.687850	-0.602016	0.706698
H190	H	0.937850	-0.352016	0.956698
H191	H	1.187850	-0.102016	1.206698
H192	H	1.437850	0.147984	1.456698
H193	H	1.250794	-0.949827	0.525400
H194	H	1.500794	-0.699827	0.775400
H195	H	1.750794	-0.449827	1.025400
H196	H	2.000794	-0.199827	1.275400
H197	H	1.280093	-0.372482	1.004373
H198	H	1.530093	-0.122482	1.254373
H199	H	1.780093	0.127518	1.504373
H200	H	2.030093	0.377518	1.754373
H201	H	1.112154	-0.972585	0.690153
H202	H	1.362154	-0.722585	0.940153
H203	H	1.612154	-0.472585	1.190153
H204	H	1.862154	-0.222585	1.440153
H205	H	1.280147	-0.372427	1.213499
H206	H	1.530147	-0.122427	1.463499
H207	H	1.780147	0.127573	1.713499
H208	H	2.030147	0.377573	1.963499
H209	H	1.136043	-0.502531	1.175278
H210	H	1.386043	-0.252531	1.425278
H211	H	1.636043	-0.002531	1.675278
H212	H	1.886043	0.247469	1.925278
