data_functionalizedCrystal
_audit_creation_method	'MofGen! by Chris Wilmer'
_symmetry_space_group_name_H-M	'P1'
_symmetry_Int_Tables_number	1
_symmetry_cell_setting	triclinic
loop_
_symmetry_equiv_pos_as_xyz
  x,y,z
_cell_length_a	14.395555
_cell_length_b	14.628931
_cell_length_c	14.628931
_cell_angle_alpha	59.999836
_cell_angle_beta	89.997701
_cell_angle_gamma	59.997111
loop_
_atom_site_label
_atom_site_type_symbol
_atom_site_fract_x
_atom_site_fract_y
_atom_site_fract_z
Zr1	Zr	-0.121909	1.000583	0.880619
O2	O	-0.270240	1.191296	0.734660
O3	O	-0.076437	0.809875	0.925364
O4	O	-0.270239	1.000590	0.925366
O5	O	0.076436	1.000575	0.734655
O6	O	-0.270239	1.000589	1.075799
O7	O	-0.076438	1.000582	0.734657
O8	O	0.076437	0.659436	1.075793
O9	O	-0.270240	1.341729	0.734660
O10	O	-0.057044	0.888314	1.056712
O11	O	0.057044	0.888309	0.944444
O12	O	-0.171133	1.112851	0.944448
O13	O	-0.057045	1.112847	0.832180
Zr14	Zr	0.121908	1.000572	1.120537
Zr15	Zr	-0.121909	1.000583	1.120541
Zr16	Zr	0.121907	1.000573	0.880615
Zr17	Zr	-0.121910	1.240505	0.880619
Zr18	Zr	0.121908	0.760650	1.120537
O19	O	0.076436	1.191280	1.075792
O20	O	-0.270240	1.191295	1.075798
O21	O	0.076436	1.191281	0.734654
O22	O	0.270239	0.809859	1.266496
O23	O	-0.076437	0.809874	1.266502
O24	O	0.270238	0.809860	0.925358
O25	O	-0.076437	1.000580	1.266501
O26	O	0.270238	1.000565	1.075789
O27	O	0.270238	1.000566	0.925357
O28	O	0.076437	1.000573	1.266498
O29	O	-0.270240	1.341728	0.925366
O30	O	0.270239	0.659427	1.075790
O31	O	0.270239	0.659427	1.266496
O32	O	0.076438	0.659435	1.266499
O33	O	-0.076439	1.341720	0.734657
O34	O	-0.076438	1.341719	0.925362
O35	O	0.171132	0.888304	1.056708
O36	O	0.057044	0.888309	1.168976
O37	O	-0.057045	1.112846	1.056712
O38	O	0.057043	1.112841	0.944444
C39	C	0.000000	0.700472	1.000578
C40	C	0.000000	0.598619	1.000579
C41	C	0.080037	0.369183	1.079335
C42	C	0.080038	0.474451	1.079337
C43	C	-0.304978	1.000591	1.000583
C44	C	-0.408484	1.000596	1.000585
C45	C	-0.531280	1.123023	0.939361
C46	C	-0.562119	1.061821	1.044917
C47	C	-0.562068	1.061793	0.895035
C48	C	-0.437960	0.939393	1.106203
C49	C	-0.437913	0.939382	0.956245
C50	C	-0.468679	0.878091	1.061864
C51	C	0.304977	1.000564	1.000573
C52	C	0.408483	1.000559	1.000571
C53	C	-0.000001	1.000578	0.700472
C54	C	-0.000001	1.000579	0.598619
C55	C	-0.000001	1.300683	1.000577
C56	C	-0.000001	1.402537	1.000577
C57	C	0.056595	0.889193	0.608900
C58	C	0.056596	0.889191	0.503631
C59	C	-0.000000	1.000577	1.300684
C60	C	-0.000000	1.000576	1.402537
C61	C	0.000000	0.700471	1.300684
C62	C	0.000001	0.598617	1.402537
C63	C	0.304977	0.700458	1.000573
C64	C	0.408484	0.598600	1.000572
C65	C	0.304978	0.700457	1.300679
C66	C	0.408485	0.598599	1.402530
C67	C	-0.304979	1.300698	0.700477
C68	C	-0.408486	1.402556	0.598625
C69	C	-0.000002	1.300684	0.700472
C70	C	-0.000002	1.402538	0.598618
C71	C	-0.304979	1.300697	1.000583
C72	C	-0.408485	1.402555	1.000584
C73	C	-0.056595	0.553211	1.392256
C74	C	-0.056596	0.447940	1.497526
C75	C	0.511226	0.553186	1.056261
C76	C	0.618207	0.447911	1.056261
C77	C	0.398036	0.553190	1.503631
C78	C	0.505014	0.447914	1.608902
H79	H	-0.068527	0.509026	0.933154
H80	H	0.148555	0.262694	1.146766
H81	H	0.706346	0.408855	1.103940
N82	N	-0.629290	1.126738	1.091945
N83	N	-0.719675	1.136270	1.100214
H84	H	-0.767119	1.182127	1.133419
N85	N	-0.085956	0.634249	0.915965
N86	N	-0.058622	0.599253	0.852220
H87	H	-0.119328	0.624413	0.792459
H88	H	0.148566	0.446070	1.146761
H89	H	-0.384601	0.887680	1.195502
H90	H	-0.443022	0.774482	1.113704
H91	H	-0.105052	0.592276	1.305520
N92	N	-0.563206	1.252894	0.874529
N93	N	-0.620869	1.327221	0.901831
H94	H	-0.643418	1.418941	0.856048
N95	N	-0.629162	1.126697	0.783066
N96	N	-0.648624	1.067316	0.756613
H97	H	-0.696009	1.113159	0.677533
H98	H	0.496629	0.559542	1.393909
H99	H	0.399724	0.559547	0.952889
N100	N	-0.370785	0.874534	0.909158
N101	N	-0.411793	0.916282	0.810503
H102	H	-0.364387	0.870491	0.777236
N103	N	0.060804	0.451482	1.609486
N104	N	0.165818	0.376769	1.659356
H105	H	0.208763	0.411343	1.667027
N106	N	-0.117363	0.398941	1.486691
N107	N	-0.065468	0.281426	1.527083
H108	H	-0.108385	0.246816	1.519431
H109	H	0.616528	0.441544	1.511886
N110	N	0.494002	0.398951	1.717700
N111	N	0.443330	0.473659	1.746332
H112	H	0.435552	0.439078	1.823175
N113	N	0.117365	0.769572	0.717714
N114	N	0.065471	0.743530	0.784166
H115	H	0.108391	0.659045	0.861018
H116	H	-0.048461	1.095943	0.393900
N117	N	0.117365	0.769565	0.514447
N118	N	0.117273	0.769733	0.428918
H119	H	0.160190	0.685244	0.436555
H120	H	-0.048452	1.095938	0.511883
H121	H	0.048449	0.559561	1.489273
N122	N	0.522209	0.602202	1.116058
N123	N	0.435289	0.687657	1.115967
H124	H	0.443047	0.722276	1.158198
H125	H	0.309892	0.592255	1.512256
N126	N	0.497186	0.451471	0.940783
N127	N	0.429671	0.440797	0.991864
H128	H	0.351574	0.475383	0.949645
