data_functionalizedCrystal
_audit_creation_method	'MofGen! by Chris Wilmer'
_symmetry_space_group_name_H-M	'P1'
_symmetry_Int_Tables_number	1
_symmetry_cell_setting	triclinic
loop_
_symmetry_equiv_pos_as_xyz
  x,y,z
_cell_length_a	19.077236
_cell_length_b	16.625545
_cell_length_c	19.077174
_cell_angle_alpha	92.273408
_cell_angle_beta	85.294282
_cell_angle_gamma	92.318364
loop_
_atom_site_label
_atom_site_type_symbol
_atom_site_fract_x
_atom_site_fract_y
_atom_site_fract_z
Zn1	Zn	1.093734	-0.291123	-0.441975
Zn2	Zn	1.343734	-0.041123	-0.191975
Zn3	Zn	1.593734	0.208877	0.058025
Zn4	Zn	1.843734	0.458877	0.308025
Zn5	Zn	1.088917	-0.420758	-0.324088
Zn6	Zn	1.338917	-0.170758	-0.074088
Zn7	Zn	1.588917	0.079242	0.175912
Zn8	Zn	1.838917	0.329242	0.425912
Zn9	Zn	0.971115	-0.291135	-0.319358
Zn10	Zn	1.221115	-0.041135	-0.069358
Zn11	Zn	1.471115	0.208865	0.180642
Zn12	Zn	1.721115	0.458865	0.430642
Zn13	Zn	0.975807	-0.431113	-0.437192
Zn14	Zn	1.225807	-0.181113	-0.187192
Zn15	Zn	1.475807	0.068887	0.062808
Zn16	Zn	1.725807	0.318887	0.312808
O17	O	1.032393	-0.358532	-0.380653
O18	O	1.282393	-0.108532	-0.130653
O19	O	1.532393	0.141468	0.119347
O20	O	1.782393	0.391468	0.369347
O21	O	1.191748	-0.303980	-0.430318
O22	O	1.441748	-0.053980	-0.180318
O23	O	1.691748	0.196020	0.069682
O24	O	1.941748	0.446020	0.319682
O25	O	1.069311	-0.399234	-0.224810
O26	O	1.319311	-0.149234	0.025190
O27	O	1.569311	0.100766	0.275190
O28	O	1.819311	0.350766	0.525190
O29	O	0.987433	-0.178300	-0.335646
O30	O	1.237433	0.071700	-0.085646
O31	O	1.487433	0.321700	0.164354
O32	O	1.737433	0.571700	0.414354
O33	O	1.188209	-0.399222	-0.343707
O34	O	1.438209	-0.149222	-0.093707
O35	O	1.688209	0.100778	0.156293
O36	O	1.938209	0.350778	0.406293
O37	O	1.077521	-0.178291	-0.425732
O38	O	1.327521	0.071709	-0.175732
O39	O	1.577521	0.321709	0.074268
O40	O	1.827521	0.571709	0.324268
O41	O	0.982762	-0.304001	-0.221335
O42	O	1.232762	-0.054001	0.028665
O43	O	1.482762	0.195999	0.278665
O44	O	1.732762	0.445999	0.528665
O45	O	0.873085	-0.314043	-0.331008
O46	O	1.123085	-0.064043	-0.081008
O47	O	1.373085	0.185957	0.168992
O48	O	1.623085	0.435957	0.418992
O49	O	0.995430	-0.416872	-0.536477
O50	O	1.245430	-0.166872	-0.286477
O51	O	1.495430	0.083128	-0.036477
O52	O	1.745430	0.333128	0.213523
O53	O	0.876532	-0.416884	-0.417580
O54	O	1.126532	-0.166884	-0.167580
O55	O	1.376532	0.083116	0.082420
O56	O	1.626532	0.333116	0.332420
O57	O	1.082070	-0.314022	-0.539991
O58	O	1.332070	-0.064022	-0.289991
O59	O	1.582070	0.185978	-0.039991
O60	O	1.832070	0.435978	0.210009
O61	O	1.073860	-0.534965	-0.339069
O62	O	1.323860	-0.284965	-0.089069
O63	O	1.573860	-0.034965	0.160931
O64	O	1.823860	0.215035	0.410931
O65	O	0.990759	-0.542573	-0.422166
O66	O	1.240759	-0.292573	-0.172166
O67	O	1.490759	-0.042573	0.077834
O68	O	1.740759	0.207427	0.327834
C69	C	0.849229	-0.366589	-0.373262
C70	C	1.099229	-0.116589	-0.123262
C71	C	1.349229	0.133411	0.126738
C72	C	1.599229	0.383411	0.376738
C73	C	0.770871	-0.370056	-0.370117
C74	C	1.020871	-0.120056	-0.120117
C75	C	1.270871	0.129944	0.129883
C76	C	1.520871	0.379944	0.379883
C77	C	0.735904	-0.322182	-0.413802
C78	C	0.985904	-0.072182	-0.163802
C79	C	1.235904	0.177818	0.086198
C80	C	1.485904	0.427818	0.336198
C81	C	0.662278	-0.325436	-0.410841
C82	C	0.912278	-0.075436	-0.160841
C83	C	1.162278	0.174564	0.089159
C84	C	1.412278	0.424564	0.339159
C85	C	0.623620	-0.376567	-0.364198
C86	C	0.873620	-0.126567	-0.114198
C87	C	1.123620	0.123433	0.135802
C88	C	1.373620	0.373433	0.385802
C89	C	0.658592	-0.424443	-0.320508
C90	C	0.908592	-0.174443	-0.070508
C91	C	1.158592	0.075557	0.179492
C92	C	1.408592	0.325557	0.429492
C93	C	0.732216	-0.421185	-0.323466
C94	C	0.982216	-0.171185	-0.073466
C95	C	1.232216	0.078815	0.176534
C96	C	1.482216	0.328815	0.426534
C97	C	0.403228	-0.391616	-0.350504
C98	C	0.653228	-0.141616	-0.100504
C99	C	0.903228	0.108384	0.149496
C100	C	1.153228	0.358384	0.399496
C101	C	0.329599	-0.394872	-0.347550
C102	C	0.579599	-0.144872	-0.097550
C103	C	0.829599	0.105128	0.152450
C104	C	1.079599	0.355128	0.402450
C105	C	0.333290	-0.295863	-0.437883
C106	C	0.583290	-0.045863	-0.187883
C107	C	0.833290	0.204137	0.062117
C108	C	1.083290	0.454137	0.312117
C109	C	0.406916	-0.292613	-0.440840
C110	C	0.656916	-0.042613	-0.190840
C111	C	0.906916	0.207387	0.059160
C112	C	1.156916	0.457387	0.309160
C113	C	0.441881	-0.340486	-0.397148
C114	C	0.691881	-0.090486	-0.147148
C115	C	0.941881	0.159514	0.102852
C116	C	1.191881	0.409514	0.352852
N117	N	0.548363	-0.379896	-0.361171
N118	N	0.798363	-0.129896	-0.111171
N119	N	1.048363	0.120104	0.138829
N120	N	1.298363	0.370104	0.388829
N121	N	0.517137	-0.337152	-0.400171
N122	N	0.767137	-0.087152	-0.150171
N123	N	1.017137	0.162848	0.099829
N124	N	1.267137	0.412848	0.349829
C125	C	1.032316	-0.568026	-0.380628
C126	C	1.282316	-0.318026	-0.130628
C127	C	1.532316	-0.068026	0.119372
C128	C	1.782316	0.181974	0.369372
C129	C	1.032348	-0.657646	-0.380643
C130	C	1.282348	-0.407646	-0.130643
C131	C	1.532348	-0.157646	0.119357
C132	C	1.782348	0.092354	0.369357
C133	C	1.032376	-0.730428	-0.380658
C134	C	1.282376	-0.480428	-0.130658
C135	C	1.532376	-0.230428	0.119342
C136	C	1.782376	0.019572	0.369342
C137	C	1.032418	-0.821735	-0.380676
C138	C	1.282418	-0.571735	-0.130676
C139	C	1.532418	-0.321735	0.119324
C140	C	1.782418	-0.071735	0.369324
C141	C	1.032455	-0.894510	-0.380686
C142	C	1.282455	-0.644510	-0.130686
C143	C	1.532455	-0.394510	0.119314
C144	C	1.782455	-0.144510	0.369314
C145	C	1.032496	-0.985823	-0.380702
C146	C	1.282496	-0.735823	-0.130702
C147	C	1.532496	-0.485823	0.119298
C148	C	1.782496	-0.235823	0.369298
C149	C	1.216273	-0.350445	-0.388074
C150	C	1.466273	-0.100445	-0.138074
C151	C	1.716273	0.149555	0.111926
C152	C	1.966273	0.399555	0.361926
C153	C	1.294632	-0.346998	-0.391236
C154	C	1.544632	-0.096998	-0.141236
C155	C	1.794632	0.153002	0.108764
C156	C	2.044632	0.403002	0.358764
C157	C	1.039811	-0.366601	-0.564528
C158	C	1.289811	-0.116601	-0.314528
C159	C	1.539811	0.133399	-0.064528
C160	C	1.789811	0.383399	0.185472
C161	C	1.042972	-0.370039	-0.642884
C162	C	1.292972	-0.120039	-0.392884
C163	C	1.542972	0.129961	-0.142884
C164	C	1.792972	0.379961	0.107116
C165	C	1.032491	-0.148221	-0.380695
C166	C	1.282491	0.101779	-0.130695
C167	C	1.532491	0.351779	0.119305
C168	C	1.782491	0.601779	0.369305
C169	C	1.032533	-0.058599	-0.380713
C170	C	1.282533	0.191401	-0.130713
C171	C	1.532533	0.441401	0.119287
C172	C	1.782533	0.691401	0.369287
C173	C	0.999398	-0.322073	-0.677887
C174	C	1.249398	-0.072073	-0.427887
C175	C	1.499398	0.177927	-0.177887
C176	C	1.749398	0.427927	0.072113
C177	C	1.002365	-0.325310	-0.751511
C178	C	1.252365	-0.075310	-0.501511
C179	C	1.502365	0.174690	-0.251511
C180	C	1.752365	0.424690	-0.001511
C181	C	1.048910	-0.376510	-0.790132
C182	C	1.298910	-0.126510	-0.540132
C183	C	1.548910	0.123490	-0.290132
C184	C	1.798910	0.373490	-0.040132
C185	C	1.092486	-0.424482	-0.755124
C186	C	1.342486	-0.174482	-0.505124
C187	C	1.592486	0.075518	-0.255124
C188	C	1.842486	0.325518	-0.005124
C189	C	1.089515	-0.421248	-0.681501
C190	C	1.339515	-0.171248	-0.431501
C191	C	1.589515	0.078752	-0.181501
C192	C	1.839515	0.328752	0.068499
C193	C	1.062625	-0.391502	-1.010515
C194	C	1.312625	-0.141502	-0.760515
C195	C	1.562625	0.108498	-0.510515
C196	C	1.812625	0.358498	-0.260515
C197	C	1.065595	-0.394731	-1.084143
C198	C	1.315595	-0.144731	-0.834143
C199	C	1.565595	0.105269	-0.584143
C200	C	1.815595	0.355269	-0.334143
C201	C	0.975472	-0.295559	-1.080524
C202	C	1.225472	-0.045559	-0.830524
C203	C	1.475472	0.204441	-0.580524
C204	C	1.725472	0.454441	-0.330524
C205	C	0.972508	-0.292326	-1.006900
C206	C	1.222508	-0.042326	-0.756900
C207	C	1.472508	0.207674	-0.506900
C208	C	1.722508	0.457674	-0.256900
C209	C	1.016081	-0.340301	-0.971899
C210	C	1.266081	-0.090301	-0.721899
C211	C	1.516081	0.159699	-0.471899
C212	C	1.766081	0.409699	-0.221899
N213	N	1.051946	-0.379819	-0.865387
N214	N	1.301946	-0.129819	-0.615387
N215	N	1.551946	0.120181	-0.365387
N216	N	1.801946	0.370181	-0.115387
N217	N	1.013042	-0.336997	-0.896645
N218	N	1.263042	-0.086997	-0.646645
N219	N	1.513042	0.163003	-0.396645
N220	N	1.763042	0.413003	-0.146645
C221	C	1.025045	-0.350435	-0.197496
C222	C	1.275045	-0.100435	0.052504
C223	C	1.525045	0.149565	0.302504
C224	C	1.775045	0.399565	0.552504
C225	C	1.022021	-0.346764	-0.119145
C226	C	1.272021	-0.096764	0.130855
C227	C	1.522021	0.153236	0.380855
C228	C	1.772021	0.403236	0.630855
H229	H	0.304813	-0.256887	-0.473454
H230	H	0.554813	-0.006887	-0.223454
H231	H	0.804813	0.243113	0.026546
H232	H	1.054813	0.493113	0.276546
C233	C	1.110597	-0.444230	-0.972024
C234	C	1.360597	-0.194230	-0.722024
C235	C	1.610597	0.055770	-0.472024
C236	C	1.860597	0.305770	-0.222024
N237	N	1.146746	-0.483930	-0.943032
N238	N	1.396746	-0.233930	-0.693032
N239	N	1.646746	0.016070	-0.443032
N240	N	1.896746	0.266070	-0.193032
C241	C	0.770679	-0.473852	-0.275410
C242	C	1.020679	-0.223852	-0.025410
C243	C	1.270679	0.026148	0.224590
C244	C	1.520679	0.276148	0.474590
N245	N	0.799648	-0.513521	-0.239212
N246	N	1.049648	-0.263521	0.010788
N247	N	1.299648	-0.013521	0.260788
N248	N	1.549648	0.236479	0.510788
C249	C	0.778421	-0.265932	-0.465114
C250	C	1.028421	-0.015932	-0.215114
C251	C	1.278421	0.234068	0.034886
C252	C	1.528421	0.484068	0.284886
N253	N	0.810442	-0.223559	-0.503760
N254	N	1.060442	0.026441	-0.253760
N255	N	1.310442	0.276441	-0.003760
N256	N	1.560442	0.526441	0.246240
H257	H	0.627111	-0.466072	-0.282526
H258	H	0.877111	-0.216072	-0.032526
H259	H	1.127111	0.033928	0.217474
H260	H	1.377111	0.283928	0.467474
C261	C	0.623818	-0.272773	-0.458901
C262	C	0.873818	-0.022773	-0.208901
C263	C	1.123818	0.227227	0.041099
C264	C	1.373818	0.477227	0.291099
N265	N	0.594851	-0.233105	-0.495102
N266	N	0.844851	0.016895	-0.245102
N267	N	1.094851	0.266895	0.004898
N268	N	1.344851	0.516895	0.254898
H269	H	0.298125	-0.436514	-0.309567
H270	H	0.548125	-0.186514	-0.059567
H271	H	0.798125	0.063486	0.190433
H272	H	1.048125	0.313486	0.440433
C273	C	0.954437	-0.272534	-0.790010
C274	C	1.204437	-0.022534	-0.540010
C275	C	1.454437	0.227466	-0.290010
C276	C	1.704437	0.477466	-0.040010
N277	N	0.918337	-0.232778	-0.819008
N278	N	1.168337	0.017222	-0.569008
N279	N	1.418337	0.267222	-0.319008
N280	N	1.668337	0.517222	-0.069008
C281	C	0.921303	-0.236004	-0.964423
C282	C	1.171303	0.013996	-0.714423
C283	C	1.421303	0.263996	-0.464423
C284	C	1.671303	0.513996	-0.214423
N285	N	0.882736	-0.193580	-0.932429
N286	N	1.132736	0.056420	-0.682429
N287	N	1.382736	0.306420	-0.432429
N288	N	1.632736	0.556420	-0.182429
H289	H	0.961499	-0.280375	-0.646447
H290	H	1.211499	-0.030375	-0.396447
H291	H	1.461499	0.219625	-0.146447
H292	H	1.711499	0.469625	0.103553
C293	C	1.143527	-0.480992	-0.797603
C294	C	1.393527	-0.230992	-0.547603
C295	C	1.643527	0.019008	-0.297603
C296	C	1.893527	0.269008	-0.047603
N297	N	1.181916	-0.523623	-0.829594
N298	N	1.431916	-0.273623	-0.579594
N299	N	1.681916	-0.023623	-0.329594
N300	N	1.931916	0.226377	-0.079594
C301	C	1.137453	-0.474012	-0.642999
C302	C	1.387453	-0.224012	-0.392999
C303	C	1.637453	0.025988	-0.142999
C304	C	1.887453	0.275988	0.107001
N305	N	1.173561	-0.513755	-0.614000
N306	N	1.423561	-0.263755	-0.364000
N307	N	1.673561	-0.013755	-0.114000
N308	N	1.923561	0.236245	0.136000
C309	C	0.927541	-0.242796	-1.119032
C310	C	1.177541	0.007204	-0.869032
C311	C	1.427541	0.257204	-0.619032
C312	C	1.677541	0.507204	-0.369032
N313	N	0.891434	-0.203055	-1.148035
N314	N	1.141434	0.046945	-0.898035
N315	N	1.391434	0.296945	-0.648035
N316	N	1.641434	0.546945	-0.398035
H317	H	0.431688	-0.430598	-0.314927
H318	H	0.681688	-0.180598	-0.064927
H319	H	0.931688	0.069402	0.185073
H320	H	1.181688	0.319402	0.435073
H321	H	0.438386	-0.250979	-0.478825
H322	H	0.688386	-0.000979	-0.228825
H323	H	0.938386	0.249021	0.021175
H324	H	1.188386	0.499021	0.271175
C325	C	1.116798	-0.451060	-1.126624
C326	C	1.366798	-0.201060	-0.876624
C327	C	1.616798	0.048940	-0.626624
C328	C	1.866798	0.298940	-0.376624
N329	N	1.155363	-0.493486	-1.158621
N330	N	1.405363	-0.243486	-0.908621
N331	N	1.655363	0.006514	-0.658621
N332	N	1.905363	0.256514	-0.408621
