data_functionalizedCrystal
_audit_creation_method	'MofGen! by Chris Wilmer'
_symmetry_space_group_name_H-M	'P1'
_symmetry_Int_Tables_number	1
_symmetry_cell_setting	triclinic
loop_
_symmetry_equiv_pos_as_xyz
  x,y,z
_cell_length_a	14.908742
_cell_length_b	14.908520
_cell_length_c	14.909125
_cell_angle_alpha	96.676586
_cell_angle_beta	90.115993
_cell_angle_gamma	89.837416
loop_
_atom_site_label
_atom_site_type_symbol
_atom_site_fract_x
_atom_site_fract_y
_atom_site_fract_z
Zn1	Zn	1.379148	-0.464486	-0.457100
Zn2	Zn	1.879148	0.035514	0.042900
Zn3	Zn	1.362541	-0.606404	-0.315393
Zn4	Zn	1.862541	-0.106404	0.184607
Zn5	Zn	1.220911	-0.447341	-0.314426
Zn6	Zn	1.720911	0.052659	0.185574
Zn7	Zn	1.221039	-0.607163	-0.474424
Zn8	Zn	1.721039	-0.107163	0.025576
O9	O	1.295909	-0.531349	-0.390335
O10	O	1.795909	-0.031349	0.109665
O11	O	1.502386	-0.490169	-0.431457
O12	O	2.002386	0.009831	0.068543
O13	O	1.336750	-0.577811	-0.189000
O14	O	1.836750	-0.077811	0.311000
O15	O	1.248798	-0.323336	-0.325697
O16	O	1.748798	0.176664	0.174303
O17	O	1.490185	-0.594436	-0.327345
O18	O	1.990185	-0.094436	0.172655
O19	O	1.365054	-0.335933	-0.430519
O20	O	1.865054	0.164067	0.069481
O21	O	1.232695	-0.460948	-0.188289
O22	O	1.732695	0.039052	0.311711
O23	O	1.095486	-0.461685	-0.342495
O24	O	1.595486	0.038315	0.157505
O25	O	1.249016	-0.595730	-0.598390
O26	O	1.749016	-0.095730	-0.098390
O27	O	1.095580	-0.579105	-0.460045
O28	O	1.595580	-0.079105	0.039955
O29	O	1.365178	-0.490906	-0.585663
O30	O	1.865178	0.009094	-0.085663
O31	O	1.336873	-0.732784	-0.344144
O32	O	1.836873	-0.232784	0.155856
O33	O	1.232912	-0.733342	-0.460983
O34	O	1.732912	-0.233342	0.039017
C35	C	1.063007	-0.518618	-0.403046
C36	C	1.563007	-0.018618	0.096954
C37	C	0.963371	-0.513194	-0.408506
C38	C	1.463371	-0.013194	0.091494
C39	C	0.829285	-0.451371	-0.470496
C40	C	1.329285	0.048629	0.029504
C41	C	0.922903	-0.456460	-0.465370
C42	C	1.422903	0.043540	0.034630
C43	C	0.910213	-0.564846	-0.356766
C44	C	1.410213	-0.064846	0.143234
C45	C	0.816595	-0.559758	-0.361892
C46	C	1.316595	-0.059758	0.138108
C47	C	0.776135	-0.503018	-0.418758
C48	C	1.276135	-0.003018	0.081242
C49	C	0.682515	-0.497925	-0.423879
C50	C	1.182515	0.002075	0.076121
C51	C	0.669827	-0.606316	-0.315280
C52	C	1.169827	-0.106316	0.184720
C53	C	0.763445	-0.611404	-0.310154
C54	C	1.263445	-0.111404	0.189846
C55	C	1.283130	-0.765808	-0.404566
C56	C	1.783130	-0.265808	0.095434
C57	C	1.277746	-0.866117	-0.410680
C58	C	1.777746	-0.366117	0.089320
C59	C	1.376008	-1.053978	-0.300590
C60	C	1.876008	-0.553978	0.199410
C61	C	1.370953	-1.148227	-0.306332
C62	C	1.870953	-0.648227	0.193668
C63	C	1.262586	-1.148867	-0.427908
C64	C	1.762586	-0.648867	0.072092
C65	C	1.267641	-1.054618	-0.422166
C66	C	1.767641	-0.554618	0.077834
C67	C	1.324353	-1.007176	-0.358505
C68	C	1.824353	-0.507176	0.141495
C69	C	1.329403	-0.912925	-0.352760
C70	C	1.829403	-0.412925	0.147240
C71	C	1.221042	-0.913567	-0.474340
C72	C	1.721042	-0.413567	0.025660
C73	C	1.215986	-1.007816	-0.480081
C74	C	1.715986	-0.507816	0.019919
C75	C	1.529721	-0.544130	-0.377576
C76	C	2.029721	-0.044130	0.122424
C77	C	1.629357	-0.549577	-0.372139
C78	C	2.129357	-0.049577	0.127861
C79	C	1.308963	-0.545315	-0.625681
C80	C	1.808963	-0.045315	-0.125681
C81	C	1.314526	-0.551267	-0.725971
C82	C	1.814526	-0.051267	-0.225971
C83	C	1.308764	-0.295976	-0.376067
C84	C	1.808764	0.204024	0.123933
C85	C	1.314242	-0.195675	-0.369987
C86	C	1.814242	0.304325	0.130013
C87	C	1.282961	-0.517374	-0.155899
C88	C	1.782961	-0.017374	0.344101
C89	C	1.277586	-0.511178	-0.055584
C90	C	1.777586	-0.011178	0.444416
C91	C	1.376704	-0.620443	0.132362
C92	C	1.876704	-0.120443	0.632362
C93	C	1.371656	-0.614624	0.226616
C94	C	1.871656	-0.114624	0.726616
C95	C	1.262438	-0.493726	0.227180
C96	C	1.762438	0.006274	0.727180
C97	C	1.267486	-0.499545	0.132926
C98	C	1.767486	0.000455	0.632926
C99	C	1.324622	-0.562905	0.085520
C100	C	1.824622	-0.062905	0.585520
C101	C	1.329674	-0.568718	-0.008736
C102	C	1.829674	-0.068718	0.491264
C103	C	1.220452	-0.447826	-0.008171
C104	C	1.720452	0.052174	0.491829
C105	C	1.215404	-0.442007	0.086084
C106	C	1.715404	0.057993	0.586084
H107	H	0.649574	-0.451720	-0.470178
H108	H	1.149574	0.048280	0.029822
Br109	Br	1.442338	-0.692719	0.290185
Br110	Br	1.942338	-0.192719	0.790185
H111	H	1.413017	-1.186330	-0.259173
H112	H	1.913017	-0.686330	0.240827
H113	H	0.626541	-0.648372	-0.273153
H114	H	1.126541	-0.148372	0.226847
Br115	Br	0.965140	-0.641857	-0.279610
Br116	Br	1.465140	-0.141857	0.220390
Br117	Br	1.185642	-1.213268	-0.514313
Br118	Br	1.685642	-0.713268	-0.014313
Br119	Br	1.454259	-0.706413	0.068023
Br120	Br	1.954259	-0.206413	0.568023
Br121	Br	0.774370	-0.374355	-0.547653
Br122	Br	1.274370	0.125645	-0.047653
H123	H	1.215913	-0.442150	0.265793
H124	H	1.715913	0.057850	0.765793
H125	H	1.375578	-0.874299	-0.300921
H126	H	1.875578	-0.374299	0.199079
H127	H	1.169816	-1.046456	-0.531914
H128	H	1.669816	-0.546456	-0.031914
Br129	Br	1.137880	-0.356010	0.150430
Br130	Br	1.637880	0.143990	0.650430
Br131	Br	1.407220	-0.654700	-0.073071
Br132	Br	1.907220	-0.154700	0.426929
H133	H	1.178046	-0.400970	-0.046319
H134	H	1.678046	0.099030	0.453681
H135	H	0.966176	-0.414404	-0.507500
H136	H	1.466176	0.085596	-0.007500
H137	H	1.422179	-1.015350	-0.248748
H138	H	1.922179	-0.515350	0.251252
H139	H	1.178978	-0.875450	-0.521495
H140	H	1.678978	-0.375450	-0.021495
H141	H	0.796401	-0.657602	-0.263858
H142	H	1.296401	-0.157602	0.236142
