data_functionalizedCrystal
_audit_creation_method	'MofGen! by Chris Wilmer'
_symmetry_space_group_name_H-M	'P1'
_symmetry_Int_Tables_number	1
_symmetry_cell_setting	triclinic
loop_
_symmetry_equiv_pos_as_xyz
  x,y,z
_cell_length_a	8.559649
_cell_length_b	11.295501
_cell_length_c	8.559649
_cell_angle_alpha	95.054749
_cell_angle_beta	69.778664
_cell_angle_gamma	95.056291
loop_
_atom_site_label
_atom_site_type_symbol
_atom_site_fract_x
_atom_site_fract_y
_atom_site_fract_z
O1	O	2.135432	0.099007	-0.046486
O2	O	1.659947	0.099011	0.037296
O3	O	1.939580	0.099007	-0.242338
O4	O	1.855799	0.099010	0.233147
O5	O	1.922456	-0.099043	-0.259444
O6	O	1.642823	-0.099039	0.020189
O7	O	2.118307	-0.099044	-0.063592
Cu8	Cu	1.879002	-0.117125	-0.023263
Cu9	Cu	1.899253	0.117092	-0.003033
O10	O	1.838675	-0.099040	0.216041
C11	C	1.591076	-0.000014	0.035092
C12	C	1.411377	-0.000012	0.053991
N13	N	1.864770	-0.281861	-0.037495
C14	C	2.015921	-0.531153	0.113709
C15	C	2.005180	-0.655816	0.102939
C16	C	1.832558	-0.655854	-0.069813
C17	C	1.843298	-0.531191	-0.059043
C18	C	1.934981	-0.468844	0.032723
C19	C	1.945712	-0.344179	0.043501
C20	C	1.773099	-0.344219	-0.129260
C21	C	1.762359	-0.468883	-0.140029
C22	C	2.187179	-0.000017	-0.061388
C23	C	2.366879	-0.000011	-0.080287
C24	C	1.937367	-0.000016	-0.311200
C25	C	1.956267	-0.000009	-0.490898
N26	N	1.913499	0.281829	0.011184
C27	C	1.840888	-0.000014	0.284903
C28	C	1.821989	-0.000013	0.464603
H29	H	1.311989	-0.000004	0.183420
F30	F	1.652823	-0.000014	-0.405505
H31	H	1.466257	-0.000006	-0.209706
F32	F	2.043287	-0.277826	0.141165
H33	H	2.090555	-0.480389	0.188446
F34	F	2.125440	-0.000025	-0.620801
H35	H	2.071092	-0.706543	0.168886
H36	H	1.707183	-0.293474	-0.195195
H37	H	1.757933	-0.706638	-0.144544
H38	H	1.687719	-0.519662	-0.214748
