data_functionalizedCrystal
_audit_creation_method	'MofGen! by Chris Wilmer'
_symmetry_space_group_name_H-M	'P1'
_symmetry_Int_Tables_number	1
_symmetry_cell_setting	triclinic
loop_
_symmetry_equiv_pos_as_xyz
  x,y,z
_cell_length_a	10.654550
_cell_length_b	18.266242
_cell_length_c	10.654559
_cell_angle_alpha	90.006711
_cell_angle_beta	84.486774
_cell_angle_gamma	90.012545
loop_
_atom_site_label
_atom_site_type_symbol
_atom_site_fract_x
_atom_site_fract_y
_atom_site_fract_z
O1	O	1.667855	0.060942	0.176400
O2	O	1.302377	0.060930	0.193206
O3	O	1.493513	0.060931	0.002065
O4	O	1.476719	0.060942	0.367542
O5	O	1.493480	-0.060831	0.002054
O6	O	1.302344	-0.060832	0.193196
O7	O	1.667822	-0.060820	0.176390
Zn8	Zn	1.485078	-0.080158	0.184791
Zn9	Zn	1.485121	0.080269	0.184805
O10	O	1.476686	-0.060820	0.367531
C11	C	1.255563	0.000048	0.191967
C12	C	1.116119	0.000043	0.188275
N13	N	1.485058	-0.189645	0.184781
C14	C	1.036637	0.000057	0.300816
C15	C	0.905616	0.000070	0.297340
C16	C	0.933572	0.000057	0.068771
C17	C	1.064591	0.000040	0.072249
C18	C	1.020496	0.000067	0.432779
C19	C	0.889475	0.000080	0.429302
C20	C	1.569721	-0.227954	0.100186
C21	C	1.569729	-0.304599	0.100180
C22	C	1.485086	-0.342932	0.184791
C23	C	1.400406	-0.304614	0.269393
C24	C	1.400392	-0.227971	0.269388
N25	N	1.470072	-0.463261	0.295782
N26	N	1.470092	-0.536069	0.295782
C27	C	1.485121	-0.573854	0.184810
N28	N	1.500153	-0.536081	0.073833
N29	N	1.500139	-0.463266	0.073833
C30	C	1.485091	-0.426039	0.184806
C31	C	1.569798	-0.695270	0.100201
C32	C	1.569797	-0.771917	0.100194
C33	C	1.400480	-0.771930	0.269418
C34	C	1.400475	-0.695286	0.269415
C35	C	1.485141	-0.656960	0.184808
C36	C	1.714637	0.000064	0.177629
C37	C	1.854080	0.000074	0.181321
C38	C	1.492261	0.000050	-0.044738
C39	C	1.488565	0.000050	-0.184181
N40	N	1.485152	0.189755	0.184805
C41	C	1.483382	0.066436	-0.380693
C42	C	1.486851	0.066428	-0.249671
C43	C	1.486821	-0.066324	-0.249721
C44	C	1.483361	-0.066315	-0.380742
C45	C	1.483393	0.143079	-0.380662
C46	C	1.486863	0.143071	-0.249640
C47	C	1.477938	0.000062	0.414334
C48	C	1.481635	0.000067	0.553777
H49	H	1.129301	0.000018	-0.019393
Cl50	Cl	1.293951	-0.179808	0.375746
H51	H	1.570193	0.172514	-0.426925
H52	H	1.331539	-0.664093	0.338305
H53	H	0.891601	0.000066	-0.025694
H54	H	1.638736	-0.803108	0.031299
Cl55	Cl	0.818931	-0.081075	0.490870
H56	H	1.481957	-0.120359	-0.434094
H57	H	1.331557	-0.803141	0.338305
Cl58	Cl	1.676149	-0.179774	-0.006181
H59	H	1.400073	0.172490	-0.203350
Cl60	Cl	1.488991	-0.149771	-0.167393
Cl61	Cl	1.341992	0.179793	-0.426327
H62	H	0.847758	0.051043	0.479028
H63	H	1.638674	-0.335795	0.031290
H64	H	1.049815	-0.050891	0.484385
Cl65	Cl	1.075580	0.081231	0.497657
Cl66	Cl	1.293992	-0.352803	0.375757
Cl67	Cl	1.628281	0.179799	-0.203953
Cl68	Cl	1.676227	-0.647088	-0.006167
