data_functionalizedCrystal
_audit_creation_method	'MofGen! by Chris Wilmer'
_symmetry_space_group_name_H-M	'P1'
_symmetry_Int_Tables_number	1
_symmetry_cell_setting	triclinic
loop_
_symmetry_equiv_pos_as_xyz
  x,y,z
_cell_length_a	12.837943
_cell_length_b	15.072220
_cell_length_c	12.837942
_cell_angle_alpha	89.995878
_cell_angle_beta	94.828940
_cell_angle_gamma	90.005415
loop_
_atom_site_label
_atom_site_type_symbol
_atom_site_fract_x
_atom_site_fract_y
_atom_site_fract_z
O1	O	1.402338	0.073766	0.272128
O2	O	1.099204	0.073771	0.258685
O3	O	1.244050	0.073763	0.113840
O4	O	1.257493	0.073774	0.416973
O5	O	1.244031	-0.073802	0.113858
O6	O	1.099186	-0.073794	0.258703
O7	O	1.402319	-0.073799	0.272146
Zn8	Zn	1.250750	-0.097226	0.265428
Zn9	Zn	1.250774	0.097198	0.265404
O10	O	1.257474	-0.073791	0.416991
C11	C	1.060126	-0.000011	0.254153
C12	C	0.943711	-0.000009	0.240608
N13	N	1.250740	-0.229915	0.265444
C14	C	0.718837	-0.000016	0.403437
C15	C	0.609454	-0.000015	0.390716
C16	C	0.615562	-0.000012	0.202445
C17	C	0.724944	-0.000013	0.215166
C18	C	0.776578	-0.000014	0.315666
C19	C	0.885962	-0.000008	0.328386
C20	C	0.892067	-0.000012	0.140116
C21	C	0.782685	-0.000011	0.127395
C22	C	1.250757	-0.410912	0.265422
C23	C	1.173237	-0.448577	0.342893
C24	C	1.172919	-0.551402	0.342629
C25	C	1.250774	-0.589116	0.265402
C26	C	1.216560	-0.551777	0.153729
C27	C	1.215983	-0.448920	0.154184
C28	C	1.362658	-0.448801	0.298663
C29	C	1.362178	-0.551666	0.301060
C30	C	1.250785	-0.689829	0.265384
C31	C	1.250743	-0.310199	0.265432
C32	C	1.441398	-0.000015	0.276679
C33	C	1.557813	-0.000011	0.290223
C34	C	1.239499	-0.000019	0.074780
C35	C	1.225954	-0.000017	-0.041635
N36	N	1.250791	0.229886	0.265380
C37	C	1.388784	-0.000001	-0.266510
C38	C	1.376062	0.000000	-0.375892
C39	C	1.187791	-0.000006	-0.369785
C40	C	1.200513	-0.000007	-0.260402
C41	C	1.301012	-0.000007	-0.208769
C42	C	1.313732	-0.000015	-0.099384
C43	C	1.125462	-0.000014	-0.093279
C44	C	1.112741	-0.000013	-0.202661
C45	C	1.262025	-0.000007	0.456052
C46	C	1.275569	-0.000003	0.572467
H47	H	0.928000	-0.000010	0.410218
C48	C	1.290225	-0.584781	0.073329
N49	N	1.345710	-0.609644	0.012773
H50	H	0.562446	-0.000019	0.462189
C51	C	1.061984	-0.413696	0.312955
N52	N	0.978189	-0.387427	0.290399
C53	C	1.105305	-0.416528	0.116932
N54	N	1.021938	-0.392134	0.088876
C55	C	1.403602	-0.413765	0.407151
N56	N	1.434429	-0.387376	0.488867
C57	C	1.396934	-0.584643	0.412115
N58	N	1.423111	-0.609489	0.495761
H59	H	1.090102	-0.576025	0.320221
C60	C	1.424283	-0.000011	-0.042589
N61	N	1.507553	-0.000004	0.000186
H62	H	0.939092	-0.000004	0.068646
H63	H	1.194827	-0.576649	0.425277
C64	C	1.288624	-0.415254	0.073174
N65	N	1.343330	-0.389901	0.012152
C66	C	1.077250	-0.000015	-0.426601
N67	N	0.993990	-0.000028	-0.469396
C68	C	1.499332	-0.000005	-0.209710
N69	N	1.582600	-0.000007	-0.166930
C70	C	1.002197	-0.000024	-0.259471
N71	N	0.918933	-0.000039	-0.302259
H72	H	0.740630	-0.000020	0.045571
H73	H	0.760878	-0.000015	0.485268
H74	H	1.194932	-0.423850	0.425795
C75	C	1.107063	-0.586591	0.115949
N76	N	1.024587	-0.612810	0.087499
H77	H	1.053992	-0.000026	-0.046254
C78	C	1.444857	-0.586340	0.230925
N79	N	1.507129	-0.612454	0.178090
C80	C	1.440761	-0.415884	0.222523
N81	N	1.499580	-0.391084	0.165173
H82	H	0.573502	-0.000085	0.120623
H83	H	1.447536	0.000007	-0.422901
