data_functionalizedCrystal
_audit_creation_method	'MofGen! by Chris Wilmer'
_symmetry_space_group_name_H-M	'P1'
_symmetry_Int_Tables_number	1
_symmetry_cell_setting	triclinic
loop_
_symmetry_equiv_pos_as_xyz
  x,y,z
_cell_length_a	19.077105
_cell_length_b	18.101395
_cell_length_c	19.076919
_cell_angle_alpha	87.727683
_cell_angle_beta	89.923776
_cell_angle_gamma	87.727498
loop_
_atom_site_label
_atom_site_type_symbol
_atom_site_fract_x
_atom_site_fract_y
_atom_site_fract_z
Zn1	Zn	1.058231	-0.358271	0.440421
Zn2	Zn	1.062857	-0.477344	0.322915
Zn3	Zn	0.945450	-0.348351	0.318214
Zn4	Zn	0.940679	-0.476897	0.435668
O5	O	1.001804	-0.415216	0.379305
O6	O	1.157176	-0.378405	0.428790
O7	O	1.051216	-0.456268	0.223960
O8	O	0.960470	-0.246037	0.334447
O9	O	1.160575	-0.465887	0.342459
O10	O	1.043330	-0.253326	0.424232
O11	O	0.964957	-0.361497	0.220507
O12	O	0.846486	-0.361064	0.329838
O13	O	0.952340	-0.465126	0.534630
O14	O	0.842981	-0.455506	0.416131
O15	O	1.038704	-0.377972	0.538122
O16	O	1.046590	-0.580914	0.337850
O17	O	0.956826	-0.580586	0.420689
C18	C	0.819237	-0.407161	0.371959
C19	C	0.741133	-0.403733	0.368833
C20	C	0.702636	-0.451363	0.412222
C21	C	0.629249	-0.448133	0.409288
C22	C	0.594361	-0.397276	0.362962
C23	C	0.632863	-0.349642	0.319571
C24	C	0.706248	-0.352869	0.322509
C25	C	0.375075	-0.382341	0.349369
C26	C	0.301684	-0.379119	0.346433
C27	C	0.298076	-0.477610	0.436152
C28	C	0.371463	-0.480836	0.439082
C29	C	0.409959	-0.433198	0.395694
N30	N	0.519348	-0.393975	0.359960
N31	N	0.484970	-0.436497	0.398700
C32	C	1.001711	-0.607621	0.379280
C33	C	1.001735	-0.689937	0.379296
C34	C	1.001887	-0.989036	0.379340
C35	C	0.945531	-0.957547	0.431600
C36	C	0.945280	-0.871910	0.431419
C37	C	1.001811	-0.840650	0.379319
C38	C	0.984741	-0.867911	0.304458
C39	C	0.984379	-0.953554	0.304770
C40	C	1.075459	-0.961424	0.401293
C41	C	1.074956	-0.875820	0.402900
C42	C	1.001770	-0.756788	0.379302
C43	C	1.001927	-1.072898	0.379351
C44	C	1.185084	-0.423303	0.386679
C45	C	1.263188	-0.426749	0.389822
C46	C	0.994474	-0.422606	0.562585
C47	C	0.991350	-0.425755	0.640688
C48	C	1.001916	-0.222060	0.379345
C49	C	1.001964	-0.139749	0.379363
C50	C	1.009146	-0.407803	0.196739
C51	C	1.012406	-0.404451	0.118642
C52	C	1.034846	-0.381860	0.679200
C53	C	1.031902	-0.384816	0.752586
C54	C	0.985466	-0.431671	0.787458
C55	C	0.941966	-0.475568	0.748941
C56	C	0.944906	-0.472608	0.675556
C57	C	0.971847	-0.445387	1.006740
C58	C	0.968911	-0.448346	1.080130
C59	C	1.058847	-0.357593	1.083770
C60	C	1.061786	-0.354640	1.010384
C61	C	1.018283	-0.398533	0.971872
N62	N	0.982458	-0.434696	0.862471
N63	N	1.021289	-0.395505	0.896861
H64	H	0.737591	-0.314080	0.287181
O65	O	1.105746	-0.310229	1.125304
H66	H	1.095892	-0.320146	1.182191
H67	H	0.955615	-0.853628	0.486834
O68	O	0.958998	-0.988813	0.505118
H69	H	1.011789	-0.973525	0.522570
H70	H	0.731037	-0.492778	0.449944
O71	O	0.595223	-0.294798	0.269603
H72	H	0.608837	-0.237800	0.282314
H73	H	0.273280	-0.337698	0.308713
O74	O	0.873645	-0.982262	0.412253
H75	H	0.877881	-1.016875	0.365578
H76	H	0.890687	-0.848550	0.416642
O77	O	0.918819	-0.498879	1.117746
H78	H	0.889057	-0.528898	1.078639
O79	O	1.133203	-0.847960	0.356471
H80	H	1.184056	-0.873857	0.374560
H81	H	0.266725	-0.516393	0.471476
H82	H	1.091602	-0.985932	0.455108
O83	O	1.036593	-0.980951	0.251214
H84	H	1.061986	-0.933027	0.225203
H85	H	0.597908	-0.486918	0.444619
H86	H	0.399864	-0.522250	0.476804
O87	O	0.924892	-0.492687	0.965204
H88	H	0.892101	-0.525754	1.001784
H89	H	0.930687	-0.970551	0.286519
O90	O	1.078818	-0.337473	0.794123
H91	H	1.113203	-0.373546	0.828996
O92	O	0.891875	-0.526102	0.786548
H93	H	0.897140	-0.520791	0.844047
O94	O	1.131097	-0.988467	0.350997
H95	H	1.171128	-1.023499	0.380279
O96	O	0.416593	-0.330986	0.302553
H97	H	0.380002	-0.295095	0.269835
H98	H	1.024629	-0.847532	0.264328
O99	O	0.914397	-0.835579	0.279926
H100	H	0.891484	-0.800094	0.320923
O101	O	1.092095	-0.852651	0.475890
H102	H	1.048706	-0.816236	0.495297
H103	H	1.072661	-0.343708	0.650813
H104	H	1.099601	-0.316487	0.981996
O105	O	0.897985	-0.519940	0.634012
H106	H	0.865201	-0.553020	0.670588
