data_functionalizedCrystal
_audit_creation_method	'MofGen! by Chris Wilmer'
_symmetry_space_group_name_H-M	'P1'
_symmetry_Int_Tables_number	1
_symmetry_cell_setting	triclinic
loop_
_symmetry_equiv_pos_as_xyz
  x,y,z
_cell_length_a	17.077404
_cell_length_b	19.805404
_cell_length_c	17.077396
_cell_angle_alpha	90.029459
_cell_angle_beta	90.019501
_cell_angle_gamma	90.029818
loop_
_atom_site_label
_atom_site_type_symbol
_atom_site_fract_x
_atom_site_fract_y
_atom_site_fract_z
Zn1	Zn	1.200018	-0.269459	0.443837
Zn2	Zn	1.199910	-0.382652	0.312569
Zn3	Zn	1.068750	-0.269483	0.312585
Zn4	Zn	1.068702	-0.382612	0.443793
O5	O	1.134345	-0.326052	0.378196
O6	O	1.309851	-0.284481	0.426436
O7	O	1.182486	-0.367667	0.202724
O8	O	1.086228	-0.174763	0.330022
O9	O	1.309771	-0.367644	0.329994
O10	O	1.182670	-0.174746	0.426452
O11	O	1.086123	-0.284522	0.202736
O12	O	0.958897	-0.284483	0.329978
O13	O	1.086147	-0.367575	0.553646
O14	O	0.958862	-0.367598	0.426376
O15	O	1.182624	-0.284442	0.553678
O16	O	1.182440	-0.477363	0.329951
O17	O	1.086042	-0.477334	0.426360
C18	C	0.930397	-0.326039	0.378174
C19	C	0.843147	-0.326050	0.378184
C20	C	1.134245	-0.501908	0.378166
C21	C	1.134275	-0.577140	0.378179
C22	C	0.802160	-0.369394	0.428297
C23	C	0.720179	-0.369395	0.428310
C24	C	0.679188	-0.326056	0.378204
C25	C	0.720181	-0.282708	0.328089
C26	C	0.802160	-0.282703	0.328080
C27	C	0.549311	-0.282721	0.328107
C28	C	0.467327	-0.282726	0.328114
C29	C	0.467330	-0.369413	0.428337
C30	C	0.549309	-0.369409	0.428329
C31	C	0.590297	-0.326061	0.378212
C32	C	1.184732	-1.038923	0.328106
C33	C	1.184695	-0.968235	0.328090
C34	C	1.134448	-0.932901	0.378238
C35	C	1.084229	-0.968260	0.428398
C36	C	1.084262	-1.038947	0.428409
C37	C	1.084092	-0.683186	0.428355
C38	C	1.084064	-0.612494	0.428342
C39	C	1.184525	-0.612475	0.328036
C40	C	1.184559	-0.683162	0.328047
C41	C	1.134337	-0.718514	0.378204
C42	C	1.134376	-0.795162	0.378219
C43	C	1.134412	-0.856254	0.378227
C44	C	1.339089	-0.326064	0.378218
C45	C	1.426339	-0.326070	0.378228
C46	C	1.134393	-0.326002	0.582940
C47	C	1.134413	-0.325980	0.670190
C48	C	1.134466	-0.149509	0.378244
C49	C	1.134518	-0.074277	0.378264
C50	C	1.134343	-0.326052	0.174248
C51	C	1.134475	-0.325883	0.086999
C52	C	1.184650	-0.282690	0.711199
C53	C	1.184660	-0.282667	0.793179
C54	C	1.134435	-0.325939	0.834150
C55	C	1.084192	-0.369232	0.793136
C56	C	1.084179	-0.369251	0.711157
C57	C	1.084224	-0.369191	0.964006
C58	C	1.084237	-0.369174	1.045990
C59	C	1.184704	-0.282608	1.046029
C60	C	1.184691	-0.282626	0.964050
C61	C	1.134449	-0.325920	0.923041
H62	H	0.835529	-0.404688	0.469097
Br63	Br	1.252879	-0.223944	0.848831
H64	H	1.225593	-0.247394	0.930694
Br65	Br	0.604937	-0.223890	0.260092
H66	H	1.043144	-0.583727	0.469179
H67	H	1.043312	-0.939487	0.469226
H68	H	0.433954	-0.404706	0.469146
H69	H	1.043192	-0.711962	0.469190
Br70	Br	1.016035	-0.427946	0.908352
H71	H	1.225612	-0.247355	1.079422
Br72	Br	0.664552	-0.223883	0.260094
H73	H	0.582682	-0.404703	0.469125
Br74	Br	0.411696	-0.223913	0.260107
H75	H	1.043338	-0.404408	1.079346
Br76	Br	1.016024	-0.427956	0.848737
Br77	Br	1.015992	-0.428001	0.655501
Br78	Br	0.857788	-0.223874	0.260071
Br79	Br	1.016105	-1.086927	0.496476
H80	H	0.686811	-0.404691	0.469117
Br81	Br	1.252934	-1.086869	0.260050
Br82	Br	1.252759	-0.731111	0.259993
Br83	Br	1.252853	-0.920258	0.260023
H84	H	1.225416	-0.583683	0.287193
Br85	Br	1.252822	-0.223965	0.655604
