data_functionalizedCrystal
_audit_creation_method	'MofGen! by Chris Wilmer'
_symmetry_space_group_name_H-M	'P1'
_symmetry_Int_Tables_number	1
_symmetry_cell_setting	triclinic
loop_
_symmetry_equiv_pos_as_xyz
  x,y,z
_cell_length_a	19.076808
_cell_length_b	12.759395
_cell_length_c	19.076919
_cell_angle_alpha	87.718436
_cell_angle_beta	89.878360
_cell_angle_gamma	87.675989
loop_
_atom_site_label
_atom_site_type_symbol
_atom_site_fract_x
_atom_site_fract_y
_atom_site_fract_z
Zn1	Zn	-0.295732	-1.565242	-0.386045
Zn2	Zn	-0.408527	-1.565684	-0.263815
Zn3	Zn	-0.291032	-1.396886	-0.268554
Zn4	Zn	-0.413210	-1.382740	-0.381283
O5	O	-0.352125	-1.477638	-0.324924
O6	O	-0.310701	-1.712320	-0.369840
O7	O	-0.389014	-1.549398	-0.166112
O8	O	-0.193319	-1.424954	-0.288116
O9	O	-0.393571	-1.712646	-0.280038
O10	O	-0.196772	-1.548644	-0.374436
O11	O	-0.302691	-1.425383	-0.169594
O12	O	-0.307232	-1.247990	-0.283498
O13	O	-0.401553	-1.400844	-0.480246
O14	O	-0.396996	-1.237596	-0.366320
O15	O	-0.315242	-1.534927	-0.483744
O16	O	-0.507484	-1.535681	-0.275420
O17	O	-0.510925	-1.401273	-0.361724
C18	C	-0.352113	-1.204672	-0.324907
C19	C	-0.352125	-1.087894	-0.324916
C20	C	-0.445735	-1.077111	-0.411006
C21	C	-0.492545	-1.016858	-0.454052
C22	C	-0.492552	-0.907136	-0.454058
C23	C	-0.445744	-0.857664	-0.411015
C24	C	-0.398934	-0.917917	-0.367969
C25	C	-0.398933	-1.027641	-0.367966
C26	C	-0.305321	-0.928700	-0.281883
C27	C	-0.305316	-1.038423	-0.281873
C28	C	-0.258513	-0.879228	-0.238840
C29	C	-0.211705	-0.939481	-0.195790
C30	C	-0.211700	-1.049210	-0.195785
C31	C	-0.258506	-1.098675	-0.238827
C32	C	-0.534703	-1.467018	-0.317556
C33	C	-0.612811	-1.462569	-0.314428
C34	C	-0.651246	-1.524825	-0.357936
C35	C	-0.724637	-1.520640	-0.354998
C36	C	-0.759593	-1.454205	-0.308547
C37	C	-0.721153	-1.391942	-0.265036
C38	C	-0.647763	-1.396121	-0.267979
C39	C	-0.978898	-1.434799	-0.294927
C40	C	-1.052293	-1.430627	-0.291986
C41	C	-1.055772	-1.559325	-0.381949
C42	C	-0.982380	-1.563503	-0.384884
C43	C	-0.943948	-1.501236	-0.341377
N44	N	-0.834610	-1.449928	-0.305541
N45	N	-0.868931	-1.505508	-0.344387
C46	C	-0.168835	-1.488328	-0.332336
C47	C	-0.090727	-1.492883	-0.335495
C48	C	-0.359444	-1.466258	-0.508204
C49	C	-0.362563	-1.461409	-0.586307
C50	C	-0.352135	-0.751670	-0.324937
C51	C	-0.352131	-0.868447	-0.324929
C52	C	-0.319093	-1.528937	-0.624823
C53	C	-0.322021	-1.524367	-0.698209
C54	C	-0.368423	-1.452274	-0.733078
C55	C	-0.411894	-1.384739	-0.694557
C56	C	-0.408962	-1.389304	-0.621172
C57	C	-0.382007	-1.431131	-0.952359
C58	C	-0.384937	-1.426574	-1.025749
C59	C	-0.295062	-1.566201	-1.029396
C60	C	-0.292137	-1.570764	-0.956010
C61	C	-0.335606	-1.503225	-0.917495
N62	N	-0.371418	-1.447604	-0.808090
N63	N	-0.332607	-1.507891	-0.842484
C64	C	-0.344784	-1.489037	-0.142359
C65	C	-0.341467	-1.494102	-0.064265
H66	H	-0.530654	-1.057150	-0.489098
Br67	Br	-1.107934	-1.643823	-0.440994
H68	H	-0.258509	-1.188017	-0.238825
H69	H	-0.616471	-1.345424	-0.232550
Br70	Br	-0.256121	-1.626790	-0.577508
Br71	Br	-0.603813	-1.615001	-0.420975
Br72	Br	-0.556074	-0.825360	-0.512483
Br73	Br	-0.768592	-1.301763	-0.202004
H74	H	-0.947612	-1.384101	-0.259500
H75	H	-0.173577	-1.098262	-0.160737
Br76	Br	-0.445740	-1.226021	-0.410988
Br77	Br	-0.263056	-1.616064	-0.750477
Br78	Br	-0.445743	-0.708754	-0.411037
Br79	Br	-0.236070	-1.657854	-1.081669
Br80	Br	-1.099733	-1.340465	-0.228936
H81	H	-0.254354	-1.629472	-0.927624
Br82	Br	-0.447912	-1.328723	-1.073071
H83	H	-0.417413	-1.376151	-0.921009
H84	H	-0.755927	-1.571344	-0.390422
Br85	Br	-0.258516	-0.730318	-0.238854
H86	H	-0.173594	-0.899192	-0.160751
H87	H	-0.953921	-1.617600	-0.422709
Br88	Br	-0.474865	-1.286891	-0.741878
H89	H	-0.444353	-1.334305	-0.589814
