data_functionalizedCrystal
_audit_creation_method	'MofGen! by Chris Wilmer'
_symmetry_space_group_name_H-M	'P1'
_symmetry_Int_Tables_number	1
_symmetry_cell_setting	triclinic
loop_
_symmetry_equiv_pos_as_xyz
  x,y,z
_cell_length_a	19.805407
_cell_length_b	17.640280
_cell_length_c	19.805399
_cell_angle_alpha	78.776044
_cell_angle_beta	89.983114
_cell_angle_gamma	78.800112
loop_
_atom_site_label
_atom_site_type_symbol
_atom_site_fract_x
_atom_site_fract_y
_atom_site_fract_z
Zn1	Zn	1.089264	-0.314670	-0.328319
Zn2	Zn	1.112096	-0.446848	-0.192280
Zn3	Zn	0.976088	-0.314695	-0.215139
Zn4	Zn	0.998946	-0.446803	-0.305434
O5	O	1.044098	-0.380754	-0.260293
O6	O	1.187010	-0.332212	-0.310284
O7	O	1.094043	-0.429347	-0.100590
O8	O	0.971979	-0.204088	-0.249297
O9	O	1.203785	-0.429323	-0.210336
O10	O	1.055129	-0.204069	-0.332450
O11	O	0.994119	-0.332255	-0.117385
O12	O	0.884402	-0.332211	-0.227106
O13	O	1.010938	-0.429246	-0.403192
O14	O	0.901196	-0.429270	-0.293446
O15	O	1.077294	-0.332168	-0.420005
O16	O	1.116208	-0.557446	-0.188146
O17	O	1.033077	-0.557413	-0.271280
C18	C	0.868240	-0.380739	-0.260274
C19	C	0.793010	-0.380751	-0.260278
C20	C	0.766441	-0.431366	-0.294738
C21	C	0.695753	-0.431367	-0.294747
C22	C	0.651635	-0.380758	-0.260292
C23	C	0.678208	-0.330137	-0.225832
C24	C	0.748894	-0.330133	-0.225827
C25	C	0.393138	-0.330155	-0.225851
C26	C	0.322447	-0.330165	-0.225857
C27	C	0.339996	-0.431390	-0.294771
C28	C	0.410683	-0.431385	-0.294767
C29	C	0.437249	-0.380762	-0.260309
C30	C	0.513897	-0.380760	-0.260301
C31	C	0.574989	-0.380763	-0.260296
C32	C	1.079619	-0.586108	-0.224764
C33	C	1.094876	-0.673959	-0.209587
C34	C	0.928465	-0.962942	-0.375837
C35	C	0.942803	-1.045492	-0.361554
C36	C	1.029421	-1.045461	-0.275074
C37	C	1.015092	-0.962910	-0.289352
C38	C	0.964613	-0.921657	-0.339734
C39	C	1.051240	-0.921624	-0.253249
C40	C	1.036910	-0.839080	-0.267523
C41	C	0.986431	-0.797821	-0.317901
C42	C	0.950282	-0.839113	-0.354008
C43	C	1.101716	-0.962879	-0.202864
C44	C	1.137864	-0.921593	-0.166761
C45	C	1.123537	-0.839048	-0.181038
C46	C	1.073059	-0.797789	-0.231416
C47	C	1.159686	-0.797756	-0.144931
C48	C	1.145356	-0.715212	-0.159205
C49	C	1.058728	-0.715245	-0.245690
C50	C	1.220644	-0.380770	-0.260313
C51	C	1.295877	-0.380776	-0.260321
C52	C	1.044118	-0.380699	-0.436845
C53	C	1.044127	-0.380676	-0.512081
C54	C	1.008457	-0.174598	-0.295976
C55	C	0.993270	-0.086747	-0.311182
C56	C	0.992108	-0.330115	-0.556171
C57	C	0.992115	-0.330100	-0.626862
C58	C	1.044144	-0.380642	-0.653463
C59	C	1.096166	-0.431208	-0.609367
C60	C	1.096156	-0.431227	-0.538677
C61	C	1.096207	-0.431134	-0.894454
C62	C	1.096214	-0.431109	-0.965150
C63	C	0.992165	-0.330007	-0.982639
C64	C	0.992155	-0.330026	-0.911948
C65	C	1.044175	-0.380595	-0.867859
C66	C	1.044166	-0.380612	-0.791207
C67	C	1.044156	-0.380621	-0.730114
C68	C	1.044107	-0.380752	-0.084437
C69	C	1.044191	-0.380552	-0.009240
H70	H	1.017628	-0.681655	-0.286721
Br71	Br	0.618334	-0.261444	-0.179079
Br72	Br	0.826310	-0.500061	-0.341495
H73	H	0.446601	-0.472599	-0.322820
H74	H	1.138584	-0.472270	-0.986805
Br75	Br	0.784952	-0.261434	-0.179063
H76	H	0.949743	-0.288954	-0.534519
Br77	Br	1.166773	-0.499809	-0.645466
H78	H	0.949753	-0.288931	-0.662757
Br79	Br	0.303939	-0.500095	-0.341534
H80	H	0.974760	-0.730609	-0.329517
H81	H	1.174791	-0.681597	-0.129805
Br82	Br	1.121190	-1.074905	-0.183517
H83	H	0.286527	-0.288948	-0.197800
Br84	Br	1.206369	-0.977586	-0.098388
H85	H	0.887364	-0.929352	-0.416868
H86	H	0.949790	-0.288867	-0.890295
H87	H	0.674125	-0.472584	-0.322807
Br88	Br	0.921565	-0.261378	-1.042478
Br89	Br	1.166752	-0.499853	-0.478839
H90	H	0.414760	-0.288941	-0.197788
H91	H	0.909182	-0.805523	-0.395039
H92	H	0.913371	-1.079104	-0.390966
Br93	Br	1.228184	-0.853752	-0.076552
H94	H	1.070519	-1.079061	-0.234052
Br95	Br	1.166808	-0.499758	-0.834627
