data_functionalizedCrystal
_audit_creation_method	'MofGen! by Chris Wilmer'
_symmetry_space_group_name_H-M	'P1'
_symmetry_Int_Tables_number	1
_symmetry_cell_setting	triclinic
loop_
_symmetry_equiv_pos_as_xyz
  x,y,z
_cell_length_a	11.792241
_cell_length_b	16.992695
_cell_length_c	16.053802
_cell_angle_alpha	87.258926
_cell_angle_beta	92.594651
_cell_angle_gamma	87.430819
loop_
_atom_site_label
_atom_site_type_symbol
_atom_site_fract_x
_atom_site_fract_y
_atom_site_fract_z
O1	O	-1.520188	-0.104234	-0.069348
O2	O	-1.020188	0.395766	0.430652
O3	O	-1.190755	-0.115313	-0.069368
O4	O	-0.690755	0.384687	0.430632
O5	O	-1.354150	0.004375	-0.069352
O6	O	-0.854150	0.504375	0.430648
O7	O	-1.356793	-0.223921	-0.069365
O8	O	-0.856793	0.276079	0.430635
O9	O	-1.345154	-0.002186	0.069506
O10	O	-0.845154	0.497814	0.569506
O11	O	-1.181759	-0.121873	0.069490
O12	O	-0.681759	0.378127	0.569490
O13	O	-1.511192	-0.110794	0.069510
O14	O	-1.011192	0.389206	0.569510
Zn15	Zn	-1.345047	-0.117375	0.091547
Zn16	Zn	-0.845047	0.382625	0.591547
Zn17	Zn	-1.356900	-0.108732	-0.091405
Zn18	Zn	-0.856900	0.391268	0.408595
O19	O	-1.347796	-0.230482	0.069493
O20	O	-0.847796	0.269518	0.569493
C21	C	-1.346255	0.030321	0.000077
C22	C	-0.846255	0.530321	0.500077
C23	C	-1.336117	0.117409	0.000076
C24	C	-0.836117	0.617409	0.500076
C25	C	-1.143909	-0.117897	0.000059
C26	C	-0.643909	0.382103	0.500059
C27	C	-1.017725	-0.115813	0.000051
C28	C	-0.517725	0.384187	0.500051
C29	C	-1.558038	-0.108210	0.000081
C30	C	-1.058038	0.391790	0.500081
C31	C	-1.684222	-0.110293	0.000083
C32	C	-1.184222	0.389707	0.500083
C33	C	-0.786698	-0.111984	0.000076
C34	C	-0.286698	0.388016	0.500076
C35	C	-0.915258	-0.114112	0.000062
C36	C	-0.415258	0.385888	0.500062
C37	C	-1.355692	-0.256428	0.000063
C38	C	-0.855692	0.243572	0.500063
C39	C	-1.365831	-0.343515	0.000058
C40	C	-0.865831	0.156485	0.500058
N41	N	-1.336966	-0.123274	0.216406
N42	N	-0.836966	0.376726	0.716406
C43	C	-1.433934	0.167233	0.000083
C44	C	-0.933934	0.667233	0.500083
C45	C	-1.424402	0.249061	0.000074
C46	C	-0.924402	0.749061	0.500074
C47	C	-1.317051	0.281062	0.000065
C48	C	-0.817051	0.781062	0.500065
C49	C	-1.219227	0.231231	0.000056
C50	C	-0.719227	0.731231	0.500056
C51	C	-1.228760	0.149406	0.000059
C52	C	-0.728760	0.649406	0.500059
C53	C	-1.277540	0.524828	0.000051
C54	C	-0.777540	1.024828	0.500051
C55	C	-1.268013	0.606660	0.000051
C56	C	-0.768013	1.106660	0.500051
C57	C	-1.473190	0.624484	0.000068
C58	C	-0.973190	1.124484	0.500068
C59	C	-1.482713	0.542656	0.000076
C60	C	-0.982713	1.042656	0.500076
C61	C	-1.384889	0.492833	0.000062
C62	C	-0.884889	0.992833	0.500062
N63	N	-1.307305	0.364703	0.000059
N64	N	-0.807305	0.864703	0.500059
N65	N	-1.394636	0.409194	0.000062
N66	N	-0.894636	0.909194	0.500062
N67	N	-1.364989	-0.102827	-0.216264
N68	N	-0.864989	0.397173	0.283736
C69	C	-1.406520	-0.072365	0.260107
C70	C	-0.906520	0.427635	0.760107
C71	C	-1.400878	-0.076499	0.347513
C72	C	-0.900878	0.423501	0.847513
C73	C	-1.325688	-0.131546	0.391217
C74	C	-0.825688	0.368454	0.891217
C75	C	-1.256126	-0.182457	0.347510
C76	C	-0.756126	0.317543	0.847510
C77	C	-1.261763	-0.178319	0.260105
C78	C	-0.761763	0.321681	0.760105
C79	C	-1.301064	-0.149600	0.652624
C80	C	-0.801064	0.350400	1.152624
C81	C	-1.295435	-0.153735	0.740035
C82	C	-0.795435	0.346265	1.240035
C83	C	-1.440186	-0.047776	0.740032
C84	C	-0.940186	0.452224	1.240032
C85	C	-1.445821	-0.043646	0.652626
C86	C	-0.945821	0.456354	1.152626
C87	C	-1.376256	-0.094554	0.608926
C88	C	-0.876256	0.405446	1.108926
N89	N	-1.319922	-0.135774	0.480560
N90	N	-0.819922	0.364226	0.980560
N91	N	-1.382016	-0.090321	0.519585
N92	N	-0.882016	0.409679	1.019585
H93	H	-1.521350	0.141184	0.000096
H94	H	-1.021350	0.641184	0.500096
H95	H	-1.194899	-0.227275	0.383098
H96	H	-0.694899	0.272725	0.883098
H97	H	-1.149107	0.108839	0.000053
H98	H	-0.649107	0.608839	0.500053
O99	O	-1.103440	0.265746	0.000056
O100	O	-0.603440	0.765746	0.500056
H101	H	-1.097855	0.305278	-0.056535
H102	H	-0.597855	0.805278	0.443465
O103	O	-1.487614	-0.012990	0.212970
O104	O	-0.987614	0.487010	0.712970
H105	H	-1.535021	0.021721	0.258046
H106	H	-1.035021	0.521721	0.758046
O107	O	-1.172036	0.471093	0.000041
O108	O	-0.672036	0.971093	0.500041
H109	H	-1.167811	0.430711	0.056634
H110	H	-0.667811	0.930711	0.556634
H111	H	-1.457513	-0.035045	0.383094
H112	H	-0.957513	0.464955	0.883094
H113	H	-1.507047	0.001178	0.617044
H114	H	-1.007047	0.501178	1.117044
H115	H	-1.244423	-0.191053	0.617051
H116	H	-0.744423	0.308947	1.117051
O117	O	-1.515206	0.007138	0.787162
O118	O	-1.015206	0.507138	1.287162
H119	H	-1.498651	-0.004980	0.855282
H120	H	-0.998651	0.495020	1.355282
H121	H	-1.205123	-0.219774	0.224525
H122	H	-0.705123	0.280226	0.724525
H123	H	-1.180590	0.632711	0.000057
H124	H	-0.680590	1.132711	0.500057
H125	H	-1.234203	-0.198565	0.775614
H126	H	-0.734203	0.301435	1.275614
H127	H	-1.570129	0.516607	0.000083
H128	H	-1.070129	1.016607	0.500083
O129	O	-1.529909	0.302796	0.000095
O130	O	-1.029909	0.802796	0.500095
H131	H	-1.584612	0.294028	-0.056488
H132	H	-1.084612	0.794028	0.443512
O133	O	-1.578698	0.678219	0.000077
O134	O	-1.078698	1.178219	0.500077
H135	H	-1.554040	0.740495	0.000069
H136	H	-1.054040	1.240495	0.500069
