data_functionalizedCrystal
_audit_creation_method	'MofGen! by Chris Wilmer'
_symmetry_space_group_name_H-M	'P1'
_symmetry_Int_Tables_number	1
_symmetry_cell_setting	triclinic
loop_
_symmetry_equiv_pos_as_xyz
  x,y,z
_cell_length_a	27.732048
_cell_length_b	26.809956
_cell_length_c	27.732048
_cell_angle_alpha	89.999364
_cell_angle_beta	97.357345
_cell_angle_gamma	90.003258
loop_
_atom_site_label
_atom_site_type_symbol
_atom_site_fract_x
_atom_site_fract_y
_atom_site_fract_z
O1	O	0.640931	0.041421	-0.057510
O2	O	0.974264	0.374754	0.275823
O3	O	1.307598	0.708087	0.609157
O4	O	0.500138	0.041436	-0.066256
O5	O	0.833471	0.374770	0.267078
O6	O	1.166804	0.708103	0.600411
O7	O	0.574907	0.041419	0.008514
O8	O	0.908240	0.374752	0.341847
O9	O	1.241574	0.708085	0.675180
O10	O	0.566162	0.041439	-0.132280
O11	O	0.899495	0.374772	0.201054
O12	O	1.232828	0.708105	0.534387
O13	O	0.574893	-0.041541	0.008502
O14	O	0.908226	0.291793	0.341836
O15	O	1.241560	0.625126	0.675169
O16	O	0.500123	-0.041523	-0.066267
O17	O	0.833457	0.291811	0.267066
O18	O	1.166790	0.625144	0.600400
O19	O	0.640917	-0.041539	-0.057522
O20	O	0.974250	0.291795	0.275812
O21	O	1.307584	0.625128	0.609145
Zn22	Zn	0.570518	-0.054702	-0.061896
Zn23	Zn	0.903851	0.278631	0.271437
Zn24	Zn	1.237185	0.611964	0.604771
Zn25	Zn	0.570536	0.054600	-0.061881
Zn26	Zn	0.903870	0.387933	0.271452
Zn27	Zn	1.237203	0.721267	0.604786
O28	O	0.566147	-0.041521	-0.132291
O29	O	0.899481	0.291813	0.201042
O30	O	1.232814	0.625146	0.534376
C31	C	0.482124	-0.000041	-0.066078
C32	C	0.815457	0.333292	0.267256
C33	C	1.148790	0.666625	0.600589
C34	C	0.428469	-0.000036	-0.065525
C35	C	0.761802	0.333298	0.267808
C36	C	1.095135	0.666631	0.601142
N37	N	0.570509	-0.129298	-0.061906
N38	N	0.903842	0.204035	0.271427
N39	N	1.237175	0.537368	0.604761
C40	C	0.089654	-0.000051	-0.106229
C41	C	0.422987	0.333282	0.227105
C42	C	0.756320	0.666615	0.560438
C43	C	-0.112006	-0.000056	-0.104178
C44	C	0.221327	0.333277	0.229156
C45	C	0.554661	0.666610	0.562489
O46	O	-0.143262	-0.000073	-0.141398
O47	O	0.190072	0.333261	0.191935
O48	O	0.523405	0.666594	0.525268
N49	N	-0.131130	-0.000062	-0.059843
N50	N	0.202204	0.333272	0.273491
N51	N	0.535537	0.666605	0.606824
C52	C	-0.099835	-0.000069	-0.016017
C53	C	0.233498	0.333264	0.317316
C54	C	0.566832	0.666598	0.650650
O55	O	-0.120728	-0.000079	0.021740
O56	O	0.212605	0.333254	0.355073
O57	O	0.545938	0.666588	0.688407
C58	C	0.101824	-0.000068	-0.018068
C59	C	0.435157	0.333265	0.315265
C60	C	0.768490	0.666599	0.648598
C61	C	0.120944	-0.000057	-0.062407
C62	C	0.454278	0.333276	0.270927
C63	C	0.787611	0.666609	0.604260
C64	C	0.108775	-0.000042	-0.150563
C65	C	0.442108	0.333292	0.182770
C66	C	0.775442	0.666625	0.516103
C67	C	0.159187	-0.000038	-0.151076
C68	C	0.492520	0.333296	0.182258
C69	C	0.825853	0.666629	0.515591
C70	C	0.190477	-0.000044	-0.107253
C71	C	0.523811	0.333290	0.226080
C72	C	0.857144	0.666623	0.559413
C73	C	0.171356	-0.000054	-0.062919
C74	C	0.504690	0.333280	0.270415
C75	C	0.838023	0.666613	0.603748
C76	C	0.133117	-0.000079	0.025757
C77	C	0.466451	0.333254	0.359090
C78	C	0.799784	0.666588	0.692423
C79	C	0.183535	-0.000080	0.025240
C80	C	0.516868	0.333253	0.358573
C81	C	0.850201	0.666587	0.691906
C82	C	0.202655	-0.000069	-0.019098
C83	C	0.535989	0.333264	0.314235
C84	C	0.869322	0.666597	0.647568
C85	C	0.253059	-0.000056	-0.019609
C86	C	0.586392	0.333278	0.313724
C87	C	0.919725	0.666611	0.647058
N88	N	0.272183	-0.000050	-0.063944
N89	N	0.605516	0.333283	0.269389
N90	N	0.938849	0.666616	0.602723
C91	C	0.240892	-0.000044	-0.107766
C92	C	0.574225	0.333289	0.225567
C93	C	0.907559	0.666622	0.558900
C94	C	-0.205709	-0.000069	-0.014943
C95	C	0.127624	0.333265	0.318390
C96	C	0.460957	0.666598	0.651724
C97	C	-0.256124	-0.000068	-0.014430
C98	C	0.077210	0.333265	0.318903
C99	C	0.410543	0.666599	0.652237
C100	C	-0.268291	-0.000056	-0.102591
C101	C	0.065042	0.333277	0.230742
C102	C	0.398376	0.666610	0.564076
C103	C	-0.217876	-0.000053	-0.103104
C104	C	0.115458	0.333280	0.230230
C105	C	0.448791	0.666613	0.563563
C106	C	-0.186585	-0.000063	-0.059278
C107	C	0.146748	0.333270	0.274055
C108	C	0.480081	0.666603	0.607388
C109	C	0.346761	-0.000036	-0.108839
C110	C	0.680094	0.333298	0.224495
C111	C	1.013428	0.666631	0.557828
C112	C	0.397178	-0.000030	-0.109347
C113	C	0.730511	0.333304	0.223986
C114	C	1.063845	0.666637	0.557319
C115	C	0.409341	-0.000044	-0.021186
C116	C	0.742674	0.333289	0.312147
C117	C	1.076008	0.666622	0.645480
C118	C	0.358929	-0.000048	-0.020678
C119	C	0.692262	0.333286	0.312656
C120	C	1.025595	0.666619	0.645989
C121	C	0.327639	-0.000045	-0.064508
C122	C	0.660973	0.333288	0.268825
C123	C	0.994306	0.666622	0.602159
O124	O	0.284343	-0.000045	0.017592
O125	O	0.617676	0.333288	0.350925
O126	O	0.951009	0.666622	0.684259
O127	O	0.261794	-0.000045	-0.145518
O128	O	0.595128	0.333288	0.187816
O129	O	0.928461	0.666621	0.521149
C130	C	0.039242	-0.000055	-0.105716
C131	C	0.372575	0.333278	0.227617
C132	C	0.705908	0.666611	0.560950
C133	C	0.020120	-0.000065	-0.061382
C134	C	0.353454	0.333268	0.271951
C135	C	0.686787	0.666601	0.605285
C136	C	0.051411	-0.000071	-0.017560
C137	C	0.384744	0.333262	0.315774
C138	C	0.718078	0.666595	0.649107
C139	C	-0.030294	-0.000065	-0.060869
C140	C	0.303039	0.333269	0.272464
C141	C	0.636373	0.666602	0.605798
C142	C	-0.061585	-0.000059	-0.104691
C143	C	0.271749	0.333275	0.228642
C144	C	0.605082	0.666608	0.561975
C145	C	-0.042461	-0.000053	-0.149026
C146	C	0.290872	0.333280	0.184307
C147	C	0.624206	0.666613	0.517640
C148	C	0.007951	-0.000049	-0.149539
C149	C	0.341284	0.333284	0.183795
C150	C	0.674618	0.666617	0.517128
C151	C	0.032287	-0.000077	0.026775
C152	C	0.365621	0.333257	0.360109
C153	C	0.698954	0.666590	0.693442
C154	C	-0.018125	-0.000080	0.027284
C155	C	0.315208	0.333253	0.360617
C156	C	0.648541	0.666587	0.693951
C157	C	-0.049416	-0.000074	-0.016538
C158	C	0.283917	0.333259	0.316795
C159	C	0.617251	0.666593	0.650129
C160	C	0.603640	-0.473932	-0.028781
C161	C	0.936973	-0.140599	0.304552
C162	C	1.270307	0.192734	0.637885
C163	C	0.603652	-0.682810	-0.028774
C164	C	0.936985	-0.349477	0.304559
C165	C	1.270318	-0.016143	0.637893
O166	O	0.631801	-0.709820	-0.000613
O167	O	0.965135	-0.376487	0.332720
O168	O	1.298468	-0.043154	0.666054
N169	N	0.570539	-0.708925	-0.061870
N170	N	0.903873	-0.375592	0.271463
N171	N	1.237206	-0.042259	0.604796
C172	C	0.537419	-0.682818	-0.094969
C173	C	0.870753	-0.349485	0.238364
C174	C	1.204086	-0.016151	0.571698
O175	O	0.509252	-0.709824	-0.123116
O176	O	0.842585	-0.376490	0.210217
O177	O	1.175919	-0.043157	0.543550
C178	C	0.537406	-0.473941	-0.094974
C179	C	0.870739	-0.140608	0.238360
C180	C	1.204073	0.192725	0.571693
C181	C	0.570524	-0.447829	-0.061878
C182	C	0.903857	-0.114495	0.271455
C183	C	1.237191	0.218838	0.604788
C184	C	0.636755	-0.447819	0.004312
C185	C	0.970088	-0.114486	0.337645
C186	C	1.303422	0.218847	0.670978
C187	C	0.636754	-0.395603	0.004308
C188	C	0.970087	-0.062270	0.337641
C189	C	1.303420	0.271064	0.670975
C190	C	0.603637	-0.369500	-0.028789
C191	C	0.936971	-0.036166	0.304544
C192	C	1.270304	0.297167	0.637877
C193	C	0.570522	-0.395612	-0.061882
C194	C	0.903856	-0.062279	0.271451
C195	C	1.237189	0.271054	0.604784
C196	C	0.504284	-0.447835	-0.128070
C197	C	0.837618	-0.114502	0.205264
C198	C	1.170951	0.218832	0.538597
C199	C	0.504283	-0.395613	-0.128067
C200	C	0.837616	-0.062279	0.205266
C201	C	1.170950	0.271054	0.538599
C202	C	0.537401	-0.369500	-0.094972
C203	C	0.870734	-0.036167	0.238362
C204	C	1.204068	0.297167	0.571695
C205	C	0.537405	-0.317293	-0.094983
C206	C	0.870738	0.016041	0.238350
C207	C	1.204071	0.349374	0.571683
N208	N	0.570517	-0.291177	-0.061887
N209	N	0.903850	0.042156	0.271447
N210	N	1.237184	0.375490	0.604780
C211	C	0.603633	-0.317281	-0.028790
C212	C	0.936967	0.016053	0.304544
C213	C	1.270300	0.349386	0.637877
C214	C	0.537429	-0.792481	-0.094965
C215	C	0.870763	-0.459148	0.238368
C216	C	1.204096	-0.125815	0.571702
C217	C	0.537433	-0.844700	-0.094964
C218	C	0.870767	-0.511367	0.238369
C219	C	1.204100	-0.178034	0.571702
C220	C	0.603665	-0.844689	-0.028768
C221	C	0.936998	-0.511355	0.304565
C222	C	1.270332	-0.178022	0.637898
C223	C	0.603663	-0.792469	-0.028772
C224	C	0.936996	-0.459135	0.304562
C225	C	1.270330	-0.125802	0.637895
C226	C	0.570542	-0.766366	-0.061868
C227	C	0.903875	-0.433033	0.271465
C228	C	1.237209	-0.099699	0.604798
C229	C	0.603628	-0.207623	-0.028801
C230	C	0.936961	0.125711	0.304533
C231	C	1.270295	0.459044	0.637866
C232	C	0.603625	-0.155402	-0.028809
C233	C	0.936958	0.177932	0.304524
C234	C	1.270292	0.511265	0.637858
C235	C	0.537392	-0.155418	-0.095003
C236	C	0.870725	0.177915	0.238330
C237	C	1.204058	0.511249	0.571664
C238	C	0.537396	-0.207635	-0.094997
C239	C	0.870730	0.125699	0.238337
C240	C	1.204063	0.459032	0.571670
C241	C	0.570516	-0.233735	-0.061892
C242	C	0.903850	0.099598	0.271442
C243	C	1.237183	0.432931	0.604775
O244	O	0.509266	-0.290250	-0.123126
O245	O	0.842599	0.043084	0.210208
O246	O	1.175933	0.376417	0.543541
O247	O	0.631789	-0.290266	-0.000640
O248	O	0.965123	0.043067	0.332694
O249	O	1.298456	0.376401	0.666027
C250	C	0.603642	-0.526149	-0.028777
C251	C	0.936975	-0.192815	0.304556
C252	C	1.270308	0.140518	0.637889
C253	C	0.570527	-0.552261	-0.061870
C254	C	0.903860	-0.218928	0.271463
C255	C	1.237193	0.114405	0.604796
C256	C	0.537410	-0.526158	-0.094968
C257	C	0.870744	-0.192824	0.238366
C258	C	1.204077	0.140509	0.571699
C259	C	0.570531	-0.604480	-0.061870
C260	C	0.903864	-0.271147	0.271463
C261	C	1.237197	0.062186	0.604797
C262	C	0.603647	-0.630584	-0.028773
C263	C	0.936980	-0.297250	0.304560
C264	C	1.270314	0.036083	0.637894
C265	C	0.636759	-0.604468	0.004324
C266	C	0.970093	-0.271135	0.337657
C267	C	1.303426	0.062198	0.670990
C268	C	0.636758	-0.552252	0.004320
C269	C	0.970091	-0.218919	0.337653
C270	C	1.303425	0.114415	0.670986
C271	C	0.504298	-0.552273	-0.128064
C272	C	0.837631	-0.218940	0.205269
C273	C	1.170965	0.114394	0.538603
C274	C	0.504303	-0.604489	-0.128058
C275	C	0.837636	-0.271156	0.205276
C276	C	1.170969	0.062177	0.538609
C277	C	0.537419	-0.630593	-0.094961
C278	C	0.870752	-0.297260	0.238373
C279	C	1.204086	0.036074	0.571706
C280	C	0.658931	-0.000060	-0.057699
C281	C	0.992264	0.333274	0.275634
C282	C	1.325598	0.666607	0.608967
C283	C	0.712586	-0.000062	-0.058252
C284	C	1.045919	0.333271	0.275081
C285	C	1.379252	0.666605	0.608414
C286	C	0.574716	-0.000062	0.026515
C287	C	0.908050	0.333271	0.359848
C288	C	1.241383	0.666604	0.693182
C289	C	0.574164	-0.000066	0.080170
C290	C	0.907497	0.333267	0.413503
C291	C	1.240830	0.666600	0.746837
N292	N	0.570549	0.129196	-0.061867
N293	N	0.903883	0.462529	0.271466
N294	N	1.237216	0.795863	0.604799
C295	C	0.566338	-0.000039	-0.150292
C296	C	0.899671	0.333295	0.183041
C297	C	1.233005	0.666628	0.516374
C298	C	0.566891	-0.000031	-0.203947
C299	C	0.900224	0.333302	0.129386
C300	C	1.233557	0.666635	0.462720
C301	C	0.614867	-0.000045	0.418985
C302	C	0.948201	0.333288	0.752318
C303	C	1.281534	0.666621	1.085652
C304	C	0.612816	-0.000038	0.620645
C305	C	0.946150	0.333295	0.953978
C306	C	1.279483	0.666628	1.287311
O307	O	0.650037	-0.000021	0.651900
O308	O	0.983370	0.333313	0.985234
O309	O	1.316704	0.666646	1.318567
N310	N	0.568481	-0.000034	0.639768
N311	N	0.901814	0.333300	0.973102
N312	N	1.235148	0.666633	1.306435
C313	C	0.524656	-0.000028	0.608474
C314	C	0.857989	0.333306	0.941807
C315	C	1.191322	0.666639	1.275140
O316	O	0.486899	-0.000019	0.629367
O317	O	0.820232	0.333315	0.962700
O318	O	1.153565	0.666648	1.296033
C319	C	0.526707	-0.000031	0.406815
C320	C	0.860040	0.333302	0.740148
C321	C	1.193374	0.666635	1.073482
C322	C	0.571045	-0.000041	0.387694
C323	C	0.904378	0.333292	0.721028
C324	C	1.237712	0.666626	1.054361
C325	C	0.659202	-0.000054	0.399864
C326	C	0.992535	0.333279	0.733197
C327	C	1.325868	0.666612	1.066530
C328	C	0.659714	-0.000059	0.349452
C329	C	0.993047	0.333274	0.682785
C330	C	1.326381	0.666608	1.016118
C331	C	0.615892	-0.000054	0.318161
C332	C	0.949225	0.333279	0.651494
C333	C	1.282559	0.666612	0.984828
C334	C	0.571557	-0.000045	0.337282
C335	C	0.904891	0.333288	0.670616
C336	C	1.238224	0.666621	1.003949
C337	C	0.482882	-0.000022	0.375521
C338	C	0.816215	0.333312	0.708855
C339	C	1.149549	0.666645	1.042188
C340	C	0.483399	-0.000021	0.325104
C341	C	0.816732	0.333312	0.658437
C342	C	1.150066	0.666645	0.991771
C343	C	0.527737	-0.000031	0.305983
C344	C	0.861070	0.333302	0.639317
C345	C	1.194404	0.666636	0.972650
C346	C	0.528247	-0.000045	0.255580
C347	C	0.861581	0.333288	0.588913
C348	C	1.194914	0.666621	0.922246
N349	N	0.572583	-0.000050	0.236456
N350	N	0.905916	0.333283	0.569789
N351	N	1.239249	0.666617	0.903123
C352	C	0.616405	-0.000054	0.267747
C353	C	0.949738	0.333279	0.601080
C354	C	1.283072	0.666612	0.934413
C355	C	0.523582	-0.000027	0.714348
C356	C	0.856915	0.333307	1.047681
C357	C	1.190248	0.666640	1.381014
C358	C	0.523069	-0.000027	0.764762
C359	C	0.856402	0.333307	1.098096
C360	C	1.189735	0.666640	1.431429
C361	C	0.611230	-0.000036	0.776930
C362	C	0.944563	0.333297	1.110263
C363	C	1.277896	0.666630	1.443596
C364	C	0.611742	-0.000040	0.726514
C365	C	0.945075	0.333293	1.059848
C366	C	1.278409	0.666627	1.393181
C367	C	0.567917	-0.000031	0.695224
C368	C	0.901250	0.333302	1.028557
C369	C	1.234583	0.666635	1.361891
C370	C	0.617477	-0.000064	0.161878
C371	C	0.950811	0.333269	0.495211
C372	C	1.284144	0.666602	0.828544
C373	C	0.617986	-0.000071	0.111461
C374	C	0.951319	0.333262	0.444794
C375	C	1.284652	0.666596	0.778127
C376	C	0.529825	-0.000059	0.099298
C377	C	0.863158	0.333275	0.432631
C378	C	1.196492	0.666608	0.765964
C379	C	0.529316	-0.000055	0.149710
C380	C	0.862650	0.333279	0.483043
C381	C	1.195983	0.666612	0.816377
C382	C	0.573147	-0.000056	0.180999
C383	C	0.906480	0.333277	0.514333
C384	C	1.239813	0.666611	0.847666
O385	O	0.491047	-0.000057	0.224296
O386	O	0.824380	0.333276	0.557629
O387	O	1.157713	0.666609	0.890962
O388	O	0.654156	-0.000053	0.246844
O389	O	0.987490	0.333281	0.580177
O390	O	1.320823	0.666614	0.913511
C391	C	0.614355	-0.000041	0.469397
C392	C	0.947688	0.333292	0.802730
C393	C	1.281022	0.666626	1.136064
C394	C	0.570021	-0.000032	0.488518
C395	C	0.903354	0.333301	0.821852
C396	C	1.236687	0.666635	1.155185
C397	C	0.526198	-0.000027	0.457228
C398	C	0.859532	0.333306	0.790561
C399	C	1.192865	0.666639	1.123894
C400	C	0.569508	-0.000032	0.538933
C401	C	0.902841	0.333301	0.872266
C402	C	1.236174	0.666635	1.205599
C403	C	0.613330	-0.000036	0.570223
C404	C	0.946663	0.333297	0.903557
C405	C	1.279996	0.666630	1.236890
C406	C	0.657665	-0.000041	0.551100
C407	C	0.990998	0.333292	0.884433
C408	C	1.324332	0.666626	1.217766
C409	C	0.658177	-0.000045	0.500688
C410	C	0.991511	0.333288	0.834021
C411	C	1.324844	0.666621	1.167354
C412	C	0.481863	-0.000023	0.476351
C413	C	0.815197	0.333310	0.809685
C414	C	1.148530	0.666644	1.143018
C415	C	0.481355	-0.000019	0.526764
C416	C	0.814688	0.333314	0.860097
C417	C	1.148021	0.666648	1.193430
C418	C	0.525177	-0.000023	0.558054
C419	C	0.858510	0.333310	0.891388
C420	C	1.191843	0.666643	1.224721
H421	H	0.321291	-0.000035	-0.144530
H422	H	0.654624	0.333298	0.188804
H423	H	0.987957	0.666632	0.522137
H424	H	0.477317	-0.469089	-0.155019
H425	H	0.810650	-0.135756	0.178315
H426	H	1.143983	0.197578	0.511648
H427	H	0.486964	-0.000028	0.780325
H428	H	0.820297	0.333306	1.113659
H429	H	1.153631	0.666639	1.446992
N430	N	0.470464	-0.631159	-0.161860
N431	N	0.803797	-0.297826	0.171473
N432	N	1.137130	0.035508	0.504807
N433	N	0.440574	-0.660293	-0.146723
N434	N	0.773907	-0.326960	0.186610
N435	N	1.107240	0.006373	0.519943
H436	H	0.416672	-0.679127	-0.170593
H437	H	0.750005	-0.345794	0.162741
H438	H	1.083339	-0.012461	0.496074
N439	N	0.637484	-0.871353	0.005053
N440	N	0.970817	-0.538020	0.338386
N441	N	1.304151	-0.204686	0.671720
N442	N	0.637145	-0.865518	0.049727
N443	N	0.970478	-0.532185	0.383061
N444	N	1.303811	-0.198851	0.716394
H445	H	0.661025	-0.884350	0.073617
H446	H	0.994359	-0.551016	0.406950
H447	H	1.327692	-0.217683	0.740284
H448	H	0.663722	-0.469068	0.031266
H449	H	0.997056	-0.135735	0.364599
H450	H	1.330389	0.197598	0.697932
H451	H	0.117558	-0.000088	0.061861
H452	H	0.450892	0.333245	0.395195
H453	H	0.784225	0.666579	0.728528
H454	H	0.445246	-0.000015	0.542327
H455	H	0.778580	0.333318	0.875660
H456	H	1.111913	0.666651	1.208993
H457	H	0.174750	-0.000029	-0.187180
H458	H	0.508083	0.333304	0.146153
H459	H	0.841417	0.666638	0.479487
H460	H	0.487892	-0.000020	0.688875
H461	H	0.821225	0.333313	1.022208
H462	H	1.154558	0.666647	1.355542
H463	H	0.694889	-0.000056	0.425336
H464	H	1.028223	0.333277	0.758670
H465	H	1.361556	0.666610	1.092003
H466	H	-0.180236	-0.000077	0.020747
H467	H	0.153097	0.333256	0.354080
H468	H	0.486430	0.666590	0.687414
N469	N	0.637471	-0.765805	0.005062
N470	N	0.970804	-0.432472	0.338395
N471	N	1.304137	-0.099139	0.671729
N472	N	0.667019	-0.789125	0.034624
N473	N	1.000353	-0.455791	0.367957
N474	N	1.333686	-0.122458	0.701290
H475	H	0.690888	-0.770296	0.058531
H476	H	1.024221	-0.436963	0.391864
H477	H	1.357555	-0.103630	0.725197
H478	H	0.477310	-0.374362	-0.155018
H479	H	0.810644	-0.041029	0.178315
H480	H	1.143977	0.292304	0.511649
N481	N	0.076824	-0.000039	-0.195335
N482	N	0.410157	0.333295	0.137998
N483	N	0.743490	0.666628	0.471332
N484	N	0.093913	-0.000032	-0.234912
N485	N	0.427246	0.333302	0.098421
N486	N	0.760580	0.666635	0.431755
H487	H	0.071350	-0.000027	-0.266536
H488	H	0.404684	0.333307	0.066798
H489	H	0.738017	0.666640	0.400131
N490	N	0.339401	-0.000060	0.024615
N491	N	0.672734	0.333274	0.357948
N492	N	1.006068	0.666607	0.691282
N493	N	0.349111	-0.035034	0.054066
N494	N	0.682444	0.298299	0.387399
N495	N	1.015777	0.631633	0.720732
H496	H	0.335323	-0.035047	0.086055
H497	H	0.668656	0.298286	0.419388
H498	H	1.001989	0.631619	0.752721
H499	H	0.446177	-0.000018	0.450879
H500	H	0.779510	0.333315	0.784212
H501	H	1.112844	0.666649	1.117545
N502	N	-0.275661	-0.000070	0.030855
N503	N	0.057672	0.333264	0.364189
N504	N	0.391006	0.666597	0.697522
N505	N	-0.302433	0.034897	0.040985
N506	N	0.030901	0.368230	0.374318
N507	N	0.364234	0.701564	0.707652
H508	H	-0.316230	0.034893	0.072969
H509	H	0.017103	0.368227	0.406302
H510	H	0.350436	0.701560	0.739636
H511	H	-0.293777	-0.000051	-0.138273
H512	H	0.039557	0.333282	0.195061
H513	H	0.372890	0.666615	0.528394
N514	N	0.416700	-0.000016	-0.154644
N515	N	0.750034	0.333318	0.178689
N516	N	1.083367	0.666651	0.512023
N517	N	0.388753	-0.000011	-0.193766
N518	N	0.722086	0.333323	0.139567
N519	N	1.055420	0.666656	0.472900
H520	H	0.402539	-0.000001	-0.225757
H521	H	0.735872	0.333332	0.107576
H522	H	1.069205	0.666666	0.440910
N523	N	0.438635	-0.000020	0.293136
N524	N	0.771969	0.333313	0.626469
N525	N	1.105302	0.666647	0.959802
N526	N	0.439095	-0.000025	0.248124
N527	N	0.772428	0.333308	0.581457
N528	N	1.105761	0.666641	0.914790
H529	H	0.407481	-0.000026	0.225546
H530	H	0.740814	0.333307	0.558879
H531	H	1.074148	0.666641	0.892213
H532	H	0.510471	-0.865958	-0.121919
H533	H	0.843804	-0.532624	0.211415
H534	H	1.177137	-0.199291	0.544748
H535	H	0.693347	-0.000047	0.576585
H536	H	1.026680	0.333287	0.909919
H537	H	1.360013	0.666620	1.243252
H538	H	0.653168	-0.000063	0.187348
H539	H	0.986501	0.333270	0.520681
H540	H	1.319835	0.666603	0.854015
N541	N	-0.198338	-0.000042	-0.148389
N542	N	0.134995	0.333291	0.184944
N543	N	0.468328	0.666624	0.518278
N544	N	-0.171561	0.034927	-0.158508
N545	N	0.161773	0.368260	0.174825
N546	N	0.495106	0.701593	0.508159
H547	H	-0.157764	0.034934	-0.190493
H548	H	0.175570	0.368267	0.142841
H549	H	0.508903	0.701600	0.476174
N550	N	0.470463	-0.525621	-0.161875
N551	N	0.803797	-0.192288	0.171458
N552	N	1.137130	0.141045	0.504792
N553	N	0.440902	-0.548950	-0.191419
N554	N	0.774236	-0.215617	0.141914
N555	N	1.107569	0.117716	0.475247
H556	H	0.417005	-0.530130	-0.215302
H557	H	0.750339	-0.196796	0.118031
H558	H	1.083672	0.136537	0.451365
N559	N	0.215489	-0.000096	0.070012
N560	N	0.548822	0.333238	0.403346
N561	N	0.882156	0.666571	0.736679
N562	N	0.198406	-0.000107	0.109592
N563	N	0.531739	0.333226	0.442926
N564	N	0.865073	0.666559	0.776259
H565	H	0.220973	-0.000118	0.141213
H566	H	0.554306	0.333215	0.474547
H567	H	0.887639	0.666548	0.807880
H568	H	0.434827	-0.000047	0.014492
H569	H	0.768160	0.333286	0.347826
H570	H	1.101494	0.666619	0.681159
N571	N	0.657032	-0.000036	0.706986
N572	N	0.990366	0.333298	1.040319
N573	N	1.323699	0.666631	1.373652
N574	N	0.667163	0.034935	0.680217
N575	N	1.000496	0.368269	1.013550
N576	N	1.333830	0.701602	1.346884
H577	H	0.699151	0.034940	0.666427
H578	H	1.032485	0.368274	0.999760
H579	H	1.365818	0.701607	1.333094
N580	N	0.027470	-0.000037	-0.194834
N581	N	0.360804	0.333296	0.138500
N582	N	0.694137	0.666630	0.471833
N583	N	-0.000481	-0.000031	-0.233954
N584	N	0.332852	0.333302	0.099380
N585	N	0.666185	0.666636	0.432713
H586	H	0.013301	-0.000022	-0.265946
H587	H	0.346634	0.333311	0.067387
H588	H	0.679967	0.666644	0.400721
H589	H	0.695819	-0.000065	0.333889
H590	H	1.029152	0.333269	0.667222
H591	H	1.362485	0.666602	1.000555
N592	N	0.655999	-0.000043	0.808890
N593	N	0.989332	0.333290	1.142223
N594	N	1.322665	0.666624	1.475556
N595	N	0.685570	-0.035012	0.807338
N596	N	1.018903	0.298321	1.140671
N597	N	1.352237	0.631655	1.474004
H598	H	0.717187	-0.035014	0.829910
H599	H	1.050520	0.298319	1.163244
H600	H	1.383854	0.631653	1.496577
N601	N	0.437587	-0.000011	0.395036
N602	N	0.770920	0.333323	0.728369
N603	N	1.104253	0.666656	1.061703
N604	N	0.398468	-0.000001	0.367083
N605	N	0.731801	0.333332	0.700417
N606	N	1.065134	0.666665	1.033750
H607	H	0.366474	0.000008	0.380864
H608	H	0.699808	0.333341	0.714197
H609	H	1.033141	0.666675	1.047531
N610	N	0.484023	-0.000060	0.169236
N611	N	0.817356	0.333273	0.502570
N612	N	1.150690	0.666606	0.835903
N613	N	0.444900	-0.000064	0.141290
N614	N	0.778233	0.333269	0.474624
N615	N	1.111566	0.666603	0.807957
H616	H	0.412910	-0.000067	0.155077
H617	H	0.746243	0.333267	0.488410
H618	H	1.079577	0.666600	0.821744
H619	H	0.663725	-0.530995	0.031269
H620	H	0.997059	-0.197661	0.364603
H621	H	1.330392	0.135672	0.697936
H622	H	0.057760	-0.000083	0.062462
H623	H	0.391093	0.333251	0.395795
H624	H	0.724427	0.666584	0.729128
N625	N	-0.074436	-0.000044	-0.193786
N626	N	0.258897	0.333289	0.139548
N627	N	0.592231	0.666622	0.472881
N628	N	-0.119446	-0.000048	-0.193315
N629	N	0.213887	0.333286	0.140018
N630	N	0.547220	0.666619	0.473352
H631	H	-0.142031	-0.000044	-0.224924
H632	H	0.191302	0.333289	0.108409
H633	H	0.524635	0.666623	0.441742
N634	N	-0.037645	-0.000085	0.072582
N635	N	0.295689	0.333249	0.405916
N636	N	0.629022	0.666582	0.739249
N637	N	-0.009695	-0.000090	0.111703
N638	N	0.323638	0.333243	0.445037
N639	N	0.656971	0.666576	0.778370
H640	H	-0.023479	-0.000097	0.143695
H641	H	0.309854	0.333236	0.477028
H642	H	0.643188	0.666570	0.810362
H643	H	0.630595	-0.134142	-0.001859
H644	H	0.963929	0.199191	0.331475
H645	H	1.297262	0.532524	0.664808
H646	H	0.654093	-0.000080	0.095896
H647	H	0.987426	0.333253	0.429229
H648	H	1.320759	0.666587	0.762562
H649	H	0.494146	-0.000057	0.073812
H650	H	0.827480	0.333276	0.407145
H651	H	1.160813	0.666610	0.740478
N652	N	0.637460	-0.234271	0.005020
N653	N	0.970794	0.099062	0.338353
N654	N	1.304127	0.432395	0.671686
N655	N	0.667022	-0.210942	0.034562
N656	N	1.000355	0.122391	0.367896
N657	N	1.333689	0.455725	0.701229
H658	H	0.690918	-0.229762	0.058447
H659	H	1.024251	0.103571	0.391780
H660	H	1.357585	0.436905	0.725114
N661	N	0.703472	-0.000057	0.481168
N662	N	1.036806	0.333276	0.814502
N663	N	1.370139	0.666610	1.147835
N664	N	0.742592	-0.000062	0.509120
N665	N	1.075926	0.333272	0.842453
N666	N	1.409259	0.666605	1.175786
H667	H	0.774585	-0.000070	0.495338
H668	H	1.107918	0.333264	0.828671
H669	H	1.441251	0.666597	1.162005
N670	N	0.670614	-0.368962	0.038108
N671	N	1.003947	-0.035629	0.371441
N672	N	1.337280	0.297704	0.704774
N673	N	0.670324	-0.374803	0.082788
N674	N	1.003657	-0.041469	0.416121
N675	N	1.336990	0.291864	0.749455
H676	H	0.694251	-0.355999	0.106656
H677	H	1.027585	-0.022665	0.439989
H678	H	1.360918	0.310668	0.773323
N679	N	0.503590	-0.765830	-0.128777
N680	N	0.836923	-0.432497	0.204556
N681	N	1.170257	-0.099163	0.537890
N682	N	0.474030	-0.789159	-0.158322
N683	N	0.807364	-0.455826	0.175011
N684	N	1.140697	-0.122493	0.508345
H685	H	0.450131	-0.770339	-0.182203
H686	H	0.783465	-0.437006	0.151130
H687	H	1.116798	-0.103672	0.484463
N688	N	0.503567	-0.234303	-0.128807
N689	N	0.836900	0.099030	0.204526
N690	N	1.170233	0.432363	0.537860
N691	N	0.474001	-0.210988	-0.158355
N692	N	0.807334	0.122346	0.174978
N693	N	1.140668	0.455679	0.508312
H694	H	0.450104	-0.229819	-0.182231
H695	H	0.783437	0.103514	0.151103
H696	H	1.116771	0.436848	0.484436
H697	H	0.510430	-0.134157	-0.121952
H698	H	0.843764	0.199177	0.211382
H699	H	1.177097	0.532510	0.544715
N700	N	0.670578	-0.631144	0.038136
N701	N	1.003912	-0.297811	0.371469
N702	N	1.337245	0.035523	0.704802
N703	N	0.655459	-0.660282	0.068033
N704	N	0.988792	-0.326948	0.401366
N705	N	1.322126	0.006385	0.734699
H706	H	0.679339	-0.679124	0.091914
H707	H	1.012673	-0.345791	0.425247
H708	H	1.346006	-0.012457	0.758580
