data_functionalizedCrystal
_audit_creation_method	'MofGen! by Chris Wilmer'
_symmetry_space_group_name_H-M	'P1'
_symmetry_Int_Tables_number	1
_symmetry_cell_setting	triclinic
loop_
_symmetry_equiv_pos_as_xyz
  x,y,z
_cell_length_a	16.992695
_cell_length_b	14.971486
_cell_length_c	13.448316
_cell_angle_alpha	90.001801
_cell_angle_beta	89.993283
_cell_angle_gamma	92.858824
loop_
_atom_site_label
_atom_site_type_symbol
_atom_site_fract_x
_atom_site_fract_y
_atom_site_fract_z
O1	O	0.102190	-1.194127	-0.082578
O2	O	0.114427	-0.934587	-0.082605
O3	O	-0.005835	-1.063317	-0.082584
O4	O	0.222452	-1.065398	-0.082599
O5	O	-0.005843	-1.063299	0.082800
O6	O	0.114420	-0.934569	0.082779
O7	O	0.102182	-1.194110	0.082806
Cu8	Cu	0.108300	-1.064338	0.097893
Cu9	Cu	0.108309	-1.064359	-0.097692
O10	O	0.222445	-1.065380	0.082785
C11	C	0.113876	-0.901215	0.000083
C12	C	0.112236	-0.801803	0.000073
C13	C	-0.035054	-1.060631	0.000108
C14	C	-0.122105	-1.052644	0.000107
C15	C	0.102733	-1.227482	0.000115
C16	C	0.104373	-1.326894	0.000119
C17	C	-0.172274	-1.129708	0.000116
C18	C	-0.254067	-1.122198	0.000106
C19	C	-0.285691	-1.037623	0.000093
C20	C	-0.235517	-0.960553	0.000081
C21	C	-0.153724	-0.968064	0.000084
C22	C	-0.529318	-1.006493	0.000076
C23	C	-0.611117	-0.998988	0.000076
C24	C	-0.629662	-1.160634	0.000099
C25	C	-0.547867	-1.168138	0.000108
C26	C	-0.497700	-1.091068	0.000090
N27	N	-0.369297	-1.029945	0.000086
N28	N	-0.414095	-1.098747	0.000091
C29	C	0.251664	-1.068066	0.000091
C30	C	0.338715	-1.076053	0.000085
N31	N	0.108294	-1.064329	0.235457
C32	C	0.182887	-0.749541	0.000070
C33	C	0.181341	-0.656133	0.000085
C34	C	0.109144	-0.614988	0.000096
C35	C	0.038488	-0.667257	0.000102
C36	C	0.040034	-0.760663	0.000095
C37	C	0.035269	-0.472568	0.000116
C38	C	0.033723	-0.379155	0.000122
C39	C	0.176577	-0.368038	0.000106
C40	C	0.178123	-0.461445	0.000099
C41	C	0.107466	-0.513707	0.000103
N42	N	0.108310	-1.064374	-0.235257
C43	C	0.055064	-1.121351	0.287507
C44	C	0.055063	-1.121357	0.391611
C45	C	0.108297	-1.064344	0.443662
C46	C	0.161530	-1.007316	0.391605
C47	C	0.161526	-1.007307	0.287504
C48	C	0.161535	-1.007341	0.608585
C49	C	0.161540	-1.007352	0.712694
C50	C	0.055072	-1.121392	0.712692
C51	C	0.055068	-1.121382	0.608591
C52	C	0.108302	-1.064355	0.556541
H53	H	-0.146533	-1.198578	0.000132
H54	H	0.204881	-0.960901	0.566209
H55	H	-0.294912	-1.184952	0.000115
H56	H	-0.017497	-0.803213	0.000097
H57	H	0.204888	-0.960925	0.755069
H58	H	0.241679	-0.783034	0.000060
H59	H	0.011718	-1.167781	0.245134
C60	C	0.259057	-0.598650	0.000078
H61	H	0.302276	-0.636532	0.000058
H62	H	0.261426	-0.561984	0.057754
H63	H	0.261423	-0.561978	-0.057599
C64	C	0.220082	-0.944587	0.230249
H65	H	0.251792	-0.910639	0.276157
H66	H	0.191819	-0.905333	0.189650
H67	H	0.252773	-0.979098	0.189628
C68	C	-0.042451	-0.530054	0.000109
H69	H	-0.085671	-0.492174	0.000104
H70	H	-0.044827	-0.566731	0.057775
H71	H	-0.044807	-0.566714	-0.057578
C72	C	-0.098539	-0.883293	0.000077
H73	H	-0.129086	-0.831847	0.000078
H74	H	-0.066241	-0.882871	-0.057596
H75	H	-0.066253	-0.882856	0.057758
H76	H	0.236912	-0.494942	0.000080
C77	C	-0.003488	-1.184093	0.551335
H78	H	-0.035197	-1.218052	0.597242
H79	H	0.024773	-1.223337	0.510711
H80	H	-0.036180	-1.149571	0.510740
H81	H	-0.522126	-1.237008	0.000118
C82	C	-0.003490	-1.184113	0.769942
H83	H	0.004127	-1.175946	0.839396
H84	H	0.005111	-1.244419	0.752875
H85	H	-0.055842	-1.170653	0.752888
C86	C	-0.645905	-0.905954	0.000063
H87	H	-0.701803	-0.912522	0.000076
H88	H	-0.628690	-0.873981	-0.057615
H89	H	-0.628694	-0.873970	0.057738
C90	C	0.254300	-0.310559	0.000107
H91	H	0.297519	-0.348441	0.000087
H92	H	0.256668	-0.273893	0.057784
H93	H	0.256665	-0.273887	-0.057569
C94	C	-0.045692	-0.333897	0.000140
H95	H	-0.087551	-0.378398	0.000156
H96	H	-0.049265	-0.297689	-0.057530
H97	H	-0.049259	-0.297691	0.057823
C98	C	-0.684846	-1.245403	0.000103
H99	H	-0.738088	-1.228821	0.000091
H100	H	-0.675260	-1.279840	0.057777
H101	H	-0.675243	-1.279842	-0.057576
H102	H	0.204871	-0.960891	0.433991
H103	H	-0.261271	-0.891690	0.000065
C104	C	-0.474144	-0.921719	0.000075
H105	H	-0.504696	-0.870277	0.000081
H106	H	-0.441843	-0.921287	-0.057595
H107	H	-0.441861	-0.921286	0.057758
H108	H	-0.020297	-0.633749	0.000126
H109	H	0.011718	-1.167788	0.433989
