data_functionalizedCrystal
_audit_creation_method	'MofGen! by Chris Wilmer'
_symmetry_space_group_name_H-M	'P1'
_symmetry_Int_Tables_number	1
_symmetry_cell_setting	triclinic
loop_
_symmetry_equiv_pos_as_xyz
  x,y,z
_cell_length_a	10.540535
_cell_length_b	14.044220
_cell_length_c	13.101039
_cell_angle_alpha	86.332523
_cell_angle_beta	86.607812
_cell_angle_gamma	91.143740
loop_
_atom_site_label
_atom_site_type_symbol
_atom_site_fract_x
_atom_site_fract_y
_atom_site_fract_z
O1	O	1.705801	-0.128473	-0.085234
O2	O	2.039134	0.204860	0.248099
O3	O	2.372467	0.538193	0.581432
O4	O	1.337661	-0.141073	-0.085233
O5	O	1.670994	0.192260	0.248100
O6	O	2.004327	0.525593	0.581433
O7	O	1.516204	0.003248	-0.085224
O8	O	1.849537	0.336581	0.248110
O9	O	2.182871	0.669915	0.581443
O10	O	1.527257	-0.272795	-0.085244
O11	O	1.860590	0.060539	0.248089
O12	O	2.193924	0.393872	0.581423
O13	O	1.503396	-0.007124	0.085206
O14	O	1.836729	0.326209	0.418539
O15	O	2.170062	0.659543	0.751872
O16	O	1.324852	-0.151446	0.085196
O17	O	1.658186	0.181888	0.418529
O18	O	1.991519	0.515221	0.751863
O19	O	1.692992	-0.138845	0.085195
O20	O	2.026326	0.194488	0.418528
O21	O	2.359659	0.527821	0.751861
Zn22	Zn	1.506889	-0.146792	0.112255
Zn23	Zn	1.840222	0.186541	0.445588
Zn24	Zn	2.173555	0.519874	0.778921
Zn25	Zn	1.523764	-0.133126	-0.112293
Zn26	Zn	1.857098	0.200207	0.221040
Zn27	Zn	2.190431	0.533540	0.554374
O28	O	1.514449	-0.283167	0.085185
O29	O	1.847782	0.050167	0.418519
O30	O	2.181115	0.383500	0.751852
C31	C	1.283858	-0.145315	-0.000018
C32	C	1.617191	0.188018	0.333315
C33	C	1.950525	0.521351	0.666648
C34	C	1.142624	-0.142491	-0.000018
C35	C	1.475957	0.190842	0.333316
C36	C	1.809291	0.524175	0.666649
C37	C	1.504962	0.033409	-0.000009
C38	C	1.838296	0.366742	0.333325
C39	C	2.171629	0.700076	0.666658
C40	C	1.490532	0.138732	-0.000007
C41	C	1.823866	0.472066	0.333326
C42	C	2.157199	0.805399	0.666659
C43	C	1.746795	-0.134603	-0.000022
C44	C	2.080129	0.198730	0.333311
C45	C	2.413462	0.532063	0.666644
C46	C	1.888030	-0.137427	-0.000030
C47	C	2.221363	0.195906	0.333303
C48	C	2.554696	0.529240	0.666637
C49	C	1.935353	-0.242799	-0.000035
C50	C	2.268687	0.090534	0.333298
C51	C	2.602020	0.423867	0.666631
C52	C	2.082225	-0.245795	0.000358
C53	C	2.415558	0.087538	0.333691
C54	C	2.748892	0.420871	0.667024
C55	C	2.085210	-0.095239	0.097115
C56	C	2.418544	0.238095	0.430448
C57	C	2.751877	0.571428	0.763782
C58	C	1.938213	-0.093001	0.097190
C59	C	2.271546	0.240332	0.430524
C60	C	2.604879	0.573666	0.763857
C61	C	1.952723	-0.079672	-0.096626
C62	C	2.286056	0.253661	0.236707
C63	C	2.619389	0.586995	0.570040
C64	C	2.099657	-0.084468	-0.097897
C65	C	2.432991	0.248865	0.235436
C66	C	2.766324	0.582199	0.568770
C67	C	1.525691	-0.313328	-0.000032
C68	C	1.859024	0.020006	0.333301
C69	C	2.192357	0.353339	0.666635
C70	C	1.540121	-0.418650	-0.000040
C71	C	1.873455	-0.085317	0.333293
C72	C	2.206788	0.248016	0.666627
N73	N	1.495381	-0.156118	0.265503
N74	N	1.828714	0.177215	0.598836
N75	N	2.162047	0.510548	0.932169
C76	C	1.464153	0.331573	-0.000022
C77	C	1.797486	0.664906	0.333311
C78	C	2.130819	0.998239	0.666645
C79	C	1.566495	0.388515	-0.000025
C80	C	1.899829	0.721848	0.333308
C81	C	2.233162	1.055181	0.666641
C82	C	1.551817	0.495818	-0.000034
C83	C	1.885151	0.829151	0.333300
C84	C	2.218484	1.162484	0.666633
C85	C	1.478829	0.224260	-0.000014
C86	C	1.812162	0.557593	0.333320
C87	C	2.145495	0.890926	0.666653
N88	N	1.535281	-0.123793	-0.265541
N89	N	1.868615	0.209540	0.067792
N90	N	2.201948	0.542874	0.401126
C91	C	1.479725	-0.168815	0.474544
C92	C	1.813058	0.164518	0.807878
C93	C	2.146391	0.497851	1.141211
C94	C	1.550933	-0.111099	0.525424
C95	C	1.884267	0.222234	0.858757
C96	C	2.217600	0.555568	1.192090
C97	C	1.542222	-0.118164	0.641742
C98	C	1.875556	0.215170	0.975075
C99	C	2.208889	0.548503	1.308408
C100	C	1.488434	-0.161752	0.358216
C101	C	1.821768	0.171582	0.691549
C102	C	2.155101	0.504915	1.024882
H103	H	2.120992	-0.283131	-0.069261
H104	H	2.454326	0.050203	0.264073
H105	H	2.787659	0.383536	0.597406
H106	H	1.365518	0.363409	-0.000024
H107	H	1.698852	0.696742	0.333309
H108	H	2.032185	1.030075	0.666643
H109	H	1.665143	0.356681	-0.000095
H110	H	1.998476	0.690015	0.333239
H111	H	2.331809	1.023348	0.666572
Cl112	Cl	1.900666	-0.123406	-0.210329
Cl113	Cl	2.233999	0.209927	0.123005
Cl114	Cl	2.567333	0.543261	0.456338
H115	H	1.618440	-0.056381	0.481625
H116	H	1.951774	0.276952	0.814958
H117	H	2.285107	0.610285	1.148292
H118	H	1.412224	-0.223531	0.518338
H119	H	1.745558	0.109803	0.851671
H120	H	2.078891	0.443136	1.185004
Cl121	Cl	2.130196	-0.158370	0.209140
Cl122	Cl	2.463530	0.174963	0.542474
Cl123	Cl	2.796863	0.508296	0.875807
H124	H	1.890694	-0.286820	0.069510
H125	H	2.224027	0.046514	0.402843
H126	H	2.557361	0.379847	0.736177
Cl127	Cl	1.884954	-0.298733	-0.107565
Cl128	Cl	2.218287	0.034601	0.225769
Cl129	Cl	2.551620	0.367934	0.559102
Cl130	Cl	1.873343	-0.155285	0.209709
Cl131	Cl	2.206676	0.178048	0.543043
Cl132	Cl	2.540009	0.511382	0.876376
Cl133	Cl	2.124505	-0.316254	0.108483
Cl134	Cl	2.457838	0.017079	0.441816
Cl135	Cl	2.791171	0.350413	0.775149
H136	H	2.124628	-0.019398	0.100458
H137	H	2.457961	0.313936	0.433791
H138	H	2.791294	0.647269	0.767124
Cl139	Cl	1.890106	0.025863	0.103648
Cl140	Cl	2.223439	0.359196	0.436981
Cl141	Cl	2.556773	0.692530	0.770314
H142	H	2.137571	-0.118781	-0.169757
H143	H	2.470905	0.214553	0.163576
H144	H	2.804238	0.547886	0.496910
H145	H	1.922764	-0.002089	-0.097563
H146	H	2.256097	0.331245	0.235771
H147	H	2.589430	0.664578	0.569104
Cl148	Cl	2.164290	0.032503	-0.107393
Cl149	Cl	2.497623	0.365837	0.225940
Cl150	Cl	2.830957	0.699170	0.559274
