data_functionalizedCrystal
_audit_creation_method	'MofGen! by Chris Wilmer'
_symmetry_space_group_name_H-M	'P1'
_symmetry_Int_Tables_number	1
_symmetry_cell_setting	triclinic
loop_
_symmetry_equiv_pos_as_xyz
  x,y,z
_cell_length_a	29.839134
_cell_length_b	29.839131
_cell_length_c	11.169409
_cell_angle_alpha	89.952226
_cell_angle_beta	89.967100
_cell_angle_gamma	90.030088
loop_
_atom_site_label
_atom_site_type_symbol
_atom_site_fract_x
_atom_site_fract_y
_atom_site_fract_z
Zn1	Zn	0.686787	-0.178878	-0.678833
Zn2	Zn	1.186787	0.321122	-0.178833
Zn3	Zn	0.686713	-0.254020	-0.478095
Zn4	Zn	1.186713	0.245980	0.021905
Zn5	Zn	0.611656	-0.178898	-0.478121
Zn6	Zn	1.111656	0.321102	0.021879
Zn7	Zn	0.611626	-0.253975	-0.678694
Zn8	Zn	1.111626	0.246025	-0.178694
O9	O	0.649196	-0.216443	-0.578436
O10	O	1.149196	0.283557	-0.078436
O11	O	0.749645	-0.188857	-0.652251
O12	O	1.249645	0.311143	-0.152251
O13	O	0.676738	-0.244082	-0.310149
O14	O	1.176738	0.255918	0.189851
O15	O	0.621666	-0.116028	-0.504815
O16	O	1.121666	0.383972	-0.004815
O17	O	0.749590	-0.244063	-0.504771
O18	O	1.249590	0.255937	-0.004771
O19	O	0.676865	-0.116014	-0.652276
O20	O	1.176865	0.383986	-0.152276
O21	O	0.621594	-0.188890	-0.310168
O22	O	1.121594	0.311110	0.189832
O23	O	0.548785	-0.188847	-0.504681
O24	O	1.048785	0.311153	-0.004681
O25	O	0.621615	-0.243987	-0.846663
O26	O	1.121615	0.256013	-0.346663
O27	O	0.548763	-0.244006	-0.652041
O28	O	1.048763	0.255994	-0.152041
O29	O	0.676836	-0.188813	-0.846764
O30	O	1.176836	0.311187	-0.346764
O31	O	0.676709	-0.316881	-0.504637
O32	O	1.176709	0.183119	-0.004637
O33	O	0.621543	-0.316848	-0.652016
O34	O	1.121543	0.183152	-0.152016
C35	C	0.532473	-0.216424	-0.578349
C36	C	1.032473	0.283576	-0.078349
C37	C	0.482539	-0.216427	-0.578341
C38	C	0.982539	0.283573	-0.078341
C39	C	0.172893	-0.245207	-0.655072
C40	C	0.672893	0.254793	-0.155072
C41	C	-0.014780	-0.245219	-0.655126
C42	C	0.485220	0.254781	-0.155126
O43	O	-0.039046	-0.269668	-0.720314
O44	O	0.460954	0.230332	-0.220314
N45	N	-0.038246	-0.216459	-0.578526
N46	N	0.461754	0.283541	-0.078526
C47	C	-0.014792	-0.187692	-0.501914
C48	C	0.485208	0.312308	-0.001914
O49	O	-0.039058	-0.163227	-0.436771
O50	O	0.460942	0.336773	0.063229
C51	C	0.172880	-0.187678	-0.501867
C52	C	0.672880	0.312322	-0.001867
C53	C	0.196345	-0.216443	-0.578463
C54	C	0.696345	0.283557	-0.078463
C55	C	0.196358	-0.273969	-0.731663
C56	C	0.696358	0.226031	-0.231663
C57	C	0.243273	-0.273967	-0.731644
C58	C	0.743273	0.226033	-0.231644
C59	C	0.266724	-0.245203	-0.655035
C60	C	0.766724	0.254797	-0.155035
C61	C	0.243260	-0.216441	-0.578444
C62	C	0.743260	0.283559	-0.078444
C63	C	0.196334	-0.158908	-0.425261
C64	C	0.696334	0.341092	0.074739
C65	C	0.243255	-0.158906	-0.425259
C66	C	0.743255	0.341094	0.074741
C67	C	0.266719	-0.187671	-0.501855
C68	C	0.766719	0.312329	-0.001855
C69	C	0.313627	-0.187675	-0.501816
C70	C	0.813627	0.312325	-0.001816
N71	N	0.337093	-0.216435	-0.578416
N72	N	0.837093	0.283565	-0.078416
C73	C	0.313642	-0.245199	-0.655025
C74	C	0.813642	0.254801	-0.155025
C75	C	-0.113323	-0.187702	-0.501942
C76	C	0.386677	0.312298	-0.001942
C77	C	-0.160240	-0.187707	-0.501951
C78	C	0.339760	0.312293	-0.001951
C79	C	-0.160225	-0.245233	-0.655166
C80	C	0.339775	0.254767	-0.155166
C81	C	-0.113306	-0.245231	-0.655149
C82	C	0.386694	0.254769	-0.155149
C83	C	-0.089856	-0.216462	-0.578541
C84	C	0.410144	0.283538	-0.078541
C85	C	0.412168	-0.245194	-0.654979
C86	C	0.912168	0.254806	-0.154979
C87	C	0.459088	-0.245191	-0.654950
C88	C	0.959088	0.254809	-0.154950
C89	C	0.459068	-0.187662	-0.501741
C90	C	0.959068	0.312338	-0.001741
C91	C	0.412152	-0.187667	-0.501765
C92	C	0.912152	0.312333	-0.001765
C93	C	0.388704	-0.216434	-0.578394
C94	C	0.888704	0.283566	-0.078394
O95	O	0.337922	-0.163235	-0.436671
O96	O	0.837922	0.336765	0.063329
O97	O	0.337916	-0.269654	-0.720177
O98	O	0.837916	0.230346	-0.220177
C99	C	0.125978	-0.245209	-0.655091
C100	C	0.625978	0.254791	-0.155091
C101	C	0.102514	-0.216446	-0.578500
C102	C	0.602514	0.283554	-0.078500
C103	C	0.125965	-0.187682	-0.501891
C104	C	0.625965	0.312318	-0.001891
C105	C	0.055596	-0.216450	-0.578510
C106	C	0.555596	0.283550	-0.078510
C107	C	0.032145	-0.245214	-0.655120
C108	C	0.532145	0.254786	-0.155120
C109	C	0.055611	-0.273974	-0.731719
C110	C	0.555611	0.226026	-0.231719
C111	C	0.102527	-0.273973	-0.731700
C112	C	0.602527	0.226027	-0.231700
C113	C	0.102498	-0.158922	-0.425292
C114	C	0.602498	0.341078	0.074708
C115	C	0.055583	-0.158926	-0.425316
C116	C	0.555583	0.341074	0.074684
C117	C	0.032131	-0.187691	-0.501925
C118	C	0.532131	0.312309	-0.001925
C119	C	0.649127	-0.333166	-0.578335
C120	C	1.149127	0.166834	-0.078335
C121	C	0.649139	-0.383100	-0.578332
C122	C	1.149139	0.116900	-0.078332
C123	C	0.677931	-0.692701	-0.655329
C124	C	1.177931	-0.192701	-0.155329
C125	C	0.677980	-0.880374	-0.655401
C126	C	1.177980	-0.380374	-0.155401
O127	O	0.702393	-0.904603	-0.720791
O128	O	1.202393	-0.404603	-0.220791
N129	N	0.649272	-0.903885	-0.578569
N130	N	1.149272	-0.403885	-0.078569
C131	C	0.620547	-0.880475	-0.501719
C132	C	1.120547	-0.380475	-0.001719
O133	O	0.596127	-0.904779	-0.436380
O134	O	1.096127	-0.404779	0.063620
C135	C	0.620497	-0.692803	-0.501654
C136	C	1.120497	-0.192803	-0.001654
C137	C	0.649210	-0.669294	-0.578482
C138	C	1.149210	-0.169294	-0.078482
C139	C	0.706642	-0.669192	-0.732151
C140	C	1.206642	-0.169192	-0.232151
C141	C	0.706631	-0.622277	-0.732128
C142	C	1.206631	-0.122277	-0.232128
C143	C	0.677910	-0.598870	-0.655282
C144	C	1.177910	-0.098870	-0.155282
C145	C	0.649199	-0.622379	-0.578459
C146	C	1.149199	-0.122379	-0.078459
C147	C	0.591770	-0.669393	-0.424812
C148	C	1.091770	-0.169393	0.075188
C149	C	0.591759	-0.622472	-0.424804
C150	C	1.091759	-0.122472	0.075196
C151	C	0.620473	-0.598964	-0.501632
C152	C	1.120473	-0.098964	-0.001632
C153	C	0.620467	-0.552056	-0.501589
C154	C	1.120467	-0.052056	-0.001589
N155	N	0.649175	-0.528545	-0.578421
N156	N	1.149175	-0.028545	-0.078421
C157	C	0.677897	-0.551952	-0.655267
C158	C	1.177897	-0.051952	-0.155267
C159	C	0.620577	-0.979005	-0.501757
C160	C	1.120577	-0.479005	-0.001757
C161	C	0.620590	-1.025923	-0.501772
C162	C	1.120590	-0.525923	-0.001772
C163	C	0.678022	-1.025819	-0.655455
C164	C	1.178022	-0.525819	-0.155455
C165	C	0.678011	-0.978900	-0.655434
C166	C	1.178011	-0.478900	-0.155434
C167	C	0.649285	-0.955494	-0.578589
C168	C	1.149285	-0.455494	-0.078589
C169	C	0.677872	-0.453426	-0.655211
C170	C	1.177872	0.046574	-0.155211
C171	C	0.677860	-0.406507	-0.655178
C172	C	1.177860	0.093493	-0.155178
C173	C	0.620427	-0.406615	-0.501500
C174	C	1.120427	0.093385	-0.001500
C175	C	0.620440	-0.453530	-0.501528
C176	C	1.120440	0.046470	-0.001528
C177	C	0.649164	-0.476935	-0.578394
C178	C	1.149164	0.023065	-0.078394
O179	O	0.596063	-0.527799	-0.436243
O180	O	1.096063	-0.027799	0.063757
O181	O	0.702306	-0.527640	-0.720616
O182	O	1.202306	-0.027640	-0.220616
C183	C	0.677942	-0.739616	-0.655352
C184	C	1.177942	-0.239616	-0.155352
C185	C	0.649232	-0.763125	-0.578529
C186	C	1.149232	-0.263125	-0.078529
C187	C	0.620510	-0.739718	-0.501683
C188	C	1.120510	-0.239718	-0.001683
C189	C	0.649245	-0.810043	-0.578544
C190	C	1.149245	-0.310043	-0.078544
C191	C	0.677966	-0.833450	-0.655390
C192	C	1.177966	-0.333450	-0.155390
C193	C	0.706674	-0.809939	-0.732222
C194	C	1.206674	-0.309939	-0.232222
C195	C	0.706664	-0.763023	-0.732198
C196	C	1.206664	-0.263023	-0.232198
C197	C	0.591802	-0.763229	-0.424851
C198	C	1.091802	-0.263229	0.075149
C199	C	0.591815	-0.810145	-0.424880
C200	C	1.091815	-0.310145	0.075120
C201	C	0.620537	-0.833551	-0.501726
C202	C	1.120537	-0.333551	-0.001726
C203	C	0.766374	-0.216462	-0.578523
C204	C	1.266374	0.283538	-0.078523
C205	C	0.816308	-0.216471	-0.578561
C206	C	1.316308	0.283529	-0.078561
C207	C	0.649230	-0.216393	-0.891478
C208	C	1.149230	0.283607	-0.391478
C209	C	0.649245	-0.216372	-1.024879
C210	C	1.149245	0.283628	-0.524879
C211	C	0.649277	-0.099265	-0.578564
C212	C	1.149277	0.400735	-0.078564
C213	C	0.649311	-0.049330	-0.578618
C214	C	1.149311	0.450670	-0.078618
C215	C	0.649187	-0.216460	-0.266611
C216	C	1.149187	0.283540	0.233389
C217	C	0.649260	-0.216355	-0.133212
C218	C	1.149260	0.283645	0.366788
H219	H	0.036509	-0.297397	-0.794094
H220	H	0.536509	0.202603	-0.294094
H221	H	0.597063	-0.472672	-0.438959
H222	H	1.097063	0.027328	0.061041
H223	H	0.393081	-0.268618	-0.717380
H224	H	0.893081	0.231382	-0.217380
H225	H	0.597043	-0.387550	-0.438928
H226	H	1.097043	0.112450	0.061072
F227	F	0.127493	-0.304589	-0.813226
F228	F	0.627493	0.195411	-0.313226
H229	H	0.121587	-0.135498	-0.362906
H230	H	0.621587	0.364502	0.137094
H231	H	0.597184	-0.959951	-0.439178
H232	H	1.097184	-0.459951	0.060822
F233	F	0.268210	-0.128285	-0.343722
F234	F	0.768210	0.371715	0.156278
F235	F	0.737224	-0.738010	-0.813971
F236	F	1.237224	-0.238010	-0.313971
H237	H	0.036482	-0.135503	-0.362931
H238	H	0.536482	0.364497	0.137069
F239	F	0.737243	-0.834858	-0.814003
F240	F	1.237243	-0.334858	-0.314003
H241	H	-0.094205	-0.268654	-0.717522
H242	H	0.405795	0.231346	-0.217522
H243	H	-0.094234	-0.164275	-0.439553
H244	H	0.405766	0.335725	0.060447
H245	H	0.393047	-0.164245	-0.439392
H246	H	0.893047	0.335755	0.060608
H247	H	0.568413	-0.744175	-0.362275
H248	H	1.068413	-0.244175	0.137725
H249	H	0.568389	-0.688526	-0.362249
H250	H	1.068389	-0.188526	0.137751
F251	F	0.268240	-0.304582	-0.813174
F252	F	0.768240	0.195418	-0.313174
H253	H	0.478170	-0.164245	-0.439364
H254	H	0.978170	0.335755	0.060636
F255	F	0.708423	-0.381490	-0.736950
F256	F	1.208423	0.118510	-0.236950
F257	F	0.561184	-0.597565	-0.343014
F258	F	1.061184	-0.097565	0.156986
F259	F	0.561255	-0.835159	-0.343097
F260	F	1.061255	-0.335159	0.156903
F261	F	0.708590	-1.050738	-0.737241
F262	F	1.208590	-0.550738	-0.237241
F263	F	0.708445	-0.478329	-0.737019
F264	F	1.208445	0.021671	-0.237019
H265	H	0.478190	-0.268616	-0.717325
H266	H	0.978190	0.231384	-0.217325
H267	H	0.730011	-0.603139	-0.794691
H268	H	1.230011	-0.103139	-0.294691
F269	F	0.737212	-0.694097	-0.813954
F270	F	1.237212	-0.194097	-0.313954
H271	H	0.701391	-0.959763	-0.717994
H272	H	1.201391	-0.459763	-0.217994
H273	H	0.177269	-0.297393	-0.794054
H274	H	0.677269	0.202607	-0.294054
F275	F	0.171371	-0.128290	-0.343742
F276	F	0.671371	0.371710	0.156258
H277	H	0.597213	-1.045060	-0.439198
H278	H	1.097213	-0.545060	0.060802
H279	H	-0.179341	-0.164288	-0.439567
H280	H	0.320659	0.335712	0.060433
F281	F	-0.185191	-0.275845	-0.736704
F282	F	0.314809	0.224155	-0.236704
