data_functionalizedCrystal
_audit_creation_method	'MofGen! by Chris Wilmer'
_symmetry_space_group_name_H-M	'P1'
_symmetry_Int_Tables_number	1
_symmetry_cell_setting	triclinic
loop_
_symmetry_equiv_pos_as_xyz
  x,y,z
_cell_length_a	21.395362
_cell_length_b	17.640280
_cell_length_c	21.395355
_cell_angle_alpha	101.215078
_cell_angle_beta	90.043940
_cell_angle_gamma	78.812025
loop_
_atom_site_label
_atom_site_type_symbol
_atom_site_fract_x
_atom_site_fract_y
_atom_site_fract_z
Zn1	Zn	1.008318	-0.314390	0.304290
Zn2	Zn	1.258318	-0.064390	0.554290
Zn3	Zn	1.508318	0.185610	0.804290
Zn4	Zn	1.758318	0.435610	1.054290
Zn5	Zn	1.029429	-0.446530	0.178373
Zn6	Zn	1.279429	-0.196530	0.428373
Zn7	Zn	1.529429	0.053470	0.678373
Zn8	Zn	1.779429	0.303470	0.928373
Zn9	Zn	0.903539	-0.314427	0.199486
Zn10	Zn	1.153539	-0.064427	0.449486
Zn11	Zn	1.403539	0.185573	0.699486
Zn12	Zn	1.653539	0.435573	0.949486
Zn13	Zn	0.924713	-0.446546	0.283075
Zn14	Zn	1.174713	-0.196546	0.533075
Zn15	Zn	1.424713	0.053454	0.783075
Zn16	Zn	1.674713	0.303454	1.033075
O17	O	0.966500	-0.380473	0.241306
O18	O	1.216500	-0.130473	0.491306
O19	O	1.466500	0.119527	0.741306
O20	O	1.716500	0.369527	0.991306
O21	O	1.098793	-0.331896	0.287630
O22	O	1.348793	-0.081896	0.537630
O23	O	1.598793	0.168104	0.787630
O24	O	1.848793	0.418104	1.037630
O25	O	1.012702	-0.429015	0.093494
O26	O	1.262702	-0.179015	0.343494
O27	O	1.512702	0.070985	0.593494
O28	O	1.762702	0.320985	0.843494
O29	O	0.899742	-0.203828	0.231102
O30	O	1.149742	0.046172	0.481102
O31	O	1.399742	0.296172	0.731102
O32	O	1.649742	0.546172	0.981102
O33	O	1.114303	-0.428979	0.195119
O34	O	1.364303	-0.178979	0.445119
O35	O	1.614303	0.071021	0.695119
O36	O	1.864303	0.321021	0.945119
O37	O	0.976723	-0.203801	0.308102
O38	O	1.226723	0.046199	0.558102
O39	O	1.476723	0.296199	0.808102
O40	O	1.726723	0.546199	1.058102
O41	O	0.920212	-0.331959	0.109006
O42	O	1.170212	-0.081959	0.359006
O43	O	1.420212	0.168041	0.609006
O44	O	1.670212	0.418041	0.859006
O45	O	0.818673	-0.331975	0.210531
O46	O	1.068673	-0.081975	0.460531
O47	O	1.318673	0.168025	0.710531
O48	O	1.568673	0.418025	0.960531
O49	O	0.935830	-0.429007	0.373569
O50	O	1.185830	-0.179007	0.623569
O51	O	1.435830	0.070993	0.873569
O52	O	1.685830	0.320993	1.123569
O53	O	0.834230	-0.429043	0.271944
O54	O	1.084230	-0.179043	0.521944
O55	O	1.334230	0.070957	0.771944
O56	O	1.584230	0.320957	1.021944
O57	O	0.997254	-0.331912	0.389155
O58	O	1.247254	-0.081912	0.639155
O59	O	1.497254	0.168088	0.889155
O60	O	1.747254	0.418088	1.139155
O61	O	1.033234	-0.557126	0.174548
O62	O	1.283234	-0.307126	0.424548
O63	O	1.533234	-0.057126	0.674548
O64	O	1.783234	0.192874	0.924548
O65	O	0.956300	-0.557138	0.251472
O66	O	1.206300	-0.307138	0.501472
O67	O	1.456300	-0.057138	0.751472
O68	O	1.706300	0.192862	1.001472
C69	C	0.803719	-0.380515	0.241227
C70	C	1.053719	-0.130515	0.491227
C71	C	1.303719	0.119485	0.741227
C72	C	1.553719	0.369485	0.991227
C73	C	0.734083	-0.380552	0.241204
C74	C	0.984083	-0.130552	0.491204
C75	C	1.234083	0.119448	0.741204
C76	C	1.484083	0.369448	0.991204
C77	C	0.709497	-0.431162	0.273111
C78	C	0.959497	-0.181162	0.523111
C79	C	1.209497	0.068838	0.773111
C80	C	1.459497	0.318838	1.023111
C81	C	0.644059	-0.431143	0.273143
C82	C	0.894059	-0.181143	0.523143
C83	C	1.144059	0.068857	0.773143
C84	C	1.394059	0.318857	1.023143
C85	C	0.603210	-0.380521	0.241254
C86	C	0.853210	-0.130521	0.491254
C87	C	1.103210	0.119479	0.741254
C88	C	1.353210	0.369479	0.991254
C89	C	0.627802	-0.329901	0.209346
C90	C	0.877802	-0.079901	0.459346
C91	C	1.127802	0.170099	0.709346
C92	C	1.377802	0.420099	0.959346
C93	C	0.693239	-0.329917	0.209321
C94	C	0.943239	-0.079917	0.459321
C95	C	1.193239	0.170083	0.709321
C96	C	1.443239	0.420083	0.959321
C97	C	0.498463	-0.374155	0.185867
C98	C	0.748463	-0.124155	0.435867
C99	C	0.998463	0.125845	0.685867
C100	C	1.248463	0.375845	0.935867
C101	C	0.433029	-0.374145	0.185890
C102	C	0.683029	-0.124145	0.435890
C103	C	0.933029	0.125855	0.685890
C104	C	1.183029	0.375855	0.935890
C105	C	0.401381	-0.380470	0.241331
C106	C	0.651381	-0.130470	0.491331
C107	C	0.901381	0.119530	0.741331
C108	C	1.151381	0.369530	0.991331
C109	C	0.435178	-0.386821	0.296749
C110	C	0.685178	-0.136821	0.546749
C111	C	0.935178	0.113179	0.796749
C112	C	1.185178	0.363179	1.046749
C113	C	0.500615	-0.386836	0.296724
C114	C	0.750615	-0.136836	0.546724
C115	C	1.000615	0.113164	0.796724
C116	C	1.250615	0.363164	1.046724
C117	C	0.532254	-0.380499	0.241278
C118	C	0.782254	-0.130499	0.491278
C119	C	1.032254	0.119501	0.741278
C120	C	1.282254	0.369501	0.991278
C121	C	0.305840	-0.431062	0.273275
C122	C	0.555840	-0.181062	0.523275
C123	C	0.805840	0.068938	0.773275
C124	C	1.055840	0.318938	1.023275
C125	C	0.240399	-0.431037	0.273308
C126	C	0.490399	-0.181037	0.523308
C127	C	0.740399	0.068963	0.773308
C128	C	0.990399	0.318963	1.023308
C129	C	0.224144	-0.329800	0.209505
C130	C	0.474144	-0.079800	0.459505
C131	C	0.724144	0.170200	0.709505
C132	C	0.974144	0.420200	0.959505
C133	C	0.289583	-0.329820	0.209478
C134	C	0.539583	-0.079820	0.459478
C135	C	0.789583	0.170180	0.709478
C136	C	1.039583	0.420180	0.959478
C137	C	0.330428	-0.380456	0.241362
C138	C	0.580428	-0.130456	0.491362
C139	C	0.830428	0.119544	0.741362
C140	C	1.080428	0.369544	0.991362
C141	C	0.999372	-0.585808	0.208431
C142	C	1.249372	-0.335808	0.458431
C143	C	1.499372	-0.085808	0.708431
C144	C	1.749372	0.164192	0.958431
C145	C	1.013493	-0.673651	0.194387
C146	C	1.263493	-0.423651	0.444387
C147	C	1.513493	-0.173651	0.694387
C148	C	1.763493	0.076349	0.944387
C149	C	0.859485	-0.962724	0.348219
C150	C	1.109485	-0.712724	0.598219
C151	C	1.359485	-0.462724	0.848219
C152	C	1.609485	-0.212724	1.098219
C153	C	0.872755	-1.045266	0.335003
C154	C	1.122755	-0.795266	0.585003
C155	C	1.372755	-0.545266	0.835003
C156	C	1.622755	-0.295266	1.085003
C157	C	0.952916	-1.045188	0.254983
C158	C	1.202916	-0.795188	0.504983
C159	C	1.452916	-0.545188	0.754983
C160	C	1.702916	-0.295188	1.004983
C161	C	0.939655	-0.962645	0.268194
C162	C	1.189655	-0.712645	0.518194
C163	C	1.439655	-0.462645	0.768194
C164	C	1.689655	-0.212645	1.018194
C165	C	0.892939	-0.921419	0.314813
C166	C	1.142939	-0.671419	0.564813
C167	C	1.392939	-0.421419	0.814813
C168	C	1.642939	-0.171419	1.064813
C169	C	0.973109	-0.921340	0.234788
C170	C	1.223109	-0.671340	0.484788
C171	C	1.473109	-0.421340	0.734788
C172	C	1.723109	-0.171340	0.984788
C173	C	0.959847	-0.838803	0.247996
C174	C	1.209847	-0.588803	0.497996
C175	C	1.459847	-0.338803	0.747996
C176	C	1.709847	-0.088803	0.997996
C177	C	0.913131	-0.797572	0.294610
C178	C	1.163131	-0.547572	0.544610
C179	C	1.413131	-0.297572	0.794610
C180	C	1.663131	-0.047572	1.044610
C181	C	0.879677	-0.838883	0.328021
C182	C	1.129677	-0.588883	0.578021
C183	C	1.379677	-0.338883	0.828021
C184	C	1.629677	-0.088883	1.078021
C185	C	1.019822	-0.962567	0.188167
C186	C	1.269822	-0.712567	0.438167
C187	C	1.519822	-0.462567	0.688167
C188	C	1.769822	-0.212567	0.938167
C189	C	1.053276	-0.921262	0.154760
C190	C	1.303276	-0.671262	0.404760
C191	C	1.553276	-0.421262	0.654760
C192	C	1.803276	-0.171262	0.904760
C193	C	1.040017	-0.838724	0.167971
C194	C	1.290017	-0.588724	0.417971
C195	C	1.540017	-0.338724	0.667971
C196	C	1.790017	-0.088724	0.917971
C197	C	0.993301	-0.797492	0.214586
C198	C	1.243301	-0.547492	0.464586
C199	C	1.493301	-0.297492	0.714586
C200	C	1.743301	-0.047492	0.964586
C201	C	1.073472	-0.797413	0.134561
C202	C	1.323472	-0.547413	0.384561
C203	C	1.573472	-0.297413	0.634561
C204	C	1.823472	-0.047413	0.884561
C205	C	1.060209	-0.714877	0.147769
C206	C	1.310209	-0.464877	0.397769
C207	C	1.560209	-0.214877	0.647769
C208	C	1.810209	0.035123	0.897769
C209	C	0.980039	-0.714956	0.227794
C210	C	1.230039	-0.464956	0.477794
C211	C	1.480039	-0.214956	0.727794
C212	C	1.730039	0.035044	0.977794
C213	C	1.129916	-0.380432	0.241386
C214	C	1.379916	-0.130432	0.491386
C215	C	1.629916	0.119568	0.741386
C216	C	1.879916	0.369568	0.991386
C217	C	1.199555	-0.380414	0.241420
C218	C	1.449555	-0.130414	0.491420
C219	C	1.699555	0.119586	0.741420
C220	C	1.949555	0.369586	0.991420
C221	C	0.966549	-0.380457	0.404732
C222	C	1.216549	-0.130457	0.654732
C223	C	1.466549	0.119543	0.904732
C224	C	1.716549	0.369543	1.154732
C225	C	0.966570	-0.380450	0.474374
C226	C	1.216570	-0.130450	0.724374
C227	C	1.466570	0.119550	0.974374
C228	C	1.716570	0.369550	1.224374
C229	C	0.933515	-0.174337	0.274324
C230	C	1.183515	0.075663	0.524324
C231	C	1.433515	0.325663	0.774324
C232	C	1.683515	0.575663	1.024324
C233	C	0.919460	-0.086494	0.288394
C234	C	1.169460	0.163506	0.538394
C235	C	1.419460	0.413506	0.788394
C236	C	1.669460	0.663506	1.038394
C237	C	0.966477	-0.380432	0.078525
C238	C	1.216477	-0.130432	0.328525
C239	C	1.466477	0.119568	0.578525
C240	C	1.716477	0.369568	0.828525
C241	C	0.966542	-0.380216	0.008919
C242	C	1.216542	-0.130216	0.258919
C243	C	1.466542	0.119784	0.508919
C244	C	1.716542	0.369784	0.758919
C245	C	0.998552	-0.329891	0.515205
C246	C	1.248552	-0.079891	0.765205
C247	C	1.498552	0.170109	1.015205
C248	C	1.748552	0.420109	1.265205
C249	C	0.998545	-0.329857	0.580646
C250	C	1.248545	-0.079857	0.830646
C251	C	1.498545	0.170143	1.080646
C252	C	1.748545	0.420143	1.330646
C253	C	0.966566	-0.380397	0.605251
C254	C	1.216566	-0.130397	0.855251
C255	C	1.466566	0.119603	1.105251
C256	C	1.716566	0.369603	1.355251
C257	C	0.934577	-0.430960	0.564412
C258	C	1.184577	-0.180960	0.814412
C259	C	1.434577	0.069040	1.064412
C260	C	1.684577	0.319040	1.314412
C261	C	0.934579	-0.430986	0.498974
C262	C	1.184579	-0.180986	0.748974
C263	C	1.434579	0.069014	0.998974
C264	C	1.684579	0.319014	1.248974
C265	C	0.973012	-0.451559	0.697531
C266	C	1.223012	-0.201559	0.947531
C267	C	1.473012	0.048441	1.197531
C268	C	1.723012	0.298441	1.447531
C269	C	0.973014	-0.451533	0.762968
C270	C	1.223014	-0.201533	1.012968
C271	C	1.473014	0.048467	1.262968
C272	C	1.723014	0.298467	1.512968
C273	C	0.966557	-0.380313	0.807086
C274	C	1.216557	-0.130313	1.057086
C275	C	1.466557	0.119687	1.307086
C276	C	1.716557	0.369687	1.557086
C277	C	0.960109	-0.309116	0.785758
C278	C	1.210109	-0.059116	1.035758
C279	C	1.460109	0.190884	1.285758
C280	C	1.710109	0.440884	1.535758
C281	C	0.960111	-0.309143	0.720320
C282	C	1.210111	-0.059143	0.970320
C283	C	1.460111	0.190857	1.220320
C284	C	1.710111	0.440857	1.470320
C285	C	0.966560	-0.380373	0.676208
C286	C	1.216560	-0.130373	0.926208
C287	C	1.466560	0.119627	1.176208
C288	C	1.716560	0.369627	1.426208
C289	C	0.998533	-0.329712	0.918875
C290	C	1.248533	-0.079712	1.168875
C291	C	1.498533	0.170288	1.418875
C292	C	1.748533	0.420288	1.668875
C293	C	0.998522	-0.329677	0.984317
C294	C	1.248522	-0.079677	1.234317
C295	C	1.498522	0.170323	1.484317
C296	C	1.748522	0.420323	1.734317
C297	C	0.934559	-0.430787	0.968082
C298	C	1.184559	-0.180787	1.218082
C299	C	1.434559	0.069213	1.468082
C300	C	1.684559	0.319213	1.718082
C301	C	0.934565	-0.430815	0.902642
C302	C	1.184565	-0.180815	1.152642
C303	C	1.434565	0.069185	1.402642
C304	C	1.684565	0.319185	1.652642
C305	C	0.966556	-0.380279	0.878042
C306	C	1.216556	-0.130279	1.128042
C307	C	1.466556	0.119721	1.378042
C308	C	1.716556	0.369721	1.628042
H309	H	0.409412	-0.391970	0.341895
H310	H	0.659412	-0.141970	0.591895
H311	H	0.909412	0.108030	0.841895
H312	H	1.159412	0.358030	1.091895
F313	F	1.095810	-0.670914	0.112210
F314	F	1.345810	-0.420914	0.362210
F315	F	1.595810	-0.170914	0.612210
F316	F	1.845810	0.079086	0.862210
H317	H	0.990951	-1.078765	0.217025
H318	H	1.240951	-0.828765	0.467025
H319	H	1.490951	-0.578765	0.717025
H320	H	1.740951	-0.328765	0.967025
H321	H	0.942002	-0.681389	0.265760
H322	H	1.192002	-0.431389	0.515760
H323	H	1.442002	-0.181389	0.765760
H324	H	1.692002	0.068611	1.015760
F325	F	0.899129	-0.709729	0.308781
F326	F	1.149129	-0.459729	0.558781
F327	F	1.399129	-0.209729	0.808781
F328	F	1.649129	0.040271	1.058781
F329	F	1.032596	-0.276102	0.489028
F330	F	1.282596	-0.026102	0.739028
F331	F	1.532596	0.223898	0.989028
F332	F	1.782596	0.473898	1.239028
H333	H	0.845517	-1.078894	0.362218
H334	H	1.095517	-0.828894	0.612218
H335	H	1.345517	-0.578894	0.862218
H336	H	1.595517	-0.328894	1.112218
F337	F	0.900541	-0.484745	0.590601
F338	F	1.150541	-0.234745	0.840601
F339	F	1.400541	0.015255	1.090601
F340	F	1.650541	0.265255	1.340601
F341	F	1.033953	-1.050410	0.174128
F342	F	1.283953	-0.800410	0.424128
F343	F	1.533953	-0.550410	0.674128
F344	F	1.783953	-0.300410	0.924128
F345	F	0.532139	-0.367425	0.126854
F346	F	0.782139	-0.117425	0.376854
F347	F	1.032139	0.132575	0.626854
F348	F	1.282139	0.382575	0.876854
F349	F	0.536582	-0.393592	0.355702
F350	F	0.786582	-0.143592	0.605702
F351	F	1.036582	0.106408	0.855702
F352	F	1.286582	0.356408	1.105702
F353	F	0.900528	-0.484631	0.859185
F354	F	1.150528	-0.234631	1.109185
F355	F	1.400528	0.015369	1.359185
F356	F	1.650528	0.265369	1.609185
F357	F	1.102994	-0.965145	0.105148
F358	F	1.352994	-0.715145	0.355148
F359	F	1.602994	-0.465145	0.605148
F360	F	1.852994	-0.215145	0.855148
H361	H	0.821448	-0.929157	0.386185
H362	H	1.071448	-0.679157	0.636185
H363	H	1.321448	-0.429157	0.886185
H364	H	1.571448	-0.179157	1.136185
F365	F	0.953238	-0.233313	0.832707
F366	F	1.203238	0.016687	1.082707
F367	F	1.453238	0.266687	1.332707
F368	F	1.703238	0.516687	1.582707
F369	F	0.900539	-0.484801	0.455517
F370	F	1.150539	-0.234801	0.705517
F371	F	1.400539	0.015199	0.955517
F372	F	1.650539	0.265199	1.205517
H373	H	1.111504	-0.830991	0.096601
H374	H	1.361504	-0.580991	0.346601
H375	H	1.611504	-0.330991	0.596601
H376	H	1.861504	-0.080991	0.846601
H377	H	0.339097	-0.472288	0.299240
H378	H	0.589097	-0.222288	0.549240
H379	H	0.839097	0.027712	0.799240
H380	H	1.089097	0.277712	1.049240
H381	H	0.742749	-0.472392	0.299075
H382	H	0.992749	-0.222392	0.549075
H383	H	1.242749	0.027608	0.799075
H384	H	1.492749	0.277608	1.049075
H385	H	1.024578	-0.288559	0.898846
H386	H	1.274578	-0.038559	1.148846
H387	H	1.524578	0.211441	1.398846
H388	H	1.774578	0.461441	1.648846
F389	F	0.315750	-0.275955	0.175516
F390	F	0.565750	-0.025955	0.425516
F391	F	0.815750	0.224045	0.675516
F392	F	1.065750	0.474045	0.925516
H393	H	0.594538	-0.288684	0.183383
H394	H	0.844538	-0.038684	0.433383
H395	H	1.094538	0.211316	0.683383
H396	H	1.344538	0.461316	0.933383
H397	H	0.220383	-0.472248	0.299295
H398	H	0.470383	-0.222248	0.549295
H399	H	0.720383	0.027752	0.799295
H400	H	0.970383	0.277752	1.049295
H401	H	0.190885	-0.288579	0.183544
H402	H	0.440885	-0.038579	0.433544
H403	H	0.690885	0.211421	0.683544
H404	H	0.940885	0.461421	0.933544
H405	H	0.405517	-0.368979	0.140765
H406	H	0.655517	-0.118979	0.390765
H407	H	0.905517	0.131021	0.640765
H408	H	1.155517	0.381021	0.890765
F409	F	0.719405	-0.276047	0.175360
F410	F	0.969405	-0.026047	0.425360
F411	F	1.219405	0.223953	0.675360
F412	F	1.469405	0.473953	0.925360
H413	H	0.841640	-0.805315	0.365986
H414	H	1.091640	-0.555315	0.615986
H415	H	1.341640	-0.305315	0.865986
H416	H	1.591640	-0.055315	1.115986
F417	F	1.032574	-0.276029	0.624110
F418	F	1.282574	-0.026029	0.874110
F419	F	1.532574	0.223971	1.124110
F420	F	1.782574	0.473971	1.374110
H421	H	0.954860	-0.251173	0.702958
H422	H	1.204860	-0.001173	0.952958
H423	H	1.454860	0.248827	1.202958
H424	H	1.704860	0.498827	1.452958
H425	H	1.024564	-0.288501	1.017562
H426	H	1.274564	-0.038501	1.267562
H427	H	1.524564	0.211499	1.517562
H428	H	1.774564	0.461499	1.767562
H429	H	0.908513	-0.471929	0.988116
H430	H	1.158513	-0.221929	1.238116
H431	H	1.408513	0.028071	1.488116
H432	H	1.658513	0.278071	1.738116
H433	H	0.624037	-0.472355	0.299127
H434	H	0.874037	-0.222355	0.549127
H435	H	1.124037	0.027645	0.799127
H436	H	1.374037	0.277645	1.049127
H437	H	0.978268	-0.509506	0.780327
H438	H	1.228268	-0.259506	1.030327
H439	H	1.478268	-0.009506	1.280327
H440	H	1.728268	0.240494	1.530327
H441	H	0.978100	-0.509540	0.661617
H442	H	1.228100	-0.259540	0.911617
H443	H	1.478100	-0.009540	1.161617
H444	H	1.728100	0.240460	1.411617
