data_functionalizedCrystal
_audit_creation_method	'MofGen! by Chris Wilmer'
_symmetry_space_group_name_H-M	'P1'
_symmetry_Int_Tables_number	1
_symmetry_cell_setting	triclinic
loop_
_symmetry_equiv_pos_as_xyz
  x,y,z
_cell_length_a	12.811457
_cell_length_b	10.654550
_cell_length_c	11.892052
_cell_angle_alpha	94.335796
_cell_angle_beta	88.931150
_cell_angle_gamma	84.263143
loop_
_atom_site_label
_atom_site_type_symbol
_atom_site_fract_x
_atom_site_fract_y
_atom_site_fract_z
O1	O	1.390769	0.165422	-0.048577
O2	O	1.087321	0.186201	-0.017466
O3	O	1.246022	-0.007020	-0.033741
O4	O	1.232068	0.358642	-0.032302
O5	O	1.234011	-0.021332	-0.220519
O6	O	1.075310	0.171889	-0.204244
O7	O	1.378758	0.151110	-0.235355
Zn8	Zn	1.225127	0.159227	-0.249454
Zn9	Zn	1.240952	0.178083	-0.003366
O10	O	1.220058	0.344330	-0.219080
C11	C	1.042460	0.178320	-0.106871
C12	C	0.926684	0.176143	-0.095002
C13	C	0.696032	0.156426	-0.276345
C14	C	0.587249	0.154380	-0.265198
C15	C	0.600334	0.169998	-0.061561
C16	C	0.709117	0.172043	-0.072708
C17	C	0.756962	0.165259	-0.180104
C18	C	0.865745	0.167314	-0.191250
C19	C	0.878829	0.182922	0.012386
C20	C	0.770047	0.180876	0.023533
C21	C	1.238992	-0.060960	-0.127023
C22	C	1.235927	-0.200363	-0.126705
C23	C	1.329367	-0.281072	-0.136289
C24	C	1.326481	-0.412055	-0.135985
C25	C	1.136706	-0.381606	-0.116518
C26	C	1.139593	-0.250625	-0.116814
C27	C	1.425700	-0.230810	-0.146180
C28	C	1.519149	-0.311521	-0.155765
C29	C	1.516263	-0.442503	-0.155461
C30	C	1.419928	-0.492775	-0.145572
C31	C	1.423619	0.158991	-0.145947
C32	C	1.539396	0.161168	-0.157809
C33	C	1.227088	0.398271	-0.125795
C34	C	1.230153	0.537674	-0.126106
N35	N	1.214335	0.146357	-0.417404
C36	C	1.139244	0.056819	-0.587253
C37	C	1.146779	0.065811	-0.469682
C38	C	1.274362	0.217913	-0.482705
C39	C	1.266828	0.208921	-0.600275
C40	C	1.199265	0.128372	-0.652545
C41	C	1.191725	0.119387	-0.770117
C42	C	1.319314	0.271482	-0.783138
C43	C	1.326849	0.280474	-0.665567
N44	N	1.251753	0.190943	0.164582
H45	H	0.734986	0.150918	-0.363790
C46	C	1.064911	-0.031753	-0.644751
H47	H	1.030240	-0.073079	-0.589025
H48	H	1.014363	0.016312	-0.685733
H49	H	1.104276	-0.093152	-0.694956
H50	H	1.368180	0.329754	-0.836311
C51	C	0.717414	0.188362	0.141660
H52	H	0.769285	0.193916	0.197382
H53	H	0.667830	0.261098	0.150986
H54	H	0.682671	0.114679	0.149498
C55	C	1.625110	-0.256233	-0.166638
H56	H	1.680347	-0.323062	-0.172290
H57	H	1.625992	-0.210766	-0.232293
H58	H	1.634370	-0.200775	-0.102018
C59	C	1.348674	0.306505	-0.425194
H60	H	1.344559	0.301612	-0.345823
H61	H	1.418616	0.281569	-0.451744
H62	H	1.328675	0.391001	-0.442523
C63	C	1.416750	-0.636851	-0.145231
H64	H	1.345997	-0.655228	-0.137966
H65	H	1.446953	-0.677105	-0.213887
H66	H	1.455328	-0.667102	-0.083611
H67	H	1.097903	0.007544	-0.416525
C68	C	1.036814	-0.161835	-0.106276
H69	H	1.052334	-0.076630	-0.107857
H70	H	0.993160	-0.182033	-0.167361
H71	H	1.001548	-0.172052	-0.037087
H72	H	1.381859	0.346050	-0.622993
H73	H	0.904698	0.161797	-0.278696
C74	C	1.428880	-0.086735	-0.146508
H75	H	1.499633	-0.068356	-0.153762
H76	H	1.390293	-0.056474	-0.208110
H77	H	1.398686	-0.046490	-0.077837
C78	C	0.520229	0.144673	-0.371063
H79	H	0.564307	0.140935	-0.436615
H80	H	0.484940	0.070346	-0.371709
H81	H	0.470101	0.216768	-0.370186
H82	H	0.561362	0.175500	0.025875
H83	H	1.136708	0.053806	-0.812673
H84	H	1.592353	-0.508214	-0.163255
C85	C	0.945853	0.192648	0.118256
H86	H	1.017493	0.192893	0.096239
H87	H	0.923283	0.268729	0.162670
H88	H	0.938143	0.122309	0.161163
C89	C	1.030748	-0.436904	-0.105655
H90	H	1.042411	-0.526472	-0.106863
H91	H	0.996419	-0.404195	-0.036574
H92	H	0.988049	-0.414176	-0.166850
