data_functionalizedCrystal
_audit_creation_method	'MofGen! by Chris Wilmer'
_symmetry_space_group_name_H-M	'P1'
_symmetry_Int_Tables_number	1
_symmetry_cell_setting	triclinic
loop_
_symmetry_equiv_pos_as_xyz
  x,y,z
_cell_length_a	27.731994
_cell_length_b	27.732048
_cell_length_c	26.210047
_cell_angle_alpha	90.000479
_cell_angle_beta	89.997128
_cell_angle_gamma	97.368405
loop_
_atom_site_label
_atom_site_type_symbol
_atom_site_fract_x
_atom_site_fract_y
_atom_site_fract_z
O1	O	0.640948	-0.057385	-0.042362
O2	O	0.974282	0.275948	0.290972
O3	O	1.307615	0.609281	0.624305
O4	O	0.500151	-0.066158	-0.042379
O5	O	0.833484	0.267175	0.290954
O6	O	1.166818	0.600509	0.624287
O7	O	0.574923	0.008626	-0.042360
O8	O	0.908256	0.341959	0.290973
O9	O	1.241589	0.675293	0.624306
O10	O	0.566177	-0.132169	-0.042381
O11	O	0.899510	0.201164	0.290953
O12	O	1.232844	0.534497	0.624286
O13	O	0.574908	0.008614	0.042498
O14	O	0.908242	0.341948	0.375831
O15	O	1.241575	0.675281	0.709164
O16	O	0.500137	-0.066170	0.042479
O17	O	0.833470	0.267163	0.375812
O18	O	1.166803	0.600497	0.709145
O19	O	0.640934	-0.057397	0.042496
O20	O	0.974267	0.275936	0.375830
O21	O	1.307601	0.609270	0.709163
Cu22	Cu	0.570534	-0.061784	0.050236
Cu23	Cu	0.903867	0.271549	0.383569
Cu24	Cu	1.237201	0.604882	0.716902
Cu25	Cu	0.570551	-0.061771	-0.050119
Cu26	Cu	0.903884	0.271563	0.283215
Cu27	Cu	1.237218	0.604896	0.616548
O28	O	0.566162	-0.132181	0.042477
O29	O	0.899496	0.201152	0.375811
O30	O	1.232829	0.534486	0.709144
C31	C	0.482137	-0.065984	0.000047
C32	C	0.815470	0.267349	0.333381
C33	C	1.148803	0.600683	0.666714
C34	C	0.428480	-0.065442	0.000041
C35	C	0.761814	0.267892	0.333374
C36	C	1.095147	0.601225	0.666708
C37	C	0.095754	-0.062032	0.046317
C38	C	0.429087	0.271301	0.379651
C39	C	0.762421	0.604634	0.712984
C40	C	-0.105904	-0.059971	0.046324
C41	C	0.227429	0.273363	0.379657
C42	C	0.560762	0.606696	0.712990
O43	O	-0.131984	-0.059689	0.085663
O44	O	0.201350	0.273645	0.418996
O45	O	0.534683	0.606978	0.752329
N46	N	-0.131111	-0.059708	0.000067
N47	N	0.202222	0.273625	0.333401
N48	N	0.535555	0.606958	0.666734
C49	C	-0.105900	-0.059958	-0.046193
C50	C	0.227433	0.273375	0.287140
C51	C	0.560767	0.606709	0.620473
O52	O	-0.131967	-0.059683	-0.085537
O53	O	0.201367	0.273651	0.247796
O54	O	0.534700	0.606984	0.581130
C55	C	0.095758	-0.062016	-0.046199
C56	C	0.429091	0.271317	0.287134
C57	C	0.762424	0.604650	0.620468
C58	C	0.120961	-0.062283	0.000060
C59	C	0.454295	0.271050	0.333393
C60	C	0.787628	0.604383	0.666727
C61	C	0.120958	-0.062299	0.092573
C62	C	0.454291	0.271034	0.425906
C63	C	0.787624	0.604368	0.759239
C64	C	0.171369	-0.062817	0.092571
C65	C	0.504702	0.270516	0.425904
C66	C	0.838036	0.603850	0.759237
C67	C	0.196576	-0.063068	0.046313
C68	C	0.529910	0.270265	0.379647
C69	C	0.863243	0.603598	0.712980
C70	C	0.171372	-0.062802	0.000058
C71	C	0.504706	0.270532	0.333391
C72	C	0.838039	0.603865	0.666725
C73	C	0.120968	-0.062263	-0.092459
C74	C	0.454302	0.271071	0.240874
C75	C	0.787635	0.604404	0.574207
C76	C	0.171386	-0.062776	-0.092457
C77	C	0.504719	0.270557	0.240877
C78	C	0.838053	0.603891	0.574210
C79	C	0.196590	-0.063043	-0.046197
C80	C	0.529923	0.270290	0.287136
C81	C	0.863256	0.603623	0.620469
C82	C	0.246991	-0.063571	-0.046201
C83	C	0.580324	0.269763	0.287132
C84	C	0.913658	0.603096	0.620466
N85	N	0.272198	-0.063833	0.000055
N86	N	0.605531	0.269500	0.333388
N87	N	0.938865	0.602833	0.666722
C88	C	0.246991	-0.063582	0.046312
C89	C	0.580324	0.269751	0.379646
C90	C	0.913657	0.603085	0.712979
C91	C	-0.211773	-0.058878	-0.046187
C92	C	0.121560	0.274455	0.287146
C93	C	0.454893	0.607788	0.620479
C94	C	-0.262188	-0.058365	-0.046186
C95	C	0.071146	0.274969	0.287147
C96	C	0.404479	0.608302	0.620481
C97	C	-0.262188	-0.058376	0.046331
C98	C	0.071145	0.274957	0.379665
C99	C	0.404478	0.608290	0.712998
C100	C	-0.211774	-0.058894	0.046329
C101	C	0.121560	0.274440	0.379663
C102	C	0.454893	0.607773	0.712996
C103	C	-0.186566	-0.059141	0.000069
C104	C	0.146767	0.274192	0.333402
C105	C	0.480100	0.607526	0.666736
C106	C	0.352858	-0.064670	0.046305
C107	C	0.686191	0.268663	0.379638
C108	C	1.019524	0.601996	0.712971
C109	C	0.403273	-0.065190	0.046298
C110	C	0.736606	0.268143	0.379632
C111	C	1.069940	0.601476	0.712965
C112	C	0.403269	-0.065176	-0.046218
C113	C	0.736603	0.268157	0.287115
C114	C	1.069936	0.601491	0.620448
C115	C	0.352858	-0.064659	-0.046213
C116	C	0.686191	0.268675	0.287121
C117	C	1.019525	0.602008	0.620454
C118	C	0.327654	-0.064404	0.000053
C119	C	0.660987	0.268929	0.333386
C120	C	0.994320	0.602263	0.666720
O121	O	0.273102	-0.063848	-0.085520
O122	O	0.606435	0.269486	0.247814
O123	O	0.939769	0.602819	0.581147
O124	O	0.273067	-0.063847	0.085650
O125	O	0.606401	0.269487	0.418983
O126	O	0.939734	0.602820	0.752316
C127	C	0.045343	-0.061514	0.046319
C128	C	0.378676	0.271819	0.379653
C129	C	0.712009	0.605152	0.712986
C130	C	0.020139	-0.061247	0.000064
C131	C	0.353472	0.272086	0.333397
C132	C	0.686806	0.605419	0.666731
C133	C	0.045346	-0.061499	-0.046193
C134	C	0.378680	0.271835	0.287140
C135	C	0.712013	0.605168	0.620473
C136	C	-0.030275	-0.060734	0.000065
C137	C	0.303058	0.272600	0.333399
C138	C	0.636391	0.605933	0.666732
C139	C	-0.055483	-0.060482	0.046323
C140	C	0.277851	0.272851	0.379656
C141	C	0.611184	0.606184	0.712989
C142	C	-0.030276	-0.060745	0.092579
C143	C	0.303058	0.272588	0.425912
C144	C	0.636391	0.605922	0.759245
C145	C	0.020135	-0.061263	0.092577
C146	C	0.353469	0.272070	0.425910
C147	C	0.686802	0.605404	0.759243
C148	C	0.020139	-0.061236	-0.092449
C149	C	0.353473	0.272097	0.240884
C150	C	0.686806	0.605430	0.574217
C151	C	-0.030272	-0.060719	-0.092443
C152	C	0.303061	0.272615	0.240890
C153	C	0.636395	0.605948	0.574223
C154	C	-0.055479	-0.060468	-0.046186
C155	C	0.277854	0.272866	0.287147
C156	C	0.611187	0.606199	0.620481
C157	C	0.574732	0.026627	0.000070
C158	C	0.908065	0.359960	0.333403
C159	C	1.241398	0.693294	0.666737
C160	C	0.574179	0.080282	0.000074
C161	C	0.907512	0.413615	0.333408
C162	C	1.240846	0.746948	0.666741
C163	C	0.658949	-0.057571	0.000068
C164	C	0.992282	0.275762	0.333402
C165	C	1.325615	0.609095	0.666735
C166	C	0.712605	-0.058114	0.000071
C167	C	1.045938	0.275220	0.333405
C168	C	1.379272	0.608553	0.666738
C169	C	0.566353	-0.150182	0.000046
C170	C	0.899687	0.183151	0.333379
C171	C	1.233020	0.516485	0.666712
C172	C	0.566906	-0.203837	0.000038
C173	C	0.900239	0.129497	0.333372
C174	C	1.233573	0.462830	0.666705
N175	N	0.570526	-0.061794	0.120820
N176	N	0.903859	0.271539	0.454153
N177	N	1.237192	0.604873	0.787486
C178	C	0.614884	0.419105	0.000053
C179	C	0.948217	0.752438	0.333387
C180	C	1.281551	1.085771	0.666720
C181	C	0.612833	0.620764	0.000046
C182	C	0.946166	0.954097	0.333379
C183	C	1.279499	1.287431	0.666712
O184	O	0.650055	0.652027	0.000028
O185	O	0.983388	0.985360	0.333362
O186	O	1.316721	1.318693	0.666695
N187	N	0.568496	0.639879	0.000041
N188	N	0.901830	0.973212	0.333374
N189	N	1.235163	1.306546	0.666707
C190	C	0.524670	0.608576	0.000034
C191	C	0.858003	0.941909	0.333367
C192	C	1.191336	1.275242	0.666701
O193	O	0.486912	0.629462	0.000024
O194	O	0.820245	0.962795	0.333358
O195	O	1.153578	1.296128	0.666691
C196	C	0.526721	0.406918	0.000038
C197	C	0.860055	0.740251	0.333371
C198	C	1.193388	1.073584	0.666704
C199	C	0.571061	0.387805	0.000048
C200	C	0.904394	0.721139	0.333381
C201	C	1.237727	1.054472	0.666715
C202	C	0.659220	0.399992	0.000063
C203	C	0.992553	0.733325	0.333396
C204	C	1.325886	1.066659	0.666730
C205	C	0.659732	0.349580	0.000068
C206	C	0.993065	0.682914	0.333401
C207	C	1.326399	1.016247	0.666734
C208	C	0.615908	0.318281	0.000062
C209	C	0.949242	0.651614	0.333396
C210	C	1.282575	0.984948	0.666729
C211	C	0.571573	0.337394	0.000053
C212	C	0.904906	0.670727	0.333386
C213	C	1.238239	1.004060	0.666719
C214	C	0.482895	0.375615	0.000028
C215	C	0.816228	0.708949	0.333361
C216	C	1.149562	1.042282	0.666694
C217	C	0.483412	0.325198	0.000027
C218	C	0.816745	0.658532	0.333361
C219	C	1.150079	0.991865	0.666694
C220	C	0.527751	0.306086	0.000037
C221	C	0.861084	0.639419	0.333371
C222	C	1.194418	0.972753	0.666704
C223	C	0.528262	0.255683	0.000052
C224	C	0.861595	0.589016	0.333386
C225	C	1.194928	0.922349	0.666719
N226	N	0.572598	0.236567	0.000057
N227	N	0.905931	0.569901	0.333391
N228	N	1.239265	0.903234	0.666724
C229	C	0.616421	0.267867	0.000062
C230	C	0.949755	0.601200	0.333396
C231	C	1.283088	0.934533	0.666729
C232	C	0.523596	0.714450	0.000033
C233	C	0.856929	1.047783	0.333366
C234	C	1.190262	1.381116	0.666700
C235	C	0.523083	0.764864	0.000033
C236	C	0.856416	1.098197	0.333366
C237	C	1.189749	1.431531	0.666700
C238	C	0.611246	0.777049	0.000044
C239	C	0.944579	1.110382	0.333377
C240	C	1.277913	1.443715	0.666711
C241	C	0.611759	0.726633	0.000048
C242	C	0.945092	1.059967	0.333381
C243	C	1.278425	1.393300	0.666714
C244	C	0.567932	0.695335	0.000038
C245	C	0.901265	1.028668	0.333372
C246	C	1.234599	1.362001	0.666705
C247	C	0.617494	0.161998	0.000073
C248	C	0.950827	0.495331	0.333406
C249	C	1.284161	0.828664	0.666739
C250	C	0.618002	0.111581	0.000079
C251	C	0.951336	0.444914	0.333413
C252	C	1.284669	0.778248	0.666746
C253	C	0.529839	0.099401	0.000066
C254	C	0.863173	0.432734	0.333399
C255	C	1.196506	0.766067	0.666733
C256	C	0.529331	0.149813	0.000062
C257	C	0.862664	0.483146	0.333395
C258	C	1.195997	0.816480	0.666729
C259	C	0.573162	0.181111	0.000063
C260	C	0.906495	0.514444	0.333397
C261	C	1.239829	0.847778	0.666730
O262	O	0.491060	0.224391	0.000064
O263	O	0.824393	0.557725	0.333397
O264	O	1.157727	0.891058	0.666731
O265	O	0.654174	0.246971	0.000061
O266	O	0.987507	0.580305	0.333394
O267	O	1.320841	0.913638	0.666728
C268	C	0.614372	0.469517	0.000049
C269	C	0.947705	0.802850	0.333382
C270	C	1.281038	1.136183	0.666715
C271	C	0.570036	0.488629	0.000039
C272	C	0.903369	0.821963	0.333372
C273	C	1.236703	1.155296	0.666706
C274	C	0.526213	0.457330	0.000034
C275	C	0.859546	0.790663	0.333367
C276	C	1.192879	1.123997	0.666700
C277	C	0.569523	0.539043	0.000039
C278	C	0.902856	0.872377	0.333372
C279	C	1.236190	1.205710	0.666706
C280	C	0.613346	0.570343	0.000044
C281	C	0.946680	0.903676	0.333377
C282	C	1.280013	1.237009	0.666711
C283	C	0.657683	0.551228	0.000049
C284	C	0.991016	0.884561	0.333382
C285	C	1.324349	1.217894	0.666716
C286	C	0.658195	0.500816	0.000054
C287	C	0.991528	0.834149	0.333387
C288	C	1.324862	1.167482	0.666720
C289	C	0.481876	0.476445	0.000029
C290	C	0.815209	0.809778	0.333362
C291	C	1.148543	1.143112	0.666695
C292	C	0.481367	0.526857	0.000025
C293	C	0.814701	0.860191	0.333358
C294	C	1.148034	1.193524	0.666691
C295	C	0.525191	0.558157	0.000030
C296	C	0.858524	0.891490	0.333363
C297	C	1.191858	1.224823	0.666696
N298	N	0.570563	-0.061757	-0.120703
N299	N	0.903897	0.271576	0.212631
N300	N	1.237230	0.604909	0.545964
C301	C	0.603656	-0.028664	0.473342
C302	C	0.936990	0.304670	0.806675
C303	C	1.270323	0.638003	1.140009
C304	C	0.603667	-0.028657	0.687001
C305	C	0.937000	0.304676	1.020334
C306	C	1.270334	0.638010	1.353667
O307	O	0.631818	-0.000491	0.714630
O308	O	0.965151	0.332843	1.047963
O309	O	1.298484	0.666176	1.381297
N310	N	0.570554	-0.061760	0.713714
N311	N	0.903887	0.271573	1.047047
N312	N	1.237220	0.604907	1.380380
C313	C	0.537433	-0.094865	0.687008
C314	C	0.870766	0.238468	1.020342
C315	C	1.204100	0.571802	1.353675
O316	O	0.509265	-0.123018	0.714632
O317	O	0.842598	0.210316	1.047965
O318	O	1.175932	0.543649	1.381299
C319	C	0.537421	-0.094869	0.473351
C320	C	0.870754	0.238464	0.806684
C321	C	1.204087	0.571798	1.140017
C322	C	0.570539	-0.061767	0.446641
C323	C	0.903873	0.271566	0.779974
C324	C	1.237206	0.604900	1.113307
C325	C	0.636772	0.004436	0.446632
C326	C	0.970106	0.337769	0.779965
C327	C	1.303439	0.671103	1.113299
C328	C	0.636771	0.004432	0.393221
C329	C	0.970104	0.337765	0.726554
C330	C	1.303438	0.671099	1.059887
C331	C	0.603654	-0.028671	0.366519
C332	C	0.936987	0.304662	0.699853
C333	C	1.270321	0.637995	1.033186
C334	C	0.570538	-0.061771	0.393229
C335	C	0.903871	0.271562	0.726563
C336	C	1.237205	0.604896	1.059896
C337	C	0.504298	-0.127971	0.446647
C338	C	0.837631	0.205362	0.779980
C339	C	1.170965	0.538695	1.113313
C340	C	0.504297	-0.127969	0.393229
C341	C	0.837630	0.205365	0.726562
C342	C	1.170964	0.538698	1.059896
C343	C	0.537416	-0.094867	0.366519
C344	C	0.870749	0.238467	0.699852
C345	C	1.204083	0.571800	1.033186
C346	C	0.537420	-0.094878	0.313117
C347	C	0.870753	0.238455	0.646450
C348	C	1.204086	0.571789	0.979783
N349	N	0.570533	-0.061775	0.286404
N350	N	0.903867	0.271558	0.619737
N351	N	1.237200	0.604892	0.953070
C352	C	0.603650	-0.028672	0.313105
C353	C	0.936984	0.304662	0.646438
C354	C	1.270317	0.637995	0.979772
C355	C	0.537443	-0.094861	0.799182
C356	C	0.870776	0.238472	1.132515
C357	C	1.204109	0.571805	1.465848
C358	C	0.537446	-0.094861	0.852596
C359	C	0.870780	0.238473	1.185929
C360	C	1.204113	0.571806	1.519263
C361	C	0.603680	-0.028652	0.852585
C362	C	0.937013	0.304681	1.185918
C363	C	1.270347	0.638015	1.519251
C364	C	0.603678	-0.028655	0.799169
C365	C	0.937012	0.304678	1.132503
C366	C	1.270345	0.638012	1.465836
C367	C	0.570556	-0.061758	0.772469
C368	C	0.903889	0.271575	1.105802
C369	C	1.237223	0.604909	1.439136
C370	C	0.603645	-0.028682	0.200937
C371	C	0.936979	0.304651	0.534271
C372	C	1.270312	0.637984	0.867604
C373	C	0.603643	-0.028690	0.147521
C374	C	0.936976	0.304643	0.480854
C375	C	1.270309	0.637976	0.814188
C376	C	0.537408	-0.094897	0.147537
C377	C	0.870741	0.238436	0.480870
C378	C	1.204074	0.571769	0.814204
C379	C	0.537412	-0.094891	0.200949
C380	C	0.870745	0.238442	0.534282
C381	C	1.204079	0.571775	0.867615
C382	C	0.570533	-0.061780	0.227647
C383	C	0.903866	0.271554	0.560981
C384	C	1.237199	0.604887	0.894314
O385	O	0.509281	-0.123026	0.285454
O386	O	0.842614	0.210307	0.618788
O387	O	1.175947	0.543641	0.952121
O388	O	0.631807	-0.000516	0.285473
O389	O	0.965140	0.332817	0.618806
O390	O	1.298474	0.666151	0.952139
C391	C	0.603658	-0.028660	0.526754
C392	C	0.936991	0.304673	0.860087
C393	C	1.270324	0.638007	1.193420
C394	C	0.570542	-0.061760	0.553464
C395	C	0.903875	0.271574	0.886797
C396	C	1.237209	0.604907	1.220130
C397	C	0.537425	-0.094863	0.526762
C398	C	0.870758	0.238470	0.860096
C399	C	1.204092	0.571804	1.193429
C400	C	0.570546	-0.061759	0.606878
C401	C	0.903879	0.271574	0.940211
C402	C	1.237212	0.604907	1.273545
C403	C	0.603663	-0.028656	0.633579
C404	C	0.936996	0.304678	0.966913
C405	C	1.270329	0.638011	1.300246
C406	C	0.636776	0.004447	0.606866
C407	C	0.970109	0.337781	0.940200
C408	C	1.303443	0.671114	1.273533
C409	C	0.636775	0.004443	0.553455
C410	C	0.970108	0.337777	0.886788
C411	C	1.303441	0.671110	1.220122
C412	C	0.504311	-0.127966	0.553475
C413	C	0.837645	0.205367	0.886808
C414	C	1.170978	0.538701	1.220142
C415	C	0.504316	-0.127960	0.606887
C416	C	0.837649	0.205373	0.940220
C417	C	1.170982	0.538707	1.273553
C418	C	0.537433	-0.094857	0.633588
C419	C	0.870766	0.238477	0.966921
C420	C	1.204099	0.571810	1.300255
H421	H	-0.191254	-0.059079	-0.083860
H422	H	0.142079	0.274254	0.249473
H423	H	0.475412	0.607587	0.582806
C424	C	-0.289920	-0.058097	0.097214
C425	C	0.043413	0.275236	0.430548
C426	C	0.376747	0.608569	0.763881
H427	H	-0.267692	-0.058329	0.124766
H428	H	0.065641	0.275004	0.458100
H429	H	0.398975	0.608338	0.791433
H430	H	-0.305688	-0.029698	0.099136
H431	H	0.027646	0.303636	0.432469
H432	H	0.360979	0.636969	0.765802
H433	H	-0.313486	-0.086100	0.099134
H434	H	0.019847	0.247234	0.432467
H435	H	0.353181	0.580567	0.765800
H436	H	-0.050809	-0.060543	0.130243
H437	H	0.282525	0.272791	0.463576
H438	H	0.615858	0.606124	0.796910
C439	C	0.708505	0.328563	0.000069
C440	C	1.041839	0.661897	0.333402
C441	C	1.375172	0.995230	0.666736
H442	H	0.734528	0.354430	0.000066
H443	H	1.067861	0.687763	0.333399
H444	H	1.401194	1.021096	0.666732
H445	H	0.710541	0.309149	0.029660
H446	H	1.043874	0.642482	0.362993
H447	H	1.377208	0.975816	0.696326
H448	H	0.710542	0.309153	-0.029528
H449	H	1.043875	0.642486	0.303805
H450	H	1.377208	0.975819	0.637139
C451	C	0.666776	0.090558	0.000091
C452	C	1.000109	0.423891	0.333424
C453	C	1.333443	0.757225	0.666758
H454	H	0.660808	0.056050	0.000098
H455	H	0.994141	0.389384	0.333432
H456	H	1.327475	0.722717	0.666765
H457	H	0.684811	0.101323	-0.029498
H458	H	1.018144	0.434656	0.303835
H459	H	1.351477	0.767989	0.637169
H460	H	0.684796	0.101328	0.029689
H461	H	1.018129	0.434661	0.363023
H462	H	1.351463	0.767994	0.696356
C463	C	0.093257	-0.061958	-0.143345
C464	C	0.426590	0.271375	0.189988
C465	C	0.759923	0.604709	0.523322
H466	H	0.115498	-0.062173	-0.170890
H467	H	0.448831	0.271161	0.162444
H468	H	0.782164	0.604494	0.495777
H469	H	0.069687	-0.089952	-0.145286
H470	H	0.403020	0.243382	0.188047
H471	H	0.736353	0.576715	0.521381
H472	H	0.077496	-0.033550	-0.145258
H473	H	0.410830	0.299783	0.188075
H474	H	0.744163	0.633117	0.521409
H475	H	0.040658	-0.061439	-0.130118
H476	H	0.373992	0.271894	0.203215
H477	H	0.707325	0.605227	0.536548
C478	C	0.325139	-0.064395	0.097195
C479	C	0.658472	0.268938	0.430529
C480	C	0.991806	0.602271	0.763862
H481	H	0.347375	-0.064633	0.124739
H482	H	0.680708	0.268700	0.458073
H483	H	1.014042	0.602034	0.791406
H484	H	0.309371	-0.035996	0.099131
H485	H	0.642705	0.297337	0.432464
H486	H	0.976038	0.630671	0.765798
H487	H	0.301574	-0.092398	0.099114
H488	H	0.634907	0.240935	0.432448
H489	H	0.968240	0.574269	0.765781
H490	H	-0.282705	-0.058155	-0.083855
H491	H	0.050628	0.275178	0.249479
H492	H	0.383961	0.608512	0.582812
C493	C	0.435203	0.290770	0.000017
C494	C	0.768536	0.624103	0.333351
C495	C	1.101869	0.957437	0.666684
H496	H	0.441855	0.258007	0.000017
H497	H	0.775188	0.591340	0.333350
H498	H	1.108521	0.924673	0.666683
H499	H	0.416999	0.296531	0.029604
H500	H	0.750333	0.629864	0.362938
H501	H	1.083666	0.963197	0.696271
H502	H	0.417016	0.296529	-0.029583
H503	H	0.750349	0.629863	0.303750
H504	H	1.083683	0.963196	0.637083
H505	H	0.493226	0.165375	0.000068
H506	H	0.826559	0.498708	0.333401
H507	H	1.159893	0.832041	0.666734
C508	C	0.199110	-0.063052	-0.143344
C509	C	0.532444	0.270282	0.189989
C510	C	0.865777	0.603615	0.523322
H511	H	0.176876	-0.062823	-0.170891
H512	H	0.510209	0.270510	0.162442
H513	H	0.843543	0.603844	0.495776
H514	H	0.222679	-0.035055	-0.145266
H515	H	0.556012	0.298278	0.188067
H516	H	0.889345	0.631612	0.521401
H517	H	0.214873	-0.091457	-0.145274
H518	H	0.548207	0.241876	0.188060
H519	H	0.881540	0.575210	0.521393
C520	C	0.199087	-0.063109	0.143456
C521	C	0.532420	0.270225	0.476789
C522	C	0.865754	0.603558	0.810123
H523	H	0.176849	-0.062881	0.171002
H524	H	0.510182	0.270452	0.504335
H525	H	0.843515	0.603785	0.837668
H526	H	0.214854	-0.091509	0.145378
H527	H	0.548187	0.241824	0.478711
H528	H	0.881520	0.575158	0.812045
H529	H	0.222653	-0.035107	0.145386
H530	H	0.555986	0.298226	0.478720
H531	H	0.889319	0.631560	0.812053
H532	H	0.477343	-0.154922	0.531739
H533	H	0.810676	0.178411	0.865072
H534	H	1.144010	0.511744	1.198406
C535	C	0.481638	0.064966	0.000057
C536	C	0.814971	0.398299	0.333391
C537	C	1.148304	0.731632	0.666724
H538	H	0.488297	0.032205	0.000055
H539	H	0.821630	0.365538	0.333388
H540	H	1.154963	0.698871	0.666722
H541	H	0.463431	0.070720	0.029644
H542	H	0.796764	0.404054	0.362977
H543	H	1.130097	0.737387	0.696310
H544	H	0.463450	0.070722	-0.029544
H545	H	0.796784	0.404056	0.303789
H546	H	1.130117	0.737389	0.637123
C547	C	0.707430	0.434414	0.000073
C548	C	1.040763	0.767747	0.333406
C549	C	1.374096	1.101081	0.666739
H550	H	0.733903	0.415804	0.000082
H551	H	1.067237	0.749137	0.333416
H552	H	1.400570	1.082470	0.666749
H553	H	0.709076	0.454338	-0.029517
H554	H	1.042409	0.787671	0.303817
H555	H	1.375743	1.121005	0.637150
H556	H	0.709057	0.454330	0.029671
H557	H	1.042391	0.787664	0.363004
H558	H	1.375724	1.120997	0.696337
H559	H	0.693365	0.576720	0.000055
H560	H	1.026699	0.910054	0.333389
H561	H	1.360032	1.243387	0.666722
C562	C	0.325131	-0.064380	-0.097096
C563	C	0.658464	0.268953	0.236238
C564	C	0.991797	0.602286	0.569571
H565	H	0.347365	-0.064606	-0.124645
H566	H	0.680699	0.268727	0.208689
H567	H	1.014032	0.602060	0.542022
H568	H	0.301564	-0.092379	-0.099016
H569	H	0.634898	0.240955	0.234317
H570	H	0.968231	0.574288	0.567650
H571	H	0.309365	-0.035977	-0.099021
H572	H	0.642698	0.297357	0.234312
H573	H	0.976032	0.630690	0.567645
C574	C	0.431004	-0.065448	-0.097097
C575	C	0.764338	0.267885	0.236236
C576	C	1.097671	0.601218	0.569569
H577	H	0.464639	-0.065788	-0.090469
H578	H	0.797972	0.267545	0.242864
H579	H	1.131306	0.600878	0.576198
H580	H	0.418848	-0.093557	-0.116115
H581	H	0.752181	0.239776	0.217218
H582	H	1.085514	0.573109	0.550552
H583	H	0.426645	-0.037155	-0.116094
H584	H	0.759978	0.296178	0.217239
H585	H	1.093311	0.629511	0.550573
H586	H	0.100439	-0.062093	0.130243
H587	H	0.433773	0.271240	0.463576
H588	H	0.767106	0.604573	0.796910
C589	C	0.660531	0.705614	0.000054
C590	C	0.993864	1.038948	0.333387
C591	C	1.327198	1.372281	0.666721
H592	H	0.686555	0.731480	0.000055
H593	H	1.019888	1.064813	0.333388
H594	H	1.353221	1.398146	0.666721
H595	H	0.662562	0.686199	0.029645
H596	H	0.995895	1.019533	0.362978
H597	H	1.329228	1.352866	0.696311
H598	H	0.662570	0.686204	-0.029543
H599	H	0.995904	1.019538	0.303791
H600	H	1.329237	1.352871	0.637124
C601	C	0.500978	-0.131305	0.118159
C602	C	0.834312	0.202029	0.451492
C603	C	1.167645	0.535362	0.784825
H604	H	0.505719	-0.126559	0.082523
H605	H	0.839053	0.206775	0.415856
H606	H	1.172386	0.540108	0.749189
H607	H	0.505978	-0.163532	0.126908
H608	H	0.839311	0.169801	0.460241
H609	H	1.172644	0.503134	0.793575
H610	H	0.468758	-0.126274	0.126915
H611	H	0.802091	0.207059	0.460248
H612	H	1.135424	0.540392	0.793582
C613	C	0.673211	0.040833	0.363844
C614	C	1.006545	0.374167	0.697177
C615	C	1.339878	0.707500	1.030511
H616	H	0.668478	0.036090	0.328207
H617	H	1.001812	0.369423	0.661540
H618	H	1.335145	0.702756	0.994873
H619	H	0.668218	0.073063	0.372593
H620	H	1.001551	0.406396	0.705927
H621	H	1.334884	0.739729	1.039260
H622	H	0.705428	0.035795	0.372605
H623	H	1.038761	0.369128	0.705939
H624	H	1.372094	0.702461	1.039272
C625	C	0.665707	0.196418	0.000079
C626	C	0.999040	0.529751	0.333412
C627	C	1.332374	0.863085	0.666745
H628	H	0.692182	0.177809	0.000090
H629	H	1.025515	0.511142	0.333423
H630	H	1.358848	0.844475	0.666757
H631	H	0.667352	0.216339	-0.029513
H632	H	1.000685	0.549672	0.303820
H633	H	1.334018	0.883005	0.637154
H634	H	0.667335	0.216337	0.029674
H635	H	1.000668	0.549671	0.363008
H636	H	1.334002	0.883004	0.696341
C637	C	0.047854	-0.061550	0.143462
C638	C	0.381187	0.271783	0.476795
C639	C	0.714521	0.605117	0.810129
H640	H	0.025616	-0.061321	0.171008
H641	H	0.358949	0.272012	0.504341
H642	H	0.692283	0.605345	0.837674
H643	H	0.063623	-0.089949	0.145387
H644	H	0.396956	0.243384	0.478721
H645	H	0.730289	0.576718	0.812054
H646	H	0.071418	-0.033547	0.145389
H647	H	0.404752	0.299786	0.478723
H648	H	0.738085	0.633120	0.812056
C649	C	-0.184052	-0.059175	0.097214
C650	C	0.149281	0.274158	0.430547
C651	C	0.482614	0.607491	0.763880
H652	H	-0.206289	-0.058947	0.124760
H653	H	0.127044	0.274386	0.458094
H654	H	0.460378	0.607719	0.791427
H655	H	-0.168279	-0.087571	0.099140
H656	H	0.165054	0.245762	0.432474
H657	H	0.498387	0.579095	0.765807
H658	H	-0.160491	-0.031169	0.099137
H659	H	0.172842	0.302164	0.432470
H660	H	0.506175	0.635497	0.765804
H661	H	0.663740	0.031395	0.468368
H662	H	0.997074	0.364728	0.801701
H663	H	1.330407	0.698062	1.135034
C664	C	0.640105	0.007760	0.769793
C665	C	0.973438	0.341094	1.103126
C666	C	1.306771	0.674427	1.436460
H667	H	0.659825	0.027475	0.793350
H668	H	0.993158	0.360809	1.126684
H669	H	1.326492	0.694142	1.460017
H670	H	0.660095	-0.009483	0.748951
H671	H	0.993429	0.323850	1.082285
H672	H	1.326762	0.657184	1.415618
H673	H	0.622864	0.027764	0.748962
H674	H	0.956197	0.361097	1.082295
H675	H	1.289531	0.694430	1.415628
H676	H	0.477324	-0.154925	0.371492
H677	H	0.810657	0.178409	0.704825
H678	H	1.143990	0.511742	1.038159
C679	C	0.659451	0.811484	0.000042
C680	C	0.992784	1.144817	0.333375
C681	C	1.326117	1.478150	0.666708
H682	H	0.652791	0.844244	0.000035
H683	H	0.986124	1.177578	0.333368
H684	H	1.319457	1.510911	0.666701
H685	H	0.677651	0.805732	0.029632
H686	H	1.010984	1.139065	0.362965
H687	H	1.344317	1.472398	0.696298
H688	H	0.677645	0.805725	-0.029556
H689	H	1.010978	1.139058	0.303777
H690	H	1.344311	1.472391	0.637111
H691	H	0.487905	0.688970	0.000026
H692	H	0.821238	1.022303	0.333359
H693	H	1.154571	1.355637	0.666692
C694	C	-0.057990	-0.060424	-0.143332
C695	C	0.275343	0.272909	0.190001
C696	C	0.608676	0.606242	0.523335
H697	H	-0.035752	-0.060643	-0.170879
H698	H	0.297581	0.272690	0.162454
H699	H	0.630914	0.606023	0.495788
H700	H	-0.081560	-0.088419	-0.145266
H701	H	0.251773	0.244914	0.188068
H702	H	0.585107	0.578247	0.521401
H703	H	-0.073752	-0.032017	-0.145248
H704	H	0.259582	0.301316	0.188085
H705	H	0.592915	0.634649	0.521418
C706	C	0.474310	0.785882	0.000026
C707	C	0.807643	1.119215	0.333359
C708	C	1.140976	1.452549	0.666693
H709	H	0.448286	0.760017	0.000018
H710	H	0.781619	1.093350	0.333351
H711	H	1.114953	1.426683	0.666684
H712	H	0.472267	0.805296	0.029616
H713	H	0.805601	1.138629	0.362949
H714	H	1.138934	1.471963	0.696283
H715	H	0.472282	0.805293	-0.029572
H716	H	0.805616	1.138626	0.303762
H717	H	1.138949	1.471960	0.637095
H718	H	0.446789	0.391167	0.000016
H719	H	0.780123	0.724501	0.333349
H720	H	1.113456	1.057834	0.666683
C721	C	0.432591	0.547875	0.000012
C722	C	0.765924	0.881208	0.333345
C723	C	1.099258	1.214542	0.666678
H724	H	0.406567	0.522010	0.000004
H725	H	0.739901	0.855343	0.333337
H726	H	1.073234	1.188676	0.666671
H727	H	0.430546	0.567292	0.029599
H728	H	0.763879	0.900625	0.362932
H729	H	1.097213	1.233959	0.696266
H730	H	0.430566	0.567283	-0.029588
H731	H	0.763899	0.900616	0.303745
H732	H	1.097232	1.233950	0.637078
C733	C	0.433668	0.442022	0.000028
C734	C	0.767001	0.775356	0.333362
C735	C	1.100334	1.108689	0.666695
H736	H	0.407193	0.460631	0.000029
H737	H	0.740526	0.793965	0.333362
H738	H	1.073859	1.127298	0.666696
H739	H	0.432033	0.422097	-0.029560
H740	H	0.765366	0.755431	0.303773
H741	H	1.098699	1.088764	0.637107
H742	H	0.432031	0.422107	0.029627
H743	H	0.765364	0.755441	0.362961
H744	H	1.098698	1.088774	0.696294
C745	C	0.500964	-0.131284	0.230331
C746	C	0.834298	0.202049	0.563664
C747	C	1.167631	0.535383	0.896997
H748	H	0.481234	-0.150992	0.206776
H749	H	0.814567	0.182341	0.540109
H750	H	1.147900	0.515675	0.873443
H751	H	0.518177	-0.151291	0.251183
H752	H	0.851510	0.182043	0.584517
H753	H	1.184844	0.515376	0.917850
H754	H	0.480980	-0.114010	0.251152
H755	H	0.814313	0.219324	0.584485
H756	H	1.147646	0.552657	0.917818
C757	C	0.640073	0.007725	0.118143
C758	C	0.973406	0.341059	0.451476
C759	C	1.306739	0.674392	0.784809
H760	H	0.659792	0.027444	0.141698
H761	H	0.993125	0.360777	0.475032
H762	H	1.326458	0.694110	0.808365
H763	H	0.660064	-0.009520	0.097305
H764	H	0.993398	0.323813	0.430638
H765	H	1.326731	0.657147	0.763971
H766	H	0.622832	0.027726	0.097308
H767	H	0.956165	0.361059	0.430641
H768	H	1.289499	0.694392	0.763974
H769	H	0.694301	0.485260	0.000062
H770	H	1.027634	0.818593	0.333395
H771	H	1.360967	1.151926	0.666729
H772	H	0.630615	-0.001719	0.222669
H773	H	0.963948	0.331614	0.556003
H774	H	1.297282	0.664947	0.889336
C775	C	0.640104	0.007765	0.881962
C776	C	0.973437	0.341098	1.215296
C777	C	1.306771	0.674431	1.548629
H778	H	0.635357	0.003024	0.917599
H779	H	0.968690	0.336357	1.250932
H780	H	1.302023	0.669691	1.584265
H781	H	0.672328	0.002752	0.873210
H782	H	1.005661	0.336085	1.206543
H783	H	1.338994	0.669418	1.539876
H784	H	0.635088	0.039990	0.873210
H785	H	0.968421	0.373323	1.206544
H786	H	1.301754	0.706656	1.539877
H787	H	0.663743	0.031400	0.628615
H788	H	0.997076	0.364733	0.961949
H789	H	1.330410	0.698067	1.295282
H790	H	0.510483	-0.121820	0.874340
H791	H	0.843816	0.211513	1.207673
H792	H	1.177150	0.544846	1.541006
C793	C	0.501010	-0.131281	0.769818
C794	C	0.834343	0.202052	1.103151
C795	C	1.167677	0.535386	1.436484
H796	H	0.481296	-0.150996	0.793381
H797	H	0.814629	0.182337	1.126715
H798	H	1.147962	0.515670	1.460048
H799	H	0.481014	-0.114040	0.748982
H800	H	0.814347	0.219293	1.082316
H801	H	1.147681	0.552626	1.415649
H802	H	0.518249	-0.151284	0.748981
H803	H	0.851582	0.182050	1.082314
H804	H	1.184915	0.515383	1.415648
H805	H	0.477329	-0.154926	0.468387
H806	H	0.810663	0.178408	0.801720
H807	H	1.143996	0.511741	1.135053
H808	H	0.663743	0.031398	0.531712
H809	H	0.997077	0.364732	0.865045
H810	H	1.330410	0.698065	1.198378
C811	C	0.467880	-0.164373	0.636262
C812	C	0.801214	0.168961	0.969595
C813	C	1.134547	0.502294	1.302929
H814	H	0.448155	-0.184083	0.612705
H815	H	0.781488	0.149251	0.946038
H816	H	1.114822	0.482584	1.279371
H817	H	0.485109	-0.184375	0.657102
H818	H	0.818443	0.148959	0.990436
H819	H	1.151776	0.482292	1.323769
H820	H	0.447889	-0.147118	0.657095
H821	H	0.781222	0.186216	0.990428
H822	H	1.114555	0.519549	1.323761
H823	H	0.423791	-0.065410	0.083970
H824	H	0.757125	0.267924	0.417303
H825	H	1.090458	0.601257	0.750636
