data_functionalizedCrystal
_audit_creation_method	'MofGen! by Chris Wilmer'
_symmetry_space_group_name_H-M	'P1'
_symmetry_Int_Tables_number	1
_symmetry_cell_setting	triclinic
loop_
_symmetry_equiv_pos_as_xyz
  x,y,z
_cell_length_a	17.077404
_cell_length_b	12.759400
_cell_length_c	17.077396
_cell_angle_alpha	89.975532
_cell_angle_beta	89.981638
_cell_angle_gamma	90.011136
loop_
_atom_site_label
_atom_site_type_symbol
_atom_site_fract_x
_atom_site_fract_y
_atom_site_fract_z
Zn1	Zn	1.200108	-0.418323	-0.443841
Zn2	Zn	1.200037	-0.594024	-0.312584
Zn3	Zn	1.068839	-0.418353	-0.312591
Zn4	Zn	1.068830	-0.593954	-0.443810
O5	O	1.134453	-0.506164	-0.378207
O6	O	1.309945	-0.441647	-0.426439
O7	O	1.182608	-0.570762	-0.202738
O8	O	1.086286	-0.271328	-0.330018
O9	O	1.309893	-0.570733	-0.330005
O10	O	1.182728	-0.271306	-0.426446
O11	O	1.086218	-0.441698	-0.202743
O12	O	0.958991	-0.441631	-0.329988
O13	O	1.086269	-0.570615	-0.553661
O14	O	0.958984	-0.570644	-0.426394
O15	O	1.182719	-0.441580	-0.553684
O16	O	1.182598	-0.741036	-0.329975
O17	O	1.086201	-0.740985	-0.426387
C18	C	0.930506	-0.506134	-0.378189
C19	C	0.843256	-0.506146	-0.378200
C20	C	0.802293	-0.439051	-0.428490
C21	C	0.720313	-0.439057	-0.428493
C22	C	0.679296	-0.506166	-0.378211
C23	C	0.720264	-0.573265	-0.327915
C24	C	0.802243	-0.573252	-0.327908
C25	C	0.549394	-0.573289	-0.327935
C26	C	0.467410	-0.573303	-0.327943
C27	C	0.467464	-0.439094	-0.428520
C28	C	0.549443	-0.439081	-0.428513
C29	C	0.590405	-0.506182	-0.378218
C30	C	1.134412	-0.779131	-0.378194
C31	C	1.134466	-0.895908	-0.378215
C32	C	1.184659	-0.950678	-0.428466
C33	C	1.184695	-1.060402	-0.428486
C34	C	1.084345	-1.060575	-0.327995
C35	C	1.084305	-0.950853	-0.327981
C36	C	1.242598	-0.950580	-0.486482
C37	C	1.242634	-1.060304	-0.486501
C38	C	1.339198	-0.506194	-0.378225
C39	C	1.426447	-0.506207	-0.378232
C40	C	1.134501	-0.506086	-0.582951
C41	C	1.134521	-0.506053	-0.670201
C42	C	1.134516	-0.232130	-0.378236
C43	C	1.134543	-0.115354	-0.378249
C44	C	1.184744	-0.438859	-0.711204
C45	C	1.184754	-0.438824	-0.793184
C46	C	1.134543	-0.505989	-0.834160
C47	C	1.084315	-0.573187	-0.793151
C48	C	1.084302	-0.573216	-0.711172
C49	C	1.084347	-0.573124	-0.964022
C50	C	1.084360	-0.573096	-1.046006
C51	C	1.184798	-0.438732	-1.046034
C52	C	1.184785	-0.438761	-0.964055
C53	C	1.134557	-0.505960	-0.923051
C54	C	1.134451	-0.506165	-0.174259
C55	C	1.134583	-0.505902	-0.087009
H56	H	0.686965	-0.384423	-0.469446
H57	H	1.043473	-0.627786	-1.079367
H58	H	0.582836	-0.384442	-0.469462
O59	O	1.315122	-1.095912	-0.467042
C60	C	1.310125	-1.157316	-0.398561
H61	H	1.247948	-1.188611	-0.391900
H62	H	1.325603	-1.107206	-0.345520
C63	C	1.444114	-1.211367	-0.412583
C64	C	1.367749	-1.249812	-0.404406
H65	H	1.479661	-1.268420	-0.416186
H66	H	1.447482	-1.169995	-0.458718
H67	H	1.457002	-1.169609	-0.368381
H68	H	1.354859	-1.291557	-0.448612
H69	H	1.364379	-1.291192	-0.358277
H70	H	0.434108	-0.384456	-0.469470
O71	O	1.216517	-1.100932	-0.555317
C72	C	1.149746	-1.163184	-0.541282
H73	H	1.120891	-1.137612	-0.484200
H74	H	1.167819	-1.248973	-0.536686
C75	C	1.126811	-1.181246	-0.679378
C76	C	1.091367	-1.149833	-0.609272
H77	H	1.090801	-1.173015	-0.721318
H78	H	1.171798	-1.139309	-0.688834
H79	H	1.141871	-1.252735	-0.675537
H80	H	1.076316	-1.078342	-0.613110
H81	H	1.046376	-1.191757	-0.599817
O82	O	1.233617	-0.373522	-0.832893
C83	C	1.277922	-0.314234	-0.779148
H84	H	1.280618	-0.357292	-0.720707
H85	H	1.249198	-0.234437	-0.770432
C86	C	1.358164	-0.246218	-0.882936
C87	C	1.361481	-0.299106	-0.811159
H88	H	1.409707	-0.236881	-0.902683
H89	H	1.328314	-0.286158	-0.919146
H90	H	1.334225	-0.179726	-0.875663
H91	H	1.385411	-0.365601	-0.818435
H92	H	1.391337	-0.259177	-0.774951
H93	H	1.225634	-0.384168	-0.677847
O94	O	0.427686	-0.638522	-0.279024
C95	C	0.481417	-0.697758	-0.234641
H96	H	0.539857	-0.654712	-0.231968
H97	H	0.490145	-0.777601	-0.263280
C98	C	0.377603	-0.765626	-0.154365
C99	C	0.449377	-0.712752	-0.151077
H100	H	0.357838	-0.774880	-0.102820
H101	H	0.341402	-0.725721	-0.184268
H102	H	0.384886	-0.832156	-0.178235
H103	H	0.442091	-0.646219	-0.127217
H104	H	0.485576	-0.752646	-0.121168
H105	H	0.582744	-0.627926	-0.286978
O106	O	1.311490	-0.910053	-0.460451
C107	C	1.325316	-0.944304	-0.383178
H108	H	1.291324	-1.019733	-0.371952
H109	H	1.305238	-0.881402	-0.340246
C110	C	1.455210	-0.872151	-0.385712
C111	C	1.413465	-0.964800	-0.371927
H112	H	1.509584	-0.884790	-0.378770
H113	H	1.445895	-0.849072	-0.437772
H114	H	1.438469	-0.819742	-0.349934
H115	H	1.430199	-1.017202	-0.407712
H116	H	1.422785	-0.987888	-0.319873
H117	H	1.043428	-0.906260	-0.287069
H118	H	0.686862	-0.627901	-0.286970
H119	H	0.835594	-0.627888	-0.286957
O120	O	1.035550	-1.113789	-0.279172
C121	C	0.991255	-1.041914	-0.234800
H122	H	0.988494	-0.963675	-0.266937
H123	H	1.020030	-1.030272	-0.175206
C124	C	0.911123	-1.180912	-0.183949
C125	C	0.907726	-1.084820	-0.223424
H126	H	0.859599	-1.207379	-0.176928
H127	H	0.940966	-1.229337	-0.213841
H128	H	0.935105	-1.171197	-0.134291
H129	H	0.883753	-1.094539	-0.273084
H130	H	0.877876	-1.036398	-0.193540
O131	O	1.233506	-0.373473	-1.085981
C132	C	1.222760	-0.387855	-1.167124
H133	H	1.162177	-0.422259	-1.178305
H134	H	1.269315	-0.443792	-1.190398
C135	C	1.304381	-0.239277	-1.195486
C136	C	1.229969	-0.281523	-1.209218
H137	H	1.308831	-0.173688	-1.221453
H138	H	1.311623	-0.229589	-1.140818
H139	H	1.343168	-0.285901	-1.214881
H140	H	1.191184	-0.234906	-1.189815
H141	H	1.222720	-0.291201	-1.263884
O142	O	1.223211	-0.915131	-0.559044
C143	C	1.278318	-0.951937	-0.614030
H144	H	1.308027	-1.025321	-0.590211
H145	H	1.324237	-0.888768	-0.625077
C146	C	1.199864	-0.888213	-0.720602
C147	C	1.236348	-0.978349	-0.691350
H148	H	1.173976	-0.904501	-0.768298
H149	H	1.162738	-0.863412	-0.683557
H150	H	1.238136	-0.835580	-0.729801
H151	H	1.198074	-1.030974	-0.682141
H152	H	1.273466	-1.003159	-0.728395
H153	H	1.225675	-0.384075	-0.930694
O154	O	1.035544	-0.638517	-0.924311
C155	C	0.991224	-0.697787	-0.978054
H156	H	1.023377	-0.701384	-1.036502
H157	H	0.931606	-0.659327	-0.986756
C158	C	0.940421	-0.805206	-0.874268
C159	C	0.979916	-0.809632	-0.946052
H160	H	0.933442	-0.874196	-0.854526
H161	H	0.970278	-0.765273	-0.838059
H162	H	0.890744	-0.773152	-0.881529
H163	H	1.029596	-0.841674	-0.938788
H164	H	0.950067	-0.849574	-0.982259
H165	H	1.043397	-0.627922	-0.677789
O166	O	0.842012	-0.373764	-0.477363
C167	C	0.788274	-0.314564	-0.521764
H168	H	0.729825	-0.310880	-0.489619
H169	H	0.779575	-0.353143	-0.581332
C170	C	0.892068	-0.207288	-0.572701
C171	C	0.820281	-0.202754	-0.533217
H172	H	0.911812	-0.138319	-0.579770
H173	H	0.928273	-0.247173	-0.542790
H174	H	0.884809	-0.239441	-0.622337
H175	H	0.827543	-0.170614	-0.483579
H176	H	0.784078	-0.162860	-0.563121
H177	H	1.043430	-0.627870	-0.826520
