data_functionalizedCrystal
_audit_creation_method	'MofGen! by Chris Wilmer'
_symmetry_space_group_name_H-M	'P1'
_symmetry_Int_Tables_number	1
_symmetry_cell_setting	triclinic
loop_
_symmetry_equiv_pos_as_xyz
  x,y,z
_cell_length_a	17.640280
_cell_length_b	17.640112
_cell_length_c	17.640968
_cell_angle_alpha	92.139080
_cell_angle_beta	114.317439
_cell_angle_gamma	87.815931
loop_
_atom_site_label
_atom_site_type_symbol
_atom_site_fract_x
_atom_site_fract_y
_atom_site_fract_z
Zn1	Zn	-0.023073	-1.251359	0.189698
Zn2	Zn	-0.188752	-1.251298	0.024069
Zn3	Zn	-0.075311	-1.106797	0.076159
Zn4	Zn	-0.178182	-1.148399	0.179117
O5	O	-0.116329	-1.189463	0.117261
O6	O	-0.027613	-1.354914	0.150355
O7	O	-0.199989	-1.214694	-0.081425
O8	O	0.044008	-1.108588	0.117448
O9	O	-0.149337	-1.354870	0.028669
O10	O	0.082386	-1.214797	0.200865
O11	O	-0.116644	-1.108529	-0.043155
O12	O	-0.106394	-1.008752	0.107188
O13	O	-0.131321	-1.179493	0.292925
O14	O	-0.181973	-1.039317	0.182831
O15	O	-0.017364	-1.255137	0.300699
O16	O	-0.299739	-1.255033	0.018409
O17	O	-0.291973	-1.179434	0.132322
C18	C	-0.148705	-0.997182	0.149514
C19	C	-0.162571	-0.914929	0.163327
C20	C	-0.324990	-1.221764	0.068579
C21	C	-0.414238	-1.235655	0.047768
C22	C	-0.067336	-1.221962	0.326772
C23	C	-0.046458	-1.235811	0.416053
C24	C	-0.687787	-1.084287	0.275600
C25	C	-0.771655	-1.097337	0.256019
C26	C	-0.779643	-1.176134	0.137496
C27	C	-0.695773	-1.163094	0.157069
C28	C	-0.649852	-1.117169	0.226122
C29	C	-0.657837	-1.195976	0.107591
C30	C	-0.573976	-1.182933	0.127160
C31	C	-0.528050	-1.137009	0.196208
C32	C	-0.565990	-1.104127	0.245691
C33	C	-0.703761	-1.241896	0.038535
C34	C	-0.665825	-1.274778	-0.010944
C35	C	-0.581961	-1.261740	0.008629
C36	C	-0.536035	-1.215815	0.077677
C37	C	-0.544020	-1.294622	-0.040854
C38	C	-0.460159	-1.281579	-0.021285
C39	C	-0.452173	-1.202773	0.097246
C40	C	0.093153	-1.157059	0.166147
C41	C	0.182422	-1.143250	0.186980
C42	C	-0.083827	-1.382495	0.084882
C43	C	-0.069977	-1.464754	0.071084
C44	C	-0.010979	-0.564743	0.012337
C45	C	-0.024022	-0.487458	0.025323
C46	C	-0.102905	-0.519334	0.103880
C47	C	-0.089865	-0.596623	0.090904
C48	C	-0.043903	-0.619321	0.045131
C49	C	-0.122789	-0.651201	0.123697
C50	C	-0.109754	-0.728483	0.110718
C51	C	-0.063796	-0.751188	0.064946
C52	C	-0.030868	-0.696603	0.032152
C53	C	-0.168756	-0.628502	0.169465
C54	C	-0.201680	-0.683080	0.202259
C55	C	-0.188640	-0.760364	0.189285
C56	C	-0.142682	-0.783068	0.143512
C57	C	-0.221568	-0.814949	0.222079
C58	C	-0.208534	-0.892231	0.209100
C59	C	-0.129647	-0.860351	0.130533
C60	C	-0.165067	-1.157124	-0.091429
C61	C	-0.185695	-1.143383	-0.180681
C62	C	-0.274453	-1.084469	0.689444
C63	C	-0.254822	-1.097496	0.773337
C64	C	-0.136168	-1.176258	0.781421
C65	C	-0.155787	-1.163234	0.697528
C66	C	-0.224930	-1.117340	0.651546
C67	C	-0.106264	-1.196105	0.659630
C68	C	-0.125884	-1.183085	0.575743
C69	C	-0.195026	-1.137195	0.529754
C70	C	-0.244550	-1.104320	0.567659
C71	C	-0.037124	-1.242004	0.705612
C72	C	0.012398	-1.274874	0.667713
C73	C	-0.007218	-1.261851	0.583827
C74	C	-0.076360	-1.215960	0.537838
C75	C	0.042306	-1.294725	0.545922
C76	C	0.022686	-1.281706	0.462035
C77	C	-0.095980	-1.202940	0.453951
H78	H	-0.414780	-1.165383	0.153481
H79	H	-0.703226	-1.312167	-0.067168
H80	H	-0.429272	-1.308354	-0.061576
O81	O	-0.214069	-1.124681	0.448243
C82	C	-0.229330	-1.194445	0.403491
H83	H	-0.197123	-1.242455	0.447877
H84	H	-0.299186	-1.204013	0.372796
C85	C	-0.234698	-1.133909	0.281598
C86	C	-0.195135	-1.192874	0.336112
H87	H	-0.213609	-1.132940	0.240033
H88	H	-0.224420	-1.086906	0.311746
H89	H	-0.292909	-1.141888	0.256027
H90	H	-0.136927	-1.184889	0.361689
H91	H	-0.205403	-1.239876	0.305966
H92	H	-0.053186	-0.814117	0.054377
H93	H	-0.092205	-0.878832	0.093275
H94	H	-0.817044	-1.213523	0.081271
O95	O	0.109475	-1.339354	0.590463
C96	C	0.148993	-1.365558	0.539030
H97	H	0.102546	-1.363926	0.471124
H98	H	0.203342	-1.327637	0.548897
C99	C	0.238530	-1.449619	0.644649
C100	C	0.181482	-1.447620	0.561247
H101	H	0.258575	-1.500238	0.658355
H102	H	0.211909	-1.431963	0.679302
H103	H	0.283814	-1.418014	0.652861
H104	H	0.136195	-1.479217	0.553038
H105	H	0.208096	-1.465284	0.526592
O106	O	-0.068928	-1.220723	0.826166
C107	C	-0.012814	-1.178099	0.893879
H108	H	-0.023583	-1.115122	0.879540
H109	H	-0.023208	-1.189262	0.952087
C110	C	0.090293	-1.278884	0.926197
C111	C	0.077072	-1.201534	0.908582
H112	H	0.145740	-1.293341	0.935270
H113	H	0.052488	-1.307602	0.880579
H114	H	0.081626	-1.288176	0.974701
H115	H	0.085729	-1.192244	0.860073
H116	H	0.114881	-1.172814	0.954192
H117	H	0.063013	-1.308471	0.431178
O118	O	-0.588635	-1.339323	-0.107841
C119	C	-0.618377	-1.401712	-0.081400
H120	H	-0.577533	-1.412130	-0.012993
H121	H	-0.685162	-1.389130	-0.089648
C122	C	-0.665986	-1.459991	-0.217804
C123	C	-0.615817	-1.472790	-0.133786
H124	H	-0.664412	-1.503835	-0.250119
H125	H	-0.645951	-1.417957	-0.235619
H126	H	-0.721636	-1.449504	-0.224665
H127	H	-0.560168	-1.483268	-0.126925
H128	H	-0.635843	-1.514828	-0.115971
H129	H	-0.140330	-0.500842	0.141145
H130	H	0.026463	-0.583224	-0.024921
O131	O	-0.521424	-1.059593	0.312861
C132	C	-0.520427	-1.091329	0.385454
H133	H	-0.576111	-1.129496	0.368170
H134	H	-0.460456	-1.126224	0.417172
C135	C	-0.456735	-0.980423	0.466484
C136	C	-0.525132	-1.027296	0.445255
H137	H	-0.459634	-0.940925	0.503374
H138	H	-0.457404	-0.959042	0.417577
H139	H	-0.406767	-1.009510	0.492911
H140	H	-0.575098	-0.998210	0.418820
H141	H	-0.524471	-1.048670	0.494159
O142	O	-0.643298	-1.039641	0.342696
C143	C	-0.694752	-1.013438	0.382196
H144	H	-0.762664	-1.015080	0.335770
H145	H	-0.684812	-1.051353	0.436604
C146	C	-0.589239	-0.929360	0.471582
C147	C	-0.672649	-0.931371	0.414558
H148	H	-0.575603	-0.878739	0.491548
H149	H	-0.554572	-0.947015	0.444973
H150	H	-0.580966	-0.960960	0.516914
H151	H	-0.680919	-0.899778	0.369222
H152	H	-0.707317	-0.913708	0.441161
H153	H	-0.802535	-1.070568	0.296324
O154	O	-0.240403	-0.945225	0.241098
C155	C	-0.207442	-0.936072	0.328417
H156	H	-0.145904	-0.905527	0.351113
H157	H	-0.253203	-0.901147	0.346826
C158	C	-0.268331	-1.052029	0.340399
C159	C	-0.192746	-1.014518	0.368275
H160	H	-0.259269	-1.100418	0.364987
H161	H	-0.290541	-1.058195	0.281570
H162	H	-0.306458	-1.022917	0.355742
H163	H	-0.154625	-1.043626	0.352924
H164	H	-0.170530	-1.008359	0.427103
H165	H	-0.459767	-1.126385	0.212135
O166	O	0.013660	-0.718625	-0.012443
C167	C	-0.025672	-0.689987	-0.093415
H168	H	-0.094376	-0.678028	-0.108973
H169	H	0.004965	-0.635205	-0.096757
C170	C	0.067172	-0.763548	-0.137227
C171	C	-0.017214	-0.748866	-0.156338
H172	H	0.072391	-0.799865	-0.176042
H173	H	0.093673	-0.782840	-0.082674
H174	H	0.092692	-0.717891	-0.140012
H175	H	-0.042730	-0.794520	-0.153543
H176	H	-0.043719	-0.729583	-0.210892
H177	H	-0.772045	-1.252515	0.022606
H178	H	-0.152268	-1.165548	0.416517
O179	O	-0.181397	-0.553454	0.182216
C180	C	-0.147230	-0.536410	0.268349
H181	H	-0.142684	-0.590268	0.303898
H182	H	-0.082493	-0.512635	0.288018
C183	C	-0.209082	-0.411005	0.244186
C184	C	-0.203505	-0.477153	0.287847
H185	H	-0.243792	-0.374451	0.256214
H186	H	-0.232099	-0.422487	0.186156
H187	H	-0.155131	-0.391203	0.260581
H188	H	-0.257454	-0.496960	0.271444
H189	H	-0.180499	-0.465674	0.345875
O190	O	-0.302997	-1.065476	0.810034
C191	C	-0.368243	-1.022196	0.751451
H192	H	-0.349764	-1.005262	0.699760
H193	H	-0.426761	-1.057351	0.723746
C194	C	-0.408124	-0.971104	0.858194
C195	C	-0.385425	-0.950300	0.794711
H196	H	-0.418727	-0.926756	0.884879
H197	H	-0.364169	-1.000265	0.897663
H198	H	-0.456887	-1.000401	0.835098
H199	H	-0.336658	-0.921012	0.817809
H200	H	-0.429373	-0.921132	0.755247
H201	H	-0.239106	-0.664588	0.239524
H202	H	-0.300838	-1.066927	0.530225
O203	O	-0.266342	-0.792935	0.266425
C204	C	-0.347299	-0.821495	0.226916
H205	H	-0.362686	-0.833385	0.158250
H206	H	-0.350719	-0.876304	0.257501
C207	C	-0.391425	-0.747993	0.319537
C208	C	-0.410327	-0.762589	0.235199
H209	H	-0.430305	-0.711659	0.324649
H210	H	-0.336883	-0.728753	0.346157
H211	H	-0.394276	-0.793671	0.345014
H212	H	-0.407467	-0.716914	0.209725
H213	H	-0.464871	-0.781820	0.208574
H214	H	0.002799	-0.443020	-0.001378
H215	H	-0.330740	-1.047076	0.652010
O216	O	-0.018209	-1.254679	0.787065
C217	C	-0.085419	-1.289956	0.793941
H218	H	-0.145117	-1.276960	0.736930
H219	H	-0.073307	-1.353935	0.798117
C220	C	-0.021234	-1.275579	0.942846
C221	C	-0.094557	-1.259612	0.872828
H222	H	-0.026869	-1.256865	0.991509
H223	H	0.024049	-1.251815	0.938215
H224	H	-0.011148	-1.328895	0.946315
H225	H	-0.104636	-1.206297	0.869354
H226	H	-0.139842	-1.283367	0.877461
H227	H	0.068693	-1.312244	0.705162
