data_functionalizedCrystal
_audit_creation_method	'MofGen! by Chris Wilmer'
_symmetry_space_group_name_H-M	'P1'
_symmetry_Int_Tables_number	1
_symmetry_cell_setting	triclinic
loop_
_symmetry_equiv_pos_as_xyz
  x,y,z
_cell_length_a	9.065218
_cell_length_b	18.366186
_cell_length_c	19.288865
_cell_angle_alpha	90.011479
_cell_angle_beta	95.923934
_cell_angle_gamma	89.990902
loop_
_atom_site_label
_atom_site_type_symbol
_atom_site_fract_x
_atom_site_fract_y
_atom_site_fract_z
O1	O	1.956843	-0.060561	-0.101842
O2	O	1.527266	-0.060563	-0.110195
O3	O	1.754467	-0.060548	-0.004985
O4	O	1.729642	-0.060577	-0.207053
O5	O	1.754429	0.060552	-0.004979
O6	O	1.527227	0.060536	-0.110190
O7	O	1.956805	0.060538	-0.101836
Zn8	Zn	1.742010	0.079764	-0.106012
Zn9	Zn	1.742061	-0.079789	-0.106020
O10	O	1.729603	0.060523	-0.207047
C11	C	1.472288	-0.000014	-0.109390
C12	C	1.308529	-0.000014	-0.106989
N13	N	1.741986	0.188655	-0.106007
N14	N	1.742096	-0.188681	-0.106019
C15	C	2.011782	-0.000013	-0.102642
C16	C	2.175541	-0.000018	-0.105043
C17	C	1.753649	0.000004	0.020901
C18	C	1.751251	0.000010	0.098023
C19	C	1.842624	0.226763	-0.059443
C20	C	1.842633	0.302990	-0.059440
C21	C	1.742019	0.341108	-0.106013
C22	C	1.641362	0.302992	-0.152580
C23	C	1.641346	0.226765	-0.152577
C24	C	1.722271	0.461859	-0.169147
C25	C	1.722297	0.538084	-0.169151
C26	C	1.742061	0.576216	-0.106022
C27	C	1.761829	0.538113	-0.042886
C28	C	1.761813	0.461886	-0.042883
C29	C	1.742025	0.423763	-0.106021
C30	C	1.842714	0.696978	-0.059451
C31	C	1.842713	0.773207	-0.059447
C32	C	1.641449	0.773207	-0.152593
C33	C	1.641443	0.696979	-0.152591
C34	C	1.742083	0.658869	-0.106021
C35	C	1.730421	-0.000031	-0.232933
C36	C	1.732819	-0.000042	-0.310055
C37	C	1.884563	0.000015	0.141684
C38	C	1.882310	0.000003	0.214149
C39	C	1.746738	0.000002	0.242949
C40	C	1.613409	-0.000006	0.199278
C41	C	1.615666	-0.000002	0.126815
C42	C	1.640149	0.042420	0.352066
C43	C	1.637898	0.042420	0.424528
C44	C	1.739773	-0.000014	0.466448
C45	C	1.843923	-0.042440	0.435900
C46	C	1.846180	-0.042436	0.363437
C47	C	1.744276	-0.000003	0.321522
C48	C	1.870651	-0.000024	0.588685
C49	C	1.868392	-0.000040	0.661150
C50	C	1.599488	-0.000042	0.646278
C51	C	1.601750	-0.000033	0.573814
C52	C	1.737335	-0.000021	0.545022
H53	H	1.924567	0.195736	-0.021521
H54	H	1.559522	0.804242	-0.190511
Br55	Br	1.420817	-0.000038	0.514555
H56	H	1.976955	-0.000040	0.696699
Br57	Br	1.788671	0.589852	0.042796
H58	H	1.981053	-0.000017	0.565241
H59	H	1.777905	0.430866	0.008524
H60	H	1.924587	0.334023	-0.021521
Br61	Br	1.504862	0.645256	-0.215790
Br62	Br	1.415493	-0.000050	0.685356
H63	H	1.557187	0.076979	0.317939
H64	H	1.706210	0.569102	-0.220560
H65	H	1.553087	0.076961	0.449394
H66	H	1.990872	0.000004	0.249704
Br67	Br	1.987511	-0.100013	0.321979
Br68	Br	1.979290	0.645255	0.003753
Br69	Br	1.504755	0.175044	-0.215775
H70	H	1.503025	-0.000009	0.222732
H71	H	1.507104	-0.000005	0.091265
H72	H	1.924660	0.804234	-0.021525
Br73	Br	1.982193	-0.100033	0.492783
H74	H	1.706151	0.430819	-0.220558
H75	H	1.559438	0.334031	-0.190500
Br76	Br	2.068570	0.000011	0.102612
