data_functionalizedCrystal
_audit_creation_method	'MofGen! by Chris Wilmer'
_symmetry_space_group_name_H-M	'P1'
_symmetry_Int_Tables_number	1
_symmetry_cell_setting	triclinic
loop_
_symmetry_equiv_pos_as_xyz
  x,y,z
_cell_length_a	10.685980
_cell_length_b	13.031981
_cell_length_c	10.686551
_cell_angle_alpha	79.021812
_cell_angle_beta	81.591741
_cell_angle_gamma	100.943887
loop_
_atom_site_label
_atom_site_type_symbol
_atom_site_fract_x
_atom_site_fract_y
_atom_site_fract_z
Zn1	Zn	1.956040	-0.239328	-0.826912
Zn2	Zn	1.907492	-0.432764	-0.582487
Zn3	Zn	1.722532	-0.269046	-0.593435
Zn4	Zn	1.711633	-0.432660	-0.778414
O5	O	1.824424	-0.343450	-0.695312
O6	O	2.129292	-0.252594	-0.810203
O7	O	1.867200	-0.423527	-0.404232
O8	O	1.778386	-0.115678	-0.649285
O9	O	2.093624	-0.394710	-0.630625
O10	O	1.949944	-0.093844	-0.820819
O11	O	1.731311	-0.303245	-0.412276
O12	O	1.541394	-0.303144	-0.602259
O13	O	1.759810	-0.394533	-0.964555
O14	O	1.533387	-0.423350	-0.738162
O15	O	1.939376	-0.252493	-1.000186
O16	O	1.856632	-0.582176	-0.583598
O17	O	1.712735	-0.582100	-0.727546
C18	C	1.490798	-0.366461	-0.666136
C19	C	1.348070	-0.376330	-0.653681
C20	C	1.778270	-0.620879	-0.649152
C21	C	1.758646	-0.739553	-0.629458
C22	C	1.834737	-0.781573	-0.705622
C23	C	1.814456	-0.904229	-0.685269
C24	C	2.159353	-0.320349	-0.724602
C25	C	2.302080	-0.310504	-0.737084
C26	C	1.853793	-0.320187	-1.030269
C27	C	1.866308	-0.310273	-1.173008
C28	C	1.870796	-0.064933	-0.741683
C29	C	1.890557	0.053754	-0.761444
C30	C	1.795257	-0.366540	-0.361677
C31	C	1.783040	-0.376135	-0.219011
H32	H	1.278245	-0.440239	-0.572736
F33	F	1.939501	-0.709911	-0.810560
H34	H	1.734287	-0.959056	-0.604995
F35	F	1.995337	-0.874589	-0.866378
H36	H	1.678483	-0.794383	-0.549190
F37	F	1.677347	-0.459756	-1.127760
H38	H	1.947182	-0.246302	-1.242829
H39	H	1.371897	-0.246593	-0.818016
