data_functionalizedCrystal
_audit_creation_method	'MofGen! by Chris Wilmer'
_symmetry_space_group_name_H-M	'P1'
_symmetry_Int_Tables_number	1
_symmetry_cell_setting	triclinic
loop_
_symmetry_equiv_pos_as_xyz
  x,y,z
_cell_length_a	6.817900
_cell_length_b	19.551136
_cell_length_c	11.168136
_cell_angle_alpha	94.562875
_cell_angle_beta	108.508683
_cell_angle_gamma	101.650842
loop_
_atom_site_label
_atom_site_type_symbol
_atom_site_fract_x
_atom_site_fract_y
_atom_site_fract_z
V1	V	-4.075337	-0.096687	-0.394321
O2	O	-4.071123	0.004635	-0.386175
O3	O	-4.017676	-0.191704	-0.392240
O4	O	-4.052157	-0.095205	-0.566017
O5	O	-4.036403	-0.092532	-0.211194
V6	V	-4.556897	-0.084567	-0.372343
O7	O	-4.340901	-0.123273	-0.442532
O8	O	-4.741529	-0.057981	-0.324132
O9	O	-4.391351	0.010450	-0.374424
O10	O	-4.678508	-0.185890	-0.380489
O11	O	-4.713227	-0.088722	-0.555470
O12	O	-4.356870	-0.086050	-0.200647
C13	C	-3.859608	-0.214867	-0.386178
C14	C	-3.893918	-0.292544	-0.385620
C15	C	-3.853822	-0.319032	-0.269644
C16	C	-3.886126	-0.392016	-0.269082
C17	C	-3.958488	-0.438510	-0.384501
C18	C	-3.998599	-0.412016	-0.500493
C19	C	-3.966314	-0.339033	-0.501053
C20	C	-3.935292	-0.559523	-0.468189
C21	C	-3.967561	-0.632504	-0.467624
C22	C	-4.058076	-0.663614	-0.382779
C23	C	-4.116281	-0.621732	-0.298477
C24	C	-4.083996	-0.548749	-0.299037
C25	C	-3.993503	-0.517649	-0.383907
C26	C	-4.053006	-0.769239	-0.266185
C27	C	-4.085326	-0.842225	-0.265628
C28	C	-4.197779	-0.862223	-0.497042
C29	C	-4.165479	-0.789238	-0.497596
C30	C	-4.093083	-0.742750	-0.382164
C31	C	-3.903591	-0.091771	-0.607847
C32	C	-3.965861	-0.091188	-0.748214
C33	C	-4.167278	-0.094242	-0.816925
C34	C	-4.231641	-0.093639	-0.962002
C35	C	-4.212760	0.033609	-0.380483
C36	C	-4.157689	0.111286	-0.381048
C37	C	-4.168777	-0.089485	-0.158810
C38	C	-4.085746	-0.090065	-0.018442
H39	H	-3.853470	-0.413586	-0.174637
C40	C	-4.209560	-0.760097	-0.625173
C41	C	-4.289158	-0.811235	-0.752136
C42	C	-4.333251	-0.782095	-0.879719
C43	C	-4.297745	-0.701817	-0.880341
C44	C	-4.218142	-0.650674	-0.753374
C45	C	-4.174049	-0.679815	-0.625790
H46	H	-4.315446	-0.870666	-0.751680
H47	H	-4.392178	-0.819954	-0.973709
H48	H	-4.330385	-0.680246	-0.974786
H49	H	-4.191854	-0.591244	-0.753829
H50	H	-4.115122	-0.641955	-0.531800
H51	H	-3.913197	-0.087455	-0.959385
C52	C	-3.774324	-0.267898	-0.142677
C53	C	-3.738892	-0.187620	-0.143283
C54	C	-3.659451	-0.136486	-0.016318
C55	C	-3.615442	-0.165630	0.111254
C56	C	-3.650874	-0.245912	0.111866
C57	C	-3.730315	-0.297046	-0.015099
H58	H	-3.771470	-0.166043	-0.237724
H59	H	-3.633222	-0.077056	-0.016772
H60	H	-3.556636	-0.127777	0.205242
H61	H	-3.618296	-0.267489	0.206307
H62	H	-3.756544	-0.356476	-0.014646
H63	H	-4.131395	-0.514652	-0.230398
H64	H	-4.189967	-0.647059	-0.229381
H65	H	-4.256698	-0.900078	-0.591018
C66	C	-3.903480	-0.678568	-0.560326
C67	C	-3.803916	-0.644352	-0.653653
C68	C	-3.739806	-0.690412	-0.746346
C69	C	-3.775259	-0.770688	-0.745711
C70	C	-3.874828	-0.804908	-0.652380
C71	C	-3.938938	-0.758848	-0.559687
H72	H	-3.777667	-0.584923	-0.654126
H73	H	-3.666099	-0.665080	-0.815435
H74	H	-3.727801	-0.804785	-0.814328
H75	H	-3.901077	-0.864337	-0.651907
H76	H	-4.012645	-0.784180	-0.490598
H77	H	-3.994057	-0.731386	-0.172193
H78	H	-3.861586	-0.534200	-0.537285
C79	C	-4.041221	-0.871365	-0.138047
C80	C	-3.873929	-0.915425	-0.099830
C81	C	-3.829824	-0.944567	0.027752
C82	C	-3.953011	-0.929649	0.117118
C83	C	-4.120315	-0.885587	0.078904
C84	C	-4.164420	-0.856445	-0.048679
H85	H	-3.782728	-0.926470	-0.165986
H86	H	-3.705974	-0.977185	0.056040
H87	H	-3.920362	-0.951222	0.211562
H88	H	-4.211515	-0.874542	0.145059
H89	H	-4.288269	-0.823828	-0.076967
H90	H	-4.404191	-0.096257	-1.021070
H91	H	-4.057520	-0.449876	-0.594468
H92	H	-3.998974	-0.317469	-0.595498
H93	H	-4.292065	-0.097298	-0.768346
H94	H	-3.841068	-0.088122	-0.796790
