data_functionalizedCrystal
_audit_creation_method	'MofGen! by Chris Wilmer'
_symmetry_space_group_name_H-M	'P1'
_symmetry_Int_Tables_number	1
_symmetry_cell_setting	triclinic
loop_
_symmetry_equiv_pos_as_xyz
  x,y,z
_cell_length_a	19.077068
_cell_length_b	29.839134
_cell_length_c	19.076919
_cell_angle_alpha	87.730275
_cell_angle_beta	94.470751
_cell_angle_gamma	87.677143
loop_
_atom_site_label
_atom_site_type_symbol
_atom_site_fract_x
_atom_site_fract_y
_atom_site_fract_z
Zn1	Zn	-0.296776	-0.668657	-0.410063
Zn2	Zn	-0.409930	-0.668601	-0.296908
Zn3	Zn	-0.292051	-0.596678	-0.292170
Zn4	Zn	-0.414616	-0.590364	-0.414726
O5	O	-0.353343	-0.631075	-0.353467
O6	O	-0.311803	-0.731515	-0.395084
O7	O	-0.390354	-0.661679	-0.197633
O8	O	-0.194029	-0.608892	-0.303875
O9	O	-0.394936	-0.731474	-0.311949
O10	O	-0.197501	-0.661774	-0.390490
O11	O	-0.303749	-0.608838	-0.194152
O12	O	-0.308292	-0.532974	-0.308396
O13	O	-0.402923	-0.598130	-0.512754
O14	O	-0.398340	-0.528335	-0.398438
O15	O	-0.316347	-0.655652	-0.509328
O16	O	-0.509200	-0.655557	-0.316471
O17	O	-0.512643	-0.598076	-0.403032
C18	C	-0.353312	-0.514354	-0.353410
C19	C	-0.353317	-0.464420	-0.353402
C20	C	-0.536501	-0.626137	-0.360787
C21	C	-0.614857	-0.624065	-0.363942
C22	C	-0.649855	-0.653040	-0.320394
C23	C	-0.723480	-0.651094	-0.323366
C24	C	-0.762105	-0.620171	-0.369882
C25	C	-0.727102	-0.591194	-0.413435
C26	C	-0.653479	-0.593143	-0.410466
C27	C	-0.982489	-0.611133	-0.383593
C28	C	-1.056118	-0.609186	-0.386557
C29	C	-1.052490	-0.669087	-0.296488
C30	C	-0.978866	-0.671031	-0.293521
C31	C	-0.943869	-0.642056	-0.337076
N32	N	-0.837361	-0.618180	-0.372919
N33	N	-0.868615	-0.644049	-0.334042
C34	C	-0.400301	-0.152368	-0.400277
C35	C	-0.400324	0.035306	-0.400300
O36	O	-0.440234	0.061617	-0.440135
N37	N	-0.353379	0.056369	-0.353489
C38	C	-0.306421	0.030510	-0.306672
O39	O	-0.266487	0.052732	-0.266862
C40	C	-0.306395	-0.157163	-0.306653
C41	C	-0.353348	-0.178224	-0.353462
C42	C	-0.447250	-0.173429	-0.447083
C43	C	-0.447246	-0.220345	-0.447074
C44	C	-0.400294	-0.246200	-0.400259
C45	C	-0.353345	-0.225139	-0.353453
C46	C	-0.259435	-0.183021	-0.259839
C47	C	-0.259431	-0.229942	-0.259840
C48	C	-0.306384	-0.251002	-0.306649
C49	C	-0.306389	-0.297910	-0.306629
N50	N	-0.353334	-0.318973	-0.353440
C51	C	-0.400286	-0.293118	-0.400255
C52	C	-0.306439	0.129042	-0.306685
C53	C	-0.306447	0.175960	-0.306689
C54	C	-0.400349	0.180752	-0.400318
C55	C	-0.400344	0.133833	-0.400310
C56	C	-0.353385	0.107979	-0.353496
C57	C	-0.400275	-0.391645	-0.400233
C58	C	-0.400270	-0.438565	-0.400217
C59	C	-0.306365	-0.443353	-0.306591
C60	C	-0.306373	-0.396437	-0.306603
C61	C	-0.353331	-0.370584	-0.353430
O62	O	-0.266494	-0.324249	-0.266821
O63	O	-0.440204	-0.315348	-0.440070
C64	C	-0.400305	-0.105453	-0.400286
C65	C	-0.353356	-0.084392	-0.353480
C66	C	-0.306403	-0.110247	-0.306665
C67	C	-0.353363	-0.037474	-0.353484
C68	C	-0.400316	-0.011619	-0.400299
C69	C	-0.447261	-0.032682	-0.447110
C70	C	-0.447257	-0.079598	-0.447101
C71	C	-0.259458	-0.089184	-0.259854
C72	C	-0.259466	-0.042268	-0.259866
C73	C	-0.306419	-0.016413	-0.306681
C74	C	-0.169471	-0.636043	-0.346134
C75	C	-0.091115	-0.638161	-0.343009
C76	C	-0.360685	-0.626193	-0.537334
C77	C	-0.363813	-0.624112	-0.615687
C78	C	-0.353377	0.251749	-0.353513
C79	C	-0.353399	0.201815	-0.353504
C80	C	-0.320210	-0.653082	-0.650715
C81	C	-0.323146	-0.651122	-0.724336
C82	C	-0.369691	-0.620194	-0.762928
C83	C	-0.413296	-0.591221	-0.727895
C84	C	-0.410355	-0.593180	-0.654275
C85	C	-0.383317	-0.611124	-0.983299
C86	C	-0.386256	-0.609168	-1.056924
C87	C	-0.296105	-0.669068	-1.053360
C88	C	-0.293171	-0.671026	-0.979739
C89	C	-0.336773	-0.642052	-0.944713
N90	N	-0.372696	-0.618190	-0.838181
N91	N	-0.333765	-0.644053	-0.869461
C92	C	-0.345979	-0.635965	-0.170313
C93	C	-0.342652	-0.638138	-0.091952
H94	H	-0.751972	-0.674688	-0.287904
H95	H	-0.485485	-0.152382	-0.485209
H96	H	-0.418831	-0.587537	-0.954790
O97	O	-0.492753	-0.240849	-0.492585
C98	C	-0.506172	-0.291023	-0.588170
C99	C	-0.454558	-0.267845	-0.536652
H100	H	-0.475311	-0.312847	-0.623821
H101	H	-0.541685	-0.312884	-0.557265
H102	H	-0.539736	-0.264469	-0.621596
H103	H	-0.420948	-0.294368	-0.503213
H104	H	-0.419093	-0.245975	-0.567598
O105	O	-0.213851	-0.162631	-0.214263
C106	C	-0.174682	-0.152374	-0.093024
C107	C	-0.226340	-0.175495	-0.144571
H108	H	-0.184771	-0.162758	-0.036667
H109	H	-0.118346	-0.162819	-0.103171
H110	H	-0.182716	-0.114398	-0.101078
H111	H	-0.218370	-0.213474	-0.136547
H112	H	-0.282657	-0.165013	-0.134411
H113	H	-0.485493	-0.011622	-0.485227
O114	O	-0.764727	-0.561168	-0.458560
C115	C	-0.879753	-0.531634	-0.503077
C116	C	-0.837232	-0.565655	-0.451931
H117	H	-0.938382	-0.535257	-0.497746
H118	H	-0.864879	-0.496117	-0.490053
H119	H	-0.867473	-0.538365	-0.559338
H120	H	-0.849490	-0.558966	-0.395652
H121	H	-0.852113	-0.601161	-0.465016
O122	O	-0.247990	-0.701038	-0.942146
C123	C	-0.203414	-0.730543	-0.827148
C124	C	-0.254641	-0.696550	-0.869637
H125	H	-0.208763	-0.726920	-0.768517
H126	H	-0.216343	-0.766070	-0.842064
H127	H	-0.147170	-0.723785	-0.839415
H128	H	-0.310902	-0.703267	-0.857393
H129	H	-0.241651	-0.661035	-0.854716
H130	H	-0.268140	-0.464413	-0.268473
O131	O	-0.619590	-0.564952	-0.452798
C132	C	-0.630955	-0.505357	-0.542485
C133	C	-0.669421	-0.537247	-0.494566
H134	H	-0.671226	-0.482956	-0.576278
H135	H	-0.595250	-0.483622	-0.508732
H136	H	-0.597903	-0.525910	-0.577956
H137	H	-0.702510	-0.516729	-0.459086
H138	H	-0.705083	-0.558984	-0.528361
H139	H	-0.438507	-0.455710	-0.438336
H140	H	-0.260605	-0.692657	-1.081887
H141	H	-0.947418	-0.696211	-0.255643
O142	O	-0.445956	-0.366602	-0.445745
C143	C	-0.539064	-0.366813	-0.538639
C144	C	-0.487378	-0.395227	-0.487126
H145	H	-0.572557	-0.389945	-0.572119
H146	H	-0.574635	-0.344719	-0.507731
H147	H	-0.508222	-0.344736	-0.574238
H148	H	-0.518163	-0.417331	-0.451515
H149	H	-0.451807	-0.417292	-0.518078
O150	O	-0.458490	-0.561217	-0.765489
C151	C	-0.502946	-0.531635	-0.880480
C152	C	-0.451741	-0.565643	-0.837995
H153	H	-0.497496	-0.535195	-0.939108
H154	H	-0.559231	-0.538370	-0.868329
H155	H	-0.489982	-0.496136	-0.865448
H156	H	-0.464641	-0.601154	-0.853003
H157	H	-0.395471	-0.558868	-0.850150
O158	O	-0.445975	0.113449	-0.445852
C159	C	-0.539142	0.123167	-0.538690
C160	C	-0.487491	0.146306	-0.487159
H161	H	-0.572731	0.149722	-0.572090
H162	H	-0.508342	0.101321	-0.574362
H163	H	-0.574626	0.101322	-0.507727
H164	H	-0.451995	0.168174	-0.518065
H165	H	-0.518335	0.168125	-0.451486
O166	O	-0.260822	0.196470	-0.261303
C167	C	-0.165249	0.246624	-0.248151
C168	C	-0.216886	0.223433	-0.299630
H169	H	-0.129703	0.268422	-0.279118
H170	H	-0.196061	0.268513	-0.212547
H171	H	-0.131722	0.220078	-0.214672
H172	H	-0.250425	0.249949	-0.333155
H173	H	-0.186031	0.201536	-0.335186
O174	O	-0.213912	-0.255105	-0.214330
C175	C	-0.200474	-0.310815	-0.118746
C176	C	-0.252097	-0.282353	-0.170255
H177	H	-0.231326	-0.332845	-0.083089
H178	H	-0.164965	-0.332950	-0.149657
H179	H	-0.166905	-0.287692	-0.085326
H180	H	-0.285712	-0.305443	-0.203688
H181	H	-0.287558	-0.260214	-0.139302
H182	H	-0.485491	-0.096741	-0.485218
O183	O	-0.452643	-0.565059	-0.620135
C184	C	-0.488094	-0.541546	-0.508298
C185	C	-0.440155	-0.573414	-0.546871
H186	H	-0.478025	-0.548297	-0.449058
H187	H	-0.476279	-0.505263	-0.522206
H188	H	-0.545512	-0.547508	-0.525085
H189	H	-0.382721	-0.567494	-0.530105
H190	H	-0.452030	-0.609687	-0.532962
H191	H	-0.618411	-0.678220	-0.282512
H192	H	-1.087565	-0.584009	-0.424448
O193	O	-1.086453	-0.697189	-0.254086
C194	C	-1.104194	-0.721670	-0.135129
C195	C	-1.065695	-0.689809	-0.183065
H196	H	-1.087414	-0.715720	-0.077698
H197	H	-1.163454	-0.714966	-0.145181
H198	H	-1.090176	-0.757938	-0.147027
H199	H	-1.079655	-0.653529	-0.171195
H200	H	-1.006444	-0.696551	-0.173004
H201	H	-0.438579	0.201811	-0.438437
O202	O	-0.260797	0.103997	-0.261136
C203	C	-0.167634	0.104207	-0.168297
C204	C	-0.219295	0.132621	-0.219834
H205	H	-0.134056	0.127338	-0.134901
H206	H	-0.198425	0.082148	-0.132622
H207	H	-0.132139	0.082095	-0.199255
H208	H	-0.254802	0.154760	-0.188933
H209	H	-0.188460	0.154651	-0.255510
O210	O	-0.260702	-0.376048	-0.261104
C211	C	-0.167591	-0.385759	-0.168208
C212	C	-0.219272	-0.408903	-0.219704
H213	H	-0.134092	-0.412311	-0.134713
H214	H	-0.132025	-0.363948	-0.199131
H215	H	-0.198437	-0.363878	-0.132622
H216	H	-0.188483	-0.430806	-0.255302
H217	H	-0.254838	-0.430686	-0.188738
H218	H	-0.954001	-0.587540	-0.419056
H219	H	-0.221232	-0.025125	-0.221742
O220	O	-0.213778	-0.114316	-0.214470
C221	C	-0.118233	-0.170109	-0.201306
C222	C	-0.169913	-0.141669	-0.252789
H223	H	-0.082765	-0.192238	-0.232266
H224	H	-0.084634	-0.147013	-0.167864
H225	H	-0.149082	-0.192155	-0.165667
H226	H	-0.139121	-0.119621	-0.288473
H227	H	-0.203513	-0.164790	-0.286181
H228	H	-0.282310	-0.678268	-0.619299
O229	O	-0.431562	-0.579144	-1.094344
C230	C	-0.552367	-0.553508	-1.121685
C231	C	-0.501139	-0.587527	-1.079253
H232	H	-0.608633	-0.560280	-1.109511
H233	H	-0.539453	-0.517994	-1.106691
H234	H	-0.546939	-0.557084	-1.180314
H235	H	-0.506540	-0.583992	-1.020615
H236	H	-0.514068	-0.623028	-1.094307
H237	H	-0.287641	-0.674713	-0.752853
