data_functionalizedCrystal
_audit_creation_method	'MofGen! by Chris Wilmer'
_symmetry_space_group_name_H-M	'P1'
_symmetry_Int_Tables_number	1
_symmetry_cell_setting	triclinic
loop_
_symmetry_equiv_pos_as_xyz
  x,y,z
_cell_length_a	31.640172
_cell_length_b	18.878441
_cell_length_c	31.640172
_cell_angle_alpha	119.999984
_cell_angle_beta	89.990838
_cell_angle_gamma	59.997147
loop_
_atom_site_label
_atom_site_type_symbol
_atom_site_fract_x
_atom_site_fract_y
_atom_site_fract_z
Zr1	Zr	0.407168	0.775272	0.055403
O2	O	0.339666	0.923078	0.122900
O3	O	0.427861	0.627486	0.034713
O4	O	0.427846	0.775282	0.122890
O5	O	0.339692	0.775266	-0.034835
O6	O	0.497403	0.775267	0.122881
O7	O	0.339681	0.775281	0.034723
O8	O	0.497430	0.510886	-0.034852
O9	O	0.339665	1.039647	0.122898
O10	O	0.488595	0.688254	0.025880
O11	O	0.436694	0.688253	-0.026023
O12	O	0.436676	0.862265	0.077795
O13	O	0.384775	0.862264	0.025892
Zr14	Zr	0.518120	0.775224	-0.055548
Zr15	Zr	0.518103	0.775248	0.055388
Zr16	Zr	0.407185	0.775248	-0.055533
Zr17	Zr	0.407166	0.961186	0.055400
Zr18	Zr	0.518122	0.589310	-0.055545
O19	O	0.497427	0.923010	-0.034858
O20	O	0.497402	0.923045	0.122879
O21	O	0.339691	0.923044	-0.034837
O22	O	0.585621	0.627418	-0.123044
O23	O	0.585597	0.627452	0.034692
O24	O	0.427885	0.627451	-0.123023
O25	O	0.585596	0.775229	0.034690
O26	O	0.497441	0.775214	-0.123035
O27	O	0.427884	0.775228	-0.123025
O28	O	0.585607	0.775214	-0.034867
O29	O	0.427844	1.039629	0.122886
O30	O	0.497443	0.510867	-0.123031
O31	O	0.585622	0.510849	-0.123043
O32	O	0.585609	0.510868	-0.034864
O33	O	0.339679	1.039628	0.034719
O34	O	0.427858	1.039609	0.034707
O35	O	0.488611	0.688231	-0.077939
O36	O	0.540513	0.688231	-0.026036
O37	O	0.488594	0.862242	0.025878
O38	O	0.436692	0.862242	-0.026025
C39	C	0.462646	0.542697	-0.000069
C40	C	0.462646	0.463772	-0.000068
C41	C	0.489737	0.426692	0.027025
C42	C	0.489739	0.352528	0.027021
C43	C	0.462647	0.315449	-0.000073
C44	C	0.435555	0.352532	-0.027170
C45	C	0.435556	0.426690	-0.027169
C46	C	0.435553	0.197965	-0.027169
C47	C	0.435551	0.123803	-0.027170
C48	C	0.489736	0.123804	0.027021
C49	C	0.489737	0.197961	0.027022
C50	C	0.462644	0.235040	-0.000074
C51	C	0.323881	0.775277	-0.000054
C52	C	0.276786	0.775287	-0.000048
C53	C	0.011881	0.684407	-0.027181
C54	C	-0.165104	0.684389	-0.027192
O55	O	-0.164942	0.607139	-0.050257
N56	N	-0.214335	0.775220	-0.000092
C57	C	-0.219319	0.866062	0.027009
O58	O	-0.265254	0.943320	0.050054
C59	C	-0.042335	0.866079	0.027016
C60	C	0.006896	0.775242	-0.000081
C61	C	0.061109	0.593577	-0.054277
C62	C	0.105352	0.593582	-0.054271
C63	C	0.100367	0.684417	-0.027171
C64	C	0.051139	0.775247	-0.000076
C65	C	-0.047319	0.956920	0.054113
C66	C	-0.003068	0.956916	0.054112
C67	C	0.046163	0.866079	0.027015
C68	C	0.090398	0.866087	0.027029
N69	N	0.139629	0.775256	-0.000070
C70	C	0.144613	0.684421	-0.027170
C71	C	-0.312237	0.866047	0.027004
C72	C	-0.356483	0.866044	0.027003
C73	C	-0.302265	0.684370	-0.027198
C74	C	-0.258018	0.684375	-0.027194
C75	C	-0.263006	0.775216	-0.000095
C76	C	0.237526	0.684439	-0.027157
C77	C	0.281770	0.684452	-0.027148
C78	C	0.227549	0.866125	0.027051
C79	C	0.183308	0.866112	0.027044
C80	C	0.188300	0.775261	-0.000064
O81	O	0.090274	0.943296	0.050078
O82	O	0.190552	0.607175	-0.050221
C83	C	-0.032363	0.684401	-0.027187
C84	C	-0.081591	0.775231	-0.000091
C85	C	-0.086576	0.866066	0.027009
C86	C	-0.125837	0.775227	-0.000092
C87	C	-0.120852	0.684392	-0.027193
C88	C	-0.071621	0.593561	-0.054292
C89	C	-0.027378	0.593566	-0.054287
C90	C	-0.135807	0.956897	0.054108
C91	C	-0.180048	0.956885	0.054101
C92	C	-0.175063	0.866050	0.027001
C93	C	0.601407	0.775219	-0.000091
C94	C	0.648502	0.775209	-0.000097
C95	C	0.462622	0.775278	0.138691
C96	C	0.462615	0.775288	0.185786
C97	C	0.462642	1.007799	-0.000075
C98	C	0.462642	1.086724	-0.000077
C99	C	0.500968	0.775241	0.477790
C100	C	0.500978	0.775235	0.654778
O101	O	0.533581	0.775184	0.677647
N102	N	0.462657	0.775246	0.676914
C103	C	0.424334	0.775251	0.654799
O104	O	0.391743	0.775250	0.677685
C105	C	0.424327	0.775250	0.477809
C106	C	0.462647	0.775250	0.455678
C107	C	0.539285	0.775239	0.455659
C108	C	0.539281	0.775246	0.411416
C109	C	0.500959	0.775255	0.389304
C110	C	0.462642	0.775257	0.411435
C111	C	0.386006	0.775249	0.455692
C112	C	0.386008	0.775246	0.411441
C113	C	0.424328	0.775246	0.389310
C114	C	0.424316	0.775273	0.345081
N115	N	0.462637	0.775262	0.322945
C116	C	0.500958	0.775253	0.345057
C117	C	0.424339	0.775254	0.747721
C118	C	0.424341	0.775256	0.791969
C119	C	0.500985	0.775237	0.791945
C120	C	0.500982	0.775242	0.747699
C121	C	0.462660	0.775243	0.725585
C122	C	0.500946	0.775268	0.252144
C123	C	0.500937	0.775280	0.207898
C124	C	0.424294	0.775293	0.207924
C125	C	0.424301	0.775287	0.252167
C126	C	0.462631	0.775271	0.274275
O127	O	0.391734	0.775312	0.322182
O128	O	0.533551	0.775232	0.322156
C129	C	0.500973	0.775234	0.522033
C130	C	0.462655	0.775236	0.544164
C131	C	0.424334	0.775245	0.522052
C132	C	0.462657	0.775238	0.588412
C133	C	0.500978	0.775229	0.610523
C134	C	0.539299	0.775218	0.588387
C135	C	0.539294	0.775225	0.544145
C136	C	0.386013	0.775255	0.544188
C137	C	0.386021	0.775250	0.588431
C138	C	0.424342	0.775241	0.610543
C139	C	0.462663	0.775228	0.861167
C140	C	0.462662	0.775247	0.814081
C141	C	0.601409	0.542668	-0.000088
C142	C	0.648505	0.463732	-0.000093
C143	C	0.462667	0.542667	-0.138833
C144	C	0.462675	0.463731	-0.185927
C145	C	0.601430	0.542638	-0.138851
C146	C	0.648533	0.463692	-0.185951
C147	C	0.323857	1.007858	0.138707
C148	C	0.276754	1.086804	0.185807
C149	C	0.323879	1.007828	-0.000057
C150	C	0.276783	1.086763	-0.000052
C151	C	0.462621	1.007829	0.138688
C152	C	0.462613	1.086765	0.185782
C153	C	0.643521	0.426675	0.027009
C154	C	0.687768	0.352517	0.027015
C155	C	0.736998	0.315412	-0.000085
C156	C	0.741981	0.352477	-0.027188
C157	C	0.697734	0.426639	-0.027190
C158	C	0.489779	0.426650	-0.235147
C159	C	0.489785	0.352492	-0.279401
C160	C	0.462689	0.315411	-0.274434
C161	C	0.435581	0.352499	-0.225208
C162	C	0.435573	0.426661	-0.180955
C163	C	0.697750	0.426618	-0.180978
C164	C	0.742012	0.352450	-0.225229
C165	C	0.737057	0.315353	-0.274454
C166	C	0.687835	0.352434	-0.279427
C167	C	0.643574	0.426605	-0.235176
C168	C	0.227538	1.123887	0.180833
C169	C	0.183275	1.198077	0.225084
C170	C	0.188231	1.235179	0.274309
C171	C	0.237453	1.198093	0.279282
C172	C	0.281714	1.123909	0.235031
C173	C	0.281767	1.123829	-0.027149
C174	C	0.237520	1.198007	-0.027143
C175	C	0.188290	1.235114	-0.000041
C176	C	0.183307	1.198046	0.027060
C177	C	0.227553	1.123874	0.027056
C178	C	0.489714	1.123822	0.180798
C179	C	0.489717	1.197981	0.225044
C180	C	0.462615	1.235086	0.274273
C181	C	0.435513	1.198021	0.279256
C182	C	0.435513	1.123858	0.235011
H183	H	0.413495	0.456881	-0.049229
Cl184	Cl	0.803885	0.305845	-0.218965
Cl185	Cl	0.523867	0.305879	-0.341278
H186	H	0.321856	0.610478	-0.049215
H187	H	0.321849	1.093622	-0.049222
Cl188	Cl	0.523790	1.077191	0.118915
Cl189	Cl	0.523786	0.305937	0.061095
H190	H	0.241481	1.228311	0.319366
H191	H	0.143221	0.940079	0.049116
Cl192	Cl	-0.241936	1.071092	0.088171
H193	H	0.701800	0.456801	-0.049263
H194	H	0.511795	0.228156	0.049087
Cl195	Cl	0.401499	0.473262	-0.119080
Cl196	Cl	0.523848	0.473249	-0.241406
H197	H	0.511795	0.093610	0.049083
Cl198	Cl	0.587473	0.775210	0.616195
Cl199	Cl	0.121403	1.244680	0.218821
H200	H	0.143217	1.228270	0.049125
H201	H	0.152186	1.295584	0.310337
H202	H	0.773022	0.255024	-0.000080
Cl203	Cl	0.703994	0.473247	-0.119100
Cl204	Cl	0.792706	0.222105	-0.330080
Cl205	Cl	0.376120	0.775305	0.180120
Cl206	Cl	0.549161	0.775224	0.819751
Cl207	Cl	0.523787	1.244568	0.218767
H208	H	0.683700	0.322348	0.049085
H209	H	0.462618	1.295474	0.310296
H210	H	0.241587	1.228176	-0.049213
H211	H	0.413447	1.228243	0.319344
H212	H	0.413520	0.322296	-0.221171
Cl213	Cl	0.401434	1.077290	0.241286
Cl214	Cl	0.401493	0.244577	-0.061233
H215	H	0.511796	0.456881	0.049091
H216	H	0.413489	0.093617	-0.049232
Cl217	Cl	0.462705	0.222176	-0.330072
Cl218	Cl	0.132670	1.328358	-0.000043
H219	H	0.241598	0.610459	-0.049231
H220	H	-0.139873	1.030868	0.076178
H221	H	0.145435	0.519613	-0.076334
Cl222	Cl	0.401504	0.305905	-0.061240
Cl223	Cl	0.067388	0.479368	-0.088351
Cl224	Cl	-0.196132	0.570176	-0.061261
H225	H	-0.316306	0.940026	0.049075
H226	H	0.393093	0.775302	0.270191
Cl227	Cl	0.221279	1.077280	0.061121
H228	H	0.393132	0.775272	0.809989
Cl229	Cl	-0.296006	0.570178	-0.061267
Cl230	Cl	0.681614	0.305784	-0.341314
H231	H	0.223493	1.093682	0.140756
Cl232	Cl	-0.418368	0.980244	0.061077
H233	H	-0.007134	1.030892	0.076172
Cl234	Cl	-0.109200	1.071123	0.088175
H235	H	0.321787	1.093717	0.239087
Cl236	Cl	0.221292	0.980312	0.061110
H237	H	0.603501	0.456781	-0.239233
Cl238	Cl	0.549113	0.775281	0.180080
H239	H	-0.067569	0.519600	-0.076355
Cl240	Cl	0.034507	0.479364	-0.088355
Cl241	Cl	0.549133	0.775251	0.279930
Cl242	Cl	0.587459	0.775235	0.383597
H243	H	0.570494	0.775228	0.473657
Cl244	Cl	0.803875	0.305816	-0.061257
Cl245	Cl	0.549158	0.775238	0.719881
Cl246	Cl	0.376158	0.775260	0.719928
Cl247	Cl	0.337829	0.775245	0.383643
Cl248	Cl	0.337831	0.775246	0.483503
H249	H	0.354812	0.775258	0.606449
Cl250	Cl	0.587471	0.775222	0.516328
H251	H	0.354808	0.775261	0.526187
H252	H	0.603439	0.456885	0.049084
