data_functionalizedCrystal
_audit_creation_method	'MofGen! by Chris Wilmer'
_symmetry_space_group_name_H-M	'P1'
_symmetry_Int_Tables_number	1
_symmetry_cell_setting	triclinic
loop_
_symmetry_equiv_pos_as_xyz
  x,y,z
_cell_length_a	6.817900
_cell_length_b	14.125369
_cell_length_c	11.102182
_cell_angle_alpha	94.633098
_cell_angle_beta	108.603774
_cell_angle_gamma	100.397648
loop_
_atom_site_label
_atom_site_type_symbol
_atom_site_fract_x
_atom_site_fract_y
_atom_site_fract_z
V1	V	-4.069668	-0.133123	-0.395758
O2	O	-4.072554	0.006387	-0.388739
O3	O	-4.005320	-0.263951	-0.392557
O4	O	-4.047084	-0.131080	-0.568588
O5	O	-4.030502	-0.127404	-0.211490
V6	V	-4.552017	-0.116436	-0.373778
O7	O	-4.333501	-0.169729	-0.443973
O8	O	-4.738381	-0.079830	-0.325563
O9	O	-4.393158	0.014392	-0.376979
O10	O	-4.666527	-0.255946	-0.380798
O11	O	-4.708580	-0.122155	-0.558047
O12	O	-4.351394	-0.118479	-0.200949
C13	C	-3.845606	-0.295844	-0.386186
C14	C	-3.874453	-0.402798	-0.384721
C15	C	-3.898878	-0.126353	-0.610729
C16	C	-3.961592	-0.125548	-0.752015
C17	C	-4.113681	-0.650939	-0.387455
C18	C	-3.927383	-0.598621	-0.382086
C19	C	-3.897933	-0.489655	-0.383552
C20	C	-4.143138	-0.759914	-0.385989
C21	C	-4.023530	-0.213270	-0.836221
C22	C	-4.082475	-0.212502	-0.968972
C23	C	-4.017527	-0.036280	-0.933297
C24	C	-3.958597	-0.037050	-0.800549
C25	C	-4.026524	-0.301768	-0.787687
C26	C	-4.088464	-0.389498	-0.871894
C27	C	-4.147409	-0.388729	-1.004646
C28	C	-4.144415	-0.300231	-1.053189
C29	C	-4.162940	-0.123210	-0.158801
C30	C	-4.079466	-0.124010	-0.017514
C31	C	-4.216213	0.046280	-0.383347
C32	C	-4.166605	0.153233	-0.384820
H33	H	-4.251048	-0.613896	-0.393151
H34	H	-3.790004	-0.635665	-0.376388
C35	C	-4.014212	0.061062	-0.986692
C36	C	-3.805459	0.138221	-0.947581
C37	C	-3.802135	0.235565	-1.000974
C38	C	-4.007564	0.255751	-1.093479
C39	C	-4.216333	0.178590	-1.132596
C40	C	-4.219657	0.081246	-1.079202
H41	H	-3.653375	0.123280	-0.879098
H42	H	-3.647590	0.292684	-0.972017
H43	H	-4.005103	0.327811	-1.133004
H44	H	-4.368417	0.193531	-1.201078
H45	H	-4.374202	0.024126	-1.108160
H46	H	-3.978525	-0.302403	-0.679596
H47	H	-4.090912	-0.461550	-0.832362
H48	H	-4.197859	-0.460164	-1.073205
C49	C	-4.209272	-0.299388	-1.199218
C50	C	-4.397684	-0.255084	-1.268554
C51	C	-4.462534	-0.254242	-1.414579
C52	C	-4.338973	-0.297704	-1.491270
C53	C	-4.150549	-0.342011	-1.421934
C54	C	-4.085699	-0.342853	-1.275908
H55	H	-4.489162	-0.222908	-1.211783
H56	H	-4.602019	-0.221443	-1.465906
H57	H	-4.386979	-0.297081	-1.599367
H58	H	-4.059071	-0.374187	-1.478705
H59	H	-3.946214	-0.375652	-1.224582
H60	H	-3.908163	0.034381	-0.731985
