data_functionalizedCrystal
_audit_creation_method	'MofGen! by Chris Wilmer'
_symmetry_space_group_name_H-M	'P1'
_symmetry_Int_Tables_number	1
_symmetry_cell_setting	triclinic
loop_
_symmetry_equiv_pos_as_xyz
  x,y,z
_cell_length_a	11.792241
_cell_length_b	16.992695
_cell_length_c	16.053802
_cell_angle_alpha	92.741074
_cell_angle_beta	87.405349
_cell_angle_gamma	87.430819
loop_
_atom_site_label
_atom_site_type_symbol
_atom_site_fract_x
_atom_site_fract_y
_atom_site_fract_z
O1	O	1.520188	0.104234	-0.069348
O2	O	1.190755	0.115313	-0.069368
O3	O	1.354150	-0.004375	-0.069352
O4	O	1.356793	0.223921	-0.069365
O5	O	1.345154	0.002186	0.069506
O6	O	1.181759	0.121873	0.069490
O7	O	1.511192	0.110794	0.069510
Zn8	Zn	1.345047	0.117375	0.091547
Zn9	Zn	1.356900	0.108732	-0.091405
O10	O	1.347796	0.230482	0.069493
C11	C	1.346255	-0.030321	0.000077
C12	C	1.336117	-0.117409	0.000076
C13	C	1.143909	0.117897	0.000059
C14	C	1.017725	0.115813	0.000051
C15	C	1.433934	-0.167233	0.000083
C16	C	1.424402	-0.249061	0.000074
C17	C	1.317051	-0.281062	0.000065
C18	C	1.219227	-0.231231	0.000056
C19	C	1.228760	-0.149406	0.000059
C20	C	1.277540	-0.524828	0.000051
C21	C	1.268013	-0.606660	0.000051
C22	C	1.473190	-0.624484	0.000068
C23	C	1.482713	-0.542656	0.000076
C24	C	1.384889	-0.492833	0.000062
N25	N	1.307305	-0.364703	0.000059
N26	N	1.394636	-0.409194	0.000062
C27	C	0.786698	0.111984	0.000076
C28	C	0.915258	0.114112	0.000062
C29	C	1.558038	0.108210	0.000081
C30	C	1.684222	0.110293	0.000083
C31	C	1.355692	0.256428	0.000063
C32	C	1.365831	0.343515	0.000058
N33	N	1.336966	0.123274	0.216406
N34	N	1.364989	0.102827	-0.216264
C35	C	1.406520	0.072365	0.260107
C36	C	1.400878	0.076499	0.347513
C37	C	1.325688	0.131546	0.391217
C38	C	1.256126	0.182457	0.347510
C39	C	1.261763	0.178319	0.260105
C40	C	1.301064	0.149600	0.652624
C41	C	1.295435	0.153735	0.740035
C42	C	1.440186	0.047776	0.740032
C43	C	1.445821	0.043646	0.652626
C44	C	1.376256	0.094554	0.608926
N45	N	1.319922	0.135774	0.480560
N46	N	1.382016	0.090321	0.519585
H47	H	1.521350	-0.141184	0.000096
Br48	Br	1.557161	-0.316677	0.000083
H49	H	1.507047	-0.001178	0.617044
H50	H	1.131820	-0.257293	0.000043
H51	H	1.205123	0.219774	0.224525
Br52	Br	1.144777	-0.457222	0.000028
H53	H	1.149107	-0.108839	0.000053
Br54	Br	1.508578	-0.002340	0.200804
H55	H	1.496822	0.006328	0.775620
Br56	Br	1.206659	0.218689	0.593322
Br57	Br	1.628411	-0.499232	0.000061
Br58	Br	1.495269	0.007405	0.406824
Br59	Br	1.154071	0.257160	0.406819
Br60	Br	1.605944	-0.692104	0.000087
Br61	Br	1.122313	-0.650090	0.000048
H62	H	1.234203	0.198565	0.775614
