data_functionalizedCrystal
_audit_creation_method	'MofGen! by Chris Wilmer'
_symmetry_space_group_name_H-M	'P1'
_symmetry_Int_Tables_number	1
_symmetry_cell_setting	triclinic
loop_
_symmetry_equiv_pos_as_xyz
  x,y,z
_cell_length_a	15.298068
_cell_length_b	16.959453
_cell_length_c	15.298259
_cell_angle_alpha	80.286568
_cell_angle_beta	91.587309
_cell_angle_gamma	99.679525
loop_
_atom_site_label
_atom_site_type_symbol
_atom_site_fract_x
_atom_site_fract_y
_atom_site_fract_z
Zn1	Zn	1.253484	-0.014507	-0.727436
Zn2	Zn	1.278733	-0.165093	-0.580949
Zn3	Zn	1.132342	-0.058949	-0.555584
Zn4	Zn	1.106980	-0.172695	-0.701984
O5	O	1.192885	-0.102811	-0.641488
O6	O	1.379411	-0.012702	-0.729271
O7	O	1.280494	-0.166431	-0.455010
O8	O	1.148459	0.057570	-0.578417
O9	O	1.397961	-0.123337	-0.621647
O10	O	1.237462	0.090221	-0.704676
O11	O	1.172941	-0.088447	-0.436375
O12	O	1.006400	-0.095818	-0.553738
O13	O	1.105234	-0.136293	-0.827934
O14	O	0.987766	-0.179387	-0.661297
O15	O	1.212870	-0.020073	-0.846634
O16	O	1.255902	-0.276725	-0.596968
O17	O	1.129716	-0.282310	-0.685892
C18	C	0.965300	-0.143251	-0.602004
C19	C	0.867934	-0.160567	-0.585133
C20	C	0.554787	0.020755	-0.762068
C21	C	0.646266	0.037023	-0.777924
C22	C	0.701687	-0.012373	-0.729728
C23	C	0.665621	-0.078040	-0.665673
C24	C	0.574133	-0.094314	-0.649820
C25	C	0.721033	-0.127442	-0.617479
C26	C	0.684967	-0.193109	-0.553424
C27	C	0.593487	-0.209379	-0.537574
C28	C	0.538066	-0.159983	-0.585771
C29	C	0.812522	-0.111168	-0.633332
C30	C	0.831868	-0.226237	-0.521084
C31	C	0.740389	-0.242505	-0.505228
C32	C	1.192817	-0.308195	-0.641443
C33	C	1.192863	-0.396040	-0.641468
C34	C	1.239282	-0.750424	-0.707349
C35	C	1.146710	-0.784536	-0.575800
C36	C	1.146681	-0.701998	-0.575774
C37	C	1.192952	-0.643669	-0.641538
C38	C	1.239252	-0.667878	-0.707327
C39	C	1.100374	-0.677784	-0.509991
C40	C	1.100342	-0.595242	-0.509963
C41	C	1.146619	-0.536911	-0.575724
C42	C	1.192922	-0.561124	-0.641515
C43	C	1.239194	-0.502795	-0.707279
C44	C	1.285502	-0.527006	-0.773068
C45	C	1.285529	-0.609547	-0.773088
C46	C	1.146592	-0.454369	-0.575704
C47	C	1.239164	-0.420249	-0.707257
C48	C	1.421358	-0.062214	-0.681127
C49	C	1.518720	-0.044914	-0.698019
C50	C	1.153406	-0.074074	-0.869955
C51	C	1.136583	-0.061828	-0.967314
C52	C	1.192973	0.103381	-0.641556
C53	C	1.193011	0.191247	-0.641586
C54	C	1.313153	-0.189722	-1.280554
C55	C	1.328954	-0.201234	-1.189080
C56	C	1.280863	-0.166383	-1.133634
C57	C	1.216967	-0.120019	-1.169671
C58	C	1.201158	-0.108512	-1.261153
C59	C	1.168869	-0.085173	-1.114233
C60	C	1.104973	-0.038809	-1.150270
C61	C	1.089168	-0.027303	-1.241744
C62	C	1.137259	-0.062153	-1.297190
C63	C	1.184677	-0.096680	-1.022751
C64	C	1.072683	-0.015470	-1.003350
C65	C	1.056881	-0.003958	-1.094824
C66	C	1.232260	-0.131371	-0.413919
C67	C	1.249253	-0.143364	-0.316590
H68	H	0.463574	-0.173230	-0.572870
O69	O	0.554582	-0.280203	-0.468486
H70	H	0.608487	-0.311812	-0.437627
O71	O	1.050401	-0.569135	-0.439004
H72	H	1.058150	-0.501940	-0.450036
H73	H	1.380971	-0.238993	-1.159744
O74	O	1.096657	-0.428254	-0.504750
H75	H	1.025317	-0.454477	-0.507789
H76	H	1.236708	-0.134425	-0.993420
H77	H	1.323231	-0.629268	-0.826650
O78	O	0.701487	-0.313331	-0.436141
H79	H	0.653049	-0.356097	-0.468041
H80	H	0.509654	0.060962	-0.801308
H81	H	1.062699	-0.725280	-0.456452
H82	H	1.352295	-0.218099	-1.325704
O83	O	1.297912	-0.178784	-1.034973
H84	H	1.350430	-0.216870	-1.019230
O85	O	1.289216	-0.776535	-0.778310
H86	H	1.340593	-0.811131	-0.746894
H87	H	0.841877	-0.057700	-0.685485
H88	H	0.776173	0.000879	-0.742639
O89	O	1.096818	-0.847440	-0.504861
H90	H	1.104625	-0.908904	-0.515923
H91	H	0.876992	-0.266462	-0.481842
O92	O	1.120465	-0.049627	-1.395898
H93	H	1.098633	-0.109305	-1.417083
H94	H	1.037131	0.010441	-1.271080
O95	O	0.685159	0.107846	-0.847008
H96	H	0.758082	0.110858	-0.849942
H97	H	1.276848	-0.372760	-0.760807
O98	O	1.335413	-0.464092	-0.843996
H99	H	1.327611	-0.402631	-0.832921
O100	O	0.987977	0.046060	-1.133696
H101	H	0.985070	0.048206	-1.206620
O102	O	1.020811	0.022131	-0.943562
H103	H	1.042546	0.006349	-0.873899
