data_functionalizedCrystal
_audit_creation_method	'MofGen! by Chris Wilmer'
_symmetry_space_group_name_H-M	'P1'
_symmetry_Int_Tables_number	1
_symmetry_cell_setting	triclinic
loop_
_symmetry_equiv_pos_as_xyz
  x,y,z
_cell_length_a	13.897448
_cell_length_b	13.897449
_cell_length_c	10.685986
_cell_angle_alpha	94.349164
_cell_angle_beta	85.588833
_cell_angle_gamma	90.018972
loop_
_atom_site_label
_atom_site_type_symbol
_atom_site_fract_x
_atom_site_fract_y
_atom_site_fract_z
Zn1	Zn	-0.342062	1.432917	-0.713457
Zn2	Zn	0.157938	1.932917	-0.213457
Zn3	Zn	-0.515773	1.445169	-0.502449
Zn4	Zn	-0.015773	1.945169	-0.002449
Zn5	Zn	-0.354496	1.283963	-0.502471
Zn6	Zn	0.145504	1.783963	-0.002471
Zn7	Zn	-0.503324	1.271592	-0.713397
Zn8	Zn	-0.003324	1.771592	-0.213397
O9	O	-0.428914	1.358410	-0.607944
O10	O	0.071086	1.858410	-0.107944
O11	O	-0.365112	1.569523	-0.685482
O12	O	0.134888	2.069523	-0.185482
O13	O	-0.504792	1.434090	-0.325872
O14	O	-0.004792	1.934090	0.174128
O15	O	-0.217863	1.303772	-0.530494
O16	O	0.282137	1.803772	-0.030494
O17	O	-0.492736	1.578525	-0.530456
O18	O	0.007264	2.078525	-0.030456
O19	O	-0.208728	1.413208	-0.685504
O20	O	0.291272	1.913208	-0.185504
O21	O	-0.386303	1.315653	-0.325888
O22	O	0.113697	1.815653	0.174112
O23	O	-0.374232	1.147341	-0.530435
O24	O	0.125768	1.647341	-0.030435
O25	O	-0.471519	1.282687	-0.889985
O26	O	0.028481	1.782687	-0.389985
O27	O	-0.483576	1.138252	-0.685401
O28	O	0.016424	1.638252	-0.185401
O29	O	-0.353041	1.401212	-0.890029
O30	O	0.146959	1.901212	-0.390029
O31	O	-0.649105	1.422094	-0.530397
O32	O	-0.149105	1.922094	-0.030397
O33	O	-0.639959	1.294567	-0.685380
O34	O	-0.139959	1.794567	-0.185380
C35	C	-0.428903	1.107798	-0.607915
C36	C	0.071097	1.607798	-0.107915
C37	C	-0.428919	1.000583	-0.607932
C38	C	0.071081	1.500583	-0.107932
C39	C	-0.679530	1.358342	-0.607907
C40	C	-0.179530	1.858342	-0.107907
C41	C	-0.786743	1.358399	-0.607934
C42	C	-0.286743	1.858399	-0.107934
C43	C	-0.428921	0.804286	-0.607965
C44	C	0.071079	1.304286	-0.107965
C45	C	-0.428917	0.913519	-0.607944
C46	C	0.071083	1.413519	-0.107944
C47	C	-0.983033	1.358495	-0.608013
C48	C	-0.483033	1.858495	-0.108013
C49	C	-0.873803	1.358439	-0.607973
C50	C	-0.373803	1.858439	-0.107973
C51	C	-0.177317	1.358504	-0.608008
C52	C	0.322683	1.858504	-0.108008
C53	C	-0.070102	1.358543	-0.608035
C54	C	0.429898	1.858543	-0.108035
C55	C	-0.409505	1.339203	-0.937073
C56	C	0.090495	1.839203	-0.437073
C57	C	-0.401234	1.331017	-1.077328
C58	C	0.098766	1.831017	-0.577328
C59	C	-0.428926	1.610002	-0.607973
C60	C	0.071074	2.110002	-0.107973
C61	C	-0.428931	1.717215	-0.607986
C62	C	0.071069	2.217215	-0.107986
C63	C	-0.448178	1.377599	-0.280095
C64	C	0.051822	1.877599	0.219905
C65	C	-0.456177	1.385971	-0.139840
C66	C	0.043823	1.885971	0.360160
H67	H	-0.347867	1.277712	-1.131108
H68	H	0.152133	1.777712	-0.631108
H69	H	-0.509539	1.439288	-1.086054
H70	H	-0.009539	1.939288	-0.586054
