data_functionalizedCrystal
_audit_creation_method	'MofGen! by Chris Wilmer'
_symmetry_space_group_name_H-M	'P1'
_symmetry_Int_Tables_number	1
_symmetry_cell_setting	triclinic
loop_
_symmetry_equiv_pos_as_xyz
  x,y,z
_cell_length_a	29.839134
_cell_length_b	29.839126
_cell_length_c	21.295417
_cell_angle_alpha	89.975617
_cell_angle_beta	90.022447
_cell_angle_gamma	89.968028
loop_
_atom_site_label
_atom_site_type_symbol
_atom_site_fract_x
_atom_site_fract_y
_atom_site_fract_z
Zn1	Zn	0.686790	-0.254152	-0.250779
Zn2	Zn	0.686728	-0.179022	-0.356038
Zn3	Zn	0.611663	-0.179019	-0.250773
Zn4	Zn	0.611636	-0.254107	-0.356001
O5	O	0.649204	-0.216575	-0.303398
O6	O	0.749649	-0.244206	-0.264760
O7	O	0.676755	-0.116154	-0.342087
O8	O	0.621666	-0.189003	-0.162685
O9	O	0.749603	-0.189008	-0.342093
O10	O	0.676862	-0.244203	-0.162689
O11	O	0.621606	-0.116152	-0.264750
O12	O	0.548792	-0.188959	-0.264714
O13	O	0.621620	-0.316980	-0.342030
O14	O	0.548773	-0.244126	-0.342025
O15	O	0.676836	-0.317013	-0.264724
O16	O	0.676729	-0.188965	-0.444122
O17	O	0.621560	-0.244130	-0.444095
C18	C	0.532482	-0.216538	-0.303365
C19	C	0.482547	-0.216533	-0.303366
C20	C	0.125958	-0.187908	-0.263083
C21	C	0.313631	-0.187881	-0.263065
O22	O	0.337894	-0.163502	-0.228761
N23	N	0.337102	-0.216555	-0.303377
C24	C	0.313652	-0.245241	-0.343692
O25	O	0.337922	-0.269633	-0.377975
C26	C	0.125980	-0.245270	-0.343706
C27	C	0.102511	-0.216590	-0.303397
C28	C	0.102489	-0.159231	-0.222776
C29	C	0.055574	-0.159237	-0.222783
C30	C	0.032127	-0.187919	-0.263097
C31	C	0.055596	-0.216596	-0.303404
C32	C	0.102531	-0.273957	-0.384019
C33	C	0.055610	-0.273963	-0.384017
C34	C	0.032141	-0.245283	-0.343708
C35	C	-0.014766	-0.245283	-0.343725
N36	N	-0.038238	-0.216609	-0.303414
C37	C	-0.014791	-0.187927	-0.263100
C38	C	0.412183	-0.245223	-0.343683
C39	C	0.459101	-0.245215	-0.343680
C40	C	0.459076	-0.187856	-0.263052
C41	C	0.412157	-0.187861	-0.263058
C42	C	0.388712	-0.216548	-0.303372
C43	C	-0.113317	-0.187940	-0.263119
C44	C	-0.160236	-0.187947	-0.263131
C45	C	-0.160208	-0.245307	-0.343757
C46	C	-0.113292	-0.245299	-0.343747
C47	C	-0.089848	-0.216614	-0.303423
O48	O	-0.039058	-0.269653	-0.378006
O49	O	-0.039069	-0.163545	-0.228813
C50	C	0.172873	-0.187903	-0.263076
C51	C	0.196342	-0.216580	-0.303382
C52	C	0.172895	-0.245262	-0.343696
C53	C	0.243260	-0.216572	-0.303380
C54	C	0.266707	-0.187890	-0.263066
C55	C	0.243235	-0.159215	-0.222754
C56	C	0.196320	-0.159221	-0.222762
C57	C	0.196367	-0.273936	-0.384008
C58	C	0.243282	-0.273928	-0.383998
C59	C	0.266729	-0.245246	-0.343684
C60	C	0.649232	-0.333753	-0.303374
C61	C	0.649244	-0.383688	-0.303363
C62	C	0.620536	-0.693333	-0.263031
C63	C	0.620549	-0.881006	-0.262987
O64	O	0.596118	-0.905272	-0.228758
N65	N	0.649265	-0.904473	-0.303245
C66	C	0.677978	-0.881019	-0.343520
O67	O	0.702400	-0.905285	-0.377766
C68	C	0.677963	-0.693347	-0.343567
C69	C	0.649248	-0.669882	-0.303301
C70	C	0.591824	-0.669869	-0.222769
C71	C	0.591822	-0.622953	-0.222778
C72	C	0.620534	-0.599502	-0.263049
C73	C	0.649247	-0.622967	-0.303310
C74	C	0.706673	-0.669893	-0.383844
C75	C	0.706666	-0.622972	-0.383854
C76	C	0.677951	-0.599508	-0.343588
C77	C	0.677957	-0.552600	-0.343590
N78	N	0.649241	-0.529133	-0.303331
C79	C	0.620530	-0.552584	-0.263061
C80	C	0.677985	-0.979550	-0.343492
C81	C	0.677989	-1.026468	-0.343480
C82	C	0.620560	-1.026452	-0.262948
C83	C	0.620558	-0.979533	-0.262957
C84	C	0.649269	-0.956083	-0.303234
C85	C	0.620530	-0.454058	-0.263082
C86	C	0.620532	-0.407139	-0.263093
C87	C	0.677960	-0.407159	-0.343628
C88	C	0.677959	-0.454074	-0.343615
C89	C	0.649240	-0.477523	-0.303340
O90	O	0.702371	-0.528305	-0.377806
O91	O	0.596104	-0.528310	-0.228830
C92	C	0.620538	-0.740249	-0.263022
C93	C	0.649250	-0.763713	-0.303284
C94	C	0.677962	-0.740262	-0.343554
C95	C	0.649255	-0.810631	-0.303271
C96	C	0.620543	-0.834082	-0.263001
C97	C	0.591827	-0.810615	-0.222743
C98	C	0.591826	-0.763699	-0.222752
C99	C	0.706678	-0.763729	-0.383812
C100	C	0.706677	-0.810645	-0.383800
C101	C	0.677966	-0.834096	-0.343529
C102	C	0.766383	-0.216613	-0.303431
C103	C	0.816317	-0.216629	-0.303445
C104	C	0.649147	-0.216552	-0.466950
C105	C	0.649164	-0.216558	-0.536918
C106	C	0.649202	-0.099853	-0.303377
C107	C	0.649278	-0.049918	-0.303209
C108	C	0.677888	-0.245321	-0.569729
C109	C	0.677903	-0.245332	-0.635472
C110	C	0.649200	-0.216572	-0.668400
C111	C	0.620470	-0.187806	-0.635580
C112	C	0.620452	-0.187799	-0.569839
N113	N	0.645806	-0.177254	-0.771655
N114	N	0.645826	-0.177262	-0.834107
C115	C	0.649252	-0.216592	-0.866475
N116	N	0.652667	-0.255915	-0.834032
N117	N	0.652649	-0.255906	-0.771575
C118	C	0.649216	-0.216576	-0.739685
C119	C	0.677995	-0.245370	-0.970572
C120	C	0.678008	-0.245382	-1.036316
C121	C	0.620577	-0.187852	-1.036423
C122	C	0.620562	-0.187844	-0.970681
C123	C	0.649274	-0.216603	-0.937759
C124	C	0.649274	-0.216608	-0.139208
C125	C	0.649304	-0.216622	-0.069240
H126	H	0.177281	-0.297293	-0.416837
H127	H	0.701265	-0.268739	-0.542926
N128	N	0.735994	-0.693856	-0.424988
N129	N	0.720166	-0.720016	-0.465093
H130	H	0.740874	-0.736940	-0.494156
H131	H	0.262386	-0.297282	-0.416829
H132	H	0.701338	-0.388057	-0.376413
H133	H	0.597061	-0.164376	-0.543123
N134	N	0.267198	-0.129924	-0.181573
N135	N	0.293400	-0.145786	-0.141494
H136	H	0.310327	-0.125103	-0.112409
N137	N	0.707352	-0.274757	-1.069844
N138	N	0.707365	-0.274760	-1.128541
H139	H	0.728091	-0.295505	-1.152222
N140	N	-0.089375	-0.158630	-0.221940
N141	N	-0.063222	-0.129967	-0.244030
H142	H	-0.046313	-0.109265	-0.214951
N143	N	0.483077	-0.274500	-0.384863
N144	N	0.509235	-0.258638	-0.424946
H145	H	0.526167	-0.279323	-0.454032
N146	N	0.562494	-0.693810	-0.181619
N147	N	0.565504	-0.688571	-0.123537
H148	H	0.544791	-0.705476	-0.094467
N149	N	0.388180	-0.158569	-0.221888
N150	N	0.361972	-0.129917	-0.243979
H151	H	0.345038	-0.109229	-0.214900
H152	H	0.701290	-0.268760	-0.662192
H153	H	0.701372	-0.268788	-0.943766
N154	N	0.388244	-0.274531	-0.384868
N155	N	0.409211	-0.300129	-0.420853
H156	H	0.392307	-0.320828	-0.449942
N157	N	0.591228	-0.158458	-0.937156
N158	N	0.607038	-0.129845	-0.900474
H159	H	0.586318	-0.109093	-0.876795
N160	N	0.591226	-0.955573	-0.221820
N161	N	0.565598	-0.976523	-0.185865
H162	H	0.544881	-0.959604	-0.156809
N163	N	0.591151	-0.158434	-0.669222
N164	N	0.591171	-0.158444	-0.727919
H165	H	0.570461	-0.137700	-0.751679
N166	N	0.736018	-0.739789	-0.424947
N167	N	0.777473	-0.745062	-0.420773
H168	H	0.798199	-0.728157	-0.449825
H169	H	0.568443	-0.744599	-0.189963
H170	H	-0.094183	-0.268649	-0.376575
N171	N	0.591256	-0.158481	-1.070060
N172	N	0.591273	-0.158492	-1.128757
H173	H	0.570563	-0.137749	-1.152517
H174	H	-0.179343	-0.164591	-0.230305
N175	N	0.562505	-0.834581	-0.181606
N176	N	0.562516	-0.876472	-0.181608
H177	H	0.541808	-0.893401	-0.152558
H178	H	0.036469	-0.135883	-0.189959
H179	H	0.478174	-0.164501	-0.230227
N180	N	0.126427	-0.129930	-0.181586
N181	N	0.105459	-0.104331	-0.145603
H182	H	0.122362	-0.083633	-0.116512
N183	N	0.736011	-0.834617	-0.424924
N184	N	0.764651	-0.860819	-0.402787
H185	H	0.785365	-0.877749	-0.431833
N186	N	0.126489	-0.303255	-0.425200
N187	N	0.105540	-0.328862	-0.461184
H188	H	0.122459	-0.349556	-0.490270
H189	H	0.036523	-0.297325	-0.416844
H190	H	-0.179307	-0.268658	-0.376582
N191	N	0.735995	-0.599027	-0.425004
N192	N	0.761627	-0.619986	-0.460950
H193	H	0.782342	-0.603076	-0.490012
H194	H	0.177216	-0.135867	-0.189937
N195	N	0.591199	-0.383178	-0.221953
N196	N	0.565567	-0.404126	-0.186001
H197	H	0.544851	-0.387205	-0.156946
H198	H	0.597144	-0.473145	-0.230286
H199	H	0.568438	-0.603852	-0.189993
H200	H	0.597182	-1.045553	-0.230156
H201	H	0.701365	-0.960461	-0.376294
N202	N	0.707331	-1.050426	-0.384603
N203	N	0.732963	-1.029476	-0.420553
H204	H	0.753687	-1.046395	-0.449600
N205	N	0.707307	-0.478039	-0.384727
N206	N	0.732949	-0.457092	-0.420668
H207	H	0.753678	-0.474014	-0.449703
