data_functionalizedCrystal
_audit_creation_method	'MofGen! by Chris Wilmer'
_symmetry_space_group_name_H-M	'P1'
_symmetry_Int_Tables_number	1
_symmetry_cell_setting	triclinic
loop_
_symmetry_equiv_pos_as_xyz
  x,y,z
_cell_length_a	12.594517
_cell_length_b	16.120484
_cell_length_c	16.120297
_cell_angle_alpha	84.385569
_cell_angle_beta	92.877961
_cell_angle_gamma	87.074624
loop_
_atom_site_label
_atom_site_type_symbol
_atom_site_fract_x
_atom_site_fract_y
_atom_site_fract_z
Zn1	Zn	1.572401	0.356753	-0.489463
Zn2	Zn	2.072401	0.856753	0.010537
Zn3	Zn	1.572267	0.489442	-0.356773
Zn4	Zn	2.072267	0.989442	0.143227
Zn5	Zn	1.403914	0.349688	-0.349708
Zn6	Zn	1.903914	0.849688	0.150292
Zn7	Zn	1.384857	0.496483	-0.496495
Zn8	Zn	1.884857	0.996483	0.003505
O9	O	1.483360	0.423092	-0.423110
O10	O	1.983360	0.923092	0.076890
O11	O	1.721327	0.374364	-0.471875
O12	O	2.221327	0.874364	0.028125
O13	O	1.557854	0.465001	-0.238874
O14	O	2.057854	0.965001	0.261126
O15	O	1.434296	0.233660	-0.362347
O16	O	1.934296	0.733660	0.137653
O17	O	1.721229	0.471851	-0.374389
O18	O	2.221229	0.971851	0.125611
O19	O	1.558082	0.238850	-0.465024
O20	O	2.058082	0.738850	0.034976
O21	O	1.434165	0.362324	-0.233683
O22	O	1.934165	0.862324	0.266317
O23	O	1.252442	0.369151	-0.369165
O24	O	1.752442	0.869151	0.130835
O25	O	1.401816	0.483851	-0.612524
O26	O	1.901816	0.983851	-0.112524
O27	O	1.238440	0.477000	-0.477009
O28	O	1.738440	0.977000	0.022991
O29	O	1.539603	0.381191	-0.607357
O30	O	2.039603	0.881191	-0.107357
O31	O	1.539375	0.607342	-0.381207
O32	O	2.039375	1.107342	0.118793
O33	O	1.401685	0.612514	-0.483860
O34	O	1.901685	1.112514	0.016140
C35	C	1.206821	0.423074	-0.423084
C36	C	1.706821	0.923074	0.076916
C37	C	1.088514	0.423087	-0.423094
C38	C	1.588514	0.923087	0.076906
C39	C	1.468475	0.640257	-0.434082
C40	C	1.968475	1.140257	0.065918
C41	C	1.462203	0.733162	-0.438803
C42	C	1.962203	1.233162	0.061197
C43	C	1.468599	0.434094	-0.641115
C44	C	1.968599	0.934094	-0.141115
C45	C	1.462308	0.438783	-0.734016
C46	C	1.962308	0.938783	-0.234016
C47	C	1.026844	0.364357	-0.364541
C48	C	1.526844	0.864357	0.135459
C49	C	0.952230	0.439556	-0.347840
C50	C	1.452230	0.939556	0.152160
C51	C	0.952325	0.347926	-0.439811
C52	C	1.452325	0.847926	0.060189
C53	C	1.015459	0.498324	-0.406355
C54	C	1.515459	0.998324	0.093645
C55	C	1.015562	0.406645	-0.498360
C56	C	1.515562	0.906645	0.001640
C57	C	0.940975	0.481898	-0.481690
C58	C	1.440975	0.981898	0.018310
C59	C	1.760977	0.423110	-0.423136
C60	C	2.260977	0.923110	0.076864
C61	C	1.879282	0.423118	-0.423147
C62	C	2.379282	0.923118	0.076853
C63	C	1.498330	0.205080	-0.412113
C64	C	1.998330	0.705080	0.087887
C65	C	1.504709	0.112176	-0.407427
C66	C	2.004709	0.612176	0.092573
C67	C	1.450757	0.903262	-0.447441
C68	C	1.950757	1.403262	0.052559
C69	C	1.516152	0.942081	-0.398791
C70	C	2.016152	1.442081	0.101209
C71	C	1.509783	1.036731	-0.403598
C72	C	2.009783	1.536731	0.096402
C73	C	1.457124	0.808604	-0.442636
C74	C	1.957124	1.308604	0.057364
C75	C	1.450786	0.447325	-0.904106
C76	C	1.950786	0.947325	-0.404106
C77	C	1.516159	0.398608	-0.942952
C78	C	2.016159	0.898608	-0.442952
C79	C	1.509748	0.403361	-1.037596
C80	C	2.009748	0.903361	-0.537596
C81	C	1.457196	0.442573	-0.809454
C82	C	1.957196	0.942573	-0.309454
C83	C	1.498128	0.412071	-0.205949
C84	C	1.998128	0.912071	0.294051
C85	C	1.504641	0.407147	-0.113036
C86	C	2.004641	0.907147	0.386964
H87	H	1.064297	0.314734	-0.314968
H88	H	1.564297	0.814734	0.185032
O89	O	1.588712	0.344524	-0.897961
O90	O	2.088712	0.844524	-0.397961
C91	C	1.648260	0.300179	-0.952720
C92	C	2.148260	0.800179	-0.452720
H93	H	1.600728	0.300339	-1.014816
H94	H	2.100728	0.800339	-0.514816
H95	H	1.665830	0.233081	-0.924087
H96	H	2.165830	0.733081	-0.424087
H97	H	1.726374	0.331257	-0.963535
H98	H	2.226374	0.831257	-0.463535
O99	O	1.378375	0.501322	-0.949349
O100	O	1.878375	1.001322	-0.449349
C101	C	1.388012	0.494093	-1.035141
C102	C	1.888012	0.994093	-0.535141
H103	H	1.471245	0.467299	-1.045586
H104	H	1.971245	0.967299	-0.545586
H105	H	1.374297	0.558337	-1.071558
H106	H	1.874297	1.058337	-0.571558
H107	H	1.326287	0.450801	-1.057654
H108	H	1.826287	0.950801	-0.557654
O109	O	0.918922	0.456284	-0.271958
O110	O	1.418922	0.956284	0.228042
C111	C	0.952480	0.534984	-0.253873
C112	C	1.452480	1.034984	0.246127
H113	H	1.024126	0.551366	-0.291487
H114	H	1.524126	1.051366	0.208513
H115	H	0.975649	0.532919	-0.184393
H116	H	1.475649	1.032919	0.315607
H117	H	0.884804	0.584305	-0.271112
H118	H	1.384804	1.084305	0.228888
H119	H	1.043190	0.561915	-0.392167
H120	H	1.543190	1.061915	0.107833
O121	O	0.896557	0.541334	-0.540704
O122	O	1.396557	1.041334	-0.040704
C123	C	0.928838	0.620440	-0.522802
C124	C	1.428838	1.120440	-0.022802
H125	H	0.953158	0.618418	-0.453525
H126	H	1.453158	1.118418	0.046475
H127	H	0.860043	0.668957	-0.539183
H128	H	1.360043	1.168957	-0.039183
H129	H	0.999414	0.637912	-0.561222
H130	H	1.499414	1.137912	-0.061222
O131	O	1.588739	0.897061	-0.344769
O132	O	2.088739	1.397061	0.155231
C133	C	1.648270	0.951794	-0.300460
C134	C	2.148270	1.451794	0.199540
H135	H	1.645505	1.015760	-0.337797
H136	H	2.145505	1.515760	0.162203
H137	H	1.734411	0.925986	-0.290334
H138	H	2.234411	1.425986	0.209666
H139	H	1.613036	0.957895	-0.237420
H140	H	2.113036	1.457895	0.262580
H141	H	1.389992	0.941110	-0.492698
H142	H	1.889992	1.441110	0.007302
O143	O	1.048901	0.389859	-0.574210
O144	O	1.548901	0.889859	-0.074210
C145	C	1.016932	0.310511	-0.591573
C146	C	1.516932	0.810511	-0.091573
H147	H	1.003494	0.271375	-0.530582
H148	H	1.503494	0.771375	-0.030582
H149	H	1.081653	0.278088	-0.625774
H150	H	1.581653	0.778088	-0.125774
H151	H	0.939802	0.317906	-0.632402
H152	H	1.439802	0.817906	-0.132402
H153	H	0.924414	0.284358	-0.453900
H154	H	1.424414	0.784358	0.046100
