data_functionalizedCrystal
_audit_creation_method	'MofGen! by Chris Wilmer'
_symmetry_space_group_name_H-M	'P1'
_symmetry_Int_Tables_number	1
_symmetry_cell_setting	triclinic
loop_
_symmetry_equiv_pos_as_xyz
  x,y,z
_cell_length_a	16.109302
_cell_length_b	17.699092
_cell_length_c	15.186229
_cell_angle_alpha	89.997943
_cell_angle_beta	89.994701
_cell_angle_gamma	83.374074
loop_
_atom_site_label
_atom_site_type_symbol
_atom_site_fract_x
_atom_site_fract_y
_atom_site_fract_z
O1	O	1.102966	0.097287	-0.073265
O2	O	1.602966	0.597287	0.426735
O3	O	0.860883	0.109393	-0.073257
O4	O	1.360883	0.609393	0.426743
O5	O	0.988761	-0.006839	-0.073259
O6	O	1.488761	0.493161	0.426741
O7	O	0.975089	0.213519	-0.073263
O8	O	1.475089	0.713519	0.426737
O9	O	0.988752	-0.006841	0.073198
O10	O	1.488752	0.493159	0.573198
O11	O	0.860875	0.109391	0.073200
O12	O	1.360875	0.609391	0.573200
O13	O	1.102957	0.097285	0.073193
O14	O	1.602957	0.597285	0.573193
Zn15	Zn	0.981915	0.103338	0.096449
Zn16	Zn	1.481915	0.603338	0.596449
Zn17	Zn	0.981926	0.103340	-0.096514
Zn18	Zn	1.481926	0.603340	0.403486
O19	O	0.975080	0.213517	0.073194
O20	O	1.475080	0.713517	0.573194
C21	C	0.829905	0.108902	-0.000028
C22	C	1.329905	0.608902	0.499972
C23	C	0.737612	0.107431	-0.000025
C24	C	1.237612	0.607431	0.499975
C25	C	0.525273	0.104030	0.079800
C26	C	1.025273	0.604030	0.579800
C27	C	0.438555	0.102640	0.079797
C28	C	0.938555	0.602640	0.579797
C29	C	0.438575	0.102646	-0.079879
C30	C	0.938575	0.602646	0.420121
C31	C	0.525292	0.104030	-0.079875
C32	C	1.025292	0.604030	0.420125
C33	C	0.568638	0.104726	-0.000033
C34	C	1.068638	0.604726	0.499967
C35	C	0.395203	0.101952	-0.000040
C36	C	0.895203	0.601952	0.499960
C37	C	0.301180	0.100445	-0.000044
C38	C	0.801180	0.600445	0.499956
C39	C	0.662667	0.106232	-0.000029
C40	C	1.162667	0.606232	0.499971
C41	C	0.988265	-0.035037	-0.000032
C42	C	1.488265	0.464963	0.499968
C43	C	0.986792	-0.119057	-0.000036
C44	C	1.486792	0.380943	0.499964
C45	C	0.986107	-0.158525	-0.079871
C46	C	1.486107	0.341475	0.420129
C47	C	0.984717	-0.237470	-0.079872
C48	C	1.484717	0.262530	0.420128
C49	C	0.984019	-0.276946	-0.000037
C50	C	1.484019	0.223054	0.499963
C51	C	0.984702	-0.237473	0.079804
C52	C	1.484702	0.262527	0.579804
C53	C	0.986086	-0.158529	0.079804
C54	C	1.486086	0.341471	0.579804
C55	C	0.979121	-0.555846	0.079805
C56	C	1.479121	-0.055846	0.579805
C57	C	0.977740	-0.634796	0.079799
C58	C	1.477740	-0.134796	0.579799
C59	C	0.977753	-0.634787	-0.079870
C60	C	1.477753	-0.134787	0.420130
C61	C	0.979136	-0.555843	-0.079870
C62	C	1.479136	-0.055843	0.420130
C63	C	0.979815	-0.516376	-0.000030
C64	C	1.479815	-0.016376	0.499970
C65	C	0.981320	-0.430775	-0.000030
C66	C	1.481320	0.069225	0.499970
C67	C	0.982520	-0.362547	-0.000036
C68	C	1.482520	0.137453	0.499964
C69	C	1.133936	0.097776	-0.000039
C70	C	1.633936	0.597776	0.499961
C71	C	1.226228	0.099247	-0.000047
C72	C	1.726228	0.599247	0.499953
C73	C	0.975576	0.241716	-0.000035
C74	C	1.475576	0.741716	0.499965
C75	C	0.977049	0.325736	-0.000037
C76	C	1.477049	0.825736	0.499963
N77	N	0.981913	0.103336	0.228142
N78	N	1.481913	0.603336	0.728142
N79	N	0.981934	0.103336	-0.228207
N80	N	1.481934	0.603336	0.271793
C81	C	1.038556	0.051886	0.453864
C82	C	1.538556	0.551886	0.953864
C83	C	1.038559	0.051884	0.546054
C84	C	1.538559	0.551884	1.046054
C85	C	0.925285	0.154789	0.546065
C86	C	1.425285	0.654789	1.046065
C87	C	0.925279	0.154786	0.453877
C88	C	1.425279	0.654786	0.953877
C89	C	0.981919	0.103336	0.407779
C90	C	1.481919	0.603336	0.907779
C91	C	0.981928	0.103336	0.592156
C92	C	1.481928	0.603336	1.092156
C93	C	0.981930	0.103335	0.692112
C94	C	1.481930	0.603335	1.192112
C95	C	0.981916	0.103336	0.307816
C96	C	1.481916	0.603336	0.807816
H97	H	0.403271	0.102080	-0.144883
H98	H	0.903271	0.602080	0.355117
H99	H	0.986632	-0.126394	0.144814
H100	H	1.486632	0.373606	0.644814
O101	O	0.976936	-0.673210	0.157302
O102	O	1.476936	-0.173210	0.657302
C103	C	0.904145	-0.710269	0.162073
C104	C	1.404145	-0.210269	0.662073
H105	H	0.879960	-0.719231	0.092751
H106	H	1.379960	-0.219231	0.592751
H107	H	0.919349	-0.767714	0.195865
H108	H	1.419349	-0.267714	0.695865
H109	H	0.854268	-0.673829	0.201461
H110	H	1.354268	-0.173829	0.701461
H111	H	0.879154	0.196683	0.416351
H112	H	1.379154	0.696683	0.916351
O113	O	0.870353	0.204742	0.590982
O114	O	1.370353	0.704742	1.090982
C115	C	0.882490	0.193702	0.682233
C116	C	1.382490	0.693702	1.182233
H117	H	0.948644	0.165430	0.694814
H118	H	1.448644	0.665430	1.194814
H119	H	0.873130	0.251019	0.717264
H120	H	1.373130	0.751019	1.217264
H121	H	0.835511	0.155731	0.708408
H122	H	1.335511	0.655731	1.208408
O123	O	0.567364	0.104563	0.157378
O124	O	1.067364	0.604563	0.657378
C125	C	0.555698	0.038719	0.205948
C126	C	1.055698	0.538719	0.705948
H127	H	0.538539	-0.007445	0.159229
H128	H	1.038539	0.492555	0.659229
H129	H	0.615927	0.017636	0.242163
H130	H	1.115927	0.517636	0.742163
H131	H	0.503197	0.052722	0.255727
H132	H	1.003197	0.552722	0.755727
O133	O	0.396415	0.101828	0.157325
O134	O	0.896415	0.601828	0.657325
C135	C	0.355792	0.035523	0.162092
C136	C	0.855792	0.535523	0.662092
H137	H	0.388604	-0.009843	0.116784
H138	H	0.888604	0.490157	0.616784
H139	H	0.358011	0.013514	0.232702
H140	H	0.858011	0.513514	0.732702
H141	H	0.287912	0.049281	0.140646
H142	H	0.787912	0.549281	0.640646
H143	H	0.560601	0.104595	-0.144888
H144	H	1.060601	0.604595	0.355112
H145	H	0.986679	-0.126389	-0.144882
H146	H	1.486679	0.373611	0.355118
O147	O	0.984126	-0.275700	-0.157502
O148	O	1.484126	0.224300	0.342498
C149	C	0.985042	-0.223929	-0.227966
C150	C	1.485042	0.276071	0.272034
H151	H	1.012308	-0.170785	-0.204543
H152	H	1.512308	0.329215	0.295457
H153	H	1.025033	-0.251545	-0.283779
H154	H	1.525033	0.248455	0.216221
H155	H	0.918528	-0.207594	-0.252554
H156	H	1.418528	0.292406	0.247446
H157	H	0.977196	-0.666930	-0.144880
H158	H	1.477196	-0.166930	0.355120
O159	O	0.979775	-0.517608	-0.157501
O160	O	1.479775	-0.017608	0.342499
C161	C	0.978891	-0.569375	-0.227967
C162	C	1.478891	-0.069375	0.272033
H163	H	0.951594	-0.622512	-0.204563
H164	H	1.451594	-0.122512	0.295437
H165	H	0.938944	-0.541749	-0.283801
H166	H	1.438944	-0.041749	0.216199
H167	H	1.045419	-0.585724	-0.252520
H168	H	1.545419	-0.085724	0.247480
H169	H	0.984129	-0.269621	0.144807
H170	H	1.484129	0.230379	0.644807
O171	O	0.979842	-0.517639	0.157438
O172	O	1.479842	-0.017639	0.657438
C173	C	0.978923	-0.569413	0.227898
C174	C	1.478923	-0.069413	0.727898
H175	H	1.004233	-0.628826	0.204477
H176	H	1.504233	-0.128826	0.704477
H177	H	1.019689	-0.551431	0.283722
H178	H	1.519689	-0.051431	0.783722
H179	H	0.912107	-0.569847	0.252470
H180	H	1.412107	-0.069847	0.752470
H181	H	1.084675	0.009991	0.416333
H182	H	1.584675	0.509991	0.916333
H183	H	1.084677	0.009988	0.583574
H184	H	1.584677	0.509988	1.083574
