data_functionalizedCrystal
_audit_creation_method	'MofGen! by Chris Wilmer'
_symmetry_space_group_name_H-M	'P1'
_symmetry_Int_Tables_number	1
_symmetry_cell_setting	triclinic
loop_
_symmetry_equiv_pos_as_xyz
  x,y,z
_cell_length_a	10.967926
_cell_length_b	14.853559
_cell_length_c	9.482900
_cell_angle_alpha	99.349447
_cell_angle_beta	92.549900
_cell_angle_gamma	84.182888
loop_
_atom_site_label
_atom_site_type_symbol
_atom_site_fract_x
_atom_site_fract_y
_atom_site_fract_z
O1	O	1.610465	0.159152	0.282588
O2	O	1.261255	0.161129	0.195097
O3	O	1.445193	0.029232	0.241183
O4	O	1.426527	0.291048	0.236503
O5	O	1.407831	0.056136	0.473614
O6	O	1.223893	0.188033	0.427529
O7	O	1.573103	0.186056	0.515020
Cu8	Cu	1.395087	0.189501	0.492497
Cu9	Cu	1.439271	0.157684	0.217620
O10	O	1.389165	0.317952	0.468935
C11	C	1.197883	0.172404	0.300116
C12	C	1.064719	0.165907	0.266753
C13	C	0.985996	0.176948	0.372285
C14	C	0.848363	0.170233	0.337805
C15	C	1.425668	0.009066	0.357184
C16	C	1.423141	-0.091106	0.356543
C17	C	1.432778	-0.529317	0.227156
C18	C	1.392044	-0.499980	0.480562
C19	C	1.394430	-0.405864	0.481161
C20	C	1.415988	-0.373471	0.354755
C21	C	1.435161	-0.435193	0.227750
C22	C	1.375246	-0.344134	0.608160
C23	C	1.377630	-0.250012	0.608764
C24	C	1.399197	-0.217618	0.482359
C25	C	1.418372	-0.279346	0.355350
C26	C	1.439930	-0.246953	0.228944
C27	C	1.459113	-0.308680	0.101935
C28	C	1.456728	-0.402798	0.101345
C29	C	1.401582	-0.123500	0.482949
C30	C	1.442313	-0.152829	0.229538
C31	C	1.636475	0.174780	0.409998
C32	C	1.769641	0.181276	0.443352
C33	C	1.408690	0.338118	0.352930
C34	C	1.411219	0.438290	0.353562
N35	N	1.364018	0.211879	0.685833
N36	N	1.470349	0.135299	0.024286
C37	C	1.430099	0.164279	0.774589
C38	C	1.404259	0.182906	0.935532
H39	H	0.813875	0.155807	0.221921
C40	C	1.572626	0.061610	0.966007
H41	H	1.610726	0.034159	1.042563
H42	H	1.631864	0.089146	0.921452
H43	H	1.538373	0.016053	0.898063
C44	C	1.261748	0.285562	0.744130
H45	H	1.257803	0.288420	0.844656
H46	H	1.185435	0.270322	0.700157
H47	H	1.278928	0.343413	0.723558
C48	C	1.532371	0.090595	0.716300
H49	H	1.570473	0.063143	0.792853
H50	H	1.591608	0.118132	0.671745
H51	H	1.498118	0.045039	0.648355
H52	H	1.459874	-0.126463	0.126603
H53	H	1.448401	-0.579580	0.123750
H54	H	0.804129	0.195697	0.559237
H55	H	1.328544	0.237447	0.978686
C56	C	1.356534	-0.182117	0.748462
H57	H	1.361034	-0.121423	0.730715
H58	H	1.417665	-0.195918	0.817940
H59	H	1.277869	-0.187114	0.782903
C60	C	1.368337	-0.535612	0.619597
H61	H	1.369671	-0.600506	0.601055
H62	H	1.290468	-0.509759	0.654255
H63	H	1.430269	-0.518565	0.689259
H64	H	1.030224	0.151482	0.150877
H65	H	1.476657	-0.282293	-0.000987
C66	C	1.032582	0.196407	0.528830
H67	H	0.965346	0.202450	0.590569
H68	H	1.071513	0.251603	0.544012
H69	H	1.089613	0.147151	0.548494
C70	C	1.477859	-0.470696	-0.038343
H71	H	1.491064	-0.437928	-0.113537
H72	H	1.407897	-0.503634	-0.061379
H73	H	1.547685	-0.512409	-0.026292
C74	C	1.351545	-0.379769	0.747195
H75	H	1.352892	-0.444664	0.728653
H76	H	1.273673	-0.353925	0.781852
H77	H	1.413474	-0.362716	0.816858
C78	C	1.380481	-0.055602	0.622635
H79	H	1.384981	0.005092	0.604885
H80	H	1.441608	-0.069400	0.692117
H81	H	1.301814	-0.060598	0.657070
