data_functionalizedCrystal
_audit_creation_method	'MofGen! by Chris Wilmer'
_symmetry_space_group_name_H-M	'P1'
_symmetry_Int_Tables_number	1
_symmetry_cell_setting	triclinic
loop_
_symmetry_equiv_pos_as_xyz
  x,y,z
_cell_length_a	19.805407
_cell_length_b	12.645330
_cell_length_c	12.645323
_cell_angle_alpha	90.026844
_cell_angle_beta	90.022547
_cell_angle_gamma	90.017692
loop_
_atom_site_label
_atom_site_type_symbol
_atom_site_fract_x
_atom_site_fract_y
_atom_site_fract_z
Zn1	Zn	1.034797	-0.422010	0.599468
Zn2	Zn	1.534797	0.077990	1.099468
Zn3	Zn	1.034723	-0.599304	0.422208
Zn4	Zn	1.534723	-0.099304	0.922208
Zn5	Zn	0.921605	-0.422055	0.422210
Zn6	Zn	1.421605	0.077945	0.922210
Zn7	Zn	0.921592	-0.599232	0.599421
Zn8	Zn	1.421592	-0.099232	1.099421
O9	O	0.978179	-0.510651	0.510826
O10	O	1.478179	-0.010651	1.010826
O11	O	1.129503	-0.445540	0.575972
O12	O	1.629503	0.054460	1.075972
O13	O	1.019692	-0.575841	0.273861
O14	O	1.519692	-0.075841	0.773861
O15	O	0.936657	-0.273702	0.445744
O16	O	1.436657	0.226298	0.945744
O17	O	1.129449	-0.575797	0.445740
O18	O	1.629449	-0.075797	0.945740
O19	O	1.019818	-0.273669	0.575974
O20	O	1.519818	0.226331	1.075974
O21	O	0.936585	-0.445617	0.273862
O22	O	1.436585	0.054383	0.773862
O23	O	0.826887	-0.445547	0.445698
O24	O	1.326887	0.054453	0.945698
O25	O	0.936634	-0.575674	0.747774
O26	O	1.436634	-0.075674	1.247774
O27	O	0.826877	-0.575718	0.575895
O28	O	1.326877	-0.075718	1.075895
O29	O	1.019805	-0.445470	0.747809
O30	O	1.519805	0.054530	1.247809
O31	O	1.019679	-0.747642	0.445695
O32	O	1.519679	-0.247642	0.945695
O33	O	0.936562	-0.747589	0.575893
O34	O	1.436562	-0.247589	1.075893
C35	C	0.802323	-0.510630	0.510792
C36	C	1.302323	-0.010630	1.010792
C37	C	0.727091	-0.510647	0.510803
C38	C	1.227091	-0.010647	1.010803
C39	C	0.691760	-0.578529	0.578486
C40	C	1.191760	-0.078529	1.078486
C41	C	0.621071	-0.578531	0.578501
C42	C	1.121071	-0.078531	1.078501
C43	C	0.585716	-0.510655	0.510826
C44	C	1.085716	-0.010655	1.010826
C45	C	0.621052	-0.442766	0.443140
C46	C	1.121052	0.057234	0.943140
C47	C	0.691739	-0.442759	0.443131
C48	C	1.191739	0.057241	0.943131
C49	C	0.335979	-0.442789	0.443175
C50	C	0.835979	0.057211	0.943175
C51	C	0.265287	-0.442803	0.443187
C52	C	0.765287	0.057197	0.943187
C53	C	0.265311	-0.578561	0.578545
C54	C	0.765311	-0.078561	1.078545
C55	C	0.335998	-0.578555	0.578536
C56	C	0.835998	-0.078555	1.078536
C57	C	0.371328	-0.510661	0.510854
C58	C	0.871328	-0.010661	1.010854
C59	C	0.447977	-0.510659	0.510840
C60	C	0.947977	-0.010659	1.010840
C61	C	0.509068	-0.510663	0.510834
C62	C	1.009068	-0.010663	1.010834
C63	C	0.978130	-0.786080	0.510812
C64	C	1.478130	-0.286080	1.010812
C65	C	0.978171	-0.903910	0.510841
C66	C	1.478171	-0.403910	1.010841
C67	C	0.926097	-1.071485	0.593001
C68	C	1.426097	-0.571485	1.093001
C69	C	0.925831	-0.948926	0.592737
C70	C	1.425831	-0.448926	1.092737
C71	C	0.958861	-0.948508	0.399118
C72	C	1.458861	-0.448508	0.899118
C73	C	0.958543	-1.071107	0.399617
C74	C	1.458543	-0.571107	0.899617
C75	C	1.049872	-1.070999	0.539497
C76	C	1.549872	-0.570999	1.039497
C77	C	1.049433	-0.948392	0.541940
C78	C	1.549433	-0.448392	1.041940
C79	C	1.154722	-0.510672	0.510861
C80	C	1.654722	-0.010672	1.010861
C81	C	1.229954	-0.510681	0.510876
C82	C	1.729954	-0.010681	1.010876
C83	C	0.978226	-0.510559	0.787332
C84	C	1.478226	-0.010559	1.287332
C85	C	0.978246	-0.510520	0.905162
C86	C	1.478246	-0.010520	1.405162
C87	C	0.978247	-0.234145	0.510865
C88	C	1.478247	0.265855	1.010865
C89	C	0.978276	-0.116315	0.510881
C90	C	1.478276	0.383685	1.010881
C91	C	0.978171	-0.510665	0.235397
C92	C	1.478171	-0.010665	0.735397
C93	C	0.978282	-0.510406	0.117567
C94	C	1.478282	-0.010406	0.617567
C95	C	0.925927	-0.592415	0.950022
C96	C	1.425927	-0.092415	1.450022
C97	C	0.925742	-0.592107	1.072582
C98	C	1.425742	-0.092107	1.572582
C99	C	0.959175	-0.398622	1.073064
C100	C	1.459175	0.101378	1.573064
C101	C	0.958775	-0.399162	0.950465
C102	C	1.458775	0.100838	1.450465
C103	C	1.049812	-0.539408	0.950354
C104	C	1.549812	-0.039408	1.450354
C105	C	1.049450	-0.541806	1.072961
C106	C	1.549450	-0.041806	1.572961
H107	H	0.236502	-0.387524	0.388078
H108	H	0.736502	0.112476	0.888078
O109	O	0.582930	-0.369551	0.370140
O110	O	1.082930	0.130449	0.870140
H111	H	0.596483	-0.387631	0.286913
H112	H	1.096483	0.112369	0.786913
O113	O	0.374082	-0.369599	0.370146
O114	O	0.874082	0.130401	0.870146
H115	H	0.337619	-0.322423	0.323073
H116	H	0.837619	0.177577	0.823073
H117	H	0.994898	-1.100766	0.336345
H118	H	1.494898	-0.600766	0.836345
H119	H	0.720505	-0.387477	0.388022
H120	H	1.220505	0.112523	0.888022
O121	O	0.941818	-0.909005	0.702485
O122	O	1.441818	-0.409005	1.202485
H123	H	0.988300	-0.860020	0.699897
H124	H	1.488300	-0.360020	1.199897
H125	H	0.872723	-0.572927	1.101907
H126	H	1.372723	-0.072927	1.601907
O127	O	0.856078	-0.567362	0.909226
O128	O	1.356078	-0.067362	1.409226
H129	H	0.858463	-0.496835	0.857140
H130	H	1.358463	0.003165	1.357140
O131	O	0.941950	-1.110440	0.703097
O132	O	1.441950	-0.610440	1.203097
H133	H	0.904469	-1.077755	0.759558
H134	H	1.404469	-0.577755	1.259558
O135	O	0.856223	-1.112394	0.568209
O136	O	1.356223	-0.612394	1.068209
H137	H	0.858496	-1.164516	0.497653
H138	H	1.358496	-0.664516	0.997653
O139	O	0.890665	-0.365629	1.113713
O140	O	1.390665	0.134371	1.613713
H141	H	0.856013	-0.352945	1.045891
H142	H	1.356013	0.147055	1.545891
O143	O	0.729887	-0.651724	0.651501
O144	O	1.229887	-0.151724	1.151501
H145	H	0.784977	-0.640318	0.640127
H146	H	1.284977	-0.140318	1.140127
H147	H	1.063995	-0.919238	0.624162
H148	H	1.563995	-0.419238	1.124162
H149	H	0.872753	-0.919692	0.573778
H150	H	1.372753	-0.419692	1.073778
O151	O	0.889217	-1.109127	0.367517
O152	O	1.389217	-0.609127	0.867517
H153	H	0.856234	-1.039947	0.351789
H154	H	1.356234	-0.539947	0.851789
O155	O	1.008117	-0.315534	1.111649
O156	O	1.508117	0.184466	1.611649
H157	H	1.006887	-0.312459	1.199350
H158	H	1.506887	0.187541	1.699350
H159	H	1.067240	-0.619572	0.919440
H160	H	1.567240	-0.119572	1.419440
O161	O	1.068551	-0.650774	1.111491
O162	O	1.568551	-0.150774	1.611491
H163	H	1.027535	-0.682445	1.162205
H164	H	1.527535	-0.182445	1.662205
O165	O	1.073203	-1.111839	0.645582
O166	O	1.573203	-0.611839	1.145582
H167	H	1.123783	-1.078749	0.663940
H168	H	1.623783	-0.578749	1.163940
O169	O	1.007598	-0.909890	0.315844
O170	O	1.507598	-0.409890	0.815844
H171	H	1.046191	-0.858373	0.353291
H172	H	1.546191	-0.358373	0.853291
H173	H	0.907069	-0.917898	0.374439
H174	H	1.407069	-0.417898	0.874439
O175	O	1.103841	-0.468542	1.113491
O176	O	1.603841	0.031458	1.613491
H177	H	1.080896	-0.408333	1.166293
H178	H	1.580896	0.091667	1.666293
H179	H	1.088746	-1.099989	0.479686
H180	H	1.588746	-0.599989	0.979686
O181	O	0.582961	-0.651949	0.651298
O182	O	1.082961	-0.151949	1.151298
H183	H	0.619421	-0.699228	0.698271
H184	H	1.119421	-0.199228	1.198271
O185	O	0.941528	-0.701890	1.112454
O186	O	1.441528	-0.201890	1.612454
H187	H	0.949361	-0.755681	1.044169
H188	H	1.449361	-0.255681	1.544169
H189	H	1.090356	-0.917743	0.486484
H190	H	1.590356	-0.417743	0.986484
O191	O	0.374133	-0.651756	0.651533
O192	O	0.874133	-0.151756	1.151533
H193	H	0.337689	-0.698952	0.698611
H194	H	0.837689	-0.198952	1.198611
H195	H	0.937704	-0.675586	0.920546
H196	H	1.437704	-0.175586	1.420546
O197	O	0.889494	-0.366777	0.912574
O198	O	1.389494	0.133223	1.412574
H199	H	0.851390	-0.423529	0.942925
H200	H	1.351390	0.076471	1.442925
O201	O	1.007069	-0.315553	0.911136
O202	O	1.507069	0.184447	1.411136
H203	H	0.990805	-0.236914	0.940661
H204	H	1.490805	0.263086	1.440661
O205	O	0.227206	-0.651781	0.651562
O206	O	0.727206	-0.151781	1.151562
H207	H	0.172113	-0.640377	0.640214
H208	H	0.672113	-0.140377	1.140214
O209	O	1.101453	-0.460417	0.911918
O210	O	1.601453	0.039583	1.411918
H211	H	1.076313	-0.400868	0.860875
H212	H	1.576313	0.099132	1.360875
