data_functionalizedCrystal
_audit_creation_method	'MofGen! by Chris Wilmer'
_symmetry_space_group_name_H-M	'P1'
_symmetry_Int_Tables_number	1
_symmetry_cell_setting	triclinic
loop_
_symmetry_equiv_pos_as_xyz
  x,y,z
_cell_length_a	15.944545
_cell_length_b	15.944551
_cell_length_c	14.472310
_cell_angle_alpha	89.997979
_cell_angle_beta	89.989758
_cell_angle_gamma	83.497455
loop_
_atom_site_label
_atom_site_type_symbol
_atom_site_fract_x
_atom_site_fract_y
_atom_site_fract_z
O1	O	1.114538	0.108301	-0.076783
O2	O	1.614538	0.608301	0.423217
O3	O	0.869988	0.121663	-0.076798
O4	O	1.369988	0.621663	0.423202
O5	O	0.998941	-0.007293	-0.076782
O6	O	1.498941	0.492707	0.423218
O7	O	0.985585	0.237257	-0.076799
O8	O	1.485585	0.737257	0.423201
O9	O	0.998908	-0.007285	0.076900
O10	O	1.498908	0.492715	0.576900
O11	O	0.869955	0.121670	0.076884
O12	O	1.369955	0.621670	0.576884
O13	O	1.114505	0.108309	0.076899
O14	O	1.614505	0.608309	0.576899
Cu15	Cu	0.992227	0.114990	0.090924
Cu16	Cu	1.492227	0.614990	0.590924
Cu17	Cu	0.992266	0.114981	-0.090823
Cu18	Cu	1.492266	0.614981	0.409177
O19	O	0.985552	0.237265	0.076883
O20	O	1.485552	0.737265	0.576883
C21	C	0.838677	0.121113	0.000041
C22	C	1.338677	0.621113	0.500041
C23	C	0.745431	0.119453	0.000035
C24	C	1.245431	0.619453	0.500035
C25	C	0.998370	-0.038583	0.000059
C26	C	1.498370	0.461417	0.500059
C27	C	0.996708	-0.131829	0.000060
C28	C	1.496708	0.368171	0.500060
C29	C	0.474798	0.034559	0.000051
C30	C	0.974798	0.534559	0.500051
C31	C	0.525364	0.075492	0.075824
C32	C	1.025364	0.575492	0.575824
C33	C	0.409787	0.113532	0.000051
C34	C	0.909787	0.613532	0.500051
C35	C	0.525377	0.075505	-0.075695
C36	C	1.025377	0.575505	0.424305
C37	C	0.574701	0.116437	0.000042
C38	C	1.074701	0.616437	0.500042
C39	C	0.459124	0.154444	0.075887
C40	C	0.959124	0.654444	0.575887
C41	C	0.459134	0.154446	-0.075700
C42	C	0.959134	0.654446	0.424300
C43	C	0.509667	0.195436	0.000091
C44	C	1.009667	0.695436	0.500091
C45	C	0.314785	0.111856	0.000058
C46	C	0.814785	0.611856	0.500058
C47	C	0.669700	0.118119	0.000042
C48	C	1.169700	0.618119	0.500042
C49	C	0.912803	-0.346684	0.000042
C50	C	1.412803	0.153316	0.500042
C51	C	0.951750	-0.407698	0.075819
C52	C	1.451750	0.092302	0.575819
C53	C	0.993701	-0.302555	0.000052
C54	C	1.493701	0.197445	0.500052
C55	C	0.951801	-0.407689	-0.075700
C56	C	1.451801	0.092311	0.424300
C57	C	0.990790	-0.467468	0.000041
C58	C	1.490790	0.032532	0.500041
C59	C	1.032669	-0.362341	0.075892
C60	C	1.532669	0.137659	0.575892
C61	C	1.032710	-0.362326	-0.075695
C62	C	1.532710	0.137674	0.424305
C63	C	1.071715	-0.423322	0.000101
C64	C	1.571715	0.076678	0.500101
C65	C	0.995375	-0.207553	0.000059
C66	C	1.495375	0.292447	0.500059
C67	C	0.989122	-0.562469	0.000041
C68	C	1.489122	-0.062469	0.500041
C69	C	1.145816	0.108859	0.000058
C70	C	1.645816	0.608859	0.500058
C71	C	1.239062	0.110519	0.000057
C72	C	1.739062	0.610519	0.500057
C73	C	0.986123	0.268555	0.000039
C74	C	1.486123	0.768555	0.500039
C75	C	0.987785	0.361801	0.000033
C76	C	1.487785	0.861801	0.500033
N77	N	0.992206	0.114996	0.218755
N78	N	1.492206	0.614996	0.718755
N79	N	0.992294	0.114969	-0.218654
N80	N	1.492294	0.614969	0.281346
C81	C	0.992265	0.114978	0.592846
C82	C	1.492265	0.614978	1.092846
C83	C	0.923033	0.183748	0.553671
C84	C	1.423033	0.683748	1.053671
C85	C	0.923193	0.183999	0.446583
C86	C	1.423193	0.683999	0.946583
C87	C	0.992235	0.114987	0.407255
C88	C	1.492235	0.614987	0.907255
C89	C	1.079879	0.134132	0.446096
C90	C	1.579879	0.634132	0.946096
C91	C	1.079490	0.134621	0.553217
C92	C	1.579490	0.634621	1.053217
C93	C	0.974635	0.026859	0.553380
C94	C	1.474635	0.526859	1.053380
C95	C	0.972625	0.027446	0.446252
C96	C	1.472625	0.527446	0.946252
C97	C	0.992223	0.114990	0.302367
C98	C	1.492223	0.614990	0.802367
C99	C	0.992283	0.114976	0.697734
C100	C	1.492283	0.614976	1.197734
H101	H	0.459145	-0.033453	0.000130
H102	H	0.959145	0.466547	0.500130
H103	H	0.845655	-0.313375	0.000113
H104	H	1.345655	0.186625	0.500113
Br105	Br	1.089716	-0.328778	-0.182471
Br106	Br	1.589716	0.171222	0.317529
Br107	Br	1.058783	-0.058440	0.595600
Br108	Br	1.558783	0.441560	1.095600
Br109	Br	0.410908	0.209984	-0.182483
Br110	Br	0.910908	0.709984	0.317517
H111	H	0.554281	0.042142	0.139888
H112	H	1.054281	0.542142	0.639888
Br113	Br	0.894771	-0.441182	-0.182467
Br114	Br	1.394771	0.058818	0.317533
Br115	Br	0.814090	0.165036	0.596620
Br116	Br	1.314090	0.665036	1.096620
Br117	Br	0.573602	0.019890	-0.182457
Br118	Br	1.073602	0.519890	0.317543
H119	H	1.132627	0.085376	0.420619
H120	H	1.632627	0.585376	0.920619
H121	H	1.138922	-0.456483	0.000148
H122	H	1.638922	0.043517	0.500148
H123	H	0.917519	-0.427803	0.139878
H124	H	1.417519	0.072197	0.639878
Br125	Br	0.814594	0.165045	0.402811
Br126	Br	1.314594	0.665045	0.902811
Br127	Br	0.411090	0.209999	0.182773
Br128	Br	0.911090	0.709999	0.682773
Br129	Br	1.089633	-0.329026	0.182784
Br130	Br	1.589633	0.170974	0.682784
Br131	Br	0.941919	0.293001	0.403843
Br132	Br	1.441919	0.793001	0.903843
H133	H	0.934137	0.248772	0.580577
H134	H	1.434137	0.748772	1.080577
H135	H	1.095025	0.198886	0.578189
H136	H	1.595025	0.698886	1.078189
H137	H	1.132616	0.086507	0.579129
H138	H	1.632616	0.586507	1.079129
H139	H	1.095785	0.197665	0.419255
H140	H	1.595785	0.697665	0.919255
Br141	Br	0.870409	-0.003809	0.598457
Br142	Br	1.370409	0.496191	1.098457
Br143	Br	0.865167	0.003225	0.403946
Br144	Br	1.365167	0.503225	0.903946
H145	H	0.525158	0.263501	0.000131
H146	H	1.025158	0.763501	0.500131
Br147	Br	1.051219	-0.061850	0.401653
Br148	Br	1.551219	0.438150	0.901653
