data_functionalizedCrystal
_audit_creation_method	'MofGen! by Chris Wilmer'
_symmetry_space_group_name_H-M	'P1'
_symmetry_Int_Tables_number	1
_symmetry_cell_setting	triclinic
loop_
_symmetry_equiv_pos_as_xyz
  x,y,z
_cell_length_a	14.853567
_cell_length_b	14.853567
_cell_length_c	11.892095
_cell_angle_alpha	93.898435
_cell_angle_beta	86.098450
_cell_angle_gamma	83.634930
loop_
_atom_site_label
_atom_site_type_symbol
_atom_site_fract_x
_atom_site_fract_y
_atom_site_fract_z
O1	O	1.202117	0.111953	-0.093916
O2	O	0.939658	0.125973	-0.093934
O3	O	1.077898	-0.012267	-0.093928
O4	O	1.063876	0.250193	-0.093922
O5	O	1.066372	-0.000758	0.094079
O6	O	0.928132	0.137482	0.094073
O7	O	1.190590	0.123462	0.094091
Zn8	Zn	1.057531	0.132299	0.123932
Zn9	Zn	1.072717	0.117136	-0.123775
O10	O	1.052350	0.261702	0.094085
C11	C	0.900306	0.131092	0.000067
C12	C	0.800223	0.129188	0.000060
C13	C	1.071500	-0.040101	0.000072
C14	C	1.069597	-0.140186	0.000062
C15	C	0.387688	0.039024	0.000083
C16	C	0.366407	0.203257	0.000086
C17	C	0.460441	0.205047	0.000082
C18	C	0.518103	0.123824	0.000077
C19	C	0.481731	0.040811	0.000076
C20	C	0.496820	0.288057	0.000072
C21	C	0.590860	0.289850	0.000067
C22	C	0.648523	0.208627	0.000070
C23	C	0.612146	0.125611	0.000070
C24	C	0.669808	0.044388	0.000065
C25	C	0.633432	-0.038629	0.000074
C26	C	0.539395	-0.040412	0.000079
C27	C	0.742561	0.210411	0.000064
C28	C	0.763851	0.046175	0.000059
C29	C	0.979430	-0.552719	0.000078
C30	C	1.143662	-0.573999	0.000089
C31	C	1.145453	-0.479965	0.000083
C32	C	1.064231	-0.422304	0.000075
C33	C	0.981218	-0.458676	0.000075
C34	C	1.228463	-0.443586	0.000095
C35	C	1.230257	-0.349547	0.000089
C36	C	1.149034	-0.291884	0.000074
C37	C	1.066018	-0.328261	0.000072
C38	C	0.984796	-0.270600	0.000065
C39	C	0.901780	-0.306976	0.000055
C40	C	0.899995	-0.401013	0.000059
C41	C	1.150819	-0.197847	0.000070
C42	C	0.986584	-0.176557	0.000062
C43	C	1.229942	0.118343	0.000088
C44	C	1.330026	0.120247	0.000088
C45	C	1.058749	0.289536	0.000082
C46	C	1.060652	0.389620	0.000085
N47	N	1.047173	0.142647	0.292986
N48	N	1.083082	0.106781	-0.292829
C49	C	1.155155	0.034726	0.529639
C50	C	1.147922	0.041965	0.647980
C51	C	1.025470	0.164360	0.648013
C52	C	1.032703	0.157121	0.529671
C53	C	1.097549	0.092302	0.470488
C54	C	1.104786	0.085068	0.352145
C55	C	0.982330	0.207458	0.352179
C56	C	0.975096	0.214697	0.470521
H57	H	0.680394	-0.104760	0.000062
H58	H	0.620469	0.357447	0.000060
H59	H	0.832408	-0.430639	0.000052
H60	H	0.772174	0.278002	0.000060
O61	O	0.898867	-0.588195	0.000120
C62	C	0.914700	-0.683561	0.000089
H63	H	0.982844	-0.703376	0.035688
H64	H	0.858229	-0.709160	0.054667
H65	H	0.915829	-0.715263	-0.090109
H66	H	1.209789	-0.620951	0.000104
H67	H	1.157589	0.032292	0.303959
O68	O	0.912152	0.277774	0.527888
C69	C	0.928701	0.365279	0.498996
H70	H	0.968708	0.359973	0.413068
H71	H	0.861241	0.409310	0.494958
H72	H	0.969535	0.397312	0.565597
H73	H	0.509767	-0.107999	0.000113
H74	H	1.294589	-0.490539	0.000111
H75	H	1.297854	-0.319938	0.000096
H76	H	0.972668	0.217128	0.696215
O77	O	1.218054	-0.028344	0.472179
C78	C	1.201557	-0.115857	0.501095
H79	H	1.127395	-0.114455	0.533653
H80	H	1.216628	-0.165832	0.423251
H81	H	1.247306	-0.138050	0.569761
H82	H	0.810795	-0.019967	0.000059
O83	O	0.440857	0.366961	-0.000129
C84	C	0.463328	0.411401	-0.097491
H85	H	0.499576	0.359680	-0.165548
H86	H	0.398654	0.445463	-0.130170
H87	H	0.509923	0.464996	-0.075487
H88	H	1.218409	-0.168233	0.000085
O89	O	1.203754	-0.014049	0.705492
C90	C	1.151219	-0.065548	0.773974
H91	H	1.082301	-0.069378	0.738326
H92	H	1.187827	-0.137060	0.775307
H93	H	1.141047	-0.031853	0.863665
O94	O	0.822846	-0.250986	0.000247
C95	C	0.766468	-0.261542	0.097595
H96	H	0.809844	-0.289459	0.165657
H97	H	0.728398	-0.192868	0.130277
H98	H	0.715573	-0.310832	0.075571
O99	O	0.352212	-0.041540	0.000040
C100	C	0.256845	-0.025706	0.000082
H101	H	0.237028	0.042442	-0.035510
H102	H	0.231244	-0.082172	-0.054496
H103	H	0.225146	-0.024584	0.090283
O104	O	0.310267	0.282071	0.000140
C105	C	0.219469	0.262691	0.000112
H106	H	0.213594	0.194052	0.035701
H107	H	0.173588	0.317793	0.054700
H108	H	0.197802	0.260557	-0.090083
O109	O	0.926416	0.263300	0.294545
C110	C	0.946723	0.243035	0.177402
H111	H	0.981306	0.170426	0.161222
H112	H	0.881217	0.250207	0.132434
H113	H	0.994065	0.292086	0.143824
O114	O	0.907632	-0.120649	-0.000097
C115	C	0.863225	-0.143101	-0.097489
H116	H	0.887268	-0.216391	-0.129951
H117	H	0.786699	-0.135243	-0.075599
H118	H	0.879796	-0.095824	-0.165668
