data_functionalizedCrystal
_audit_creation_method	'MofGen! by Chris Wilmer'
_symmetry_space_group_name_H-M	'P1'
_symmetry_Int_Tables_number	1
_symmetry_cell_setting	triclinic
loop_
_symmetry_equiv_pos_as_xyz
  x,y,z
_cell_length_a	14.395555
_cell_length_b	18.878441
_cell_length_c	14.395555
_cell_angle_alpha	59.990416
_cell_angle_beta	89.997643
_cell_angle_gamma	60.003799
loop_
_atom_site_label
_atom_site_type_symbol
_atom_site_fract_x
_atom_site_fract_y
_atom_site_fract_z
Zr1	Zr	0.894878	0.775437	-0.122067
O2	O	0.746557	0.923224	-0.270421
O3	O	0.940346	0.627649	-0.076571
O4	O	0.940350	0.775443	-0.270399
O5	O	0.746551	0.775425	0.076281
O6	O	1.093217	0.775448	-0.270402
O7	O	0.746553	0.775430	-0.076593
O8	O	1.093210	0.511071	0.076320
O9	O	0.746557	1.039802	-0.270441
O10	O	1.073821	0.688440	-0.057192
O11	O	0.959736	0.688432	0.056899
O12	O	0.959740	0.862441	-0.171308
O13	O	0.845655	0.862433	-0.057217
Zr14	Zr	1.138679	0.775437	0.121743
Zr15	Zr	1.138683	0.775445	-0.122073
Zr16	Zr	0.894874	0.775428	0.121749
Zr17	Zr	0.894878	0.961365	-0.122100
Zr18	Zr	1.138679	0.589509	0.121777
O19	O	1.093211	0.923224	0.076247
O20	O	1.093217	0.923236	-0.270429
O21	O	0.746551	0.923213	0.076255
O22	O	1.287000	0.627649	0.270097
O23	O	1.287006	0.627661	-0.076579
O24	O	0.940340	0.627637	0.270105
O25	O	1.287006	0.775448	-0.076605
O26	O	1.093207	0.775430	0.270075
O27	O	0.940340	0.775425	0.270079
O28	O	1.287004	0.775443	0.076269
O29	O	0.940350	1.039809	-0.270446
O30	O	1.093207	0.511064	0.270122
O31	O	1.287000	0.511071	0.270117
O32	O	1.287003	0.511078	0.076316
O33	O	0.746554	1.039795	-0.076640
O34	O	0.940347	1.039802	-0.076644
O35	O	1.073817	0.688432	0.170985
O36	O	1.187902	0.688440	0.056894
O37	O	1.073821	0.862441	-0.057223
O38	O	0.959736	0.862433	0.056868
C39	C	1.016778	0.542869	-0.000121
C40	C	1.016778	0.463938	-0.000107
C41	C	0.932560	0.491102	-0.084347
C42	C	0.932563	0.416951	-0.084374
C43	C	1.016781	0.315637	-0.000154
C44	C	1.101007	0.288474	0.084091
C45	C	1.101007	0.362623	0.084112
C46	C	1.100998	0.133926	0.084042
C47	C	1.100997	0.059771	0.084023
C48	C	0.932555	0.188255	-0.084443
C49	C	0.932555	0.262404	-0.084422
C50	C	1.016780	0.235235	-0.000175
C51	C	0.711815	0.775426	-0.000155
C52	C	0.608313	0.775422	-0.000152
C53	C	0.609926	0.680549	0.062067
C54	C	0.516910	0.727974	0.107146
C55	C	0.516901	0.728002	-0.045198
C56	C	0.516660	0.822848	0.044989
C57	C	0.516666	0.822862	-0.107415
C58	C	0.423632	0.870356	-0.062363
C59	C	1.321742	0.775447	-0.000169
C60	C	1.425244	0.775451	-0.000172
C61	C	1.016784	0.775447	-0.305139
C62	C	1.016786	0.775451	-0.408646
C63	C	1.016779	1.008004	-0.000203
C64	C	1.016779	1.086935	-0.000217
C65	C	0.954571	0.870324	-0.531456
C66	C	1.061836	0.822899	-0.562290
C67	C	0.909527	0.822871	-0.562235
C68	C	1.124113	0.728025	-0.438116
C69	C	0.971728	0.728011	-0.438065
C70	C	1.079056	0.680517	-0.468825
C71	C	1.016773	0.775426	0.304815
C72	C	1.016771	0.775422	0.408322
C73	C	1.321741	0.542880	-0.000128
C74	C	1.425243	0.463952	-0.000116
C75	C	1.016773	0.542859	0.304857
C76	C	1.016771	0.463924	0.408377
C77	C	1.321736	0.542869	0.304850
C78	C	1.425236	0.463938	0.408368
C79	C	0.711821	1.008004	-0.305173
C80	C	0.608321	1.086935	-0.408692
C81	C	0.711816	1.007994	-0.000196
C82	C	0.608314	1.086921	-0.000208
C83	C	1.016784	1.008015	-0.305181
C84	C	1.016786	1.086949	-0.408701
C85	C	1.414299	0.426886	-0.059672
C86	C	1.511541	0.352736	-0.059684
C87	C	1.619725	0.315647	-0.000133
C88	C	1.630666	0.352719	0.059425
C89	C	1.533426	0.426874	0.059430
C90	C	1.076319	0.426855	0.516553
C91	C	1.076313	0.352698	0.613831
C92	C	1.016764	0.315605	0.602931
C93	C	0.957209	0.352681	0.494743
C94	C	0.957209	0.426842	0.397468
C95	C	1.533402	0.426875	0.397427
C96	C	1.630660	0.352721	0.494684
C97	C	1.619750	0.315626	0.602880
C98	C	1.511573	0.352696	0.613819
C99	C	1.414317	0.426854	0.516563
C100	C	0.500155	1.124007	-0.397750
C101	C	0.402897	1.198184	-0.495007
C102	C	0.413807	1.235283	-0.603204
C103	C	0.521984	1.198208	-0.614143
C104	C	0.619240	1.124037	-0.516887
C105	C	0.619258	1.123994	0.059338
C106	C	0.522016	1.198166	0.059323
C107	C	0.413832	1.235257	-0.000232
C108	C	0.402891	1.198181	-0.059785
C109	C	0.500131	1.124016	-0.059776
C110	C	1.076346	1.124018	-0.397764
C111	C	1.076371	1.198176	-0.495023
C112	C	1.016827	1.235269	-0.603219
C113	C	0.957266	1.198193	-0.614153
C114	C	0.957249	1.124031	-0.516895
H115	H	0.863985	0.439078	-0.152970
H116	H	0.517486	0.862914	0.083183
H117	H	1.124810	0.457047	0.525451
C118	C	1.499580	0.311888	0.732836
H119	H	1.421232	0.344583	0.725435
H120	H	1.535055	0.241868	0.773258
H121	H	1.535045	0.324053	0.773237
H122	H	0.707311	1.093854	-0.525809
C123	C	1.193637	-0.051673	0.176652
H124	H	1.181564	-0.091939	0.164578
H125	H	1.266337	-0.065901	0.173158
H126	H	1.190149	-0.065934	0.249374
C127	C	1.016780	0.234024	0.709940
H128	H	1.060786	0.217257	0.775923
H129	H	0.940915	0.258320	0.709958
H130	H	1.048678	0.176150	0.709966
H131	H	1.326247	0.457021	0.525488
H132	H	0.863976	0.344898	-0.152999
C133	C	1.113333	0.877056	-0.634591
H134	H	1.178789	0.831921	-0.641286
H135	H	1.058754	0.932388	-0.708123
H136	H	1.134244	0.900260	-0.598945
H137	H	0.689681	0.600325	0.114754
C138	C	0.738247	1.083206	0.124855
H139	H	0.730822	1.115923	0.160303
H140	H	0.778659	1.013188	0.181228
H141	H	0.778662	1.095366	0.073443
H142	H	0.908721	0.457014	0.309390
H143	H	0.530947	1.228340	0.107823
H144	H	1.124834	1.093829	-0.309675
C145	C	0.533977	1.239010	-0.733160
H146	H	0.612325	1.206316	-0.725759
H147	H	0.498499	1.226855	-0.773558
H148	H	0.498515	1.309033	-0.773585
C149	C	1.141876	1.238958	-0.482975
H150	H	1.177314	1.206255	-0.404607
H151	H	1.198245	1.226803	-0.518419
H152	H	1.090467	1.308980	-0.518450
C153	C	1.726679	0.234070	-0.000135
H154	H	1.704657	0.217304	-0.044126
H155	H	1.770685	0.258368	-0.032024
H156	H	1.770668	0.176195	0.075753
H157	H	1.542353	0.457043	0.107934
H158	H	0.908787	1.228405	-0.702259
H159	H	0.491250	1.093805	-0.309660
H160	H	0.902053	0.950547	-0.556912
C161	C	0.306878	1.316834	-0.000229
H162	H	0.328900	1.333589	0.043776
H163	H	0.262879	1.374705	-0.076108
H164	H	0.262882	1.292521	0.031675
C165	C	0.515650	0.673817	0.229675
H166	H	0.449767	0.718952	0.235945
H167	H	0.514680	0.618485	0.247669
H168	H	0.581731	0.650614	0.281008
H169	H	1.016850	1.295656	-0.682403
H170	H	0.314824	1.228358	-0.486079
H171	H	0.908726	0.322470	0.485884
H172	H	1.542307	0.457067	0.309336
H173	H	0.491205	1.093834	-0.108263
H174	H	0.908743	1.093858	-0.525816
C175	C	0.283885	1.238982	-0.125281
H176	H	0.227549	1.288451	-0.116739
H177	H	0.275334	1.267921	-0.203639
H178	H	0.275348	1.185737	-0.095845
H179	H	0.863969	0.573594	-0.152917
C180	C	1.749640	0.311947	0.482631
H181	H	1.742200	0.344651	0.404262
H182	H	1.790063	0.324107	0.518072
H183	H	1.790052	0.241925	0.518107
H184	H	1.698952	0.255242	0.682063
C185	C	0.787002	0.877049	-0.634510
H186	H	0.780704	0.831928	-0.641215
H187	H	0.735679	0.900266	-0.598867
H188	H	0.769041	0.932376	-0.708051
C189	C	1.246702	0.673904	-0.366046
H190	H	1.297859	0.651279	-0.402157
H191	H	1.252841	0.718860	-0.358810
H192	H	1.265039	0.618170	-0.292708
C193	C	0.839908	0.218143	-0.177112
H194	H	0.851973	0.159474	-0.165072
H195	H	0.767211	0.256672	-0.173610
H196	H	0.843400	0.256706	-0.249824
H197	H	1.131735	0.600228	-0.443155
H198	H	1.124814	0.322519	0.701912
C199	C	0.920210	0.673892	-0.365747
H200	H	0.843964	0.707703	-0.409082
H201	H	0.963621	0.606838	-0.343867
H202	H	0.921236	0.673770	-0.299681
H203	H	1.326219	0.457084	-0.108180
H204	H	1.169585	0.111796	0.152644
H205	H	0.334605	1.295677	-0.682387
C206	C	1.193643	0.177033	0.176736
H207	H	1.243805	0.171477	0.226905
H208	H	1.159043	0.145427	0.218328
H209	H	1.235246	0.145447	0.142129
C210	C	1.193642	0.332748	0.176775
H211	H	1.181588	0.391418	0.164719
H212	H	1.190154	0.294188	0.249483
H213	H	1.266345	0.294217	0.173271
C214	C	0.316056	0.978813	-0.133440
H215	H	0.272481	0.989875	-0.194831
H216	H	0.271901	0.989484	-0.086812
H217	H	0.337424	1.023992	-0.162544
C218	C	0.518000	0.876978	-0.229912
H219	H	0.519000	0.843165	-0.261812
H220	H	0.451943	0.944032	-0.274440
H221	H	0.583908	0.877096	-0.229052
H222	H	1.502610	0.322560	-0.108183
C223	C	0.515669	0.673819	-0.096660
H224	H	0.581050	0.606415	-0.052354
H225	H	0.449079	0.674747	-0.096942
H226	H	0.516143	0.706859	-0.172428
H227	H	1.718763	0.322511	0.107910
