data_functionalizedCrystal
_audit_creation_method	'MofGen! by Chris Wilmer'
_symmetry_space_group_name_H-M	'P1'
_symmetry_Int_Tables_number	1
_symmetry_cell_setting	triclinic
loop_
_symmetry_equiv_pos_as_xyz
  x,y,z
_cell_length_a	25.639239
_cell_length_b	25.639242
_cell_length_c	25.639233
_cell_angle_alpha	90.023283
_cell_angle_beta	89.981253
_cell_angle_gamma	89.966656
loop_
_atom_site_label
_atom_site_type_symbol
_atom_site_fract_x
_atom_site_fract_y
_atom_site_fract_z
Zn1	Zn	-0.208289	-0.799225	-0.295758
Zn2	Zn	0.291711	-0.299225	0.204242
Zn3	Zn	-0.295708	-0.799149	-0.208322
Zn4	Zn	0.204292	-0.299149	0.291678
Zn5	Zn	-0.208280	-0.711801	-0.208320
Zn6	Zn	0.291720	-0.211801	0.291680
Zn7	Zn	-0.295687	-0.711746	-0.295710
Zn8	Zn	0.204313	-0.211746	0.204290
O9	O	-0.251991	-0.755480	-0.252028
O10	O	0.248009	-0.255480	0.247972
O11	O	-0.219898	-0.872380	-0.284180
O12	O	0.280102	-0.372380	0.215820
O13	O	-0.284115	-0.787553	-0.135157
O14	O	0.215885	-0.287553	0.364843
O15	O	-0.135116	-0.723453	-0.219938
O16	O	0.364884	-0.223453	0.280062
O17	O	-0.284124	-0.872324	-0.219941
O18	O	0.215876	-0.372324	0.280059
O19	O	-0.135122	-0.787683	-0.284178
O20	O	0.364878	-0.287683	0.215822
O21	O	-0.219882	-0.723379	-0.135155
O22	O	0.280118	-0.223379	0.364845
O23	O	-0.219862	-0.638629	-0.219892
O24	O	0.280138	-0.138629	0.280108
O25	O	-0.284089	-0.723360	-0.368882
O26	O	0.215911	-0.223360	0.131118
O27	O	-0.284080	-0.638589	-0.284097
O28	O	0.215920	-0.138589	0.215903
O29	O	-0.219878	-0.787630	-0.368917
O30	O	0.280122	-0.287630	0.131083
O31	O	-0.368870	-0.787499	-0.219895
O32	O	0.131130	-0.287499	0.280105
O33	O	-0.368855	-0.723286	-0.284099
O34	O	0.131145	-0.223286	0.215901
C35	C	-0.251968	-0.619638	-0.251990
C36	C	0.248032	-0.119638	0.248010
C37	C	-0.251971	-0.561524	-0.251986
C38	C	0.248029	-0.061524	0.248014
C39	C	-0.218495	-0.310343	-0.218641
C40	C	0.281505	0.189657	0.281359
C41	C	-0.218490	-0.364947	-0.218636
C42	C	0.281510	0.135053	0.281364
O43	O	-0.189998	-0.393194	-0.190262
O44	O	0.310002	0.106806	0.309738
N45	N	-0.251977	-0.392250	-0.252007
N46	N	0.248023	0.107750	0.247993
C47	C	-0.285466	-0.364946	-0.285389
C48	C	0.214534	0.135054	0.214611
O49	O	-0.313948	-0.393183	-0.313774
O50	O	0.186052	0.106817	0.186226
C51	C	-0.285468	-0.310342	-0.285397
C52	C	0.214532	0.189658	0.214603
C53	C	-0.251983	-0.283042	-0.252019
C54	C	0.248017	0.216958	0.247981
C55	C	-0.185013	-0.283042	-0.185266
C56	C	0.314987	0.216958	0.314734
C57	C	-0.185018	-0.228442	-0.185271
C58	C	0.314982	0.271558	0.314729
C59	C	-0.218506	-0.201141	-0.218650
C60	C	0.281494	0.298859	0.281350
C61	C	-0.251988	-0.228442	-0.252024
C62	C	0.248012	0.271558	0.247976
C63	C	-0.318954	-0.283039	-0.318781
C64	C	0.181046	0.216961	0.181219
C65	C	-0.318953	-0.228432	-0.318786
C66	C	0.181047	0.271568	0.181214
C67	C	-0.285468	-0.201132	-0.285409
C68	C	0.214532	0.298868	0.214591
C69	C	-0.285482	-0.146541	-0.285407
C70	C	0.214518	0.353459	0.214593
N71	N	-0.251995	-0.119238	-0.252035
N72	N	0.248005	0.380762	0.247965
C73	C	-0.218508	-0.146538	-0.218657
C74	C	0.281492	0.353462	0.281343
C75	C	-0.285460	-0.479616	-0.285372
C76	C	0.214540	0.020384	0.214628
C77	C	-0.285461	-0.534219	-0.285363
C78	C	0.214539	-0.034219	0.214637
C79	C	-0.218485	-0.534216	-0.218609
C80	C	0.281515	-0.034216	0.281391
C81	C	-0.218486	-0.479613	-0.218617
C82	C	0.281514	0.020387	0.281383
C83	C	-0.251973	-0.452313	-0.252001
C84	C	0.248027	0.047687	0.247999
C85	C	-0.218522	-0.031873	-0.218668
C86	C	0.281478	0.468127	0.281332
C87	C	-0.218532	0.022732	-0.218674
C88	C	0.281468	0.522732	0.281326
C89	C	-0.285506	0.022725	-0.285429
C90	C	0.214494	0.522725	0.214571
C91	C	-0.285498	-0.031876	-0.285422
C92	C	0.214502	0.468124	0.214578
C93	C	-0.252002	-0.059173	-0.252039
C94	C	0.247998	0.440827	0.247961
O95	O	-0.313958	-0.118259	-0.313767
O96	O	0.186042	0.381741	0.186233
O97	O	-0.190025	-0.118294	-0.190282
O98	O	0.309975	0.381706	0.309718
C99	C	-0.387833	-0.755392	-0.252004
C100	C	0.112167	-0.255392	0.247996
C101	C	-0.445947	-0.755403	-0.252011
C102	C	0.054053	-0.255403	0.247989
C103	C	-0.806306	-0.789004	-0.218654
C104	C	-0.306306	-0.289004	0.281346
C105	C	-0.860910	-0.789024	-0.218661
C106	C	-0.360910	-0.289024	0.281339
O107	O	-0.889143	-0.817502	-0.190273
O108	O	-0.389143	-0.317502	0.309727
N109	N	-0.888230	-0.755572	-0.252062
N110	N	-0.388230	-0.255572	0.247938
C111	C	-0.860943	-0.722102	-0.285463
C112	C	-0.360943	-0.222102	0.214537
O113	O	-0.889194	-0.693651	-0.313874
O114	O	-0.389194	-0.193651	0.186126
C115	C	-0.806339	-0.722085	-0.285458
C116	C	-0.306339	-0.222085	0.214542
C117	C	-0.779022	-0.755535	-0.252051
C118	C	-0.279022	-0.255535	0.247949
C119	C	-0.778989	-0.822452	-0.185249
C120	C	-0.278989	-0.322452	0.314751
C121	C	-0.724388	-0.822431	-0.185242
C122	C	-0.224388	-0.322431	0.314758
C123	C	-0.697105	-0.788962	-0.218639
C124	C	-0.197105	-0.288962	0.281361
C125	C	-0.724422	-0.755514	-0.252043
C126	C	-0.224422	-0.255514	0.247957
C127	C	-0.779053	-0.688617	-0.318861
C128	C	-0.279053	-0.188617	0.181139
C129	C	-0.724446	-0.688603	-0.318853
C130	C	-0.224446	-0.188603	0.181147
C131	C	-0.697129	-0.722053	-0.285446
C132	C	-0.197129	-0.222053	0.214554
C133	C	-0.642538	-0.722024	-0.285432
C134	C	-0.142538	-0.222024	0.214568
N135	N	-0.615218	-0.755475	-0.252031
N136	N	-0.115218	-0.255475	0.247969
C137	C	-0.642501	-0.788944	-0.218634
C138	C	-0.142501	-0.288944	0.281366
C139	C	-0.975613	-0.722141	-0.285471
C140	C	-0.475613	-0.222141	0.214529
C141	C	-1.030215	-0.722155	-0.285473
C142	C	-0.530215	-0.222155	0.214527
C143	C	-1.030179	-0.789078	-0.218672
C144	C	-0.530179	-0.289078	0.281328
C145	C	-0.975576	-0.789061	-0.218667
C146	C	-0.475576	-0.289061	0.281333
C147	C	-0.948293	-0.755593	-0.252069
C148	C	-0.448293	-0.255593	0.247931
C149	C	-0.527836	-0.788897	-0.218620
C150	C	-0.027836	-0.288897	0.281380
C151	C	-0.473231	-0.788872	-0.218614
C152	C	0.026769	-0.288872	0.281386
C153	C	-0.473272	-0.721951	-0.285417
C154	C	0.026728	-0.221951	0.214583
C155	C	-0.527873	-0.721974	-0.285422
C156	C	-0.027873	-0.221974	0.214578
C157	C	-0.555153	-0.755452	-0.252021
C158	C	-0.055153	-0.255452	0.247979
O159	O	-0.614270	-0.693562	-0.313807
O160	O	-0.114270	-0.193562	0.186193
O161	O	-0.614243	-0.817396	-0.190232
O162	O	-0.114243	-0.317396	0.309768
C163	C	-0.115618	-0.755583	-0.252063
C164	C	0.384382	-0.255583	0.247937
C165	C	-0.057504	-0.755627	-0.252078
C166	C	0.442496	-0.255627	0.247922
C167	C	-0.251982	-0.755497	-0.388401
C168	C	0.248018	-0.255497	0.111599
C169	C	-0.251978	-0.755504	-0.446515
C170	C	0.248022	-0.255504	0.053485
C171	C	-0.252013	0.108147	-0.252059
C172	C	0.247987	0.608147	0.247941
C173	C	-0.252020	0.050033	-0.252053
C174	C	0.247980	0.550033	0.247947
C175	C	-0.218444	-0.789012	-0.806902
C176	C	0.281556	-0.289012	-0.306902
C177	C	-0.218429	-0.789019	-0.861506
C178	C	0.281571	-0.289019	-0.361506
O179	O	-0.189979	-0.817466	-0.889763
O180	O	0.310021	-0.317466	-0.389763
N181	N	-0.251855	-0.755562	-0.888797
N182	N	0.248145	-0.255562	-0.388797
C183	C	-0.285294	-0.722093	-0.861482
C184	C	0.214706	-0.222093	-0.361482
O185	O	-0.313724	-0.693636	-0.889709
O186	O	0.186276	-0.193636	-0.389709
C187	C	-0.285305	-0.722084	-0.806878
C188	C	0.214695	-0.222084	-0.306878
C189	C	-0.251881	-0.755547	-0.779590
C190	C	0.248119	-0.255547	-0.279590
C191	C	-0.185022	-0.822472	-0.779613
C192	C	0.314978	-0.322472	-0.279613
C193	C	-0.185037	-0.822466	-0.725013
C194	C	0.314963	-0.322466	-0.225013
C195	C	-0.218474	-0.789000	-0.697701
C196	C	0.281526	-0.289000	-0.197701
C197	C	-0.251896	-0.755541	-0.724989
C198	C	0.248104	-0.255541	-0.224989
C199	C	-0.318741	-0.688613	-0.779563
C200	C	0.181259	-0.188613	-0.279563
C201	C	-0.318749	-0.688607	-0.724956
C202	C	0.181251	-0.188607	-0.224956
C203	C	-0.285325	-0.722069	-0.697668
C204	C	0.214675	-0.222069	-0.197668
C205	C	-0.285349	-0.722070	-0.643077
C206	C	0.214651	-0.222070	-0.143077
N207	N	-0.251923	-0.755526	-0.615785
N208	N	0.248077	-0.255526	-0.115785
C209	C	-0.218486	-0.788992	-0.643097
C210	C	0.281514	-0.288992	-0.143097
C211	C	-0.285267	-0.722113	-0.976152
C212	C	0.214733	-0.222113	-0.476152
C213	C	-0.285258	-0.722124	-1.030755
C214	C	0.214742	-0.222124	-0.530755
C215	C	-0.218393	-0.789049	-1.030775
C216	C	0.281607	-0.289049	-0.530775
C217	C	-0.218404	-0.789041	-0.976172
C218	C	0.281596	-0.289041	-0.476172
C219	C	-0.251841	-0.755570	-0.948861
C220	C	0.248159	-0.255570	-0.448861
C221	C	-0.218521	-0.788977	-0.528432
C222	C	0.281479	-0.288977	-0.028432
C223	C	-0.218540	-0.788970	-0.473827
C224	C	0.281460	-0.288970	0.026173
C225	C	-0.285404	-0.722043	-0.473811
C226	C	0.214596	-0.222043	0.026189
C227	C	-0.285386	-0.722052	-0.528411
C228	C	0.214614	-0.222052	-0.028411
C229	C	-0.251940	-0.755521	-0.555721
C230	C	0.248060	-0.255521	-0.055721
O231	O	-0.313783	-0.693635	-0.614785
O232	O	0.186217	-0.193635	-0.114785
O233	O	-0.190056	-0.817439	-0.614863
O234	O	0.309944	-0.317439	-0.114863
C235	C	-0.251962	-0.755494	-0.116185
C236	C	0.248038	-0.255494	0.383815
C237	C	-0.251819	-0.755588	-0.058071
C238	C	0.248181	-0.255588	0.441929
H239	H	-0.191218	-0.457388	-0.191440
H240	H	0.308782	0.042612	0.308560
Br241	Br	-0.173087	0.059779	-0.173372
Br242	Br	0.326913	0.559779	0.326628
H243	H	-0.312482	-0.694881	-1.052968
H244	H	0.187518	-0.194881	-0.552968
Br245	Br	-0.564947	-0.676565	-0.330748
Br246	Br	-0.064947	-0.176565	0.169252
Br247	Br	-1.067282	-0.676749	-0.330806
Br248	Br	-0.567282	-0.176749	0.169194
H249	H	-0.345959	-0.661364	-0.801772
H250	H	0.154041	-0.161364	-0.301772
H251	H	-0.345973	-0.661345	-0.702723
H252	H	0.154027	-0.161345	-0.202723
Br253	Br	-0.330780	-0.676627	-0.436734
Br254	Br	0.169220	-0.176627	0.063266
H255	H	-0.801197	-0.849709	-0.158054
H256	H	-0.301197	-0.349709	0.341946
H257	H	-0.312608	-0.694809	-0.550631
H258	H	0.187392	-0.194809	-0.050631
H259	H	-0.312773	0.044963	-0.312603
H260	H	0.187227	0.544963	0.187397
Br261	Br	-0.938592	-0.676712	-0.330803
Br262	Br	-0.438592	-0.176712	0.169197
Br263	Br	-0.173041	-0.834456	-0.939143
Br264	Br	0.326959	-0.334456	-0.439143
H265	H	-0.191243	-0.054092	-0.191488
H266	H	0.308757	0.445908	0.308512
Br267	Br	-0.139567	-0.191400	-0.139976
Br268	Br	0.360433	0.308600	0.360024
H269	H	-0.191216	-0.556454	-0.191432
H270	H	0.308784	-0.056454	0.308568
Br271	Br	-0.330916	-0.571262	-0.330653
Br272	Br	0.169084	-0.071262	0.169347
Br273	Br	-0.139556	-0.320082	-0.139962
Br274	Br	0.360444	0.179918	0.360038
H275	H	-0.312733	-0.457393	-0.312556
H276	H	0.187267	0.042607	0.187444
Br277	Br	-0.938509	-0.834459	-0.173326
Br278	Br	-0.438509	-0.334459	0.326674
H279	H	-0.550042	-0.816159	-0.191424
H280	H	-0.050042	-0.316159	0.308576
H281	H	-0.450991	-0.816111	-0.191408
H282	H	0.049009	-0.316111	0.308592
Br283	Br	-0.816112	-0.643223	-0.364208
Br284	Br	-0.316112	-0.143223	0.135792
H285	H	-1.052404	-0.816333	-0.191480
H286	H	-0.552404	-0.316333	0.308520
H287	H	-0.191284	-0.816229	-0.550661
H288	H	0.308716	-0.316229	-0.050661
Br289	Br	-0.687324	-0.867838	-0.139908
Br290	Br	-0.187324	-0.367838	0.360092
H291	H	-0.191165	-0.816298	-1.053023
H292	H	0.308835	-0.316298	-0.553023
Br293	Br	-0.687422	-0.643181	-0.364190
Br294	Br	-0.187422	-0.143181	0.135810
H295	H	-0.346222	-0.305258	-0.345960
H296	H	0.153778	0.194742	0.154040
Br297	Br	-0.364400	-0.191386	-0.364098
Br298	Br	0.135600	0.308614	0.135902
H299	H	-0.451049	-0.694699	-0.312607
H300	H	0.048951	-0.194699	0.187393
H301	H	-0.191322	-0.816221	-0.451611
H302	H	0.308678	-0.316221	0.048389
Br303	Br	-0.330949	-0.068927	-0.330713
Br304	Br	0.169051	0.431073	0.169287
H305	H	-0.157818	-0.849714	-0.702799
H306	H	0.342182	-0.349714	-0.202799
H307	H	-0.157790	-0.849723	-0.801845
H308	H	0.342210	-0.349723	-0.301845
H309	H	-0.312498	-0.694857	-0.953919
H310	H	0.187502	-0.194857	-0.453919
