data_functionalizedCrystal
_audit_creation_method	'MofGen! by Chris Wilmer'
_symmetry_space_group_name_H-M	'P1'
_symmetry_Int_Tables_number	1
_symmetry_cell_setting	triclinic
loop_
_symmetry_equiv_pos_as_xyz
  x,y,z
_cell_length_a	12.594516
_cell_length_b	12.594517
_cell_length_c	12.759393
_cell_angle_alpha	89.972136
_cell_angle_beta	90.029124
_cell_angle_gamma	89.988892
loop_
_atom_site_label
_atom_site_type_symbol
_atom_site_fract_x
_atom_site_fract_y
_atom_site_fract_z
Zn1	Zn	-0.423820	-1.627274	0.594262
Zn2	Zn	-0.601839	-1.627163	0.418589
Zn3	Zn	-0.423860	-1.449276	0.418572
Zn4	Zn	-0.601741	-1.449260	0.594202
O5	O	-0.512815	-1.538243	0.506406
O6	O	-0.447459	-1.776205	0.570990
O7	O	-0.578287	-1.603526	0.271566
O8	O	-0.274908	-1.472941	0.441896
O9	O	-0.578249	-1.776123	0.441925
O10	O	-0.274879	-1.603715	0.570974
O11	O	-0.447526	-1.472833	0.271553
O12	O	-0.447432	-1.300328	0.441838
O13	O	-0.578082	-1.472914	0.741231
O14	O	-0.578121	-1.300316	0.570872
O15	O	-0.447364	-1.603700	0.741275
O16	O	-0.750772	-1.603511	0.441867
O17	O	-0.750700	-1.472806	0.570889
C18	C	-0.512771	-1.261702	0.506347
C19	C	-0.512777	-1.143397	0.506347
C20	C	-0.789356	-1.538174	0.506396
C21	C	-0.907661	-1.538241	0.506427
C22	C	-0.441607	-1.003356	0.436314
C23	C	-0.415674	-1.074215	0.532190
C24	C	-0.538662	-1.074109	0.410482
C25	C	-0.486820	-1.003471	0.602333
C26	C	-0.609853	-1.003358	0.480560
C27	C	-0.583958	-1.074186	0.576502
C28	C	-0.976914	-1.467144	0.576552
C29	C	-1.047782	-1.441210	0.480682
C30	C	-1.047592	-1.564273	0.602314
C31	C	-0.976971	-1.512255	0.410505
C32	C	-0.976775	-1.635363	0.532202
C33	C	-1.047611	-1.609466	0.436265
C34	C	-0.235194	-1.538342	0.506440
C35	C	-0.116889	-1.538384	0.506454
C36	C	-0.512707	-1.538318	0.780440
C37	C	-0.512662	-1.538350	0.897217
C38	C	-0.512841	-0.815864	0.506445
C39	C	-0.512803	-0.934170	0.506406
C40	C	-0.512845	-1.538230	0.233439
C41	C	-0.512591	-1.538405	0.116663
C42	C	-0.444590	-1.606459	0.952103
C43	C	-0.444552	-1.606485	1.061827
C44	C	-0.580665	-1.470287	1.061769
C45	C	-0.580698	-1.470258	0.952046
C46	C	-0.376554	-1.674551	0.897273
C47	C	-0.308478	-1.742667	0.952160
C48	C	-0.308440	-1.742693	1.061884
C49	C	-0.376477	-1.674602	1.116722
H50	H	-0.381364	-0.972259	0.377137
N51	N	-0.376441	-1.674603	1.228802
N52	N	-0.354166	-1.591593	1.277757
H53	H	-0.354143	-1.591596	1.356913
H54	H	-0.636111	-1.414780	0.907357
N55	N	-0.312696	-1.113252	0.559585
N56	N	-0.234226	-1.090548	0.503983
H57	H	-0.161495	-1.118114	0.523324
H58	H	-0.945871	-1.406912	0.635769
H59	H	-1.078995	-1.359142	0.458903
H60	H	-1.078457	-1.669652	0.376905
N61	N	-0.650151	-1.400744	1.117797
N62	N	-0.650112	-1.400781	1.215762
H63	H	-0.699188	-1.351667	1.255333
N64	N	-0.712799	-0.964291	0.453115
N65	N	-0.752328	-0.986860	0.366054
H66	H	-0.825035	-0.959269	0.346659
H67	H	-0.464841	-0.972571	0.683453
N68	N	-0.566146	-1.113035	0.308754
N69	N	-0.646709	-1.169777	0.297133
H70	H	-0.666114	-1.197266	0.225286
N71	N	-0.938209	-1.484574	0.308771
N72	N	-0.840481	-1.479999	0.292353
H73	H	-0.813101	-1.460440	0.220508
N74	N	-0.937629	-1.738294	0.559589
N75	N	-0.960178	-1.777896	0.646622
H76	H	-0.932531	-1.850592	0.665975
N77	N	-0.238965	-1.812211	0.896167
N78	N	-0.140745	-1.805189	0.908440
H79	H	-0.091646	-1.854306	0.868898
N80	N	-0.659472	-1.112946	0.650921
N81	N	-0.649841	-1.090111	0.745776
H82	H	-0.703169	-1.117485	0.798338
H83	H	-1.078614	-1.586232	0.683394
H84	H	-0.376580	-1.674541	0.807930
H85	H	-0.253001	-1.798148	1.106570
