data_functionalizedCrystal
_audit_creation_method	'MofGen! by Chris Wilmer'
_symmetry_space_group_name_H-M	'P1'
_symmetry_Int_Tables_number	1
_symmetry_cell_setting	triclinic
loop_
_symmetry_equiv_pos_as_xyz
  x,y,z
_cell_length_a	10.489741
_cell_length_b	17.038272
_cell_length_c	8.965430
_cell_angle_alpha	90.000179
_cell_angle_beta	89.998843
_cell_angle_gamma	87.825365
loop_
_atom_site_label
_atom_site_type_symbol
_atom_site_fract_x
_atom_site_fract_y
_atom_site_fract_z
O1	O	1.704377	0.110369	-0.123948
O2	O	1.334150	0.120730	-0.123972
O3	O	1.517063	0.001722	-0.123948
O4	O	1.521464	0.229378	-0.123972
O5	O	1.517047	0.001729	0.124130
O6	O	1.334134	0.120738	0.124107
O7	O	1.704361	0.110377	0.124130
Cu8	Cu	1.519246	0.115558	0.146770
Cu9	Cu	1.519265	0.115549	-0.146612
O10	O	1.521448	0.229386	0.124107
C11	C	1.286537	0.119951	0.000065
C12	C	1.144689	0.117610	0.000056
C13	C	1.513053	-0.027426	0.000091
C14	C	1.501111	-0.114288	0.000089
C15	C	1.069466	0.041889	0.000078
C16	C	0.980693	0.077655	-0.122238
C17	C	0.980713	0.077681	0.122348
C18	C	1.057784	0.153408	-0.122361
C19	C	1.057813	0.153423	0.122335
C20	C	0.969072	0.189244	-0.000011
C21	C	1.610749	-0.163767	0.000098
C22	C	1.599521	-0.245383	0.000083
C23	C	1.478654	-0.277518	0.000070
C24	C	1.369007	-0.228032	0.000057
C25	C	1.380237	-0.146418	0.000062
C26	C	1.438983	-0.523505	0.000047
C27	C	1.427762	-0.605126	0.000048
C28	C	1.658277	-0.622471	0.000071
C29	C	1.669495	-0.540855	0.000084
C30	C	1.559849	-0.491376	0.000063
C31	C	1.467174	-0.360942	0.000060
C32	C	1.571330	-0.407954	0.000063
C33	C	1.751974	0.111156	0.000091
C34	C	1.893822	0.113497	0.000089
C35	C	1.525458	0.258533	0.000065
C36	C	1.537400	0.345395	0.000056
N37	N	1.519243	0.115564	0.353119
N38	N	1.519278	0.115537	-0.352961
C39	C	1.434622	0.170583	0.450415
C40	C	1.551599	0.186413	0.549834
C41	C	1.402315	0.099741	0.549828
C42	C	1.636282	0.131430	0.450350
C43	C	1.486918	0.044727	0.450335
C44	C	1.603976	0.060527	0.549709
H45	H	1.113334	-0.020359	-0.000069
H46	H	0.946688	0.045612	-0.225643
C47	C	1.588329	0.266205	0.608219
C48	C	1.699492	0.257486	0.694014
C49	C	1.733362	0.330975	0.747805
H50	H	1.521152	0.287937	0.668124
H51	H	1.603098	0.300238	0.526592
H52	H	1.684716	0.223466	0.775629
H53	H	1.766693	0.235767	0.634140
H54	H	1.748132	0.365008	0.666178
H55	H	1.666178	0.352701	0.807704
H56	H	1.808795	0.325070	0.806011
H57	H	0.946731	0.045631	0.225757
C58	C	1.270487	0.081741	0.608002
C59	C	1.236102	0.008108	0.555456
C60	C	1.114677	-0.008498	0.609026
H61	H	1.210327	0.120814	0.574040
H62	H	1.271612	0.081337	0.713961
H63	H	1.234967	0.008517	0.449520
H64	H	1.296228	-0.030981	0.589415
H65	H	1.115803	-0.008902	0.714985
H66	H	1.054528	0.030579	0.575060
H67	H	1.091337	-0.058462	0.573393
H68	H	1.735209	0.144873	0.406837
H69	H	1.675635	0.013985	0.593034
H70	H	1.091613	0.185419	-0.225887
C71	C	1.450649	-0.035142	0.391911
C72	C	1.550959	-0.067553	0.306067
C73	C	1.517584	-0.141130	0.252234
H74	H	1.376189	-0.029307	0.332029
H75	H	1.434445	-0.068908	0.473519
H76	H	1.567146	-0.033795	0.224471
H77	H	1.625428	-0.073407	0.365917
H78	H	1.501380	-0.174896	0.333842
H79	H	1.443123	-0.135288	0.192359
H80	H	1.585643	-0.163134	0.193995
H81	H	0.925476	0.251558	-0.000084
H82	H	1.363135	0.217154	0.406817
C83	C	1.103156	0.195978	0.260395
C84	C	1.064371	0.156073	0.388133
C85	C	1.106138	0.195238	0.515353
H86	H	1.067381	0.248033	0.261481
H87	H	1.193586	0.197548	0.258969
H88	H	0.973960	0.154511	0.389560
H89	H	1.100143	0.104020	0.387096
H90	H	1.196567	0.196808	0.513926
H91	H	1.070359	0.247292	0.516424
H92	H	1.079838	0.168164	0.602038
C93	C	1.319789	-0.469924	0.000124
C94	C	1.211540	-0.515538	0.000163
C95	C	1.101711	-0.466202	0.000260
H96	H	1.319192	-0.437707	-0.086360
H97	H	1.319303	-0.437739	0.086672
H98	H	1.212025	-0.547709	-0.086376
H99	H	1.212094	-0.547753	0.086641
H100	H	1.101226	-0.434017	0.086808
H101	H	1.101128	-0.433988	-0.086226
H102	H	1.028252	-0.497144	0.000300
H103	H	1.709172	-0.137610	0.000117
H104	H	1.688801	-0.285666	0.000093
C105	C	1.261093	-0.092786	-0.000179
C106	C	1.188824	-0.107420	-0.127799
C107	C	1.079049	-0.058038	-0.128070
H108	H	1.284912	-0.039553	-0.000256
H109	H	1.211815	-0.102607	0.086282
H110	H	1.238092	-0.097594	-0.214237
H111	H	1.164972	-0.160644	-0.127748
H112	H	1.029772	-0.067859	-0.041609
H113	H	1.102881	-0.004807	-0.128143
H114	H	1.029996	-0.067965	-0.214650
H115	H	1.767918	-0.514697	0.000094
C116	C	1.777467	-0.676060	0.000149
C117	C	1.885719	-0.630449	0.000193
C118	C	1.995545	-0.679787	0.000277
H119	H	1.778063	-0.708273	-0.086341
H120	H	1.777950	-0.708249	0.086691
H121	H	1.885237	-0.598274	-0.086341
H122	H	1.885166	-0.598237	0.086677
H123	H	1.996028	-0.711976	0.086820
H124	H	1.996127	-0.711997	-0.086214
H125	H	2.069006	-0.648847	0.000321
C126	C	1.237696	-0.262810	0.000271
C127	C	1.170869	-0.237705	0.127875
C128	C	1.049892	-0.269715	0.128115
H129	H	1.246524	-0.318501	0.000349
H130	H	1.192123	-0.245847	-0.086200
H131	H	1.216431	-0.254673	0.214324
H132	H	1.162006	-0.182018	0.127824
H133	H	1.004319	-0.252752	0.041644
H134	H	1.058733	-0.325406	0.128190
H135	H	1.004531	-0.252681	0.214685
H136	H	1.669740	-0.381786	0.000040
C137	C	1.296609	-0.640127	-0.000205
C138	C	1.283467	-0.686496	-0.127814
C139	C	1.162683	-0.718762	-0.128083
H140	H	1.232791	-0.599055	-0.000295
H141	H	1.287418	-0.671646	0.086263
H142	H	1.292646	-0.654978	-0.214259
H143	H	1.347256	-0.727580	-0.127750
H144	H	1.153491	-0.750282	-0.041615
H145	H	1.098875	-0.677685	-0.128170
H146	H	1.153754	-0.750233	-0.214656
H147	H	1.368763	-0.387115	0.000053
