data_functionalizedCrystal
_audit_creation_method	'MofGen! by Chris Wilmer'
_symmetry_space_group_name_H-M	'P1'
_symmetry_Int_Tables_number	1
_symmetry_cell_setting	triclinic
loop_
_symmetry_equiv_pos_as_xyz
  x,y,z
_cell_length_a	14.628931
_cell_length_b	14.560438
_cell_length_c	14.560438
_cell_angle_alpha	60.000905
_cell_angle_beta	90.000974
_cell_angle_gamma	59.999690
loop_
_atom_site_label
_atom_site_type_symbol
_atom_site_fract_x
_atom_site_fract_y
_atom_site_fract_z
Zr1	Zr	0.880618	1.005274	-0.120506
O2	O	0.734654	1.196878	-0.267151
O3	O	0.925364	0.813673	-0.075554
O4	O	0.925359	1.005277	-0.267154
O5	O	0.734662	1.005271	0.075590
O6	O	1.075791	1.005276	-0.267154
O7	O	0.734658	1.005274	-0.075550
O8	O	1.075799	0.662532	0.075584
O9	O	0.734654	1.348016	-0.267148
O10	O	1.056713	0.892480	-0.056379
O11	O	0.944450	0.892479	0.056415
O12	O	0.944445	1.118067	-0.169170
O13	O	0.832182	1.118066	-0.056375
Zr14	Zr	1.120546	1.005269	0.120547
Zr15	Zr	1.120540	1.005274	-0.120506
Zr16	Zr	0.880624	1.005270	0.120546
Zr17	Zr	0.880618	1.246322	-0.120501
Zr18	Zr	1.120545	0.764222	0.120542
O19	O	1.075800	1.196871	0.075594
O20	O	1.075792	1.196877	-0.267151
O21	O	0.734662	1.196872	0.075594
O22	O	1.266510	0.813666	0.267192
O23	O	1.266502	0.813672	-0.075553
O24	O	0.925372	0.813667	0.267191
O25	O	1.266502	1.005272	-0.075550
O26	O	1.075805	1.005267	0.267195
O27	O	0.925373	1.005268	0.267195
O28	O	1.266506	1.005270	0.075591
O29	O	0.925360	1.348015	-0.267148
O30	O	1.075804	0.662528	0.267189
O31	O	1.266510	0.662528	0.267189
O32	O	1.266505	0.662531	0.075585
O33	O	0.734659	1.348013	-0.075544
O34	O	0.925365	1.348012	-0.075544
O35	O	1.056719	0.892476	0.169210
O36	O	1.168982	0.892478	0.056416
O37	O	1.056714	1.118065	-0.056375
O38	O	0.944451	1.118064	0.056420
C39	C	1.000581	0.703758	0.000015
C40	C	1.000581	0.601427	0.000013
C41	C	1.059179	0.553352	-0.058865
C42	C	1.059183	0.457192	-0.058854
C43	C	0.941983	0.457196	0.058913
C44	C	0.941986	0.553347	0.058908
C45	C	0.700476	1.005273	0.000020
C46	C	0.598623	1.005273	0.000020
C47	C	0.608906	0.893367	0.055971
C48	C	0.503637	0.893364	0.055973
C49	C	1.300688	1.005271	0.000021
C50	C	1.402541	1.005271	0.000021
C51	C	1.000574	1.005277	-0.301499
C52	C	1.000572	1.005279	-0.403832
C53	C	1.000582	1.306786	0.000026
C54	C	1.000583	1.409117	0.000028
C55	C	0.941970	1.123031	-0.510784
C56	C	0.941983	1.123025	-0.606933
C57	C	1.059201	0.887504	-0.489164
C58	C	1.059194	0.887511	-0.393018
C59	C	1.000590	1.005267	0.301540
C60	C	1.000592	1.005265	0.403873
C61	C	1.300687	0.703757	0.000015
C62	C	1.402540	0.601426	0.000013
C63	C	1.000589	0.703753	0.301534
C64	C	1.000591	0.601420	0.403865
C65	C	1.300695	0.703752	0.301535
C66	C	1.402550	0.601419	0.403866
C67	C	0.700469	1.306792	-0.301494
C68	C	0.598614	1.409125	-0.403825
C69	C	0.700477	1.306787	0.000026
C70	C	0.598624	1.409118	0.000027
C71	C	1.000575	1.306791	-0.301493
C72	C	1.000572	1.409123	-0.403824
C73	C	1.391790	0.553349	-0.058863
C74	C	1.487496	0.457206	-0.058868
C75	C	1.604697	0.457221	0.058887
C76	C	1.508993	0.553369	0.058886
C77	C	1.059194	0.553341	0.510818
C78	C	1.059184	0.457198	0.606965
C79	C	0.941966	0.457217	0.489192
C80	C	0.941970	0.553365	0.393048
C81	C	1.509002	0.553341	0.393067
C82	C	1.604702	0.457197	0.489221
C83	C	1.487485	0.457213	0.606971
C84	C	1.391787	0.553362	0.510818
H85	H	0.894268	0.592489	0.106859
C86	C	1.123636	0.404315	-0.123627
C87	C	1.123644	0.298548	-0.123622
C88	C	1.188101	0.245670	-0.188397
C89	C	1.252550	0.298561	-0.253177
C90	C	1.252544	0.404334	-0.253184
C91	C	1.188088	0.457212	-0.188409
H92	H	1.075933	0.259390	-0.075666
H93	H	1.188104	0.167370	-0.188391
H94	H	1.300264	0.259418	-0.301127
H95	H	1.300256	0.443492	-0.301140
H96	H	1.188084	0.535512	-0.188415
C97	C	0.390861	1.134714	-0.064699
C98	C	0.329431	1.231886	-0.033964
C99	C	0.317760	1.361330	-0.098684
C100	C	0.367518	1.393600	-0.194139
C101	C	0.428953	1.296426	-0.224878
C102	C	0.440624	1.166983	-0.160159
H103	H	0.292593	1.208000	0.036702
H104	H	0.272282	1.433264	-0.075928
H105	H	0.358879	1.489422	-0.242048
H106	H	0.465791	1.320313	-0.295544
H107	H	0.486102	1.095048	-0.182915
H108	H	1.106893	0.592494	-0.106819
C109	C	1.721795	0.404340	0.123660
C110	C	1.827070	0.298571	0.123675
C111	C	1.944167	0.245686	0.188456
C112	C	1.955989	0.298571	0.253221
C113	C	1.850711	0.404346	0.253208
C114	C	1.733614	0.457230	0.188427
H115	H	1.818321	0.259417	0.075730
H116	H	2.022101	0.167384	0.188465
H117	H	2.042671	0.259423	0.301175
H118	H	1.859459	0.443499	0.301153
H119	H	1.655680	0.535532	0.188418
H120	H	1.305116	0.592486	-0.106812
C121	C	0.877490	0.404350	0.477298
C122	C	0.877483	0.298588	0.583050
C123	C	0.813007	0.245722	0.571151
C124	C	0.748537	0.298617	0.453502
C125	C	0.748542	0.404384	0.347742
C126	C	0.813018	0.457251	0.359640
H127	H	0.925209	0.259427	0.670148
H128	H	0.813004	0.167426	0.649442
H129	H	0.700808	0.259482	0.444694
H130	H	0.700816	0.443546	0.260643
H131	H	0.813021	0.535547	0.281349
H132	H	0.894265	1.218910	-0.694014
H133	H	0.695644	0.797561	0.103878
H134	H	0.894276	0.418039	0.106862
H135	H	0.512267	0.797557	0.103867
H136	H	0.511885	1.101078	-0.047879
H137	H	0.894236	1.218925	-0.519595
H138	H	1.517771	0.592469	0.305985
H139	H	1.106928	0.791622	-0.480373
H140	H	1.106920	0.791618	-0.305927
H141	H	1.478734	0.418068	-0.106813
H142	H	1.517754	0.592517	0.106829
H143	H	1.106923	0.592469	0.519632
H144	H	1.106903	0.418057	0.694048
H145	H	0.894243	0.592515	0.305956
H146	H	1.691378	0.418056	0.480421
H147	H	1.478735	0.418071	0.694061
H148	H	1.305103	0.592511	0.519619
