data_functionalizedCrystal
_audit_creation_method	'MofGen! by Chris Wilmer'
_symmetry_space_group_name_H-M	'P1'
_symmetry_Int_Tables_number	1
_symmetry_cell_setting	triclinic
loop_
_symmetry_equiv_pos_as_xyz
  x,y,z
_cell_length_a	14.519731
_cell_length_b	13.596369
_cell_length_c	11.792241
_cell_angle_alpha	90.006129
_cell_angle_beta	83.941134
_cell_angle_gamma	90.005416
loop_
_atom_site_label
_atom_site_type_symbol
_atom_site_fract_x
_atom_site_fract_y
_atom_site_fract_z
O1	O	1.224401	0.081794	0.148897
O2	O	1.557735	0.415127	0.482231
O3	O	1.891068	0.748461	0.815564
O4	O	0.955991	0.081795	0.166393
O5	O	1.289324	0.415129	0.499726
O6	O	1.622658	0.748462	0.833060
O7	O	1.096710	0.081788	-0.007561
O8	O	1.430043	0.415121	0.325772
O9	O	1.763376	0.748454	0.659106
O10	O	1.083683	0.081802	0.322851
O11	O	1.417016	0.415135	0.656185
O12	O	1.750349	0.748468	0.989518
O13	O	1.096696	-0.081795	-0.007570
O14	O	1.430029	0.251538	0.325763
O15	O	1.763362	0.584871	0.659097
O16	O	0.955977	-0.081787	0.166384
O17	O	1.289310	0.251546	0.499717
O18	O	1.622644	0.584879	0.833050
O19	O	1.224387	-0.081789	0.148888
O20	O	1.557720	0.251544	0.482221
O21	O	1.891054	0.584878	0.815555
Zn22	Zn	1.090180	-0.107761	0.157634
Zn23	Zn	1.423513	0.225573	0.490968
Zn24	Zn	1.756846	0.558906	0.824301
Zn25	Zn	1.090198	0.107767	0.157647
Zn26	Zn	1.423532	0.441100	0.490980
Zn27	Zn	1.756865	0.774434	0.824313
O28	O	1.083668	-0.081781	0.322842
O29	O	1.417002	0.251552	0.656175
O30	O	1.750335	0.584885	0.989509
C31	C	0.921622	0.000004	0.165569
C32	C	1.254955	0.333337	0.498902
C33	C	1.588288	0.666671	0.832235
C34	C	0.819232	0.000005	0.163112
C35	C	1.152566	0.333338	0.496445
C36	C	1.485899	0.666671	0.829779
C37	C	0.736081	0.000008	0.161116
C38	C	1.069414	0.333342	0.494449
C39	C	1.402748	0.666675	0.827783
C40	C	0.631763	0.000009	0.158622
C41	C	0.965096	0.333342	0.491955
C42	C	1.298430	0.666675	0.825289
C43	C	0.548617	0.000009	0.156642
C44	C	0.881950	0.333342	0.489976
C45	C	1.215283	0.666675	0.823309
C46	C	0.444292	0.000011	0.154149
C47	C	0.777626	0.333344	0.487482
C48	C	1.110959	0.666677	0.820815
N49	N	1.090174	-0.254852	0.157625
N50	N	1.423507	0.078481	0.490959
N51	N	1.756840	0.411814	0.824292
C52	C	1.090197	-0.656143	0.157648
C53	C	1.423531	-0.322810	0.490981
C54	C	1.756864	0.010523	0.824314
C55	C	1.090188	-0.544492	0.157645
C56	C	1.423521	-0.211159	0.490979
C57	C	1.756855	0.122175	0.824312
C58	C	1.090186	-0.455501	0.157638
C59	C	1.423519	-0.122168	0.490971
C60	C	1.756853	0.211165	0.824304
C61	C	1.090176	-0.343843	0.157633
C62	C	1.423509	-0.010510	0.490967
C63	C	1.756843	0.322824	0.824300
C64	C	1.258757	0.000004	0.149713
C65	C	1.592090	0.333338	0.483046
C66	C	1.925423	0.666671	0.816379
C67	C	1.361146	0.000010	0.152169
C68	C	1.694479	0.333344	0.485502
C69	C	2.027813	0.666677	0.818836
C70	C	1.095884	-0.000003	-0.049852
C71	C	1.429218	0.333330	0.283481
C72	C	1.762551	0.666663	0.616815
C73	C	1.093435	-0.000002	-0.175852
C74	C	1.426768	0.333331	0.157481
C75	C	1.760102	0.666664	0.490814
N76	N	1.090212	0.254859	0.157647
N77	N	1.423545	0.588192	0.490980
N78	N	1.756878	0.921525	0.824313
C79	C	1.088931	0.000014	-0.406540
C80	C	1.422265	0.333347	-0.073207
C81	C	1.755598	0.666681	0.260127
C82	C	1.091434	0.000005	-0.278168
C83	C	1.424767	0.333338	0.055165
C84	C	1.758100	0.666672	0.388498
C85	C	1.084494	0.000012	0.365133
C86	C	1.417827	0.333345	0.698466
C87	C	1.751160	0.666679	1.031800
C88	C	1.086943	0.000017	0.491133
C89	C	1.420276	0.333351	0.824467
C90	C	1.753610	0.666684	1.157800
