data_functionalizedCrystal
_audit_creation_method	'MofGen! by Chris Wilmer'
_symmetry_space_group_name_H-M	'P1'
_symmetry_Int_Tables_number	1
_symmetry_cell_setting	triclinic
loop_
_symmetry_equiv_pos_as_xyz
  x,y,z
_cell_length_a	16.625548
_cell_length_b	19.120786
_cell_length_c	16.625539
_cell_angle_alpha	92.471374
_cell_angle_beta	90.020568
_cell_angle_gamma	92.466188
loop_
_atom_site_label
_atom_site_type_symbol
_atom_site_fract_x
_atom_site_fract_y
_atom_site_fract_z
Zn1	Zn	1.218970	-0.279609	0.442197
Zn2	Zn	1.213114	-0.397074	0.301603
Zn3	Zn	1.084131	-0.279636	0.307376
Zn4	Zn	1.078345	-0.397034	0.436395
O5	O	1.148640	-0.338338	0.371893
O6	O	1.331025	-0.295197	0.423559
O7	O	1.195974	-0.381524	0.189535
O8	O	1.106890	-0.181342	0.330104
O9	O	1.326723	-0.381498	0.320265
O10	O	1.205956	-0.181323	0.429156
O11	O	1.101211	-0.295243	0.193776
O12	O	0.970531	-0.295204	0.324478
O13	O	1.097028	-0.381429	0.549998
O14	O	0.966280	-0.381455	0.419268
O15	O	1.200345	-0.295158	0.554261
O16	O	1.190364	-0.495359	0.314640
O17	O	1.091350	-0.495329	0.413671
C18	C	0.939149	-0.338328	0.371871
C19	C	0.849528	-0.338341	0.371879
C20	C	0.521352	-0.338345	0.371914
C21	C	0.612660	-0.338342	0.371902
C22	C	0.685437	-0.338344	0.371896
C23	C	0.776751	-0.338340	0.371885
C24	C	1.139615	-0.520830	0.362917
C25	C	1.135828	-0.598901	0.359104
C26	C	1.185589	-0.635508	0.408925
C27	C	1.182027	-0.708863	0.405344
C28	C	1.128709	-0.745611	0.351936
C29	C	1.078942	-0.708998	0.302113
C30	C	1.082500	-0.635644	0.305699
C31	C	1.115383	-0.967097	0.338531
C32	C	1.111831	-1.040456	0.334947
C33	C	1.214915	-1.040316	0.438180
C34	C	1.218472	-0.966960	0.441758
C35	C	1.168703	-0.930355	0.391937
C36	C	1.125069	-0.820592	0.348273
C37	C	1.172339	-0.855375	0.395605
C38	C	1.358948	-0.338349	0.371915
C39	C	1.448569	-0.338353	0.371925
C40	C	1.148695	-0.338286	0.582204
C41	C	1.148718	-0.338264	0.671826
C42	C	1.157722	-0.155134	0.380921
C43	C	1.161592	-0.077063	0.384769
C44	C	1.148634	-0.338340	0.162402
C45	C	1.148776	-0.338164	0.072790
C46	C	1.148759	-0.338185	1.000006
C47	C	1.148745	-0.338209	0.908696
C48	C	1.148739	-0.338225	0.835919
C49	C	1.148724	-0.338248	0.744604
H50	H	1.229010	-0.605593	0.452412
C51	C	1.273874	-0.862603	0.497293
C52	C	1.230943	-0.814985	0.454314
H53	H	1.310050	-0.837662	0.533539
H54	H	1.303351	-0.891206	0.460794
H55	H	1.237334	-0.891228	0.526703
H56	H	1.267484	-0.786364	0.424899
H57	H	1.201465	-0.786370	0.490818
H58	H	1.255434	-1.070129	0.478742
C59	C	0.978044	-0.553243	0.298431
C60	C	1.027802	-0.595402	0.250934
H61	H	0.944270	-0.528404	0.264621
H62	H	1.010309	-0.520865	0.330744
H63	H	0.945798	-0.581873	0.332130
H64	H	1.060052	-0.566771	0.217238
H65	H	0.995533	-0.627783	0.218607
H66	H	1.081659	-0.850520	0.304786
H67	H	1.074861	-0.937298	0.297963
C68	C	1.010275	-1.033231	0.233274
C69	C	1.053212	-1.080851	0.276243
H70	H	0.974086	-1.058170	0.197039
H71	H	1.046804	-1.004611	0.203859
H72	H	0.980804	-1.004623	0.269785
H73	H	1.082688	-1.109455	0.239732
H74	H	1.016678	-1.109483	0.305660
H75	H	1.261888	-0.937042	0.485246
C76	C	1.027724	-0.821506	0.250770
C77	C	1.020335	-0.749389	0.243403
H78	H	0.991546	-0.846439	0.214518
H79	H	1.015307	-0.833505	0.304340
H80	H	1.081328	-0.833483	0.238434
H81	H	0.966732	-0.737411	0.255744
H82	H	1.032746	-0.737385	0.189820
H83	H	1.222554	-0.738666	0.445908
