data_functionalizedCrystal
_audit_creation_method	'MofGen! by Chris Wilmer'
_symmetry_space_group_name_H-M	'P1'
_symmetry_Int_Tables_number	1
_symmetry_cell_setting	triclinic
loop_
_symmetry_equiv_pos_as_xyz
  x,y,z
_cell_length_a	14.560432
_cell_length_b	14.628931
_cell_length_c	14.628931
_cell_angle_alpha	60.000000
_cell_angle_beta	90.000632
_cell_angle_gamma	60.001318
loop_
_atom_site_label
_atom_site_type_symbol
_atom_site_fract_x
_atom_site_fract_y
_atom_site_fract_z
Zr1	Zr	0.884751	1.000601	-0.119964
O2	O	0.738106	1.191302	-0.265924
O3	O	0.929705	0.809897	-0.075219
O4	O	0.929706	1.000602	-0.265924
O5	O	0.738105	1.000598	0.075213
O6	O	1.080843	1.000606	-0.265925
O7	O	0.738105	1.000597	-0.075219
O8	O	1.080842	0.659469	0.075213
O9	O	0.738106	1.341734	-0.265925
O10	O	1.061670	0.888340	-0.056136
O11	O	0.948878	0.888337	0.056130
O12	O	0.948878	1.112868	-0.168402
O13	O	0.836086	1.112866	-0.056136
Zr14	Zr	1.125797	1.000608	0.119957
Zr15	Zr	1.125798	1.000607	-0.119964
Zr16	Zr	0.884750	1.000602	0.119957
Zr17	Zr	0.884751	1.240522	-0.119964
Zr18	Zr	1.125797	0.760686	0.119957
O19	O	1.080843	1.191312	0.075212
O20	O	1.080844	1.191311	-0.265925
O21	O	0.738105	1.191303	0.075213
O22	O	1.272442	0.809906	0.265918
O23	O	1.272443	0.809905	-0.075219
O24	O	0.929705	0.809898	0.265918
O25	O	1.272443	1.000611	-0.075220
O26	O	1.080842	1.000607	0.265918
O27	O	0.929705	1.000603	0.265918
O28	O	1.272443	1.000611	0.075212
O29	O	0.929706	1.341739	-0.265925
O30	O	1.080842	0.659470	0.265918
O31	O	1.272442	0.659475	0.265918
O32	O	1.272443	0.659474	0.075212
O33	O	0.738106	1.341735	-0.075219
O34	O	0.929706	1.341740	-0.075220
O35	O	1.061670	0.888341	0.168395
O36	O	1.174462	0.888343	0.056129
O37	O	1.061670	1.112871	-0.056136
O38	O	0.948878	1.112869	0.056129
C39	C	1.005274	0.700499	-0.000003
C40	C	1.005273	0.598646	-0.000003
C41	C	0.703761	1.000597	-0.000003
C42	C	0.601430	1.000594	-0.000003
C43	C	1.061226	0.553238	-0.055694
C44	C	1.061227	0.447968	-0.055695
C45	C	0.719169	0.766184	0.117193
C46	C	0.729961	0.648984	0.175785
C47	C	0.633809	0.648989	0.175782
C48	C	0.526855	0.766208	0.117183
C49	C	0.516063	0.883409	0.058591
C50	C	0.612224	0.883390	0.058598
C51	C	0.398326	1.117816	-0.058596
C52	C	0.494477	1.117813	-0.058601
C53	C	0.291372	1.235034	-0.117195
C54	C	0.280578	1.352238	-0.175795
C55	C	0.376739	1.352228	-0.175791
C56	C	0.483684	1.235014	-0.117194
C57	C	1.306787	1.000612	-0.000004
C58	C	1.409118	1.000615	-0.000004
C59	C	1.005274	1.000604	-0.300108
C60	C	1.005275	1.000603	-0.401961
C61	C	1.005274	1.300710	-0.000004
C62	C	1.005275	1.402563	-0.000004
C63	C	0.949322	1.111984	-0.503062
C64	C	0.949321	1.111986	-0.608333
C65	C	1.005274	1.000605	0.300101
C66	C	1.005273	1.000606	0.401954
C67	C	1.306787	0.700507	-0.000004
C68	C	1.409117	0.598657	-0.000004
C69	C	1.005273	0.700500	0.300102
C70	C	1.005273	0.598647	0.401955
C71	C	1.306786	0.700508	0.300101
C72	C	1.409117	0.598658	0.401954
C73	C	0.703762	1.300701	-0.300108
C74	C	0.601431	1.402551	-0.401961
C75	C	0.703761	1.300702	-0.000003
C76	C	0.601431	1.402552	-0.000003
C77	C	1.005275	1.300709	-0.300109
C78	C	1.005275	1.402561	-0.401962
C79	C	1.398787	0.553247	-0.055695
C80	C	1.504550	0.447979	-0.055696
C81	C	1.061225	0.553240	0.503055
C82	C	1.061226	0.447970	0.608327
C83	C	1.510692	0.553251	0.391672
C84	C	1.616457	0.447984	0.496941
H85	H	1.109126	0.408924	-0.103380
H86	H	0.957366	0.559593	0.393335
H87	H	1.053180	0.905248	-0.393341
O88	O	1.294747	0.599933	-0.112481
C89	C	1.212310	0.694661	-0.099854
H90	H	1.249883	0.678858	-0.020694
H91	H	1.138129	0.686962	-0.093109
H92	H	1.182256	0.794762	-0.175547
H93	H	0.957364	0.441612	0.047673
O94	O	0.948302	0.551812	0.056965
C95	C	1.023968	0.417716	0.139169
H96	H	1.101474	0.377253	0.114514
H97	H	0.981341	0.368060	0.146200
H98	H	1.050273	0.399401	0.223264
O99	O	0.366051	1.466195	-0.232806
C100	C	0.251035	1.569644	-0.284494
H101	H	0.199750	1.535292	-0.296104
H102	H	0.237632	1.651626	-0.369618
H103	H	0.222718	1.605666	-0.229561
O104	O	1.513014	0.552048	0.057045
C105	C	1.525435	0.496594	0.171463
H106	H	1.438916	0.539857	0.181115
H107	H	1.576113	0.517476	0.207373
H108	H	1.571319	0.387613	0.218424
O109	O	1.616682	0.448970	0.056980
C110	C	1.731662	0.386335	0.108735
H111	H	1.783032	0.289304	0.120399
H112	H	1.744964	0.369919	0.193838
H113	H	1.759966	0.449132	0.053822
O114	O	0.948285	0.449114	0.494520
C115	C	1.023928	0.425705	0.435712
H116	H	1.101436	0.413700	0.472361
H117	H	0.981279	0.510753	0.343628
H118	H	1.050234	0.333738	0.443590
O119	O	1.720490	0.401318	0.486835
C120	C	1.802931	0.306597	0.594189
H121	H	1.765353	0.322389	0.657548
H122	H	1.877100	0.314317	0.593235
H123	H	1.833003	0.206492	0.618595
H124	H	0.797467	0.766168	0.117192
O125	O	1.502259	0.448970	0.608549
C126	C	1.513193	0.386334	0.722993
H127	H	1.598961	0.289303	0.774123
H128	H	1.444184	0.369917	0.736233
H129	H	1.505275	0.449129	0.751164
O130	O	1.520836	0.599940	0.288118
C131	C	1.412976	0.694667	0.206065
H132	H	1.349323	0.678861	0.243464
H133	H	1.413933	0.686968	0.132231
H134	H	1.388454	0.794767	0.176151
O135	O	0.833830	0.535090	0.232884
C136	C	0.846145	0.463765	0.347271
H137	H	0.785270	0.532338	0.368025
H138	H	0.936086	0.410592	0.400285
H139	H	0.827039	0.390691	0.366002
O140	O	1.398716	0.552275	0.505401
C141	C	1.339421	0.654342	0.517742
H142	H	1.347350	0.735750	0.457102
H143	H	1.376053	0.617792	0.607250
H144	H	1.246915	0.692016	0.498855
O145	O	0.433369	0.766381	0.116984
C146	C	0.368953	0.830653	0.006102
H147	H	0.389987	0.899085	-0.054371
H148	H	0.275686	0.888279	-0.004992
H149	H	0.389096	0.756569	-0.011993
H150	H	0.193494	1.447668	-0.223497
O151	O	0.198052	1.234877	-0.116995
C152	C	0.198209	1.170605	-0.006113
H153	H	0.287998	1.102156	0.054360
H154	H	0.162820	1.112996	0.004975
H155	H	0.143938	1.244687	0.011990
H156	H	0.642601	0.553554	0.223497
H157	H	1.109123	0.592304	0.511675
O158	O	0.892252	1.225836	-0.711737
C159	C	0.935544	1.297166	-0.724098
H160	H	0.978599	1.263964	-0.637983
H161	H	0.863887	1.404394	-0.774534
H162	H	0.999150	1.280822	-0.769773
H163	H	1.495881	0.408924	-0.103371
H164	H	1.109131	0.408919	0.695057
H165	H	0.561984	1.234994	-0.117188
O166	O	0.892008	1.225831	-0.513498
C167	C	0.777052	1.297159	-0.572463
H168	H	0.767353	1.263961	-0.625380
H169	H	0.740977	1.404388	-0.629252
H170	H	0.729871	1.280808	-0.510441
H171	H	1.109134	0.592290	-0.103369
H172	H	1.053173	0.905243	-0.511319
