data_functionalizedCrystal
_audit_creation_method	'MofGen! by Chris Wilmer'
_symmetry_space_group_name_H-M	'P1'
_symmetry_Int_Tables_number	1
_symmetry_cell_setting	triclinic
loop_
_symmetry_equiv_pos_as_xyz
  x,y,z
_cell_length_a	6.817900
_cell_length_b	17.982959
_cell_length_c	11.168136
_cell_angle_alpha	94.260762
_cell_angle_beta	108.508683
_cell_angle_gamma	102.451857
loop_
_atom_site_label
_atom_site_type_symbol
_atom_site_fract_x
_atom_site_fract_y
_atom_site_fract_z
V1	V	-4.079252	-0.105424	-0.394227
V2	V	-3.579252	0.394576	0.105773
O3	O	-4.070935	0.005054	-0.386179
O4	O	-3.570935	0.505054	0.113821
O5	O	-4.025439	-0.209027	-0.392052
O6	O	-3.525439	0.290973	0.107948
O7	O	-4.056012	-0.103808	-0.565924
O8	O	-3.556012	0.396192	-0.065924
O9	O	-4.040150	-0.100893	-0.211104
O10	O	-3.540150	0.399107	0.288896
V11	V	-4.560321	-0.092209	-0.372260
V12	V	-4.060321	0.407791	0.127740
O13	O	-4.345893	-0.134412	-0.442412
O14	O	-3.845893	0.365588	0.057588
O15	O	-4.743877	-0.063221	-0.324075
O16	O	-4.243877	0.436779	0.175925
O17	O	-4.390928	0.011394	-0.374435
O18	O	-3.890928	0.511394	0.125565
O19	O	-4.686035	-0.202687	-0.380307
O20	O	-4.186035	0.297313	0.119693
O21	O	-4.716820	-0.096740	-0.555383
O22	O	-4.216820	0.403260	-0.055383
O23	O	-4.360354	-0.093825	-0.200562
O24	O	-3.860354	0.406175	0.299438
C25	C	-3.868309	-0.234283	-0.385968
C26	C	-3.368309	0.265717	0.114032
C27	C	-3.905765	-0.318979	-0.385334
C28	C	-3.405765	0.181021	0.114666
C29	C	-3.907307	-0.100064	-0.607757
C30	C	-3.407307	0.399936	-0.107757
C31	C	-3.969553	-0.099428	-0.748124
C32	C	-3.469553	0.400572	-0.248124
C33	C	-4.106204	-0.362651	-0.391355
C34	C	-3.606204	0.137349	0.108645
C35	C	-4.141390	-0.442233	-0.390767
C36	C	-3.641390	0.057767	0.109233
C37	C	-3.976129	-0.478141	-0.384150
C38	C	-3.476129	0.021859	0.115850
C39	C	-3.775675	-0.434464	-0.378133
C40	C	-3.275675	0.065536	0.121867
C41	C	-3.740496	-0.354884	-0.378730
C42	C	-3.240496	0.145116	0.121270
C43	C	-3.917543	-0.755400	-0.375728
C44	C	-3.417543	-0.255400	0.124272
C45	C	-3.952736	-0.834985	-0.375128
C46	C	-3.452736	-0.334985	0.124872
C47	C	-4.318436	-0.842748	-0.387765
C48	C	-3.818436	-0.342748	0.112235
C49	C	-4.283258	-0.763168	-0.388362
C50	C	-3.783258	-0.263168	0.111638
C51	C	-4.082811	-0.719499	-0.382352
C52	C	-3.582811	-0.219499	0.117648
C53	C	-4.044662	-0.633207	-0.382991
C54	C	-3.544662	-0.133207	0.117009
C55	C	-4.014271	-0.564430	-0.383501
C56	C	-3.514271	-0.064430	0.116499
C57	C	-4.171094	-0.102758	-0.816833
C58	C	-3.671094	0.397242	-0.316833
C59	C	-4.235433	-0.102101	-0.961910
C60	C	-3.735433	0.397899	-0.461910
C61	C	-4.211399	0.036646	-0.380516
C62	C	-3.711399	0.536646	0.119484
C63	C	-4.153183	0.121342	-0.381157
C64	C	-3.653183	0.621342	0.118843
C65	C	-4.172401	-0.097571	-0.158723
C66	C	-3.672401	0.402429	0.341277
C67	C	-4.089393	-0.098203	-0.018354
C68	C	-3.589393	0.401797	0.481646
H69	H	-4.240778	-0.333419	-0.396731
H70	H	-3.740778	0.166581	0.103269
H71	H	-4.296005	-0.106091	-0.768251
H72	H	-3.796005	0.393909	-0.268251
Cl73	Cl	-4.570435	-0.897652	-0.395325
Cl74	Cl	-4.070435	-0.397652	0.104675
Cl75	Cl	-3.776675	-0.094269	-0.823117
Cl76	Cl	-3.276675	0.405731	-0.323117
Cl77	Cl	-4.502009	-0.106507	-1.053095
Cl78	Cl	-4.002009	0.393493	-0.553095
Cl79	Cl	-3.822820	-0.093809	-0.927180
Cl80	Cl	-3.322820	0.406191	-0.427180
Cl81	Cl	-3.665551	-0.700510	-0.368161
Cl82	Cl	-3.165551	-0.200510	0.131839
Cl83	Cl	-3.567920	-0.479607	-0.369822
Cl84	Cl	-3.067920	0.020393	0.130178
H85	H	-4.304606	-0.477787	-0.395671
H86	H	-3.804606	0.022213	0.104329
Cl87	Cl	-4.491017	-0.718029	-0.396664
Cl88	Cl	-3.991017	-0.218029	0.103336
Cl89	Cl	-3.488509	-0.299984	-0.371169
Cl90	Cl	-2.988509	0.200016	0.128831
H91	H	-3.818153	-0.864219	-0.369748
H92	H	-3.318153	-0.364219	0.130252
