data_functionalizedCrystal
_audit_creation_method	'MofGen! by Chris Wilmer'
_symmetry_space_group_name_H-M	'P1'
_symmetry_Int_Tables_number	1
_symmetry_cell_setting	triclinic
loop_
_symmetry_equiv_pos_as_xyz
  x,y,z
_cell_length_a	12.837942
_cell_length_b	10.967926
_cell_length_c	10.065918
_cell_angle_alpha	87.800512
_cell_angle_beta	98.890793
_cell_angle_gamma	89.656601
loop_
_atom_site_label
_atom_site_type_symbol
_atom_site_fract_x
_atom_site_fract_y
_atom_site_fract_z
O1	O	0.113029	1.630154	-0.269913
O2	O	0.136825	1.281526	-0.187914
O3	O	-0.025815	1.448108	-0.227103
O4	O	0.275669	1.463572	-0.230724
O5	O	-0.052147	1.413391	-0.445927
O6	O	0.110493	1.246808	-0.406738
O7	O	0.086697	1.595437	-0.488737
Zn8	Zn	0.094414	1.415611	-0.482481
Zn9	Zn	0.129108	1.461352	-0.194170
O10	O	0.249337	1.428854	-0.449548
C11	C	0.123918	1.219234	-0.286758
C12	C	0.124675	1.085347	-0.255267
C13	C	0.111371	1.007672	-0.354585
C14	C	0.112154	0.869292	-0.322040
C15	C	-0.077492	1.425527	-0.335286
C16	C	-0.192243	1.409950	-0.331620
C17	C	-0.437117	1.597221	-0.375639
C18	C	-0.544937	1.582591	-0.372195
C19	C	-0.515702	1.366062	-0.321281
C20	C	-0.407883	1.380692	-0.324724
C21	C	-0.368595	1.496275	-0.351906
C22	C	-0.260775	1.510903	-0.355359
C23	C	-0.231541	1.294376	-0.304435
C24	C	-0.339360	1.279746	-0.300992
C25	C	0.301015	1.451436	-0.341362
C26	C	0.415766	1.467015	-0.345019
C27	C	0.099605	1.657729	-0.389890
C28	C	0.098849	1.791617	-0.421372
N29	N	0.070736	1.384402	-0.679247
C30	C	0.120870	1.450486	-0.762567
C31	C	0.102636	1.426476	-0.914088
N32	N	0.152778	1.492569	0.002594
H33	H	0.099397	1.043617	-0.463708
H34	H	-0.547708	1.271961	-0.299137
F35	F	-0.381184	1.156742	-0.272054
H36	H	-0.600724	1.664793	-0.391517
H37	H	-0.175739	1.212176	-0.285120
H38	H	0.177286	1.524842	-0.721726
F39	F	0.028880	1.329291	-0.967459
F40	F	-0.003017	1.287222	-0.732624
F41	F	-0.395305	1.720227	-0.404595
H42	H	0.124120	0.833353	-0.212910
H43	H	0.086876	0.827555	-0.530504
F44	F	0.140311	1.038372	-0.112632
H45	H	0.209200	1.566929	-0.956573
H46	H	-0.228789	1.605016	-0.377496
