data_functionalizedCrystal
_audit_creation_method	'MofGen! by Chris Wilmer'
_symmetry_space_group_name_H-M	'P1'
_symmetry_Int_Tables_number	1
_symmetry_cell_setting	triclinic
loop_
_symmetry_equiv_pos_as_xyz
  x,y,z
_cell_length_a	34.408637
_cell_length_b	34.407814
_cell_length_c	34.404193
_cell_angle_alpha	60.004510
_cell_angle_beta	60.009006
_cell_angle_gamma	59.994604
loop_
_atom_site_label
_atom_site_type_symbol
_atom_site_fract_x
_atom_site_fract_y
_atom_site_fract_z
O1	O	0.053973	-0.567860	0.474801
O2	O	0.553973	-0.067860	0.974801
O3	O	0.020377	-0.442124	0.382567
O4	O	0.520377	0.057876	0.882567
O5	O	0.100004	-0.521670	0.382483
O6	O	0.600004	-0.021670	0.882483
O7	O	-0.025653	-0.488314	0.474886
O8	O	0.474347	0.011686	0.974886
O9	O	0.126426	-0.495253	0.408816
O10	O	0.626426	0.004747	0.908816
O11	O	0.046800	-0.415707	0.408900
O12	O	0.546800	0.084293	0.908900
O13	O	0.080396	-0.541443	0.501134
O14	O	0.580396	-0.041443	1.001134
Zn15	Zn	0.067793	-0.474381	0.459198
Zn16	Zn	0.567793	0.025619	0.959198
Zn17	Zn	0.032980	-0.509186	0.424503
Zn18	Zn	0.532980	-0.009186	0.924503
O19	O	0.000769	-0.461897	0.501219
O20	O	0.500769	0.038103	1.001219
N21	N	0.091552	-0.450631	0.482879
N22	N	0.591552	0.049369	0.982879
N23	N	0.009225	-0.532940	0.400823
N24	N	0.509225	-0.032940	0.900823
C25	C	0.142848	-0.268847	0.534081
C26	C	0.642848	0.231153	1.034081
C27	C	0.142979	-0.399386	0.664559
C28	C	0.642979	0.100614	1.164559
C29	C	0.142862	-0.399365	0.534081
C30	C	0.642862	0.100635	1.034081
C31	C	0.273409	-0.399338	0.533986
C32	C	0.773409	0.100662	1.033986
C33	C	0.157225	-0.311914	0.548422
C34	C	0.657225	0.188086	1.048422
C35	C	0.157300	-0.385019	0.621491
C36	C	0.657300	0.114981	1.121491
C37	C	0.230339	-0.384991	0.548370
C38	C	0.730339	0.115009	1.048370
C39	C	0.157235	-0.385007	0.548422
C40	C	0.657235	0.114993	1.048422
C41	C	0.124548	-0.214028	0.515827
C42	C	0.624548	0.285972	1.015827
C43	C	0.124571	-0.417639	0.515827
C44	C	0.624571	0.082361	1.015827
C45	C	0.175526	-0.366733	0.566676
C46	C	0.675526	0.133267	1.066676
C47	C	0.353121	-0.385580	0.491988
C48	C	0.853121	0.114420	0.991988
C49	C	0.402952	-0.402180	0.475348
C50	C	0.902952	0.097820	0.975348
C51	C	0.402981	-0.482812	0.506096
C52	C	0.902981	0.017188	1.006096
C53	C	0.353151	-0.466211	0.522737
C54	C	0.853151	0.033789	1.022737
C55	C	0.136544	-0.189099	0.466839
C56	C	0.636544	0.310901	0.966839
C57	C	0.119905	-0.139265	0.450247
C58	C	0.619905	0.360735	0.950247
C59	C	0.079280	-0.139291	0.531632
C60	C	0.579280	0.360709	1.031632
C61	C	0.095918	-0.189125	0.548224
C62	C	0.595918	0.310875	1.048224
C63	C	0.075577	-0.405615	0.527900
C64	C	0.575577	0.094385	1.027900
C65	C	0.058953	-0.422228	0.511301
C66	C	0.558953	0.077772	1.011301
C67	C	0.140315	-0.462889	0.470566
C68	C	0.640315	0.037111	0.970566
C69	C	0.156941	-0.446276	0.487159
C70	C	0.656941	0.053724	0.987159
C71	C	0.075772	-0.405653	0.744326
C72	C	0.575772	0.094347	1.244326
C73	C	0.059206	-0.422280	0.794159
C74	C	0.559206	0.077720	1.294159
C75	C	0.140607	-0.462951	0.794094
C76	C	0.640607	0.037049	1.294094
C77	C	0.157172	-0.446325	0.744260
C78	C	0.657172	0.053675	1.244260
C79	C	0.124753	-0.417674	0.719377
C80	C	0.624753	0.082326	1.219377
C81	C	0.328223	-0.417595	0.515681
C82	C	0.828223	0.082405	1.015681
C83	C	-0.172390	-0.583988	0.349141
C84	C	0.327610	-0.083988	0.849141
C85	C	-0.041751	-0.584138	0.218783
C86	C	0.458249	-0.084138	0.718783
C87	C	-0.041941	-0.584130	0.349402
C88	C	0.458059	-0.084130	0.849402
C89	C	-0.041957	-0.714607	0.349338
C90	C	0.458043	-0.214607	0.849338
C91	C	-0.129326	-0.598388	0.334853
C92	C	0.370674	-0.098388	0.834853
C93	C	-0.056165	-0.598473	0.261852
C94	C	0.443835	-0.098473	0.761852
C95	C	-0.056282	-0.671535	0.334962
C96	C	0.443718	-0.171535	0.834962
C97	C	-0.056272	-0.598469	0.334999
C98	C	0.443728	-0.098469	0.834999
C99	C	-0.227205	-0.565659	0.367327
C100	C	0.272795	-0.065659	0.867327
C101	C	-0.023703	-0.565882	0.367734
C102	C	0.476297	-0.065882	0.867734
C103	C	-0.074511	-0.616717	0.316667
C104	C	0.425489	-0.116717	0.816667
C105	C	-0.055754	-0.794298	0.391257
C106	C	0.444246	-0.294298	0.891257
C107	C	-0.039181	-0.844132	0.407888
C108	C	0.460819	-0.344132	0.907888
C109	C	0.041447	-0.844215	0.377269
C110	C	0.541447	-0.344215	0.877269
C111	C	0.024873	-0.794381	0.360637
C112	C	0.524873	-0.294381	0.860637
C113	C	-0.252183	-0.577666	0.416302
C114	C	0.247817	-0.077666	0.916302
C115	C	-0.302014	-0.561001	0.432833
C116	C	0.197986	-0.061001	0.932833
C117	C	-0.301886	-0.520329	0.351410
C118	C	0.198114	-0.020329	0.851410
C119	C	-0.252055	-0.536994	0.334880
C120	C	0.247945	-0.036994	0.834880
C121	C	-0.035709	-0.516892	0.355682
C122	C	0.464291	-0.016892	0.855682
C123	C	-0.019129	-0.500308	0.372353
C124	C	0.480871	-0.000308	0.872353
C125	C	0.021465	-0.581700	0.413115
C126	C	0.521465	-0.081700	0.913115
C127	C	0.004884	-0.598286	0.396450
C128	C	0.504884	-0.098286	0.896450
C129	C	-0.035389	-0.516907	0.139026
C130	C	0.464611	-0.016907	0.639026
C131	C	-0.018707	-0.500324	0.089193
C132	C	0.481293	-0.000324	0.589193
C133	C	0.021949	-0.581721	0.089240
C134	C	0.521949	-0.081721	0.589240
C135	C	0.005268	-0.598303	0.139074
C136	C	0.505268	-0.098303	0.639074
C137	C	-0.023402	-0.565894	0.163965
C138	C	0.476598	-0.065894	0.663965
C139	C	-0.023728	-0.769425	0.367633
C140	C	0.476272	-0.269425	0.867633
N141	N	0.427173	-0.450553	0.482630
N142	N	0.927173	0.049447	0.982630
O143	O	0.589997	-0.458460	0.365361
O144	O	1.089997	0.041540	0.865361
O145	O	0.590185	-0.550997	0.490963
O146	O	1.090185	-0.050997	0.990963
O147	O	0.590104	-0.550786	0.411309
O148	O	1.090104	-0.050786	0.911309
O149	O	0.590077	-0.458671	0.445016
O150	O	1.090077	0.041329	0.945016
O151	O	0.510940	-0.524462	0.437777
O152	O	1.010940	-0.024462	0.937777
O153	O	0.511020	-0.524674	0.517432
O154	O	1.011020	-0.024674	1.017432
O155	O	0.510832	-0.432136	0.391830
O156	O	1.010832	0.067864	0.891830
Zn157	Zn	0.498357	-0.474225	0.458833
Zn158	Zn	0.998357	0.025775	0.958833
Zn159	Zn	0.602660	-0.508908	0.423960
Zn160	Zn	1.102660	-0.008908	0.923960
O161	O	0.510913	-0.432348	0.471484
O162	O	1.010913	0.067652	0.971484
N163	N	0.673844	-0.532580	0.400158
N164	N	1.173844	-0.032580	0.900158
N165	N	0.091520	-0.115070	0.482873
N166	N	0.591520	0.384930	0.982873
O167	O	-0.025663	0.047841	0.474857
O168	O	0.474337	0.547841	0.974857
O169	O	0.099940	0.047877	0.382299
O170	O	0.599940	0.547877	0.882299
O171	O	0.020247	0.047844	0.382560
O172	O	0.520247	0.547844	0.882560
O173	O	0.054030	0.047874	0.474596
O174	O	0.554030	0.547874	0.974596
O175	O	0.046674	-0.031326	0.408942
O176	O	0.546674	0.468674	0.908942
O177	O	0.126367	-0.031293	0.408680
O178	O	0.626367	0.468707	0.908680
O179	O	0.000764	-0.031329	0.501238
O180	O	0.500764	0.468671	1.001238
Zn181	Zn	0.067761	-0.043881	0.459148
Zn182	Zn	0.567761	0.456119	0.959148
Zn183	Zn	0.032943	0.060429	0.424389
Zn184	Zn	0.532943	0.560429	0.924389
O185	O	0.080457	-0.031296	0.500977
O186	O	0.580457	0.468704	1.000977
N187	N	0.009178	0.131618	0.400665
N188	N	0.509178	0.631618	0.900665
N189	N	0.091852	-0.450680	0.818332
N190	N	0.591852	0.049320	1.318332
O191	O	0.083862	-0.567845	0.981235
O192	O	0.583862	-0.067845	1.481235
O193	O	-0.008657	-0.442198	0.981276
O194	O	0.491343	0.057802	1.481276
O195	O	-0.008441	-0.521875	0.981252
O196	O	0.491559	-0.021875	1.481252
O197	O	0.083646	-0.488168	0.981258
O198	O	0.583646	0.011832	1.481258
O199	O	0.017919	-0.495468	0.902085
O200	O	0.517919	0.004532	1.402085
O201	O	0.017703	-0.415791	0.902109
O202	O	0.517703	0.084209	1.402109
O203	O	0.110222	-0.541438	0.902067
O204	O	0.610222	-0.041438	1.402067
Zn205	Zn	0.068148	-0.474422	0.889518
Zn206	Zn	0.568148	0.025578	1.389518
Zn207	Zn	0.033417	-0.509214	0.993825
Zn208	Zn	0.533417	-0.009214	1.493825
O209	O	0.110006	-0.461761	0.902091
O210	O	0.610006	0.038239	1.402091
N211	N	0.009712	-0.532961	1.065011
N212	N	0.509712	-0.032961	1.565011
C213	C	0.030439	-0.413071	0.383027
C214	C	0.530439	0.086929	0.883027
C215	C	0.129046	-0.511580	0.382922
C216	C	0.629046	-0.011580	0.882922
C217	C	0.070334	-0.570496	0.500675
C218	C	0.570334	-0.070496	1.000675
C219	C	-0.028274	-0.471987	0.500780
C220	C	0.471726	0.028013	1.000780
C221	C	0.550625	-0.550579	0.520021
C222	C	1.050625	-0.050579	1.020021
C223	C	0.550527	-0.550317	0.421379
C224	C	1.050527	-0.050317	0.921379
C225	C	0.550389	-0.432554	0.362773
C226	C	1.050389	0.067446	0.862773
C227	C	0.550491	-0.432816	0.461414
C228	C	1.050491	0.067184	0.961414
C229	C	0.128944	0.008394	0.382712
C230	C	0.628944	0.508394	0.882712
C231	C	0.030287	0.008256	0.383068
C232	C	0.530287	0.508256	0.883068
C233	C	-0.028273	0.008252	0.500793
C234	C	0.471727	0.508252	1.000793
C235	C	0.070417	0.008292	0.500470
C236	C	0.570417	0.508292	1.000470
C237	C	-0.008218	-0.413165	0.941698
C238	C	0.491782	0.086835	1.441698
C239	C	-0.007945	-0.511830	0.941653
C240	C	0.492055	-0.011830	1.441653
C241	C	0.109783	-0.570471	0.941646
C242	C	0.609783	-0.070471	1.441646
C243	C	0.109516	-0.471800	0.941673
C244	C	0.609516	0.028200	1.441673
H245	H	0.019320	-0.412483	0.814467
H246	H	0.519320	0.087517	1.314467
O247	O	0.021674	0.008152	0.348613
O248	O	0.521674	0.508152	0.848613
C249	C	0.000696	-0.032893	0.325952
C250	C	0.500696	0.467107	0.825952
C251	C	0.010442	-0.032833	0.365008
C252	C	0.510442	0.467167	0.865008
H253	H	-0.008397	-0.066021	0.339196
H254	H	0.491603	0.433979	0.839196
H255	H	0.033698	-0.032921	0.292696
H256	H	0.533698	0.467079	0.792696
H257	H	-0.030465	0.000243	0.317059
H258	H	0.469535	0.500243	0.817059
H259	H	0.041588	-0.065963	0.373941
H260	H	0.541588	0.434037	0.873941
H261	H	-0.022584	-0.032781	0.398239
H262	H	0.477416	0.467219	0.898239
O263	O	0.550476	-0.584857	0.412855
O264	O	1.050476	-0.084857	0.912855
C265	C	0.509498	-0.636813	0.435760
C266	C	1.009498	-0.136813	0.935760
C267	C	0.509502	-0.597706	0.445471
C268	C	1.009502	-0.097706	0.945471
H269	H	0.476370	-0.647206	0.462117
H270	H	0.976370	-0.147206	0.962117
H271	H	0.542635	-0.669309	0.440007
H272	H	1.042635	-0.169309	0.940007
H273	H	0.509474	-0.622849	0.397938
H274	H	1.009474	-0.122849	0.897938
H275	H	0.509510	-0.611625	0.483291
H276	H	1.009510	-0.111625	0.983291
H277	H	0.476369	-0.565217	0.441192
H278	H	0.976369	-0.065217	0.941192
H279	H	0.164941	0.008624	0.353583
H280	H	0.664941	0.508624	0.853583
H281	H	0.138447	-0.464586	0.941669
H282	H	0.638447	0.035414	1.441669
O283	O	0.021929	-0.369963	0.348477
O284	O	0.521929	0.130037	0.848477
C285	C	0.044913	-0.299988	0.296448
C286	C	0.544913	0.200012	0.796448
C287	C	0.054595	-0.348793	0.335582
C288	C	0.554595	0.151207	0.835582
H289	H	0.071324	-0.282863	0.286004
H290	H	0.571324	0.217137	0.786004
H291	H	0.007112	-0.276036	0.310344
H292	H	0.507112	0.223964	0.810344
H293	H	0.049153	-0.304951	0.263999
H294	H	0.549153	0.195049	0.763999
H295	H	0.050381	-0.343876	0.368045
H296	H	0.550381	0.156124	0.868045
H297	H	0.092392	-0.372728	0.321648
H298	H	0.592392	0.127272	0.821648
O299	O	0.078960	0.008319	0.535014
O300	O	0.578960	0.508319	1.035014
C301	C	0.047881	0.008286	0.615223
C302	C	0.547881	0.508286	1.115223
C303	C	0.038140	0.008266	0.576142
C304	C	0.538140	0.508266	1.076142
H305	H	0.014888	0.008233	0.648488
H306	H	0.514888	0.508233	1.148488
H307	H	0.056912	0.041434	0.602053
H308	H	0.556912	0.541434	1.102053
H309	H	0.079073	-0.024832	0.624071
H310	H	0.579073	0.475168	1.124071
H311	H	0.006942	0.041361	0.567277
H312	H	0.506942	0.541361	1.067277
H313	H	0.029137	-0.024904	0.589332
H314	H	0.529137	0.475096	1.089332
O315	O	-0.071309	-0.463598	0.535442
O316	O	0.428691	0.036402	1.035442
C317	C	-0.120119	-0.494937	0.615708
C318	C	0.379881	0.005063	1.115708
C319	C	-0.071365	-0.504505	0.576491
C320	C	0.428635	-0.004505	1.076491
H321	H	-0.120177	-0.528001	0.648908
H322	H	0.379823	-0.028001	1.148908
H323	H	-0.149198	-0.485932	0.602639
H324	H	0.350802	0.014068	1.102639
H325	H	-0.127065	-0.463778	0.624618
H326	H	0.372935	0.036222	1.124618
H327	H	-0.064373	-0.535670	0.567563
H328	H	0.435627	-0.035670	1.067563
H329	H	-0.042313	-0.513483	0.589581
H330	H	0.457687	-0.013483	1.089581
H331	H	0.049370	-0.382321	0.724071
H332	H	0.549370	0.117679	1.224071
O333	O	0.144497	-0.613485	0.941610
O334	O	0.644497	-0.113485	1.441610
C335	C	0.224744	-0.662269	0.941622
C336	C	0.724744	-0.162269	1.441622
C337	C	0.185477	-0.613530	0.941651
C338	C	0.685477	-0.113530	1.441651
H339	H	0.257882	-0.662325	0.941665
H340	H	0.757882	-0.162325	1.441665
H341	H	0.233763	-0.669246	0.908477
H342	H	0.733763	-0.169246	1.408477
H343	H	0.211640	-0.691332	0.974740
H344	H	0.711640	-0.191332	1.474740
H345	H	0.198548	-0.584436	0.908555
H346	H	0.698548	-0.084436	1.408555
H347	H	0.176463	-0.606594	0.974818
H348	H	0.676463	-0.106594	1.474818
H349	H	-0.036863	-0.519031	0.941619
H350	H	0.463137	-0.019031	1.441619
O351	O	-0.071341	0.008332	0.535416
O352	O	0.428659	0.508332	1.035416
C353	C	-0.156026	0.049325	0.558425
C354	C	0.343974	0.549325	1.058425
C355	C	-0.107280	0.049296	0.519178
C356	C	0.392720	0.549296	1.019178
H357	H	-0.185097	0.082435	0.545307
H358	H	0.314903	0.582435	1.045307
H359	H	-0.156092	0.049364	0.591575
H360	H	0.343908	0.549364	1.091575
H361	H	-0.162976	0.016171	0.567438
H362	H	0.337024	0.516171	1.067438
H363	H	-0.100299	0.082443	0.510124
H364	H	0.399701	0.582443	1.010124
H365	H	-0.107238	0.049231	0.486053
H366	H	0.392762	0.549231	0.986053
O367	O	0.172133	-0.520128	0.348362
O368	O	0.672133	-0.020128	0.848362
C369	C	0.250511	-0.576530	0.326325
C370	C	0.750511	-0.076530	0.826325
C371	C	0.201741	-0.566909	0.365508
C372	C	0.701741	-0.066909	0.865508
H373	H	0.274458	-0.614354	0.340169
H374	H	0.774458	-0.114354	0.840169
H375	H	0.267668	-0.550155	0.315911
H376	H	0.767668	-0.050155	0.815911
H377	H	0.245497	-0.572209	0.293868
H378	H	0.745497	-0.072209	0.793868
H379	H	0.206713	-0.571236	0.397990
H380	H	0.706713	-0.071236	0.897990
H381	H	0.184600	-0.593281	0.375881
H382	H	0.684600	-0.093281	0.875881
H383	H	-0.037264	-0.377079	0.941710
H384	H	0.462736	0.122921	1.441710
H385	H	0.077514	-0.606615	0.529644
H386	H	0.577514	-0.106615	1.029644
O387	O	0.550339	-0.397950	0.319708
O388	O	1.050339	0.102050	0.819708
C389	C	0.550207	-0.375802	0.241328
C390	C	1.050207	0.124198	0.741328
C391	C	0.550276	-0.415036	0.290072
C392	C	1.050276	0.084964	0.790072
H393	H	0.550146	-0.389598	0.217357
H394	H	1.050146	0.110402	0.717357
H395	H	0.583324	-0.365389	0.224171
H396	H	1.083324	0.134611	0.724171
H397	H	0.517063	-0.343356	0.246383
H398	H	1.017063	0.156644	0.746383
H399	H	0.583398	-0.447508	0.285058
H400	H	1.083398	0.052492	0.785058
H401	H	0.517138	-0.425409	0.307212
H402	H	1.017138	0.074591	0.807212
H403	H	-0.231721	-0.527215	0.295000
H404	H	0.268279	-0.027215	0.795000
H405	H	0.167007	-0.486271	0.814352
H406	H	0.667007	0.013729	1.314352
H407	H	0.197059	-0.456117	0.723950
H408	H	0.697059	0.043883	1.223950
O409	O	0.044068	-0.377782	0.555722
O410	O	0.544068	0.122218	1.055722
C411	C	-0.038389	-0.339223	0.594393
C412	C	0.461611	0.160777	1.094393
C413	C	-0.002758	-0.370738	0.562872
C414	C	0.497242	0.129262	1.062872
H415	H	-0.076255	-0.333526	0.600192
H416	H	0.423745	0.166474	1.100192
H417	H	-0.032699	-0.303354	0.576141
H418	H	0.467301	0.196646	1.076141
H419	H	-0.032586	-0.357488	0.630213
H420	H	0.467414	0.142512	1.130213
H421	H	-0.008539	-0.352515	0.527047
H422	H	0.491461	0.147485	1.027047
H423	H	-0.008456	-0.406605	0.581161
H424	H	0.491544	0.093395	1.081161
O425	O	0.550753	-0.585297	0.563015
O426	O	1.050753	-0.085297	1.063015
C427	C	0.591880	-0.664663	0.605470
C428	C	1.091880	-0.164663	1.105470
C429	C	0.591787	-0.625390	0.556749
C430	C	1.091787	-0.125390	1.056749
H431	H	0.625057	-0.697084	0.600422
H432	H	1.125057	-0.197084	1.100422
H433	H	0.558792	-0.675116	0.622597
H434	H	1.058792	-0.175116	1.122597
H435	H	0.591871	-0.650846	0.629467
H436	H	1.091871	-0.150846	1.129467
H437	H	0.591813	-0.639173	0.532716
H438	H	1.091813	-0.139173	1.032716
H439	H	0.624872	-0.614943	0.539660
H440	H	1.124872	-0.114943	1.039660
H441	H	0.019058	-0.412426	0.521121
H442	H	0.519058	0.087574	1.021121
H443	H	0.550485	-0.403881	0.468626
H444	H	1.050485	0.096119	0.968626
H445	H	0.196836	-0.456064	0.477324
H446	H	0.696836	0.043936	0.977324
O447	O	0.171827	-0.490688	0.442708
O448	O	0.671827	0.009312	0.942708
C449	C	0.254284	-0.529293	0.404081
C450	C	0.754284	-0.029293	0.904081
C451	C	0.218653	-0.497799	0.435624
C452	C	0.718653	0.002201	0.935624
H453	H	0.292150	-0.535060	0.398352
H454	H	0.792150	-0.035060	0.898352
H455	H	0.248544	-0.511034	0.368230
H456	H	0.748544	-0.011034	0.868230
H457	H	0.248531	-0.565130	0.422339
H458	H	0.748531	-0.065130	0.922339
H459	H	0.224384	-0.461956	0.417408
H460	H	0.724384	0.038044	0.917408
H461	H	0.224401	-0.516095	0.471474
H462	H	0.724401	-0.016095	0.971474
H463	H	0.423275	-0.522397	0.511838
H464	H	0.923275	-0.022397	1.011838
O465	O	0.329040	-0.497374	0.545725
O466	O	0.829040	0.002626	1.045725
C467	C	0.334336	-0.579108	0.574488
C468	C	0.834336	-0.079108	1.074488
C469	C	0.361700	-0.543864	0.548438
C470	C	0.861700	-0.043864	1.048438
H471	H	0.360729	-0.616704	0.576699
H472	H	0.860729	-0.116704	1.076699
H473	H	0.310995	-0.569145	0.554136
H474	H	0.810995	-0.069145	1.054136
H475	H	0.311019	-0.577565	0.611950
H476	H	0.811019	-0.077565	1.111950
H477	H	0.385042	-0.545388	0.510976
H478	H	0.885042	-0.045388	1.010976
H479	H	0.385010	-0.553838	0.568827
H480	H	0.885010	-0.053838	1.068827
H481	H	0.423225	-0.376108	0.456057
H482	H	0.923225	0.123892	0.956057
H483	H	0.332825	-0.345993	0.486242
H484	H	0.832825	0.154007	0.986242
H485	H	0.129672	-0.118967	0.410356
H486	H	0.629672	0.381033	0.910356
O487	O	0.164282	-0.213267	0.435349
O488	O	0.664282	0.286733	0.935349
C489	C	0.170604	-0.228480	0.370874
C490	C	0.670604	0.271520	0.870874
C491	C	0.139136	-0.201088	0.406517
C492	C	0.639136	0.298912	0.906517
H493	H	0.150289	-0.218636	0.347547
H494	H	0.650289	0.281364	0.847547
H495	H	0.180427	-0.268386	0.391123
H496	H	0.680427	0.231614	0.891123
H497	H	0.204411	-0.218672	0.347542
H498	H	0.704411	0.281328	0.847542
H499	H	0.105309	-0.210856	0.429857
H500	H	0.605309	0.289144	0.929857
H501	H	0.129351	-0.161189	0.386238
H502	H	0.629351	0.338811	0.886238
O503	O	0.051529	-0.115153	0.563149
O504	O	0.551529	0.384847	1.063149
C505	C	0.045236	-0.099899	0.627585
C506	C	0.545236	0.400101	1.127585
C507	C	0.076710	-0.127270	0.591923
C508	C	0.576710	0.372730	1.091923
H509	H	0.065585	-0.109678	0.650851
H510	H	0.565585	0.390322	1.150851
H511	H	0.011440	-0.109723	0.650974
H512	H	0.511440	0.390277	1.150974
H513	H	0.035389	-0.060001	0.607303
H514	H	0.535389	0.439999	1.107303
H515	H	0.086592	-0.167174	0.612166
H516	H	0.586592	0.332826	1.112166
H517	H	0.110482	-0.117406	0.568535
H518	H	0.610482	0.382594	1.068535
O519	O	0.084322	-0.213413	0.595795
O520	O	0.584322	0.286587	1.095795
C521	C	0.092033	-0.290195	0.657429
C522	C	0.592033	0.209805	1.157429
C523	C	0.105176	-0.262748	0.603541
C524	C	0.605176	0.237252	1.103541
H525	H	0.108896	-0.330087	0.663709
H526	H	0.608896	0.169913	1.163709
H527	H	0.051694	-0.280465	0.674306
H528	H	0.551694	0.219535	1.174306
H529	H	0.105807	-0.280348	0.674168
H530	H	0.605807	0.219652	1.174168
H531	H	0.091434	-0.272581	0.586761
H532	H	0.591434	0.227419	1.086761
H533	H	0.145517	-0.272481	0.586698
H534	H	0.645517	0.227519	1.086698
O535	O	-0.030422	-0.452720	0.065044
O536	O	0.469578	0.047280	0.565044
C537	C	-0.072496	-0.373738	0.070262
C538	C	0.427504	0.126262	0.570262
C539	C	-0.059276	-0.427637	0.097670
C540	C	0.440724	0.072363	0.597670
H541	H	-0.095817	-0.353442	0.096629
H542	H	0.404183	0.146558	0.596629
H543	H	-0.092766	-0.363887	0.046890
H544	H	0.407234	0.136113	0.546890
H545	H	-0.038657	-0.363984	0.046973
H546	H	0.461343	0.136016	0.546973
H547	H	-0.093090	-0.437430	0.120985
H548	H	0.406910	0.062570	0.620985
H549	H	-0.038987	-0.437459	0.121012
H550	H	0.461013	0.062541	0.621012
H551	H	-0.058738	-0.490513	0.159288
H552	H	0.441262	0.009487	0.659288
H553	H	0.045284	-0.608113	0.068976
H554	H	0.545284	-0.108113	0.568976
H555	H	0.015032	-0.638195	0.159378
H556	H	0.515032	-0.138195	0.659378
H557	H	-0.058984	-0.490504	0.332300
H558	H	0.441016	0.009496	0.832300
H559	H	-0.028907	-0.460416	0.362542
H560	H	0.471093	0.039584	0.862542
H561	H	0.044746	-0.608091	0.436494
H562	H	0.544746	-0.108091	0.936494
H563	H	0.014660	-0.638178	0.406265
H564	H	0.514660	-0.138178	0.906265
H565	H	0.050956	-0.774133	0.341399
H566	H	0.550956	-0.274133	0.841399
H567	H	0.081021	-0.864532	0.371574
H568	H	0.581021	-0.364532	0.871574
H569	H	-0.095331	-0.773979	0.396956
H570	H	0.404669	-0.273979	0.896956
O571	O	-0.070328	-0.868246	0.430776
O572	O	0.429672	-0.368246	0.930776
C573	C	-0.128853	-0.883461	0.426213
C574	C	0.371147	-0.383461	0.926213
C575	C	-0.093607	-0.856113	0.400238
C576	C	0.406393	-0.356113	0.900238
H577	H	-0.147676	-0.873669	0.401531
H578	H	0.352324	-0.373669	0.901531
H579	H	-0.156299	-0.873629	0.459418
H580	H	0.343701	-0.373629	0.959418
H581	H	-0.108648	-0.923363	0.436913
H582	H	0.391352	-0.423363	0.936913
H583	H	-0.113771	-0.816205	0.389506
H584	H	0.386229	-0.316205	0.889506
H585	H	-0.066162	-0.865985	0.367054
H586	H	0.433838	-0.365985	0.867054
O587	O	-0.228100	-0.605559	0.447869
O588	O	0.271900	-0.105559	0.947869
C589	C	-0.212952	-0.678905	0.512373
C590	C	0.287048	-0.178905	1.012373
C591	C	-0.240266	-0.647357	0.476658
C592	C	0.259734	-0.147357	0.976658
H593	H	-0.222771	-0.712711	0.535652
H594	H	0.277229	-0.212711	1.035652
H595	H	-0.222785	-0.658643	0.535744
H596	H	0.277215	-0.158643	1.035744
H597	H	-0.173048	-0.688731	0.492137
H598	H	0.326952	-0.188731	0.992137
H599	H	-0.280176	-0.637523	0.496856
H600	H	0.219824	-0.137523	0.996856
H601	H	-0.230394	-0.667638	0.453288
H602	H	0.269606	-0.167638	0.953288
O603	O	-0.326300	-0.572583	0.480405
O604	O	0.173700	-0.072583	0.980405
C605	C	-0.382645	-0.543903	0.546341
C606	C	0.117355	-0.043903	1.046341
C607	C	-0.355167	-0.530719	0.492461
C608	C	0.144833	-0.030719	0.992461
H609	H	-0.405999	-0.510064	0.556104
H610	H	0.094001	-0.010064	1.056104
H611	H	-0.356343	-0.567233	0.566713
H612	H	0.143657	-0.067233	1.066713
H613	H	-0.405962	-0.564178	0.556090
H614	H	0.094038	-0.064178	1.056090
H615	H	-0.331850	-0.510427	0.482668
H616	H	0.168150	-0.010427	0.982668
H617	H	-0.381496	-0.507412	0.472119
H618	H	0.118504	-0.007412	0.972119
O619	O	-0.325953	-0.492475	0.319827
O620	O	0.174047	0.007525	0.819827
C621	C	-0.320566	-0.453928	0.237320
C622	C	0.179434	0.046072	0.737320
C623	C	-0.293253	-0.485468	0.273036
C624	C	0.206747	0.014532	0.773036
H625	H	-0.294140	-0.448261	0.199482
H626	H	0.205860	0.051739	0.699482
H627	H	-0.343872	-0.418047	0.242997
H628	H	0.156128	0.081953	0.742997
H629	H	-0.343912	-0.472155	0.243046
H630	H	0.156088	0.027845	0.743046
H631	H	-0.269881	-0.467282	0.267332
H632	H	0.230119	0.032718	0.767332
H633	H	-0.269977	-0.521347	0.267351
H634	H	0.230023	-0.021347	0.767351
