data_functionalizedCrystal
_audit_creation_method	'MofGen! by Chris Wilmer'
_symmetry_space_group_name_H-M	'P1'
_symmetry_Int_Tables_number	1
_symmetry_cell_setting	triclinic
loop_
_symmetry_equiv_pos_as_xyz
  x,y,z
_cell_length_a	18.215405
_cell_length_b	17.077404
_cell_length_c	17.077396
_cell_angle_alpha	90.019501
_cell_angle_beta	90.031591
_cell_angle_gamma	90.025110
loop_
_atom_site_label
_atom_site_type_symbol
_atom_site_fract_x
_atom_site_fract_y
_atom_site_fract_z
Zn1	Zn	-0.292980	1.200044	0.443826
Zn2	Zn	0.040353	1.533377	0.777159
Zn3	Zn	0.373687	1.866710	1.110492
Zn4	Zn	-0.416053	1.199946	0.312553
Zn5	Zn	-0.082720	1.533280	0.645886
Zn6	Zn	0.250613	1.866613	0.979219
Zn7	Zn	-0.293006	1.068776	0.312574
Zn8	Zn	0.040328	1.402109	0.645907
Zn9	Zn	0.373661	1.735442	0.979240
Zn10	Zn	-0.416010	1.068739	0.443776
Zn11	Zn	-0.082676	1.402072	0.777110
Zn12	Zn	0.250657	1.735406	1.110443
O13	O	-0.354512	1.134376	0.378182
O14	O	-0.021179	1.467709	0.711515
O15	O	0.312155	1.801043	1.044849
O16	O	-0.309313	1.309878	0.426424
O17	O	0.024020	1.643211	0.759757
O18	O	0.357353	1.976544	1.093091
O19	O	-0.399760	1.182521	0.202708
O20	O	-0.066427	1.515854	0.536042
O21	O	0.266907	1.849187	0.869375
O22	O	-0.190018	1.086245	0.330014
O23	O	0.143315	1.419578	0.663347
O24	O	0.476649	1.752911	0.996681
O25	O	-0.399735	1.309806	0.329978
O26	O	-0.066402	1.643139	0.663312
O27	O	0.266932	1.976473	0.996645
O28	O	-0.189999	1.182687	0.426444
O29	O	0.143334	1.516020	0.759778
O30	O	0.476668	1.849353	1.093111
O31	O	-0.309357	1.086150	0.202724
O32	O	0.023976	1.419483	0.536057
O33	O	0.357309	1.752817	0.869391
O34	O	-0.309315	0.958924	0.329966
O35	O	0.024018	1.292257	0.663299
O36	O	0.357352	1.625590	0.996633
O37	O	-0.399660	1.086182	0.553630
O38	O	-0.066327	1.419516	0.886963
O39	O	0.267006	1.752849	1.220296
O40	O	-0.399685	0.958897	0.426360
O41	O	-0.066352	1.292230	0.759693
O42	O	0.266981	1.625564	1.093027
O43	O	-0.309271	1.182651	0.553666
O44	O	0.024062	1.515985	0.886999
O45	O	0.357396	1.849318	1.220333
O46	O	-0.519032	1.182485	0.329930
O47	O	-0.185699	1.515819	0.663263
O48	O	0.147635	1.849152	0.996597
O49	O	-0.519000	1.086088	0.426340
O50	O	-0.185666	1.419421	0.759673
O51	O	0.147667	1.752754	1.093006
C52	C	-0.354499	0.930428	0.378160
C53	C	-0.021165	1.263762	0.711494
C54	C	0.312168	1.597095	1.044827
C55	C	-0.354511	0.843178	0.378170
C56	C	-0.021178	1.176512	0.711503
C57	C	0.312156	1.509845	1.044836
C58	C	-0.545718	1.134293	0.378144
C59	C	-0.212385	1.467627	0.711478
C60	C	0.120948	1.800960	1.044811
C61	C	-0.627517	1.134330	0.378154
C62	C	-0.294184	1.467663	0.711488
C63	C	0.039149	1.800996	1.044821
C64	C	-0.401638	0.802195	0.428282
C65	C	-0.068304	1.135528	0.761615
C66	C	0.265029	1.468861	1.094948
C67	C	-0.401639	0.720214	0.428294
C68	C	-0.068306	1.053548	0.761627
C69	C	0.265027	1.386881	1.094961
C70	C	-0.354517	0.679219	0.378190
C71	C	-0.021184	1.012552	0.711524
C72	C	0.312149	1.345886	1.044857
C73	C	-0.307385	0.720208	0.328076
C74	C	0.025948	1.053542	0.661410
C75	C	0.359282	1.386875	0.994743
C76	C	-0.307380	0.802187	0.328068
C77	C	0.025953	1.135521	0.661402
C78	C	0.359286	1.468854	0.994735
C79	C	-0.307400	0.549338	0.328095
C80	C	0.025934	0.882672	0.661429
C81	C	0.359267	1.216005	0.994762
C82	C	-0.307405	0.467354	0.328102
C83	C	0.025928	0.800687	0.661435
C84	C	0.359262	1.134020	0.994769
C85	C	-0.401659	0.467365	0.428321
C86	C	-0.068325	0.800699	0.761654
C87	C	0.265008	1.134032	1.094988
C88	C	-0.401654	0.549344	0.428313
C89	C	-0.068321	0.882678	0.761646
C90	C	0.265013	1.216011	1.094980
C91	C	-0.354522	0.590328	0.378198
C92	C	-0.021189	0.923661	0.711531
C93	C	0.312144	1.256995	1.044864
C94	C	-0.815703	1.184642	0.328046
C95	C	-0.482370	1.517975	0.661380
C96	C	-0.149037	1.851308	0.994713
C97	C	-0.892562	1.184677	0.328065
C98	C	-0.559229	1.518010	0.661399
C99	C	-0.225896	1.851343	0.994732
C100	C	-0.892569	1.084211	0.428374
C101	C	-0.559235	1.417544	0.761707
C102	C	-0.225902	1.750878	1.095041
C103	C	-0.815711	1.084180	0.428359
C104	C	-0.482378	1.417514	0.761692
C105	C	-0.149045	1.750847	1.095025
C106	C	-0.777281	1.134395	0.378190
C107	C	-0.443947	1.467728	0.711524
C108	C	-0.110614	1.801061	1.044857
C109	C	-0.930997	1.134460	0.378225
C110	C	-0.597663	1.467794	0.711558
C111	C	-0.264330	1.801127	1.044892
C112	C	-1.014330	1.134498	0.378246
C113	C	-0.680997	1.467831	0.711579
C114	C	-0.347664	1.801165	1.044912
C115	C	-0.693942	1.134358	0.378170
C116	C	-0.360609	1.467691	0.711503
C117	C	-0.027275	1.801025	1.044837
C118	C	-0.162559	1.134481	0.378237
C119	C	0.170774	1.467814	0.711570
C120	C	0.504107	1.801147	1.044904
C121	C	-0.080760	1.134525	0.378261
C122	C	0.252573	1.467859	0.711594
C123	C	0.585906	1.801192	1.044927
C124	C	-0.354458	1.134424	0.582926
C125	C	-0.021125	1.467757	0.916260
C126	C	0.312209	1.801090	1.249593
C127	C	-0.354435	1.134444	0.670176
C128	C	-0.021101	1.467777	1.003510
C129	C	0.312232	1.801111	1.336843
C130	C	-0.354526	1.339120	0.378204
C131	C	-0.021193	1.672454	0.711538
C132	C	0.312141	2.005787	1.044871
C133	C	-0.354532	1.426370	0.378214
C134	C	-0.021199	1.759703	0.711547
C135	C	0.312135	2.093037	1.044880
C136	C	-0.354513	1.134374	0.174234
C137	C	-0.021180	1.467707	0.507568
C138	C	0.312154	1.801041	0.840901
C139	C	-0.354329	1.134506	0.086985
C140	C	-0.020996	1.467839	0.420318
C141	C	0.312338	1.801172	0.753652
C142	C	-0.307365	1.184677	0.711187
C143	C	0.025968	1.518010	1.044520
C144	C	0.359302	1.851344	1.377853
C145	C	-0.307341	1.184687	0.793167
C146	C	0.025993	1.518020	1.126501
C147	C	0.359326	1.851353	1.459834
C148	C	-0.354390	1.134466	0.834136
C149	C	-0.021057	1.467799	1.167469
C150	C	0.312277	1.801133	1.500802
C151	C	-0.401462	1.084227	0.793120
C152	C	-0.068129	1.417561	1.126453
C153	C	0.265205	1.750894	1.459786
C154	C	-0.401482	1.084214	0.711141
C155	C	-0.068149	1.417548	1.044474
C156	C	0.265185	1.750881	1.377807
C157	C	-0.401418	1.084259	0.963990
C158	C	-0.068084	1.417592	1.297323
C159	C	0.265249	1.750926	1.630656
C160	C	-0.401399	1.084273	1.045974
C161	C	-0.068065	1.417606	1.379308
C162	C	0.265268	1.750939	1.712641
C163	C	-0.307276	1.184731	1.046016
C164	C	0.026057	1.518064	1.379350
C165	C	0.359391	1.851398	1.712683
C166	C	-0.307296	1.184718	0.964037
C167	C	0.026037	1.518051	1.297371
C168	C	0.359370	1.851385	1.630704
C169	C	-0.354369	1.134480	0.923027
C170	C	-0.021036	1.467814	1.256360
C171	C	0.312297	1.801147	1.589694
H172	H	-0.440013	0.835567	0.469079
H173	H	-0.106679	1.168901	0.802413
H174	H	0.226654	1.502234	1.135746
Cl175	Cl	-0.460608	1.021090	0.844623
Cl176	Cl	-0.127274	1.354423	1.177957
Cl177	Cl	0.206059	1.687756	1.511290
Cl178	Cl	-0.248197	1.247875	0.844720
Cl179	Cl	0.085136	1.581208	1.178053
Cl180	Cl	0.418470	1.914541	1.511386
H181	H	-0.440032	0.433993	0.469129
H182	H	-0.106699	0.767326	0.802462
H183	H	0.226634	1.100659	1.135796
H184	H	-0.269001	0.835555	0.287266
H185	H	0.064332	1.168889	0.620600
H186	H	0.397666	1.502222	0.953933
H187	H	-0.784426	1.043263	0.469195
H188	H	-0.451092	1.376597	0.802529
H189	H	-0.117759	1.709930	1.135862
Cl190	Cl	-0.248217	1.247819	0.659691
Cl191	Cl	0.085116	1.581153	0.993025
Cl192	Cl	0.418449	1.914486	1.326358
Cl193	Cl	-0.940862	1.247849	0.265027
Cl194	Cl	-0.607529	1.581183	0.598360
Cl195	Cl	-0.274195	1.914516	0.931693
Cl196	Cl	-0.248152	1.247858	0.912535
Cl197	Cl	0.085181	1.581191	1.245868
Cl198	Cl	0.418515	1.914525	1.579201
H199	H	-0.268946	1.225635	1.079411
H200	H	0.064387	1.558969	1.412744
H201	H	0.397720	1.892302	1.746078
H202	H	-0.784415	1.225530	0.287197
H203	H	-0.451082	1.558863	0.620531
H204	H	-0.117748	1.892197	0.953864
H205	H	-0.440029	0.582721	0.469108
H206	H	-0.106696	0.916054	0.802441
H207	H	0.226638	1.249387	1.135774
H208	H	-0.269014	0.686823	0.287284
H209	H	0.064319	1.020157	0.620618
H210	H	0.397652	1.353490	0.953951
Cl211	Cl	-0.460656	1.021059	0.659584
Cl212	Cl	-0.127322	1.354392	0.992918
Cl213	Cl	0.206011	1.687726	1.326251
H214	H	-0.439709	1.043377	1.079329
H215	H	-0.106375	1.376710	1.412662
H216	H	0.226958	1.710044	1.745996
H217	H	-0.440016	0.686849	0.469099
H218	H	-0.106682	1.020182	0.802433
H219	H	0.226651	1.353516	1.135766
H220	H	-0.269025	0.433978	0.287312
H221	H	0.064308	0.767311	0.620646
H222	H	0.397641	1.100644	0.953979
H223	H	-0.923868	1.043327	0.469218
H224	H	-0.590535	1.376661	0.802552
H225	H	-0.257202	1.709994	1.135885
H226	H	-0.439738	1.043338	0.930602
H227	H	-0.106405	1.376671	1.263935
H228	H	0.226929	1.710004	1.597268
H229	H	-0.269014	0.582705	0.287293
H230	H	0.064320	0.916038	0.620626
H231	H	0.397653	1.249371	0.953960
