data_functionalizedCrystal
_audit_creation_method	'MofGen! by Chris Wilmer'
_symmetry_space_group_name_H-M	'P1'
_symmetry_Int_Tables_number	1
_symmetry_cell_setting	triclinic
loop_
_symmetry_equiv_pos_as_xyz
  x,y,z
_cell_length_a	6.817900
_cell_length_b	7.190334
_cell_length_c	19.453103
_cell_angle_alpha	88.400661
_cell_angle_beta	101.709178
_cell_angle_gamma	60.611776
loop_
_atom_site_label
_atom_site_type_symbol
_atom_site_fract_x
_atom_site_fract_y
_atom_site_fract_z
V1	V	-4.214586	0.665981	-0.096059
O2	O	-4.207232	0.652283	0.005769
O3	O	-4.156443	0.662407	-0.191578
O4	O	-4.251923	0.955990	-0.094076
O5	O	-4.111091	0.356667	-0.092408
V6	V	-4.688367	0.628865	-0.083939
O7	O	-4.497215	0.747397	-0.122646
O8	O	-4.855936	0.547449	-0.057353
O9	O	-4.523303	0.632439	0.011580
O10	O	-4.813118	0.642563	-0.185767
O11	O	-4.909259	0.938178	-0.087590
O12	O	-4.427823	0.338856	-0.085923
C13	C	-3.996300	0.652154	-0.214879
C14	C	-4.030620	0.651165	-0.292964
C15	C	-4.118105	1.026646	-0.090502
C16	C	-4.231951	1.268192	-0.089493
C17	C	-4.231670	0.661366	-0.333202
C18	C	-4.263928	0.660458	-0.406572
C19	C	-4.095103	0.649307	-0.439699
C20	C	-3.894030	0.639117	-0.399452
C21	C	-3.861789	0.640046	-0.326084
N22	N	-3.947478	0.517871	-0.546185
N23	N	-3.978117	0.516985	-0.615881
C24	C	-4.192236	0.646511	-0.660751
N25	N	-4.374578	0.776932	-0.633291
N26	N	-4.343937	0.777809	-0.563588
C27	C	-4.130044	0.648299	-0.519253
C28	C	-4.428279	0.655731	-0.780545
C29	C	-4.460537	0.654837	-0.853917
C30	C	-4.090622	0.633473	-0.846794
C31	C	-4.058381	0.634390	-0.773425
C32	C	-4.227212	0.645509	-0.740305
C33	C	-4.346787	0.642686	0.034877
C34	C	-4.291709	0.643689	0.112961
H35	H	-4.369156	0.670434	-0.306241
N36	N	-3.841518	0.623380	-0.730026
H37	H	-3.700287	0.485655	-0.734640
H38	H	-3.846914	0.625756	-0.678541
H39	H	-4.565750	0.664781	-0.753577
H40	H	-4.624267	0.663158	-0.886679
H41	H	-3.953167	0.624407	-0.873766
H42	H	-4.427653	0.668764	-0.439341
N43	N	-3.711922	0.627063	-0.435175
H44	H	-3.783026	0.759084	-0.472058
H45	H	-3.651139	0.493212	-0.458811
N46	N	-3.644937	0.629055	-0.282680
H47	H	-3.542880	0.621864	-0.314796
H48	H	-3.557511	0.496073	-0.245487
