data_functionalizedCrystal
_audit_creation_method	'MofGen! by Chris Wilmer'
_symmetry_space_group_name_H-M	'P1'
_symmetry_Int_Tables_number	1
_symmetry_cell_setting	triclinic
loop_
_symmetry_equiv_pos_as_xyz
  x,y,z
_cell_length_a	18.050589
_cell_length_b	12.759395
_cell_length_c	12.759387
_cell_angle_alpha	89.977726
_cell_angle_beta	90.029987
_cell_angle_gamma	89.971216
loop_
_atom_site_label
_atom_site_type_symbol
_atom_site_fract_x
_atom_site_fract_y
_atom_site_fract_z
Zn1	Zn	-0.295609	-1.606170	0.594060
Zn2	Zn	-0.419818	-1.606019	0.418383
Zn3	Zn	-0.295647	-1.430468	0.418392
Zn4	Zn	-0.419763	-1.430419	0.594017
O5	O	-0.357709	-1.518269	0.506213
O6	O	-0.312093	-1.753171	0.570771
O7	O	-0.403386	-1.582689	0.271363
O8	O	-0.191718	-1.453859	0.441716
O9	O	-0.403348	-1.753060	0.441702
O10	O	-0.191690	-1.582946	0.570779
O11	O	-0.312158	-1.453713	0.271370
O12	O	-0.312105	-1.283441	0.441674
O13	O	-0.403255	-1.453775	0.741044
O14	O	-0.403292	-1.283405	0.570705
O15	O	-0.312039	-1.582899	0.741076
O16	O	-0.523735	-1.582642	0.441660
O17	O	-0.523695	-1.453629	0.570697
C18	C	-0.357697	-1.245302	0.506187
C19	C	-0.357710	-1.128525	0.506200
C20	C	-0.452816	-1.128526	0.640343
C21	C	-0.500375	-1.073666	0.707416
C22	C	-0.500383	-0.963944	0.707425
C23	C	-0.452825	-0.909080	0.640357
C24	C	-0.405267	-0.963940	0.573284
C25	C	-0.405266	-1.073665	0.573280
C26	C	-0.310157	-0.963939	0.439149
C27	C	-0.310152	-1.073661	0.439132
C28	C	-0.262600	-0.909076	0.372080
C29	C	-0.215044	-0.963936	0.305001
C30	C	-0.215039	-1.073664	0.304993
C31	C	-0.262594	-1.128521	0.372059
C32	C	-0.550662	-1.518142	0.506196
C33	C	-0.633207	-1.518184	0.506223
C34	C	-0.832663	-1.448096	0.576369
C35	C	-0.882111	-1.422480	0.480500
C36	C	-0.784338	-1.518287	0.506237
C37	C	-0.881971	-1.543955	0.602118
C38	C	-0.930323	-1.518385	0.506259
C39	C	-0.832699	-1.492621	0.410317
C40	C	-0.832554	-1.614141	0.531999
C41	C	-0.881980	-1.588561	0.436064
C42	C	-0.700239	-1.518228	0.506226
C43	C	-1.014419	-1.518444	0.506259
C44	C	-0.164004	-1.518425	0.506254
C45	C	-0.081458	-1.518492	0.506271
C46	C	-0.357637	-1.518348	0.780247
C47	C	-0.357606	-1.518382	0.897024
C48	C	-0.357719	-0.792302	0.506233
C49	C	-0.357716	-0.909079	0.506221
C50	C	-0.357728	-1.518251	0.233246
C51	C	-0.357550	-1.518420	0.116470
C52	C	-0.262629	-1.652848	0.897077
C53	C	-0.215130	-1.720095	0.951964
C54	C	-0.215103	-1.720121	1.061686
C55	C	-0.262579	-1.652889	1.116522
C56	C	-0.310078	-1.585642	1.061635
C57	C	-0.310101	-1.585626	0.951911
C58	C	-0.405049	-1.451173	1.061582
C59	C	-0.405081	-1.451151	0.951860
C60	C	-0.452525	-1.383942	1.116419
C61	C	-0.500029	-1.316698	1.061532
C62	C	-0.500055	-1.316676	0.951803
C63	C	-0.452581	-1.383904	0.896973
H64	H	-0.262596	-1.217863	0.372057
C65	C	-0.803400	-1.367789	0.656374
N66	N	-0.781357	-1.307299	0.716627
H67	H	-0.903498	-1.647961	0.376696
H68	H	-0.176305	-1.118325	0.250382
C69	C	-0.452500	-1.383981	1.237116
N70	N	-0.452487	-1.384015	1.328026
H71	H	-0.262654	-1.652843	0.807735
C72	C	-0.262602	-0.788379	0.372103
N73	N	-0.262603	-0.697469	0.372119
C74	C	-0.911518	-1.313028	0.451067
N75	N	-0.933666	-1.230586	0.428905
C76	C	-0.803582	-1.463212	0.300756
N77	N	-0.781650	-1.441057	0.218239
C78	C	-0.803112	-1.723554	0.561481
N79	N	-0.780931	-1.805961	0.583702
H80	H	-0.452829	-0.819739	0.640380
H81	H	-0.538676	-1.261958	1.106189
C82	C	-0.911211	-1.573233	0.711648
N83	N	-0.933231	-1.595278	0.794148
H84	H	-0.176475	-1.774831	0.907304
H85	H	-0.262546	-1.652907	1.205864
C86	C	-0.552700	-0.903596	0.781207
N87	N	-0.592106	-0.858142	0.836778
C88	C	-0.452603	-1.383884	0.776276
N89	N	-0.452615	-1.383869	0.685366
C90	C	-0.552308	-1.242696	0.891436
N91	N	-0.591667	-1.186972	0.845971
C92	C	-0.162852	-1.794096	1.122063
N93	N	-0.123497	-1.849815	1.167540
H94	H	-0.452820	-1.217867	0.640334
H95	H	-0.539094	-1.118348	0.762023
H96	H	-0.176323	-0.919257	0.250404
