data_functionalizedCrystal
_audit_creation_method	'MofGen! by Chris Wilmer'
_symmetry_space_group_name_H-M	'P1'
_symmetry_Int_Tables_number	1
_symmetry_cell_setting	triclinic
loop_
_symmetry_equiv_pos_as_xyz
  x,y,z
_cell_length_a	14.044220
_cell_length_b	16.992695
_cell_length_c	15.455313
_cell_angle_alpha	87.152573
_cell_angle_beta	92.919879
_cell_angle_gamma	91.928550
loop_
_atom_site_label
_atom_site_type_symbol
_atom_site_fract_x
_atom_site_fract_y
_atom_site_fract_z
O1	O	-1.276013	-0.186891	-0.072039
O2	O	-0.999526	-0.180033	-0.072061
O3	O	-1.136661	-0.069242	-0.072043
O4	O	-1.138878	-0.297682	-0.072057
O5	O	-1.128817	-0.075549	0.072218
O6	O	-0.991682	-0.186340	0.072200
O7	O	-1.268169	-0.193198	0.072222
Cu8	Cu	-1.129209	-0.190345	0.085383
Cu9	Cu	-1.138486	-0.182886	-0.085222
O10	O	-1.131034	-0.303989	0.072204
C11	C	-1.129887	-0.042984	0.000087
C12	C	-1.121378	0.044656	0.000086
C13	C	-0.960062	-0.180184	0.000067
C14	C	-0.854158	-0.171230	0.000058
C15	C	-1.307633	-0.193047	0.000092
C16	C	-1.413537	-0.202001	0.000095
C17	C	-0.660256	-0.154861	0.000077
C18	C	-0.607433	-0.218367	0.000076
C19	C	-0.499539	-0.209259	0.000087
C20	C	-0.768160	-0.163967	0.000066
C21	C	-1.137808	-0.330247	0.000072
C22	C	-1.146317	-0.417886	0.000067
N23	N	-1.122691	-0.195591	0.205378
C24	C	-1.203475	0.089154	0.000093
C25	C	-1.195475	0.171500	0.000084
C26	C	-1.105377	0.209347	0.000074
C27	C	-1.023275	0.164843	0.000064
C28	C	-1.031276	0.082498	0.000067
C29	C	-1.072216	0.455265	0.000060
C30	C	-1.064220	0.537615	0.000060
C31	C	-1.236421	0.544267	0.000078
C32	C	-1.244414	0.461920	0.000086
C33	C	-1.162312	0.417424	0.000071
N34	N	-1.097198	0.293518	0.000068
N35	N	-1.170493	0.333254	0.000072
N36	N	-1.145011	-0.177634	-0.205217
C37	C	-1.180974	-0.148544	0.250779
C38	C	-1.176054	-0.152519	0.341587
C39	C	-1.112856	-0.203546	0.386991
C40	C	-1.054567	-0.250595	0.341583
C41	C	-1.059482	-0.246615	0.250777
C42	C	-1.091637	-0.220704	0.658569
C43	C	-1.086728	-0.224682	0.749381
C44	C	-1.208215	-0.126604	0.749379
C45	C	-1.213129	-0.122632	0.658572
C46	C	-1.154836	-0.169678	0.613172
N47	N	-1.107828	-0.207613	0.479810
N48	N	-1.159860	-0.165607	0.520354
H49	H	-0.643242	-0.279576	0.000069
H50	H	-1.303264	0.580505	0.000088
O51	O	-1.035119	-0.266528	0.614519
C52	C	-1.055307	-0.346621	0.636715
H53	H	-1.130282	-0.353467	0.661659
H54	H	-1.050566	-0.382800	0.576998
H55	H	-1.001397	-0.368361	0.689436
O56	O	-0.951466	0.039359	-0.000055
C57	C	-0.901211	0.060705	-0.074786
H58	H	-0.921237	0.122527	-0.099691
H59	H	-0.821258	0.059742	-0.057993
H60	H	-0.920499	0.017107	-0.127103
H61	H	-1.003104	-0.292140	0.378556
O62	O	-0.617396	-0.081897	0.000041
C63	C	-0.517649	-0.088934	0.000069
H64	H	-0.500573	-0.147655	-0.027238
H65	H	-0.485786	-0.038598	-0.041814
H66	H	-0.485930	-0.086238	0.069280
O67	O	-1.291072	0.052520	0.000063
C68	C	-1.361814	0.109457	0.000086
H69	H	-1.332352	0.168371	-0.027227
H70	H	-1.426619	0.089823	-0.041795
H71	H	-1.383677	0.116216	0.069296
O72	O	-0.992365	0.412164	0.000096
C73	C	-0.911132	0.463231	0.000071
H74	H	-0.929193	0.521712	0.027381
H75	H	-0.850950	0.435287	0.041955
H76	H	-0.887566	0.473986	-0.069139
H77	H	-1.264590	-0.081082	0.621606
O78	O	-1.275206	0.214763	-0.000062
C79	C	-1.279789	0.265864	-0.074770
H80	H	-1.236179	0.241440	-0.126993
H81	H	-1.357213	0.270829	-0.099842
H82	H	-1.249683	0.326643	-0.057888
O83	O	-1.002970	-0.292436	0.206710
C84	C	-1.023147	-0.372533	0.228896
H85	H	-1.098119	-0.379387	0.253848
H86	H	-1.018412	-0.408703	0.169171
H87	H	-0.969229	-0.394276	0.281607
H88	H	-1.317781	0.431111	0.000094
H89	H	-1.232441	-0.106996	0.213817
O90	O	-0.935813	0.201700	-0.000062
C91	C	-0.930088	0.252381	-0.074787
H92	H	-1.004998	0.268694	-0.099689
H93	H	-0.887109	0.308144	-0.057986
H94	H	-0.893527	0.221290	-0.127108
O95	O	-0.976755	0.574478	-0.000069
C96	C	-0.971042	0.625162	-0.074793
H97	H	-1.045956	0.641468	-0.099691
H98	H	-0.928071	0.680929	-0.057993
H99	H	-0.934480	0.594077	-0.127118
O100	O	-1.264782	-0.080784	0.793388
C101	C	-1.244560	-0.000689	0.771229
H102	H	-1.211408	0.004684	0.705301
H103	H	-1.313413	0.033230	0.768123
H104	H	-1.192508	0.024785	0.822343
H105	H	-1.223512	-0.114209	0.378552
O106	O	-1.025191	-0.274155	0.793454
C107	C	-0.931094	-0.253726	0.771271
H108	H	-0.927213	-0.189490	0.746313
H109	H	-0.880730	-0.262030	0.830999
H110	H	-0.909249	-0.293140	0.718566
