data_functionalizedCrystal
_audit_creation_method	'MofGen! by Chris Wilmer'
_symmetry_space_group_name_H-M	'P1'
_symmetry_Int_Tables_number	1
_symmetry_cell_setting	triclinic
loop_
_symmetry_equiv_pos_as_xyz
  x,y,z
_cell_length_a	14.519709
_cell_length_b	15.944493
_cell_length_c	12.996460
_cell_angle_alpha	89.994417
_cell_angle_beta	90.000602
_cell_angle_gamma	83.577594
loop_
_atom_site_label
_atom_site_type_symbol
_atom_site_fract_x
_atom_site_fract_y
_atom_site_fract_z
O1	O	1.223653	0.110105	0.085419
O2	O	0.955150	0.123072	0.085449
O3	O	1.096762	-0.005679	0.085442
O4	O	1.082041	0.238856	0.085426
O5	O	1.096743	-0.005672	-0.085692
O6	O	0.955132	0.123079	-0.085685
O7	O	1.223635	0.110112	-0.085715
Cu8	Cu	1.089382	0.116596	-0.101326
Cu9	Cu	1.089403	0.116588	0.101060
O10	O	1.082023	0.238863	-0.085708
C11	C	0.920783	0.122471	-0.000114
C12	C	0.818405	0.120660	-0.000102
C13	C	1.096151	-0.036971	-0.000121
C14	C	1.094347	-0.130222	-0.000107
C15	C	0.443522	0.113994	-0.000148
C16	C	0.547826	0.115845	-0.000135
C17	C	0.630960	0.117327	-0.000124
C18	C	0.735271	0.119178	-0.000113
C19	C	1.177703	-0.365861	-0.000136
C20	C	1.132761	-0.416498	0.084246
C21	C	1.091005	-0.300948	-0.000120
C22	C	1.132723	-0.416467	-0.084478
C23	C	1.087783	-0.465863	-0.000136
C24	C	1.046087	-0.350357	0.084332
C25	C	1.046061	-0.350322	-0.084468
C26	C	1.001056	-0.400926	-0.000065
C27	C	1.092863	-0.205946	-0.000109
C28	C	1.085918	-0.560862	-0.000139
C29	C	1.258002	0.110713	-0.000150
C30	C	1.360380	0.112524	-0.000155
C31	C	1.082634	0.270155	-0.000143
C32	C	1.084438	0.363406	-0.000149
N33	N	1.089373	0.116602	-0.243673
C34	C	1.089377	0.116604	-0.336779
C35	C	1.089386	0.116599	-0.453584
C36	C	1.089397	0.116589	-0.546682
C37	C	1.089407	0.116585	-0.663495
N38	N	1.089419	0.116575	0.243407
H39	H	1.252382	-0.350125	-0.000060
C40	C	1.215161	-0.391695	0.239495
C41	C	1.182198	-0.455512	0.180538
H42	H	1.245691	-0.415781	0.298935
H43	H	1.164638	-0.352129	0.259784
H44	H	1.257524	-0.363904	0.199754
H45	H	1.139829	-0.483298	0.220278
H46	H	1.232728	-0.495093	0.160251
H47	H	1.169347	-0.445342	-0.155812
H48	H	1.009501	-0.321593	0.155747
C49	C	0.855004	-0.388266	0.088429
C50	C	0.900167	-0.421962	0.000004
H51	H	0.792723	-0.401259	0.088476
H52	H	0.855629	-0.328763	0.088990
H53	H	0.886024	-0.411936	0.147790
H54	H	0.869151	-0.398287	-0.059357
H55	H	0.899537	-0.481476	-0.000566
C56	C	1.042213	-0.344818	-0.269048
C57	C	0.996669	-0.311284	-0.180765
H58	H	1.011728	-0.320711	-0.328502
H59	H	1.041175	-0.404269	-0.270083
H60	H	1.104621	-0.332202	-0.268437
H61	H	0.934263	-0.323905	-0.181372
H62	H	0.997697	-0.251819	-0.179730
