data_functionalizedCrystal
_audit_creation_method	'MofGen! by Chris Wilmer'
_symmetry_space_group_name_H-M	'P1'
_symmetry_Int_Tables_number	1
_symmetry_cell_setting	triclinic
loop_
_symmetry_equiv_pos_as_xyz
  x,y,z
_cell_length_a	15.625110
_cell_length_b	15.625429
_cell_length_c	9.730223
_cell_angle_alpha	71.921515
_cell_angle_beta	108.083372
_cell_angle_gamma	89.778684
loop_
_atom_site_label
_atom_site_type_symbol
_atom_site_fract_x
_atom_site_fract_y
_atom_site_fract_z
O1	O	1.196372	0.117733	0.423384
O2	O	0.933908	0.131746	0.285572
O3	O	1.072155	-0.006486	0.423373
O4	O	1.058125	0.255965	0.285583
O5	O	1.072153	-0.006483	0.651950
O6	O	0.933907	0.131750	0.514149
O7	O	1.196370	0.117737	0.651961
Zn8	Zn	1.065138	0.124744	0.619347
Zn9	Zn	1.065140	0.124739	0.318186
O10	O	1.058123	0.255969	0.514160
C11	C	0.900318	0.131112	0.383435
C12	C	0.800233	0.129205	0.334496
C13	C	1.071520	-0.040072	0.554082
C14	C	1.069619	-0.140153	0.603002
C15	C	0.659168	0.126516	0.140930
C16	C	0.753213	0.128308	0.186930
C17	C	0.753219	0.128316	0.436118
C18	C	0.659172	0.126529	0.390136
C19	C	0.612153	0.125628	0.242541
C20	C	0.612157	0.125640	0.491747
C21	C	0.518118	0.123849	0.445771
C22	C	0.471094	0.122946	0.298184
C23	C	0.518115	0.123837	0.196565
C24	C	0.659178	0.126534	0.639345
C25	C	0.612164	0.125646	0.740956
C26	C	0.518122	0.123861	0.694977
C27	C	0.471098	0.122958	0.547390
C28	C	0.471102	0.122970	0.796596
C29	C	0.377063	0.121178	0.750620
C30	C	0.377059	0.121166	0.501414
C31	C	1.063347	-0.469317	0.140946
C32	C	1.061557	-0.563358	0.186955
C33	C	1.061556	-0.563341	0.436135
C34	C	1.063350	-0.469299	0.390149
C35	C	1.064245	-0.422294	0.242553
C36	C	1.064248	-0.422275	0.491755
C37	C	1.066037	-0.328241	0.445770
C38	C	1.066929	-0.281230	0.298179
C39	C	1.066034	-0.328260	0.196568
C40	C	1.063347	-0.469281	0.639347
C41	C	1.064244	-0.422257	0.740953
C42	C	1.066040	-0.328222	0.694973
C43	C	1.066932	-0.281211	0.547381
C44	C	1.066935	-0.281192	0.796584
C45	C	1.068725	-0.187158	0.750599
C46	C	1.068722	-0.187176	0.501396
C47	C	1.229960	0.118371	0.554096
C48	C	1.330045	0.120278	0.603025
C49	C	1.058758	0.289555	0.383449
C50	C	1.060659	0.389636	0.334519
N51	N	1.065143	0.124746	0.824885
N52	N	1.065142	0.124729	0.112656
C53	C	1.126374	0.063558	0.957826
C54	C	1.126372	0.063547	1.101714
C55	C	1.003904	0.185921	0.979699
C56	C	1.003903	0.185927	0.835815
C57	C	1.187615	0.002377	0.946896
C58	C	1.248851	-0.058816	1.079843
C59	C	1.248849	-0.058827	1.223730
C60	C	1.187610	0.002355	1.234670
H61	H	0.338773	0.120444	0.381221
Cl62	Cl	1.325823	-0.135760	1.390860
Cl63	Cl	1.064485	-0.410221	-0.044599
Cl64	Cl	1.325826	-0.135734	1.066089
H65	H	0.954042	0.235751	0.727568
Cl66	Cl	1.187604	0.002329	1.415564
Cl67	Cl	0.812336	0.129449	0.621658
H68	H	1.069436	-0.148868	0.833326
H69	H	1.187624	0.002382	0.829741
H70	H	0.791488	0.129037	0.104171
Cl71	Cl	0.926926	0.262833	0.993458
H72	H	0.735750	0.127994	0.676773
H73	H	0.620881	0.125794	0.020737
Cl74	Cl	1.069860	-0.128080	0.315850
H75	H	0.650459	0.126376	0.861131
H76	H	1.066771	-0.289987	0.076385
Cl77	Cl	0.530223	0.124092	0.982142
H78	H	0.394521	0.121488	0.260752
H79	H	0.338781	0.120472	0.833353
Cl80	Cl	1.069183	-0.163014	0.240367
Cl81	Cl	1.060423	-0.622470	0.059201
Cl82	Cl	0.458997	0.122719	0.011005
H83	H	1.066198	-0.319476	0.916752
Cl84	Cl	1.060423	-0.622439	0.621673
H85	H	1.061880	-0.545848	0.676778
H86	H	1.063512	-0.460541	0.861125
