data_functionalizedCrystal
_audit_creation_method	'MofGen! by Chris Wilmer'
_symmetry_space_group_name_H-M	'P1'
_symmetry_Int_Tables_number	1
_symmetry_cell_setting	triclinic
loop_
_symmetry_equiv_pos_as_xyz
  x,y,z
_cell_length_a	27.440280
_cell_length_b	20.919309
_cell_length_c	20.919309
_cell_angle_alpha	60.101124
_cell_angle_beta	90.005478
_cell_angle_gamma	62.590440
loop_
_atom_site_label
_atom_site_type_symbol
_atom_site_fract_x
_atom_site_fract_y
_atom_site_fract_z
Zr1	Zr	0.493211	0.692368	-0.106753
O2	O	0.422174	0.817904	-0.209864
O3	O	0.512145	0.561536	-0.071681
O4	O	0.519748	0.684717	-0.204853
O5	O	0.411807	0.702604	0.024417
O6	O	0.599951	0.684706	-0.204840
O7	O	0.414571	0.694723	-0.076692
O8	O	0.586349	0.464357	0.033380
O9	O	0.425408	0.922953	-0.213803
O10	O	0.583509	0.617302	-0.060898
O11	O	0.521592	0.623192	0.014549
O12	O	0.530544	0.768222	-0.142244
O13	O	0.468628	0.774112	-0.066797
Zr14	Zr	0.616716	0.704919	0.054525
Zr15	Zr	0.621124	0.692350	-0.106732
Zr16	Zr	0.488803	0.704937	0.054504
Zr17	Zr	0.498369	0.859908	-0.113036
Zr18	Zr	0.611558	0.537379	0.060808
O19	O	0.597782	0.835751	0.019453
O20	O	0.604050	0.817878	-0.209834
O21	O	0.415907	0.835777	0.019423
O22	O	0.687753	0.579383	0.157636
O23	O	0.694021	0.561510	-0.071651
O24	O	0.505877	0.579409	0.157606
O25	O	0.698120	0.694683	-0.076645
O26	O	0.590179	0.712570	0.152625
O27	O	0.509977	0.712581	0.152612
O28	O	0.695357	0.702564	0.024464
O29	O	0.527082	0.922939	-0.213786
O30	O	0.582845	0.474348	0.161558
O31	O	0.684519	0.474334	0.161575
O32	O	0.688023	0.464343	0.033397
O33	O	0.421904	0.932944	-0.085625
O34	O	0.523578	0.932930	-0.085608
O35	O	0.579383	0.629065	0.090016
O36	O	0.641300	0.623175	0.014569
O37	O	0.588335	0.774095	-0.066777
O38	O	0.526419	0.779985	0.008670
C39	C	0.548512	0.489076	-0.018255
C40	C	0.546323	0.417950	-0.015588
C41	C	0.577612	0.381461	-0.053718
C42	C	0.575556	0.314627	-0.051204
C43	C	0.542207	0.284287	-0.010566
C44	C	0.510916	0.320780	0.027569
C45	C	0.512976	0.387609	0.025059
C46	C	0.534374	0.082658	-0.001015
C47	C	0.532315	0.015826	0.001490
C48	C	0.596956	0.009676	-0.077282
C49	C	0.599010	0.076510	-0.079792
C50	C	0.567722	0.112994	-0.041654
C51	C	0.540103	0.215974	-0.007998
C52	C	0.569829	0.181302	-0.044218
C53	C	0.394964	0.698666	-0.026140
C54	C	0.340662	0.698674	-0.026149
C55	C	0.031608	0.619851	0.016369
C56	C	-0.019411	0.619847	0.016376
O57	O	-0.022287	0.552850	0.052511
N58	N	-0.072575	0.698625	-0.026087
C59	C	-0.074719	0.777413	-0.068552
O60	O	-0.124623	0.844419	-0.104669
C61	C	-0.023701	0.777417	-0.068554
C62	C	0.029462	0.698633	-0.026095
C63	C	0.084768	0.541074	0.058825
C64	C	0.135784	0.541079	0.058817
C65	C	0.133638	0.619861	0.016353
C66	C	0.080477	0.698638	-0.026104
C67	C	-0.025845	0.856204	-0.111015
C68	C	0.025179	0.856201	-0.111013
C69	C	0.078341	0.777418	-0.068554
C70	C	0.129347	0.777424	-0.068576
N71	N	0.182511	0.698646	-0.026114
C72	C	0.184656	0.619865	0.016351
C73	C	-0.181858	0.777399	-0.068544
C74	C	-0.232875	0.777395	-0.068547
C75	C	-0.177564	0.619829	0.016383
C76	C	-0.126546	0.619833	0.016381
C77	C	-0.128694	0.698621	-0.026082
C78	C	0.291790	0.619881	0.016330
C79	C	0.342807	0.619892	0.016315
C80	C	0.287491	0.777458	-0.068611
C81	C	0.236478	0.777447	-0.068600
C82	C	0.238631	0.698651	-0.026124
O83	O	0.132267	0.844387	-0.104690
O84	O	0.234563	0.552870	0.052469
C85	C	0.714963	0.698621	-0.026088
C86	C	0.769266	0.698613	-0.026079
C87	C	0.560478	0.682921	-0.227822
C88	C	0.562349	0.677584	-0.296280
C89	C	0.561415	0.908211	-0.033973
C90	C	0.563605	0.979337	-0.036640
C91	C	0.535582	0.753854	-0.370904
C92	C	0.537348	0.748835	-0.435224
C93	C	0.565877	0.667545	-0.424920
C94	C	0.592648	0.591270	-0.350289
C95	C	0.590885	0.596290	-0.285970
C96	C	0.572586	0.648447	-0.616998
C97	C	0.574345	0.643433	-0.681324
C98	C	0.519046	0.800999	-0.766256
C99	C	0.517283	0.806011	-0.701931
C100	C	0.544056	0.729736	-0.627306
C101	C	0.567682	0.662413	-0.490665
C102	C	0.542255	0.734869	-0.561563
C103	C	0.549450	0.714366	0.175594
C104	C	0.547578	0.719703	0.244052
C105	C	0.708512	0.489053	-0.018229
C106	C	0.760625	0.417920	-0.015553
C107	C	0.542998	0.504798	0.183453
C108	C	0.538937	0.439009	0.254578
C109	C	0.702998	0.504776	0.183479
C110	C	0.753239	0.438979	0.254613
C111	C	0.406929	0.892511	-0.235707
C112	C	0.356688	0.958308	-0.306841
C113	C	0.401415	0.908234	-0.033999
C114	C	0.349303	0.979367	-0.036675
C115	C	0.566929	0.892489	-0.235681
C116	C	0.570990	0.958278	-0.306806
C117	C	0.754931	0.381449	-0.053696
C118	C	0.803893	0.314620	-0.051197
C119	C	0.858547	0.284259	-0.010550
C120	C	0.864239	0.320737	0.027593
C121	C	0.815279	0.387569	0.025089
C122	C	0.567196	0.411180	0.327378
C123	C	0.563379	0.349374	0.394214
C124	C	0.531305	0.315394	0.388247
C125	C	0.503042	0.343229	0.315439
C126	C	0.506857	0.405038	0.248605
C127	C	0.809158	0.405005	0.248636
C128	C	0.856371	0.343191	0.315467
C129	C	0.847663	0.315347	0.388275
C130	C	0.791738	0.349327	0.394251
C131	C	0.744527	0.411145	0.327420
C132	C	0.300769	0.992290	-0.300864
C133	C	0.253557	1.054125	-0.367696
C134	C	0.262265	1.081972	-0.440505
C135	C	0.318190	1.047988	-0.446480
C136	C	0.365401	0.986159	-0.379649
C137	C	0.354997	1.015845	0.001461
C138	C	0.306036	1.082691	-0.001057
C139	C	0.251382	1.113054	-0.041706
C140	C	0.245690	1.076573	-0.079846
C141	C	0.294650	1.009732	-0.077333
C142	C	0.603069	0.992239	-0.300814
C143	C	0.606896	1.054047	-0.367638
C144	C	0.578640	1.081896	-0.440452
C145	C	0.546560	1.047928	-0.446441
C146	C	0.542737	0.986117	-0.379619
H147	H	0.505156	-0.008872	0.034582
O148	O	0.500622	0.122014	0.040107
H149	H	0.477081	0.089696	0.068777
O150	O	0.400147	0.534912	0.062115
H151	H	0.425845	0.527892	0.022493
O152	O	0.782348	0.319280	0.472782
H153	H	0.824575	0.270576	0.518243
H154	H	0.494053	0.872206	-0.710330
H155	H	0.586396	0.326719	0.453491
O156	O	0.695988	0.414195	-0.097552
H157	H	0.669761	0.404467	-0.057317
O158	O	0.634982	0.109227	-0.123623
H159	H	0.631153	0.161833	-0.118968
H160	H	0.698996	0.438798	0.332297
H161	H	0.310682	1.112383	0.030005
O162	O	0.211343	1.148659	-0.512586
H163	H	0.214177	1.206910	-0.548828
H164	H	0.799246	0.284927	-0.082258
H165	H	0.908745	0.296007	0.060687
H166	H	0.819922	0.417256	0.056155
H167	H	0.201184	1.101305	-0.112942
H168	H	0.519029	0.801055	-0.569949
O169	O	0.623423	0.503587	-0.339163
H170	H	0.592512	0.497526	-0.366432
H171	H	0.483846	0.427688	0.189330
O172	O	0.193244	1.090763	-0.361236
H173	H	0.161874	1.138445	-0.419936
H174	H	0.516613	0.958473	-0.384508
O175	O	0.198575	1.185123	-0.044389
H176	H	0.211721	1.205369	-0.011024
H177	H	0.523556	1.070613	-0.505736
O178	O	0.291370	0.962265	-0.222340
H179	H	0.244552	0.996300	-0.229424
O180	O	0.630703	-0.029673	-0.118414
H181	H	0.623672	-0.081243	-0.109841
H182	H	-0.175825	0.555681	0.050957
O183	O	0.288505	0.970382	-0.118459
H184	H	0.242274	1.002724	-0.147137
O185	O	0.633554	0.962198	-0.222283
H186	H	0.656508	0.996195	-0.229355
H187	H	0.633017	1.081697	-0.362745
H188	H	0.604766	0.406162	-0.086814
O189	O	0.504808	0.841531	-0.382018
H190	H	0.524929	0.878339	-0.414713
O191	O	0.601453	0.566183	-0.536514
H192	H	0.621579	0.508817	-0.540159
H193	H	0.410931	0.958491	-0.384524
O194	O	0.898586	0.248659	0.460355
H195	H	0.926322	0.274299	0.459349
O196	O	0.327579	1.078020	-0.525010
H197	H	0.285352	1.126714	-0.570471
O198	O	0.413943	0.983115	0.045293
H199	H	0.409668	1.019730	0.071373
H200	H	0.593314	0.438841	0.332251
O201	O	0.605122	0.555751	-0.670210
H202	H	0.585010	0.518934	-0.637500
O203	O	0.527194	0.248723	0.460335
H204	H	0.544870	0.187822	0.462580
H205	H	0.193190	0.841598	-0.103183
H206	H	0.601035	0.284916	-0.082252
H207	H	0.596985	0.206002	-0.077303
H208	H	0.483766	0.296069	0.060662
H209	H	0.487495	0.417320	0.056106
H210	H	0.590910	0.596227	-0.482283
H211	H	0.512950	0.191265	0.025091
H212	H	0.293551	0.555718	0.050919
H213	H	0.179067	0.476925	0.093388
O214	O	0.911353	0.212169	-0.007845
H215	H	0.898205	0.191907	-0.041192
H216	H	0.476928	0.315552	0.310592
O217	O	0.818558	0.435041	0.170111
H218	H	0.865377	0.401035	0.177195
H219	H	0.901903	0.315530	0.310588
H220	H	0.086525	0.476917	0.093409
H221	H	-0.083262	0.555681	0.050961
H222	H	-0.183615	0.841561	-0.103126
O223	O	-0.290213	0.862367	-0.114348
H224	H	-0.283127	0.917145	-0.143871
O225	O	-0.083179	0.941179	-0.156807
H226	H	-0.076089	0.995953	-0.186322
H227	H	0.023422	0.920362	-0.145582
O228	O	0.285184	0.862421	-0.114502
H229	H	0.329594	0.849179	-0.107396
H230	H	0.515553	0.810942	-0.495984
O231	O	0.490183	0.883265	-0.846741
H232	H	0.496207	0.866122	-0.889737
H233	H	0.581758	1.132228	-0.494857
O234	O	0.619751	0.514029	-0.205479
H235	H	0.639880	0.456659	-0.209117
