data_functionalizedCrystal
_audit_creation_method	'MofGen! by Chris Wilmer'
_symmetry_space_group_name_H-M	'P1'
_symmetry_Int_Tables_number	1
_symmetry_cell_setting	triclinic
loop_
_symmetry_equiv_pos_as_xyz
  x,y,z
_cell_length_a	8.597340
_cell_length_b	17.038272
_cell_length_c	7.681481
_cell_angle_alpha	96.157826
_cell_angle_beta	76.525094
_cell_angle_gamma	88.193829
loop_
_atom_site_label
_atom_site_type_symbol
_atom_site_fract_x
_atom_site_fract_y
_atom_site_fract_z
O1	O	2.114508	0.108124	-0.174378
O2	O	1.652136	0.120582	-0.104224
O3	O	1.880575	0.000537	-0.138898
O4	O	1.886069	0.228170	-0.139703
O5	O	1.908688	-0.014272	-0.436023
O6	O	1.680249	0.105773	-0.401348
O7	O	2.142620	0.093315	-0.471502
Zn8	Zn	1.915898	0.097193	-0.483600
Zn9	Zn	1.878858	0.116704	-0.092126
O10	O	1.914181	0.213361	-0.436828
C11	C	1.606739	0.112665	-0.243766
C12	C	1.429586	0.111127	-0.216887
C13	C	1.889633	-0.035996	-0.286702
C14	C	1.874719	-0.122791	-0.284438
C15	C	2.011645	-0.172891	-0.305215
C16	C	1.997621	-0.254442	-0.303071
C17	C	1.846670	-0.285892	-0.280162
C18	C	1.709734	-0.235785	-0.259378
C19	C	1.723758	-0.154235	-0.261510
C20	C	1.797124	-0.531654	-0.272620
C21	C	1.783110	-0.613211	-0.270495
C22	C	2.070998	-0.631862	-0.314185
C23	C	2.085011	-0.550310	-0.316326
C24	C	1.948073	-0.500210	-0.295532
C25	C	1.832332	-0.369250	-0.277975
C26	C	1.962411	-0.416852	-0.297707
C27	C	2.188017	0.101233	-0.331957
C28	C	2.365168	0.102771	-0.358823
C29	C	1.905123	0.249894	-0.289021
C30	C	1.920036	0.336689	-0.291272
N31	N	1.941188	0.083876	-0.750773
N32	N	1.853580	0.130015	0.175046
H33	H	1.445546	0.096788	-0.500910
Br34	Br	1.704521	0.208511	-0.677000
H35	H	2.030637	0.036786	-0.839556
H36	H	1.349201	0.117105	-0.074791
H37	H	2.134566	-0.147292	-0.323881
H38	H	1.685619	-0.490871	-0.255689
H39	H	2.109121	-0.295232	-0.319994
H40	H	2.182484	-0.672662	-0.331110
Br41	Br	2.289874	-0.507631	-0.347360
H42	H	1.660185	-0.638815	-0.251868
Br43	Br	1.504867	-0.278464	-0.228256
H44	H	1.612258	-0.113443	-0.244590
H45	H	2.085310	-0.391240	-0.316320
Br46	Br	1.627474	-0.411938	-0.246867
