data_functionalizedCrystal
_audit_creation_method	'MofGen! by Chris Wilmer'
_symmetry_space_group_name_H-M	'P1'
_symmetry_Int_Tables_number	1
_symmetry_cell_setting	triclinic
loop_
_symmetry_equiv_pos_as_xyz
  x,y,z
_cell_length_a	10.654550
_cell_length_b	9.730217
_cell_length_c	10.654554
_cell_angle_alpha	90.004615
_cell_angle_beta	84.485824
_cell_angle_gamma	90.007239
loop_
_atom_site_label
_atom_site_type_symbol
_atom_site_fract_x
_atom_site_fract_y
_atom_site_fract_z
O1	O	1.667843	0.114402	0.176399
O2	O	1.302364	0.114379	0.193205
O3	O	1.493504	0.114384	0.002063
O4	O	1.476703	0.114397	0.367541
O5	O	1.493490	-0.114197	0.002056
O6	O	1.302351	-0.114201	0.193198
O7	O	1.667829	-0.114179	0.176391
Zn8	Zn	1.485088	-0.150482	0.184793
Zn9	Zn	1.485106	0.150682	0.184803
O10	O	1.476690	-0.114183	0.367533
C11	C	1.255560	0.000086	0.191967
C12	C	1.116116	0.000078	0.188275
N13	N	1.485084	-0.356018	0.184786
C14	C	1.036632	0.000102	0.300817
C15	C	0.905611	0.000126	0.297340
C16	C	0.933571	0.000107	0.068771
C17	C	1.064589	0.000073	0.072249
C18	C	1.020489	0.000119	0.432779
C19	C	0.889468	0.000143	0.429303
C20	C	1.331438	-0.356090	0.031010
C21	C	1.254628	-0.428066	-0.045880
C22	C	1.254646	-0.571946	-0.045881
C23	C	1.331480	-0.643853	0.031021
C24	C	1.408290	-0.571877	0.107911
C25	C	1.408266	-0.427994	0.107900
C26	C	1.561929	-0.571805	0.261691
C27	C	1.561918	-0.427925	0.261687
C28	C	1.638763	-0.643712	0.338593
C29	C	1.715581	-0.571736	0.415478
C30	C	1.715560	-0.427848	0.415474
C31	C	1.638728	-0.355949	0.338577
C32	C	1.714634	0.000117	0.177629
C33	C	1.854077	0.000135	0.181321
C34	C	1.492262	0.000094	-0.044738
C35	C	1.488568	0.000097	-0.184181
N36	N	1.485119	0.356219	0.184801
C37	C	1.597641	0.000122	-0.394690
C38	C	1.601113	0.000108	-0.263669
C39	C	1.372543	0.000087	-0.235722
C40	C	1.369073	0.000091	-0.366741
C41	C	1.729604	0.000140	-0.410824
C42	C	1.733076	0.000126	-0.279802
C43	C	1.477931	0.000109	0.414335
C44	C	1.481625	0.000116	0.553778
H45	H	1.129302	0.000034	-0.019393
H46	H	1.049815	-0.095545	0.484387
C47	C	1.170153	-0.651132	-0.130451
C48	C	1.229689	-0.750050	-0.232179
C49	C	1.145195	-0.829239	-0.316746
C50	C	1.001164	-0.809510	-0.299585
C51	C	0.941619	-0.710587	-0.197852
C52	C	1.026114	-0.631399	-0.113286
H53	H	1.336317	-0.764659	-0.244887
H54	H	1.189274	-0.902468	-0.392055
H55	H	0.938616	-0.868130	-0.362186
H56	H	0.834992	-0.695979	-0.185145
H57	H	0.982035	-0.558170	-0.037977
C58	C	1.068679	0.133431	0.489558
C59	C	0.974985	0.247699	0.534626
C60	C	1.023177	0.381011	0.591402
C61	C	1.165063	0.400056	0.603110
C62	C	1.258765	0.285784	0.558041
C63	C	1.210573	0.152472	0.501265
H64	H	0.869945	0.233604	0.525960
H65	H	0.953811	0.465602	0.624765
H66	H	1.200737	0.498742	0.645139
H67	H	1.363805	0.299879	0.566708
H68	H	1.279939	0.067880	0.467903
H69	H	1.638766	-0.760867	0.338593
C70	C	1.802788	0.129354	-0.240100
C71	C	1.923002	0.114832	-0.171681
C72	C	1.992709	0.244055	-0.131977
C73	C	1.942202	0.387801	-0.160691
C74	C	1.821982	0.402330	-0.229114
C75	C	1.752275	0.273106	-0.268819
H76	H	1.960396	0.008417	-0.150422
H77	H	2.081704	0.233299	-0.081325
H78	H	1.993804	0.483460	-0.131299
H79	H	1.784588	0.508744	-0.250373
H80	H	1.663280	0.283862	-0.319470
H81	H	1.274602	0.000074	-0.408692
C82	C	1.170114	-0.348968	-0.130470
C83	C	1.170088	-0.190705	-0.130483
C84	C	1.085571	-0.111613	-0.215069
C85	C	1.001081	-0.190783	-0.299643
C86	C	1.001104	-0.349055	-0.299633
C87	C	1.085620	-0.428147	-0.215047
H88	H	1.232635	-0.132090	-0.067873
H89	H	1.085555	0.005551	-0.215075
H90	H	0.938517	-0.132235	-0.362258
H91	H	0.938556	-0.407670	-0.362243
H92	H	1.085637	-0.545311	-0.215041
H93	H	1.778102	-0.369254	0.478095
H94	H	0.843791	-0.098540	0.469180
H95	H	0.891602	0.000124	-0.025694
H96	H	0.847742	0.095812	0.479028
H97	H	1.331424	-0.238936	0.030993
H98	H	1.779327	-0.095510	-0.452584
H99	H	1.331477	-0.761007	0.031025
H100	H	1.778126	-0.630295	0.478092
H101	H	1.638707	-0.238795	0.338563
H102	H	1.769479	0.098838	-0.456459
H103	H	1.280908	0.000065	-0.170993
H104	H	1.775102	-0.098570	-0.244185
