data_functionalizedCrystal
_audit_creation_method	'MofGen! by Chris Wilmer'
_symmetry_space_group_name_H-M	'P1'
_symmetry_Int_Tables_number	1
_symmetry_cell_setting	triclinic
loop_
_symmetry_equiv_pos_as_xyz
  x,y,z
_cell_length_a	10.489746
_cell_length_b	9.565339
_cell_length_c	11.792241
_cell_angle_alpha	89.999915
_cell_angle_beta	84.367358
_cell_angle_gamma	90.000667
loop_
_atom_site_label
_atom_site_type_symbol
_atom_site_fract_x
_atom_site_fract_y
_atom_site_fract_z
O1	O	1.693503	0.116167	0.160157
O2	O	1.322257	0.116190	0.175182
O3	O	1.516889	0.116168	0.002523
O4	O	1.498871	0.116189	0.332815
O5	O	1.516874	-0.116352	0.002534
O6	O	1.322242	-0.116330	0.175193
O7	O	1.693488	-0.116353	0.160167
Zn8	Zn	1.507862	-0.153259	0.167682
Zn9	Zn	1.507883	0.153096	0.167668
O10	O	1.498856	-0.116331	0.332826
C11	C	1.274722	-0.000067	0.174051
C12	C	1.133104	-0.000058	0.170652
N13	N	1.507858	-0.362339	0.167691
C14	C	0.980628	-0.000085	0.058783
C15	C	1.057823	-0.114722	0.114718
C16	C	1.057794	0.114525	0.114734
C17	C	0.957971	-0.114825	0.220589
C18	C	0.957936	0.114525	0.220589
C19	C	1.035083	-0.000140	0.276602
C20	C	1.417820	-0.453532	0.247513
C21	C	1.533238	-0.546716	0.270481
C22	C	1.392489	-0.546709	0.144732
C23	C	1.623335	-0.453472	0.190710
C24	C	1.482510	-0.453457	0.064916
C25	C	1.598012	-0.546599	0.087841
C26	C	1.741023	-0.000093	0.161298
C27	C	1.882641	-0.000093	0.164697
C28	C	1.515750	-0.000092	-0.039765
C29	C	1.512362	-0.000090	-0.165788
N30	N	1.507897	0.362175	0.167650
C31	C	1.506133	-0.000066	-0.396517
C32	C	1.509594	-0.000079	-0.268123
C33	C	1.499995	-0.000069	0.375115
C34	C	1.503383	-0.000061	0.501138
H35	H	0.956221	-0.000206	-0.033314
F36	F	1.114839	-0.241414	0.056286
F37	F	0.901200	-0.241650	0.278996
F38	F	1.697663	-0.599684	-0.000416
H39	H	1.341747	-0.412668	0.315079
H40	H	1.059245	-0.000197	0.368768
H41	H	1.101396	0.211444	0.069998
F42	F	1.454406	-0.399868	-0.048629
F43	F	0.900884	0.241219	0.278973
H44	H	1.554704	-0.587680	0.357377
F45	F	1.264945	-0.600244	0.119370
F46	F	1.750912	-0.400171	0.216202
