data_functionalizedCrystal
_audit_creation_method	'MofGen! by Chris Wilmer'
_symmetry_space_group_name_H-M	'P1'
_symmetry_Int_Tables_number	1
_symmetry_cell_setting	triclinic
loop_
_symmetry_equiv_pos_as_xyz
  x,y,z
_cell_length_a	16.053802
_cell_length_b	16.992694
_cell_length_c	16.992695
_cell_angle_alpha	90.668223
_cell_angle_beta	92.741074
_cell_angle_gamma	87.249047
loop_
_atom_site_label
_atom_site_type_symbol
_atom_site_fract_x
_atom_site_fract_y
_atom_site_fract_z
O1	O	0.069325	-1.053959	-0.163815
O2	O	0.069350	-0.825560	-0.161983
O3	O	0.069331	-0.938844	-0.048699
O4	O	0.069344	-0.940676	-0.277099
O5	O	-0.069527	-0.932607	-0.054907
O6	O	-0.069508	-0.819323	-0.168191
O7	O	-0.069533	-1.047722	-0.170023
Zn8	Zn	-0.091567	-0.932532	-0.170093
Zn9	Zn	0.091384	-0.940750	-0.161913
O10	O	-0.069514	-0.934438	-0.283307
C11	C	-0.000076	-0.793082	-0.162731
C12	C	-0.000067	-0.705597	-0.155702
N13	N	-0.216427	-0.926930	-0.175675
C14	C	-0.000098	-0.933370	-0.022443
C15	C	-0.000097	-0.926341	0.065042
C16	C	-0.260129	-0.975152	-0.127492
C17	C	-0.347535	-0.971241	-0.131404
C18	C	-0.391237	-0.919110	-0.183504
C19	C	-0.347529	-0.870883	-0.231689
C20	C	-0.260125	-0.874791	-0.227772
C21	C	-0.652644	-0.902039	-0.200593
C22	C	-0.740055	-0.898136	-0.204508
C23	C	-0.740054	-0.998493	-0.104222
C24	C	-0.652648	-1.002400	-0.100313
C25	C	-0.608948	-0.954169	-0.148494
N26	N	-0.480580	-0.915113	-0.187507
N27	N	-0.519606	-0.958163	-0.144487
N28	N	0.216243	-0.946358	-0.156325
C29	C	-0.000105	-1.080201	-0.169275
C30	C	-0.000109	-1.167685	-0.176304
C31	C	-0.000064	-0.659607	-0.223520
C32	C	-0.000076	-0.577405	-0.216911
C33	C	-0.000085	-0.541197	-0.142484
C34	C	-0.000091	-0.587193	-0.074661
C35	C	-0.000085	-0.669393	-0.081270
C36	C	-0.000109	-0.295881	-0.115090
C37	C	-0.000112	-0.213676	-0.108486
C38	C	-0.000099	-0.203893	-0.250737
C39	C	-0.000088	-0.286095	-0.257339
C40	C	-0.000098	-0.332084	-0.189517
N41	N	-0.000094	-0.457174	-0.135727
N42	N	-0.000094	-0.416105	-0.196275
C43	C	-0.000084	-0.939913	-0.309563
C44	C	-0.000079	-0.946942	-0.397047
C45	C	-0.000105	-0.994158	0.111032
C46	C	-0.000096	-0.987550	0.193233
C47	C	-0.000086	-0.913123	0.229442
C48	C	-0.000075	-0.845300	0.183446
C49	C	-0.000078	-0.851910	0.101246
C50	C	-0.000071	-0.885729	0.474757
C51	C	-0.000071	-0.879124	0.556962
C52	C	-0.000091	-1.021375	0.566745
C53	C	-0.000099	-1.027978	0.484543
C54	C	-0.000083	-0.960155	0.438554
N55	N	-0.000079	-0.906366	0.313465
N56	N	-0.000084	-0.966913	0.354533
H57	H	-0.383116	-1.010506	-0.092170
H58	H	-0.000092	-0.166440	-0.305954
O59	O	0.000047	-0.773050	0.218713
C60	C	0.072021	-0.686248	0.309016
C61	C	0.071979	-0.768108	0.269148
H62	H	0.130180	-0.682220	0.349789
H63	H	0.013948	-0.676974	0.344713
H64	H	0.071987	-0.638924	0.262008
H65	H	0.072043	-0.815483	0.316103
H66	H	0.130046	-0.777315	0.233434
O67	O	-0.217799	-0.827919	-0.274659
C68	C	-0.227019	-0.727934	-0.374509
C69	C	-0.275054	-0.780989	-0.321469
H70	H	-0.273288	-0.689965	-0.412357
H71	H	-0.186108	-0.766172	-0.414203
H72	H	-0.186088	-0.688347	-0.336186
H73	H	-0.316030	-0.820584	-0.359731
H74	H	-0.315912	-0.742704	-0.281771
O75	O	0.000014	-1.087315	0.611341
C76	C	0.071973	-1.210080	0.648099
C77	C	0.071943	-1.135445	0.597538
H78	H	0.130129	-1.249005	0.636970
H79	H	0.013898	-1.243902	0.631748
H80	H	0.071937	-1.192554	0.713062
H81	H	0.072008	-1.152901	0.532562
H82	H	0.130013	-1.101641	0.613957
H83	H	-0.000056	-0.689081	-0.284126
H84	H	-0.000118	-0.333316	-0.059864
H85	H	-0.000072	-0.539963	-0.272136
H86	H	-0.617070	-0.862769	-0.239826
O87	O	0.000088	-0.321298	-0.329619
C88	C	0.072069	-0.411646	-0.416394
C89	C	0.071964	-0.371829	-0.334512
H90	H	0.130165	-0.452522	-0.420371
H91	H	0.072133	-0.364678	-0.463751
H92	H	0.013944	-0.447259	-0.425662
H93	H	0.130078	-0.336220	-0.325168
H94	H	0.071857	-0.418835	-0.287199
O95	O	-0.000012	-0.178594	-0.036136
C96	C	0.071939	-0.164980	0.090667
C97	C	0.071915	-0.204781	0.008774
H98	H	0.130094	-0.186124	0.126994
H99	H	0.013862	-0.180965	0.121897
H100	H	0.071901	-0.098332	0.083712
H101	H	0.071982	-0.271436	0.015658
H102	H	0.129986	-0.188732	-0.022428
H103	H	-0.775633	-0.855683	-0.246937
O104	O	-0.000064	-0.551898	-0.002421
C105	C	-0.000125	-0.429602	0.070804
C106	C	-0.000139	-0.469470	-0.011057
H107	H	-0.000204	-0.362952	0.063849
H108	H	0.057998	-0.450722	0.107194
H109	H	-0.058226	-0.445622	0.101975
H110	H	0.057922	-0.453467	-0.042294
H111	H	-0.058300	-0.448348	-0.047389
H112	H	-0.000071	-0.796685	0.063801
H113	H	-0.617067	-1.044848	-0.057889
H114	H	-0.000087	-0.706838	-0.026046
O115	O	-0.390109	-0.820311	-0.282281
C116	C	-0.524757	-0.769784	-0.332732
C117	C	-0.476643	-0.827102	-0.275412
H118	H	-0.594729	-0.775243	-0.327187
H119	H	-0.507619	-0.784756	-0.395681
H120	H	-0.507534	-0.706871	-0.317723
H121	H	-0.493841	-0.890034	-0.290349
H122	H	-0.493785	-0.812063	-0.212480
H123	H	-0.000119	-1.054765	0.081557
O124	O	-0.000147	-1.053506	0.237789
C125	C	-0.000130	-1.195298	0.238819
C126	C	-0.000092	-1.120663	0.188265
H127	H	-0.000068	-1.249613	0.198801
H128	H	-0.058254	-1.193199	0.274936
H129	H	0.057969	-1.198332	0.280159
H130	H	-0.058152	-1.117581	0.146881
H131	H	0.058071	-1.122792	0.152202
H132	H	-0.000108	-1.088584	0.455068
H133	H	-0.000076	-0.818513	0.586440
H134	H	-0.224552	-1.017605	-0.085070
O135	O	-0.782416	-1.045296	-0.057300
C136	C	-0.809215	-1.081606	0.075469
C137	C	-0.761173	-1.028571	0.022415
H138	H	-0.792071	-1.068091	0.139929
H139	H	-0.792007	-1.146081	0.062067
H140	H	-0.879187	-1.069870	0.063681
H141	H	-0.691190	-1.040237	0.034172
H142	H	-0.778450	-0.964112	0.035827
H143	H	-0.000059	-0.830503	0.437322
