data_functionalizedCrystal
_audit_creation_method	'MofGen! by Chris Wilmer'
_symmetry_space_group_name_H-M	'P1'
_symmetry_Int_Tables_number	1
_symmetry_cell_setting	triclinic
loop_
_symmetry_equiv_pos_as_xyz
  x,y,z
_cell_length_a	16.109301
_cell_length_b	14.519709
_cell_length_c	15.186229
_cell_angle_alpha	89.995307
_cell_angle_beta	89.999362
_cell_angle_gamma	83.570813
loop_
_atom_site_label
_atom_site_type_symbol
_atom_site_fract_x
_atom_site_fract_y
_atom_site_fract_z
O1	O	1.103336	0.118540	-0.073175
O2	O	1.603336	0.618540	0.426825
O3	O	0.861299	0.133292	-0.073189
O4	O	1.361299	0.633292	0.426811
O5	O	0.988735	-0.008336	-0.073174
O6	O	1.488735	0.491664	0.426826
O7	O	0.975900	0.260168	-0.073190
O8	O	1.475900	0.760168	0.426810
O9	O	0.988726	-0.008338	0.073284
O10	O	1.488726	0.491662	0.573284
O11	O	0.861291	0.133290	0.073268
O12	O	1.361291	0.633290	0.573268
O13	O	1.103327	0.118538	0.073282
O14	O	1.603327	0.618538	0.573282
Zn15	Zn	0.982308	0.125914	0.096529
Zn16	Zn	1.482308	0.625914	0.596529
Zn17	Zn	0.982319	0.125916	-0.096435
Zn18	Zn	1.482319	0.625916	0.403565
O19	O	0.975892	0.260166	0.073267
O20	O	1.475892	0.760166	0.573267
C21	C	0.830319	0.132693	0.000038
C22	C	1.330319	0.632693	0.500038
C23	C	0.738021	0.130902	0.000033
C24	C	1.238021	0.630902	0.500033
C25	C	0.515887	0.210775	0.000038
C26	C	1.015887	0.710775	0.500038
C27	C	0.429163	0.209085	0.000044
C28	C	0.929163	0.709085	0.500044
C29	C	0.448747	0.041048	0.000050
C30	C	0.948747	0.541048	0.500050
C31	C	0.535468	0.042739	0.000051
C32	C	1.035468	0.542739	0.500051
C33	C	0.569036	0.127606	0.000040
C34	C	1.069036	0.627606	0.500040
C35	C	0.395591	0.124224	0.000045
C36	C	0.895591	0.624224	0.500045
C37	C	0.301562	0.122390	0.000052
C38	C	0.801562	0.622390	0.500052
C39	C	0.663071	0.129440	0.000036
C40	C	1.163071	0.629440	0.500036
C41	C	0.988132	-0.042696	0.000055
C42	C	1.488132	0.457304	0.500055
C43	C	0.986340	-0.145073	0.000056
C44	C	1.486340	0.354927	0.500056
C45	C	0.979741	-0.519955	0.000032
C46	C	1.479741	-0.019955	0.500032
C47	C	0.981574	-0.415651	0.000039
C48	C	1.481574	0.084349	0.500039
C49	C	0.983041	-0.332517	0.000045
C50	C	1.483041	0.167483	0.500045
C51	C	0.984873	-0.228207	0.000050
C52	C	1.484873	0.271793	0.500050
C53	C	1.134307	0.119136	0.000054
C54	C	1.634307	0.619136	0.500054
C55	C	1.226606	0.120928	0.000053
C56	C	1.726606	0.620928	0.500053
C57	C	0.976494	0.294526	0.000036
C58	C	1.476494	0.794526	0.500036
C59	C	0.978287	0.396903	0.000030
C60	C	1.478287	0.896903	0.500030
N61	N	0.982306	0.125911	0.228221
N62	N	1.482306	0.625911	0.728221
N63	N	0.982327	0.125911	-0.228128
N64	N	1.482327	0.625911	0.271872
C65	C	1.038754	0.063219	0.453951
C66	C	1.538754	0.563219	0.953951
C67	C	1.038756	0.063217	0.546141
C68	C	1.538756	0.563217	1.046141
C69	C	0.925873	0.188606	0.546136
C70	C	1.425873	0.688606	1.046136
C71	C	0.925867	0.188603	0.453948
C72	C	1.425867	0.688603	0.953948
C73	C	0.982312	0.125911	0.407858
C74	C	1.482312	0.625911	0.907858
C75	C	0.982321	0.125912	0.592236
C76	C	1.482321	0.625912	1.092236
C77	C	0.982323	0.125910	0.692192
C78	C	1.482323	0.625910	1.192192
C79	C	0.982309	0.125911	0.307895
C80	C	1.482309	0.625911	0.807895
H81	H	0.543214	0.279879	0.000036
H82	H	1.043214	0.779879	0.500036
H83	H	0.421405	-0.028048	0.000064
H84	H	0.921405	0.471952	0.500064
H85	H	1.084714	0.012170	0.416427
H86	H	1.584714	0.512170	0.916427
H87	H	0.385892	0.276810	0.000044
H88	H	0.885892	0.776810	0.500044
O89	O	0.587222	-0.037971	0.000089
O90	O	1.087222	0.462029	0.500089
C91	C	0.729504	-0.109829	0.000038
C92	C	1.229504	0.390171	0.500038
C93	C	0.670989	-0.018362	0.000013
C94	C	1.170989	0.481638	0.500013
H95	H	0.797241	-0.094007	-0.000042
H96	H	1.297241	0.405993	0.499958
H97	H	0.717347	-0.151610	0.061345
H98	H	1.217347	0.348390	0.561345
H99	H	0.717235	-0.151590	-0.061239
H100	H	1.217235	0.348410	0.438761
H101	H	0.683224	0.023473	0.061248
H102	H	1.183224	0.523473	0.561248
H103	H	0.683159	0.023349	-0.061335
H104	H	1.183159	0.523349	0.438665
O105	O	1.093666	0.002286	0.590779
O106	O	1.593666	0.502286	1.090779
C107	C	1.205598	-0.122118	0.581048
C108	C	1.705598	0.377882	1.081048
C109	C	1.143470	-0.053144	0.530387
C110	C	1.643470	0.446856	1.030387
H111	H	1.245869	-0.166964	0.532244
H112	H	1.745869	0.333036	1.032244
H113	H	1.247247	-0.082335	0.624179
H114	H	1.747247	0.417665	1.124179
H115	H	1.169624	-0.168161	0.624238
H116	H	1.669624	0.331839	1.124238
H117	H	1.179376	-0.007083	0.487150
H118	H	1.679376	0.492917	0.987150
H119	H	1.101822	-0.092984	0.487312
H120	H	1.601822	0.407016	0.987312
H121	H	0.879918	0.239650	0.583672
H122	H	1.379918	0.739650	1.083672
O123	O	0.871006	0.249595	0.409304
O124	O	1.371006	0.749595	0.909304
C125	C	0.759008	0.373927	0.419020
C126	C	1.259008	0.873927	0.919020
C127	C	0.821104	0.304926	0.469689
C128	C	1.321104	0.804926	0.969689
H129	H	0.718634	0.418666	0.467819
H130	H	1.218634	0.918666	0.967819
H131	H	0.794923	0.420070	0.375874
H132	H	1.294923	0.920070	0.875874
H133	H	0.717454	0.334073	0.375845
H134	H	1.217454	0.834073	0.875845
H135	H	0.862673	0.344703	0.512911
H136	H	1.362673	0.844703	1.012911
H137	H	0.785137	0.258783	0.512779
H138	H	1.285137	0.758783	1.012779
