data_functionalizedCrystal
_audit_creation_method	'MofGen! by Chris Wilmer'
_symmetry_space_group_name_H-M	'P1'
_symmetry_Int_Tables_number	1
_symmetry_cell_setting	triclinic
loop_
_symmetry_equiv_pos_as_xyz
  x,y,z
_cell_length_a	22.863218
_cell_length_b	22.862586
_cell_length_c	22.858745
_cell_angle_alpha	60.006856
_cell_angle_beta	60.013818
_cell_angle_gamma	59.991795
loop_
_atom_site_label
_atom_site_type_symbol
_atom_site_fract_x
_atom_site_fract_y
_atom_site_fract_z
O1	O	0.081006	-0.854581	0.714630
O2	O	0.030492	-0.665350	0.575795
O3	O	0.150314	-0.785089	0.575706
O4	O	-0.038816	-0.734841	0.714718
O5	O	0.190066	-0.745348	0.615369
O6	O	0.070244	-0.625609	0.615458
O7	O	0.120758	-0.814840	0.754293
Zn8	Zn	0.101812	-0.713914	0.691173
Zn9	Zn	0.049438	-0.766275	0.638915
O10	O	0.000936	-0.695100	0.754381
N11	N	0.137558	-0.678184	0.726840
N12	N	0.013698	-0.802011	0.603247
C13	C	0.187224	-0.518558	0.776483
C14	C	0.187235	-0.628552	0.776467
C15	C	0.214753	-0.601061	0.803961
C16	C	0.334724	-0.580392	0.740801
C17	C	0.409718	-0.605392	0.715784
C18	C	0.409746	-0.726732	0.762051
C19	C	0.334754	-0.701730	0.787070
C20	C	0.205297	-0.481049	0.702756
C21	C	0.180267	-0.406048	0.677779
C22	C	0.119099	-0.406071	0.800259
C23	C	0.144128	-0.481071	0.825236
C24	C	0.113501	-0.610437	0.794610
C25	C	0.088492	-0.635428	0.769607
C26	C	0.210943	-0.696652	0.708337
C27	C	0.235956	-0.671660	0.733331
C28	C	0.113585	-0.610461	0.923980
C29	C	0.088635	-0.635476	0.998978
C30	C	0.211128	-0.696714	0.998930
C31	C	0.236077	-0.671700	0.923930
C32	C	0.187303	-0.628571	0.886457
C33	C	0.297246	-0.628559	0.776441
C34	C	-0.117796	-0.823430	0.581283
C35	C	-0.007671	-0.823587	0.471446
C36	C	-0.007879	-0.933535	0.581483
C37	C	-0.007861	-0.823583	0.581554
C38	C	-0.035301	-0.851035	0.553942
N39	N	0.446162	-0.678198	0.726752
O40	O	0.691234	-0.690164	0.550341
O41	O	0.691462	-0.829422	0.739388
O42	O	0.691373	-0.829102	0.619485
O43	O	0.691323	-0.690484	0.670244
O44	O	0.572233	-0.789455	0.659278
O45	O	0.572322	-0.789775	0.779181
O46	O	0.572094	-0.650517	0.590134
Zn47	Zn	0.553292	-0.713851	0.690976
Zn48	Zn	0.710264	-0.766088	0.638547
O49	O	0.572183	-0.650837	0.710037
N50	N	0.817394	-0.801741	0.602763
N51	N	0.137538	-0.369628	0.726874
O52	O	-0.038795	-0.124419	0.714761
O53	O	0.150256	-0.124417	0.575522
O54	O	0.030331	-0.124432	0.575860
O55	O	0.081131	-0.124404	0.714423
O56	O	0.070086	-0.243584	0.615573
O57	O	0.190011	-0.243569	0.615236
O58	O	0.000960	-0.243571	0.754474
Zn59	Zn	0.101797	-0.262488	0.691160
Zn60	Zn	0.049419	-0.105500	0.638836
O61	O	0.120885	-0.243556	0.754137
N62	N	0.013669	0.001640	0.603123
N63	N	0.137749	-0.678230	1.035381
O64	O	0.125655	-0.854547	1.280566
O65	O	-0.013567	-0.665426	1.280590
O66	O	-0.013245	-0.785328	1.280537
O67	O	0.125333	-0.734644	1.280618
O68	O	0.026456	-0.745599	1.161392
O69	O	0.026134	-0.625697	1.161444
O70	O	0.165355	-0.814817	1.161420
Zn71	Zn	0.102048	-0.713949	1.142516
Zn72	Zn	0.049740	-0.766294	1.299495
O73	O	0.165033	-0.694915	1.161473
N74	N	0.014038	-0.802020	1.406629
C75	C	0.045634	-0.621635	0.576499
C76	C	0.194019	-0.769918	0.576389
C77	C	0.105616	-0.858555	0.753588
C78	C	-0.042769	-0.710272	0.753698
C79	C	0.631920	-0.828776	0.783102
C80	C	0.631811	-0.828380	0.634616
C81	C	0.631633	-0.651162	0.546422
C82	C	0.631745	-0.651559	0.694907
C83	C	0.193900	-0.183846	0.576155
C84	C	0.045437	-0.184012	0.576622
C85	C	-0.042734	-0.183994	0.753792
C86	C	0.105780	-0.183977	0.753375
C87	C	-0.012889	-0.621735	1.221020
C88	C	-0.012483	-0.770211	1.220931
C89	C	0.164678	-0.858508	1.220991
C90	C	0.164280	-0.710023	1.221052
H91	H	0.028603	-0.620718	1.029520
O92	O	0.258824	-0.782575	0.524282
C93	C	0.364058	-0.747874	0.446003
C94	C	0.290673	-0.733452	0.504999
H95	H	0.389836	-0.708177	0.430405
H96	H	0.356585	-0.741371	0.397110
H97	H	0.400105	-0.804794	0.466855
H98	H	0.254588	-0.676535	0.484214
H99	H	0.298200	-0.740002	0.553880
O100	O	0.118882	-0.184013	0.805245
C101	C	0.204013	-0.183981	0.837986
C102	C	0.189273	-0.183951	0.779184
H103	H	0.260918	-0.183916	0.816933
H104	H	0.197680	-0.233861	0.886879
H105	H	0.164325	-0.134132	0.853668
H106	H	0.228948	-0.233766	0.763442
H107	H	0.195581	-0.134038	0.730329
O108	O	0.631864	-0.880423	0.621770
C109	C	0.631926	-1.001141	0.668624
C110	C	0.631884	-0.942272	0.683261
H111	H	0.631926	-1.051155	0.718334
H112	H	0.681772	-1.014551	0.621734
H113	H	0.582052	-0.981273	0.654977
H114	H	0.681723	-0.962092	0.696939
H115	H	0.582004	-0.928871	0.730130
H116	H	0.631977	-0.872492	0.837399
O117	O	0.216849	-0.923308	1.221078
C118	C	0.295156	-1.028491	1.282828
C119	C	0.236087	-0.955113	1.282810
H120	H	0.310716	-1.054233	1.332740
H121	H	0.344046	-1.021006	1.233009
H122	H	0.274396	-1.064581	1.282767
H123	H	0.256780	-0.918984	1.282896
H124	H	0.187207	-0.962652	1.332624
O125	O	-0.064491	-0.783009	1.220874
C126	C	-0.185147	-0.736063	1.220709
C127	C	-0.126317	-0.721479	1.220790
H128	H	-0.235142	-0.686321	1.220626
H129	H	-0.198603	-0.782929	1.270555
H130	H	-0.165224	-0.749726	1.170831
H131	H	-0.146192	-0.707786	1.270635
H132	H	-0.112870	-0.674633	1.170911
H133	H	0.207816	-0.699179	1.221068
H134	H	0.304191	-0.520811	0.732143
H135	H	-0.097027	-0.183996	0.797505
O136	O	0.258599	-0.183546	0.523962
C137	C	0.386140	-0.244710	0.488918
C138	C	0.312916	-0.245129	0.548090
H139	H	0.430073	-0.294502	0.508398
H140	H	0.396403	-0.194767	0.475549
H141	H	0.386144	-0.244573	0.438975
H142	H	0.312858	-0.245292	0.598070
H143	H	0.302682	-0.295068	0.561398
O144	O	-0.107544	-0.697630	0.805847
C145	C	-0.181029	-0.744771	0.926629
C146	C	-0.107647	-0.759190	0.867628
H147	H	-0.181132	-0.794527	0.976598
H148	H	-0.224783	-0.731206	0.906937
H149	H	-0.191484	-0.697878	0.940044
H150	H	-0.097123	-0.806091	0.854187
H151	H	-0.063933	-0.772713	0.887351
O152	O	-0.064949	-0.556878	1.220931
C153	C	-0.099567	-0.429430	1.159205
C154	C	-0.040543	-0.502832	1.159226
H155	H	-0.079862	-0.385716	1.109315
H156	H	-0.113088	-0.418885	1.209046
H157	H	-0.149473	-0.429357	1.159219
H158	H	0.009400	-0.502959	1.159186
H159	H	-0.027084	-0.513348	1.109389
H160	H	0.073862	-0.575336	0.893474
H161	H	0.034845	-0.567275	0.532897
O162	O	0.118589	-0.923454	0.805520
C163	C	0.203607	-1.041385	0.838495
C164	C	0.189005	-0.967927	0.779614
H165	H	0.260541	-1.077357	0.817577
H166	H	0.163955	-1.067246	0.854156
H167	H	0.197144	-1.033914	0.887369
H168	H	0.195477	-0.975335	0.730702
H169	H	0.228653	-0.942090	0.764014
H170	H	0.296108	-0.686456	0.893383
O171	O	0.258605	-0.738615	1.035214
C172	C	0.382738	-0.796658	1.027240
C173	C	0.329047	-0.749215	0.986059
H174	H	0.439702	-0.805231	0.987516
H175	H	0.374185	-0.850641	1.062326
H176	H	0.374069	-0.769181	1.062373
H177	H	0.337684	-0.776628	0.950886
H178	H	0.337614	-0.695234	0.951018
H179	H	0.631558	-0.607440	0.492131
O180	O	0.631694	-0.599675	0.707989
C181	C	0.631788	-0.566922	0.793085
C182	C	0.631829	-0.625738	0.778370
H183	H	0.631912	-0.587977	0.849982
H184	H	0.581880	-0.518040	0.786766
H185	H	0.681599	-0.551219	0.753373
H186	H	0.582051	-0.641501	0.818069
H187	H	0.681770	-0.674581	0.784665
O188	O	0.032367	-0.184073	0.524784
C189	C	-0.052768	-0.184092	0.492038
C190	C	-0.038061	-0.184025	0.550808
H191	H	-0.109713	-0.184038	0.513052
H192	H	-0.013147	-0.233981	0.476404
H193	H	-0.046344	-0.134251	0.443124
H194	H	-0.044495	-0.233833	0.599761
H195	H	-0.077680	-0.134104	0.566381
H196	H	0.073825	-0.575337	0.829731
H197	H	0.250621	-0.731757	0.673222
O198	O	0.016861	-0.617925	0.787351
C199	C	-0.095420	-0.623638	0.882465
C200	C	-0.014307	-0.643517	0.862469
H201	H	-0.120645	-0.644306	0.943199
H202	H	-0.104963	-0.648929	0.857241
H203	H	-0.120708	-0.562908	0.861754
H204	H	0.011035	-0.704236	0.883177
H205	H	-0.004815	-0.618175	0.887684
O206	O	0.307604	-0.689327	0.715651
C207	C	0.426427	-0.752604	0.652157
C208	C	0.345306	-0.732676	0.672150
H209	H	0.456932	-0.787642	0.616971
H210	H	0.441292	-0.783190	0.702998
H211	H	0.441110	-0.701681	0.621659
H212	H	0.330565	-0.783561	0.702630
H213	H	0.330485	-0.702062	0.621283
H214	H	0.440287	-0.786313	0.770693
O215	O	0.298456	-0.748615	0.821647
C216	C	0.306402	-0.871613	0.864930
C217	C	0.347597	-0.818592	0.825744
H218	H	0.346114	-0.928202	0.868268
H219	H	0.271285	-0.856607	0.834279
H220	H	0.271300	-0.869282	0.921305
H221	H	0.382737	-0.820895	0.769369
H222	H	0.382668	-0.833615	0.856450
O223	O	0.446093	-0.558557	0.681053
C224	C	0.468947	-0.454571	0.579996
C225	C	0.427720	-0.507574	0.619249
H226	H	0.454097	-0.413329	0.530028
H227	H	0.528998	-0.484965	0.563883
H228	H	0.454228	-0.426151	0.617054
H229	H	0.442379	-0.536009	0.582231
H230	H	0.367679	-0.477141	0.635373
O231	O	0.247050	-0.517434	0.655375
C232	C	0.256585	-0.540334	0.558326
C233	C	0.209219	-0.499096	0.611960
H234	H	0.226023	-0.525511	0.523202
H235	H	0.271355	-0.600390	0.588808
H236	H	0.307470	-0.525591	0.523230
H237	H	0.158304	-0.513779	0.647070
H238	H	0.194506	-0.439050	0.581434
O239	O	0.077225	-0.369763	0.847712
C240	C	0.019252	-0.377697	0.971833
C241	C	0.066666	-0.418903	0.918171
H242	H	0.010713	-0.417409	1.028810
H243	H	-0.034742	-0.342608	0.963274
H244	H	0.046727	-0.342561	0.963134
H245	H	0.039254	-0.454078	0.926838
H246	H	0.120658	-0.453947	0.926743
H247	H	0.194981	-0.375507	0.617742
H248	H	0.129402	-0.511613	0.885274
