data_functionalizedCrystal
_audit_creation_method	'MofGen! by Chris Wilmer'
_symmetry_space_group_name_H-M	'P1'
_symmetry_Int_Tables_number	1
_symmetry_cell_setting	triclinic
loop_
_symmetry_equiv_pos_as_xyz
  x,y,z
_cell_length_a	23.096457
_cell_length_b	23.096457
_cell_length_c	16.704492
_cell_angle_alpha	116.572838
_cell_angle_beta	90.000977
_cell_angle_gamma	60.000612
loop_
_atom_site_label
_atom_site_type_symbol
_atom_site_fract_x
_atom_site_fract_y
_atom_site_fract_z
Zr1	Zr	0.561499	0.626308	0.100192
O2	O	0.473578	0.738044	0.222075
O3	O	0.588450	0.508295	0.062830
O4	O	0.594364	0.617258	0.222083
O5	O	0.463001	0.638409	-0.062802
O6	O	0.689644	0.617259	0.222088
O7	O	0.467664	0.629081	0.062821
O8	O	0.679065	0.422345	-0.062787
O9	O	0.473580	0.833323	0.222073
O10	O	0.671053	0.559161	0.046897
O11	O	0.596467	0.566121	-0.046858
O12	O	0.603430	0.694411	0.140642
O13	O	0.528843	0.701371	0.046887
Zr14	Zr	0.706024	0.641186	-0.100156
Zr15	Zr	0.713461	0.626310	0.100199
Zr16	Zr	0.554063	0.641184	-0.100164
Zr17	Zr	0.561503	0.778267	0.100189
Zr18	Zr	0.706021	0.489227	-0.100153
O19	O	0.679074	0.759199	-0.062794
O20	O	0.689647	0.738047	0.222085
O21	O	0.463004	0.759196	-0.062805
O22	O	0.793946	0.529451	-0.222039
O23	O	0.804520	0.508298	0.062840
O24	O	0.577876	0.529448	-0.222050
O25	O	0.804522	0.629085	0.062838
O26	O	0.673160	0.650237	-0.222048
O27	O	0.577879	0.650235	-0.222052
O28	O	0.799860	0.638413	-0.062786
O29	O	0.594369	0.833325	0.222079
O30	O	0.673155	0.434170	-0.222043
O31	O	0.793944	0.434171	-0.222037
O32	O	0.799855	0.422346	-0.062782
O33	O	0.467669	0.845148	0.062817
O34	O	0.588458	0.845150	0.062823
O35	O	0.664094	0.573083	-0.140606
O36	O	0.738680	0.566123	-0.046851
O37	O	0.671057	0.701373	0.046894
O38	O	0.596470	0.708333	-0.046861
C39	C	0.633757	0.443669	0.000022
C40	C	0.633756	0.379158	0.000023
C41	C	0.583852	-0.034012	0.069222
C42	C	0.583846	0.026607	0.069222
C43	C	0.633767	0.009568	0.000018
C44	C	0.683687	-0.068097	-0.069204
C45	C	0.683688	-0.128713	-0.069206
N46	N	0.695237	0.067227	-0.020933
N47	N	0.695234	0.124813	-0.020924
C48	C	0.633768	0.192198	0.000022
N49	N	0.572302	0.199830	0.020977
N50	N	0.572305	0.142240	0.020973
C51	C	0.633772	0.075291	0.000013
C52	C	0.583841	0.335583	0.069235
C53	C	0.583835	0.396201	0.069228
C54	C	0.683682	0.301495	-0.069194
C55	C	0.683683	0.240879	-0.069191
C56	C	0.633763	0.257928	0.000028
C57	C	0.443681	0.633745	0.000009
C58	C	0.379169	0.633744	0.000005
C59	C	0.384163	0.563146	-0.048920
C60	C	0.323547	0.563145	-0.048924
C61	C	0.257939	0.633745	0.000016
C62	C	0.252948	0.704352	0.048943
C63	C	0.313563	0.704351	0.048938
N64	N	0.138101	0.683087	0.079663
N65	N	0.080522	0.683082	0.079666
C66	C	0.075307	0.633751	0.000032
N67	N	0.129853	0.584412	-0.079604
N68	N	0.187439	0.584413	-0.079605
C69	C	0.192208	0.633753	0.000026
C70	C	0.014577	0.563148	-0.048902
C71	C	-0.046042	0.563150	-0.048908
C72	C	-0.116640	0.704358	0.048967
C73	C	-0.056022	0.704354	0.048965
C74	C	0.009584	0.633747	0.000032
C75	C	0.823842	0.633750	0.000027
C76	C	0.888354	0.633751	0.000030
C77	C	0.643064	0.615139	0.250632
C78	C	0.646220	0.608823	0.335688
C79	C	0.633766	0.823825	0.000014
C80	C	0.633768	0.888336	0.000013
C81	C	0.581558	0.738169	0.593397
C82	C	0.584523	0.732239	0.673318
C83	C	0.655118	0.591033	0.575451
C84	C	0.652153	0.596963	0.495530
C85	C	0.615371	0.670534	0.504508
C86	C	0.612403	0.676463	0.424586
C87	C	0.683002	0.535258	0.326721
C88	C	0.685967	0.529328	0.406641
C89	C	0.624459	0.652356	0.749404
C90	C	0.621300	0.658673	0.664349
C91	C	0.823838	0.443671	0.000031
C92	C	0.888348	0.379161	0.000035
C93	C	0.624455	0.462277	-0.250592
C94	C	0.621297	0.404082	-0.335647
C95	C	0.814536	0.462280	-0.250583
C96	C	0.875889	0.404085	-0.335635
C97	C	0.452988	0.805215	0.250619
C98	C	0.391634	0.863409	0.335670
C99	C	0.443686	0.823823	0.000005
C100	C	0.379176	0.888333	0.000000
C101	C	0.643068	0.805217	0.250628
C102	C	0.646227	0.863412	0.335683
C103	C	0.883342	0.345232	0.048981
C104	C	0.943951	0.284625	0.049004
C105	C	1.009565	0.257945	0.000075
C106	C	1.014569	0.291880	-0.048873
C107	C	0.953961	0.352490	-0.048889
C108	C	0.655114	0.380388	-0.424534
C109	C	0.652143	0.325716	-0.504459
C110	C	0.615359	0.294735	-0.495496
C111	C	0.581538	0.318435	-0.406600
C112	C	0.584505	0.373110	-0.326677
C113	C	0.943641	0.373123	-0.326637
C114	C	1.001295	0.318451	-0.406544
C115	C	0.991195	0.294738	-0.495449
C116	C	0.923437	0.325706	-0.504445
C117	C	0.865784	0.380381	-0.424538
C118	C	0.323883	0.894378	0.326672
C119	C	0.266229	0.949069	0.406580
C120	C	0.276328	0.972785	0.495484
C121	C	0.344087	0.941814	0.504480
C122	C	0.401739	0.887128	0.424574
C123	C	0.384182	0.922268	-0.048937
C124	C	0.323574	0.982890	-0.048938
C125	C	0.257960	1.009572	-0.000006
C126	C	0.252955	0.975634	0.048938
C127	C	0.313563	0.915017	0.048943
C128	C	0.683017	0.894376	0.326690
C129	C	0.685998	0.949049	0.406600
C130	C	0.652185	0.972762	0.495502
C131	C	0.615393	0.941793	0.504494
C132	C	0.612417	0.887116	0.424584
H133	H	0.543193	0.349466	0.125596
H134	H	1.058910	0.208591	0.000095
O135	O	0.725677	0.982448	0.396887
H136	H	0.767980	0.968274	0.430934
H137	H	-0.170058	0.761842	0.088815
H138	H	0.715916	0.469429	0.399345
H139	H	0.551589	0.293203	-0.399316
O140	O	0.572734	0.853720	0.434287
H141	H	0.530444	0.867881	0.400218
H142	H	0.327613	0.505655	-0.088765
H143	H	0.810619	0.405583	-0.431878
H144	H	0.556969	0.392394	-0.254304
H145	H	0.829922	0.366953	0.088837
H146	H	0.437602	0.900549	-0.088790
O147	O	1.074379	0.285048	-0.396853
H148	H	1.081993	0.254536	-0.358064
O149	O	0.182190	0.780501	0.101739
H150	H	0.140878	0.768640	0.093535
O151	O	0.308153	0.878415	0.101722
H152	H	0.335991	0.886031	0.155825
H153	H	0.309492	0.761842	0.088776
H154	H	0.327662	1.010513	-0.088798
H155	H	0.543202	-0.020123	0.125583
O156	O	0.085341	0.486999	-0.101687
H157	H	0.078628	0.437907	-0.135724
O158	O	-0.040659	0.487002	-0.101673
H159	H	0.015146	0.437907	-0.135686
H160	H	0.685067	0.405606	-0.431849
O161	O	-0.061401	0.780498	0.101749
H162	H	-0.117205	0.829591	0.135788
H163	H	0.951878	0.392422	-0.254253
O164	O	0.572735	0.755810	0.434260
H165	H	0.549727	0.801843	0.509501
H166	H	0.939863	0.257002	0.088863
O167	O	0.548058	0.805187	0.769194
H168	H	0.508473	0.805865	0.807954
O169	O	0.530000	0.479960	0.143886
H170	H	0.495296	0.481626	0.192021
H171	H	0.229378	1.017314	0.560542
H172	H	1.038146	0.250217	-0.560506
O173	O	0.312981	0.868809	0.230787
H174	H	0.256179	0.899546	0.237970
H175	H	0.587864	0.961108	0.576888
H176	H	0.211062	0.974277	0.399237
O177	O	1.085340	0.263095	-0.101654
H178	H	1.126637	0.215242	-0.093424
H179	H	0.352302	0.961131	0.576876
H180	H	0.724325	0.287621	-0.125545
O181	O	0.182182	1.004419	0.101707
H182	H	0.188874	0.970645	0.135748
O183	O	0.959363	0.389073	-0.101700
H184	H	1.015172	0.360326	-0.135727
O185	O	0.688637	0.300147	-0.600333
H186	H	0.714725	0.330864	-0.593130
H187	H	0.915224	0.306390	-0.576842
H188	H	0.724332	-0.081966	-0.125551
O189	O	0.474815	0.853716	0.434283
H190	H	0.472145	0.879392	0.509531
O191	O	0.737537	0.157122	-0.143827
H192	H	0.732373	0.148764	-0.213608
H193	H	0.208615	1.058931	-0.000019
H194	H	0.551601	0.798073	0.600709
O195	O	0.694789	0.511686	0.565775
H196	H	0.691166	0.518930	0.636285
O197	O	0.737537	-0.212474	-0.143845
H198	H	0.772255	-0.214143	-0.191964
H199	H	0.710552	0.875078	0.254308
O200	O	0.530012	0.110371	0.143883
H201	H	0.476956	0.124171	0.140498
O202	O	0.454923	0.486995	-0.101699
H203	H	0.448208	0.437904	-0.135725
O204	O	0.719486	0.462301	0.230845
H205	H	0.711252	0.478781	0.176777
O206	O	0.612175	0.235751	-0.581703
H207	H	0.641882	0.224474	-0.645014
O208	O	0.655387	1.031745	0.581689
H209	H	0.686645	1.049296	0.560490
