data_functionalizedCrystal
_audit_creation_method	'MofGen! by Chris Wilmer'
_symmetry_space_group_name_H-M	'P1'
_symmetry_Int_Tables_number	1
_symmetry_cell_setting	triclinic
loop_
_symmetry_equiv_pos_as_xyz
  x,y,z
_cell_length_a	13.032831
_cell_length_b	16.959454
_cell_length_c	13.032268
_cell_angle_alpha	97.150351
_cell_angle_beta	90.886977
_cell_angle_gamma	82.825094
loop_
_atom_site_label
_atom_site_type_symbol
_atom_site_fract_x
_atom_site_fract_y
_atom_site_fract_z
Zn1	Zn	1.498450	-0.533808	-0.780847
Zn2	Zn	1.520186	-0.651576	-0.608869
Zn3	Zn	1.348310	-0.500789	-0.587087
Zn4	Zn	1.326434	-0.647302	-0.758994
O5	O	1.423345	-0.583369	-0.683949
O6	O	1.645253	-0.565038	-0.776295
O7	O	1.515638	-0.619543	-0.462063
O8	O	1.368285	-0.394566	-0.612819
O9	O	1.661222	-0.651561	-0.649944
O10	O	1.478592	-0.418826	-0.755173
O11	O	1.389361	-0.508760	-0.446059
O12	O	1.201488	-0.504616	-0.591629
O13	O	1.331000	-0.644277	-0.905810
O14	O	1.185416	-0.612259	-0.717929
O15	O	1.457380	-0.560894	-0.921865
O16	O	1.494425	-0.761611	-0.628754
O17	O	1.352077	-0.758471	-0.739051
C18	C	1.156135	-0.554392	-0.650045
C19	C	1.041819	-0.542016	-0.635565
C20	C	0.982940	-0.589828	-0.691506
C21	C	0.864788	-0.577038	-0.676542
C22	C	1.423261	-0.788724	-0.683921
C23	C	1.423315	-0.876589	-0.683955
C24	C	1.349320	-1.246472	-0.741386
C25	C	1.497643	-1.249702	-0.626654
C26	C	1.497608	-1.167152	-0.626640
C27	C	1.423427	-1.124257	-0.683998
C28	C	1.349281	-1.163913	-0.741371
C29	C	1.571746	-1.127488	-0.569260
C30	C	1.571713	-1.044932	-0.569243
C31	C	1.497536	-1.002037	-0.626608
C32	C	1.423388	-1.041698	-0.683984
C33	C	1.349208	-0.998804	-0.741342
C34	C	1.275063	-1.038465	-0.798724
C35	C	1.275104	-1.121018	-0.798736
C36	C	1.497495	-0.919484	-0.626597
C37	C	1.349169	-0.916245	-0.741327
C38	C	1.691598	-0.612460	-0.717986
C39	C	1.805911	-0.624856	-0.732491
C40	C	1.389325	-0.605792	-0.952197
C41	C	1.374828	-0.615348	-1.066508
C42	C	1.423454	-0.377216	-0.684004
C43	C	1.423501	-0.289366	-0.684027
C44	C	1.430895	-0.578351	-1.125415
C45	C	1.415913	-0.588227	-1.243562
C46	C	1.457291	-0.560982	-0.416753
C47	C	1.471987	-0.551225	-0.302467
H48	H	0.827729	-0.526630	-0.617570
H49	H	1.288956	-1.278768	-0.788108
H50	H	0.842968	-0.675257	-0.791474
N51	N	1.577633	-1.295959	-0.564773
H52	H	1.566402	-1.354273	-0.573481
H53	H	1.649033	-1.290795	-0.590147
H54	H	1.632133	-1.162417	-0.522554
H55	H	1.632086	-1.012646	-0.522521
H56	H	1.288765	-0.881326	-0.788040
H57	H	1.020003	-0.640227	-0.750482
N58	N	1.195047	-0.992195	-0.860577
H59	H	1.206274	-0.933880	-0.851851
H60	H	1.201681	-1.014463	-0.936070
H61	H	1.214739	-1.153317	-0.845452
H62	H	1.489984	-0.539364	-1.088380
N63	N	0.992739	-0.475255	-0.557440
H64	H	0.915293	-0.475585	-0.557820
H65	H	1.020768	-0.483349	-0.486320
N66	N	1.577448	-0.876704	-0.564707
H67	H	1.624443	-0.916404	-0.528368
H68	H	1.619684	-0.851077	-0.612634
H69	H	1.531079	-0.512233	-1.265438
N70	N	1.337616	-0.639858	-1.292598
H71	H	1.338005	-0.639589	-1.370046
H72	H	1.355940	-0.696490	-1.275897
N73	N	1.296535	-0.666976	-1.115549
H74	H	1.296925	-0.666707	-1.192997
H75	H	1.314859	-0.723609	-1.098847
