data_functionalizedCrystal
_audit_creation_method	'MofGen! by Chris Wilmer'
_symmetry_space_group_name_H-M	'P1'
_symmetry_Int_Tables_number	1
_symmetry_cell_setting	triclinic
loop_
_symmetry_equiv_pos_as_xyz
  x,y,z
_cell_length_a	9.065218
_cell_length_b	16.992695
_cell_length_c	7.540329
_cell_angle_alpha	89.996072
_cell_angle_beta	89.996962
_cell_angle_gamma	87.842054
loop_
_atom_site_label
_atom_site_type_symbol
_atom_site_fract_x
_atom_site_fract_y
_atom_site_fract_z
O1	O	1.971074	0.115065	-0.147490
O2	O	1.542664	0.124504	-0.147492
O3	O	1.755152	0.005630	-0.147477
O4	O	1.758586	0.233939	-0.147505
O5	O	1.755138	0.005628	0.147488
O6	O	1.542651	0.124502	0.147473
O7	O	1.971060	0.115064	0.147476
Cu8	Cu	1.756854	0.119783	0.174407
Cu9	Cu	1.756870	0.119785	-0.174424
O10	O	1.758573	0.233938	0.147460
C11	C	1.487587	0.123596	-0.000010
C12	C	1.323492	0.120884	-0.000011
C13	C	1.750726	-0.023615	0.000005
C14	C	1.737542	-0.110753	0.000005
C15	C	1.864748	-0.160090	0.000008
C16	C	1.852352	-0.241964	-0.000009
C17	C	1.712748	-0.274500	-0.000016
C18	C	1.585533	-0.225157	-0.000024
C19	C	1.597931	-0.143284	-0.000020
C20	C	1.661364	-0.518463	-0.000041
C21	C	1.648976	-0.600343	-0.000040
C22	C	1.915797	-0.617144	-0.000028
C23	C	1.928182	-0.535269	-0.000013
C24	C	1.800967	-0.485933	-0.000031
N25	N	1.700074	-0.358189	-0.000028
N26	N	1.813642	-0.402245	-0.000032
C27	C	2.026138	0.115972	-0.000011
C28	C	2.190232	0.118684	-0.000022
C29	C	1.762998	0.263183	-0.000026
C30	C	1.776182	0.350320	-0.000037
N31	N	1.756853	0.119781	0.419755
N32	N	1.756882	0.119780	-0.419772
H33	H	1.978428	-0.133606	0.000024
H34	H	1.535289	-0.626830	-0.000017
C35	C	1.521433	-0.464204	-0.000029
H36	H	1.436518	-0.495310	-0.000009
H37	H	1.520713	-0.431909	-0.102884
H38	H	1.520723	-0.431923	0.102850
C39	C	1.431969	-0.260941	-0.000046
H40	H	1.357985	-0.219829	-0.000066
H41	H	1.421571	-0.292535	0.102810
H42	H	1.421601	-0.292524	-0.102924
C43	C	1.992279	-0.296232	0.000012
H44	H	2.077196	-0.265129	0.000042
H45	H	1.993009	-0.328518	-0.102849
H46	H	1.992972	-0.328522	0.102886
C47	C	2.081746	-0.499485	-0.000029
H48	H	2.155732	-0.540595	-0.000048
H49	H	2.092130	-0.467897	0.102828
H50	H	2.092123	-0.467895	-0.102906
C51	C	2.055720	-0.671415	-0.000035
H52	H	2.028348	-0.724836	-0.000055
H53	H	2.112569	-0.661455	0.102822
H54	H	2.112561	-0.661442	-0.102913
C55	C	1.458004	-0.089013	-0.000018
H56	H	1.373085	-0.120115	-0.000008
H57	H	1.457302	-0.056722	-0.102878
H58	H	1.457289	-0.056729	0.102856
