data_functionalizedCrystal
_audit_creation_method	'MofGen! by Chris Wilmer'
_symmetry_space_group_name_H-M	'P1'
_symmetry_Int_Tables_number	1
_symmetry_cell_setting	triclinic
loop_
_symmetry_equiv_pos_as_xyz
  x,y,z
_cell_length_a	12.827893
_cell_length_b	12.645330
_cell_length_c	12.827885
_cell_angle_alpha	89.971022
_cell_angle_beta	89.980728
_cell_angle_gamma	90.017853
loop_
_atom_site_label
_atom_site_type_symbol
_atom_site_fract_x
_atom_site_fract_y
_atom_site_fract_z
Zn1	Zn	1.597653	-0.421983	-0.590855
Zn2	Zn	2.097653	0.078017	-0.090855
Zn3	Zn	1.597540	-0.599284	-0.416117
Zn4	Zn	2.097540	-0.099284	0.083883
Zn5	Zn	1.422894	-0.422036	-0.416128
Zn6	Zn	1.922894	0.077964	0.083872
Zn7	Zn	1.422873	-0.599206	-0.590817
Zn8	Zn	1.922873	-0.099206	-0.090817
O9	O	1.510240	-0.510627	-0.503479
O10	O	2.010240	-0.010627	-0.003479
O11	O	1.743874	-0.445514	-0.567686
O12	O	2.243874	0.054486	-0.067686
O13	O	1.574335	-0.575826	-0.269883
O14	O	2.074335	-0.075826	0.230117
O15	O	1.446133	-0.273681	-0.439326
O16	O	1.946133	0.226319	0.060674
O17	O	1.743791	-0.575776	-0.439308
O18	O	2.243791	-0.075776	0.060692
O19	O	1.574527	-0.273643	-0.567697
O20	O	2.074527	0.226357	-0.067697
O21	O	1.446023	-0.445603	-0.269891
O22	O	1.946023	0.054397	0.230109
O23	O	1.276655	-0.445527	-0.439290
O24	O	1.776655	0.054473	0.060710
O25	O	1.446096	-0.575642	-0.737058
O26	O	1.946096	-0.075642	-0.237058
O27	O	1.276639	-0.575693	-0.567633
O28	O	1.776639	-0.075693	-0.067633
O29	O	1.574506	-0.445438	-0.737086
O30	O	2.074506	0.054562	-0.237086
O31	O	1.574314	-0.747621	-0.439271
O32	O	2.074314	-0.247621	0.060729
O33	O	1.445986	-0.747564	-0.567623
O34	O	1.945986	-0.247564	-0.067623
C35	C	1.238730	-0.510608	-0.503459
C36	C	1.738730	-0.010608	-0.003459
C37	C	1.122577	-0.510625	-0.503476
C38	C	1.622577	-0.010625	-0.003476
C39	C	1.070833	-0.446281	-0.567101
C40	C	1.570833	0.053719	-0.067101
C41	C	0.950783	-0.446298	-0.567119
C42	C	1.450783	0.053702	-0.067119
C43	C	1.510164	-0.786057	-0.503465
C44	C	2.010164	-0.286057	-0.003465
C45	C	1.510227	-0.903887	-0.503493
C46	C	2.010227	-0.403887	-0.003493
C47	C	1.429829	-1.071459	-0.584488
C48	C	1.929829	-0.571459	-0.084488
C49	C	1.429418	-0.948900	-0.584228
C50	C	1.929418	-0.448900	-0.084228
C51	C	1.480414	-0.948489	-0.393362
C52	C	1.980414	-0.448489	0.106638
C53	C	1.479923	-1.071088	-0.393854
C54	C	1.979923	-0.571088	0.106146
C55	C	1.620929	-1.070974	-0.531736
C56	C	2.120929	-0.570974	-0.031736
C57	C	1.620251	-0.948367	-0.534144
C58	C	2.120251	-0.448367	-0.034144
C59	C	1.782810	-0.510648	-0.503500
C60	C	2.282810	-0.010648	-0.003500
C61	C	1.898963	-0.510656	-0.503509
C62	C	2.398963	-0.010656	-0.003509
C63	C	1.510311	-0.510525	-0.776050
C64	C	2.010311	-0.010525	-0.276050
C65	C	1.510341	-0.510482	-0.892203
C66	C	2.010341	-0.010482	-0.392203
C67	C	1.510345	-0.234122	-0.503517
C68	C	2.010345	0.265878	-0.003517
C69	C	1.510390	-0.116292	-0.503533
C70	C	2.010390	0.383708	-0.003533
C71	C	1.446853	-0.574839	-1.064018
C72	C	1.946853	-0.074839	-0.564018
C73	C	1.446820	-0.574885	-0.943968
C74	C	1.946820	-0.074885	-0.443968
C75	C	1.510229	-0.510652	-0.231969
C76	C	2.010229	-0.010652	0.268031
C77	C	1.510401	-0.510397	-0.115817
C78	C	2.010401	-0.010397	0.384183
H79	H	0.943455	-0.565752	-0.449040
H80	H	1.443455	-0.065752	0.050960
Br81	Br	1.145120	-0.354435	-0.657868
Br82	Br	1.645120	0.145565	-0.157868
H83	H	1.642733	-0.919210	-0.615195
H84	H	2.142733	-0.419210	-0.115195
H85	H	1.648124	-1.101812	-0.610678
H86	H	2.148124	-0.601812	-0.110678
Br87	Br	1.601040	-0.418527	-0.966434
Br88	Br	2.101040	0.081473	-0.466434
H89	H	1.564778	-0.455255	-1.071286
H90	H	2.064778	0.044745	-0.571286
Br91	Br	1.356143	-0.666856	-0.869731
Br92	Br	1.856143	-0.166856	-0.369731
Br93	Br	1.356200	-0.666736	-1.138228
Br94	Br	1.856200	-0.166736	-0.638228
H95	H	0.906284	-0.391214	-0.621594
H96	H	1.406284	0.108786	-0.121594
H97	H	1.347469	-0.919666	-0.565543
H98	H	1.847469	-0.419666	-0.065543
Br99	Br	1.048290	-0.602457	-0.412694
Br100	Br	1.548290	-0.102457	0.087306
H101	H	1.537231	-0.919335	-0.331396
H102	H	2.037231	-0.419335	0.168604
Br103	Br	1.460624	-1.120472	-0.721049
Br104	Br	1.960624	-0.620472	-0.221049
Br105	Br	1.294098	-1.122992	-0.553773
Br106	Br	1.794098	-0.622992	-0.053773
Br107	Br	1.345245	-1.118918	-0.354030
Br108	Br	1.845245	-0.618918	0.145970
Br109	Br	1.573465	-1.120532	-0.289886
Br110	Br	2.073465	-0.620532	0.210114
Br111	Br	1.460503	-0.898625	-0.720336
Br112	Br	1.960503	-0.398625	-0.220336
H113	H	1.400452	-0.917880	-0.369038
H114	H	1.900452	-0.417880	0.130962
Br115	Br	1.725568	-0.897279	-0.443034
Br116	Br	2.225568	-0.397279	0.056966
Br117	Br	1.720972	-1.119317	-0.433479
Br118	Br	2.220972	-0.619317	0.066521
