data_functionalizedCrystal
_audit_creation_method	'MofGen! by Chris Wilmer'
_symmetry_space_group_name_H-M	'P1'
_symmetry_Int_Tables_number	1
_symmetry_cell_setting	triclinic
loop_
_symmetry_equiv_pos_as_xyz
  x,y,z
_cell_length_a	12.811457
_cell_length_b	11.892095
_cell_length_c	12.837942
_cell_angle_alpha	94.302569
_cell_angle_beta	89.411937
_cell_angle_gamma	91.498327
loop_
_atom_site_label
_atom_site_type_symbol
_atom_site_fract_x
_atom_site_fract_y
_atom_site_fract_z
O1	O	1.403418	0.049870	0.143175
O2	O	1.903418	0.549870	0.643175
O3	O	1.101350	0.018901	0.156192
O4	O	1.601350	0.518901	0.656192
O5	O	1.245685	0.033706	-0.001296
O6	O	1.745685	0.533706	0.498704
O7	O	1.259082	0.035066	0.300663
O8	O	1.759082	0.535066	0.800663
O9	O	1.233649	0.220479	0.011815
O10	O	1.733649	0.720479	0.511815
O11	O	1.089313	0.205674	0.169303
O12	O	1.589313	0.705674	0.669303
O13	O	1.391381	0.236643	0.156286
O14	O	1.891381	0.736643	0.656286
Zn15	Zn	1.238436	0.250813	0.164876
Zn16	Zn	1.738436	0.750813	0.664876
Zn17	Zn	1.254295	0.004732	0.147602
Zn18	Zn	1.754295	0.504732	0.647602
O19	O	1.247046	0.221838	0.313774
O20	O	1.747046	0.721838	0.813774
C21	C	1.056400	0.108296	0.161616
C22	C	1.556400	0.608296	0.661616
C23	C	0.940394	0.096403	0.158233
C24	C	1.440394	0.596403	0.658233
C25	C	0.709282	0.277697	0.166152
C26	C	1.209282	0.777697	0.666152
C27	C	0.600284	0.266528	0.162973
C28	C	1.100284	0.766528	0.662973
C29	C	0.613398	0.062897	0.148690
C30	C	1.113398	0.562897	0.648690
C31	C	0.722396	0.074066	0.151869
C32	C	1.222396	0.574066	0.651869
C33	C	0.770334	0.181470	0.160601
C34	C	1.270334	0.681470	0.660601
C35	C	0.879334	0.192638	0.163787
C36	C	1.379334	0.692638	0.663787
C37	C	0.892446	-0.010992	0.149497
C38	C	1.392446	0.489008	0.649497
C39	C	0.783448	-0.022161	0.146318
C40	C	1.283448	0.477839	0.646318
C41	C	1.235142	0.126628	-0.033413
C42	C	1.735142	0.626628	0.466587
C43	C	1.221645	0.125242	-0.148646
C44	C	1.721645	0.625242	0.351354
C45	C	1.436332	0.147246	0.150862
C46	C	1.936332	0.647246	0.650862
C47	C	1.552338	0.159132	0.154244
C48	C	2.052338	0.659132	0.654244
N49	N	1.227621	0.418758	0.176664
N50	N	1.727621	0.918758	0.676664
N51	N	1.265118	-0.163212	0.135806
N52	N	1.765118	0.336788	0.635806
C53	C	1.340371	0.666970	0.053718
C54	C	1.840371	1.166970	0.553718
C55	C	1.332819	0.784538	0.061965
C56	C	1.832819	1.284538	0.561965
C57	C	1.204961	0.771461	0.201401
C58	C	1.704961	1.271461	0.701401
C59	C	1.212513	0.653894	0.193154
C60	C	1.712513	1.153894	0.693154
C61	C	1.280221	0.601653	0.119311
C62	C	1.780221	1.101653	0.619311
C63	C	1.287778	0.484084	0.111069
C64	C	1.787778	0.984084	0.611069
C65	C	1.159914	0.471009	0.250499
C66	C	1.659914	0.971009	0.750499
C67	C	1.152363	0.588576	0.258747
C68	C	1.652363	1.088576	0.758747
C69	C	1.383903	0.141854	-0.387735
C70	C	1.883903	0.641854	0.112265
C71	C	1.371227	0.140552	-0.496007
C72	C	1.871227	0.640552	0.003993
C73	C	1.183617	0.121330	-0.473465
C74	C	1.683617	0.621330	0.026535
C75	C	1.196293	0.122631	-0.365193
C76	C	1.696293	0.622631	0.134807
C77	C	1.296440	0.132895	-0.322332
C78	C	1.796440	0.632895	0.177668
C79	C	1.309115	0.134205	-0.214057
C80	C	1.809115	0.634205	0.285943
C81	C	1.121506	0.114974	-0.191518
C82	C	1.621506	0.614974	0.308482
C83	C	1.108830	0.113673	-0.299790
C84	C	1.608830	0.613673	0.200210
C85	C	1.257590	0.128914	0.345891
C86	C	1.757590	0.628914	0.845891
C87	C	1.271087	0.130292	0.461124
C88	C	1.771087	0.630292	0.961124
H89	H	0.550579	0.344887	0.167498
H90	H	1.050579	0.844887	0.667498
N91	N	1.491911	0.152943	-0.341499
N92	N	1.991911	0.652943	0.158501
H93	H	1.505820	0.084681	-0.301929
H94	H	2.005820	0.584681	0.198071
H95	H	1.496804	0.223191	-0.292275
H96	H	1.996804	0.723191	0.207725
H97	H	1.442450	0.147844	-0.549255
H98	H	1.942450	0.647844	-0.049255
H99	H	1.050286	0.107688	-0.138254
H100	H	1.550286	0.607688	0.361746
H101	H	0.748313	0.365149	0.173275
H102	H	1.248313	0.865149	0.673275
N103	N	0.931043	0.308473	0.173213
N104	N	1.431043	0.808473	0.673213
H105	H	0.875823	0.367737	0.176244
H106	H	1.375823	0.867737	0.676244
H107	H	0.978056	0.317754	0.110646
H108	H	1.478056	0.817754	0.610646
H109	H	0.574348	-0.024546	0.141563
H110	H	1.074348	0.475454	0.641563
N111	N	1.360792	0.427751	0.031408
N112	N	1.860792	0.927751	0.531408
H113	H	1.319490	0.374433	-0.018441
H114	H	1.819490	0.874433	0.481559
H115	H	1.414049	0.384159	0.068260
H116	H	1.914049	0.884159	0.568260
H117	H	1.102083	0.112961	-0.508383
H118	H	1.602083	0.612961	-0.008383
H119	H	0.942166	-0.089348	0.144984
H120	H	1.442166	0.410652	0.644984
H121	H	1.097233	0.631124	0.318866
H122	H	1.597233	1.131124	0.818866
N123	N	1.095030	0.400570	0.321258
N124	N	1.595030	0.900570	0.821258
H125	H	1.142590	0.356339	0.364270
H126	H	1.642590	0.856339	0.864270
H127	H	1.048040	0.346727	0.277559
H128	H	1.548040	0.846727	0.777559
N129	N	0.731741	-0.137998	0.136891
N130	N	1.231741	0.362002	0.636891
H131	H	0.653427	-0.130474	0.135716
H132	H	1.153427	0.369526	0.635716
H133	H	0.751581	-0.180718	0.198527
H134	H	1.251581	0.319282	0.698527
H135	H	1.027293	0.105312	-0.334703
H136	H	1.527293	0.605312	0.165297
H137	H	1.395509	0.624436	-0.006402
H138	H	1.895509	1.124436	0.493598
N139	N	1.397704	0.854991	-0.008772
N140	N	1.897704	1.354991	0.491228
H141	H	1.441743	0.804053	-0.056796
H142	H	1.941743	1.304053	0.443204
H143	H	1.444630	0.908883	0.034948
H144	H	1.944630	1.408883	0.534948
H145	H	1.149827	0.814010	0.261516
H146	H	1.649827	1.314010	0.761516
H147	H	1.390659	0.142567	-0.179162
H148	H	1.890659	0.642567	0.320838
