data_functionalizedCrystal
_audit_creation_method	'MofGen! by Chris Wilmer'
_symmetry_space_group_name_H-M	'P1'
_symmetry_Int_Tables_number	1
_symmetry_cell_setting	triclinic
loop_
_symmetry_equiv_pos_as_xyz
  x,y,z
_cell_length_a	10.723024
_cell_length_b	10.654550
_cell_length_c	9.130313
_cell_angle_alpha	90.004369
_cell_angle_beta	89.997687
_cell_angle_gamma	95.523600
loop_
_atom_site_label
_atom_site_type_symbol
_atom_site_fract_x
_atom_site_fract_y
_atom_site_fract_z
O1	O	1.657213	-0.176149	-0.121759
O2	O	2.157213	0.323851	0.378241
O3	O	1.294063	-0.193010	-0.121770
O4	O	1.794063	0.306990	0.378230
O5	O	1.483988	-0.001839	-0.121755
O6	O	1.983988	0.498161	0.378245
O7	O	1.467289	-0.367320	-0.121774
O8	O	1.967289	0.132680	0.378226
O9	O	1.483974	-0.001834	0.121844
O10	O	1.983974	0.498166	0.621844
O11	O	1.294050	-0.193004	0.121828
O12	O	1.794050	0.306996	0.621828
O13	O	1.657200	-0.176144	0.121840
O14	O	2.157200	0.323856	0.621840
Cu15	Cu	1.475624	-0.184574	0.144077
Cu16	Cu	1.975624	0.315426	0.644077
Cu17	Cu	1.475639	-0.184580	-0.144007
Cu18	Cu	1.975639	0.315420	0.355993
O19	O	1.467275	-0.367315	0.121825
O20	O	1.967275	0.132685	0.621825
C21	C	1.247557	-0.191780	0.000028
C22	C	1.747557	0.308220	0.500028
C23	C	1.109002	-0.188109	0.000023
C24	C	1.609002	0.311891	0.500023
C25	C	1.482755	0.044961	0.000043
C26	C	1.982755	0.544961	0.500043
C27	C	1.479086	0.184404	0.000041
C28	C	1.979086	0.684404	0.500041
C29	C	1.703706	-0.177373	0.000039
C30	C	2.203706	0.322627	0.500039
C31	C	1.842261	-0.181045	0.000034
C32	C	2.342261	0.318955	0.500034
C33	C	1.917228	-0.074075	0.000037
C34	C	2.417228	0.425925	0.500037
C35	C	2.060432	-0.077867	0.000031
C36	C	2.560432	0.422133	0.500031
C37	C	1.468508	-0.414115	0.000023
C38	C	1.968508	0.085885	0.500023
C39	C	1.472176	-0.553558	0.000016
C40	C	1.972176	-0.053558	0.500016
N41	N	1.475622	-0.184568	0.346699
N42	N	1.975622	0.315432	0.846699
C43	C	1.590911	0.263907	0.000044
C44	C	2.090911	0.763907	0.500044
C45	C	1.587457	0.394927	0.000026
C46	C	2.087457	0.894927	0.500026
C47	C	1.360343	0.366929	0.000008
C48	C	1.860343	0.866929	0.500008
C49	C	1.363799	0.235912	0.000016
C50	C	1.863799	0.735912	0.500016
N51	N	1.475651	-0.184576	-0.346630
N52	N	1.975651	0.315424	0.153370
C53	C	1.559749	-0.099954	0.423358
C54	C	2.059749	0.400046	0.923358
C55	C	1.559761	-0.099954	0.576695
C56	C	2.059761	0.400046	1.076695
C57	C	1.391515	-0.269194	0.576701
C58	C	1.891515	0.230806	1.076701
C59	C	1.391498	-0.269187	0.423367
C60	C	1.891498	0.230813	0.923367
H61	H	1.875392	0.020312	0.000067
H62	H	2.375392	0.520312	0.500067
H63	H	1.628246	-0.031050	0.360939
H64	H	2.128246	0.468950	0.860939
H65	H	1.678516	0.459653	0.000026
H66	H	2.178516	0.959653	0.500026
H67	H	1.628263	-0.031052	0.639106
H68	H	2.128263	0.468948	1.139106
H69	H	2.124851	0.013707	0.000025
H70	H	2.624851	0.513707	0.500025
Cl71	Cl	1.285768	-0.375572	0.673089
Cl72	Cl	1.785768	0.124428	1.173089
Cl73	Cl	1.285724	-0.375562	0.326986
Cl74	Cl	1.785724	0.124438	0.826986
H75	H	1.272732	0.171177	0.000009
H76	H	1.772732	0.671177	0.500009
Cl77	Cl	2.009558	-0.329506	0.000007
Cl78	Cl	2.509558	0.170494	0.500007
H79	H	1.684785	0.221974	0.000062
H80	H	2.184785	0.721974	0.500062
H81	H	1.884097	-0.275432	0.000035
H82	H	2.384097	0.224568	0.500035
H83	H	1.266480	0.408883	-0.000010
H84	H	1.766480	0.908883	0.499990
