data_functionalizedCrystal
_audit_creation_method	'MofGen! by Chris Wilmer'
_symmetry_space_group_name_H-M	'P1'
_symmetry_Int_Tables_number	1
_symmetry_cell_setting	triclinic
loop_
_symmetry_equiv_pos_as_xyz
  x,y,z
_cell_length_a	12.827893
_cell_length_b	13.031981
_cell_length_c	12.827885
_cell_angle_alpha	82.783254
_cell_angle_beta	89.980919
_cell_angle_gamma	97.191823
loop_
_atom_site_label
_atom_site_type_symbol
_atom_site_fract_x
_atom_site_fract_y
_atom_site_fract_z
Zn1	Zn	1.544847	-0.416067	-0.537943
Zn2	Zn	2.044847	0.083933	-0.037943
Zn3	Zn	1.522547	-0.590879	-0.340977
Zn4	Zn	2.022547	-0.090879	0.159023
Zn5	Zn	1.370082	-0.416117	-0.363211
Zn6	Zn	1.870082	0.083883	0.136789
Zn7	Zn	1.347890	-0.590801	-0.515687
Zn8	Zn	1.847890	-0.090801	-0.015687
O9	O	1.446341	-0.503466	-0.439454
O10	O	1.946341	-0.003466	0.060546
O11	O	1.688123	-0.439267	-0.511824
O12	O	2.188123	0.060733	-0.011824
O13	O	1.502277	-0.567750	-0.197683
O14	O	2.002277	-0.067750	0.302317
O15	O	1.411885	-0.269845	-0.405008
O16	O	1.911885	0.230155	0.094992
O17	O	1.671740	-0.567701	-0.367114
O18	O	2.171740	-0.067701	0.132886
O19	O	1.540284	-0.269808	-0.533383
O20	O	2.040284	0.230192	-0.033383
O21	O	1.390262	-0.439354	-0.214018
O22	O	1.890262	0.060646	0.285982
O23	O	1.220903	-0.439278	-0.383428
O24	O	1.720903	0.060722	0.116572
O25	O	1.374061	-0.567568	-0.664882
O26	O	1.874061	-0.067568	-0.164882
O27	O	1.204599	-0.567618	-0.495452
O28	O	1.704599	-0.067618	0.004548
O29	O	1.518765	-0.439192	-0.681234
O30	O	2.018765	0.060808	-0.181234
O31	O	1.480758	-0.737134	-0.345533
O32	O	1.980758	-0.237134	0.154467
O33	O	1.352438	-0.737077	-0.473892
O34	O	1.852438	-0.237077	0.026108
C35	C	1.174834	-0.503446	-0.439438
C36	C	1.674834	-0.003446	0.060562
C37	C	1.058679	-0.503462	-0.439452
C38	C	1.558679	-0.003462	0.060548
C39	C	0.998800	-0.566918	-0.367773
C40	C	1.498800	-0.066918	0.132227
C41	C	0.878747	-0.566936	-0.367787
C42	C	1.378747	-0.066936	0.132213
C43	C	1.411799	-0.775030	-0.404908
C44	C	1.911799	-0.275030	0.095092
C45	C	1.397117	-0.891207	-0.390164
C46	C	1.897117	-0.391207	0.109836
C47	C	1.454059	-0.942900	-0.447170
C48	C	1.954059	-0.442900	0.052830
C49	C	1.438886	-1.062974	-0.431933
C50	C	1.938886	-0.562974	0.068067
C51	C	1.718909	-0.503487	-0.439471
C52	C	2.218909	-0.003487	0.060529
C53	C	1.835061	-0.503496	-0.439479
C54	C	2.335061	-0.003496	0.060521
C55	C	1.446425	-0.503366	-0.712037
C56	C	1.946425	-0.003366	-0.212037
C57	C	1.446461	-0.503323	-0.828196
C58	C	1.946461	-0.003323	-0.328196
C59	C	1.481047	-0.230841	-0.474158
C60	C	1.981047	0.269159	0.025842
C61	C	1.495837	-0.114665	-0.488947
C62	C	1.995837	0.385335	0.011053
C63	C	1.518073	-0.439786	-0.888073
C64	C	2.018073	0.060214	-0.388073
C65	C	1.518112	-0.439740	-1.008130
C66	C	2.018112	0.060260	-0.508130
C67	C	1.446327	-0.503491	-0.167941
C68	C	1.946327	-0.003491	0.332059
C69	C	1.446532	-0.503239	-0.051821
C70	C	1.946532	-0.003239	0.448179
H71	H	0.886518	-0.449162	-0.500845
H72	H	1.386518	0.050838	-0.000845
H73	H	1.036413	-0.621234	-0.306399
H74	H	1.536413	-0.121234	0.193601
N75	N	1.317659	-0.950317	-0.310567
N76	N	1.817659	-0.450317	0.189433
H77	H	1.263523	-0.995623	-0.347282
H78	H	1.763523	-0.495623	0.152718
H79	H	1.354555	-0.995551	-0.256493
H80	H	1.854555	-0.495551	0.243507
H81	H	1.021065	-0.449153	-0.500832
H82	H	1.521065	0.050847	-0.000832
N83	N	0.810590	-0.638894	-0.286486
N84	N	1.310590	-0.138894	0.213514
H85	H	0.734490	-0.628705	-0.298017
H86	H	1.234490	-0.128705	0.201983
H87	H	0.820128	-0.713578	-0.293105
H88	H	1.320128	-0.213578	0.206895
H89	H	1.579351	-0.385419	-0.850456
H90	H	2.079351	0.114581	-0.350456
H91	H	1.514040	-0.898264	-0.507261
H92	H	2.014040	-0.398264	-0.007261
H93	H	1.555821	-1.070032	-0.549042
H94	H	2.055821	-0.570032	-0.049042
H95	H	1.378894	-1.107608	-0.371848
H96	H	1.878894	-0.607608	0.128152
H97	H	1.579425	-0.385347	-1.059591
H98	H	2.079425	0.114653	-0.559591
N99	N	1.365304	-0.575306	-0.983682
N100	N	1.865304	-0.075306	-0.483682
H101	H	1.401632	-0.623727	-0.932235
H102	H	1.901632	-0.123727	-0.432235
H103	H	1.322336	-0.532729	-0.943874
H104	H	1.822336	-0.032729	-0.443874
N105	N	1.365287	-0.575331	-0.878026
N106	N	1.865287	-0.075331	-0.378026
H107	H	1.371982	-0.650040	-0.849583
H108	H	1.871982	-0.150040	-0.349583
H109	H	1.292702	-0.559028	-0.861136
H110	H	1.792702	-0.059028	-0.361136
