data_functionalizedCrystal
_audit_creation_method	'MofGen! by Chris Wilmer'
_symmetry_space_group_name_H-M	'P1'
_symmetry_Int_Tables_number	1
_symmetry_cell_setting	triclinic
loop_
_symmetry_equiv_pos_as_xyz
  x,y,z
_cell_length_a	17.699083
_cell_length_b	16.109301
_cell_length_c	14.586319
_cell_angle_alpha	90.000787
_cell_angle_beta	89.995320
_cell_angle_gamma	96.627752
loop_
_atom_site_label
_atom_site_type_symbol
_atom_site_fract_x
_atom_site_fract_y
_atom_site_fract_z
O1	O	0.097285	-1.102963	-0.076184
O2	O	0.109391	-0.860880	-0.076199
O3	O	-0.006841	-0.988761	-0.076183
O4	O	0.213517	-0.975082	-0.076200
O5	O	-0.006843	-0.988752	0.076298
O6	O	0.109390	-0.860872	0.076282
O7	O	0.097283	-1.102954	0.076297
Cu8	Cu	0.103336	-0.981912	0.090212
Cu9	Cu	0.103338	-0.981923	-0.090114
O10	O	0.213516	-0.975074	0.076281
C11	C	0.108900	-0.829902	0.000040
C12	C	0.107430	-0.737609	0.000034
C13	C	-0.035040	-0.988267	0.000057
C14	C	-0.119060	-0.986796	0.000058
C15	C	0.097774	-1.133933	0.000056
C16	C	0.099244	-1.226226	0.000055
C17	C	-0.167574	-1.061860	0.000064
C18	C	-0.246519	-1.060473	0.000055
C19	C	-0.276949	-0.984022	0.000048
C20	C	-0.228429	-0.908953	0.000039
C21	C	-0.149485	-0.910341	0.000041
C22	C	-0.546800	-0.903356	0.000031
C23	C	-0.625750	-0.901974	0.000033
C24	C	-0.643834	-1.053488	0.000046
C25	C	-0.564890	-1.054876	0.000048
C26	C	-0.516377	-0.979807	0.000034
C27	C	-0.430776	-0.981312	0.000041
C28	C	-0.362549	-0.982517	0.000047
C29	C	0.241714	-0.975568	0.000038
C30	C	0.325734	-0.977039	0.000032
N31	N	0.103334	-0.981911	0.217044
C32	C	0.172981	-0.515224	0.000040
C33	C	0.171594	-0.428506	0.000046
C34	C	0.033688	-0.448618	0.000053
C35	C	0.035076	-0.535334	0.000053
C36	C	0.104725	-0.568635	0.000042
C37	C	0.101949	-0.395200	0.000047
C38	C	0.100445	-0.301177	0.000054
C39	C	0.106230	-0.662664	0.000037
N40	N	0.103334	-0.981931	-0.216946
C41	C	0.051884	-1.038555	0.452057
C42	C	0.051882	-1.038558	0.548038
C43	C	0.154787	-0.925280	0.548034
C44	C	0.154785	-0.925274	0.452054
C45	C	0.103334	-0.981917	0.404068
C46	C	0.103334	-0.981925	0.596029
C47	C	0.103333	-0.981927	0.700096
C48	C	0.103334	-0.981914	0.299995
H49	H	-0.142805	-1.124115	0.000075
H50	H	-0.286017	-1.121597	0.000062
H51	H	0.227175	-0.385022	0.000046
H52	H	-0.023018	-0.421494	0.000067
H53	H	-0.540119	-1.117130	0.000058
N54	N	0.248103	-0.551134	0.000039
H55	H	0.251751	-0.586665	0.056563
H56	H	0.251714	-0.586622	-0.056524
H57	H	-0.507310	-0.842230	0.000021
H58	H	-0.020510	-0.578824	0.000058
H59	H	0.009988	-1.084675	0.412989
H60	H	0.009985	-1.084677	0.587108
H61	H	0.196679	-0.879165	0.587113
H62	H	-0.683343	-1.114613	0.000052
N63	N	0.210274	-0.864176	0.400287
H64	H	0.242871	-0.828297	0.445248
H65	H	0.243742	-0.895930	0.360452
H66	H	-0.650523	-0.839715	0.000028
H67	H	-0.109986	-0.849216	0.000036
N68	N	-0.261245	-0.826493	0.000025
H69	H	-0.318618	-0.837003	0.000028
H70	H	-0.243499	-0.793650	0.056549
