data_functionalizedCrystal
_audit_creation_method	'MofGen! by Chris Wilmer'
_symmetry_space_group_name_H-M	'P1'
_symmetry_Int_Tables_number	1
_symmetry_cell_setting	triclinic
loop_
_symmetry_equiv_pos_as_xyz
  x,y,z
_cell_length_a	25.639242
_cell_length_b	25.639239
_cell_length_c	16.625539
_cell_angle_alpha	89.968745
_cell_angle_beta	89.970645
_cell_angle_gamma	90.034213
loop_
_atom_site_label
_atom_site_type_symbol
_atom_site_fract_x
_atom_site_fract_y
_atom_site_fract_z
Zn1	Zn	0.799262	-0.208212	-0.456082
Zn2	Zn	0.799175	-0.295650	-0.321242
Zn3	Zn	0.711828	-0.208224	-0.321242
Zn4	Zn	0.711784	-0.295612	-0.456011
O5	O	0.755512	-0.251924	-0.388644
O6	O	0.872416	-0.219822	-0.438225
O7	O	0.787570	-0.284074	-0.208409
O8	O	0.723481	-0.135057	-0.339158
O9	O	0.872351	-0.284063	-0.339158
O10	O	0.787719	-0.135048	-0.438224
O11	O	0.723396	-0.219842	-0.208409
O12	O	0.638657	-0.219805	-0.339089
O13	O	0.723406	-0.283997	-0.568853
O14	O	0.638624	-0.284008	-0.438104
O15	O	0.787676	-0.219785	-0.568905
O16	O	0.787527	-0.368810	-0.339090
O17	O	0.723321	-0.368782	-0.438104
C18	C	0.619669	-0.251904	-0.388589
C19	C	0.561555	-0.251908	-0.388585
C20	C	0.201184	-0.285411	-0.440152
C21	C	0.146580	-0.285414	-0.440165
O22	O	0.118337	-0.313875	-0.483963
N23	N	0.119273	-0.251939	-0.388697
C24	C	0.146573	-0.218454	-0.337218
O25	O	0.118332	-0.189981	-0.293442
C26	C	0.201176	-0.218449	-0.337210
C27	C	0.228481	-0.251930	-0.388676
C28	C	0.228489	-0.318889	-0.491614
C29	C	0.283089	-0.318887	-0.491600
C30	C	0.310386	-0.285406	-0.440124
C31	C	0.283081	-0.251928	-0.388662
C32	C	0.228475	-0.184962	-0.285736
C33	C	0.283082	-0.184959	-0.285733
C34	C	0.310387	-0.218440	-0.337199
C35	C	0.364978	-0.218444	-0.337172
N36	N	0.392285	-0.251919	-0.388640
C37	C	0.364989	-0.285400	-0.440116
C38	C	0.031902	-0.218468	-0.337240
C39	C	-0.022700	-0.218475	-0.337243
C40	C	-0.022689	-0.285435	-0.440191
C41	C	0.031914	-0.285429	-0.440183
C42	C	0.059209	-0.251943	-0.388708
C43	C	0.479654	-0.285393	-0.440082
C44	C	0.534259	-0.285388	-0.440061
C45	C	0.534244	-0.218427	-0.337117
C46	C	0.479643	-0.218433	-0.337134
C47	C	0.452349	-0.251917	-0.388624
O48	O	0.393256	-0.189997	-0.293399
O49	O	0.393236	-0.313864	-0.483892
C50	C	0.755424	-0.387767	-0.388607
C51	C	0.755434	-0.445881	-0.388618
C52	C	0.789031	-0.806246	-0.337175
C53	C	0.789051	-0.860850	-0.337186
O54	O	0.817526	-0.889089	-0.293407
N55	N	0.755604	-0.888163	-0.388698
C56	C	0.722138	-0.860869	-0.440207
O57	O	0.693690	-0.889115	-0.484024
C58	C	0.722120	-0.806266	-0.440200
C59	C	0.755566	-0.778956	-0.388679
C60	C	0.822475	-0.778936	-0.285659
C61	C	0.822454	-0.724335	-0.285648
C62	C	0.788989	-0.697045	-0.337152
C63	C	0.755545	-0.724355	-0.388668
C64	C	0.688657	-0.778973	-0.491714
C65	C	0.688643	-0.724366	-0.491702
C66	C	0.722089	-0.697056	-0.440182
C67	C	0.722059	-0.642464	-0.440160
N68	N	0.755507	-0.615151	-0.388649
C69	C	0.788972	-0.642442	-0.337145
C70	C	0.722177	-0.975540	-0.440220
C71	C	0.722191	-1.030142	-0.440224
C72	C	0.789106	-1.030120	-0.337203
C73	C	0.789089	-0.975516	-0.337196
C74	C	0.755625	-0.948227	-0.388708
C75	C	0.788925	-0.527777	-0.337124
C76	C	0.788899	-0.473171	-0.337114
C77	C	0.721987	-0.473199	-0.440137
C78	C	0.722010	-0.527799	-0.440144
C79	C	0.755483	-0.555087	-0.388635
O80	O	0.693601	-0.614191	-0.483920
O81	O	0.817419	-0.614189	-0.293343
C82	C	0.891885	-0.251945	-0.388699
C83	C	0.949999	-0.251954	-0.388723
C84	C	0.755546	-0.251885	-0.598953
C85	C	0.755560	-0.251869	-0.688574
C86	C	0.755615	-0.115551	-0.388699
C87	C	0.755658	-0.057437	-0.388722
C88	C	0.755585	-0.251810	-1.016750
C89	C	0.755576	-0.251828	-0.925442
C90	C	0.755573	-0.251840	-0.852665
C91	C	0.755564	-0.251857	-0.761351
C92	C	0.755508	-0.251925	-0.179153
C93	C	0.755595	-0.251795	-0.089533
H94	H	0.457411	-0.191171	-0.295225
H95	H	0.694738	-0.450970	-0.482069
N96	N	0.654457	-0.696483	-0.544310
N97	N	0.654439	-0.647731	-0.544296
H98	H	0.630295	-0.628039	-0.581448
N99	N	0.856623	-0.696451	-0.233016
N100	N	0.886498	-0.720833	-0.187040
H101	H	0.910633	-0.701143	-0.149867
N102	N	0.688029	-1.058043	-0.492844
N103	N	0.688048	-1.106796	-0.492856
H104	H	0.663922	-1.126500	-0.530023
N105	N	0.562121	-0.184225	-0.284531
N106	N	0.555994	-0.187622	-0.210120
H107	H	0.575682	-0.163462	-0.172984
H108	H	0.694777	-0.550036	-0.482099
H109	H	0.305303	-0.157687	-0.243820
H110	H	0.305316	-0.346150	-0.533511
N111	N	0.059803	-0.319634	-0.492746
N112	N	0.053676	-0.367875	-0.487259
H113	H	0.073370	-0.392034	-0.524383
H114	H	-0.044924	-0.312695	-0.482109
N115	N	0.059781	-0.184273	-0.284634
N116	N	0.090216	-0.202624	-0.233192
H117	H	0.109903	-0.178474	-0.196039
N118	N	0.687987	-0.947675	-0.492845
N119	N	0.658128	-0.972073	-0.538830
H120	H	0.633982	-0.952396	-0.575999
N121	N	-0.050578	-0.184271	-0.284666
N122	N	-0.044445	-0.136031	-0.290149
H123	H	-0.064131	-0.111871	-0.253017
N124	N	0.562141	-0.319597	-0.492636
N125	N	0.537759	-0.349487	-0.538592
H126	H	0.557448	-0.373646	-0.575722
H127	H	0.206253	-0.157699	-0.243825
N128	N	0.200620	-0.353093	-0.544210
N129	N	0.225016	-0.382978	-0.590151
H130	H	0.205338	-0.407139	-0.627298
N131	N	0.823066	-0.445284	-0.284475
N132	N	0.852942	-0.469661	-0.238495
H133	H	0.877072	-0.449967	-0.201319
N134	N	0.823119	-0.555637	-0.284502
N135	N	0.852972	-0.531238	-0.238511
H136	H	0.877119	-0.550913	-0.201342
H137	H	0.849729	-0.801150	-0.243718
H138	H	0.661419	-0.801199	-0.533663
H139	H	0.457438	-0.312658	-0.482012
H140	H	0.816357	-1.052349	-0.295268
N141	N	0.823255	-0.947630	-0.284562
N142	N	0.853127	-0.972010	-0.238579
H143	H	0.877259	-0.952318	-0.201404
