data_functionalizedCrystal
_audit_creation_method	'MofGen! by Chris Wilmer'
_symmetry_space_group_name_H-M	'P1'
_symmetry_Int_Tables_number	1
_symmetry_cell_setting	triclinic
loop_
_symmetry_equiv_pos_as_xyz
  x,y,z
_cell_length_a	18.050591
_cell_length_b	18.050589
_cell_length_c	18.050583
_cell_angle_alpha	90.031910
_cell_angle_beta	90.022021
_cell_angle_gamma	90.024227
loop_
_atom_site_label
_atom_site_type_symbol
_atom_site_fract_x
_atom_site_fract_y
_atom_site_fract_z
Zn1	Zn	1.135301	-0.295685	0.420054
Zn2	Zn	1.135209	-0.419898	0.295873
Zn3	Zn	1.011117	-0.295718	0.295865
Zn4	Zn	1.011068	-0.419829	0.420009
O5	O	1.073174	-0.357783	0.357950
O6	O	1.239213	-0.312178	0.403604
O7	O	1.118730	-0.403468	0.191948
O8	O	1.027650	-0.191789	0.312354
O9	O	1.239146	-0.403436	0.312369
O10	O	1.118887	-0.191765	0.403595
O11	O	1.027561	-0.312233	0.191942
O12	O	0.907186	-0.312166	0.312311
O13	O	1.027565	-0.403319	0.523940
O14	O	0.907150	-0.403350	0.403519
O15	O	1.118838	-0.312111	0.523973
O16	O	1.118682	-0.523814	0.312325
O17	O	1.027476	-0.523763	0.403527
C18	C	0.880222	-0.357755	0.357909
C19	C	0.797676	-0.357761	0.357909
C20	C	1.073084	-0.550735	0.357938
C21	C	1.073114	-0.633281	0.357958
C22	C	0.598223	-0.308118	0.308425
C23	C	0.548803	-0.375858	0.290154
C24	C	0.646545	-0.357784	0.357943
C25	C	0.548884	-0.290067	0.376212
C26	C	0.500560	-0.357799	0.357974
C27	C	0.598213	-0.425559	0.339637
C28	C	0.598297	-0.339723	0.425726
C29	C	0.548900	-0.407510	0.407481
C30	C	0.730644	-0.357774	0.357923
C31	C	0.416464	-0.357817	0.357994
C32	C	1.023565	-0.832731	0.407536
C33	C	1.005465	-0.882180	0.339767
C34	C	1.073187	-0.784411	0.357967
C35	C	1.091322	-0.882044	0.425744
C36	C	1.073256	-0.930396	0.357983
C37	C	1.055052	-0.832773	0.290162
C38	C	1.140940	-0.832632	0.376186
C39	C	1.122867	-0.882059	0.308370
C40	C	1.073145	-0.700313	0.357959
C41	C	1.073297	-1.014493	0.357983
C42	C	1.266879	-0.357811	0.357992
C43	C	1.349425	-0.357823	0.358010
C44	C	1.073207	-0.357703	0.551656
C45	C	1.073221	-0.357670	0.634202
C46	C	1.073284	-0.164077	0.357979
C47	C	1.073331	-0.081531	0.357991
C48	C	1.073184	-0.357808	0.164998
C49	C	1.073314	-0.357633	0.082453
C50	C	1.122905	-0.308047	0.833671
C51	C	1.055171	-0.289866	0.883057
C52	C	1.073250	-0.357657	0.785332
C53	C	1.141011	-0.375791	0.883028
C54	C	1.073285	-0.357643	0.931317
C55	C	1.005481	-0.339441	0.833631
C56	C	1.091367	-0.425397	0.833598
C57	C	1.023586	-0.407242	0.882962
C58	C	1.073231	-0.357663	0.701234
C59	C	1.073296	-0.357637	1.015414
H60	H	0.527065	-0.391146	0.232844
O61	O	0.929571	-0.319019	0.805022
H62	H	0.930161	-0.319155	0.743534
O63	O	1.111611	-0.910711	0.501659
H64	H	1.070302	-0.890953	0.542686
H65	H	1.164827	-0.266067	0.812025
H66	H	1.039674	-0.811219	0.232834
H67	H	0.619791	-0.482850	0.324134
O68	O	1.111683	-0.501262	0.804792
H69	H	1.071038	-0.542545	0.825399
H70	H	0.527379	-0.449566	0.449370
H71	H	0.981562	-0.449190	0.904469
H72	H	1.198192	-0.810855	0.391613
H73	H	0.620054	-0.324414	0.483019
H74	H	0.527176	-0.232801	0.391625
O75	O	0.967904	-0.804025	0.462981
H76	H	0.911733	-0.823869	0.447682
O77	O	0.929611	-0.911010	0.319350
H78	H	0.888489	-0.891258	0.360567
O79	O	0.626927	-0.252546	0.252902
H80	H	0.607105	-0.267727	0.196690
O81	O	1.216893	-0.396125	0.911775
H82	H	1.254811	-0.405744	0.864344
O83	O	1.178495	-0.910576	0.252797
H84	H	1.163296	-0.890736	0.196621
O85	O	1.034883	-0.213981	0.911843
H86	H	1.076165	-0.172902	0.892110
