data_functionalizedCrystal
_audit_creation_method	'MofGen! by Chris Wilmer'
_symmetry_space_group_name_H-M	'P1'
_symmetry_Int_Tables_number	1
_symmetry_cell_setting	triclinic
loop_
_symmetry_equiv_pos_as_xyz
  x,y,z
_cell_length_a	21.395364
_cell_length_b	19.805405
_cell_length_c	21.395355
_cell_angle_alpha	90.017223
_cell_angle_beta	90.024552
_cell_angle_gamma	90.041677
loop_
_atom_site_label
_atom_site_type_symbol
_atom_site_fract_x
_atom_site_fract_y
_atom_site_fract_z
Zn1	Zn	0.957877	-0.269272	0.354267
Zn2	Zn	1.207877	-0.019272	0.604267
Zn3	Zn	1.457877	0.230728	0.854267
Zn4	Zn	1.707877	0.480728	1.104267
Zn5	Zn	0.957786	-0.382441	0.249492
Zn6	Zn	1.207786	-0.132441	0.499492
Zn7	Zn	1.457786	0.117559	0.749492
Zn8	Zn	1.707786	0.367559	0.999492
Zn9	Zn	0.853092	-0.269301	0.249504
Zn10	Zn	1.103092	-0.019301	0.499504
Zn11	Zn	1.353092	0.230699	0.749504
Zn12	Zn	1.603092	0.480699	0.999504
Zn13	Zn	0.853068	-0.382453	0.354232
Zn14	Zn	1.103068	-0.132453	0.604232
Zn15	Zn	1.353068	0.117547	0.854232
Zn16	Zn	1.603068	0.367547	1.104232
O17	O	0.905456	-0.325867	0.301874
O18	O	1.155456	-0.075867	0.551874
O19	O	1.405456	0.174133	0.801874
O20	O	1.655456	0.424133	1.051874
O21	O	1.045542	-0.284266	0.340378
O22	O	1.295542	-0.034266	0.590378
O23	O	1.545542	0.215734	0.840378
O24	O	1.795542	0.465734	1.090378
O25	O	0.943870	-0.367440	0.161816
O26	O	1.193870	-0.117440	0.411816
O27	O	1.443870	0.132560	0.661816
O28	O	1.693870	0.382560	0.911816
O29	O	0.867039	-0.174581	0.263420
O30	O	1.117039	0.075419	0.513420
O31	O	1.367039	0.325419	0.763420
O32	O	1.617039	0.575419	1.013420
O33	O	1.045476	-0.367412	0.263400
O34	O	1.295476	-0.117412	0.513400
O35	O	1.545476	0.132588	0.763400
O36	O	1.795476	0.382588	1.013400
O37	O	0.944024	-0.174559	0.340390
O38	O	1.194024	0.075441	0.590390
O39	O	1.444024	0.325441	0.840390
O40	O	1.694024	0.575441	1.090390
O41	O	0.866952	-0.284317	0.161824
O42	O	1.116952	-0.034317	0.411824
O43	O	1.366952	0.215683	0.661824
O44	O	1.616952	0.465683	0.911824
O45	O	0.765411	-0.284329	0.263387
O46	O	1.015411	-0.034329	0.513387
O47	O	1.265411	0.215671	0.763387
O48	O	1.515411	0.465671	1.013387
O49	O	0.866999	-0.367432	0.441915
O50	O	1.116999	-0.117432	0.691915
O51	O	1.366999	0.132568	0.941915
O52	O	1.616999	0.382568	1.191915
O53	O	0.765393	-0.367461	0.340330
O54	O	1.015393	-0.117461	0.590330
O55	O	1.265393	0.132539	0.840330
O56	O	1.515393	0.382539	1.090330
O57	O	0.944001	-0.284278	0.441940
O58	O	1.194001	-0.034278	0.691940
O59	O	1.444001	0.215722	0.941940
O60	O	1.694001	0.465722	1.191940
O61	O	0.943848	-0.477160	0.263366
O62	O	1.193848	-0.227160	0.513366
O63	O	1.443848	0.022840	0.763366
O64	O	1.693848	0.272840	1.013366
O65	O	0.866911	-0.477168	0.340319
O66	O	1.116911	-0.227168	0.590319
O67	O	1.366911	0.022832	0.840319
O68	O	1.616911	0.272832	1.090319
C69	C	0.742668	-0.325900	0.301856
C70	C	0.992668	-0.075900	0.551856
C71	C	1.242668	0.174100	0.801856
C72	C	1.492668	0.424100	1.051856
C73	C	0.673027	-0.325930	0.301864
C74	C	0.923027	-0.075930	0.551864
C75	C	1.173027	0.174070	0.801864
C76	C	1.423027	0.424070	1.051864
C77	C	0.640370	-0.282707	0.342008
C78	C	0.890370	-0.032707	0.592008
C79	C	1.140370	0.217293	0.842008
C80	C	1.390370	0.467293	1.092008
C81	C	0.574935	-0.282689	0.342010
C82	C	0.824935	-0.032689	0.592010
C83	C	1.074935	0.217311	0.842010
C84	C	1.324935	0.467311	1.092010
C85	C	0.542158	-0.325906	0.301875
C86	C	0.792158	-0.075906	0.551875
C87	C	1.042158	0.174094	0.801875
C88	C	1.292158	0.424094	1.051875
C89	C	0.574823	-0.369132	0.261723
C90	C	0.824823	-0.119132	0.511723
C91	C	1.074823	0.130868	0.761723
C92	C	1.324823	0.380868	1.011723
C93	C	0.640257	-0.369144	0.261717
C94	C	0.890257	-0.119144	0.511717
C95	C	1.140257	0.130856	0.761717
C96	C	1.390257	0.380856	1.011717
C97	C	0.438438	-0.386861	0.296839
C98	C	0.688438	-0.136861	0.546839
C99	C	0.938438	0.113139	0.796839
C100	C	1.188438	0.363139	1.046839
C101	C	0.373005	-0.386850	0.296849
C102	C	0.623005	-0.136850	0.546849
C103	C	0.873005	0.113150	0.796849
C104	C	1.123005	0.363150	1.046849
C105	C	0.340338	-0.325869	0.301889
C106	C	0.590338	-0.075869	0.551889
C107	C	0.840338	0.174131	0.801889
C108	C	1.090338	0.424131	1.051889
C109	C	0.373111	-0.264897	0.306932
C110	C	0.623111	-0.014897	0.556932
C111	C	0.873111	0.235103	0.806932
C112	C	1.123111	0.485103	1.056932
C113	C	0.438545	-0.264909	0.306926
C114	C	0.688545	-0.014909	0.556926
C115	C	0.938545	0.235091	0.806926
C116	C	1.188545	0.485091	1.056926
C117	C	0.471206	-0.325898	0.301876
C118	C	0.721206	-0.075898	0.551876
C119	C	0.971206	0.174102	0.801876
C120	C	1.221206	0.424102	1.051876
C121	C	0.236729	-0.282623	0.342038
C122	C	0.486729	-0.032623	0.592038
C123	C	0.736729	0.217377	0.842038
C124	C	0.986729	0.467377	1.092038
C125	C	0.171292	-0.282604	0.342036
C126	C	0.421292	-0.032604	0.592036
C127	C	0.671292	0.217396	0.842036
C128	C	0.921292	0.467396	1.092036
C129	C	0.171181	-0.369053	0.261752
C130	C	0.421181	-0.119053	0.511752
C131	C	0.671181	0.130947	0.761752
C132	C	0.921181	0.380947	1.011752
C133	C	0.236616	-0.369066	0.261751
C134	C	0.486616	-0.119066	0.511751
C135	C	0.736616	0.130934	0.761751
C136	C	0.986616	0.380934	1.011751
C137	C	0.269386	-0.325852	0.301897
C138	C	0.519386	-0.075852	0.551897
C139	C	0.769386	0.174148	0.801897
C140	C	1.019386	0.424148	1.051897
C141	C	0.905384	-0.501723	0.301851
C142	C	1.155384	-0.251723	0.551851
C143	C	1.405384	-0.001723	0.801851
C144	C	1.655384	0.248277	1.051851
C145	C	0.905411	-0.576955	0.301862
C146	C	1.155411	-0.326955	0.551862
C147	C	1.405411	-0.076955	0.801862
C148	C	1.655411	0.173045	1.051862
C149	C	0.945473	-0.612230	0.341972
C150	C	1.195473	-0.362230	0.591972
C151	C	1.445473	-0.112230	0.841972
C152	C	1.695473	0.137770	1.091972
C153	C	0.945496	-0.682918	0.341983
C154	C	1.195496	-0.432918	0.591983
C155	C	1.445496	-0.182918	0.841983
C156	C	1.695496	0.067082	1.091983
C157	C	0.905459	-0.718330	0.301882
C158	C	1.155459	-0.468330	0.551882
C159	C	1.405459	-0.218330	0.801882
C160	C	1.655459	0.031670	1.051882
C161	C	0.865392	-0.683051	0.261771
C162	C	1.115392	-0.433051	0.511771
C163	C	1.365392	-0.183051	0.761771
C164	C	1.615392	0.066949	1.011771
C165	C	0.865367	-0.612364	0.261763
C166	C	1.115367	-0.362364	0.511763
C167	C	1.365367	-0.112364	0.761763
C168	C	1.615367	0.137636	1.011763
C169	C	0.865493	-0.968124	0.261803
C170	C	1.115493	-0.718124	0.511803
C171	C	1.365493	-0.468124	0.761803
C172	C	1.615493	-0.218124	1.011803
C173	C	0.865522	-1.038816	0.261813
C174	C	1.115522	-0.788816	0.511813
C175	C	1.365522	-0.538816	0.761813
C176	C	1.615522	-0.288816	1.011813
C177	C	0.945622	-1.038678	0.342023
C178	C	1.195622	-0.788678	0.592023
C179	C	1.445622	-0.538678	0.842023
C180	C	1.695622	-0.288678	1.092023
C181	C	0.945597	-0.967991	0.342015
C182	C	1.195597	-0.717991	0.592015
C183	C	1.445597	-0.467991	0.842015
C184	C	1.695597	-0.217991	1.092015
C185	C	0.905528	-0.932718	0.301907
C186	C	1.155528	-0.682718	0.551907
C187	C	1.405528	-0.432718	0.801907
C188	C	1.655528	-0.182718	1.051907
C189	C	0.905503	-0.856069	0.301896
C190	C	1.155503	-0.606069	0.551896
C191	C	1.405503	-0.356069	0.801896
C192	C	1.655503	-0.106069	1.051896
C193	C	0.905486	-0.794978	0.301890
C194	C	1.155486	-0.544978	0.551890
C195	C	1.405486	-0.294978	0.801890
C196	C	1.655486	-0.044978	1.051890
C197	C	1.068879	-0.325834	0.301892
C198	C	1.318879	-0.075834	0.551892
C199	C	1.568879	0.174166	0.801892
C200	C	1.818879	0.424166	1.051892
C201	C	1.138520	-0.325820	0.301899
C202	C	1.388520	-0.075820	0.551899
C203	C	1.638520	0.174180	0.801899
C204	C	1.888520	0.424180	1.051899
C205	C	0.905508	-0.325853	0.465297
C206	C	1.155508	-0.075853	0.715297
C207	C	1.405508	0.174147	0.965297
C208	C	1.655508	0.424147	1.215297
C209	C	0.905530	-0.325847	0.534938
C210	C	1.155530	-0.075847	0.784938
C211	C	1.405530	0.174153	1.034938
C212	C	1.655530	0.424153	1.284938
C213	C	0.905544	-0.149324	0.301910
C214	C	1.155544	0.100676	0.551910
C215	C	1.405544	0.350676	0.801910
C216	C	1.655544	0.600676	1.051910
C217	C	0.905582	-0.074092	0.301926
C218	C	1.155582	0.175908	0.551926
C219	C	1.405582	0.425908	0.801926
C220	C	1.655582	0.675908	1.051926
C221	C	0.905440	-0.325832	0.139086
C222	C	1.155440	-0.075832	0.389086
C223	C	1.405440	0.174168	0.639086
C224	C	1.655440	0.424168	0.889086
C225	C	0.905539	-0.325647	0.069445
C226	C	1.155539	-0.075647	0.319445
C227	C	1.405539	0.174353	0.569445
C228	C	1.655539	0.424353	0.819445
C229	C	0.945623	-0.282547	0.567666
C230	C	1.195623	-0.032547	0.817666
C231	C	1.445623	0.217453	1.067666
C232	C	1.695623	0.467453	1.317666
C233	C	0.945622	-0.282518	0.633101
C234	C	1.195622	-0.032518	0.883101
C235	C	1.445622	0.217482	1.133101
C236	C	1.695622	0.467482	1.383101
C237	C	0.905535	-0.325801	0.665807
C238	C	1.155535	-0.075801	0.915807
C239	C	1.405535	0.174199	1.165807
C240	C	1.655535	0.424199	1.415807
C241	C	0.865433	-0.369105	0.633071
C242	C	1.115433	-0.119105	0.883071
C243	C	1.365433	0.130895	1.133071
C244	C	1.615433	0.380895	1.383071
C245	C	0.865431	-0.369128	0.567637
C246	C	1.115431	-0.119128	0.817637
C247	C	1.365431	0.130872	1.067637
C248	C	1.615431	0.380872	1.317637
C249	C	0.900563	-0.386747	0.769474
C250	C	1.150563	-0.136747	1.019474
C251	C	1.400563	0.113253	1.269474
C252	C	1.650563	0.363253	1.519474
C253	C	0.900569	-0.386725	0.834907
C254	C	1.150569	-0.136725	1.084907
C255	C	1.400569	0.113275	1.334907
C256	C	1.650569	0.363275	1.584907
C257	C	0.905539	-0.325730	0.867628
C258	C	1.155539	-0.075730	1.117628
C259	C	1.405539	0.174270	1.367628
C260	C	1.655539	0.424270	1.617628
C261	C	0.910514	-0.264754	0.834908
C262	C	1.160514	-0.014754	1.084908
C263	C	1.410514	0.235246	1.334908
C264	C	1.660514	0.485246	1.584908
C265	C	0.910511	-0.264778	0.769473
C266	C	1.160511	-0.014778	1.019473
C267	C	1.410511	0.235222	1.269473
C268	C	1.660511	0.485222	1.519473
C269	C	0.905533	-0.325781	0.736759
C270	C	1.155533	-0.075781	0.986759
C271	C	1.405533	0.174219	1.236759
C272	C	1.655533	0.424219	1.486759
C273	C	0.945633	-0.282394	0.971308
C274	C	1.195633	-0.032394	1.221308
C275	C	1.445633	0.217606	1.471308
C276	C	1.695633	0.467606	1.721308
C277	C	0.945628	-0.282364	1.036744
C278	C	1.195628	-0.032364	1.286744
C279	C	1.445628	0.217636	1.536744
C280	C	1.695628	0.467636	1.786744
C281	C	0.865442	-0.368957	1.036713
C282	C	1.115442	-0.118957	1.286713
C283	C	1.365442	0.131043	1.536713
C284	C	1.615442	0.381043	1.786713
C285	C	0.865444	-0.368981	0.971278
C286	C	1.115444	-0.118981	1.221278
C287	C	1.365444	0.131019	1.471278
C288	C	1.615444	0.381019	1.721278
C289	C	0.905543	-0.325701	0.938579
C290	C	1.155543	-0.075701	1.188579
C291	C	1.405543	0.174299	1.438579
C292	C	1.655543	0.424299	1.688579
H293	H	0.465227	-0.215264	0.311031
H294	H	0.715227	0.034736	0.561031
H295	H	0.965227	0.284736	0.811031
H296	H	1.215227	0.534736	1.061031
Br297	Br	0.684841	-0.224060	0.396492
Br298	Br	0.934841	0.025940	0.646492
Br299	Br	1.184841	0.275940	0.896492
Br300	Br	1.434841	0.525940	1.146492
Br301	Br	0.917263	-0.181969	0.879306
Br302	Br	1.167263	0.068031	1.129306
Br303	Br	1.417263	0.318031	1.379306
Br304	Br	1.667263	0.568031	1.629306
H305	H	0.896349	-0.436404	0.742838
H306	H	1.146349	-0.186404	0.992838
H307	H	1.396349	0.063596	1.242838
H308	H	1.646349	0.313596	1.492838
H309	H	0.832916	-1.067647	0.229157
H310	H	1.082916	-0.817647	0.479157
H311	H	1.332916	-0.567647	0.729157
H312	H	1.582916	-0.317647	0.979157
Br313	Br	0.684579	-0.427805	0.207228
Br314	Br	0.934579	-0.177805	0.457228
Br315	Br	1.184579	0.072195	0.707228
Br316	Br	1.434579	0.322195	0.957228
H317	H	0.346515	-0.215241	0.311036
H318	H	0.596515	0.034759	0.561036
H319	H	0.846515	0.284759	0.811036
H320	H	1.096515	0.534759	1.061036
Br321	Br	1.000001	-1.086553	0.396459
Br322	Br	1.250001	-0.836553	0.646459
Br323	Br	1.500001	-0.586553	0.896459
Br324	Br	1.750001	-0.336553	1.146459
Br325	Br	0.281206	-0.223973	0.396517
Br326	Br	0.531206	0.026027	0.646517
Br327	Br	0.781206	0.276027	0.896517
Br328	Br	1.031206	0.526027	1.146517
H329	H	0.832792	-0.404344	0.659704
H330	H	1.082792	-0.154344	0.909704
H331	H	1.332792	0.095656	1.159704
H332	H	1.582792	0.345656	1.409704
H333	H	0.978274	-0.247304	0.541047
H334	H	1.228274	0.002696	0.791047
H335	H	1.478274	0.252696	1.041047
H336	H	1.728274	0.502696	1.291047
Br337	Br	0.999938	-0.919935	0.396437
Br338	Br	1.249938	-0.669935	0.646437
Br339	Br	1.499938	-0.419935	0.896437
Br340	Br	1.749938	-0.169935	1.146437
Br341	Br	0.811013	-0.427896	0.523218
Br342	Br	1.061013	-0.177896	0.773218
Br343	Br	1.311013	0.072104	1.023218
Br344	Br	1.561013	0.322104	1.273218
Br345	Br	0.811047	-0.731110	0.207355
Br346	Br	1.061047	-0.481110	0.457355
Br347	Br	1.311047	-0.231110	0.707355
Br348	Br	1.561047	0.018890	0.957355
H349	H	0.978079	-0.583401	0.374624
H350	H	1.228079	-0.333401	0.624624
H351	H	1.478079	-0.083401	0.874624
H352	H	1.728079	0.166599	1.124624
H353	H	0.978124	-0.711635	0.374639
H354	H	1.228124	-0.461635	0.624639
H355	H	1.478124	-0.211635	0.874639
H356	H	1.728124	0.038365	1.124639
H357	H	0.978270	-0.247254	0.659753
H358	H	1.228270	0.002746	0.909753
H359	H	1.478270	0.252746	1.159753
H360	H	1.728270	0.502746	1.409753
Br361	Br	0.810992	-0.564490	0.207330
Br362	Br	1.060992	-0.314490	0.457330
Br363	Br	1.310992	-0.064490	0.707330
Br364	Br	1.560992	0.185510	0.957330
H365	H	0.144705	-0.247402	0.374725
H366	H	0.394705	0.002598	0.624725
H367	H	0.644705	0.252598	0.874725
H368	H	0.894705	0.502598	1.124725
H369	H	0.914561	-0.215129	0.742836
H370	H	1.164561	0.034871	0.992836
H371	H	1.414561	0.284871	1.242836
H372	H	1.664561	0.534871	1.492836
H373	H	0.978280	-0.247149	0.944683
H374	H	1.228280	0.002851	1.194683
H375	H	1.478280	0.252851	1.444683
H376	H	1.728280	0.502851	1.694683
Br377	Br	0.811028	-0.427691	1.081092
Br378	Br	1.061028	-0.177691	1.331092
Br379	Br	1.311028	0.072309	1.581092
Br380	Br	1.561028	0.322309	1.831092
Br381	Br	0.811106	-0.920262	0.207378
Br382	Br	1.061106	-0.670262	0.457378
Br383	Br	1.311106	-0.420262	0.707378
Br384	Br	1.561106	-0.170262	0.957378
Br385	Br	1.000055	-0.223604	1.081162
Br386	Br	1.250055	0.026396	1.331162
Br387	Br	1.500055	0.276396	1.581162
Br388	Br	1.750055	0.526396	1.831162
Br389	Br	0.811030	-0.427750	0.926859
Br390	Br	1.061030	-0.177750	1.176859
Br391	Br	1.311030	0.072250	1.426859
Br392	Br	1.561030	0.322250	1.676859
Br393	Br	0.893826	-0.469476	0.879306
Br394	Br	1.143826	-0.219476	1.129306
Br395	Br	1.393826	0.030524	1.379306
Br396	Br	1.643826	0.280524	1.629306
H397	H	0.144495	-0.404241	0.229073
H398	H	0.394495	-0.154241	0.479073
H399	H	0.644495	0.095759	0.729073
H400	H	0.894495	0.345759	0.979073
Br401	Br	0.530606	-0.224023	0.396493
Br402	Br	0.780606	0.025977	0.646493
Br403	Br	1.030606	0.275977	0.896493
Br404	Br	1.280606	0.525977	1.146493
H405	H	0.263205	-0.404266	0.229063
H406	H	0.513205	-0.154266	0.479063
H407	H	0.763205	0.095734	0.729063
H408	H	1.013205	0.345734	0.979063
H409	H	0.346326	-0.436497	0.292745
H410	H	0.596326	-0.186497	0.542745
H411	H	0.846326	0.063503	0.792745
H412	H	1.096326	0.313503	1.042745
Br413	Br	0.530342	-0.427779	0.207248
Br414	Br	0.780342	-0.177779	0.457248
Br415	Br	1.030342	0.072221	0.707248
Br416	Br	1.280342	0.322221	0.957248
Br417	Br	0.482765	-0.469627	0.289986
Br418	Br	0.732765	-0.219627	0.539986
Br419	Br	0.982765	0.030373	0.789986
Br420	Br	1.232765	0.280373	1.039986
