data_functionalizedCrystal
_audit_creation_method	'MofGen! by Chris Wilmer'
_symmetry_space_group_name_H-M	'P1'
_symmetry_Int_Tables_number	1
_symmetry_cell_setting	triclinic
loop_
_symmetry_equiv_pos_as_xyz
  x,y,z
_cell_length_a	14.971486
_cell_length_b	23.532407
_cell_length_c	14.048226
_cell_angle_alpha	89.988910
_cell_angle_beta	89.998499
_cell_angle_gamma	83.231404
loop_
_atom_site_label
_atom_site_type_symbol
_atom_site_fract_x
_atom_site_fract_y
_atom_site_fract_z
O1	O	1.186163	0.074216	-0.079061
O2	O	1.519496	0.407550	0.254272
O3	O	1.852830	0.740883	0.587605
O4	O	0.925669	0.083104	-0.079088
O5	O	1.259002	0.416437	0.254245
O6	O	1.592336	0.749771	0.587578
O7	O	1.063771	-0.004238	-0.079057
O8	O	1.397104	0.329095	0.254277
O9	O	1.730438	0.662429	0.587610
O10	O	1.048061	0.161558	-0.079093
O11	O	1.381394	0.494892	0.254240
O12	O	1.714727	0.828225	0.587574
O13	O	1.063755	-0.004243	0.079265
O14	O	1.397088	0.329090	0.412598
O15	O	1.730421	0.662424	0.745931
O16	O	0.925652	0.083099	0.079233
O17	O	1.258986	0.416432	0.412566
O18	O	1.592319	0.749765	0.745900
O19	O	1.186146	0.074211	0.079260
O20	O	1.519480	0.407545	0.412593
O21	O	1.852813	0.740878	0.745927
Zn22	Zn	1.055897	0.078654	0.104383
Zn23	Zn	1.389230	0.411987	0.437717
Zn24	Zn	1.722563	0.745321	0.771050
Zn25	Zn	1.055919	0.078661	-0.104212
Zn26	Zn	1.389252	0.411994	0.229122
Zn27	Zn	1.722585	0.745328	0.562455
O28	O	1.048044	0.161553	0.079228
O29	O	1.381378	0.494886	0.412562
O30	O	1.714711	0.828220	0.745895
C31	C	0.892340	0.082704	0.000069
C32	C	1.225673	0.416037	0.333402
C33	C	1.559007	0.749371	0.666736
C34	C	0.793056	0.081513	0.000059
C35	C	1.126389	0.414846	0.333393
C36	C	1.459722	0.748179	0.666726
C37	C	0.735288	0.132824	0.000050
C38	C	1.068622	0.466157	0.333383
C39	C	1.401955	0.799490	0.666716
C40	C	0.642001	0.131701	0.000064
C41	C	0.975334	0.465034	0.333397
C42	C	1.308667	0.798368	0.666731
C43	C	0.606482	0.079267	0.000082
C44	C	0.939816	0.412600	0.333415
C45	C	1.273149	0.745934	0.666748
C46	C	0.664257	0.027952	0.000094
C47	C	0.997590	0.361286	0.333428
C48	C	1.330924	0.694619	0.666761
C49	C	0.757543	0.029075	0.000087
C50	C	1.090876	0.362409	0.333420
C51	C	1.424209	0.695742	0.666753
C52	C	0.469819	0.025615	0.000108
C53	C	0.803153	0.358948	0.333441
C54	C	1.136486	0.692282	0.666775
C55	C	0.376527	0.024491	0.000114
C56	C	0.709860	0.357825	0.333447
C57	C	1.043194	0.691158	0.666780
C58	C	0.354277	0.128241	0.000085
C59	C	0.687610	0.461574	0.333419
C60	C	1.020944	0.794907	0.666752
C61	C	0.447563	0.129364	0.000078
C62	C	0.780896	0.462697	0.333411
C63	C	1.114229	0.796030	0.666744
C64	C	0.505331	0.078049	0.000089
C65	C	0.838665	0.411382	0.333422
C66	C	1.171998	0.744715	0.666755
C67	C	1.063363	-0.025458	0.000107
C68	C	1.396696	0.307875	0.333440
C69	C	1.730029	0.641208	0.666773
C70	C	1.062160	-0.088680	0.000114
C71	C	1.395493	0.244653	0.333447
C72	C	1.728827	0.577986	0.666780
C73	C	1.136342	-0.487466	0.000069
C74	C	1.469675	-0.154132	0.333403
C75	C	1.803008	0.179201	0.666736
C76	C	1.135224	-0.546871	0.000062
C77	C	1.468558	-0.213537	0.333395
C78	C	1.801891	0.119796	0.666729
O79	O	1.203992	-0.583321	0.000034
O80	O	1.537325	-0.249988	0.333367
O81	O	1.870658	0.083346	0.666701
N82	N	1.053123	-0.569849	0.000054
N83	N	1.386456	-0.236515	0.333387
N84	N	1.719789	0.096818	0.666721
C85	C	0.972133	-0.533418	0.000044
C86	C	1.305466	-0.200085	0.333377
C87	C	1.638800	0.133249	0.666711
O88	O	0.902196	-0.558417	0.000036
O89	O	1.235530	-0.225084	0.333369
O90	O	1.568863	0.108250	0.666702
C91	C	0.973251	-0.474014	0.000044
C92	C	1.306585	-0.140681	0.333378
C93	C	1.639918	0.192653	0.666711
C94	C	1.055358	-0.451040	0.000062
C95	C	1.388692	-0.117706	0.333395
C96	C	1.722025	0.215627	0.666729
C97	C	1.218442	-0.464491	0.000086
C98	C	1.551775	-0.131158	0.333419
C99	C	1.885109	0.202176	0.666752
C100	C	1.219559	-0.405090	0.000095
C101	C	1.552892	-0.071757	0.333428
C102	C	1.886226	0.261577	0.666761
C103	C	1.138576	-0.368664	0.000087
C104	C	1.471909	-0.035331	0.333421
C105	C	1.805242	0.298003	0.666754
C106	C	1.056475	-0.391639	0.000071
C107	C	1.389809	-0.058305	0.333404
C108	C	1.723142	0.275028	0.666738
C109	C	0.892263	-0.437584	0.000027
C110	C	1.225596	-0.104251	0.333361
C111	C	1.558929	0.229082	0.666694
C112	C	0.893388	-0.378177	0.000027
C113	C	1.226721	-0.044844	0.333360
C114	C	1.560055	0.288490	0.666694
C115	C	0.975495	-0.355203	0.000045
C116	C	1.308828	-0.021870	0.333378
C117	C	1.642162	0.311464	0.666711
C118	C	0.976609	-0.295812	0.000073
C119	C	1.309942	0.037522	0.333406
C120	C	1.643276	0.370855	0.666739
N121	N	1.058711	-0.272834	0.000081
N122	N	1.392044	0.060499	0.333414
N123	N	1.725377	0.393833	0.666747
C124	C	1.139694	-0.309260	0.000088
C125	C	1.473027	0.024073	0.333421
C126	C	1.806361	0.357407	0.666755
C127	C	0.969791	-0.658170	0.000041
C128	C	1.303124	-0.324837	0.333374
C129	C	1.636457	0.008496	0.666708
C130	C	0.968671	-0.717573	0.000047
C131	C	1.302005	-0.384240	0.333381
C132	C	1.635338	-0.050906	0.666714
C133	C	1.131763	-0.731022	0.000064
C134	C	1.465097	-0.397689	0.333397
C135	C	1.798430	-0.064355	0.666730
C136	C	1.132882	-0.671618	0.000064
C137	C	1.466215	-0.338285	0.333397
C138	C	1.799548	-0.004952	0.666731
C139	C	1.051892	-0.635193	0.000049
C140	C	1.385226	-0.301859	0.333382
C141	C	1.718559	0.031474	0.666716
C142	C	1.142034	-0.184513	0.000108
C143	C	1.475367	0.148820	0.333441
C144	C	1.808700	0.482153	0.666775
C145	C	1.143143	-0.125106	0.000121
C146	C	1.476477	0.208227	0.333454
C147	C	1.809810	0.541560	0.666788
C148	C	0.980052	-0.111663	0.000100
C149	C	1.313385	0.221670	0.333433
C150	C	1.646719	0.555004	0.666766
C151	C	0.978942	-0.171064	0.000092
C152	C	1.312275	0.162269	0.333425
C153	C	1.645608	0.495602	0.666758
C154	C	1.059940	-0.207489	0.000093
C155	C	1.393273	0.125845	0.333426
C156	C	1.726607	0.459178	0.666759
O157	O	0.907878	-0.259327	0.000097
O158	O	1.241211	0.074006	0.333430
O159	O	1.574544	0.407340	0.666764
O160	O	1.209619	-0.284253	0.000084
O161	O	1.542952	0.049081	0.333417
O162	O	1.876286	0.382414	0.666750
C163	C	1.219475	0.074611	0.000101
C164	C	1.552809	0.407945	0.333434
C165	C	1.886142	0.741278	0.666767
C166	C	1.318760	0.075802	0.000104
C167	C	1.652093	0.409136	0.333437
C168	C	1.985426	0.742469	0.666771
C169	C	1.048453	0.182773	0.000063
C170	C	1.381786	0.516107	0.333396
C171	C	1.715119	0.849440	0.666730
C172	C	1.049655	0.245996	0.000050
C173	C	1.382989	0.579329	0.333383
C174	C	1.716322	0.912662	0.666716
N175	N	1.055889	0.078649	0.246744
N176	N	1.389222	0.411983	0.580077
N177	N	1.722555	0.745316	0.913411
N178	N	1.055934	0.078661	-0.246572
N179	N	1.389267	0.411995	0.086761
N180	N	1.722601	0.745328	0.420094
C181	C	1.117059	0.039990	0.296576
C182	C	1.450392	0.373324	0.629910
C183	C	1.783726	0.706657	0.963243
C184	C	1.117065	0.039990	0.396234
C185	C	1.450399	0.373323	0.729567
C186	C	1.783732	0.706657	1.062901
C187	C	1.055904	0.078652	0.446058
C188	C	1.389238	0.411985	0.779391
C189	C	1.722571	0.745318	1.112724
C190	C	0.994727	0.117313	0.396218
C191	C	1.328060	0.450646	0.729552
C192	C	1.661394	0.783979	1.062885
C193	C	0.994717	0.117310	0.296563
C194	C	1.328051	0.450643	0.629896
C195	C	1.661384	0.783976	0.963229
C196	C	0.994753	0.117317	0.603933
C197	C	1.328086	0.450650	0.937266
C198	C	1.661420	0.783983	1.270599
C199	C	0.994763	0.117320	0.703595
C200	C	1.328097	0.450654	1.036929
C201	C	1.661430	0.783987	1.370262
C202	C	1.117101	0.039997	0.703604
C203	C	1.450434	0.373330	1.036937
C204	C	1.783767	0.706664	1.370271
C205	C	1.117091	0.039994	0.603948
C206	C	1.450424	0.373327	0.937281
C207	C	1.783758	0.706661	1.270615
C208	C	1.055915	0.078656	0.554116
C209	C	1.389248	0.411989	0.887449
C210	C	1.722581	0.745322	1.220783
H211	H	0.635331	-0.014741	0.000122
H212	H	0.968664	0.318593	0.333456
H213	H	1.301997	0.651926	0.666789
Br214	Br	1.200075	-0.012479	0.228969
Br215	Br	1.533408	0.320855	0.562302
Br216	Br	1.866742	0.654188	0.895635
H217	H	0.516853	-0.016172	0.000118
H218	H	0.850186	0.317162	0.333452
H219	H	1.183519	0.650495	0.666785
Br220	Br	0.835943	-0.040564	0.000109
Br221	Br	1.169277	0.292770	0.333442
Br222	Br	1.502610	0.626103	0.666775
Br223	Br	0.495766	0.200525	0.000039
Br224	Br	0.829100	0.533858	0.333373
Br225	Br	1.162433	0.867192	0.666706
Br226	Br	1.254582	-0.093931	0.000146
Br227	Br	1.587915	0.239402	0.333479
Br228	Br	1.921248	0.572736	0.666813
H229	H	1.166912	0.008517	0.744183
H230	H	1.500245	0.341851	1.077517
H231	H	1.833579	0.675184	1.410850
H232	H	0.944934	0.148797	0.563363
H233	H	1.278267	0.482131	0.896696
H234	H	1.611600	0.815464	1.230029
Br235	Br	0.911755	0.169792	0.771206
Br236	Br	1.245089	0.503126	1.104540
Br237	Br	1.578422	0.836459	1.437873
H238	H	0.944924	0.148790	0.436791
H239	H	1.278257	0.482123	0.770124
H240	H	1.611591	0.815457	1.103457
H241	H	0.827435	-0.348522	0.000013
H242	H	1.160769	-0.015188	0.333347
H243	H	1.494102	0.318145	0.666680
Br244	Br	1.251960	-0.233937	0.000108
Br245	Br	1.585294	0.099396	0.333441
Br246	Br	1.918627	0.432730	0.666775
H247	H	1.286419	-0.386390	0.000105
H248	H	1.619752	-0.053057	0.333439
H249	H	1.953086	0.280276	0.666772
H250	H	0.914118	-0.081994	0.000097
H251	H	1.247451	0.251339	0.333430
H252	H	1.580784	0.584672	0.666764
H253	H	0.944905	0.148789	0.255990
H254	H	1.278238	0.482122	0.589324
H255	H	1.611572	0.815456	0.922657
H256	H	1.166874	0.008511	0.436807
H257	H	1.500208	0.341844	0.770140
H258	H	1.833541	0.675177	1.103473
Br259	Br	1.200102	-0.012470	0.536327
Br260	Br	1.533436	0.320863	0.869660
Br261	Br	1.866769	0.654196	1.202993
H262	H	1.284392	-0.494144	0.000088
H263	H	1.617726	-0.160810	0.333422
H264	H	1.951059	0.172523	0.666755
Br265	Br	1.244316	-0.640445	0.000090
Br266	Br	1.577649	-0.307112	0.333423
Br267	Br	1.910982	0.026221	0.666757
Br268	Br	0.328324	-0.046670	0.000170
Br269	Br	0.661657	0.286664	0.333503
Br270	Br	0.994990	0.619997	0.666836
Br271	Br	0.783482	0.203988	0.000016
Br272	Br	1.116815	0.537322	0.333349
Br273	Br	1.450149	0.870655	0.666683
H274	H	0.594969	0.173484	0.000055
H275	H	0.928303	0.506817	0.333388
H276	H	1.261636	0.840150	0.666721
Br277	Br	0.867510	-0.202245	0.000090
Br278	Br	1.200844	0.131088	0.333423
Br279	Br	1.534177	0.464421	0.666757
H280	H	1.197704	-0.760691	0.000066
H281	H	1.531038	-0.427358	0.333399
H282	H	1.864371	-0.094025	0.666733
Br283	Br	0.857236	-0.748745	0.000046
Br284	Br	1.190570	-0.415411	0.333379
Br285	Br	1.523903	-0.082078	0.666713
Br286	Br	0.275879	0.197883	0.000069
Br287	Br	0.609212	0.531216	0.333402
Br288	Br	0.942545	0.864550	0.666735
H289	H	0.903835	-0.628515	0.000037
H290	H	1.237169	-0.295182	0.333370
H291	H	1.570502	0.038151	0.666703
Br292	Br	0.780825	-0.468748	-0.000000
Br293	Br	1.114158	-0.135415	0.333333
Br294	Br	1.447491	0.197919	0.666667
