data_functionalizedCrystal
_audit_creation_method	'MofGen! by Chris Wilmer'
_symmetry_space_group_name_H-M	'P1'
_symmetry_Int_Tables_number	1
_symmetry_cell_setting	triclinic
loop_
_symmetry_equiv_pos_as_xyz
  x,y,z
_cell_length_a	12.759401
_cell_length_b	12.759400
_cell_length_c	12.759393
_cell_angle_alpha	89.970908
_cell_angle_beta	89.981727
_cell_angle_gamma	90.012209
loop_
_atom_site_label
_atom_site_type_symbol
_atom_site_fract_x
_atom_site_fract_y
_atom_site_fract_z
Zn1	Zn	1.606264	-0.418245	-0.593991
Zn2	Zn	1.606163	-0.593960	-0.418315
Zn3	Zn	1.430566	-0.418293	-0.418331
Zn4	Zn	1.430559	-0.593880	-0.593956
O5	O	1.518388	-0.506094	-0.506148
O6	O	1.753271	-0.441568	-0.570696
O7	O	1.582831	-0.570711	-0.271296
O8	O	1.453918	-0.271265	-0.441654
O9	O	1.753198	-0.570665	-0.441627
O10	O	1.583002	-0.271230	-0.570711
O11	O	1.453821	-0.441649	-0.271307
O12	O	1.283544	-0.441571	-0.441620
O13	O	1.453905	-0.570528	-0.740982
O14	O	1.283539	-0.570574	-0.570651
O15	O	1.582995	-0.441490	-0.741008
O16	O	1.582824	-0.740970	-0.441593
O17	O	1.453808	-0.740911	-0.570636
C18	C	1.245421	-0.506070	-0.506134
C19	C	1.128644	-0.506084	-0.506152
C20	C	1.073813	-0.438991	-0.573463
C21	C	0.964089	-0.439011	-0.573469
C22	C	0.964036	-0.573228	-0.438852
C23	C	1.073758	-0.573201	-0.438841
C24	C	1.128699	-0.371874	-0.640774
C25	C	1.073868	-0.304775	-0.708090
C26	C	0.964144	-0.304795	-0.708097
C27	C	0.909251	-0.371914	-0.640787
C28	C	1.518333	-0.779062	-0.506132
C29	C	1.518406	-0.895838	-0.506160
C30	C	1.585586	-0.950602	-0.573415
C31	C	1.585635	-1.060327	-0.573441
C32	C	1.451320	-1.060513	-0.438947
C33	C	1.451267	-0.950791	-0.438927
C34	C	1.652725	-0.895650	-0.640647
C35	C	1.719911	-0.950415	-0.707907
C36	C	1.719960	-1.060139	-0.707933
C37	C	1.652823	-1.115098	-0.640699
C38	C	1.792421	-0.506120	-0.506164
C39	C	1.909198	-0.506131	-0.506170
C40	C	1.518460	-0.505995	-0.780182
C41	C	1.518491	-0.505952	-0.896959
C42	C	1.518472	-0.232061	-0.506188
C43	C	1.518508	-0.115284	-0.506205
C44	C	1.585705	-0.573079	-1.061544
C45	C	1.585674	-0.573126	-0.951819
C46	C	1.451328	-0.438735	-0.951828
C47	C	1.451355	-0.438694	-1.061550
C48	C	1.652900	-0.640249	-1.116399
C49	C	1.720062	-0.707469	-1.061537
C50	C	1.720030	-0.707516	-0.951813
C51	C	1.652837	-0.640344	-0.896950
C52	C	1.518377	-0.506118	-0.233181
C53	C	1.518549	-0.505864	-0.116405
H54	H	0.919334	-0.627874	-0.384054
H55	H	1.118403	-0.627835	-0.384032
C56	C	1.377482	-0.364752	-1.121901
N57	N	1.321837	-0.309060	-1.167357
H58	H	1.652695	-0.806308	-0.640632
C59	C	1.652800	-0.640406	-0.776250
N60	N	1.652776	-0.640451	-0.685339
H61	H	1.774659	-1.104725	-0.762707
C62	C	1.793756	-0.889957	-0.781863
N63	N	1.849379	-0.844421	-0.837567
H64	H	1.396660	-1.105270	-0.384208
H65	H	1.396561	-0.906201	-0.384163
C66	C	1.652874	-1.235799	-0.640737
N67	N	1.652917	-1.326709	-0.640763
C68	C	1.249398	-0.371841	-0.640768
N69	N	1.340308	-0.371816	-0.640762
C70	C	1.377434	-0.364837	-0.891474
N71	N	1.321781	-0.309171	-0.846016
C72	C	1.652937	-0.640207	-1.237097
N73	N	1.652965	-0.640174	-1.328008
H74	H	1.118570	-0.250123	-0.762885
C75	C	0.903833	-0.230983	-0.782142
N76	N	0.858409	-0.175390	-0.837920
C77	C	1.793823	-0.781501	-1.121888
N78	N	1.849330	-0.837315	-1.167343
H79	H	1.774711	-0.762255	-0.907148
H80	H	0.819906	-0.371902	-0.640775
