data_functionalizedCrystal
_audit_creation_method	'MofGen! by Chris Wilmer'
_symmetry_space_group_name_H-M	'P1'
_symmetry_Int_Tables_number	1
_symmetry_cell_setting	triclinic
loop_
_symmetry_equiv_pos_as_xyz
  x,y,z
_cell_length_a	15.995350
_cell_length_b	15.995350
_cell_length_c	14.472310
_cell_angle_alpha	89.998838
_cell_angle_beta	89.990621
_cell_angle_gamma	96.507625
loop_
_atom_site_label
_atom_site_type_symbol
_atom_site_fract_x
_atom_site_fract_y
_atom_site_fract_z
O1	O	1.110997	-0.107921	-0.076758
O2	O	0.867221	-0.121248	-0.076776
O3	O	0.995773	0.007303	-0.076766
O4	O	0.982445	-0.236472	-0.076769
O5	O	0.995740	0.007296	0.076916
O6	O	0.867188	-0.121256	0.076906
O7	O	1.110963	-0.107928	0.076924
Cu8	Cu	0.989073	-0.114593	0.090947
Cu9	Cu	0.989112	-0.114584	-0.090800
O10	O	0.982412	-0.236480	0.076913
C11	C	0.836010	-0.120701	0.000062
C12	C	0.743060	-0.119049	0.000055
C13	C	0.405312	-0.113117	0.000074
C14	C	0.452746	-0.021565	0.000418
C15	C	0.549436	-0.023217	0.000065
C16	C	0.572873	-0.116060	0.000065
C17	C	0.531804	-0.161212	-0.087692
C18	C	0.435169	-0.158912	-0.087759
C19	C	0.434792	-0.160812	0.087007
C20	C	0.531737	-0.160790	0.088160
C21	C	0.667570	-0.117727	0.000057
C22	C	0.310614	-0.111452	0.000076
C23	C	0.995205	0.038494	0.000073
C24	C	0.993553	0.131444	0.000068
C25	C	1.142175	-0.108476	0.000083
C26	C	1.235125	-0.110127	0.000084
C27	C	0.982980	-0.267671	0.000072
C28	C	0.984631	-0.360621	0.000071
N29	N	0.989051	-0.114598	0.218778
C30	C	0.987621	0.469192	0.000071
C31	C	0.896069	0.421758	-0.000281
C32	C	0.897721	0.325068	0.000066
C33	C	0.990564	0.301631	0.000069
C34	C	1.035701	0.342705	0.087831
C35	C	1.033401	0.439340	0.087904
C36	C	1.035330	0.439707	-0.086861
C37	C	1.035309	0.342762	-0.088021
C38	C	0.992231	0.206934	0.000071
C39	C	0.985956	0.563890	0.000075
N40	N	0.989140	-0.114572	-0.218631
C41	C	0.989111	-0.114581	0.592869
C42	C	0.920095	-0.183135	0.553698
C43	C	0.920254	-0.183385	0.446610
C44	C	0.989081	-0.114590	0.407278
C45	C	1.076445	-0.133671	0.446122
C46	C	1.076057	-0.134159	0.553243
C47	C	0.971542	-0.026741	0.553398
C48	C	0.969538	-0.027327	0.446270
C49	C	0.989069	-0.114593	0.302390
C50	C	0.989128	-0.114579	0.697757
H51	H	0.402921	-0.226128	-0.091741
H52	H	1.091540	-0.198219	0.578220
H53	H	1.021872	0.024275	0.578728
N54	N	0.853205	0.289423	-0.078856
N55	N	0.820694	0.335950	-0.134578
H56	H	0.789248	0.310780	-0.190318
N57	N	1.120251	0.323507	-0.094655
N58	N	1.179572	0.381543	-0.094877
H59	H	1.239567	0.367945	-0.099553
N60	N	1.096325	-0.213129	0.412481
N61	N	1.107448	-0.270672	0.468038
H62	H	1.121483	-0.326793	0.444283
H63	H	1.100617	0.471588	0.091888
N64	N	0.429470	0.024320	0.079374
N65	N	0.395990	0.090603	0.068929
H66	H	0.379543	0.123000	0.124701
N67	N	0.996323	0.307106	0.169753
N68	N	0.920249	0.313137	0.184561
H69	H	0.892432	0.287997	0.242417
H70	H	0.433166	0.014865	-0.062168
H71	H	0.931159	-0.247952	0.580608
N72	N	1.120003	0.479566	-0.087611
N73	N	1.145746	0.525520	-0.153935
H74	H	1.205543	0.553675	-0.154458
H75	H	0.931473	-0.248569	0.420976
H76	H	0.414242	-0.130885	0.153524
H77	H	0.577308	0.012521	-0.062951
N78	N	0.565978	-0.119424	0.169599
N79	N	0.620475	-0.057231	0.162857
H80	H	0.644663	-0.028014	0.220372
H81	H	0.905272	-0.012845	0.420883
H82	H	0.909219	-0.008392	0.580461
N83	N	0.394946	-0.245489	0.087742
N84	N	0.345042	-0.270700	0.024587
H85	H	0.316897	-0.330500	0.025099
N86	N	0.997799	0.465490	-0.170302
N87	N	0.935424	0.505915	-0.166708
H88	H	0.908910	0.524127	-0.225634
N89	N	0.585077	0.021316	0.078980
N90	N	0.538547	0.053839	0.134701
H91	H	0.563715	0.085298	0.190435
H92	H	0.859490	0.440293	-0.063217
N93	N	0.992077	0.462318	0.170191
N94	N	1.030292	0.512102	0.226531
H95	H	1.001105	0.528327	0.284647
H96	H	0.416874	-0.125979	-0.153359
N97	N	0.551017	-0.245723	0.094804
N98	N	0.595582	-0.274800	0.034447
H99	H	0.609198	-0.334787	0.039132
N100	N	0.850368	0.446304	0.078250
N101	N	0.821895	0.392372	0.136063
H102	H	0.789626	0.409705	0.191534
H103	H	0.855314	-0.172016	0.420349
H104	H	0.861973	0.297200	0.063079
H105	H	0.854945	-0.171953	0.579481
N106	N	0.549510	-0.246783	-0.091787
N107	N	0.525967	-0.296486	-0.027836
H108	H	0.538471	-0.356922	-0.030726
H109	H	1.129018	-0.086196	0.579154
N110	N	1.121268	0.324984	0.091919
N111	N	1.150004	0.281781	0.030050
H112	H	1.210436	0.269265	0.032934
N113	N	0.993962	0.308490	-0.169456
N114	N	0.989685	0.231282	-0.185174
H115	H	0.960481	0.207067	-0.242682
N116	N	0.567445	-0.121879	-0.169618
N117	N	0.623078	-0.060603	-0.163602
H118	H	0.648258	-0.032827	-0.221461
N119	N	1.142406	-0.072694	0.414159
N120	N	1.125723	-0.014354	0.362269
H121	H	1.172306	0.028714	0.339693
N122	N	1.028517	0.039659	0.412690
N123	N	1.105199	0.039880	0.429457
H124	H	1.146862	0.087185	0.405742
