data_functionalizedCrystal
_audit_creation_method	'MofGen! by Chris Wilmer'
_symmetry_space_group_name_H-M	'P1'
_symmetry_Int_Tables_number	1
_symmetry_cell_setting	triclinic
loop_
_symmetry_equiv_pos_as_xyz
  x,y,z
_cell_length_a	14.044209
_cell_length_b	10.723024
_cell_length_c	9.798715
_cell_angle_alpha	89.996597
_cell_angle_beta	89.993913
_cell_angle_gamma	88.827911
loop_
_atom_site_label
_atom_site_type_symbol
_atom_site_fract_x
_atom_site_fract_y
_atom_site_fract_z
O1	O	-0.133040	-1.670496	0.113492
O2	O	0.366960	-1.170496	0.613492
O3	O	-0.145775	-1.308618	0.113498
O4	O	0.354225	-0.808618	0.613498
O5	O	-0.001388	-1.484127	0.113476
O6	O	0.498612	-0.984127	0.613476
O7	O	-0.277428	-1.494987	0.113514
O8	O	0.222572	-0.994987	0.613514
O9	O	-0.001386	-1.484112	-0.113507
O10	O	0.498614	-0.984112	0.386493
O11	O	-0.145774	-1.308603	-0.113484
O12	O	0.354226	-0.808603	0.386516
O13	O	-0.133039	-1.670482	-0.113490
O14	O	0.366961	-1.170482	0.386510
Zn15	Zn	-0.139406	-1.489540	-0.149526
Zn16	Zn	0.360594	-0.989540	0.350474
Zn17	Zn	-0.139408	-1.489559	0.149533
Zn18	Zn	0.360592	-0.989559	0.649533
O19	O	-0.277427	-1.494973	-0.113468
O20	O	0.222573	-0.994973	0.386532
C21	C	0.033958	-1.479364	-0.000018
C22	C	0.533958	-0.979364	0.499982
C23	C	0.139277	-1.465181	-0.000024
C24	C	0.639277	-0.965181	0.499976
C25	C	-0.144848	-1.262018	0.000007
C26	C	0.355152	-0.762018	0.500007
C27	C	-0.142075	-1.123187	0.000008
C28	C	0.357925	-0.623187	0.500008
C29	C	-0.133966	-1.717081	0.000004
C30	C	0.366034	-1.217081	0.500004
C31	C	-0.136739	-1.855913	0.000011
C32	C	0.363261	-1.355913	0.500011
C33	C	0.332107	-1.439251	-0.000012
C34	C	0.832107	-0.939251	0.499988
C35	C	0.389086	-1.539853	-0.000011
C36	C	0.889086	-1.039853	0.499989
C37	C	0.496383	-1.525426	-0.000005
C38	C	0.996383	-1.025426	0.499995
C39	C	0.224799	-1.453677	-0.000018
C40	C	0.724799	-0.953677	0.499982
C41	C	0.687228	-1.499738	0.000017
C42	C	1.187228	-0.999738	0.500017
C43	C	0.581910	-1.513929	0.000000
C44	C	1.081910	-1.013929	0.500000
N45	N	-0.139405	-1.489537	-0.353625
N46	N	0.360595	-0.989537	0.146375
C47	C	-0.222867	-1.056286	0.000021
C48	C	0.277133	-0.556286	0.500021
C49	C	-0.220003	-0.912796	0.000022
C50	C	0.279997	-0.412796	0.500022
C51	C	-0.194408	-1.567804	-0.421396
C52	C	0.305592	-1.067804	0.078604
C53	C	-0.194407	-1.567824	-0.578559
C54	C	0.305593	-1.067824	-0.078559
N55	N	-0.139402	-1.489572	0.353633
N56	N	0.360598	-0.989572	0.853633
H57	H	0.357284	-1.636818	0.000080
H58	H	0.857284	-1.136818	0.500080
Cl59	Cl	0.381203	-1.289554	-0.000005
Cl60	Cl	0.881203	-0.789554	0.499995
H61	H	-0.070786	-1.074233	0.000033
H62	H	0.429214	-0.574233	0.500033
H63	H	-0.241495	-1.634801	-0.363065
H64	H	0.258505	-1.134801	0.136935
H65	H	-0.241503	-1.634825	-0.636840
H66	H	0.258497	-1.134825	-0.136840
H67	H	-0.067572	-0.913419	0.000009
H68	H	0.432428	-0.413419	0.500009
H69	H	-0.289166	-0.855282	0.000038
H70	H	0.210834	-0.355282	0.500038
H71	H	-0.092311	-1.422547	-0.411956
H72	H	0.407689	-0.922547	0.088044
H73	H	-0.294155	-1.105240	0.000023
H74	H	0.205845	-0.605240	0.500023
Cl75	Cl	-0.066697	-1.386102	-0.556402
Cl76	Cl	0.433303	-0.886102	-0.056402
