data_functionalizedCrystal
_audit_creation_method	'MofGen! by Chris Wilmer'
_symmetry_space_group_name_H-M	'P1'
_symmetry_Int_Tables_number	1
_symmetry_cell_setting	triclinic
loop_
_symmetry_equiv_pos_as_xyz
  x,y,z
_cell_length_a	19.805405
_cell_length_b	19.805407
_cell_length_c	19.805399
_cell_angle_alpha	90.019573
_cell_angle_beta	90.029301
_cell_angle_gamma	90.026410
loop_
_atom_site_label
_atom_site_type_symbol
_atom_site_fract_x
_atom_site_fract_y
_atom_site_fract_z
Zn1	Zn	-0.269479	1.034736	0.382712
Zn2	Zn	0.063854	1.368069	0.716045
Zn3	Zn	0.397188	1.701402	1.049378
Zn4	Zn	-0.382667	1.034651	0.269520
Zn5	Zn	-0.049334	1.367984	0.602853
Zn6	Zn	0.283999	1.701317	0.936187
Zn7	Zn	-0.269498	0.921550	0.269536
Zn8	Zn	0.063836	1.254884	0.602869
Zn9	Zn	0.397169	1.588217	0.936203
Zn10	Zn	-0.382631	0.921514	0.382667
Zn11	Zn	-0.049298	1.254847	0.716000
Zn12	Zn	0.284035	1.588180	1.049333
O13	O	-0.326069	0.978113	0.326109
O14	O	0.007265	1.311446	0.659442
O15	O	0.340598	1.644779	0.992775
O16	O	-0.284501	1.129441	0.367708
O17	O	0.048833	1.462774	0.701042
O18	O	0.382166	1.796108	1.034375
O19	O	-0.367678	1.019627	0.174805
O20	O	-0.034345	1.352960	0.508139
O21	O	0.298989	1.686294	0.841472
O22	O	-0.174778	0.936616	0.284575
O23	O	0.158555	1.269949	0.617908
O24	O	0.491888	1.603282	0.951241
O25	O	-0.367660	1.129378	0.284547
O26	O	-0.034326	1.462712	0.617880
O27	O	0.299007	1.796045	0.951214
O28	O	-0.174765	1.019772	0.367724
O29	O	0.158569	1.353106	0.701058
O30	O	0.491902	1.686439	1.034391
O31	O	-0.284533	0.936533	0.174817
O32	O	0.048801	1.269866	0.508151
O33	O	0.382134	1.603200	0.841484
O34	O	-0.284498	0.826829	0.284531
O35	O	0.048836	1.160162	0.617864
O36	O	0.382169	1.493496	0.951198
O37	O	-0.367598	0.936553	0.477389
O38	O	-0.034265	1.269887	0.810723
O39	O	0.299068	1.603220	1.144056
O40	O	-0.367617	0.826802	0.367648
O41	O	-0.034283	1.160135	0.700981
O42	O	0.299050	1.493469	1.034314
O43	O	-0.284466	1.019737	0.477422
O44	O	0.048867	1.353070	0.810756
O45	O	0.382201	1.686404	1.144089
O46	O	-0.477379	1.019592	0.284503
O47	O	-0.144046	1.352925	0.617837
O48	O	0.189288	1.686258	0.951170
O49	O	-0.477353	0.936471	0.367632
O50	O	-0.144019	1.269804	0.700965
O51	O	0.189314	1.603137	1.034299
C52	C	-0.326056	0.802257	0.326087
C53	C	0.007278	1.135590	0.659420
C54	C	0.340611	1.468923	0.992753
C55	C	-0.326067	0.727025	0.326093
C56	C	0.007267	1.060358	0.659427
C57	C	0.340600	1.393691	0.992760
C58	C	-0.501925	0.978036	0.326076
C59	C	-0.168591	1.311370	0.659409
C60	C	0.164742	1.644703	0.992742
C61	C	-0.577157	0.978066	0.326084
C62	C	-0.243823	1.311399	0.659418
C63	C	0.089510	1.644732	0.992751
C64	C	-0.369412	0.691684	0.369302
C65	C	-0.036078	1.025018	0.702635
C66	C	0.297255	1.358351	1.035969
C67	C	-0.369413	0.620996	0.369312
C68	C	-0.036080	0.954329	0.702645
C69	C	0.297254	1.287662	1.035978
C70	C	-0.326072	0.585649	0.326109
C71	C	0.007262	0.918982	0.659442
C72	C	0.340595	1.252316	0.992775
C73	C	-0.282722	0.620994	0.282898
C74	C	0.050611	0.954328	0.616231
C75	C	0.383945	1.287661	0.949565
C76	C	-0.282718	0.691681	0.282892
C77	C	0.050616	1.025015	0.616226
C78	C	0.383949	1.358348	0.949559
C79	C	-0.282737	0.335921	0.282920
C80	C	0.050596	0.669254	0.616254
C81	C	0.383930	1.002588	0.949587
C82	C	-0.282746	0.265229	0.282928
C83	C	0.050588	0.598562	0.616261
C84	C	0.383921	0.931896	0.949594
C85	C	-0.369432	0.265235	0.369340
C86	C	-0.036099	0.598569	0.702673
C87	C	0.297235	0.931902	1.036006
C88	C	-0.369428	0.335922	0.369334
C89	C	-0.036094	0.669256	0.702667
C90	C	0.297239	1.002589	1.036001
C91	C	-0.326076	0.371262	0.326126
C92	C	0.007258	0.704595	0.659460
C93	C	0.340591	1.037928	0.992793
C94	C	-0.326074	0.447910	0.326117
C95	C	0.007259	0.781243	0.659451
C96	C	0.340593	1.114577	0.992784
C97	C	-0.326076	0.509002	0.326114
C98	C	0.007257	0.842335	0.659447
C99	C	0.340590	1.175669	0.992780
C100	C	-0.612492	1.021389	0.282845
C101	C	-0.279159	1.354722	0.616178
C102	C	0.054174	1.688056	0.949511
C103	C	-0.683181	1.021418	0.282860
C104	C	-0.349847	1.354751	0.616193
C105	C	-0.016514	1.688084	0.949526
C106	C	-0.718532	0.978119	0.326111
C107	C	-0.385199	1.311453	0.659445
C108	C	-0.051866	1.644786	0.992778
C109	C	-0.683192	0.934794	0.369356
C110	C	-0.349859	1.268128	0.702689
C111	C	-0.016525	1.601461	1.036023
C112	C	-0.612505	0.934769	0.369344
C113	C	-0.279171	1.268103	0.702677
C114	C	0.054162	1.601436	1.036010
C115	C	-0.968265	0.934894	0.369406
C116	C	-0.634932	1.268227	0.702739
C117	C	-0.301598	1.601561	1.036073
C118	C	-1.038957	0.934921	0.369413
C119	C	-0.705624	1.268254	0.702747
C120	C	-0.372291	1.601588	1.036080
C121	C	-1.038941	1.021542	0.282922
C122	C	-0.705608	1.354876	0.616255
C123	C	-0.372274	1.688209	0.949589
C124	C	-0.968254	1.021517	0.282910
C125	C	-0.634921	1.354851	0.616243
C126	C	-0.301587	1.688184	0.949577
C127	C	-0.932920	0.978195	0.326157
C128	C	-0.599586	1.311529	0.659490
C129	C	-0.266253	1.644862	0.992823
C130	C	-0.856271	0.978166	0.326141
C131	C	-0.522938	1.311499	0.659474
C132	C	-0.189605	1.644832	0.992807
C133	C	-0.795179	0.978145	0.326124
C134	C	-0.461846	1.311478	0.659458
C135	C	-0.128513	1.644812	0.992791
C136	C	-0.149526	0.978207	0.326156
C137	C	0.183807	1.311541	0.659490
C138	C	0.517141	1.644874	0.992823
C139	C	-0.074294	0.978248	0.326177
C140	C	0.259039	1.311581	0.659510
C141	C	0.592373	1.644915	0.992843
C142	C	-0.326026	0.978151	0.502651
C143	C	0.007307	1.311484	0.835985
C144	C	0.340641	1.644817	1.169318
C145	C	-0.326008	0.978167	0.577883
C146	C	0.007325	1.311500	0.911217
C147	C	0.340659	1.644833	1.244550
C148	C	-0.326082	1.154655	0.326131
C149	C	0.007251	1.487989	0.659464
C150	C	0.340584	1.821322	0.992798
C151	C	-0.326088	1.229887	0.326140
C152	C	0.007245	1.563221	0.659474
C153	C	0.340579	1.896554	0.992807
C154	C	-0.326062	0.978114	0.150253
C155	C	0.007271	1.311447	0.483586
C156	C	0.340604	1.644780	0.816919
C157	C	-0.325890	0.978229	0.075021
C158	C	0.007443	1.311562	0.408354
C159	C	0.340777	1.644895	0.741688
C160	C	-0.282719	1.021481	0.613246
C161	C	0.050615	1.354815	0.946579
C162	C	0.383948	1.688148	1.279912
C163	C	-0.282699	1.021488	0.683934
C164	C	0.050634	1.354822	1.017268
C165	C	0.383968	1.688155	1.350601
C166	C	-0.325973	0.978184	0.719259
C167	C	0.007361	1.311517	1.052592
C168	C	0.340694	1.644850	1.385926
C169	C	-0.369264	0.934864	0.683892
C170	C	-0.035930	1.268197	1.017225
C171	C	0.297403	1.601531	1.350558
C172	C	-0.369279	0.934854	0.613204
C173	C	-0.035946	1.268188	0.946538
C174	C	0.297387	1.601521	1.279871
C175	C	-0.369201	0.934902	0.968965
C176	C	-0.035867	1.268236	1.302298
C177	C	0.297466	1.601569	1.635632
C178	C	-0.369183	0.934917	1.039657
C179	C	-0.035850	1.268250	1.372991
C180	C	0.297484	1.601584	1.706324
C181	C	-0.282620	1.021536	1.039695
C182	C	0.050713	1.354870	1.373028
C183	C	0.384046	1.688203	1.706362
C184	C	-0.282636	1.021527	0.969008
C185	C	0.050697	1.354860	1.302341
C186	C	0.384031	1.688193	1.635674
C187	C	-0.325924	0.978205	0.933647
C188	C	0.007409	1.311538	1.266980
C189	C	0.340742	1.644872	1.600313
C190	C	-0.325944	0.978197	0.856998
C191	C	0.007389	1.311530	1.190331
C192	C	0.340723	1.644864	1.523665
C193	C	-0.325957	0.978194	0.795906
C194	C	0.007377	1.311528	1.129240
C195	C	0.340710	1.644861	1.462573
H196	H	-0.404707	0.720458	0.404481
H197	H	-0.071374	1.053792	0.737814
H198	H	0.261959	1.387125	1.071148
H199	H	-0.247448	0.236452	0.247747
H200	H	0.085885	0.569785	0.581080
H201	H	0.419219	0.903118	0.914413
C202	C	-0.235040	0.730559	0.235364
C203	C	0.098294	1.063892	0.568697
C204	C	0.431627	1.397226	0.902031
H205	H	-0.241239	0.777720	0.241553
H206	H	0.092094	1.111053	0.574886
H207	H	0.425428	1.444386	0.908220
H208	H	-0.244883	0.718953	0.189869
H209	H	0.088451	1.052287	0.523202
H210	H	0.421784	1.385620	0.856536
H211	H	-0.189575	0.718995	0.245361
H212	H	0.143759	1.052329	0.578694
H213	H	0.477092	1.385662	0.912027
H214	H	-0.247370	1.056809	1.068495
H215	H	0.085963	1.390142	1.401828
H216	H	0.419296	1.723475	1.735161
C217	C	-0.722077	0.887165	0.416930
C218	C	-0.388743	1.220499	0.750264
C219	C	-0.055410	1.553832	1.083597
H220	H	-0.769237	0.893379	0.410740
H221	H	-0.435903	1.226712	0.744073
H222	H	-0.102570	1.560046	1.077407
H223	H	-0.710455	0.897037	0.462416
H224	H	-0.377122	1.230371	0.795749
H225	H	-0.043789	1.563704	1.129082
H226	H	-0.710534	0.841689	0.406974
H227	H	-0.377200	1.175022	0.740307
H228	H	-0.043867	1.508355	1.073640
H229	H	-0.711948	1.056695	0.247649
H230	H	-0.378614	1.390029	0.580983
H231	H	-0.045281	1.723362	0.914316
C232	C	-0.416802	0.887237	0.930077
C233	C	-0.083469	1.220570	1.263410
C234	C	0.249865	1.553904	1.596743
H235	H	-0.442570	0.861449	0.961241
H236	H	-0.109237	1.194782	1.294574
H237	H	0.224097	1.528116	1.627907
H238	H	-0.390899	0.857760	0.902513
H239	H	-0.057566	1.191093	1.235847
H240	H	0.275768	1.524427	1.569180
H241	H	-0.446311	0.913094	0.902489
H242	H	-0.112978	1.246427	1.235822
H243	H	0.220356	1.579761	1.569156
C244	C	-1.077846	0.887297	0.416996
C245	C	-0.744513	1.220630	0.750329
C246	C	-0.411180	1.553963	1.083662
H247	H	-1.125005	0.893513	0.410802
H248	H	-0.791672	1.226846	0.744136
H249	H	-0.458339	1.560180	1.077469
H250	H	-1.066226	0.897175	0.462480
H251	H	-0.732893	1.230508	0.795813
H252	H	-0.399559	1.563842	1.129147
H253	H	-1.066306	0.841817	0.407047
H254	H	-0.732973	1.175150	0.740380
H255	H	-0.399640	1.508484	1.073714
H256	H	-0.247442	0.364686	0.247733
H257	H	0.085891	0.698019	0.581066
H258	H	0.419225	1.031352	0.914399
H259	H	-1.067719	1.056820	0.247711
H260	H	-0.734385	1.390153	0.581044
H261	H	-0.401052	1.723487	0.914378
C262	C	-0.929406	0.887230	0.416963
C263	C	-0.596073	1.220563	0.750297
C264	C	-0.262740	1.553897	1.083630
H265	H	-0.960586	0.861441	0.442715
H266	H	-0.627253	1.194774	0.776048
H267	H	-0.293920	1.528107	1.109382
H268	H	-0.901787	0.913085	0.446479
H269	H	-0.568454	1.246418	0.779812
H270	H	-0.235120	1.579752	1.113146
H271	H	-0.901877	0.857744	0.391030
H272	H	-0.568544	1.191077	0.724363
H273	H	-0.235210	1.524410	1.057696
H274	H	-0.404495	0.899602	0.712659
H275	H	-0.071162	1.232935	1.045992
H276	H	0.262171	1.566269	1.379325
C277	C	-0.235033	1.069159	0.930154
C278	C	0.098300	1.402493	1.263487
C279	C	0.431634	1.735826	1.596821
H280	H	-0.209243	1.094953	0.961339
H281	H	0.124090	1.428286	1.294673
H282	H	0.457424	1.761619	1.628006
H283	H	-0.260930	1.098633	0.902575
H284	H	0.072403	1.431966	1.235908
H285	H	0.405737	1.765299	1.569242
H286	H	-0.205545	1.043272	0.902585
H287	H	0.127789	1.376605	1.235918
H288	H	0.461122	1.709938	1.569252
C289	C	-0.235050	0.582115	0.235373
C290	C	0.098284	0.915448	0.568707
C291	C	0.431617	1.248782	0.902040
H292	H	-0.241265	0.534954	0.241559
H293	H	0.092068	0.868288	0.574892
H294	H	0.425402	1.201621	0.908225
H295	H	-0.189584	0.593719	0.245358
H296	H	0.143749	0.927053	0.578691
H297	H	0.477083	1.260386	0.912025
H298	H	-0.244902	0.593679	0.189876
H299	H	0.088431	0.927012	0.523209
H300	H	0.421765	1.260346	0.856543
H301	H	-0.404709	0.592225	0.404496
H302	H	-0.071376	0.925558	0.737829
H303	H	0.261957	1.258891	1.071163
C304	C	-0.416781	0.887275	1.078514
C305	C	-0.083448	1.220608	1.411847
C306	C	0.249885	1.553941	1.745180
H307	H	-0.442560	0.861467	1.047330
H308	H	-0.109227	1.194800	1.380664
H309	H	0.224107	1.528134	1.713997
H310	H	-0.446270	0.913152	1.106085
H311	H	-0.112937	1.246485	1.439419
H312	H	0.220397	1.579818	1.772752
H313	H	-0.390872	0.857804	1.106090
H314	H	-0.057538	1.191137	1.439423
H315	H	0.275795	1.524471	1.772757
C316	C	-0.573611	1.069019	0.235268
C317	C	-0.240278	1.402352	0.568602
C318	C	0.093055	1.735685	0.901935
H319	H	-0.604783	1.094829	0.209524
H320	H	-0.271449	1.428162	0.542857
H321	H	0.061884	1.761496	0.876190
H322	H	-0.546076	1.043138	0.205747
H323	H	-0.212743	1.376471	0.539080
H324	H	0.120590	1.709805	0.872414
H325	H	-0.545997	1.098487	0.261188
H326	H	-0.212663	1.431821	0.594522
H327	H	0.120670	1.765154	0.927855
C328	C	-0.235119	1.069117	0.574392
C329	C	0.098214	1.402450	0.907725
C330	C	0.431548	1.735783	1.241058
H331	H	-0.241331	1.062913	0.527228
H332	H	0.092002	1.396247	0.860561
H333	H	0.425336	1.729580	1.193894
H334	H	-0.189639	1.059238	0.585987
H335	H	0.143695	1.392571	0.919321
H336	H	0.477028	1.725905	1.252654
H337	H	-0.245030	1.114592	0.585984
H338	H	0.088303	1.447926	0.919317
H339	H	0.421636	1.781259	1.252650
C340	C	-0.929370	1.069148	0.235336
C341	C	-0.596037	1.402481	0.568669
C342	C	-0.262704	1.735814	0.902002
H343	H	-0.960540	1.094959	0.209590
H344	H	-0.627206	1.428292	0.542923
H345	H	-0.293873	1.761626	0.876256
H346	H	-0.901834	1.043267	0.205815
H347	H	-0.568501	1.376600	0.539149
H348	H	-0.235168	1.709933	0.872482
H349	H	-0.901757	1.098615	0.261258
H350	H	-0.568423	1.431948	0.594591
H351	H	-0.235090	1.765281	0.927925
C352	C	-0.417101	0.374800	0.416859
C353	C	-0.083767	0.708134	0.750193
C354	C	0.249566	1.041467	1.083526
H355	H	-0.442912	0.343628	0.442600
H356	H	-0.109578	0.676961	0.775933
H357	H	0.223755	1.010295	1.109266
H358	H	-0.446556	0.402355	0.390915
H359	H	-0.113223	0.735688	0.724248
H360	H	0.220110	1.069022	1.057581
H361	H	-0.391238	0.402396	0.446397
H362	H	-0.057905	0.735729	0.779730
H363	H	0.275428	1.069062	1.113063
C364	C	-0.573636	0.887115	0.416908
C365	C	-0.240302	1.220449	0.750242
C366	C	0.093031	1.553782	1.083575
H367	H	-0.604813	0.861328	0.442666
H368	H	-0.271479	1.194662	0.776000
H369	H	0.061854	1.527995	1.109333
H370	H	-0.546021	0.912983	0.446418
H371	H	-0.212688	1.246316	0.779751
H372	H	0.120646	1.579649	1.113084
H373	H	-0.546101	0.857626	0.390984
H374	H	-0.212768	1.190959	0.724317
H375	H	0.120565	1.524293	1.057650
C376	C	-0.416914	0.887225	0.574306
C377	C	-0.083581	1.220558	0.907639
C378	C	0.249752	1.553892	1.240972
H379	H	-0.442693	0.861444	0.605467
H380	H	-0.109360	1.194777	0.938800
H381	H	0.223973	1.528111	1.272133
H382	H	-0.391040	0.857739	0.546724
H383	H	-0.057707	1.191073	0.880058
H384	H	0.275626	1.524406	1.213391
H385	H	-0.446411	0.913115	0.546736
H386	H	-0.113078	1.246448	0.880069
H387	H	0.220255	1.579781	1.213403
C388	C	-0.235099	1.069150	0.722833
C389	C	0.098234	1.402483	1.056167
C390	C	0.431568	1.735817	1.389500
H391	H	-0.241285	1.062954	0.769991
H392	H	0.092049	1.396288	1.103324
H393	H	0.425382	1.729621	1.436658
H394	H	-0.245027	1.114615	0.711248
H395	H	0.088306	1.447948	1.044582
H396	H	0.421639	1.781281	1.377915
H397	H	-0.189616	1.059280	0.711265
H398	H	0.143717	1.392613	1.044599
H399	H	0.477051	1.725946	1.377932
H400	H	-0.404729	0.236454	0.404524
H401	H	-0.071395	0.569787	0.737857
H402	H	0.261938	0.903120	1.071191
