data_functionalizedCrystal
_audit_creation_method	'MofGen! by Chris Wilmer'
_symmetry_space_group_name_H-M	'P1'
_symmetry_Int_Tables_number	1
_symmetry_cell_setting	triclinic
loop_
_symmetry_equiv_pos_as_xyz
  x,y,z
_cell_length_a	16.974800
_cell_length_b	10.908878
_cell_length_c	16.053811
_cell_angle_alpha	91.926720
_cell_angle_beta	91.073829
_cell_angle_gamma	71.762299
loop_
_atom_site_label
_atom_site_type_symbol
_atom_site_fract_x
_atom_site_fract_y
_atom_site_fract_z
O1	O	1.027632	0.163617	0.000034
O2	O	1.527632	0.663617	0.500034
O3	O	0.795596	0.183266	-0.015652
O4	O	1.295596	0.683266	0.484348
O5	O	0.942373	-0.013385	-0.005727
O6	O	1.442373	0.486615	0.494273
O7	O	0.880855	0.360268	-0.009892
O8	O	1.380855	0.860268	0.490108
O9	O	0.934299	-0.002605	0.132586
O10	O	1.434299	0.497395	0.632586
O11	O	0.787521	0.194046	0.122661
O12	O	1.287521	0.694046	0.622661
O13	O	1.019558	0.174398	0.138347
O14	O	1.519558	0.674398	0.638347
Zn15	Zn	0.902258	0.185934	0.152464
Zn16	Zn	1.402258	0.685934	0.652464
Zn17	Zn	0.912896	0.171730	-0.029769
Zn18	Zn	1.412896	0.671730	0.470231
O19	O	0.872781	0.371049	0.128421
O20	O	1.372781	0.871049	0.628421
C21	C	0.762319	0.187711	0.051528
C22	C	1.262319	0.687711	0.551528
C23	C	0.675198	0.184881	0.045639
C24	C	1.175198	0.684881	0.545639
C25	C	0.629872	0.189425	0.118268
C26	C	1.129872	0.689425	0.618268
C27	C	0.548016	0.186745	0.112737
C28	C	1.048016	0.686745	0.612737
C29	C	0.511486	0.179531	0.034576
C30	C	1.011486	0.679531	0.534576
C31	C	0.556819	0.174983	-0.038059
C32	C	1.056819	0.674983	0.461941
C33	C	0.638675	0.177653	-0.032527
C34	C	1.138675	0.677653	0.467473
C35	C	0.267146	0.170905	0.009946
C36	C	0.767146	0.670905	0.509946
C37	C	0.185283	0.168238	0.004419
C38	C	0.685283	0.668238	0.504419
C39	C	0.176486	0.179998	0.155216
C40	C	0.676486	0.679998	0.655216
C41	C	0.258343	0.182676	0.160741
C42	C	0.758343	0.682676	0.660741
C43	C	0.303670	0.178121	0.088107
C44	C	0.803670	0.678121	0.588107
N45	N	0.427815	0.176795	0.028920
N46	N	0.927815	0.676795	0.528920
N47	N	0.387341	0.180847	0.093763
N48	N	0.887341	0.680847	0.593763
C49	C	0.944085	-0.055817	0.063817
C50	C	1.444085	0.444183	0.563817
C51	C	0.961207	-0.198312	0.064972
C52	C	1.461207	0.301688	0.564972
C53	C	0.898734	-0.247533	0.060747
C54	C	1.398734	0.252467	0.560747
C55	C	0.916429	-0.394809	0.061941
C56	C	1.416429	0.105191	0.561941
C57	C	1.052835	0.169952	0.071165
C58	C	1.552835	0.669952	0.571165
C59	C	1.139957	0.172782	0.077049
C60	C	1.639957	0.672782	0.577049
C61	C	0.871069	0.413480	0.058875
C62	C	1.371069	0.913480	0.558875
C63	C	0.853947	0.555975	0.057715
C64	C	1.353947	1.055975	0.557715
N65	N	0.895003	0.195627	0.276834
N66	N	1.395003	0.695627	0.776834
C67	C	0.957472	0.111981	0.324752
C68	C	1.457472	0.611981	0.824752
C69	C	0.952403	0.118774	0.411816
C70	C	1.452403	0.618774	0.911816
C71	C	0.884868	0.209219	0.450960
C72	C	1.384868	0.709219	0.950960
C73	C	0.822394	0.292868	0.403036
C74	C	1.322394	0.792868	0.903036
C75	C	0.827460	0.286068	0.315973
C76	C	1.327460	0.786068	0.815973
C77	C	0.862743	0.238883	0.710874
C78	C	1.362743	0.738883	1.210874
C79	C	0.857682	0.245679	0.797943
C80	C	1.357682	0.745679	1.297943
C81	C	0.987691	0.071583	0.806717
C82	C	1.487691	0.571583	1.306717
C83	C	0.992754	0.064797	0.719653
C84	C	1.492754	0.564797	1.219653
C85	C	0.930278	0.148441	0.671735
C86	C	1.430278	0.648441	1.171735
N87	N	0.879687	0.216167	0.539954
N88	N	1.379687	0.716167	1.039954
N89	N	0.935457	0.141486	0.582743
N90	N	1.435457	0.641486	1.082743
N91	N	0.920151	0.162034	0.845861
N92	N	1.420151	0.662034	1.345861
H93	H	0.288081	0.188545	0.224389
H94	H	0.788081	0.688545	0.724389
O95	O	0.669261	0.197221	0.202575
O96	O	1.169261	0.697221	0.702575
H97	H	0.724834	0.111324	0.209958
H98	H	1.224834	0.611324	0.709958
O99	O	0.687572	0.172737	-0.110861
O100	O	1.187572	0.672737	0.389139
H101	H	0.706605	0.261065	-0.113200
H102	H	1.206605	0.761065	0.386800
H103	H	0.983018	-0.461696	0.066445
H104	H	1.483018	0.038304	0.566445
H105	H	0.802684	0.319335	0.829810
H106	H	1.302684	0.819335	1.329810
O107	O	0.316028	0.166006	-0.068392
O108	O	0.816028	0.666006	0.431608
H109	H	0.276868	0.160557	-0.123669
H110	H	0.776868	0.660557	0.376331
H111	H	0.767402	0.366506	0.434912
H112	H	1.267402	0.866506	0.934912
O113	O	0.517421	0.167184	-0.122362
O114	O	1.017421	0.667184	0.377638
H115	H	0.562698	0.164455	-0.171936
H116	H	1.062698	0.664455	0.328064
H117	H	0.787357	-0.377139	0.053222
H118	H	1.287357	0.122861	0.553222
O119	O	0.810532	-0.158937	0.054788
O120	O	1.310532	0.341063	0.554788
H121	H	0.774929	-0.172945	0.108981
H122	H	1.274929	0.327055	0.608981
H123	H	1.027792	-0.265203	0.069476
H124	H	1.527792	0.234797	0.569476
O125	O	1.030312	0.014425	0.282532
O126	O	1.530312	0.514425	0.782532
H127	H	1.072893	-0.042607	0.330483
H128	H	1.572893	0.457393	0.830483
O129	O	1.019790	0.028581	0.463503
O130	O	1.519790	0.528581	0.963503
H131	H	1.067612	-0.035433	0.421657
H132	H	1.567612	0.464567	0.921657
H133	H	0.511119	0.190423	0.171880
H134	H	1.011119	0.690423	0.671880
O135	O	1.065590	-0.032765	0.677431
O136	O	1.565590	0.467235	1.177431
H137	H	1.108174	-0.089799	0.725379
H138	H	1.608174	0.410201	1.225379
H139	H	1.038556	0.003482	0.845739
H140	H	1.538556	0.503482	1.345739
O141	O	0.795364	0.329104	0.659198
O142	O	1.295364	0.829104	1.159198
H143	H	0.791319	0.430510	0.675685
H144	H	1.291319	0.930510	1.175685
O145	O	0.127463	0.185561	0.233546
O146	O	0.627463	0.685561	0.733546
H147	H	0.064357	0.182724	0.216568
H148	H	0.564357	0.682724	0.716568
O149	O	0.145879	0.160449	-0.079887
O150	O	0.645879	0.660449	0.420113
H151	H	0.191151	0.157718	-0.129466
H152	H	0.691151	0.657718	0.370534
O153	O	0.760088	0.376290	0.264283
O154	O	1.260088	0.876290	0.764283
H155	H	0.712279	0.440334	0.306128
H156	H	1.212279	0.940334	0.806128
