data_functionalizedCrystal
_audit_creation_method	'MofGen! by Chris Wilmer'
_symmetry_space_group_name_H-M	'P1'
_symmetry_Int_Tables_number	1
_symmetry_cell_setting	triclinic
loop_
_symmetry_equiv_pos_as_xyz
  x,y,z
_cell_length_a	10.723023
_cell_length_b	17.699104
_cell_length_c	16.776229
_cell_angle_alpha	90.007465
_cell_angle_beta	89.992604
_cell_angle_gamma	96.120467
loop_
_atom_site_label
_atom_site_type_symbol
_atom_site_fract_x
_atom_site_fract_y
_atom_site_fract_z
O1	O	1.655387	-0.106150	-0.066288
O2	O	1.292062	-0.116312	-0.066290
O3	O	1.483976	-0.001108	-0.066282
O4	O	1.463473	-0.221354	-0.066296
O5	O	1.483949	-0.001101	0.066295
O6	O	1.292035	-0.116305	0.066286
O7	O	1.655360	-0.106143	0.066289
Zn8	Zn	1.473693	-0.111223	0.087337
Zn9	Zn	1.473729	-0.111232	-0.087338
O10	O	1.463446	-0.221348	0.066280
C11	C	1.245561	-0.115569	-0.000002
C12	C	1.107045	-0.113357	-0.000003
C13	C	0.902118	-0.110081	0.068673
C14	C	1.045283	-0.112367	0.068675
C15	C	1.483223	0.027097	0.000007
C16	C	1.481006	0.111129	0.000007
C17	C	1.701861	-0.106886	-0.000001
C18	C	1.840378	-0.109098	-0.000006
C19	C	1.464199	-0.249552	-0.000010
C20	C	1.466416	-0.333584	-0.000015
N21	N	1.473678	-0.111216	0.206548
C22	C	1.581151	0.635368	-0.000015
C23	C	1.583227	0.556411	-0.000008
C24	C	1.470566	0.508504	-0.000007
C25	C	1.355822	0.539557	-0.000005
C26	C	1.353748	0.618513	-0.000006
C27	C	1.364186	0.221139	0.000002
C28	C	1.366269	0.142178	0.000001
C29	C	1.593666	0.159037	0.000000
C30	C	1.591591	0.237992	-0.000001
C31	C	1.476848	0.269039	0.000005
C32	C	1.474598	0.354653	-0.000001
C33	C	1.472815	0.422891	-0.000006
C34	C	1.558683	-0.060225	0.248269
C35	C	1.558689	-0.060225	0.331721
C36	C	1.473695	-0.111220	0.373451
C37	C	1.388681	-0.162213	0.331724
C38	C	1.388670	-0.162209	0.248274
C39	C	1.388722	-0.162229	0.668272
C40	C	1.388742	-0.162231	0.751728
C41	C	1.558741	-0.060245	0.751719
C42	C	1.558730	-0.060241	0.668268
C43	C	1.473712	-0.111231	0.626549
C44	C	1.473705	-0.111230	0.536061
C45	C	1.473707	-0.111225	0.463938
N46	N	1.473742	-0.111236	0.793450
H47	H	1.672893	0.674369	-0.000023
O48	O	1.234304	0.487891	0.000003
H49	H	1.229809	0.451513	-0.054036
O50	O	1.036750	-0.112233	-0.077902
H51	H	0.966182	-0.162782	-0.081327
O52	O	0.910752	-0.110222	-0.077890
H53	H	0.874590	-0.161322	-0.112570
H54	H	0.848988	-0.109234	0.127470
O55	O	1.706976	0.522920	-0.000026
H56	H	1.784967	0.569497	-0.000043
H57	H	1.683331	0.276995	-0.000006
O58	O	1.297041	-0.217234	0.623283
H59	H	1.236474	-0.185041	0.585283
H60	H	1.687095	0.133750	-0.000016
H61	H	1.274522	0.103173	0.000004
H62	H	1.627944	-0.018719	0.634294
H63	H	1.270755	0.246407	-0.000002
O64	O	1.650433	-0.005238	0.796714
H65	H	1.636157	-0.013798	0.861754
O66	O	1.115597	-0.113500	0.146567
H67	H	1.101960	-0.061607	0.181251
H68	H	1.319471	-0.203732	0.365706
O69	O	1.229999	0.652007	-0.000010
H70	H	1.152006	0.605431	-0.000016
H71	H	1.627900	-0.018703	0.214298
O72	O	1.650394	-0.005242	0.376723
H73	H	1.709512	0.030207	0.333686
H74	H	1.319525	-0.203758	0.785703
H75	H	1.319449	-0.203730	0.214305
