data_functionalizedCrystal
_audit_creation_method	'MofGen! by Chris Wilmer'
_symmetry_space_group_name_H-M	'P1'
_symmetry_Int_Tables_number	1
_symmetry_cell_setting	triclinic
loop_
_symmetry_equiv_pos_as_xyz
  x,y,z
_cell_length_a	18.101395
_cell_length_b	16.120716
_cell_length_c	16.120256
_cell_angle_alpha	95.916247
_cell_angle_beta	92.874436
_cell_angle_gamma	87.129344
loop_
_atom_site_label
_atom_site_type_symbol
_atom_site_fract_x
_atom_site_fract_y
_atom_site_fract_z
Zn1	Zn	-0.369777	1.253754	-0.407820
Zn2	Zn	-0.487635	1.260723	-0.268058
Zn3	Zn	-0.357833	1.121072	-0.275151
Zn4	Zn	-0.487592	1.113934	-0.414867
O5	O	-0.425710	1.187371	-0.341474
O6	O	-0.390428	1.371638	-0.383363
O7	O	-0.465436	1.248102	-0.152036
O8	O	-0.255789	1.138744	-0.292769
O9	O	-0.477018	1.376758	-0.280680
O10	O	-0.264564	1.236225	-0.390241
O11	O	-0.370071	1.145501	-0.157247
O12	O	-0.370030	1.003166	-0.299602
O13	O	-0.476945	1.126577	-0.530895
O14	O	-0.465363	0.997921	-0.402251
O15	O	-0.390386	1.229303	-0.525718
O16	O	-0.591259	1.241180	-0.287513
O17	O	-0.591227	1.133334	-0.395373
C18	C	-0.618114	1.187260	-0.341455
C19	C	-0.700430	1.187288	-0.341471
C20	C	-0.416396	0.970217	-0.352462
C21	C	-0.412431	0.877316	-0.357182
C22	C	-0.434993	1.176366	-0.559482
C23	C	-0.438949	1.171677	-0.652384
C24	C	-0.999531	1.187469	-0.341507
C25	C	-0.968230	1.119757	-0.409522
C26	C	-0.882590	1.119461	-0.409335
C27	C	-0.851144	1.187379	-0.341490
C28	C	-0.877502	1.167999	-0.254610
C29	C	-0.963146	1.167564	-0.255018
C30	C	-0.972627	1.274742	-0.359590
C31	C	-0.887036	1.274124	-0.361548
C32	C	-0.767281	1.187330	-0.341475
C33	C	-1.083393	1.187516	-0.341516
C34	C	-0.232555	1.187504	-0.341510
C35	C	-0.150244	1.187560	-0.341526
C36	C	-0.435060	1.405373	-0.330444
C37	C	-0.439044	1.498272	-0.325744
C38	C	-0.446280	1.668363	-0.317109
C39	C	-0.405197	1.707231	-0.365815
C40	C	-0.409223	1.801876	-0.361010
C41	C	-0.442255	1.573710	-0.321912
C42	C	-0.405061	1.211825	-0.861309
C43	C	-0.446139	1.163087	-0.822472
C44	C	-0.442137	1.167868	-0.727826
C45	C	-0.409062	1.207045	-0.955963
C46	C	-0.416411	1.198381	-0.124312
C47	C	-0.412253	1.203232	-0.031403
H48	H	-0.992216	1.131206	-0.474303
C49	C	-0.992760	1.032770	-0.394045
H50	H	-1.021992	1.037538	-0.346312
H51	H	-1.021105	1.009889	-0.441343
H52	H	-0.950309	0.997219	-0.384915
H53	H	-0.484309	1.117766	-0.860305
H54	H	-0.366999	1.669428	-0.411120
C55	C	-0.858771	1.135112	-0.496558
H56	H	-0.901467	1.141708	-0.532425
H57	H	-0.831497	1.184319	-0.492368
H58	H	-0.828663	1.088943	-0.518702
C59	C	-0.850336	1.031955	-0.393631
H60	H	-0.797825	1.031472	-0.393472
H61	H	-0.865148	1.018310	-0.341173
H62	H	-0.868127	0.992094	-0.436574
C63	C	-0.985383	1.081561	-0.233631
H64	H	-0.942093	1.047216	-0.224779
H65	H	-1.012720	1.088323	-0.184414
H66	H	-1.015042	1.056076	-0.278520
C67	C	-0.990847	1.231609	-0.184541
H68	H	-0.949757	1.257772	-0.155783
H69	H	-1.022852	1.272594	-0.207701
H70	H	-1.017011	1.203958	-0.146643
H71	H	-0.484473	1.706164	-0.271805
C72	C	-0.864328	1.293982	-0.447896
H73	H	-0.886221	1.346526	-0.459674
H74	H	-0.811963	1.295819	-0.448000
H75	H	-0.880808	1.251849	-0.489291
C76	C	-0.849743	1.232785	-0.184543
H77	H	-0.821762	1.272320	-0.207708
H78	H	-0.890901	1.260649	-0.157732
H79	H	-0.819425	1.205350	-0.144968
C80	C	-0.843802	1.082939	-0.232706
H81	H	-0.813668	1.059128	-0.276388
H82	H	-0.814529	1.090489	-0.182154
H83	H	-0.882427	1.046714	-0.226081
H84	H	-0.865916	1.326883	-0.315263
H85	H	-0.366890	1.257138	-0.823479
H86	H	-0.997809	1.293282	-0.421627
C87	C	-0.999954	1.342804	-0.292541
H88	H	-1.027636	1.318202	-0.253719
H89	H	-0.958616	1.368816	-0.264180
H90	H	-1.030462	1.383370	-0.318345
