data_functionalizedCrystal
_audit_creation_method	'MofGen! by Chris Wilmer'
_symmetry_space_group_name_H-M	'P1'
_symmetry_Int_Tables_number	1
_symmetry_cell_setting	triclinic
loop_
_symmetry_equiv_pos_as_xyz
  x,y,z
_cell_length_a	16.992701
_cell_length_b	16.992695
_cell_length_c	16.176319
_cell_angle_alpha	89.993125
_cell_angle_beta	89.992649
_cell_angle_gamma	90.667696
loop_
_atom_site_label
_atom_site_type_symbol
_atom_site_fract_x
_atom_site_fract_y
_atom_site_fract_z
O1	O	1.050853	0.166909	-0.068754
O2	O	0.822453	0.165080	-0.068755
O3	O	0.935738	0.051795	-0.068748
O4	O	0.937569	0.280195	-0.068761
O5	O	0.935721	0.051786	0.068745
O6	O	0.822436	0.165071	0.068739
O7	O	1.050836	0.166900	0.068739
Cu8	Cu	0.936635	0.165985	0.081293
Cu9	Cu	0.936655	0.165995	-0.081309
O10	O	0.937552	0.280186	0.068732
C11	C	0.793085	0.162720	-0.000008
C12	C	0.705600	0.155692	-0.000008
C13	C	0.933373	0.022430	-0.000001
C14	C	0.926345	-0.065055	-0.000002
C15	C	0.213682	0.108471	-0.000008
C16	C	0.295882	0.115080	-0.000004
C17	C	0.332089	0.189508	-0.000012
C18	C	0.286091	0.257331	-0.000016
C19	C	0.203892	0.250720	-0.000015
C20	C	0.577403	0.216905	-0.000011
C21	C	0.659608	0.223510	-0.000015
C22	C	0.669394	0.081258	-0.000001
C23	C	0.587192	0.074655	-0.000005
C24	C	0.541202	0.142477	-0.000004
N25	N	0.416111	0.196266	-0.000010
N26	N	0.457181	0.135719	-0.000001
C27	C	0.994163	-0.111046	-0.000001
C28	C	0.987554	-0.193247	-0.000008
C29	C	0.913126	-0.229454	-0.000011
C30	C	0.845303	-0.183457	-0.000015
C31	C	0.851913	-0.101258	-0.000013
C32	C	0.885732	-0.474768	-0.000023
C33	C	0.879127	-0.556974	-0.000022
C34	C	1.021378	-0.566758	-0.000017
C35	C	1.027981	-0.484557	-0.000011
C36	C	0.960158	-0.438566	-0.000018
N37	N	0.906369	-0.313476	-0.000017
N38	N	0.966916	-0.354546	-0.000019
C39	C	1.080205	0.169260	-0.000010
C40	C	1.167689	0.176288	-0.000015
C41	C	0.939916	0.309550	-0.000016
C42	C	0.946945	0.397035	-0.000021
N43	N	0.936626	0.165978	0.195658
N44	N	0.936669	0.165997	-0.195674
C45	C	0.986806	0.115838	0.238925
C46	C	0.986810	0.115837	0.325472
C47	C	0.936637	0.165981	0.368751
C48	C	0.886452	0.216123	0.325478
C49	C	0.886445	0.216119	0.238932
C50	C	0.886480	0.216140	0.674506
C51	C	0.886493	0.216141	0.761057
C52	C	0.986845	0.115858	0.761046
C53	C	0.986838	0.115854	0.674501
C54	C	0.936650	0.165992	0.631235
C55	C	0.936645	0.165991	0.537391
C56	C	0.936646	0.165987	0.462593
H57	H	0.184208	0.047863	-0.000007
H58	H	0.333326	0.059856	0.000005
Cl59	Cl	1.049888	0.052799	0.184527
Cl60	Cl	0.541681	-0.018916	-0.000024
Cl61	Cl	0.146073	0.335981	-0.000017
H62	H	1.076596	-0.604212	-0.000013
Cl63	Cl	1.072815	-0.251061	-0.000005
H64	H	0.706848	0.026041	0.000000
H65	H	0.315577	0.317932	-0.000017
H66	H	1.054770	-0.081572	0.000007
H67	H	1.088588	-0.455083	-0.000008
Cl68	Cl	0.785554	-0.602490	-0.000021
H69	H	1.027696	0.075025	0.639266
Cl70	Cl	0.705124	0.317083	-0.000024
H71	H	0.830505	-0.437333	-0.000029
Cl72	Cl	0.751736	-0.228975	-0.000029
H73	H	0.796688	-0.063812	-0.000014
H74	H	1.027709	0.075029	0.796282
Cl75	Cl	0.823392	0.279173	0.620120
H76	H	1.027669	0.075009	0.360700
Cl77	Cl	0.519596	0.302169	-0.000022
H78	H	0.845634	0.256976	0.796293
H79	H	0.845597	0.256948	0.360720
H80	H	0.845582	0.256947	0.203705
