data_functionalizedCrystal
_audit_creation_method	'MofGen! by Chris Wilmer'
_symmetry_space_group_name_H-M	'P1'
_symmetry_Int_Tables_number	1
_symmetry_cell_setting	triclinic
loop_
_symmetry_equiv_pos_as_xyz
  x,y,z
_cell_length_a	17.640280
_cell_length_b	18.215407
_cell_length_c	18.215399
_cell_angle_alpha	89.980167
_cell_angle_beta	101.224603
_cell_angle_gamma	101.199291
loop_
_atom_site_label
_atom_site_type_symbol
_atom_site_fract_x
_atom_site_fract_y
_atom_site_fract_z
Zn1	Zn	-0.314661	-1.184366	0.356963
Zn2	Zn	0.185339	-0.684366	0.856963
Zn3	Zn	-0.446838	-1.209181	0.209048
Zn4	Zn	0.053162	-0.709181	0.709048
Zn5	Zn	-0.314687	-1.061303	0.233905
Zn6	Zn	0.185313	-0.561303	0.733905
Zn7	Zn	-0.446794	-1.086163	0.332082
Zn8	Zn	0.053206	-0.586163	0.832082
O9	O	-0.380745	-1.135253	0.282999
O10	O	0.119255	-0.635253	0.782999
O11	O	-0.332202	-1.290643	0.337352
O12	O	0.167798	-0.790643	0.837352
O13	O	-0.429337	-1.189546	0.109356
O14	O	0.070663	-0.689546	0.609356
O15	O	-0.204079	-1.056838	0.271045
O16	O	0.295921	-0.556838	0.771045
O17	O	-0.429312	-1.308875	0.228680
O18	O	0.070688	-0.808875	0.728680
O19	O	-0.204060	-1.147252	0.361454
O20	O	0.295940	-0.647252	0.861454
O21	O	-0.332246	-1.080901	0.127618
O22	O	0.167754	-0.580901	0.627618
O23	O	-0.332203	-0.961615	0.246918
O24	O	0.167797	-0.461615	0.746918
O25	O	-0.429237	-1.099208	0.438372
O26	O	0.070763	-0.599208	0.938372
O27	O	-0.429262	-0.979879	0.319048
O28	O	0.070738	-0.479879	0.819048
O29	O	-0.332159	-1.171357	0.456652
O30	O	0.167841	-0.671357	0.956652
O31	O	-0.557436	-1.213652	0.204553
O32	O	-0.057436	-0.713652	0.704553
O33	O	-0.557404	-1.123271	0.294945
O34	O	-0.057404	-0.623271	0.794945
C35	C	-0.586099	-1.173871	0.244368
C36	C	-0.086099	-0.673871	0.744368
C37	C	-0.673950	-1.190460	0.227866
C38	C	-0.173950	-0.690460	0.727866
C39	C	-0.380731	-0.944044	0.282981
C40	C	0.119269	-0.444044	0.782981
C41	C	-0.380745	-0.862248	0.282987
C42	C	0.119255	-0.362248	0.782987
C43	C	-0.380690	-1.135288	0.474963
C44	C	0.119310	-0.635288	0.974963
C45	C	-0.380667	-1.135302	0.556766
C46	C	0.119333	-0.635302	1.056766
C47	C	-0.962935	-1.009534	0.408631
C48	C	-0.462935	-0.509534	0.908631
C49	C	-1.045484	-1.025123	0.393101
C50	C	-0.545484	-0.525123	0.893101
C51	C	-1.045452	-1.119295	0.299071
C52	C	-0.545452	-0.619295	0.799071
C53	C	-0.962901	-1.103717	0.314596
C54	C	-0.462901	-0.603717	0.814596
C55	C	-0.921649	-1.048835	0.369375
C56	C	-0.421649	-0.548835	0.869375
C57	C	-0.921615	-1.143018	0.275340
C58	C	-0.421615	-0.643018	0.775340
C59	C	-0.839071	-1.127438	0.290861
C60	C	-0.339071	-0.627438	0.790861
C61	C	-0.797813	-1.072557	0.345636
C62	C	-0.297813	-0.572557	0.845636
C63	C	-0.839105	-1.033255	0.384896
C64	C	-0.339105	-0.533255	0.884896
C65	C	-0.962869	-1.197896	0.220557
C66	C	-0.462869	-0.697896	0.720557
C67	C	-0.921583	-1.237196	0.181301
C68	C	-0.421583	-0.737196	0.681301
C69	C	-0.839038	-1.221620	0.196825
C70	C	-0.339038	-0.721620	0.696825
C71	C	-0.797780	-1.166739	0.251601
C72	C	-0.297780	-0.666739	0.751601
C73	C	-0.797746	-1.260922	0.157566
C74	C	-0.297746	-0.760922	0.657566
C75	C	-0.715202	-1.245342	0.173086
C76	C	-0.215202	-0.745342	0.673086
C77	C	-0.715236	-1.151159	0.267122
C78	C	-0.215236	-0.651159	0.767122
C79	C	-0.174589	-1.096504	0.321798
C80	C	0.325411	-0.596504	0.821798
C81	C	-0.086738	-1.079991	0.338331
C82	C	0.413262	-0.579991	0.838331
C83	C	-0.380759	-1.327209	0.283018
C84	C	0.119241	-0.827209	0.783018
C85	C	-0.380765	-1.409009	0.283027
C86	C	0.119235	-0.909009	0.783027
C87	C	-0.431363	-0.683598	0.320471
C88	C	0.068637	-0.183598	0.820471
C89	C	-0.431365	-0.606740	0.320479
C90	C	0.068635	-0.106740	0.820479
C91	C	-0.330142	-0.587662	0.245542
C92	C	0.169858	-0.087662	0.745542
C93	C	-0.330136	-0.664519	0.245538
C94	C	0.169864	-0.164519	0.745538
C95	C	-0.380751	-0.712485	0.283000
C96	C	0.119249	-0.212485	0.783000
C97	C	-0.380759	-0.558771	0.283013
C98	C	0.119241	-0.058771	0.783013
C99	C	-0.380761	-0.475438	0.283022
C100	C	0.119239	0.024562	0.783022
C101	C	-0.380748	-0.795824	0.282993
C102	C	0.119252	-0.295824	0.782993
C103	C	-0.380742	-1.135250	0.091794
C104	C	0.119258	-0.635250	0.591794
C105	C	-0.380543	-1.135336	0.010033
C106	C	0.119457	-0.635336	0.510033
C107	C	-0.330072	-1.172878	0.754489
C108	C	0.169928	-0.672878	1.254489
C109	C	-0.330049	-1.172883	0.831352
C110	C	0.169951	-0.672883	1.331352
C111	C	-0.431141	-1.097755	0.812304
C112	C	0.068859	-0.597755	1.312304
C113	C	-0.431159	-1.097747	0.735444
C114	C	0.068841	-0.597747	1.235444
C115	C	-0.380626	-1.135313	0.706537
C116	C	0.119374	-0.635313	1.206537
C117	C	-0.380584	-1.135326	0.860261
C118	C	0.119416	-0.635326	1.360261
C119	C	-0.380560	-1.135330	0.943600
C120	C	0.119440	-0.635330	1.443600
C121	C	-0.380649	-1.135307	0.623194
C122	C	0.119351	-0.635307	1.123194
H123	H	-0.681646	-1.106474	0.311735
H124	H	-0.181646	-0.606474	0.811735
Br125	Br	-0.261442	-1.223874	0.896425
Br126	Br	0.238558	-0.723874	1.396425
H127	H	-0.730600	-1.059867	0.358267
H128	H	-0.230600	-0.559867	0.858267
H129	H	-0.955182	-1.281879	0.136698
H130	H	-0.455182	-0.781879	0.636698
H131	H	-0.288934	-0.548599	0.215039
H132	H	0.211066	-0.048599	0.715039
Br133	Br	-0.261435	-0.703725	0.194690
Br134	Br	0.238565	-0.203725	0.694690
H135	H	-0.472326	-1.067151	0.696400
H136	H	0.027674	-0.567151	1.196400
H137	H	-0.288922	-1.203465	0.730956
H138	H	0.211078	-0.703465	1.230956
Br139	Br	-0.500052	-0.567539	0.371339
Br140	Br	-0.000052	-0.067539	0.871339
Br141	Br	-0.783111	-0.958781	0.459250
Br142	Br	-0.283111	-0.458781	0.959250
Br143	Br	-0.906941	-0.935060	0.482985
Br144	Br	-0.406941	-0.435060	0.982985
Br145	Br	-0.499721	-1.046779	0.851539
Br146	Br	0.000279	-0.546779	1.351539
H147	H	-1.079096	-0.993124	0.425081
H148	H	-0.579096	-0.493124	0.925081
H149	H	-1.079051	-1.163978	0.254467
H150	H	-0.579051	-0.663978	0.754467
Br151	Br	-1.074895	-1.219068	0.199521
Br152	Br	-0.574895	-0.719068	0.699521
H153	H	-0.681587	-1.277344	0.141120
H154	H	-0.181587	-0.777344	0.641120
Br155	Br	-0.853741	-1.335394	0.083218
Br156	Br	-0.353741	-0.835394	0.583218
Br157	Br	-0.500052	-0.748694	0.371315
Br158	Br	-0.000052	-0.248694	0.871315
