data_functionalizedCrystal
_audit_creation_method	'MofGen! by Chris Wilmer'
_symmetry_space_group_name_H-M	'P1'
_symmetry_Int_Tables_number	1
_symmetry_cell_setting	triclinic
loop_
_symmetry_equiv_pos_as_xyz
  x,y,z
_cell_length_a	10.654559
_cell_length_b	19.188930
_cell_length_c	9.130313
_cell_angle_alpha	90.007937
_cell_angle_beta	90.004967
_cell_angle_gamma	83.816733
loop_
_atom_site_label
_atom_site_type_symbol
_atom_site_fract_x
_atom_site_fract_y
_atom_site_fract_z
O1	O	1.665760	0.098091	0.121826
O2	O	1.300085	0.107426	0.121829
O3	O	1.493475	0.001172	0.121799
O4	O	1.472370	0.204345	0.121856
O5	O	1.493457	0.001173	-0.121800
O6	O	1.300067	0.107427	-0.121770
O7	O	1.665741	0.098091	-0.121773
Cu8	Cu	1.482902	0.102759	-0.144014
Cu9	Cu	1.482924	0.102758	0.144070
O10	O	1.472351	0.204346	-0.121743
C11	C	1.253293	0.106740	0.000029
C12	C	1.113894	0.104685	0.000029
C13	C	1.063718	0.040193	0.000007
C14	C	0.932737	0.038266	0.000017
C15	C	0.902116	0.165330	0.000066
C16	C	1.033095	0.167256	0.000066
C17	C	1.081396	-0.033167	-0.000027
C18	C	0.950415	-0.035093	-0.000017
C19	C	1.492782	-0.024843	-0.000005
C20	C	1.490731	-0.102361	-0.000018
C21	C	1.604206	-0.146541	-0.000026
C22	C	1.602278	-0.219377	-0.000002
C23	C	1.486869	-0.248031	-0.000000
C24	C	1.373380	-0.203841	0.000016
C25	C	1.375310	-0.131006	0.000007
N26	N	1.398647	-0.356614	-0.082901
N27	N	1.396820	-0.425805	-0.082895
C28	C	1.481045	-0.467478	0.000030
N29	N	1.567184	-0.437347	0.082931
N30	N	1.569015	-0.368151	0.082919
C31	C	1.484763	-0.327007	0.000010
C32	C	1.592438	-0.590635	0.000049
C33	C	1.590506	-0.663473	0.000082
C34	C	1.361604	-0.647935	0.000085
C35	C	1.363539	-0.575099	0.000067
C36	C	1.478960	-0.546454	0.000042
C37	C	1.712534	0.098778	0.000030
C38	C	1.851933	0.100833	0.000039
C39	C	1.473044	0.230361	0.000064
C40	C	1.475096	0.307879	0.000086
N41	N	1.482896	0.102759	-0.346637
C42	C	1.397252	0.149788	-0.423313
C43	C	1.397277	0.149787	-0.576650
C44	C	1.568593	0.055722	-0.576621
C45	C	1.568574	0.055727	-0.423287
C46	C	1.298340	0.204093	-0.423331
C47	C	1.298365	0.204092	-0.576668
N48	N	1.482940	0.102753	0.346692
H49	H	1.127499	-0.055329	-0.105216
H50	H	1.267636	-0.671264	0.000094
H51	H	1.271136	-0.539127	0.000066
H52	H	0.921645	-0.063779	-0.101971
H53	H	1.279413	-0.227176	0.000021
H54	H	1.638351	0.017430	-0.639046
H55	H	1.123737	-0.060812	0.101905
H56	H	0.915288	-0.058459	0.105158
H57	H	0.836315	0.216273	0.000096
H58	H	1.282902	-0.095035	0.000013
H59	H	1.698190	-0.123223	-0.000041
H60	H	1.638323	0.017439	-0.360858
H61	H	1.694686	-0.255355	-0.000003
H62	H	1.686420	-0.567311	0.000036
H63	H	1.682914	-0.699444	0.000083
H64	H	1.318639	0.257760	-0.381705
H65	H	1.207511	0.187088	-0.375798
H66	H	1.327814	0.254800	-0.624206
H67	H	1.073941	0.219772	0.000109
H68	H	1.202110	0.192129	-0.618312
