data_functionalizedCrystal
_audit_creation_method	'MofGen! by Chris Wilmer'
_symmetry_space_group_name_H-M	'P1'
_symmetry_Int_Tables_number	1
_symmetry_cell_setting	triclinic
loop_
_symmetry_equiv_pos_as_xyz
  x,y,z
_cell_length_a	14.044220
_cell_length_b	17.038272
_cell_length_c	13.101039
_cell_angle_alpha	93.604737
_cell_angle_beta	86.340132
_cell_angle_gamma	92.150217
loop_
_atom_site_label
_atom_site_type_symbol
_atom_site_fract_x
_atom_site_fract_y
_atom_site_fract_z
O1	O	1.277881	0.185592	-0.085106
O2	O	1.001361	0.178751	-0.085132
O3	O	1.137977	0.068241	-0.085111
O4	O	1.141265	0.296101	-0.085127
O5	O	1.128176	0.076185	0.085317
O6	O	0.991560	0.186694	0.085296
O7	O	1.268080	0.193535	0.085322
Zn8	Zn	1.128264	0.191376	0.112368
Zn9	Zn	1.141177	0.180910	-0.112178
O10	O	1.131464	0.304045	0.085301
C11	C	0.960905	0.179728	0.000079
C12	C	0.854960	0.170796	0.000069
C13	C	0.660980	0.154468	0.000091
C14	C	0.608455	0.217813	0.000090
C15	C	0.500518	0.208729	0.000102
C16	C	0.768927	0.163552	0.000079
C17	C	1.130087	0.042876	0.000103
C18	C	1.121168	-0.044541	0.000101
C19	C	1.203056	-0.088926	0.000110
C20	C	1.194670	-0.171064	0.000100
C21	C	1.104396	-0.208815	0.000088
C22	C	1.022502	-0.164424	0.000076
C23	C	1.030889	-0.082288	0.000079
C24	C	1.074767	-0.456646	0.000071
C25	C	1.066386	-0.538788	0.000071
C26	C	1.238555	-0.545423	0.000093
C27	C	1.246934	-0.463285	0.000102
C28	C	1.165040	-0.418901	0.000085
C29	C	1.095822	-0.292773	0.000080
C30	C	1.173615	-0.334945	0.000085
C31	C	1.308536	0.192558	0.000109
C32	C	1.414482	0.201490	0.000112
C33	C	1.139354	0.329410	0.000085
C34	C	1.148273	0.416827	0.000080
N35	N	1.119458	0.198518	0.265616
N36	N	1.149990	0.173762	-0.265426
C37	C	1.107478	0.208243	0.474656
C38	C	1.161967	0.164040	0.525540
C39	C	1.155301	0.169451	0.641858
C40	C	1.114143	0.202833	0.358328
H41	H	0.644550	0.278868	0.000081
N42	N	0.615693	0.077886	0.000103
N43	N	0.526803	0.070523	0.000112
H44	H	0.494808	0.016437	0.000118
H45	H	1.276567	-0.058196	0.000126
N46	N	1.042670	0.260805	0.529588
N47	N	0.978058	0.234528	0.589486
H48	H	0.932288	0.271650	0.628294
N49	N	1.278327	-0.216391	0.000098
N50	N	1.358924	-0.182675	0.000110
H51	H	1.418012	-0.214686	0.000106
H52	H	1.320445	-0.432554	0.000112
N53	N	1.322192	-0.590771	0.000112
N54	N	1.314697	-0.664106	0.000111
H55	H	1.373769	-0.696135	0.000123
H56	H	1.213624	0.122133	0.481746
H57	H	1.008083	-0.420519	0.000057
N58	N	0.974159	-0.577338	0.000078
N59	N	0.901047	-0.537701	0.000075
H60	H	0.835914	-0.564926	0.000088
N61	N	1.003601	-0.331322	0.000099
N62	N	0.930487	-0.291687	0.000110
H63	H	0.865355	-0.318914	0.000127
N64	N	0.930296	-0.202998	0.000075
N65	N	0.902284	-0.244745	0.071915
H66	H	0.837162	-0.271988	0.071919
H67	H	0.964207	-0.046151	0.000072
H68	H	1.247118	-0.304206	0.000072
