data_functionalizedCrystal
_audit_creation_method	'MofGen! by Chris Wilmer'
_symmetry_space_group_name_H-M	'P1'
_symmetry_Int_Tables_number	1
_symmetry_cell_setting	triclinic
loop_
_symmetry_equiv_pos_as_xyz
  x,y,z
_cell_length_a	12.827893
_cell_length_b	18.101397
_cell_length_c	18.101389
_cell_angle_alpha	89.978953
_cell_angle_beta	89.982981
_cell_angle_gamma	90.020626
loop_
_atom_site_label
_atom_site_type_symbol
_atom_site_fract_x
_atom_site_fract_y
_atom_site_fract_z
Zn1	Zn	1.597609	-0.294904	-0.418681
Zn2	Zn	1.597495	-0.418730	-0.294834
Zn3	Zn	1.422858	-0.294907	-0.294858
Zn4	Zn	1.422821	-0.418709	-0.418638
O5	O	1.510196	-0.356812	-0.356753
O6	O	1.743830	-0.311337	-0.402260
O7	O	1.574297	-0.402314	-0.191204
O8	O	1.446102	-0.191274	-0.311311
O9	O	1.743746	-0.402312	-0.311270
O10	O	1.574492	-0.191272	-0.402283
O11	O	1.445991	-0.311342	-0.191222
O12	O	1.276617	-0.311322	-0.311270
O13	O	1.446039	-0.402276	-0.522277
O14	O	1.276590	-0.402278	-0.402210
O15	O	1.574456	-0.311317	-0.522308
O16	O	1.574261	-0.522360	-0.311229
O17	O	1.445928	-0.522344	-0.402187
C18	C	1.238686	-0.356799	-0.356738
C19	C	1.122533	-0.356811	-0.356750
C20	C	1.070789	-0.311874	-0.401845
C21	C	0.950739	-0.311885	-0.401858
C22	C	1.510106	-0.549223	-0.356717
C23	C	1.510164	-0.631537	-0.356726
C24	C	1.510297	-0.930628	-0.356794
C25	C	1.590815	-0.899282	-0.299412
C26	C	1.591094	-0.813663	-0.299560
C27	C	1.510231	-0.782245	-0.356759
C28	C	1.540084	-0.813266	-0.434819
C29	C	1.540707	-0.898910	-0.434507
C30	C	1.399711	-0.899134	-0.336791
C31	C	1.400257	-0.813484	-0.335049
C32	C	1.510192	-0.698386	-0.356745
C33	C	1.510339	-1.014487	-0.356813
C34	C	1.782766	-0.356827	-0.356767
C35	C	1.898919	-0.356833	-0.356773
C36	C	1.510256	-0.356794	-0.549915
C37	C	1.510282	-0.356786	-0.632229
C38	C	1.510314	-0.163650	-0.356805
C39	C	1.510364	-0.081336	-0.356827
C40	C	1.510343	-0.356647	-0.931320
C41	C	1.429268	-0.413694	-0.899975
C42	C	1.429487	-0.413958	-0.814356
C43	C	1.510312	-0.356716	-0.782937
C44	C	1.620418	-0.377900	-0.814032
C45	C	1.619967	-0.378274	-0.899677
C46	C	1.482268	-0.278289	-0.899750
C47	C	1.479818	-0.278742	-0.814099
C48	C	1.510301	-0.356753	-0.699078
C49	C	1.510361	-0.356611	-1.015179
C50	C	1.510196	-0.356778	-0.164342
C51	C	1.510372	-0.356577	-0.082028
H52	H	1.572417	-0.792692	-0.241680
Br53	Br	1.459784	-0.509898	-0.935906
H54	H	1.644628	-0.434571	-0.792585
Br55	Br	1.145077	-0.247729	-0.466177
Br56	Br	1.447193	-0.933474	-0.508186
Br57	Br	1.354442	-0.935222	-0.243565
Br58	Br	1.299719	-0.932923	-0.406448
Br59	Br	1.048245	-0.420946	-0.292407
H60	H	0.943410	-0.395311	-0.318168
Br61	Br	0.876580	-0.247764	-0.466217
H62	H	1.403372	-0.258989	-0.921344
H63	H	1.347839	-0.400702	-0.793332
H64	H	1.572364	-0.919915	-0.241358
Br65	Br	1.726605	-0.935062	-0.321212
Br66	Br	1.580689	-0.207449	-0.933536
Br67	Br	1.727626	-0.779419	-0.321622
H68	H	1.621540	-0.918832	-0.451451
Br69	Br	1.723998	-0.311980	-0.934244
H70	H	1.483232	-0.792914	-0.478723
H71	H	1.347374	-0.400573	-0.920569
H72	H	1.377747	-0.793216	-0.277603
Br73	Br	1.673303	-0.777426	-0.463542
Br74	Br	1.294881	-0.777853	-0.399607
H75	H	1.398789	-0.262767	-0.793776
H76	H	1.448024	-0.472039	-0.793870
Br77	Br	1.571066	-0.204138	-0.778466
Br78	Br	1.659631	-0.473744	-0.932980
H79	H	1.682448	-0.337655	-0.793682
