data_functionalizedCrystal
_audit_creation_method	'MofGen! by Chris Wilmer'
_symmetry_space_group_name_H-M	'P1'
_symmetry_Int_Tables_number	1
_symmetry_cell_setting	triclinic
loop_
_symmetry_equiv_pos_as_xyz
  x,y,z
_cell_length_a	11.792254
_cell_length_b	11.792241
_cell_length_c	9.730223
_cell_angle_alpha	90.000916
_cell_angle_beta	89.999967
_cell_angle_gamma	95.803994
loop_
_atom_site_label
_atom_site_type_symbol
_atom_site_fract_x
_atom_site_fract_y
_atom_site_fract_z
O1	O	-0.155567	1.506914	-0.114142
O2	O	0.344433	2.006914	0.385858
O3	O	-0.171599	1.176574	-0.114172
O4	O	0.328401	1.676574	0.385828
O5	O	0.001587	1.349753	-0.114163
O6	O	0.501587	1.849753	0.385837
O7	O	-0.328753	1.333735	-0.114152
O8	O	0.171247	1.833735	0.385848
O9	O	0.001591	1.349741	0.114417
O10	O	0.501591	1.849741	0.614417
O11	O	-0.171595	1.176562	0.114408
O12	O	0.328405	1.676562	0.614408
O13	O	-0.155562	1.506903	0.114438
O14	O	0.344438	2.006903	0.614438
Zn15	Zn	-0.163577	1.341731	0.150715
Zn16	Zn	0.336423	1.841731	0.650715
Zn17	Zn	-0.163584	1.341745	-0.150449
Zn18	Zn	0.336416	1.841745	0.349551
O19	O	-0.328748	1.333724	0.114428
O20	O	0.171252	1.833724	0.614428
C21	C	-0.170590	1.134277	0.000113
C22	C	0.329410	1.634277	0.500113
C23	C	-0.167576	1.008263	0.000101
C24	C	0.332424	1.508263	0.500101
C25	C	-0.162033	0.777551	0.000140
C26	C	0.337967	1.277551	0.500140
C27	C	-0.165112	0.905936	0.000119
C28	C	0.334888	1.405936	0.500119
C29	C	-0.371041	1.334738	0.000140
C30	C	0.128959	1.834738	0.500140
C31	C	-0.497054	1.337758	0.000145
C32	C	0.002946	1.837758	0.500145
C33	C	-0.599390	1.340212	0.000137
C34	C	-0.099390	1.840212	0.500137
C35	C	-0.727777	1.343281	0.000122
C36	C	-0.227777	1.843281	0.500122
C37	C	0.043880	1.348738	0.000123
C38	C	0.543880	1.848738	0.500123
C39	C	0.169893	1.345718	0.000109
C40	C	0.669893	1.845718	0.500109
C41	C	-0.156571	1.549199	0.000149
C42	C	0.343429	2.049199	0.500149
C43	C	-0.159586	1.675213	0.000152
C44	C	0.340414	2.175213	0.500152
N45	N	-0.163573	1.341729	0.356251
N46	N	0.336427	1.841729	0.856251
N47	N	-0.163580	1.341756	-0.355986
N48	N	0.336420	1.841756	0.144014
C49	C	-0.086918	1.418439	0.428181
C50	C	0.413082	1.918439	0.928181
C51	C	-0.086919	1.418450	0.572064
C52	C	0.413081	1.918450	1.072064
C53	C	-0.240238	1.265038	0.572074
C54	C	0.259762	1.765038	1.072074
C55	C	-0.240231	1.265022	0.428194
C56	C	0.259769	1.765022	0.928194
H57	H	-0.024497	1.480897	0.369609
H58	H	0.475503	1.980897	0.869609
H59	H	-0.302653	1.202587	0.630664
H60	H	0.197347	1.702587	1.130664
H61	H	-0.024499	1.480913	0.630626
H62	H	0.475501	1.980913	1.130626
H63	H	-0.302652	1.202550	0.369624
H64	H	0.197348	1.702550	0.869624
