data_functionalizedCrystal
_audit_creation_method	'MofGen! by Chris Wilmer'
_symmetry_space_group_name_H-M	'P1'
_symmetry_Int_Tables_number	1
_symmetry_cell_setting	triclinic
loop_
_symmetry_equiv_pos_as_xyz
  x,y,z
_cell_length_a	21.395362
_cell_length_b	12.827892
_cell_length_c	21.395355
_cell_angle_alpha	90.013138
_cell_angle_beta	90.043940
_cell_angle_gamma	90.031272
loop_
_atom_site_label
_atom_site_type_symbol
_atom_site_fract_x
_atom_site_fract_y
_atom_site_fract_z
Zn1	Zn	0.957926	-0.415711	0.354609
Zn2	Zn	1.457926	0.084289	0.854609
Zn3	Zn	0.957857	-0.590438	0.249841
Zn4	Zn	1.457857	-0.090438	0.749841
Zn5	Zn	0.853141	-0.415760	0.249810
Zn6	Zn	1.353141	0.084240	0.749810
Zn7	Zn	0.853138	-0.590459	0.354546
Zn8	Zn	1.353138	-0.090459	0.854546
O9	O	0.905516	-0.503092	0.302202
O10	O	1.405516	-0.003092	0.802202
O11	O	1.045595	-0.438860	0.340751
O12	O	1.545595	0.061140	0.840751
O13	O	0.943938	-0.567278	0.162159
O14	O	1.443938	-0.067278	0.662159
O15	O	0.867071	-0.269517	0.263725
O16	O	1.367071	0.230483	0.763725
O17	O	1.045544	-0.567231	0.263778
O18	O	1.545544	-0.067231	0.763778
O19	O	0.944056	-0.269482	0.340721
O20	O	1.444056	0.230518	0.840721
O21	O	0.867004	-0.438943	0.162137
O22	O	1.367004	0.061057	0.662137
O23	O	0.765463	-0.438963	0.263664
O24	O	1.265463	0.061037	0.763664
O25	O	0.867067	-0.567267	0.442232
O26	O	1.367067	-0.067267	0.942232
O27	O	0.765461	-0.567314	0.340613
O28	O	1.265461	-0.067314	0.840613
O29	O	0.944054	-0.438881	0.442279
O30	O	1.444054	0.061119	0.942279
O31	O	0.943935	-0.736677	0.263717
O32	O	1.443935	-0.236677	0.763717
O33	O	0.866999	-0.736692	0.340643
O34	O	1.366999	-0.236692	0.840643
C35	C	0.742728	-0.503147	0.302129
C36	C	1.242728	-0.003147	0.802129
C37	C	0.673087	-0.503196	0.302113
C38	C	1.173087	-0.003196	0.802113
C39	C	0.640389	-0.570117	0.342120
C40	C	1.140389	-0.070117	0.842120
C41	C	0.574953	-0.570091	0.342148
C42	C	1.074953	-0.070091	0.842148
C43	C	0.542218	-0.503156	0.302157
C44	C	1.042218	-0.003156	0.802157
C45	C	0.574924	-0.436222	0.262147
C46	C	1.074924	0.063778	0.762147
C47	C	0.640358	-0.436242	0.262125
C48	C	1.140358	0.063758	0.762125
C49	C	0.438492	-0.494737	0.245752
C50	C	0.938492	0.005263	0.745752
C51	C	0.373059	-0.494724	0.245773
C52	C	0.873059	0.005276	0.745773
C53	C	0.340398	-0.503088	0.302227
C54	C	0.840398	-0.003088	0.802227
C55	C	0.373177	-0.511486	0.358661
C56	C	0.873177	-0.011486	0.858661
C57	C	0.438611	-0.511506	0.358638
C58	C	0.938611	-0.011506	0.858638
C59	C	0.471266	-0.503126	0.302177
C60	C	0.971266	-0.003126	0.802177
C61	C	0.236747	-0.569984	0.342268
C62	C	0.736747	-0.069984	0.842268
C63	C	0.171311	-0.569951	0.342297
C64	C	0.671311	-0.069951	0.842297
C65	C	0.171283	-0.436087	0.262290
C66	C	0.671283	0.063913	0.762290
C67	C	0.236718	-0.436115	0.262267
C68	C	0.736718	0.063885	0.762267
C69	C	0.269446	-0.503069	0.302255
C70	C	0.769446	-0.003069	0.802255
C71	C	0.905476	-0.774602	0.302191
C72	C	1.405476	-0.274602	0.802191
C73	C	0.905517	-0.890755	0.302207
C74	C	1.405517	-0.390755	0.802207
C75	C	0.943633	-0.942497	0.264184
C76	C	1.443633	-0.442497	0.764184
C77	C	0.943675	-1.062548	0.264200
C78	C	1.443675	-0.562548	0.764200
C79	C	1.068939	-0.503037	0.302275
C80	C	1.568939	-0.003037	0.802275
C81	C	1.138580	-0.503014	0.302306
C82	C	1.638580	-0.003014	0.802306
C83	C	0.905568	-0.503071	0.465625
C84	C	1.405568	-0.003071	0.965625
C85	C	0.905590	-0.503062	0.535266
C86	C	1.405590	-0.003062	1.035266
C87	C	0.905572	-0.230522	0.302227
C88	C	1.405572	0.269478	0.802227
C89	C	0.905596	-0.114369	0.302237
C90	C	1.405596	0.385631	0.802237
C91	C	0.905500	-0.503038	0.139414
C92	C	1.405500	-0.003038	0.639414
C93	C	0.905599	-0.502752	0.069773
C94	C	1.405599	-0.002752	0.569773
C95	C	0.945675	-0.436208	0.568005
C96	C	1.445675	0.063792	1.068005
C97	C	0.945674	-0.436163	0.633440
C98	C	1.445674	0.063837	1.133440
C99	C	0.905595	-0.502991	0.666135
C100	C	1.405595	-0.002991	1.166135
C101	C	0.865501	-0.569849	0.633389
C102	C	1.365501	-0.069849	1.133389
C103	C	0.865499	-0.569885	0.567954
C104	C	1.365499	-0.069885	1.067954
C105	C	0.900634	-0.597087	0.769804
C106	C	1.400634	-0.097087	1.269804
C107	C	0.900641	-0.597053	0.835237
C108	C	1.400641	-0.097053	1.335237
C109	C	0.905598	-0.502880	0.867956
C110	C	1.405598	-0.002880	1.367956
C111	C	0.910563	-0.408738	0.835233
C112	C	1.410563	0.091262	1.335233
C113	C	0.910560	-0.408774	0.769799
C114	C	1.410560	0.091226	1.269799
C115	C	0.905592	-0.502959	0.737087
C116	C	1.405592	-0.002959	1.237087
C117	C	0.945685	-0.435972	0.971646
C118	C	1.445685	0.064028	1.471646
C119	C	0.945680	-0.435925	1.037083
C120	C	1.445680	0.064075	1.537083
C121	C	0.865510	-0.569621	1.037030
C122	C	1.365510	-0.069621	1.537030
C123	C	0.865512	-0.569658	0.971595
C124	C	1.365512	-0.069658	1.471595
C125	C	0.905603	-0.502835	0.938907
C126	C	1.405603	-0.002835	1.438907
H127	H	0.666980	-0.381744	0.229546
H128	H	1.166980	0.118256	0.729546
H129	H	0.976236	-0.897922	0.231621
H130	H	1.476236	-0.397922	0.731621
H131	H	0.976306	-1.107045	0.231645
H132	H	1.476306	-0.607045	0.731645
H133	H	0.548267	-0.381721	0.229588
H134	H	1.048267	0.118279	0.729588
H135	H	0.832874	-0.624104	0.944939
H136	H	1.332874	-0.124104	1.444939
F137	F	0.862937	-1.056218	0.344786
F138	F	1.362937	-0.556218	0.844786
H139	H	0.832854	-0.624324	0.541299
H140	H	1.332854	-0.124324	1.041299
H141	H	0.872919	-0.935333	0.334774
H142	H	1.372919	-0.435333	0.834774
F143	F	0.988330	-0.364988	0.668290
F144	F	1.488330	0.135012	1.168290
F145	F	0.988341	-0.365084	0.533219
F146	F	1.488341	0.134916	1.033219
F147	F	0.822849	-0.640736	1.071822
F148	F	1.322849	-0.140736	1.571822
F149	F	0.915840	-0.308584	0.734976
F150	F	1.415840	0.191416	1.234976
H151	H	0.346585	-0.518294	0.404631
H152	H	0.846585	-0.018294	0.904631
H153	H	0.263341	-0.381626	0.229685
H154	H	0.763341	0.118374	0.729685
F155	F	0.271582	-0.641237	0.384828
F156	F	0.771582	-0.141237	0.884828
F157	F	0.988350	-0.364850	0.936855
F158	F	1.488350	0.135150	1.436855
H159	H	0.667032	-0.624635	0.374682
H160	H	1.167032	-0.124635	0.874682
H161	H	0.548326	-0.624586	0.374729
H162	H	1.048326	-0.124586	0.874729
F163	F	0.822844	-0.640968	0.668185
F164	F	1.322844	-0.140968	1.168185
F165	F	0.988354	-0.364778	1.071925
F166	F	1.488354	0.135222	1.571925
F167	F	0.473495	-0.520439	0.418698
F168	F	0.973495	-0.020439	0.918698
F169	F	0.136511	-0.641176	0.384884
F170	F	0.636511	-0.141176	0.884884
F171	F	0.895363	-0.697246	0.870056
F172	F	1.395363	-0.197246	1.370056
F173	F	0.915842	-0.308505	0.870049
F174	F	1.415842	0.191495	1.370049
H175	H	0.896429	-0.673754	0.743170
H176	H	1.396429	-0.173754	1.243170
F177	F	0.338179	-0.485787	0.185712
F178	F	0.838179	0.014213	0.685712
F179	F	0.136448	-0.364844	0.219732
F180	F	0.636448	0.135156	0.719732
H181	H	0.465080	-0.487922	0.199777
H182	H	0.965080	0.012078	0.699777
