data_functionalizedCrystal
_audit_creation_method	'MofGen! by Chris Wilmer'
_symmetry_space_group_name_H-M	'P1'
_symmetry_Int_Tables_number	1
_symmetry_cell_setting	triclinic
loop_
_symmetry_equiv_pos_as_xyz
  x,y,z
_cell_length_a	10.489716
_cell_length_b	19.188930
_cell_length_c	18.266242
_cell_angle_alpha	90.006796
_cell_angle_beta	90.006008
_cell_angle_gamma	83.836959
loop_
_atom_site_label
_atom_site_type_symbol
_atom_site_fract_x
_atom_site_fract_y
_atom_site_fract_z
O1	O	1.691875	0.098418	0.060884
O2	O	1.320468	0.107681	0.060888
O3	O	1.516890	0.001465	0.060872
O4	O	1.495454	0.204634	0.060901
O5	O	1.516865	0.001468	-0.060890
O6	O	1.320443	0.107685	-0.060874
O7	O	1.691850	0.098421	-0.060878
Zn8	Zn	1.506143	0.103053	-0.080208
Zn9	Zn	1.506176	0.103049	0.080218
O10	O	1.495429	0.204637	-0.060861
C11	C	1.272939	0.106987	0.000007
C12	C	1.131355	0.104905	0.000008
C13	C	1.032224	0.170040	0.000019
C14	C	0.955636	0.135623	-0.060024
C15	C	0.955667	0.135604	0.060023
C16	C	1.056631	0.070515	-0.060085
C17	C	1.056668	0.070506	0.060017
C18	C	0.980129	0.036041	-0.000041
C19	C	1.516183	-0.024549	-0.000011
C20	C	1.514099	-0.102067	-0.000018
C21	C	1.629353	-0.146225	-0.000022
C22	C	1.627395	-0.219061	-0.000011
C23	C	1.510177	-0.247738	-0.000009
C24	C	1.394908	-0.203571	-0.000000
C25	C	1.396869	-0.130735	-0.000005
N26	N	1.420570	-0.356337	-0.041446
N27	N	1.418715	-0.425528	-0.041443
C28	C	1.504262	-0.467186	0.000006
N29	N	1.591754	-0.437039	0.041443
N30	N	1.593613	-0.367842	0.041438
C31	C	1.508038	-0.326714	-0.000004
C32	C	1.617401	-0.590321	0.000015
C33	C	1.615438	-0.663159	0.000031
C34	C	1.382948	-0.647667	0.000035
C35	C	1.384914	-0.574831	0.000026
C36	C	1.502144	-0.546163	0.000012
C37	C	1.739379	0.099115	0.000005
C38	C	1.880964	0.101198	0.000009
C39	C	1.496135	0.230651	0.000023
C40	C	1.498219	0.308170	0.000034
N41	N	1.506129	0.103056	-0.189695
C42	C	1.583316	0.145789	-0.771966
C43	C	1.583302	0.145796	-0.695321
C44	C	1.506188	0.103042	-0.657008
C45	C	1.429056	0.060291	-0.695345
C46	C	1.429062	0.060290	-0.771989
N47	N	1.503098	0.041861	-0.536678
N48	N	1.503100	0.041863	-0.463870
C49	C	1.506163	0.103042	-0.426085
N50	N	1.509249	0.164219	-0.463859
N51	N	1.509254	0.164216	-0.536674
C52	C	1.506172	0.103038	-0.573901
C53	C	1.583269	0.145802	-0.304650
C54	C	1.583246	0.145810	-0.228003
C55	C	1.429007	0.060298	-0.228029
C56	C	1.429022	0.060296	-0.304674
C57	C	1.506160	0.103047	-0.342980
N58	N	1.506199	0.103041	0.189705
H59	H	1.100551	0.043036	-0.110897
H60	H	1.299469	-0.226923	0.000003
N61	N	1.272553	-0.083105	-0.000017
H62	H	1.291583	-0.032614	-0.000025
H63	H	1.221451	-0.092441	0.045122
N64	N	1.755796	-0.115312	-0.000031
H65	H	1.806280	-0.131371	0.045106
H66	H	1.739457	-0.062475	-0.000061
H67	H	1.646098	0.180610	-0.664108
H68	H	1.366232	0.025482	-0.335881
H69	H	1.721252	-0.255021	-0.000011
N70	N	0.949440	-0.039061	-0.000090
H71	H	0.986541	-0.063572	-0.045458
H72	H	0.853367	-0.040021	0.000366
N73	N	1.739759	-0.710786	0.000024
H74	H	1.744106	-0.741359	-0.045110
H75	H	1.744074	-0.741297	0.045195
H76	H	1.287507	-0.671014	0.000039
N77	N	0.897190	0.172037	-0.127251
H78	H	0.935347	0.147953	-0.172596
H79	H	0.915687	0.222615	-0.127136
N80	N	1.743833	-0.559394	0.000004
H81	H	1.816552	-0.598423	0.000009
H82	H	1.749719	-0.529501	0.045139
H83	H	1.291062	-0.538877	0.000025
N84	N	1.666556	0.191872	-0.813281
H85	H	1.715423	0.218946	-0.777365
H86	H	1.610807	0.225720	-0.845096
N87	N	1.345884	0.014174	-0.654027
H88	H	1.357588	0.020657	-0.599657
H89	H	1.371375	-0.036470	-0.667433
H90	H	1.646073	0.180615	-0.335840
N91	N	1.063229	0.245087	-0.000036
H92	H	1.026266	0.269614	-0.045426
H93	H	1.159328	0.245931	0.000460
N94	N	1.345897	0.014173	-0.813335
H95	H	1.297042	-0.012913	-0.777436
H96	H	1.401716	-0.019663	-0.845127
N97	N	1.115115	0.034104	0.127245
H98	H	1.078199	0.058763	0.172575
H99	H	1.211101	0.035404	0.126429
H100	H	0.911579	0.163112	0.110778
H101	H	1.646041	0.180625	-0.196797
N102	N	1.345821	0.014188	-0.186717
H103	H	1.357514	0.020676	-0.132347
H104	H	1.371303	-0.036458	-0.200116
