data_functionalizedCrystal
_audit_creation_method	'MofGen! by Chris Wilmer'
_symmetry_space_group_name_H-M	'P1'
_symmetry_Int_Tables_number	1
_symmetry_cell_setting	triclinic
loop_
_symmetry_equiv_pos_as_xyz
  x,y,z
_cell_length_a	17.077404
_cell_length_b	12.759400
_cell_length_c	17.077396
_cell_angle_alpha	89.974698
_cell_angle_beta	89.982480
_cell_angle_gamma	90.008551
loop_
_atom_site_label
_atom_site_type_symbol
_atom_site_fract_x
_atom_site_fract_y
_atom_site_fract_z
Zn1	Zn	1.200090	-0.418387	-0.443870
Zn2	Zn	1.200025	-0.594090	-0.312614
Zn3	Zn	1.068827	-0.418412	-0.312618
Zn4	Zn	1.068812	-0.594010	-0.443837
O5	O	1.134439	-0.506225	-0.378235
O6	O	1.309928	-0.441717	-0.426471
O7	O	1.182600	-0.570830	-0.202767
O8	O	1.086273	-0.271387	-0.330045
O9	O	1.309880	-0.570806	-0.330037
O10	O	1.182711	-0.271369	-0.426475
O11	O	1.086210	-0.441759	-0.202770
O12	O	0.958978	-0.441682	-0.330012
O13	O	1.086248	-0.570670	-0.553688
O14	O	0.958967	-0.570694	-0.426418
O15	O	1.182697	-0.441640	-0.553713
O16	O	1.182585	-0.741101	-0.330005
O17	O	1.086184	-0.741042	-0.426414
C18	C	0.930491	-0.506183	-0.378212
C19	C	0.843241	-0.506190	-0.378221
C20	C	0.467441	-0.573551	-0.428377
C21	C	0.549422	-0.573538	-0.428365
C22	C	0.590392	-0.506253	-0.378247
C23	C	0.549377	-0.438984	-0.328132
C24	C	0.467399	-0.439004	-0.328141
C25	C	0.720248	-0.438946	-0.328119
C26	C	0.802232	-0.438925	-0.328112
C27	C	0.802271	-0.573480	-0.428343
C28	C	0.720292	-0.573499	-0.428352
C29	C	0.679283	-0.506229	-0.378238
C30	C	1.134397	-0.779192	-0.378222
C31	C	1.134452	-0.895969	-0.378243
C32	C	1.184642	-0.950742	-0.428496
C33	C	1.184678	-1.060466	-0.428515
C34	C	1.084332	-1.060634	-0.328022
C35	C	1.084292	-0.950912	-0.328007
C36	C	1.234801	-0.895798	-0.478731
C37	C	1.284996	-0.950571	-0.528988
C38	C	1.285033	-1.060295	-0.529007
C39	C	1.234874	-1.115246	-0.478770
C40	C	1.339183	-0.506268	-0.378258
C41	C	1.426433	-0.506286	-0.378268
C42	C	1.134478	-0.506143	-0.582979
C43	C	1.134495	-0.506109	-0.670229
C44	C	1.134501	-0.232191	-0.378264
C45	C	1.134528	-0.115415	-0.378277
C46	C	1.084320	-0.438894	-0.711220
C47	C	1.084332	-0.438870	-0.793200
C48	C	1.134525	-0.506056	-0.834188
C49	C	1.184702	-0.573279	-0.793191
C50	C	1.184685	-0.573307	-0.711212
C51	C	1.184736	-0.573213	-0.964062
C52	C	1.184755	-0.573184	-1.046046
C53	C	1.084384	-0.438776	-1.046050
C54	C	1.084366	-0.438804	-0.964071
C55	C	1.134545	-0.506025	-0.923079
C56	C	1.134444	-0.506230	-0.174287
C57	C	1.134580	-0.505969	-0.087037
H58	H	0.686936	-0.628284	-0.469166
O59	O	1.233392	-0.638517	-1.085944
C60	C	1.188678	-0.706353	-1.133331
H61	H	1.129210	-0.669259	-1.145612
H62	H	1.180012	-0.784214	-1.101720
C63	C	1.304914	-0.770943	-1.196119
C64	C	1.231876	-0.725380	-1.211209
H65	H	1.331561	-0.782685	-1.244157
H66	H	1.335040	-0.725244	-1.164192
H67	H	1.297682	-0.835822	-1.169775
H68	H	1.239109	-0.660497	-1.237544
H69	H	1.201753	-0.771069	-1.243143
O70	O	1.233353	-0.638564	-0.671270
C71	C	1.222588	-0.624166	-0.590124
H72	H	1.162015	-0.589746	-0.578928
H73	H	1.269158	-0.568238	-0.566871
C74	C	1.304142	-0.772760	-0.561775
C75	C	1.229742	-0.730494	-0.548022
H76	H	1.308558	-0.838346	-0.535802
H77	H	1.311397	-0.782459	-0.616443
H78	H	1.342941	-0.726143	-0.542396
H79	H	1.190945	-0.777104	-0.567409
H80	H	1.222481	-0.720806	-0.493355
O81	O	0.842065	-0.638721	-0.477135
C82	C	0.822050	-0.615910	-0.555400
H83	H	0.799519	-0.531988	-0.559471
H84	H	0.774470	-0.672278	-0.575852
C85	C	0.922567	-0.731290	-0.602767
C86	C	0.894900	-0.628211	-0.607768
H87	H	0.967502	-0.738882	-0.635071
H88	H	0.936050	-0.746661	-0.550038
H89	H	0.882910	-0.778251	-0.619808
H90	H	0.934553	-0.581253	-0.590717
H91	H	0.881425	-0.612832	-0.660495
O92	O	1.333629	-0.897242	-0.577900
C93	C	1.316447	-0.924018	-0.656123
H94	H	1.253745	-0.954229	-0.660033
H95	H	1.358541	-0.987654	-0.676692
C96	C	1.402525	-0.789389	-0.703703
C97	C	1.325511	-0.826486	-0.708505
H98	H	1.408120	-0.729229	-0.736016
H99	H	1.414104	-0.771351	-0.651003
H100	H	1.437595	-0.842427	-0.720842
H101	H	1.290444	-0.773453	-0.691357
H102	H	1.313927	-0.844513	-0.761204
H103	H	0.835588	-0.384125	-0.287309
O104	O	1.035572	-0.373686	-0.924168
C105	C	0.984837	-0.433512	-0.876751
H106	H	1.012502	-0.513142	-0.864465
H107	H	0.926668	-0.445030	-0.908337
C108	C	0.936644	-0.277932	-0.813973
C109	C	0.970626	-0.375732	-0.798878
H110	H	0.927874	-0.242291	-0.765938
H111	H	0.970822	-0.237625	-0.845920
H112	H	0.888174	-0.287545	-0.840296
H113	H	1.019099	-0.366118	-0.772564
H114	H	0.936455	-0.416037	-0.766923
O115	O	0.680532	-0.373501	-0.279415
C116	C	0.734270	-0.314124	-0.235165
H117	H	0.792721	-0.310530	-0.267315
H118	H	0.742964	-0.352488	-0.175496
C119	C	0.630478	-0.206707	-0.184517
C120	C	0.702267	-0.202286	-0.224008
H121	H	0.610736	-0.137722	-0.177631
H122	H	0.594272	-0.246713	-0.214326
H123	H	0.637733	-0.238682	-0.134797
H124	H	0.695009	-0.170324	-0.273730
H125	H	0.738470	-0.162272	-0.194206
O126	O	0.427681	-0.373562	-0.279441
C127	C	0.481420	-0.314187	-0.235190
H128	H	0.539870	-0.310587	-0.267342
H129	H	0.490116	-0.352557	-0.175523
C130	C	0.377626	-0.206780	-0.184532
C131	C	0.449414	-0.202352	-0.224025
H132	H	0.357883	-0.137796	-0.177641
H133	H	0.341421	-0.246784	-0.214343
H134	H	0.384884	-0.238760	-0.134814
H135	H	0.442154	-0.170384	-0.273746
H136	H	0.485617	-0.162340	-0.194223
H137	H	1.043496	-1.105384	-0.287121
H138	H	0.582742	-0.384204	-0.287322
H139	H	1.234779	-0.806455	-0.478720
O140	O	1.333674	-1.113550	-0.577908
C141	C	1.288979	-1.177030	-0.628568
H142	H	1.227140	-1.144011	-0.633358
H143	H	1.286318	-1.260210	-0.604309
C144	C	1.403236	-1.219164	-0.704320
C145	C	1.327286	-1.178605	-0.710209
H146	H	1.426867	-1.220141	-0.754679
H147	H	1.433349	-1.176400	-0.670188
H148	H	1.401008	-1.288477	-0.684101
H149	H	1.329516	-1.109289	-0.730418
H150	H	1.297174	-1.221358	-0.744346
H151	H	1.234899	-1.204591	-0.478798
O152	O	1.035510	-0.897861	-0.279122
C153	C	0.991236	-0.969881	-0.234797
H154	H	1.023418	-1.048069	-0.232108
H155	H	0.931610	-0.981582	-0.263497
C156	C	0.940418	-0.831095	-0.154543
C157	C	0.979948	-0.927124	-0.151236
H158	H	0.933451	-0.804720	-0.103000
H159	H	0.970244	-0.782573	-0.184408
H160	H	0.890733	-0.840859	-0.178464
H161	H	1.029635	-0.917357	-0.127325
H162	H	0.950130	-0.975644	-0.121365
H163	H	1.043451	-0.384177	-0.677853
H164	H	1.043472	-0.384141	-0.826572
H165	H	1.043527	-0.384041	-1.079428
H166	H	1.225604	-0.627943	-0.930689
O167	O	1.233568	-0.638493	-0.832919
C168	C	1.311806	-0.615540	-0.812911
H169	H	1.313429	-0.575176	-0.753393
H170	H	1.338267	-0.561512	-0.859058
C171	C	1.357336	-0.767550	-0.882217
C172	C	1.359330	-0.717982	-0.809113
H173	H	1.386653	-0.830739	-0.879877
H174	H	1.304626	-0.783012	-0.895699
H175	H	1.379386	-0.722516	-0.920665
H176	H	1.337271	-0.763010	-0.770668
H177	H	1.412037	-0.702530	-0.795623
H178	H	0.434089	-0.628337	-0.469193
H179	H	0.582808	-0.628314	-0.469167
