data_functionalizedCrystal
_audit_creation_method	'MofGen! by Chris Wilmer'
_symmetry_space_group_name_H-M	'P1'
_symmetry_Int_Tables_number	1
_symmetry_cell_setting	triclinic
loop_
_symmetry_equiv_pos_as_xyz
  x,y,z
_cell_length_a	14.519709
_cell_length_b	14.971482
_cell_length_c	13.448316
_cell_angle_alpha	89.993798
_cell_angle_beta	90.000405
_cell_angle_gamma	96.353624
loop_
_atom_site_label
_atom_site_type_symbol
_atom_site_fract_x
_atom_site_fract_y
_atom_site_fract_z
O1	O	-0.120168	1.187017	-0.082665
O2	O	0.379832	1.687017	0.417335
O3	O	-0.134563	0.926624	-0.082668
O4	O	0.365437	1.426624	0.417332
O5	O	0.006877	1.063725	-0.082676
O6	O	0.506877	1.563725	0.417324
O7	O	-0.261608	1.049917	-0.082658
O8	O	0.238392	1.549917	0.417342
O9	O	0.006886	1.063707	0.082708
O10	O	0.506886	1.563707	0.582708
O11	O	-0.134555	0.926607	0.082716
O12	O	0.365445	1.426607	0.582716
O13	O	-0.120159	1.187000	0.082719
O14	O	0.379841	1.687000	0.582719
Cu15	Cu	-0.127356	1.056802	0.097818
Cu16	Cu	0.372644	1.556802	0.597818
Cu17	Cu	-0.127366	1.056822	-0.097767
Cu18	Cu	0.372634	1.556822	0.402233
O19	O	-0.261599	1.049900	0.082726
O20	O	0.238401	1.549900	0.582726
C21	C	-0.133916	0.893291	0.000023
C22	C	0.366084	1.393291	0.500023
C23	C	-0.131988	0.793992	0.000021
C24	C	0.368012	1.293992	0.500021
C25	C	-0.131076	0.747338	0.090173
C26	C	0.368924	1.247338	0.590173
C27	C	-0.129250	0.654038	0.090174
C28	C	0.370750	1.154038	0.590174
C29	C	-0.128343	0.607394	0.000022
C30	C	0.371657	1.107394	0.500022
C31	C	-0.129253	0.654056	-0.090137
C32	C	0.370747	1.154056	0.409863
C33	C	-0.131072	0.747354	-0.090137
C34	C	0.368928	1.247354	0.409863
C35	C	-0.125464	0.459592	-0.090130
C36	C	0.374536	0.959592	0.409870
C37	C	-0.123646	0.366286	-0.090131
C38	C	0.376354	0.866286	0.409869
C39	C	-0.123641	0.366276	0.090180
C40	C	0.376359	0.866276	0.590180
C41	C	-0.125461	0.459574	0.090180
C42	C	0.374539	0.959574	0.590180
C43	C	-0.126372	0.506229	0.000021
C44	C	0.373628	1.006229	0.500021
C45	C	-0.295963	1.050552	0.000037
C46	C	0.204037	1.550552	0.500037
C47	C	-0.398343	1.052480	0.000043
C48	C	0.101657	1.552480	0.500043
C49	C	-0.773235	1.059579	0.000004
C50	C	-0.273235	1.559579	0.500004
C51	C	-0.668928	1.057608	0.000015
C52	C	-0.168928	1.557608	0.500015
C53	C	-0.585792	1.056030	0.000025
C54	C	-0.085792	1.556030	0.500025
C55	C	-0.481479	1.054058	0.000034
C56	C	0.018521	1.554058	0.500034
C57	C	0.041241	1.063073	0.000012
C58	C	0.541241	1.563073	0.500012
C59	C	0.143621	1.061144	-0.000001
C60	C	0.643621	1.561144	0.499999
C61	C	-0.120806	1.220333	0.000025
C62	C	0.379194	1.720333	0.500025
C63	C	-0.122734	1.319632	0.000021
C64	C	0.377266	1.819632	0.500021
N65	N	-0.127348	1.056794	0.235382
N66	N	0.372652	1.556794	0.735382
N67	N	-0.127367	1.056837	-0.235332
N68	N	0.372633	1.556837	0.264668
C69	C	-0.064744	1.117521	0.287420
C70	C	0.435256	1.617521	0.787420
C71	C	-0.064743	1.117527	0.391523
C72	C	0.435257	1.617527	0.891523
C73	C	-0.127352	1.056809	0.443587
C74	C	0.372648	1.556809	0.943587
C75	C	-0.189959	0.996075	0.391543
C76	C	0.310041	1.496075	0.891543
C77	C	-0.189954	0.996066	0.287441
C78	C	0.310046	1.496066	0.787441
C79	C	-0.189965	0.996100	0.608523
C80	C	0.310035	1.496100	1.108523
C81	C	-0.189971	0.996110	0.712631
C82	C	0.310029	1.496110	1.212631
C83	C	-0.064754	1.117561	0.712604
C84	C	0.435246	1.617561	1.212604
C85	C	-0.064750	1.117551	0.608503
C86	C	0.435250	1.617551	1.108503
C87	C	-0.127358	1.056819	0.556466
C88	C	0.372642	1.556819	1.056466
H89	H	-0.131822	0.785308	0.163585
H90	H	0.368178	1.285308	0.663585
H91	H	-0.240945	0.946642	0.566157
H92	H	0.259055	1.446642	1.066157
H93	H	-0.128492	0.616058	0.163584
H94	H	0.371508	1.116058	0.663584
H95	H	-0.122909	0.328311	-0.163541
H96	H	0.377091	0.828311	0.336459
Cl97	Cl	-0.268657	0.919717	0.222024
Cl98	Cl	0.231343	1.419717	0.722024
H99	H	-0.126205	0.497549	0.163590
H100	H	0.373795	0.997549	0.663590
H101	H	-0.122899	0.328285	0.163591
H102	H	0.377101	0.828285	0.663591
Cl103	Cl	-0.126608	0.518242	-0.203475
Cl104	Cl	0.373392	1.018242	0.296525
Cl105	Cl	-0.128080	0.595422	-0.203471
Cl106	Cl	0.371920	1.095422	0.296529
Cl107	Cl	-0.132215	0.806007	-0.203475
Cl108	Cl	0.367785	1.306007	0.296525
Cl109	Cl	0.013951	1.193910	0.778026
Cl110	Cl	0.513951	1.693910	1.278026
Cl111	Cl	0.013965	1.193861	0.221978
Cl112	Cl	0.513965	1.693861	0.721978
Cl113	Cl	-0.268664	0.919739	0.456993
Cl114	Cl	0.231336	1.419739	0.956993
Cl115	Cl	0.013961	1.193869	0.456943
Cl116	Cl	0.513961	1.693869	0.956943
Cl117	Cl	-0.268681	0.919774	0.778076
Cl118	Cl	0.231319	1.419774	1.278076
H119	H	-0.013774	1.166996	0.566112
H120	H	0.486226	1.666996	1.066112
