data_functionalizedCrystal
_audit_creation_method	'MofGen! by Chris Wilmer'
_symmetry_space_group_name_H-M	'P1'
_symmetry_Int_Tables_number	1
_symmetry_cell_setting	triclinic
loop_
_symmetry_equiv_pos_as_xyz
  x,y,z
_cell_length_a	27.731993
_cell_length_b	10.654550
_cell_length_c	9.130313
_cell_angle_alpha	90.001310
_cell_angle_beta	89.991446
_cell_angle_gamma	96.447352
loop_
_atom_site_label
_atom_site_type_symbol
_atom_site_fract_x
_atom_site_fract_y
_atom_site_fract_z
O1	O	0.641872	-0.149081	0.121402
O2	O	0.501217	-0.171872	0.121491
O3	O	0.574779	0.022401	0.121439
O4	O	0.568311	-0.343353	0.121454
O5	O	0.574774	0.022389	-0.122160
O6	O	0.501212	-0.171883	-0.122108
O7	O	0.641867	-0.149093	-0.122197
Cu8	Cu	0.571539	-0.160489	-0.144395
Cu9	Cu	0.571545	-0.160475	0.143689
O10	O	0.568306	-0.343365	-0.122145
C11	C	0.483204	-0.171410	-0.000297
C12	C	0.429539	-0.170001	-0.000263
C13	C	0.046318	-0.159784	0.132451
C14	C	0.248009	-0.165153	0.132491
O15	O	0.274088	-0.165792	0.245423
N16	N	0.273231	-0.165831	-0.000292
C17	C	0.248027	-0.165159	-0.133094
O18	O	0.274108	-0.165846	-0.246033
C19	C	0.046337	-0.159780	-0.133133
C20	C	0.021118	-0.159115	-0.000341
C21	C	0.021098	-0.159117	0.265231
C22	C	-0.029322	-0.157781	0.265220
C23	C	-0.054522	-0.157113	0.132428
C24	C	-0.029302	-0.157779	-0.000352
C25	C	0.021135	-0.159099	-0.265933
C26	C	-0.029290	-0.157751	-0.265931
C27	C	-0.054510	-0.157085	-0.133140
C28	C	-0.104923	-0.155775	-0.133156
N29	N	-0.130144	-0.155097	-0.000373
C30	C	-0.104944	-0.155766	0.132419
C31	C	0.353917	-0.167985	-0.133065
C32	C	0.404339	-0.169332	-0.133055
C33	C	0.404317	-0.169324	0.132530
C34	C	0.353894	-0.167986	0.132519
C35	C	0.328695	-0.167307	-0.000282
C36	C	-0.210830	-0.152962	0.132385
C37	C	-0.261254	-0.151632	0.132362
C38	C	-0.261228	-0.151634	-0.133222
C39	C	-0.210808	-0.152970	-0.133200
C40	C	-0.185610	-0.153631	-0.000385
O41	O	-0.131033	-0.155122	-0.246028
O42	O	-0.131033	-0.155051	0.245341
C43	C	0.096738	-0.161119	0.132462
C44	C	0.121958	-0.161786	-0.000318
C45	C	0.096757	-0.161117	-0.133110
C46	C	0.172380	-0.163133	-0.000309
C47	C	0.197580	-0.163801	0.132483
C48	C	0.172358	-0.163123	0.265265
C49	C	0.121938	-0.161788	0.265254
C50	C	0.121979	-0.161795	-0.265893
C51	C	0.172399	-0.163132	-0.265871
C52	C	0.197599	-0.163801	-0.133079
C53	C	0.574301	0.069173	-0.000359
C54	C	0.572880	0.208555	-0.000353
C55	C	0.659880	-0.149555	-0.000406
C56	C	0.713545	-0.150963	-0.000430
C57	C	0.568783	-0.390137	-0.000344
C58	C	0.570204	-0.529519	-0.000341
N59	N	0.571538	-0.160498	-0.347018
C60	C	0.616192	0.289884	-0.000384
C61	C	0.614854	0.420848	-0.000373
C62	C	0.526889	0.389142	-0.000305
C63	C	0.528227	0.258180	-0.000305
C64	C	0.660845	0.240259	-0.000431
C65	C	0.704161	0.321589	-0.000465
C66	C	0.702823	0.452552	-0.000454
C67	C	0.658169	0.502187	-0.000409
C68	C	0.601106	-0.236115	-0.423700
C69	C	0.601113	-0.236091	-0.577037
C70	C	0.541980	-0.084831	-0.576996
C71	C	0.541976	-0.084849	-0.423662
C72	C	0.630669	-0.311764	-0.347056
C73	C	0.660239	-0.387388	-0.423739
C74	C	0.660246	-0.387364	-0.577075
C75	C	0.630683	-0.311717	-0.653730
N76	N	0.571550	-0.160456	0.346311
H77	H	-0.049851	-0.157234	0.373353
H78	H	0.192885	-0.163675	0.373389
H79	H	0.740516	0.281167	-0.000464
H80	H	0.517899	-0.023277	-0.361225
C81	C	0.750470	0.542012	-0.000491
N82	N	0.786360	0.609390	-0.000530
C83	C	-0.288993	-0.150891	0.278449
N84	N	-0.309883	-0.150326	0.388479
C85	C	0.662321	0.096197	-0.000444
N86	N	0.663432	-0.012310	-0.000455
H87	H	0.684326	-0.448932	-0.639506
H88	H	0.492959	0.191960	-0.000281
C89	C	0.200135	-0.163863	-0.411963
N90	N	0.221025	-0.164401	-0.521996
H91	H	0.630695	-0.311691	-0.778587
H92	H	0.041660	-0.159636	-0.374066
H93	H	0.657084	0.608827	-0.000385
C94	C	0.630666	-0.311790	-0.178383
N95	N	0.630664	-0.311809	-0.051338
C96	C	0.509459	-0.001636	-0.661322
N97	N	0.484961	0.061022	-0.724836
C98	C	-0.288958	-0.150894	-0.279287
N99	N	-0.309845	-0.150326	-0.389303
C100	C	0.477773	0.443746	-0.000279
N101	N	0.440779	0.484873	-0.000270
H102	H	-0.190319	-0.153502	0.240536
C103	C	0.692760	-0.470585	-0.339416
N104	N	0.717256	-0.533249	-0.275906
H105	H	0.333363	-0.167444	0.240650
C106	C	0.048811	-0.159850	0.411326
N107	N	0.069680	-0.160410	0.521375
C108	C	0.432074	-0.170078	-0.279136
N109	N	0.452963	-0.170631	-0.389170
C110	C	0.432047	-0.170050	0.278602
N111	N	0.452937	-0.170585	0.388618
H112	H	-0.049805	-0.157209	-0.374076
C113	C	-0.183066	-0.153712	-0.279276
N114	N	-0.162174	-0.154258	-0.389304
C115	C	0.326203	-0.167265	-0.279166
N116	N	0.305330	-0.166735	-0.389212
H117	H	0.101409	-0.161246	0.373387
H118	H	0.101466	-0.161244	-0.374031
