data_functionalizedCrystal
_audit_creation_method	'MofGen! by Chris Wilmer'
_symmetry_space_group_name_H-M	'P1'
_symmetry_Int_Tables_number	1
_symmetry_cell_setting	triclinic
loop_
_symmetry_equiv_pos_as_xyz
  x,y,z
_cell_length_a	14.044191
_cell_length_b	14.044220
_cell_length_c	14.185569
_cell_angle_alpha	75.620253
_cell_angle_beta	104.380485
_cell_angle_gamma	93.190327
loop_
_atom_site_label
_atom_site_type_symbol
_atom_site_fract_x
_atom_site_fract_y
_atom_site_fract_z
O1	O	1.257356	0.250004	-0.083376
O2	O	0.980681	0.241694	-0.083388
O3	O	1.114868	0.107511	-0.083372
O4	O	1.123169	0.384187	-0.083392
O5	O	1.154508	0.067876	0.083467
O6	O	1.020321	0.202060	0.083451
O7	O	1.296997	0.210369	0.083464
Cu8	Cu	1.162278	0.202596	0.098691
Cu9	Cu	1.115399	0.249468	-0.098616
O10	O	1.162809	0.344553	0.083448
C11	C	0.964879	0.218241	0.000030
C12	C	0.858735	0.207394	0.000026
C13	C	0.613277	0.264493	0.000032
C14	C	0.664404	0.187576	0.000035
C15	C	0.772539	0.198606	0.000030
C16	C	0.505132	0.253465	0.000037
C17	C	1.131053	0.052072	0.000048
C18	C	1.120208	-0.054072	0.000049
C19	C	1.100378	-0.248406	0.000033
C20	C	1.177293	-0.299534	0.000034
C21	C	1.166259	-0.407669	0.000025
C22	C	1.111410	-0.140262	0.000042
C23	C	1.312798	0.233823	0.000043
C24	C	1.418941	0.244671	0.000041
C25	C	1.146624	0.399992	0.000026
C26	C	1.157467	0.506137	0.000018
N27	N	1.195258	0.169628	0.237466
N28	N	1.082427	0.282428	-0.237391
C29	C	0.985530	0.379245	0.605091
C30	C	1.010518	0.354279	0.710116
C31	C	1.129371	0.235510	0.710091
C32	C	1.104389	0.260462	0.605064
C33	C	1.032469	0.332331	0.552573
C34	C	1.151328	0.213549	0.552546
C35	C	1.126351	0.238503	0.447528
C36	C	1.054436	0.310370	0.395029
C37	C	1.007492	0.357285	0.447555
C38	C	1.223253	0.141685	0.605039
C39	C	1.270193	0.094772	0.552521
C40	C	1.245211	0.119721	0.447501
C41	C	1.173295	0.191588	0.395002
C42	C	1.292155	0.072806	0.394975
C43	C	1.267178	0.097760	0.289958
C44	C	1.148319	0.216542	0.289985
H45	H	0.650717	0.338622	0.000023
H46	H	1.026249	-0.285844	0.000027
F47	F	1.274195	-0.250602	0.000046
F48	F	1.071762	0.293024	0.234117
F49	F	1.027858	0.336932	0.283259
H50	H	0.948920	0.415800	0.404814
H51	H	0.926957	0.437760	0.562350
F52	F	1.368705	-0.003670	0.450852
F53	F	0.960553	0.404222	0.766003
F54	F	0.615467	0.090677	0.000043
F55	F	1.205915	0.159027	0.765965
F56	F	1.249837	0.115135	0.716810
H57	H	1.328754	0.036258	0.595271
H58	H	1.305402	0.059558	0.247197
