data_functionalizedCrystal
_audit_creation_method	'MofGen! by Chris Wilmer'
_symmetry_space_group_name_H-M	'P1'
_symmetry_Int_Tables_number	1
_symmetry_cell_setting	triclinic
loop_
_symmetry_equiv_pos_as_xyz
  x,y,z
_cell_length_a	29.839134
_cell_length_b	29.839133
_cell_length_c	16.625539
_cell_angle_alpha	89.978203
_cell_angle_beta	89.969685
_cell_angle_gamma	90.024465
loop_
_atom_site_label
_atom_site_type_symbol
_atom_site_fract_x
_atom_site_fract_y
_atom_site_fract_z
Zn1	Zn	0.686794	-0.178914	-0.456155
Zn2	Zn	0.686730	-0.254045	-0.321338
Zn3	Zn	0.611665	-0.178923	-0.321313
Zn4	Zn	0.611640	-0.254011	-0.456105
O5	O	0.649207	-0.216473	-0.388728
O6	O	0.749652	-0.188891	-0.438303
O7	O	0.676757	-0.244098	-0.208502
O8	O	0.621669	-0.116055	-0.339211
O9	O	0.749606	-0.244089	-0.339253
O10	O	0.676865	-0.116048	-0.438279
O11	O	0.621607	-0.188906	-0.208484
O12	O	0.548795	-0.188873	-0.339162
O13	O	0.621625	-0.244031	-0.568944
O14	O	0.548776	-0.244040	-0.438193
O15	O	0.676840	-0.188858	-0.568981
O16	O	0.676732	-0.316908	-0.339204
O17	O	0.621563	-0.316883	-0.438217
C18	C	0.532485	-0.216454	-0.388670
C19	C	0.482550	-0.216457	-0.388664
C20	C	0.649150	-0.333196	-0.388725
C21	C	0.649167	-0.383130	-0.388751
C22	C	0.677964	-0.739679	-0.440372
C23	C	0.677922	-0.552006	-0.440371
O24	O	0.702348	-0.527709	-0.484248
N25	N	0.649202	-0.528575	-0.388750
C26	C	0.620493	-0.552066	-0.337121
O27	O	0.596068	-0.527831	-0.293208
C28	C	0.620539	-0.739738	-0.337119
C29	C	0.649257	-0.763166	-0.388749
C30	C	0.706681	-0.763107	-0.491997
C31	C	0.706689	-0.810023	-0.492000
C32	C	0.677982	-0.833510	-0.440377
C33	C	0.649265	-0.810082	-0.388752
C34	C	0.591832	-0.763228	-0.285487
C35	C	0.591847	-0.810149	-0.285489
C36	C	0.620565	-0.833577	-0.337120
C37	C	0.620566	-0.880484	-0.337132
N38	N	0.649286	-0.903915	-0.388753
C39	C	0.677994	-0.880428	-0.440376
C40	C	0.620471	-0.453535	-0.337127
C41	C	0.620459	-0.406617	-0.337129
C42	C	0.677888	-0.406561	-0.440378
C43	C	0.677898	-0.453479	-0.440379
C44	C	0.649191	-0.476966	-0.388748
C45	C	0.678009	-0.978954	-0.440378
C46	C	0.678014	-1.025873	-0.440379
C47	C	0.620587	-1.025926	-0.337128
C48	C	0.620580	-0.979010	-0.337130
C49	C	0.649295	-0.955525	-0.388758
O50	O	0.596156	-0.904811	-0.293271
O51	O	0.702422	-0.904671	-0.484270
C52	C	0.677956	-0.692764	-0.440369
C53	C	0.649240	-0.669335	-0.388743
C54	C	0.620532	-0.692823	-0.337121
C55	C	0.649228	-0.622418	-0.388745
C56	C	0.677935	-0.598930	-0.440368
C57	C	0.706655	-0.622361	-0.491989
C58	C	0.706663	-0.669276	-0.491992
C59	C	0.591812	-0.669392	-0.285500
C60	C	0.591806	-0.622477	-0.285502
C61	C	0.620513	-0.598989	-0.337124
C62	C	0.172906	-0.245241	-0.440230
C63	C	-0.014767	-0.245254	-0.440266
O64	O	-0.039032	-0.269706	-0.484075
N65	N	-0.038235	-0.216490	-0.388789
C66	C	-0.014782	-0.187718	-0.337302
O67	O	-0.039049	-0.163250	-0.293524
C68	C	0.172890	-0.187704	-0.337271
C69	C	0.196356	-0.216473	-0.388746
C70	C	0.196372	-0.274008	-0.491702
C71	C	0.243288	-0.274006	-0.491689
C72	C	0.266737	-0.245238	-0.440205
C73	C	0.243271	-0.216471	-0.388733
C74	C	0.196342	-0.158931	-0.285789
C75	C	0.243263	-0.158929	-0.285788
C76	C	0.266729	-0.187698	-0.337263
C77	C	0.313637	-0.187701	-0.337237
N78	N	0.337105	-0.216465	-0.388714
C79	C	0.313655	-0.245233	-0.440198
C80	C	-0.113313	-0.187729	-0.337321
C81	C	-0.160230	-0.187733	-0.337328
C82	C	-0.160212	-0.245268	-0.440293
C83	C	-0.113293	-0.245266	-0.440281
C84	C	-0.089844	-0.216493	-0.388799
C85	C	0.412181	-0.245228	-0.440167
C86	C	0.459101	-0.245225	-0.440148
C87	C	0.459078	-0.187689	-0.337186
C88	C	0.412162	-0.187693	-0.337202
C89	C	0.388715	-0.216464	-0.388700
O90	O	0.337931	-0.163258	-0.293457
O91	O	0.337931	-0.269691	-0.483982
C92	C	0.125991	-0.245243	-0.440243
C93	C	0.102525	-0.216476	-0.388771
C94	C	0.125975	-0.187708	-0.337287
C95	C	0.055607	-0.216481	-0.388778
C96	C	0.032158	-0.245249	-0.440262
C97	C	0.055626	-0.274013	-0.491739
C98	C	0.102541	-0.274011	-0.491727
C99	C	0.102506	-0.158944	-0.285810
C100	C	0.055591	-0.158949	-0.285826
C101	C	0.032141	-0.187717	-0.337310
C102	C	0.766386	-0.216493	-0.388787
C103	C	0.816320	-0.216501	-0.388812
C104	C	0.649236	-0.216440	-0.599037
C105	C	0.649249	-0.216426	-0.688658
C106	C	0.649277	-0.099295	-0.388748
C107	C	0.649306	-0.049360	-0.388756
C108	C	0.649270	-0.216375	-1.016834
C109	C	0.649263	-0.216391	-0.925525
C110	C	0.649259	-0.216401	-0.852749
C111	C	0.649252	-0.216415	-0.761434
C112	C	0.649204	-0.216474	-0.179237
C113	C	0.649279	-0.216362	-0.089616
H114	H	0.701399	-1.044946	-0.482428
F115	F	0.590013	-0.954076	-0.282182
H116	H	0.568435	-0.688511	-0.243460
F117	F	0.387188	-0.157081	-0.282406
F118	F	0.590032	-1.050931	-0.282195
H119	H	-0.094225	-0.164298	-0.295394
F120	F	0.127457	-0.128322	-0.231012
H121	H	0.262389	-0.297432	-0.533607
H122	H	0.478179	-0.164268	-0.295267
F123	F	0.484072	-0.275847	-0.494935
F124	F	0.737255	-0.834951	-0.546954
H125	H	0.036525	-0.297438	-0.533657
H126	H	0.177244	-0.135505	-0.243871
F127	F	0.561263	-0.738304	-0.230538
H128	H	0.701392	-0.959837	-0.482418
F129	F	0.127510	-0.304631	-0.546514
H130	H	0.701281	-0.472551	-0.482425
F131	F	0.737238	-0.738117	-0.546946
F132	F	0.708442	-0.381556	-0.495317
F133	F	0.268216	-0.128303	-0.230992
F134	F	-0.185199	-0.157118	-0.282531
H135	H	0.036489	-0.135522	-0.243902
F136	F	-0.185177	-0.275883	-0.495090
F137	F	0.589887	-0.381689	-0.282189
H138	H	0.597093	-0.472654	-0.295081
F139	F	0.561293	-0.835142	-0.230533
F140	F	0.737229	-0.694204	-0.546945
F141	F	0.737206	-0.597356	-0.546933
H142	H	0.568416	-0.603405	-0.243460
H143	H	0.393096	-0.268655	-0.482103
F144	F	0.171422	-0.304629	-0.546504
F145	F	-0.088323	-0.275885	-0.495069
