data_functionalizedCrystal
_audit_creation_method	'MofGen! by Chris Wilmer'
_symmetry_space_group_name_H-M	'P1'
_symmetry_Int_Tables_number	1
_symmetry_cell_setting	triclinic
loop_
_symmetry_equiv_pos_as_xyz
  x,y,z
_cell_length_a	19.188905
_cell_length_b	19.188924
_cell_length_c	17.666332
_cell_angle_alpha	89.991448
_cell_angle_beta	89.983521
_cell_angle_gamma	83.138260
loop_
_atom_site_label
_atom_site_type_symbol
_atom_site_fract_x
_atom_site_fract_y
_atom_site_fract_z
O1	O	0.926159	0.087086	-0.063076
O2	O	1.426159	0.587086	0.436924
O3	O	0.722845	0.098838	-0.063051
O4	O	1.222845	0.598838	0.436949
O5	O	0.830371	-0.008694	-0.063056
O6	O	1.330371	0.491306	0.436944
O7	O	0.818632	0.194619	-0.063072
O8	O	1.318632	0.694619	0.436928
O9	O	0.830352	-0.008700	0.062841
O10	O	1.330352	0.491300	0.562841
O11	O	0.722826	0.098833	0.062846
O12	O	1.222826	0.598833	0.562846
O13	O	0.926140	0.087080	0.062820
O14	O	1.426140	0.587080	0.562820
Cu15	Cu	0.824481	0.092956	0.074328
Cu16	Cu	1.324481	0.592956	0.574328
Cu17	Cu	0.824503	0.092963	-0.074559
Cu18	Cu	1.324503	0.592963	0.425441
O19	O	0.818613	0.194613	0.062825
O20	O	1.318613	0.694613	0.562825
C21	C	0.696824	0.098458	-0.000099
C22	C	1.196824	0.598458	0.499901
C23	C	0.619318	0.097324	-0.000089
C24	C	1.119318	0.597324	0.499911
C25	C	0.582937	0.096783	-0.068718
C26	C	1.082937	0.596783	0.431282
C27	C	0.510113	0.095710	-0.068727
C28	C	1.010113	0.595710	0.431273
C29	C	0.473676	0.095164	-0.000104
C30	C	0.973676	0.595164	0.499896
C31	C	0.510066	0.095710	0.068533
C32	C	1.010066	0.595710	0.568533
C33	C	0.582887	0.096790	0.068541
C34	C	1.082887	0.596790	0.568541
N35	N	0.364649	0.053733	0.050969
N36	N	0.864649	0.553733	0.550969
N37	N	0.295472	0.052706	0.050957
N38	N	0.795472	0.552706	0.550957
C39	C	0.254269	0.091911	-0.000122
C40	C	0.754269	0.591911	0.499878
N41	N	0.284858	0.132175	-0.051201
N42	N	0.784858	0.632175	0.448799
N43	N	0.354042	0.133199	-0.051191
N44	N	0.854042	0.633199	0.448809
C45	C	0.394713	0.093993	-0.000104
C46	C	0.894713	0.593993	0.499896
C47	C	0.138924	0.090207	-0.068765
C48	C	0.638924	0.590207	0.431235
C49	C	0.066098	0.089139	-0.068772
C50	C	0.566098	0.589139	0.431228
C51	C	0.066053	0.089132	0.068491
C52	C	0.566053	0.589132	0.568491
C53	C	0.138876	0.090207	0.068495
C54	C	0.638876	0.590207	0.568495
C55	C	0.175308	0.090742	-0.000135
C56	C	0.675308	0.590742	0.499865
C57	C	0.829982	-0.034708	-0.000106
C58	C	1.329982	0.465292	0.499894
C59	C	0.828844	-0.112213	-0.000104
C60	C	1.328844	0.387787	0.499896
C61	C	0.828322	-0.148609	-0.068731
C62	C	1.328322	0.351391	0.431269
C63	C	0.827243	-0.221431	-0.068736
C64	C	1.327243	0.278569	0.431264
C65	C	0.826698	-0.257857	-0.000112
C66	C	1.326698	0.242143	0.499888
C67	C	0.827215	-0.221452	0.068524
C68	C	1.327215	0.278548	0.568524
C69	C	0.828288	-0.148630	0.068528
C70	C	1.328288	0.351370	0.568528
N71	N	0.864739	-0.377526	0.050959
N72	N	1.364739	0.122474	0.550959
N73	N	0.863721	-0.446704	0.050951
N74	N	1.363721	0.053296	0.550951
C75	C	0.823464	-0.477266	-0.000119
C76	C	1.323464	0.022734	0.499881
N77	N	0.784272	-0.436037	-0.051191
N78	N	1.284272	0.063963	0.448809
N79	N	0.785293	-0.366853	-0.051185
N80	N	1.285293	0.133147	0.448815
C81	C	0.825534	-0.336821	-0.000108
C82	C	1.325534	0.163179	0.499892
C83	C	0.821771	-0.592624	-0.068756
C84	C	1.321771	-0.092624	0.431244
C85	C	0.820686	-0.665448	-0.068759
C86	C	1.320686	-0.165448	0.431241
C87	C	0.820666	-0.665468	0.068504
C88	C	1.320666	-0.165468	0.568504
C89	C	0.821743	-0.592645	0.068504
C90	C	1.321743	-0.092645	0.568504
C91	C	0.822299	-0.556228	-0.000127
C92	C	1.322299	-0.056228	0.499873
C93	C	0.952160	0.087461	-0.000133
C94	C	1.452160	0.587461	0.499867
C95	C	1.029666	0.088594	-0.000148
C96	C	1.529666	0.588594	0.499852
C97	C	0.819002	0.220627	-0.000126
C98	C	1.319002	0.720627	0.499874
C99	C	0.820141	0.298132	-0.000133
C100	C	1.320141	0.798132	0.499867
N101	N	0.824471	0.092951	0.179048
N102	N	1.324471	0.592951	0.679048
N103	N	0.824519	0.092962	-0.179279
N104	N	1.324519	0.592962	0.320721
C105	C	0.872099	0.045358	0.218656
C106	C	1.372099	0.545358	0.718656
C107	C	0.872103	0.045355	0.297903
C108	C	1.372103	0.545355	0.797903
C109	C	0.824485	0.092956	0.337540
C110	C	1.324485	0.592956	0.837540
C111	C	0.776848	0.140552	0.297923
C112	C	1.276848	0.640552	0.797923
C113	C	0.776841	0.140549	0.218677
C114	C	1.276841	0.640549	0.718677
N115	N	0.815407	0.154764	0.461954
N116	N	1.315407	0.654764	0.961954
N117	N	0.815419	0.154765	0.537235
N118	N	1.315419	0.654765	1.037235
C119	C	0.824504	0.092966	0.576304
C120	C	1.324504	0.592966	1.076304
N121	N	0.833591	0.031165	0.537249
N122	N	1.333591	0.531165	1.037249
N123	N	0.833583	0.031165	0.461961
N124	N	1.333583	0.531165	0.961961
C125	C	0.824488	0.092964	0.423469
C126	C	1.324488	0.592964	0.923469
C127	C	0.872139	0.045366	0.701841
C128	C	1.372139	0.545366	1.201841
C129	C	0.872138	0.045362	0.781090
C130	C	1.372138	0.545362	1.281090
C131	C	0.776887	0.140565	0.781108
C132	C	1.276887	0.640565	1.281108
C133	C	0.776884	0.140563	0.701861
C134	C	1.276884	0.640563	1.201861
C135	C	0.824514	0.092964	0.662232
C136	C	1.324514	0.592964	1.162232
H137	H	0.036386	0.088692	0.124365
H138	H	0.536386	0.588692	0.624365
O139	O	0.826627	-0.256715	-0.135445
O140	O	1.326627	0.243285	0.364555
C141	C	0.766424	-0.230828	-0.177169
C142	C	1.266424	0.269172	0.322831
H143	H	0.747059	-0.175249	-0.157664
H144	H	1.247059	0.324751	0.342336
H145	H	0.780052	-0.230168	-0.239958
H146	H	1.280052	0.269832	0.260042
H147	H	0.723480	-0.266132	-0.167625
H148	H	1.223480	0.233868	0.332375
O149	O	0.918339	-0.000974	0.336309
O150	O	1.418339	0.499026	0.836309
C151	C	0.907197	-0.070065	0.316984
C152	C	1.407197	0.429935	0.816984
H153	H	0.880287	-0.069918	0.259454
H154	H	1.380287	0.430082	0.759454
H155	H	0.959786	-0.104584	0.314268
H156	H	1.459786	0.395416	0.814268
H157	H	0.872512	-0.091563	0.361602
H158	H	1.372512	0.408437	0.861602
O159	O	0.174207	0.090600	0.135182
O160	O	0.674207	0.590600	0.635182
C161	C	0.164487	0.029886	0.176941
C162	C	0.664487	0.529886	0.676941
H163	H	0.150147	-0.012663	0.136786
H164	H	0.650147	0.487337	0.636786
H165	H	0.215086	0.010301	0.208078
H166	H	0.715086	0.510301	0.708078
H167	H	0.120370	0.042925	0.219727
H168	H	0.620370	0.542925	0.719727
H169	H	0.612508	0.097231	0.124428
H170	H	1.112508	0.597231	0.624428
O171	O	0.826591	-0.256896	0.135139
O172	O	1.326591	0.243104	0.635139
C173	C	0.765506	-0.290907	0.139256
C174	C	1.265506	0.209093	0.639256
H175	H	0.745202	-0.299109	0.079671
H176	H	1.245202	0.200891	0.579671
H177	H	0.778343	-0.343941	0.168300
H178	H	1.278343	0.156059	0.668300
H179	H	0.723578	-0.257175	0.173126
H180	H	1.223578	0.242825	0.673126
H181	H	0.820258	-0.695079	-0.124645
H182	H	1.320258	-0.195079	0.375355
O183	O	0.828687	-0.113171	-0.135372
O184	O	1.328687	0.386829	0.364628
C185	C	0.768800	-0.063010	-0.139431
C186	C	1.268800	0.436990	0.360569
H187	H	0.748866	-0.049382	-0.079823
H188	H	1.248866	0.450618	0.420177
H189	H	0.783073	-0.013622	-0.168551
H190	H	1.283073	0.486378	0.331449
H191	H	0.726037	-0.085462	-0.173199
H192	H	1.226037	0.414538	0.326801
O193	O	0.474764	0.095085	0.135242
O194	O	0.974764	0.595085	0.635242
C195	C	0.500639	0.034883	0.176991
C196	C	1.000639	0.534883	0.676991
H197	H	0.556222	0.015515	0.157484
H198	H	1.056222	0.515515	0.657484
H199	H	0.501286	0.048515	0.239773
H200	H	1.001286	0.548515	0.739773
H201	H	0.465336	-0.008060	0.167477
H202	H	0.965336	0.491940	0.667477
O203	O	0.918379	-0.000968	0.819483
O204	O	1.418379	0.499032	1.319483
C205	C	0.907243	-0.070059	0.800149
C206	C	1.407243	0.429941	1.300149
H207	H	0.880326	-0.069907	0.742622
H208	H	1.380326	0.430093	1.242622
H209	H	0.959835	-0.104572	0.797421
H210	H	1.459835	0.395428	1.297421
H211	H	0.872566	-0.091568	0.844767
H212	H	1.372566	0.408432	1.344767
H213	H	0.828710	-0.118997	0.124413
H214	H	1.328710	0.381003	0.624413
O215	O	0.918508	-0.000757	0.663331
O216	O	1.418508	0.499243	1.163331
C217	C	0.961446	0.036561	0.617491
C218	C	1.461446	0.536561	1.117491
H219	H	0.962389	0.091631	0.641363
H220	H	1.462389	0.591631	1.141363
H221	H	1.017048	0.007977	0.616623
H222	H	1.517048	0.507977	1.116623
H223	H	0.939623	0.040252	0.557421
H224	H	1.439623	0.540252	1.057421
H225	H	0.168587	0.090650	-0.124648
H226	H	0.668587	0.590650	0.375352
O227	O	0.822270	-0.557346	-0.135489
O228	O	1.322270	-0.057346	0.364511
C229	C	0.821588	-0.605091	-0.196064
C230	C	1.321588	-0.105091	0.303936
H231	H	0.798718	-0.654043	-0.175944
H232	H	1.298718	-0.154043	0.324056
H233	H	0.788015	-0.579501	-0.244056
H234	H	1.288015	-0.079501	0.255944
H235	H	0.877478	-0.620338	-0.217175
H236	H	1.377478	-0.120338	0.282825
O237	O	0.030867	0.088583	-0.135509
O238	O	0.530867	0.588583	0.364491
C239	C	0.078640	0.089303	-0.196077
C240	C	0.578640	0.589303	0.303923
H241	H	0.133504	0.067972	-0.175948
H242	H	0.633504	0.567972	0.324052
H243	H	0.062158	0.055098	-0.244071
H244	H	0.562158	0.555098	0.255929
H245	H	0.078887	0.145417	-0.217189
H246	H	0.578887	0.645417	0.282811
O247	O	0.820029	-0.700899	0.135123
O248	O	1.320029	-0.200899	0.635123
C249	C	0.758935	-0.734897	0.139234
C250	C	1.258935	-0.234897	0.639234
H251	H	0.738640	-0.743104	0.079647
H252	H	1.238640	-0.243104	0.579647
H253	H	0.771757	-0.787928	0.168289
H254	H	1.271757	-0.287928	0.668289
H255	H	0.717007	-0.701153	0.173091
H256	H	1.217007	-0.201153	0.673091
O257	O	0.822291	-0.557400	0.135237
O258	O	1.322291	-0.057400	0.635237
C259	C	0.821562	-0.605161	0.195808
C260	C	1.321562	-0.105161	0.695808
H261	H	0.842896	-0.660029	0.175682
H262	H	1.342896	-0.160029	0.675682
H263	H	0.855759	-0.588670	0.243800
H264	H	1.355759	-0.088670	0.743800
H265	H	0.765444	-0.605403	0.216920
H266	H	1.265444	-0.105403	0.716920
O267	O	0.918168	-0.001097	0.180193
O268	O	1.418168	0.498903	0.680193
C269	C	0.880735	-0.044071	0.134561
C270	C	1.380735	0.455929	0.634561
H271	H	0.826107	-0.015953	0.122594
H272	H	1.326107	0.484047	0.622594
H273	H	0.909898	-0.055495	0.078870
H274	H	1.409898	0.444505	0.578870
H275	H	0.875929	-0.095513	0.165317
H276	H	1.375929	0.404487	0.665317
O277	O	0.730565	0.186696	0.336507
O278	O	1.230565	0.686696	0.836507
C279	C	0.687606	0.149414	0.382360
C280	C	1.187606	0.649414	0.882360
H281	H	0.715587	0.094708	0.394231
H282	H	1.215587	0.594708	0.894231
H283	H	0.676476	0.178587	0.438085
H284	H	1.176476	0.678587	0.938085
H285	H	0.636017	0.144799	0.351845
H286	H	1.136017	0.644799	0.851845
H287	H	0.738055	0.179305	0.186427
H288	H	1.238055	0.679305	0.686427
H289	H	0.612595	0.097218	-0.124602
H290	H	1.112595	0.597218	0.375398
H291	H	0.738113	0.179320	0.813380
H292	H	1.238113	0.679320	1.313380
H293	H	0.738104	0.179320	0.669610
H294	H	1.238104	0.679320	1.169610
H295	H	0.480485	0.095270	-0.124614
H296	H	0.980485	0.595270	0.375386
