data_functionalizedCrystal
_audit_creation_method	'MofGen! by Chris Wilmer'
_symmetry_space_group_name_H-M	'P1'
_symmetry_Int_Tables_number	1
_symmetry_cell_setting	triclinic
loop_
_symmetry_equiv_pos_as_xyz
  x,y,z
_cell_length_a	25.639242
_cell_length_b	25.639239
_cell_length_c	25.639233
_cell_angle_alpha	89.981253
_cell_angle_beta	89.977834
_cell_angle_gamma	90.034213
loop_
_atom_site_label
_atom_site_type_symbol
_atom_site_fract_x
_atom_site_fract_y
_atom_site_fract_z
Zn1	Zn	0.799225	-0.208277	-0.295742
Zn2	Zn	0.799149	-0.295696	-0.208307
Zn3	Zn	0.711801	-0.208269	-0.208306
Zn4	Zn	0.711746	-0.295676	-0.295696
O5	O	0.755480	-0.251979	-0.252013
O6	O	0.872380	-0.219884	-0.284163
O7	O	0.787553	-0.284103	-0.135141
O8	O	0.723453	-0.135105	-0.219924
O9	O	0.872324	-0.284111	-0.219924
O10	O	0.787683	-0.135111	-0.284163
O11	O	0.723379	-0.219871	-0.135141
O12	O	0.638629	-0.219853	-0.219880
O13	O	0.723360	-0.284078	-0.368868
O14	O	0.638589	-0.284070	-0.284085
O15	O	0.787630	-0.219866	-0.368901
O16	O	0.787499	-0.368858	-0.219880
O17	O	0.723286	-0.368844	-0.284085
C18	C	0.619638	-0.251959	-0.251977
C19	C	0.561524	-0.251963	-0.251975
C20	C	0.201149	-0.285473	-0.285413
C21	C	0.146544	-0.285477	-0.285421
O22	O	0.118297	-0.313943	-0.313821
N23	N	0.119241	-0.251994	-0.252047
C24	C	0.146545	-0.218502	-0.218666
O25	O	0.118308	-0.190022	-0.190280
C26	C	0.201149	-0.218496	-0.218661
C27	C	0.228449	-0.251985	-0.252034
C28	C	0.228449	-0.318959	-0.318783
C29	C	0.283049	-0.318956	-0.318774
C30	C	0.310350	-0.285468	-0.285395
C31	C	0.283049	-0.251983	-0.252024
C32	C	0.228452	-0.185002	-0.185283
C33	C	0.283059	-0.185000	-0.185281
C34	C	0.310359	-0.218488	-0.218654
C35	C	0.364950	-0.218492	-0.218636
N36	N	0.392253	-0.251974	-0.252010
C37	C	0.364953	-0.285463	-0.285389
C38	C	0.031875	-0.218515	-0.218680
C39	C	-0.022728	-0.218523	-0.218683
C40	C	-0.022725	-0.285497	-0.285438
C41	C	0.031878	-0.285492	-0.285433
C42	C	0.059178	-0.251998	-0.252054
C43	C	0.479618	-0.285455	-0.285368
C44	C	0.534223	-0.285451	-0.285354
C45	C	0.534216	-0.218475	-0.218601
C46	C	0.479615	-0.218481	-0.218612
C47	C	0.452318	-0.251972	-0.252000
O48	O	0.393232	-0.190038	-0.190252
O49	O	0.393197	-0.313933	-0.313776
C50	C	0.755392	-0.387822	-0.251989
C51	C	0.755403	-0.445936	-0.251996
C52	C	0.789004	-0.806294	-0.218638
C53	C	0.789024	-0.860898	-0.218645
O54	O	0.817502	-0.889131	-0.190257
N55	N	0.755572	-0.888218	-0.252048
C56	C	0.722102	-0.860932	-0.285449
O57	O	0.693651	-0.889184	-0.313861
C58	C	0.722085	-0.806328	-0.285444
C59	C	0.755535	-0.779011	-0.252036
C60	C	0.822452	-0.778976	-0.185233
C61	C	0.822431	-0.724376	-0.185226
C62	C	0.788962	-0.697093	-0.218623
C63	C	0.755514	-0.724410	-0.252028
C64	C	0.688617	-0.779042	-0.318847
C65	C	0.688603	-0.724435	-0.318840
C66	C	0.722053	-0.697118	-0.285432
C67	C	0.722024	-0.642527	-0.285418
N68	N	0.755475	-0.615206	-0.252016
C69	C	0.788944	-0.642490	-0.218618
C70	C	0.722141	-0.975602	-0.285457
C71	C	0.722155	-1.030204	-0.285459
C72	C	0.789078	-1.030167	-0.218656
C73	C	0.789061	-0.975564	-0.218652
C74	C	0.755593	-0.948282	-0.252055
C75	C	0.788897	-0.527824	-0.218605
C76	C	0.788872	-0.473219	-0.218599
C77	C	0.721951	-0.473261	-0.285403
C78	C	0.721974	-0.527862	-0.285408
C79	C	0.755452	-0.555142	-0.252007
O80	O	0.693562	-0.614260	-0.313793
O81	O	0.817396	-0.614231	-0.190216
C82	C	0.891853	-0.252000	-0.252049
C83	C	0.949967	-0.252009	-0.252064
C84	C	0.755497	-0.251970	-0.388386
C85	C	0.755504	-0.251966	-0.446500
C86	C	0.755583	-0.115606	-0.252048
C87	C	0.755627	-0.057492	-0.252064
C88	C	0.789012	-0.218432	-0.806886
C89	C	0.789019	-0.218417	-0.861491
O90	O	0.817466	-0.189967	-0.889747
N91	N	0.755562	-0.251844	-0.888783
C92	C	0.722093	-0.285283	-0.861468
O93	O	0.693636	-0.313713	-0.889695
C94	C	0.722084	-0.285294	-0.806864
C95	C	0.755547	-0.251870	-0.779575
C96	C	0.822472	-0.185009	-0.779597
C97	C	0.822466	-0.185025	-0.724997
C98	C	0.789000	-0.218462	-0.697685
C99	C	0.755541	-0.251885	-0.724974
C100	C	0.688613	-0.318731	-0.779550
C101	C	0.688607	-0.318739	-0.724943
C102	C	0.722069	-0.285314	-0.697654
C103	C	0.722070	-0.285338	-0.643063
N104	N	0.755526	-0.251912	-0.615771
C105	C	0.788992	-0.218474	-0.643082
C106	C	0.722113	-0.285256	-0.976138
C107	C	0.722124	-0.285247	-1.030741
C108	C	0.789049	-0.218381	-1.030760
C109	C	0.789041	-0.218392	-0.976157
C110	C	0.755570	-0.251829	-0.948846
C111	C	0.788977	-0.218509	-0.528417
C112	C	0.788970	-0.218529	-0.473811
C113	C	0.722043	-0.285393	-0.473797
C114	C	0.722052	-0.285375	-0.528397
C115	C	0.755521	-0.251929	-0.555706
O116	O	0.693635	-0.313773	-0.614771
O117	O	0.817439	-0.190044	-0.614847
C118	C	0.755494	-0.251951	-0.116170
C119	C	0.755588	-0.251807	-0.058057
H120	H	0.206233	-0.157734	-0.158106
H121	H	-0.044963	-0.312763	-0.312619
C122	C	0.858869	-0.148684	-0.809149
C123	C	0.888173	-0.119430	-0.773553
C124	C	0.921718	-0.085968	-0.800753
H125	H	0.838954	-0.125844	-0.830452
H126	H	0.881668	-0.168672	-0.830439
H127	H	0.865377	-0.099444	-0.752272
H128	H	0.908099	-0.142256	-0.752249
H129	H	0.944518	-0.105956	-0.822043
H130	H	0.901799	-0.063132	-0.822054
H131	H	0.941609	-0.066119	-0.776605
C132	C	0.061539	-0.182090	-0.182518
C133	C	0.092909	-0.148605	-0.212173
C134	C	0.120235	-0.115039	-0.178879
H135	H	0.082860	-0.201994	-0.159687
H136	H	0.037471	-0.162122	-0.162653
H137	H	0.116975	-0.168570	-0.232029
H138	H	0.071601	-0.128690	-0.235002
H139	H	0.096166	-0.095071	-0.159014
H140	H	0.141553	-0.134947	-0.156050
H141	H	0.141519	-0.092312	-0.198995
C142	C	0.563769	-0.321830	-0.321648
C143	C	0.528169	-0.351146	-0.350892
C144	C	0.555364	-0.384657	-0.384335
H145	H	0.585048	-0.344628	-0.301663
H146	H	0.585081	-0.301874	-0.344490
H147	H	0.506865	-0.371100	-0.328052
H148	H	0.506888	-0.328362	-0.370887
H149	H	0.576677	-0.364701	-0.407178
H150	H	0.576643	-0.407451	-0.364346
H151	H	0.531214	-0.404548	-0.404185
C152	C	0.652287	-0.354988	-0.695198
C153	C	0.659430	-0.347842	-0.641537
C154	C	0.625978	-0.381221	-0.614121
H155	H	0.659879	-0.390138	-0.704085
H156	H	0.617154	-0.347321	-0.704109
H157	H	0.694555	-0.355513	-0.632630
H158	H	0.651834	-0.312699	-0.632634
H159	H	0.590845	-0.373554	-0.623032
H160	H	0.633573	-0.416368	-0.623013
H161	H	0.630816	-0.376373	-0.577710
C162	C	0.312792	-0.148655	-0.149095
C163	C	0.366455	-0.155806	-0.156236
C164	C	0.393860	-0.122332	-0.122916
H165	H	0.303881	-0.156221	-0.113932
H166	H	0.303895	-0.113527	-0.156820
H167	H	0.375348	-0.190927	-0.148508
H168	H	0.375381	-0.148237	-0.191392
H169	H	0.384963	-0.087204	-0.130640
H170	H	0.384945	-0.129900	-0.087755
H171	H	0.430273	-0.127176	-0.127759
C172	C	0.061583	-0.321762	-0.321700
C173	C	0.092969	-0.292206	-0.355257
C174	C	0.120342	-0.325602	-0.388671
H175	H	0.037559	-0.341719	-0.341628
H176	H	0.082894	-0.344505	-0.301674
H177	H	0.071660	-0.269473	-0.375282
H178	H	0.117003	-0.272251	-0.335343
H179	H	0.141654	-0.348344	-0.368645
H180	H	0.096314	-0.345556	-0.408595
H181	H	0.141644	-0.305553	-0.411440
H182	H	0.816300	-0.953325	-0.191448
C183	C	0.858696	-0.694627	-0.148977
C184	C	0.851515	-0.640966	-0.156103
C185	C	0.884911	-0.613550	-0.122715
H186	H	0.893843	-0.703481	-0.156637
H187	H	0.851067	-0.703571	-0.113829
H188	H	0.859147	-0.632026	-0.191243
H189	H	0.816375	-0.632097	-0.148439
H190	H	0.877282	-0.622494	-0.087567
H191	H	0.920056	-0.622408	-0.130378
H192	H	0.880040	-0.577138	-0.127542
C193	C	0.563932	-0.182202	-0.182333
C194	C	0.595259	-0.211755	-0.148775
C195	C	0.622648	-0.178356	-0.115366
H196	H	0.539918	-0.162244	-0.162406
H197	H	0.585285	-0.159463	-0.202363
H198	H	0.573907	-0.234485	-0.128746
H199	H	0.619283	-0.231712	-0.168687
H200	H	0.644001	-0.155616	-0.135396
H201	H	0.598630	-0.158399	-0.095443
H202	H	0.643910	-0.198402	-0.092596
H203	H	0.694798	-0.312619	-0.451550
H204	H	0.816111	-0.450979	-0.191392
H205	H	0.816159	-0.550030	-0.191408
C206	C	0.825230	-0.182133	-0.558088
C207	C	0.795661	-0.148594	-0.589420
C208	C	0.829040	-0.115076	-0.616754
H209	H	0.848010	-0.202069	-0.579436
H210	H	0.845145	-0.162203	-0.534025
H211	H	0.775754	-0.168522	-0.613480
H212	H	0.772881	-0.128646	-0.568085
H213	H	0.848955	-0.095146	-0.592692
H214	H	0.851819	-0.135016	-0.638099
H215	H	0.808982	-0.092313	-0.638013
C216	C	0.652233	-0.694750	-0.355023
C217	C	0.618735	-0.663438	-0.325384
C218	C	0.585228	-0.636082	-0.358697
H219	H	0.632267	-0.718784	-0.374929
H220	H	0.672196	-0.673390	-0.377815
H221	H	0.598774	-0.684797	-0.302601
H222	H	0.638686	-0.639395	-0.305479
H223	H	0.605191	-0.614722	-0.381489
H224	H	0.565266	-0.660120	-0.378602
H225	H	0.562499	-0.614830	-0.338593
H226	H	0.849709	-0.801185	-0.158037
H227	H	0.457387	-0.191213	-0.191436
C228	C	0.825443	-1.059890	-0.182497
C229	C	0.818324	-1.113555	-0.189685
C230	C	0.851835	-1.140952	-0.156410
H231	H	0.817889	-1.051053	-0.147321
H232	H	0.860561	-1.050914	-0.190233
H233	H	0.783214	-1.122527	-0.181946
H234	H	0.825882	-1.122407	-0.224854
H235	H	0.886953	-1.131977	-0.164146
H236	H	0.844278	-1.132111	-0.121236
H237	H	0.847013	-1.177366	-0.161286
C238	C	0.685813	-1.059766	-0.321784
C239	C	0.656510	-1.024178	-0.351037
C240	C	0.623032	-1.051388	-0.384513
H241	H	0.663006	-1.081100	-0.301823
H242	H	0.705793	-1.081024	-0.344620
H243	H	0.636532	-1.002928	-0.328204
H244	H	0.679303	-1.002843	-0.371009
H245	H	0.643012	-1.072647	-0.407349
H246	H	0.600229	-1.072722	-0.364548
H247	H	0.603149	-1.027247	-0.404369
C248	C	0.652239	-0.808721	-0.355037
C249	C	0.618742	-0.840107	-0.325413
C250	C	0.585219	-0.867448	-0.358737
H251	H	0.672174	-0.830033	-0.377852
H252	H	0.632279	-0.784662	-0.374918
H253	H	0.638701	-0.864162	-0.305541
H254	H	0.598796	-0.818808	-0.302600
H255	H	0.565259	-0.843390	-0.378617
H256	H	0.605159	-0.888757	-0.381550
H257	H	0.562485	-0.888743	-0.338641
C258	C	0.685882	-0.945956	-0.321784
C259	C	0.715448	-0.914577	-0.355338
C260	C	0.682066	-0.887267	-0.388815
H261	H	0.663097	-0.924643	-0.301819
H262	H	0.665973	-0.970034	-0.341706
H263	H	0.735349	-0.890501	-0.335419
H264	H	0.738232	-0.935877	-0.375315
H265	H	0.662157	-0.911346	-0.408737
H266	H	0.659282	-0.865957	-0.368845
H267	H	0.702122	-0.865977	-0.411588
H268	H	0.457399	-0.312726	-0.312556
H269	H	0.694738	-0.550105	-0.312613
H270	H	0.694809	-0.312597	-0.550617
H271	H	0.694699	-0.451039	-0.312594
C272	C	0.825321	-0.182178	-0.444278
C273	C	0.854618	-0.152882	-0.479888
C274	C	0.888103	-0.119386	-0.452703
H275	H	0.848132	-0.202128	-0.422981
H276	H	0.805347	-0.159371	-0.422985
H277	H	0.874590	-0.175686	-0.501172
H278	H	0.831820	-0.132921	-0.501187
H279	H	0.868129	-0.096579	-0.431410
H280	H	0.910910	-0.139340	-0.431407
H281	H	0.907981	-0.099501	-0.476860
H282	H	0.849714	-0.157806	-0.702783
H283	H	0.816288	-0.191174	-0.953941
C284	C	0.825466	-0.182137	-1.060393
C285	C	0.877191	-0.193535	-1.047141
C286	C	0.910750	-0.160165	-1.074437
H287	H	0.817907	-0.146989	-1.051471
H288	H	0.820709	-0.186924	-1.096825
H289	H	0.881946	-0.188743	-1.010718
H290	H	0.884766	-0.228676	-1.056065
H291	H	0.905992	-0.164952	-1.110869
H292	H	0.903186	-0.125019	-1.065512
H293	H	0.945849	-0.167897	-1.065453
C294	C	0.312591	-0.355332	-0.355070
C295	C	0.276986	-0.384645	-0.384310
C296	C	0.304176	-0.418155	-0.417759
H297	H	0.333872	-0.378131	-0.335089
H298	H	0.333901	-0.335375	-0.377914
H299	H	0.255685	-0.404600	-0.361469
H300	H	0.255703	-0.361859	-0.404302
H301	H	0.325486	-0.398198	-0.440604
H302	H	0.325457	-0.440951	-0.397774
H303	H	0.280023	-0.438044	-0.437606
H304	H	0.206227	-0.346229	-0.345967
H305	H	0.694881	-0.312471	-1.052955
H306	H	0.694857	-0.312487	-0.953905
H307	H	0.661364	-0.345949	-0.801759
H308	H	-0.044951	-0.191258	-0.191502
