data_functionalizedCrystal
_audit_creation_method	'MofGen! by Chris Wilmer'
_symmetry_space_group_name_H-M	'P1'
_symmetry_Int_Tables_number	1
_symmetry_cell_setting	triclinic
loop_
_symmetry_equiv_pos_as_xyz
  x,y,z
_cell_length_a	11.792254
_cell_length_b	14.971486
_cell_length_c	13.448316
_cell_angle_alpha	89.993189
_cell_angle_beta	89.992054
_cell_angle_gamma	83.906363
loop_
_atom_site_label
_atom_site_type_symbol
_atom_site_fract_x
_atom_site_fract_y
_atom_site_fract_z
O1	O	-1.506112	-0.122653	0.082720
O2	O	-1.175692	-0.135276	0.082716
O3	O	-1.349758	0.001200	0.082711
O4	O	-1.332046	-0.259129	0.082725
O5	O	-1.349736	0.001208	-0.082672
O6	O	-1.175670	-0.135268	-0.082668
O7	O	-1.506090	-0.122645	-0.082663
Cu8	Cu	-1.340878	-0.128955	-0.097766
Cu9	Cu	-1.340904	-0.128965	0.097819
O10	O	-1.332024	-0.259120	-0.082658
C11	C	-1.133395	-0.134477	0.000024
C12	C	-1.007398	-0.132097	0.000022
C13	C	-0.905073	-0.130163	0.000024
C14	C	-0.776702	-0.127745	0.000022
C15	C	-1.348955	0.034532	0.000020
C16	C	-1.346581	0.133838	0.000021
C17	C	-1.332827	-0.292453	0.000035
C18	C	-1.335201	-0.391759	0.000041
C19	C	-0.548387	-0.123444	0.000026
C20	C	-0.674385	-0.125824	0.000020
N21	N	-1.340868	-0.128948	-0.235331
C22	C	-1.448841	0.190650	0.000021
C23	C	-1.446603	0.283959	0.000031
C24	C	-1.342106	0.320454	0.000033
C25	C	-1.239839	0.263634	0.000036
C26	C	-1.242077	0.170328	0.000033
C27	C	-1.235181	0.458116	0.000039
C28	C	-1.232942	0.551429	0.000040
C29	C	-1.439707	0.571747	0.000038
C30	C	-1.441945	0.478440	0.000035
C31	C	-1.339678	0.421627	0.000035
C32	C	-1.417969	-0.068541	-0.287373
C33	C	-1.417976	-0.068541	-0.391476
C34	C	-1.340887	-0.128951	-0.443535
C35	C	-1.263778	-0.189361	-0.391485
C36	C	-1.263767	-0.189356	-0.287384
C37	C	-1.263810	-0.189367	-0.608465
C38	C	-1.263822	-0.189372	-0.712574
C39	C	-1.418019	-0.068551	-0.712558
C40	C	-1.418007	-0.068547	-0.608456
C41	C	-1.340900	-0.128957	-0.556414
N42	N	-1.340923	-0.128966	0.235384
H43	H	-1.533935	0.160944	0.000013
C44	C	-1.484499	0.085946	-0.744603
C45	C	-1.502782	-0.002143	-0.769752
H46	H	-1.536837	0.126936	-0.779911
H47	H	-1.408759	0.096067	-0.761690
H48	H	-1.495523	0.094576	-0.675151
H49	H	-1.491750	-0.010776	-0.839203
H50	H	-1.578541	-0.012269	-0.752672
C51	C	-1.111403	-0.308807	-0.618933
C52	C	-1.179058	-0.255776	-0.551258
H53	H	-1.059091	-0.349809	-0.583613
H54	H	-1.070532	-0.271360	-0.659547
H55	H	-1.158705	-0.341230	-0.659524
H56	H	-1.131756	-0.223348	-0.510671
H57	H	-1.219932	-0.293228	-0.510627
C58	C	-1.117389	0.356775	0.085053
C59	C	-1.124974	0.303751	0.000038
H60	H	-1.046477	0.381543	0.085047
H61	H	-1.122560	0.320791	0.142715
H62	H	-1.177979	0.403961	0.085042
H63	H	-1.064389	0.256560	0.000053
H64	H	-1.119791	0.339737	-0.057639
H65	H	-1.147850	0.581139	0.000026
H66	H	-1.480784	-0.019360	-0.566070
C67	C	-1.037475	0.159610	0.000029
C68	C	-1.129670	0.107876	0.000030
H69	H	-0.968080	0.121054	0.000024
H70	H	-1.040912	0.196419	0.057698
H71	H	-1.040900	0.196434	-0.057649
H72	H	-1.126250	0.071057	0.057711
H73	H	-1.126231	0.071052	-0.057645
H74	H	-1.201047	-0.238564	-0.754955
C75	C	-1.111363	-0.308791	-0.297850
C76	C	-1.179020	-0.255761	-0.230175
H77	H	-1.059046	-0.349789	-0.262530
H78	H	-1.070498	-0.271341	-0.338467
H79	H	-1.158663	-0.341218	-0.338438
H80	H	-1.131721	-0.223329	-0.189591
H81	H	-1.219888	-0.293215	-0.189541
H82	H	-1.529874	0.330212	0.000029
H83	H	-1.522977	0.618009	0.000040
C84	C	-1.570419	0.050860	-0.381004
C85	C	-1.502745	-0.002154	-0.448681
H86	H	-1.622761	0.091839	-0.416322
H87	H	-1.523141	0.083300	-0.340424
H88	H	-1.611266	0.013391	-0.340379
H89	H	-1.461892	0.035315	-0.489302
H90	H	-1.550029	-0.034596	-0.489279
H91	H	-1.151903	0.411860	0.000042
C92	C	-1.646101	0.507891	0.000036
C93	C	-1.556810	0.438323	0.000031
H94	H	-1.717013	0.483122	0.000041
H95	H	-1.640924	0.543866	-0.057632
H96	H	-1.640932	0.543856	0.057714
H97	H	-1.561974	0.402361	-0.057651
H98	H	-1.561990	0.402332	0.057705
H99	H	-1.480748	-0.019352	-0.244994
H100	H	-1.201005	-0.238545	-0.433878
