data_functionalizedCrystal
_audit_creation_method	'MofGen! by Chris Wilmer'
_symmetry_space_group_name_H-M	'P1'
_symmetry_Int_Tables_number	1
_symmetry_cell_setting	triclinic
loop_
_symmetry_equiv_pos_as_xyz
  x,y,z
_cell_length_a	19.077269
_cell_length_b	14.908178
_cell_length_c	19.077222
_cell_angle_alpha	95.737219
_cell_angle_beta	85.503402
_cell_angle_gamma	91.150529
loop_
_atom_site_label
_atom_site_type_symbol
_atom_site_fract_x
_atom_site_fract_y
_atom_site_fract_z
Zn1	Zn	1.044509	-0.395668	0.338143
Zn2	Zn	1.042399	-0.552820	0.213453
Zn3	Zn	0.931386	-0.395661	0.225008
Zn4	Zn	0.920354	-0.540185	0.336586
O5	O	0.984662	-0.471083	0.278298
O6	O	1.142648	-0.421805	0.317418
O7	O	1.031407	-0.537257	0.116107
O8	O	0.951892	-0.269410	0.245503
O9	O	1.141098	-0.537264	0.225809
O10	O	1.035003	-0.269415	0.328623
O11	O	0.949846	-0.421794	0.124596
O12	O	0.831504	-0.409542	0.243993
O13	O	0.933090	-0.515729	0.435672
O14	O	0.823399	-0.515723	0.325970
O15	O	1.024306	-0.409553	0.436816
O16	O	1.020709	-0.677396	0.224300
O17	O	0.931044	-0.668113	0.314765
C18	C	0.801933	-0.461261	0.286067
C19	C	0.723759	-0.457080	0.289406
C20	C	0.686229	-0.515139	0.243216
C21	C	0.612776	-0.511210	0.246363
C22	C	0.576854	-0.449217	0.295698
C23	C	0.614389	-0.391156	0.341893
C24	C	0.687840	-0.395090	0.338749
C25	C	0.357264	-0.431019	0.310226
C26	C	0.283807	-0.427088	0.313365
C27	C	0.282199	-0.547143	0.217836
C28	C	0.355652	-0.551068	0.214693
C29	C	0.393180	-0.493010	0.260891
N30	N	0.501773	-0.445198	0.298914
N31	N	0.468259	-0.497035	0.257677
C32	C	0.974469	-0.705490	0.268124
C33	C	0.970172	-0.805773	0.263793
C34	C	1.048568	-0.994060	0.342306
C35	C	1.044533	-1.088285	0.338239
C36	C	0.958063	-1.088447	0.251595
C37	C	0.962098	-0.994223	0.255662
C38	C	1.007353	-0.947033	0.301019
C39	C	1.011392	-0.852807	0.305082
C40	C	0.924918	-0.852971	0.218442
C41	C	0.920883	-0.947195	0.214375
C42	C	1.168105	-0.480945	0.270499
C43	C	1.246277	-0.485147	0.267175
C44	C	0.977702	-0.461233	0.462599
C45	C	0.974737	-0.457035	0.541137
C46	C	0.994914	-0.235761	0.288525
C47	C	0.999282	-0.135481	0.292884
C48	C	0.953486	-0.426960	0.983699
C49	C	0.956276	-0.430901	0.909904
C50	C	1.000131	-0.492992	0.868586
C51	C	1.041204	-0.551139	0.901066
C52	C	1.038418	-0.547193	0.974860
C53	C	1.013023	-0.511236	0.647411
C54	C	1.015805	-0.515179	0.573613
C55	C	0.930877	-0.394940	0.582456
C56	C	0.928091	-0.391003	0.656251
C57	C	0.969167	-0.449147	0.688725
N58	N	1.002983	-0.497024	0.793155
N59	N	0.966319	-0.445110	0.764154
C60	C	0.991589	-0.480913	1.094713
C61	C	0.994554	-0.485105	1.016175
H62	H	0.387810	-0.383746	0.347844
H63	H	1.051534	-0.565726	0.539973
H64	H	1.078091	-1.126571	0.371863
H65	H	0.921215	-1.126885	0.214671
H66	H	0.891360	-0.814670	0.184821
C67	C	0.244780	-0.359671	0.366824
C68	C	0.206641	-0.301621	0.331208
C69	C	0.170689	-0.239500	0.380426
H70	H	0.213416	-0.390960	0.397310
H71	H	0.277632	-0.325606	0.393878
H72	H	0.173792	-0.335682	0.304167
H73	H	0.237987	-0.270312	0.300725
H74	H	0.203542	-0.205435	0.407480
H75	H	0.139330	-0.270796	0.410910
H76	H	0.144813	-0.200100	0.356268
C77	C	1.097686	-0.942660	0.391475
C78	C	1.092411	-0.850078	0.386187
C79	C	1.137655	-0.802702	0.431464
H80	H	1.084952	-0.954887	0.438748
H81	H	1.144697	-0.961089	0.378492
H82	H	1.045410	-0.831655	0.399175
H83	H	1.105151	-0.837823	0.338925
H84	H	1.184666	-0.821131	0.418481
H85	H	1.124917	-0.814937	0.478734
H86	H	1.134087	-0.739881	0.427878
C87	C	0.871822	-0.998599	0.165147
C88	C	0.877121	-1.091185	0.170408
C89	C	0.831945	-1.138564	0.125060
H90	H	0.824796	-0.980229	0.178067
H91	H	0.884620	-0.986316	0.117889
H92	H	0.864319	-1.103462	0.217655
H93	H	0.924136	-1.109582	0.157482
H94	H	0.844743	-1.126281	0.077802
H95	H	0.784922	-1.120186	0.137984
H96	H	0.835539	-1.201389	0.128618
C97	C	0.575265	-0.323880	0.395384
C98	C	0.502908	-0.332841	0.388238
C99	C	0.466848	-0.270869	0.437495
H100	H	0.584862	-0.335222	0.441785
H101	H	0.590284	-0.264413	0.387232
H102	H	0.487895	-0.392294	0.396395
H103	H	0.493290	-0.321490	0.341848
H104	H	0.481866	-0.211402	0.429343
H105	H	0.476450	-0.282217	0.483893
H106	H	0.417750	-0.276935	0.432649
H107	H	1.076916	-0.601691	0.867419
C108	C	0.905852	-0.359452	1.028434
C109	C	0.870499	-0.309359	0.984195
C110	C	0.826620	-0.247152	1.025377
H111	H	0.872557	-0.390670	1.057034
H112	H	0.933370	-0.320003	1.057772
H113	H	0.842982	-0.348804	0.954868
H114	H	0.903776	-0.278123	0.955595
H115	H	0.854139	-0.207702	1.054715
H116	H	0.793330	-0.278377	1.053975
H117	H	0.802633	-0.213151	0.995367
C118	C	0.911638	-0.367923	0.874553
C119	C	0.865947	-0.418847	0.831870
C120	C	0.824820	-0.360860	0.799288
H121	H	0.885055	-0.330365	0.909654
H122	H	0.941321	-0.331609	0.846291
H123	H	0.836267	-0.455146	0.860130
H124	H	0.892511	-0.456403	0.796756
H125	H	0.854503	-0.324546	0.771027
H126	H	0.798242	-0.323305	0.834394
H127	H	0.793818	-0.395404	0.770319
C128	C	0.725096	-0.582542	0.189627
C129	C	0.676502	-0.632564	0.149864
C130	C	0.712277	-0.694676	0.100498
H131	H	0.756404	-0.551254	0.159089
H132	H	0.751011	-0.622046	0.213656
H133	H	0.650599	-0.593065	0.125836
H134	H	0.645192	-0.663871	0.180382
H135	H	0.738193	-0.734181	0.124527
H136	H	0.743585	-0.663381	0.069966
H137	H	0.679312	-0.728629	0.073518
H138	H	0.582222	-0.558487	0.208750
H139	H	0.892376	-0.340446	0.689888
H140	H	0.718396	-0.347812	0.376361
C141	C	0.886369	-0.331854	0.547065
C142	C	0.898207	-0.348579	0.473597
C143	C	0.857225	-0.290469	0.440973
H144	H	0.838058	-0.341811	0.560513
H145	H	0.898860	-0.271127	0.561316
H146	H	0.885710	-0.409292	0.459351
H147	H	0.946508	-0.338617	0.460129
H148	H	0.869716	-0.229742	0.455224
H149	H	0.808917	-0.300430	0.454427
H150	H	0.865256	-0.301803	0.391122
H151	H	0.251636	-0.594412	0.180226
H152	H	1.048242	-0.814386	0.342012
C153	C	1.057639	-0.574476	0.682530
C154	C	1.096623	-0.629714	0.630548
C155	C	1.137725	-0.687995	0.662875
H156	H	1.088762	-0.540183	0.711508
H157	H	1.027948	-0.610849	0.710735
H158	H	1.126312	-0.593346	0.602355
H159	H	1.065518	-0.664027	0.601566
H160	H	1.108034	-0.724367	0.691080
H161	H	1.168843	-0.653694	0.691853
H162	H	1.164176	-0.725486	0.627610
H163	H	1.071861	-0.594539	1.001300
H164	H	0.384895	-0.601548	0.174519
