data_functionalizedCrystal
_audit_creation_method	'MofGen! by Chris Wilmer'
_symmetry_space_group_name_H-M	'P1'
_symmetry_Int_Tables_number	1
_symmetry_cell_setting	triclinic
loop_
_symmetry_equiv_pos_as_xyz
  x,y,z
_cell_length_a	15.944493
_cell_length_b	15.944545
_cell_length_c	15.021413
_cell_angle_alpha	89.998085
_cell_angle_beta	90.006749
_cell_angle_gamma	83.485608
loop_
_atom_site_label
_atom_site_type_symbol
_atom_site_fract_x
_atom_site_fract_y
_atom_site_fract_z
O1	O	1.114557	0.108089	0.074024
O2	O	0.870000	0.121496	0.074029
O3	O	0.998960	-0.007484	0.074016
O4	O	0.985597	0.237069	0.074038
O5	O	0.998939	-0.007465	-0.074048
O6	O	0.869980	0.121515	-0.074035
O7	O	1.114536	0.108108	-0.074040
Zn8	Zn	0.992255	0.114814	-0.097546
Zn9	Zn	0.992282	0.114790	0.097535
O10	O	0.985577	0.237088	-0.074027
C11	C	0.838695	0.120958	-0.000002
C12	C	0.745447	0.119315	-0.000001
C13	C	0.509685	0.195235	0.000007
C14	C	0.459117	0.154303	-0.073004
C15	C	0.574726	0.116271	-0.000003
C16	C	0.459142	0.154267	0.072975
C17	C	0.409816	0.113336	-0.000001
C18	C	0.525386	0.075360	-0.073074
C19	C	0.525414	0.075335	0.072971
C20	C	0.474880	0.034345	-0.000057
C21	C	0.669725	0.117963	-0.000005
C22	C	0.314819	0.111637	-0.000005
C23	C	0.998395	-0.038768	-0.000017
C24	C	0.996735	-0.132014	-0.000019
C25	C	0.911839	-0.402630	0.000000
C26	C	0.952779	-0.352062	0.073003
C27	C	0.990814	-0.467657	0.000006
C28	C	0.952780	-0.352071	-0.072976
C29	C	0.993719	-0.302744	-0.000008
C30	C	1.031733	-0.418317	0.073069
C31	C	1.031723	-0.418330	-0.072976
C32	C	1.072721	-0.367795	0.000045
C33	C	0.989139	-0.562659	0.000015
C34	C	0.995401	-0.207745	-0.000010
C35	C	1.145841	0.108646	-0.000006
C36	C	1.239090	0.110289	-0.000002
C37	C	0.986141	0.268373	0.000008
C38	C	0.987801	0.361618	0.000017
N39	N	0.992242	0.114830	-0.230683
C40	C	0.932602	0.174443	-0.470360
C41	C	1.008504	0.190734	-0.529695
C42	C	0.992264	0.114809	-0.412290
C43	C	0.916382	0.098537	-0.529698
C44	C	0.992278	0.114791	-0.587714
C45	C	1.068204	0.131138	-0.470318
C46	C	0.976032	0.038908	-0.470316
C47	C	1.051989	0.055167	-0.529623
C48	C	0.992255	0.114822	-0.311233
C49	C	0.992296	0.114777	-0.688769
N50	N	0.992301	0.114767	0.230673
H51	H	0.554370	0.042004	0.134693
H52	H	1.102504	0.004726	-0.555481
H53	H	1.065038	-0.447279	-0.134698
O54	O	0.959511	-0.037561	-0.439060
C55	C	0.886033	-0.027273	-0.386144
H56	H	0.875601	0.040279	-0.360157
H57	H	0.893694	-0.072980	-0.327582
H58	H	0.829391	-0.040800	-0.427901
H59	H	0.852205	0.084782	-0.555783
H60	H	0.525307	0.263255	-0.000056
H61	H	0.459415	-0.033726	-0.000105
O62	O	1.025017	0.267294	-0.560717
C63	C	1.104452	0.284906	-0.529187
H64	H	1.121196	0.246695	-0.466239
H65	H	1.102003	0.355099	-0.513523
H66	H	1.154392	0.267165	-0.582303
O67	O	0.912856	-0.317654	-0.146587
C68	C	0.828101	-0.335028	-0.146296
H69	H	0.822008	-0.393100	-0.103546
H70	H	0.807433	-0.347411	-0.217292
H71	H	0.786326	-0.278622	-0.117817
H72	H	0.430171	0.187659	-0.134722
O73	O	0.559626	0.035556	-0.146819
C74	C	0.495106	0.006152	-0.198408
H75	H	0.438337	-0.001431	-0.154216
H76	H	0.519196	-0.057401	-0.229167
H77	H	0.475613	0.053511	-0.253556
H78	H	1.132396	0.144970	-0.444345
O79	O	0.424727	0.194167	0.146588
C80	C	0.442086	0.278927	0.146308
H81	H	0.500151	0.285040	0.103562
H82	H	0.454473	0.299579	0.217307
H83	H	0.385670	0.320699	0.117829
H84	H	0.843825	-0.418268	0.000073
O85	O	0.872563	0.234759	-0.439348
C86	C	0.890000	0.314669	-0.469624
H87	H	0.959986	0.312289	-0.486259
H88	H	0.873153	0.363670	-0.415354
H89	H	0.850962	0.332668	-0.531739
O90	O	0.913139	-0.317505	0.146693
C91	C	0.970521	-0.276356	0.197579
H92	H	1.037776	-0.304250	0.181275
H93	H	0.957739	-0.285458	0.271418
H94	H	0.962449	-0.206088	0.181192
H95	H	1.065071	-0.447138	0.134856
H96	H	1.140788	-0.352318	0.000085
