data_functionalizedCrystal
_audit_creation_method	'MofGen! by Chris Wilmer'
_symmetry_space_group_name_H-M	'P1'
_symmetry_Int_Tables_number	1
_symmetry_cell_setting	triclinic
loop_
_symmetry_equiv_pos_as_xyz
  x,y,z
_cell_length_a	18.101398
_cell_length_b	12.594516
_cell_length_c	18.101390
_cell_angle_alpha	90.026926
_cell_angle_beta	90.022777
_cell_angle_gamma	90.011320
loop_
_atom_site_label
_atom_site_type_symbol
_atom_site_fract_x
_atom_site_fract_y
_atom_site_fract_z
Zn1	Zn	1.132187	-0.423837	0.418869
Zn2	Zn	1.132119	-0.601849	0.295040
Zn3	Zn	1.008349	-0.423870	0.295030
Zn4	Zn	1.008329	-0.601759	0.418829
O5	O	1.070246	-0.512829	0.356942
O6	O	1.235811	-0.447474	0.402464
O7	O	1.115680	-0.578292	0.191406
O8	O	1.024814	-0.274920	0.311470
O9	O	1.235761	-0.578259	0.311488
O10	O	1.115797	-0.274895	0.402454
O11	O	1.024748	-0.447532	0.191399
O12	O	0.904714	-0.447444	0.311431
O13	O	1.024780	-0.578105	0.522467
O14	O	0.904699	-0.578138	0.402386
O15	O	1.115777	-0.447387	0.522497
O16	O	1.115661	-0.750783	0.311449
O17	O	1.024713	-0.750717	0.402395
C18	C	0.877836	-0.512786	0.356904
C19	C	0.795522	-0.512793	0.356905
C20	C	0.496431	-0.512859	0.356967
C21	C	0.527740	-0.430219	0.300020
C22	C	0.613359	-0.430441	0.299777
C23	C	0.644813	-0.512825	0.356936
C24	C	0.613716	-0.624950	0.335619
C25	C	0.528071	-0.624490	0.335223
C26	C	0.528038	-0.484350	0.435364
C27	C	0.613688	-0.481853	0.434936
C28	C	0.728673	-0.512813	0.356920
C29	C	0.412571	-0.512879	0.356981
C30	C	1.070198	-0.789370	0.356935
C31	C	1.070245	-0.907675	0.356957
C32	C	1.020773	-0.976931	0.406388
C33	C	1.002734	-1.047795	0.338810
C34	C	1.088352	-1.047610	0.424546
C35	C	1.052169	-0.976981	0.289343
C36	C	1.137819	-0.976790	0.375124
C37	C	1.119805	-1.047622	0.307500
C38	C	1.263408	-0.512873	0.356981
C39	C	1.345722	-0.512892	0.356998
C40	C	1.070284	-0.512732	0.550104
C41	C	1.070300	-0.512691	0.632418
C42	C	1.070315	-0.235208	0.356966
C43	C	1.070345	-0.116903	0.356976
C44	C	1.070251	-0.512848	0.164532
C45	C	1.070379	-0.512590	0.082218
C46	C	1.070326	-0.512658	0.783127
C47	C	1.127582	-0.430405	0.814499
C48	C	1.127821	-0.430628	0.900117
C49	C	1.070352	-0.512623	0.931509
C50	C	1.091249	-0.624891	0.900409
C51	C	1.091649	-0.624435	0.814764
C52	C	0.992036	-0.483616	0.814675
C53	C	0.992470	-0.481121	0.900326
C54	C	1.070366	-0.512610	1.015369
C55	C	1.070315	-0.512678	0.699267
H56	H	0.635137	-0.649545	0.278926
H57	H	0.507791	-0.544542	0.477795
N58	N	0.501906	-0.325600	0.316596
N59	N	0.460114	-0.310721	0.370571
H60	H	0.441861	-0.236832	0.382278
H61	H	1.185840	-0.449872	0.920621
N62	N	1.111439	-0.326213	0.926494
N63	N	1.051504	-0.283065	0.909924
H64	H	1.039932	-0.209315	0.928545
H65	H	1.036829	-0.946085	0.232176
H66	H	1.114681	-0.346918	0.793920
N67	N	0.500700	-0.453591	0.227573
N68	N	0.458470	-0.530847	0.217700
H69	H	0.439370	-0.547357	0.166535
H70	H	0.976707	-0.398501	0.920655
H71	H	0.972949	-0.403158	0.793074
N72	N	1.163433	-0.655257	0.789727
N73	N	1.212889	-0.676952	0.835505
H74	H	1.263589	-0.698720	0.817827
H75	H	0.978862	-0.945891	0.448129
N76	N	0.639032	-0.454113	0.226908
N77	N	0.678466	-0.534037	0.215934
H78	H	0.696599	-0.550760	0.164468
N79	N	0.500951	-0.383577	0.459691
N80	N	0.433047	-0.369112	0.467152
H81	H	0.413915	-0.297938	0.484327
N82	N	1.199950	-0.454269	0.787537
N83	N	1.250818	-0.475294	0.831897
H84	H	1.301928	-0.492150	0.812855
N85	N	1.107527	-1.086517	0.496241
N86	N	1.168343	-1.062453	0.524377
H87	H	1.181882	-1.089929	0.575013
H88	H	0.508065	-0.648667	0.277911
H89	H	0.947558	-0.536621	0.921692
N90	N	1.041600	-0.703954	0.788702
N91	N	0.987962	-0.678306	0.749033
H92	H	0.952621	-0.734471	0.730626
H93	H	1.194905	-0.945580	0.390507
N94	N	1.172339	-1.086310	0.255005
N95	N	1.165589	-1.063468	0.188150
H96	H	1.202688	-1.090792	0.151073
H97	H	1.050832	-0.687840	0.920740
N98	N	1.162251	-0.656221	0.927338
N99	N	1.197586	-0.596062	0.969425
H100	H	1.247734	-0.618183	0.988443
H101	H	0.945634	-1.079008	0.323460
N102	N	0.938528	-0.558756	0.789204
N103	N	0.927386	-0.570039	0.721499
H104	H	0.889602	-0.623109	0.703505
H105	H	0.635102	-0.537657	0.479639
H106	H	0.634384	-0.347296	0.313138
N107	N	0.639189	-0.378340	0.455092
N108	N	0.680135	-0.327509	0.412212
H109	H	0.698150	-0.254402	0.426445
H110	H	0.507359	-0.688149	0.374893
H111	H	0.634091	-0.688173	0.375799
