data_functionalizedCrystal
_audit_creation_method	'MofGen! by Chris Wilmer'
_symmetry_space_group_name_H-M	'P1'
_symmetry_Int_Tables_number	1
_symmetry_cell_setting	triclinic
loop_
_symmetry_equiv_pos_as_xyz
  x,y,z
_cell_length_a	10.489741
_cell_length_b	10.489741
_cell_length_c	8.965430
_cell_angle_alpha	90.000707
_cell_angle_beta	90.001157
_cell_angle_gamma	95.460826
loop_
_atom_site_label
_atom_site_type_symbol
_atom_site_fract_x
_atom_site_fract_y
_atom_site_fract_z
O1	O	1.694053	-0.179958	0.123946
O2	O	1.322858	-0.196851	0.123969
O3	O	1.516902	-0.002807	0.123948
O4	O	1.500009	-0.374003	0.123967
O5	O	1.516886	-0.002820	-0.124130
O6	O	1.322841	-0.196864	-0.124110
O7	O	1.694037	-0.179971	-0.124133
Cu8	Cu	1.508438	-0.188419	-0.146773
Cu9	Cu	1.508457	-0.188404	0.146609
O10	O	1.499993	-0.374016	-0.124112
C11	C	1.275318	-0.195582	-0.000067
C12	C	1.133688	-0.191765	-0.000059
C13	C	1.515618	0.044718	-0.000090
C14	C	1.511801	0.186348	-0.000087
C15	C	1.065548	-0.068300	-0.000079
C16	C	0.973430	-0.126617	0.122237
C17	C	0.973447	-0.126659	-0.122349
C18	C	1.043435	-0.250133	0.122358
C19	C	1.043462	-0.250158	-0.122338
C20	C	0.951371	-0.308564	0.000007
C21	C	1.741577	-0.181241	-0.000093
C22	C	1.883206	-0.185058	-0.000092
C23	C	1.501277	-0.421541	-0.000070
C24	C	1.505094	-0.563170	-0.000063
N25	N	1.508433	-0.188429	-0.353122
C26	C	1.388336	0.254488	-0.000069
C27	C	1.446652	0.346604	-0.122388
C28	C	1.446697	0.346591	0.122198
C29	C	1.570167	0.276599	-0.122508
C30	C	1.570195	0.276576	0.122189
C31	C	1.628600	0.368665	-0.000161
C32	C	1.418666	-0.278138	-0.450418
C33	C	1.534163	-0.303949	-0.549838
C34	C	1.392986	-0.162629	-0.549830
C35	C	1.623988	-0.214298	-0.450352
C36	C	1.482735	-0.072927	-0.450336
C37	C	1.598314	-0.098690	-0.549711
N38	N	1.508471	-0.188384	0.352958
H39	H	1.115238	0.033196	0.000069
C40	C	1.563429	-0.434050	-0.608224
C41	C	1.675408	-0.419834	-0.694019
C42	C	1.702405	-0.539658	-0.747811
H43	H	1.494220	-0.469484	-0.668130
H44	H	1.575016	-0.489540	-0.526598
H45	H	1.663814	-0.364364	-0.775634
H46	H	1.744641	-0.384421	-0.634145
H47	H	1.713991	-0.595148	-0.666185
H48	H	1.633188	-0.575083	-0.807711
H49	H	1.778390	-0.530030	-0.806017
H50	H	1.721659	-0.236216	-0.406840
H51	H	1.674327	-0.022803	-0.593034
C52	C	0.932340	-0.056857	0.260167
C53	C	1.040451	-0.016009	0.345346
C54	C	1.002660	0.048282	0.472400
H55	H	0.875687	-0.113064	0.317930
H56	H	0.890036	0.015273	0.230805
H57	H	1.082735	-0.088129	0.374710
H58	H	1.097116	0.040213	0.287628
H59	H	0.960357	0.120413	0.443038
H60	H	0.946007	-0.007932	0.530150
H61	H	1.076008	0.076016	0.530202
H62	H	1.730204	0.418089	-0.000235
C63	C	0.885624	-0.444104	-0.000135
C64	C	0.922765	-0.508948	-0.127086
C65	C	0.862235	-0.633811	-0.127250
H66	H	0.795406	-0.441116	-0.001040
H67	H	0.909609	-0.487815	0.086773
H68	H	0.898771	-0.465248	-0.213972
H69	H	1.012973	-0.511972	-0.126208
H70	H	0.886220	-0.677523	-0.040342
H71	H	0.772020	-0.630810	-0.128152
H72	H	0.887436	-0.677828	-0.213377
H73	H	1.074502	-0.302361	-0.225749
H74	H	1.394404	0.377610	-0.225794
C75	C	1.084799	-0.319626	0.260353
C76	C	1.217985	-0.322319	0.258809
C77	C	1.256140	-0.386306	0.385913
H78	H	1.044812	-0.404766	0.260839
H79	H	1.060340	-0.276043	0.347142
H80	H	1.242432	-0.365905	0.172043
H81	H	1.258004	-0.237197	0.258345
H82	H	1.231681	-0.342723	0.472703
H83	H	1.216145	-0.471442	0.386389
H84	H	1.346510	-0.388131	0.384890
H85	H	1.460937	0.024699	-0.406596
C86	C	0.932079	-0.056776	-0.260058
C87	C	0.869730	0.049389	-0.216319
C88	C	0.831623	0.113813	-0.343125
H89	H	0.875333	-0.112941	-0.317761
H90	H	1.005283	-0.028902	-0.318035
H91	H	0.796536	0.021513	-0.158366
H92	H	0.926452	0.105583	-0.158633
H93	H	0.904826	0.141687	-0.401102
H94	H	0.774881	0.057639	-0.400818
H95	H	0.789325	0.185859	-0.313465
H96	H	1.286824	0.204837	-0.000185
H97	H	1.622355	0.245761	-0.226035
H98	H	1.295338	-0.140828	-0.593530
C99	C	1.639603	0.234971	0.260120
C100	C	1.557005	0.149589	0.343225
C101	C	1.620893	0.111217	0.470299
H102	H	1.666018	0.307868	0.319259
H103	H	1.712551	0.193936	0.230800
H104	H	1.484081	0.190624	0.372547
H105	H	1.530586	0.076672	0.284130
H106	H	1.693841	0.070183	0.440978
H107	H	1.647305	0.184122	0.529425
H108	H	1.564864	0.053273	0.526694
H109	H	1.394447	0.377561	0.225620
H110	H	1.342824	-0.354072	-0.406821
