data_functionalizedCrystal
_audit_creation_method	'MofGen! by Chris Wilmer'
_symmetry_space_group_name_H-M	'P1'
_symmetry_Int_Tables_number	1
_symmetry_cell_setting	triclinic
loop_
_symmetry_equiv_pos_as_xyz
  x,y,z
_cell_length_a	14.519709
_cell_length_b	10.654559
_cell_length_c	9.130313
_cell_angle_alpha	89.998313
_cell_angle_beta	90.005376
_cell_angle_gamma	84.084395
loop_
_atom_site_label
_atom_site_type_symbol
_atom_site_fract_x
_atom_site_fract_y
_atom_site_fract_z
O1	O	1.224720	0.164617	-0.121610
O2	O	0.956344	0.184003	-0.121655
O3	O	1.096698	-0.008488	-0.121620
O4	O	1.084366	0.357108	-0.121645
O5	O	1.096696	-0.008483	0.121979
O6	O	0.956342	0.184008	0.121944
O7	O	1.224718	0.164622	0.121989
Cu8	Cu	1.090530	0.174316	0.144209
Cu9	Cu	1.090532	0.174310	-0.143875
O10	O	1.084364	0.357113	0.121954
C11	C	0.921978	0.183102	0.000139
C12	C	0.819583	0.180395	0.000122
C13	C	1.095790	-0.055274	0.000179
C14	C	1.093075	-0.194691	0.000178
C15	C	1.089257	-0.391174	-0.132635
C16	C	1.091805	-0.260177	-0.132618
C17	C	1.091807	-0.260210	0.132966
C18	C	1.089266	-0.391206	0.132948
C19	C	1.089252	-0.391153	-0.285968
C20	C	1.091800	-0.260156	-0.285952
C21	C	0.444635	0.170428	0.000189
C22	C	0.548958	0.173196	0.000170
C23	C	0.632106	0.175411	0.000154
C24	C	0.736435	0.178179	0.000138
C25	C	1.259083	0.165523	0.000192
C26	C	1.361479	0.168230	0.000199
C27	C	1.085272	0.403899	0.000152
C28	C	1.087986	0.543316	0.000143
N29	N	1.090535	0.174319	0.346832
N30	N	1.090534	0.174296	-0.346498
C31	C	1.152700	0.089113	0.423499
C32	C	1.152698	0.089098	0.576836
C33	C	1.028362	0.259506	0.576824
C34	C	1.028361	0.259514	0.423490
C35	C	1.224487	-0.009267	0.423507
C36	C	1.224484	-0.009283	0.576844
H37	H	1.092850	-0.206883	0.241091
O38	O	1.007375	-0.198021	-0.363925
H39	H	0.966728	-0.132980	-0.287443
H40	H	1.152985	-0.438033	-0.344840
O41	O	1.000162	-0.429486	-0.348999
H42	H	0.992543	-0.395914	-0.463870
H43	H	1.208739	-0.105648	0.381890
H44	H	0.977734	0.328885	0.361069
O45	O	1.194814	-0.129843	0.639811
H46	H	1.132053	-0.107609	0.708195
O47	O	1.180884	-0.221808	-0.348974
H48	H	1.226053	-0.307414	-0.382407
O49	O	0.961312	0.351404	0.659504
H50	H	0.971759	0.337091	0.779008
O51	O	1.313184	0.030368	0.360500
H52	H	1.360210	0.051373	0.451099
H53	H	1.295355	0.011554	0.618471
H54	H	1.088245	-0.444542	0.241069
