data_functionalizedCrystal
_audit_creation_method	'MofGen! by Chris Wilmer'
_symmetry_space_group_name_H-M	'P1'
_symmetry_Int_Tables_number	1
_symmetry_cell_setting	triclinic
loop_
_symmetry_equiv_pos_as_xyz
  x,y,z
_cell_length_a	12.759395
_cell_length_b	12.759394
_cell_length_c	12.759395
_cell_angle_alpha	90.007983
_cell_angle_beta	90.004185
_cell_angle_gamma	90.014617
loop_
_atom_site_label
_atom_site_type_symbol
_atom_site_fract_x
_atom_site_fract_y
_atom_site_fract_z
Zn1	Zn	1.606100	-0.418418	0.594025
Zn2	Zn	1.606045	-0.594067	0.418348
Zn3	Zn	1.430450	-0.418405	0.418361
Zn4	Zn	1.430393	-0.594058	0.593986
O5	O	1.518247	-0.506237	0.506180
O6	O	1.753114	-0.441727	0.570733
O7	O	1.582753	-0.570764	0.271329
O8	O	1.453797	-0.271386	0.441685
O9	O	1.753073	-0.570776	0.441664
O10	O	1.582847	-0.271395	0.570745
O11	O	1.453744	-0.441706	0.271338
O12	O	1.283421	-0.441697	0.441646
O13	O	1.453701	-0.570760	0.741012
O14	O	1.283380	-0.570748	0.570677
O15	O	1.582792	-0.441718	0.741041
O16	O	1.582698	-0.741087	0.441625
O17	O	1.453647	-0.741080	0.570665
C18	C	1.245280	-0.506220	0.506159
C19	C	1.128503	-0.506239	0.506176
C20	C	0.909110	-0.372100	0.640827
C21	C	0.963998	-0.305009	0.708123
C22	C	1.073719	-0.304991	0.708105
C23	C	1.128556	-0.372074	0.640786
C24	C	1.073669	-0.439165	0.573490
C25	C	0.963945	-0.439174	0.573513
C26	C	1.073616	-0.573330	0.438880
C27	C	0.963894	-0.573345	0.438891
C28	C	1.128452	-0.640413	0.371561
C29	C	1.073565	-0.707501	0.304258
C30	C	0.963837	-0.707515	0.304278
C31	C	0.909007	-0.640436	0.371595
C32	C	1.518189	-0.779204	0.506163
C33	C	1.518260	-0.895981	0.506190
C34	C	1.652538	-0.895833	0.640681
C35	C	1.719711	-0.950619	0.707935
C36	C	1.719773	-1.060341	0.707957
C37	C	1.652654	-1.115278	0.640722
C38	C	1.585481	-1.060492	0.573468
C39	C	1.585429	-0.950768	0.573451
C40	C	1.451199	-1.060640	0.438984
C41	C	1.451140	-0.950919	0.438955
C42	C	1.384080	-1.115578	0.371748
C43	C	1.316911	-1.060791	0.304488
C44	C	1.316852	-0.951063	0.304467
C45	C	1.383968	-0.896132	0.371701
C46	C	1.792281	-0.506254	0.506201
C47	C	1.909057	-0.506262	0.506210
C48	C	1.518246	-0.506239	0.780213
C49	C	1.518245	-0.506240	0.896990
C50	C	1.518334	-0.232204	0.506220
C51	C	1.518372	-0.115427	0.506238
C52	C	1.652676	-0.371878	1.116464
C53	C	1.719888	-0.304691	1.061617
C54	C	1.719888	-0.304685	0.951895
C55	C	1.652670	-0.371874	0.897018
C56	C	1.585458	-0.439060	0.951865
C57	C	1.585463	-0.439057	1.061589
C58	C	1.451033	-0.573426	0.951837
C59	C	1.451026	-0.573429	1.061559
C60	C	1.383815	-0.640616	0.896960
C61	C	1.316596	-0.707798	0.951807
C62	C	1.316598	-0.707801	1.061535
C63	C	1.383814	-0.640616	1.116405
C64	C	1.518241	-0.506254	1.233213
C65	C	1.518244	-0.506240	1.116436
H66	H	1.217897	-0.372063	0.640786
O67	O	1.785082	-0.239460	1.115087
C68	C	1.770693	-0.253886	1.223692
H69	H	1.689601	-0.288287	1.238669
H70	H	1.832992	-0.309842	1.254822
C71	C	1.879959	-0.105335	1.261647
C72	C	1.780357	-0.147578	1.280043
H73	H	1.885925	-0.039761	1.296409
H74	H	1.889657	-0.095618	1.188478
H75	H	1.931864	-0.151975	1.287589
H76	H	1.728455	-0.100945	1.254090
H77	H	1.770651	-0.157285	1.353209
H78	H	1.774357	-0.905879	0.762680
H79	H	1.261869	-0.762517	1.106185
O80	O	1.251343	-0.772961	0.898339
C81	C	1.265783	-0.758575	0.789736
H82	H	1.300224	-0.677499	0.774767
H83	H	1.321711	-0.820900	0.758599
C84	C	1.117182	-0.867768	0.751768
C85	C	1.159475	-0.768186	0.733383
H86	H	1.051608	-0.873701	0.717006
H87	H	1.107455	-0.877464	0.824936
H88	H	1.163799	-0.919694	0.725821
H89	H	1.112865	-0.716263	0.759342
H90	H	1.169191	-0.758482	0.660218
O91	O	0.910891	-0.239814	0.773614
C92	C	0.982866	-0.180578	0.832987
H93	H	1.061075	-0.223607	0.836534
H94	H	0.994534	-0.100722	0.794651
C95	C	0.844018	-0.112773	0.940484
C96	C	0.940074	-0.165625	0.944847
H97	H	0.817621	-0.103544	1.009483
H98	H	0.795526	-0.152678	0.900480
H99	H	0.853754	-0.046232	0.908532
H100	H	0.930334	-0.232170	0.976787
H101	H	0.988563	-0.125731	0.984859
H102	H	1.383825	-0.640610	0.807619
H103	H	1.383815	-0.640605	1.205747
O104	O	1.235035	-0.640569	0.371639
C105	C	1.271686	-0.741306	0.398417
H106	H	1.208460	-0.784818	0.444156
H107	H	1.291131	-0.786703	0.323955
C108	C	1.448516	-0.677800	0.410291
C109	C	1.370864	-0.731239	0.466476
H110	H	1.509696	-0.671592	0.452268
H111	H	1.423825	-0.609932	0.392246
H112	H	1.464707	-0.715638	0.348242
H113	H	1.354664	-0.693395	0.528516
H114	H	1.395554	-0.799101	0.484533
O115	O	1.126669	-0.772760	0.238841
C116	C	1.054701	-0.831958	0.179421
H117	H	0.976492	-0.835671	0.222452
H118	H	1.043028	-0.793359	0.099695
C119	C	1.193560	-0.939187	0.111233
C120	C	1.097505	-0.943755	0.164088
H121	H	1.219965	-1.008148	0.101770
H122	H	1.242048	-0.899303	0.151261
H123	H	1.183820	-0.907017	0.044800
H124	H	1.107249	-0.975912	0.230524
H125	H	1.049020	-0.983648	0.124070
H126	H	0.819769	-0.372085	0.640826
H127	H	0.919154	-0.762154	0.249482
O128	O	1.251816	-1.114318	0.239218
C129	C	1.266248	-1.222908	0.253687
H130	H	1.347310	-1.237817	0.288166
H131	H	1.203905	-1.254068	0.309595
C132	C	1.157166	-1.260984	0.105046
C133	C	1.256731	-1.279296	0.147386
H134	H	1.151291	-1.295769	0.039477
H135	H	1.147439	-1.187825	0.095300
H136	H	1.105224	-1.286951	0.151646
H137	H	1.308670	-1.253318	0.100793
H138	H	1.266467	-1.352452	0.157122
H139	H	1.118408	-0.250361	0.762905
O140	O	1.652584	-0.789250	0.640820
C141	C	1.726247	-0.752509	0.714559
H142	H	1.740950	-0.815705	0.775968
H143	H	1.802873	-0.732998	0.672953
C144	C	1.665281	-0.575744	0.692933
C145	C	1.683334	-0.653359	0.768363
H146	H	1.638814	-0.514581	0.726119
H147	H	1.615655	-0.600495	0.643251
H148	H	1.729142	-0.559498	0.658268
H149	H	1.619472	-0.669613	0.803018
H150	H	1.732948	-0.628608	0.818052
H151	H	1.383931	-0.806791	0.371686
H152	H	1.652702	-1.204619	0.640755
H153	H	0.819666	-0.640428	0.371605
H154	H	1.774620	-0.249978	0.907239
H155	H	1.774460	-1.104948	0.762732
H156	H	1.384131	-1.204919	0.371776
H157	H	1.262148	-0.906462	0.249706
H158	H	1.652669	-0.371863	1.205805
H159	H	1.652685	-0.371872	0.807677
