data_functionalizedCrystal
_audit_creation_method	'MofGen! by Chris Wilmer'
_symmetry_space_group_name_H-M	'P1'
_symmetry_Int_Tables_number	1
_symmetry_cell_setting	triclinic
loop_
_symmetry_equiv_pos_as_xyz
  x,y,z
_cell_length_a	27.440280
_cell_length_b	23.096457
_cell_length_c	23.096457
_cell_angle_alpha	60.000151
_cell_angle_beta	90.003456
_cell_angle_gamma	59.998890
loop_
_atom_site_label
_atom_site_type_symbol
_atom_site_fract_x
_atom_site_fract_y
_atom_site_fract_z
Zr1	Zr	0.469514	0.633667	-0.075886
O2	O	0.391697	0.754467	-0.168344
O3	O	0.493368	0.512877	-0.047546
O4	O	0.493369	0.633667	-0.168334
O5	O	0.391696	0.633673	0.047727
O6	O	0.573572	0.633656	-0.168322
O7	O	0.391695	0.633677	-0.047556
O8	O	0.573569	0.417584	0.047745
O9	O	0.391699	0.849745	-0.168340
O10	O	0.563397	0.562547	-0.035447
O11	O	0.503544	0.562553	0.035653
O12	O	0.503545	0.704768	-0.106558
O13	O	0.443692	0.704774	-0.035459
Zr14	Zr	0.597430	0.633643	0.076098
Zr15	Zr	0.597428	0.633649	-0.075867
Zr16	Zr	0.469516	0.633661	0.076079
Zr17	Zr	0.469517	0.785624	-0.075880
Zr18	Zr	0.597427	0.481686	0.076092
O19	O	0.573577	0.754433	0.047759
O20	O	0.573574	0.754442	-0.168317
O21	O	0.391699	0.754459	0.047732
O22	O	0.675247	0.512843	0.168556
O23	O	0.675245	0.512851	-0.047519
O24	O	0.493370	0.512868	0.168529
O25	O	0.675248	0.633637	-0.047514
O26	O	0.573575	0.633643	0.168546
O27	O	0.493373	0.633654	0.168534
O28	O	0.675249	0.633633	0.047769
O29	O	0.493373	0.849731	-0.168325
O30	O	0.573571	0.417579	0.168537
O31	O	0.675245	0.417565	0.168552
O32	O	0.675244	0.417569	0.047760
O33	O	0.391700	0.849740	-0.047547
O34	O	0.493375	0.849726	-0.047532
O35	O	0.563399	0.562542	0.106771
O36	O	0.623253	0.562536	0.035671
O37	O	0.563400	0.704757	-0.035441
O38	O	0.503547	0.704763	0.035659
C39	C	0.533468	0.443579	0.000098
C40	C	0.533467	0.379070	0.000095
C41	C	0.564706	0.348766	-0.037021
C42	C	0.564711	0.288143	-0.037015
C43	C	0.533467	0.257839	0.000097
C44	C	0.502226	0.288147	0.037222
C45	C	0.502226	0.348762	0.037221
N46	N	0.482621	0.195451	-0.005057
N47	N	0.482622	0.137870	-0.005060
C48	C	0.533466	0.075207	0.000104
N49	N	0.584308	0.072307	0.005257
N50	N	0.584306	0.129896	0.005256
C51	C	0.533464	0.192111	0.000103
C52	C	0.564714	-0.020831	-0.037007
C53	C	0.564722	-0.081458	-0.036997
C54	C	0.502231	-0.081448	0.037235
C55	C	0.502229	-0.020828	0.037229
C56	C	0.533469	0.009479	0.000104
C57	C	0.373471	0.633677	0.000082
C58	C	0.319168	0.633685	0.000074
C59	C	0.013712	0.559404	0.037245
C60	C	-0.037306	0.559399	0.037251
O61	O	-0.037124	0.496263	0.068842
N62	N	-0.094065	0.633636	0.000131
C63	C	-0.099805	0.707882	-0.036992
O64	O	-0.152767	0.771026	-0.068564
C65	C	-0.048787	0.707886	-0.036993
C66	C	0.007971	0.633644	0.000123
C67	C	0.070468	0.485168	0.074360
C68	C	0.121483	0.485173	0.074352
C69	C	0.115742	0.559413	0.037230
C70	C	0.058986	0.633649	0.000116
C71	C	-0.054527	0.782132	-0.074112
C72	C	-0.003503	0.782129	-0.074110
C73	C	0.053255	0.707887	-0.036993
C74	C	0.104260	0.707895	-0.037014
N75	N	0.161019	0.633658	0.000107
C76	C	0.166760	0.559417	0.037228
C77	C	-0.206943	0.707869	-0.036984
C78	C	-0.257961	0.707866	-0.036987
C79	C	-0.195458	0.559383	0.037257
C80	C	-0.144440	0.559386	0.037256
C81	C	-0.150184	0.633632	0.000136
C82	C	0.273892	0.559433	0.037209
C83	C	0.324909	0.559444	0.037196
C84	C	0.262402	0.707927	-0.037045
C85	C	0.211390	0.707916	-0.037035
C86	C	0.217139	0.633662	0.000097
O87	O	0.104124	0.770999	-0.068585
O88	O	0.219724	0.496284	0.068803
C89	C	0.693473	0.633633	0.000130
C90	C	0.747776	0.633625	0.000138
C91	C	0.533470	0.633662	-0.189980
C92	C	0.533469	0.633665	-0.254493
C93	C	0.533476	0.823730	0.000114
C94	C	0.533477	0.888240	0.000117
C95	C	0.502239	0.707882	-0.752114
C96	C	0.502234	0.707887	-0.691500
C97	C	0.533476	0.633650	-0.624068
C98	C	0.564714	0.559403	-0.617251
C99	C	0.564713	0.559400	-0.677865
N100	N	0.584322	0.578390	-0.501263
N101	N	0.584321	0.578398	-0.443685
C102	C	0.533479	0.633653	-0.441440
N103	N	0.482637	0.688914	-0.498955
N104	N	0.482639	0.688909	-0.556539
C105	C	0.533480	0.633645	-0.558338
C106	C	0.502234	0.707901	-0.382538
C107	C	0.502227	0.707903	-0.321921
C108	C	0.564713	0.559416	-0.247673
C109	C	0.564714	0.559417	-0.308289
C110	C	0.533476	0.633661	-0.375719
C111	C	0.533474	0.633647	0.190192
C112	C	0.533475	0.633645	0.254705
C113	C	0.693469	0.443557	0.000122
C114	C	0.747771	0.379040	0.000127
C115	C	0.533470	0.443572	0.190184
C116	C	0.533470	0.379059	0.254694
C117	C	0.693471	0.443550	0.190208
C118	C	0.747774	0.379030	0.254726
C119	C	0.373473	0.823760	-0.189995
C120	C	0.319171	0.888280	-0.254514
C121	C	0.373475	0.823753	0.000090
C122	C	0.319173	0.888270	0.000085
C123	C	0.533474	0.823738	-0.189972
C124	C	0.533475	0.888250	-0.254482
C125	C	0.742027	0.348747	-0.036999
C126	C	0.793045	0.288135	-0.037008
C127	C	0.849804	0.257811	0.000114
C128	C	0.855547	0.288110	0.037241
C129	C	0.804530	0.348725	0.037246
C130	C	0.564713	0.348758	0.322118
C131	C	0.564710	0.288150	0.382739
C132	C	0.533467	0.257841	0.375934
C133	C	0.502220	0.288148	0.308503
C134	C	0.502219	0.348759	0.247884
C135	C	0.804523	0.348727	0.247912
C136	C	0.855550	0.288112	0.308528
C137	C	0.849828	0.257797	0.375958
C138	C	0.793072	0.288105	0.382772
C139	C	0.742046	0.348723	0.322156
C140	C	0.262421	0.918590	-0.247699
C141	C	0.211394	0.979224	-0.308316
C142	C	0.217117	1.009543	-0.375746
C143	C	0.273872	0.979231	-0.382559
C144	C	0.324898	0.918602	-0.321944
C145	C	0.324917	0.918569	0.037205
C146	C	0.273899	0.979198	0.037198
C147	C	0.217140	1.009524	0.000074
C148	C	0.211398	0.979222	-0.037051
C149	C	0.262414	0.918598	-0.037047
C150	C	0.564724	0.918540	-0.247654
C151	C	0.564736	0.979149	-0.308263
C152	C	0.533495	1.009470	-0.375699
C153	C	0.502245	0.979174	-0.382525
C154	C	0.502237	0.918563	-0.321917
H155	H	0.476791	-0.106122	0.067453
H156	H	0.788421	0.263413	0.437682
C157	C	0.256117	0.885250	-0.173532
H158	H	0.294631	0.844795	-0.138401
H159	H	0.234922	0.928767	-0.168217
H160	H	0.234913	0.861609	-0.168221
C161	C	0.467852	0.885260	-0.329437
H162	H	0.449244	0.912009	-0.378281
H163	H	0.494808	0.828029	-0.307335
H164	H	0.438279	0.895213	-0.307345
H165	H	0.175563	1.058910	-0.425097
C166	C	0.467840	1.012580	-0.456705
H167	H	0.449216	0.985874	-0.452098
H168	H	0.438288	1.069808	-0.481852
H169	H	0.494784	1.002669	-0.481926
C170	C	0.599074	0.382094	-0.077849
H171	H	0.617684	0.355355	-0.099949
H172	H	0.572108	0.439324	-0.112977
H173	H	0.628645	0.372148	-0.045803
C174	C	0.148956	0.789580	-0.077862
H175	H	0.152846	0.833795	-0.099968
H176	H	0.127743	0.792673	-0.112984
H177	H	0.127767	0.792658	-0.045810
H178	H	0.476789	0.003848	0.067450
C179	C	0.599077	0.477745	-0.543080
H180	H	0.594607	0.488378	-0.507956
H181	H	0.583643	0.447250	-0.537766
H182	H	0.640184	0.447231	-0.537754
H183	H	0.167694	0.424717	0.104573
C184	C	0.387320	0.885236	-0.329445
H185	H	0.416895	0.844781	-0.283691
H186	H	0.391768	0.861603	-0.354637
H187	H	0.391811	0.928740	-0.354630
H188	H	0.533472	0.208488	0.425299
C189	C	0.467856	0.382080	0.173720
H190	H	0.472324	0.422523	0.138586
H191	H	0.483288	0.338554	0.168416
H192	H	0.426749	0.405735	0.168399
H193	H	0.476801	0.768338	-0.807014
H194	H	0.476782	0.263461	0.302972
H195	H	0.533507	1.058824	-0.425044
C196	C	0.387346	0.885221	0.078046
H197	H	0.383451	0.911961	0.100144
H198	H	0.408548	0.827992	0.113175
H199	H	0.408549	0.895155	0.046007
H200	H	0.901758	0.263442	0.302968
C201	C	0.905960	0.191112	0.442629
H202	H	0.940576	0.177405	0.428907
H203	H	0.905972	0.210968	0.470058
H204	H	0.905967	0.143811	0.470047
H205	H	0.695840	0.373387	0.327715
C206	C	0.599084	0.477755	-0.300789
H207	H	0.617695	0.433541	-0.251949
H208	H	0.572118	0.474669	-0.322895
H209	H	0.628653	0.474667	-0.322887
H210	H	0.901767	0.263412	0.067464
H211	H	0.809194	0.373402	0.193012
H212	H	0.257730	0.893931	-0.067273
H213	H	0.371124	0.498985	0.067423
C214	C	0.679597	0.382097	-0.077838
H215	H	0.650030	0.422533	-0.072519
H216	H	0.675122	0.405749	-0.126671
H217	H	0.675122	0.338579	-0.059509
C218	C	0.161027	1.076206	0.000077
H219	H	0.172582	1.089898	0.027509
H220	H	0.137942	1.123508	-0.047212
H221	H	0.137944	1.056340	0.019955
C222	C	-0.009822	0.863799	-0.114907
H223	H	0.028689	0.853175	-0.109582
H224	H	-0.031032	0.894341	-0.163745
H225	H	-0.031015	0.894262	-0.096539
H226	H	0.257738	0.768372	-0.067271
H227	H	0.165186	1.003893	-0.302754
C228	C	0.280226	1.012510	0.078044
H229	H	0.321338	0.985753	0.100163
H230	H	0.261632	1.069738	0.046013
H231	H	0.261621	1.002574	0.113169
H232	H	0.809215	0.373382	0.067483
H233	H	0.788358	0.263473	-0.067242
H234	H	0.476795	0.768342	-0.697053
C235	C	0.905919	0.191130	0.000111
H236	H	0.940549	0.177407	0.027534
H237	H	0.905913	0.143844	0.019978
H238	H	0.905917	0.211009	-0.047185
H239	H	0.590151	0.263465	-0.067240
C240	C	0.280159	1.012580	-0.456735
H241	H	0.241639	1.053021	-0.491853
H242	H	0.301360	1.036226	-0.462061
H243	H	0.301350	0.969062	-0.462055
H244	H	0.165177	1.003923	-0.067277
H245	H	0.590147	0.498971	-0.192769
C246	C	0.467865	0.789565	-0.456710
H247	H	0.449252	0.833780	-0.452089
H248	H	0.494831	0.792650	-0.481898
H249	H	0.438297	0.792650	-0.481899
H250	H	0.476787	0.263468	0.067439
C251	C	0.467857	0.382104	0.078044
H252	H	0.449246	0.355378	0.100145
H253	H	0.494822	0.372172	0.113169
H254	H	0.438287	0.439337	0.045993
H255	H	0.590155	0.373429	0.327673
C256	C	-0.189150	0.477718	0.078101
H257	H	-0.227665	0.488355	0.072791
H258	H	-0.167953	0.447206	0.059779
H259	H	-0.167949	0.447221	0.126938
H260	H	0.590164	0.893862	-0.192750
C261	C	0.599086	0.254816	0.456905
H262	H	0.594609	0.214384	0.492038
H263	H	0.640189	0.231163	0.462222
H264	H	0.583656	0.298342	0.462212
C265	C	0.599087	0.012496	-0.077829
H266	H	0.617702	-0.014247	-0.099924
H267	H	0.572123	0.069726	-0.112960
H268	H	0.628654	0.002552	-0.045779
C269	C	0.599107	1.012472	-0.300745
H270	H	0.594647	1.052907	-0.346496
H271	H	0.583672	1.036121	-0.275563
H272	H	0.640212	0.968943	-0.275546
C273	C	0.599093	-0.114805	-0.077816
H274	H	0.594628	-0.155256	-0.072490
H275	H	0.583666	-0.071295	-0.126652
H276	H	0.640199	-0.138456	-0.059474
C277	C	0.280223	0.477756	0.078049
H278	H	0.321334	0.433550	0.100144
H279	H	0.261627	0.474655	0.113181
H280	H	0.261618	0.474668	0.046008
H281	H	0.075153	0.424709	0.104592
H282	H	-0.098228	0.498932	0.067486
C283	C	-0.320389	0.789532	-0.077820
H284	H	-0.316495	0.833744	-0.099924
H285	H	-0.341599	0.792625	-0.112945
H286	H	-0.341585	0.792617	-0.045775
H287	H	-0.100735	0.842587	-0.104336
C288	C	-0.213268	0.789545	-0.077830
H289	H	-0.254380	0.833752	-0.099940
H290	H	-0.194666	0.792642	-0.045800
H291	H	-0.194670	0.792633	-0.112962
H292	H	0.590150	0.498945	-0.672307
H293	H	0.476787	0.768358	-0.327480
