data_functionalizedCrystal
_audit_creation_method	'MofGen! by Chris Wilmer'
_symmetry_space_group_name_H-M	'P1'
_symmetry_Int_Tables_number	1
_symmetry_cell_setting	triclinic
loop_
_symmetry_equiv_pos_as_xyz
  x,y,z
_cell_length_a	10.654559
_cell_length_b	16.109301
_cell_length_c	9.130313
_cell_angle_alpha	89.998741
_cell_angle_beta	89.999532
_cell_angle_gamma	83.975134
loop_
_atom_site_label
_atom_site_type_symbol
_atom_site_fract_x
_atom_site_fract_y
_atom_site_fract_z
O1	O	1.666243	0.116807	-0.121807
O2	O	1.300615	0.127924	-0.121809
O3	O	1.493473	0.001394	-0.121798
O4	O	1.473385	0.243336	-0.121818
O5	O	1.493470	0.001398	0.121800
O6	O	1.300613	0.127928	0.121790
O7	O	1.666240	0.116810	0.121791
Cu8	Cu	1.483426	0.122369	0.144033
Cu9	Cu	1.483429	0.122365	-0.144051
O10	O	1.473383	0.243340	0.121781
C11	C	1.253827	0.127108	-0.000009
C12	C	1.114418	0.124661	-0.000010
C13	C	1.063920	0.047862	0.000000
C14	C	0.932929	0.045568	-0.000010
C15	C	0.902944	0.196878	-0.000035
C16	C	1.033933	0.199171	-0.000035
C17	C	1.081230	-0.039496	0.000021
C18	C	0.950239	-0.041790	0.000010
C19	C	1.492658	-0.029584	0.000000
C20	C	1.490218	-0.121894	-0.000001
C21	C	1.596681	-0.430256	-0.000026
C22	C	1.598985	-0.343522	-0.000018
C23	C	1.370166	-0.325015	0.000001
C24	C	1.367863	-0.411747	0.000003
C25	C	1.481124	-0.464366	-0.000018
C26	C	1.485731	-0.290900	-0.000012
C27	C	1.488228	-0.196859	-0.000003
C28	C	1.478627	-0.558413	-0.000025
C29	C	1.713028	0.117626	-0.000011
C30	C	1.852438	0.120073	-0.000021
C31	C	1.474197	0.274318	-0.000021
C32	C	1.476637	0.366628	-0.000029
N33	N	1.483433	0.122372	0.346656
N34	N	1.483432	0.122356	-0.346673
C35	C	1.568853	0.066363	0.423312
C36	C	1.568849	0.066353	0.576649
C37	C	1.398004	0.178367	0.576660
C38	C	1.398002	0.178372	0.423326
C39	C	1.667493	0.001695	0.423308
C40	C	1.667489	0.001685	0.576645
H41	H	1.075042	0.261708	-0.000067
N42	N	1.137128	-0.083106	-0.134999
H43	H	1.099779	-0.053979	-0.225368
H44	H	1.231626	-0.081466	-0.134917
H45	H	1.646917	-0.062208	0.381693
H46	H	1.763807	0.015933	0.618260
H47	H	1.693083	-0.315755	-0.000022
H48	H	0.837398	0.257542	-0.000056
H49	H	1.328436	0.223971	0.360913
H50	H	1.127229	-0.065886	0.105205
H51	H	1.328447	0.223961	0.639100
H52	H	1.277952	-0.282162	0.000014
N53	N	1.787905	0.028518	0.360291
H54	H	1.846087	0.041473	0.442623
H55	H	1.830634	-0.017968	0.297994
N56	N	1.243221	-0.448544	0.000034
H57	H	1.171820	-0.402051	0.000040
H58	H	1.237271	-0.484130	-0.090264
N59	N	0.903529	-0.078648	-0.139299
H60	H	0.977305	-0.094772	-0.206604
H61	H	0.860260	-0.129776	-0.114956
H62	H	0.921332	-0.075948	0.101960
N63	N	1.718838	-0.487008	-0.000016
H64	H	1.699849	-0.547130	-0.000013
H65	H	1.769204	-0.475889	-0.090319
N66	N	1.628198	-0.078312	0.639651
H67	H	1.609213	-0.116957	0.557314
H68	H	1.698851	-0.106132	0.701928
