data_functionalizedCrystal
_audit_creation_method	'MofGen! by Chris Wilmer'
_symmetry_space_group_name_H-M	'P1'
_symmetry_Int_Tables_number	1
_symmetry_cell_setting	triclinic
loop_
_symmetry_equiv_pos_as_xyz
  x,y,z
_cell_length_a	12.645330
_cell_length_b	12.759401
_cell_length_c	12.759393
_cell_angle_alpha	89.980324
_cell_angle_beta	89.971026
_cell_angle_gamma	90.018118
loop_
_atom_site_label
_atom_site_type_symbol
_atom_site_fract_x
_atom_site_fract_y
_atom_site_fract_z
Zn1	Zn	-0.421976	1.606245	-0.593996
Zn2	Zn	-0.599277	1.606126	-0.418321
Zn3	Zn	-0.422029	1.430543	-0.418335
Zn4	Zn	-0.599199	1.430526	-0.593962
O5	O	-0.510620	1.518360	-0.506153
O6	O	-0.445506	1.753250	-0.570700
O7	O	-0.575819	1.582793	-0.271301
O8	O	-0.273675	1.453907	-0.441657
O9	O	-0.575768	1.753163	-0.441633
O10	O	-0.273636	1.582994	-0.570714
O11	O	-0.445596	1.453793	-0.271312
O12	O	-0.445521	1.283520	-0.441624
O13	O	-0.575636	1.453878	-0.740987
O14	O	-0.575687	1.283507	-0.570656
O15	O	-0.445430	1.582977	-0.741012
O16	O	-0.747614	1.582776	-0.441600
O17	O	-0.747557	1.453763	-0.570642
C18	C	-0.510602	1.245393	-0.506138
C19	C	-0.510620	1.128616	-0.506157
C20	C	-0.442915	1.073800	-0.573466
C21	C	-0.442926	0.964076	-0.573473
C22	C	-0.578355	0.963994	-0.438859
C23	C	-0.578338	1.073716	-0.438847
C24	C	-0.317971	0.814163	-0.611238
C25	C	-0.250276	0.759343	-0.678564
C26	C	-0.234118	0.795002	-0.781102
C27	C	-0.285672	0.885480	-0.816335
C28	C	-0.353376	0.940294	-0.749015
C29	C	-0.369513	0.904636	-0.646463
C30	C	-0.703294	1.223631	-0.401093
C31	C	-0.771004	1.278447	-0.333777
C32	C	-0.787172	1.242790	-0.231238
C33	C	-0.735637	1.152309	-0.196008
C34	C	-0.667927	1.097493	-0.263324
C35	C	-0.651757	1.133157	-0.365862
C36	C	-0.786050	1.518283	-0.506139
C37	C	-0.903880	1.518347	-0.506167
C38	C	-1.071452	1.437519	-0.587598
C39	C	-0.948893	1.437106	-0.587337
C40	C	-0.948482	1.488371	-0.395446
C41	C	-1.071081	1.487878	-0.395940
C42	C	-1.070966	1.629644	-0.534560
C43	C	-0.948359	1.628962	-0.536981
C44	C	-0.234115	1.518466	-0.506191
C45	C	-0.116285	1.518511	-0.506207
C46	C	-0.510518	1.518439	-0.780187
C47	C	-0.510475	1.518472	-0.896963
C48	C	-0.510639	1.792393	-0.506169
C49	C	-0.510647	1.909170	-0.506175
C50	C	-0.442666	1.585699	-0.951840
C51	C	-0.442621	1.585717	-1.061564
C52	C	-0.578201	1.451278	-1.061525
C53	C	-0.578241	1.451255	-0.951803
C54	C	-0.317547	1.623336	-1.211538
C55	C	-0.249747	1.690579	-1.266419
C56	C	-0.233494	1.793093	-1.230825
C57	C	-0.285054	1.828384	-1.140352
C58	C	-0.352862	1.761146	-1.085477
C59	C	-0.369095	1.658618	-1.121070
C60	C	-0.703316	1.413648	-0.801827
C61	C	-0.771130	1.346414	-0.746950
C62	C	-0.787394	1.243899	-0.782542
C63	C	-0.735852	1.208612	-0.873019
C64	C	-0.668039	1.275845	-0.927895
C65	C	-0.651773	1.378359	-0.892296
C66	C	-0.510645	1.518342	-0.233186
C67	C	-0.510390	1.518512	-0.116410
H68	H	-0.748806	1.123272	-0.112514
H69	H	-0.387771	1.118496	-0.628271
H70	H	-0.633490	0.919281	-0.384059
Br71	Br	-0.423341	1.063076	-0.796821
Br72	Br	-1.122364	1.675220	-0.666841
Br73	Br	-0.141485	1.884351	-1.305310
H74	H	-0.812952	1.352132	-0.362465
H75	H	-1.102355	1.355645	-0.569055
Br76	Br	-1.120525	1.581919	-0.291413
Br77	Br	-0.897474	1.354376	-0.354684
Br78	Br	-0.879454	1.152663	-0.708083
H79	H	-0.625965	1.023818	-0.234631
Br80	Br	-0.142254	0.720596	-0.872473
H81	H	-0.272520	0.914500	-0.899837
Br82	Br	-0.681341	1.272039	-0.540256
Br83	Br	-0.879081	1.317174	-0.139886
H84	H	-0.208300	0.685676	-0.649867
Br85	Br	-0.670169	1.360063	-1.135957
Br86	Br	-0.899897	1.583573	-0.291603
Br87	Br	-0.898618	1.468362	-0.724175
Br88	Br	-0.681206	1.552767	-0.753490
H89	H	-0.331109	0.785128	-0.527740
Br90	Br	-0.179778	1.642688	-1.389201
H91	H	-1.100858	1.456102	-0.669967
Br92	Br	-0.263011	1.967526	-1.092063
H93	H	-0.813108	1.375158	-0.673287
H94	H	-0.919660	1.354717	-0.568553
Br95	Br	-1.118912	1.352475	-0.355905
H96	H	-0.919203	1.651567	-0.618466
H97	H	-0.917712	1.692482	-0.482016
Br98	Br	-1.119309	1.730221	-0.435773
H99	H	-0.387484	1.640429	-0.907193
H100	H	-0.394845	1.789881	-1.011819
H101	H	-0.330766	1.539859	-1.240523
H102	H	-0.626071	1.247106	-1.001566
H103	H	-0.749099	1.125136	-0.902001
