data_functionalizedCrystal
_audit_creation_method	'MofGen! by Chris Wilmer'
_symmetry_space_group_name_H-M	'P1'
_symmetry_Int_Tables_number	1
_symmetry_cell_setting	triclinic
loop_
_symmetry_equiv_pos_as_xyz
  x,y,z
_cell_length_a	17.699083
_cell_length_b	17.038272
_cell_length_c	16.776229
_cell_angle_alpha	89.993292
_cell_angle_beta	89.998886
_cell_angle_gamma	87.197286
loop_
_atom_site_label
_atom_site_type_symbol
_atom_site_fract_x
_atom_site_fract_y
_atom_site_fract_z
O1	O	1.010620	0.098861	-0.066177
O2	O	0.791093	0.111723	-0.066203
O3	O	0.899552	-0.008521	-0.066184
O4	O	0.902161	0.219105	-0.066196
O5	O	0.899536	-0.008529	0.066393
O6	O	0.791077	0.111716	0.066374
O7	O	1.010604	0.098854	0.066400
Zn8	Zn	0.900838	0.105283	0.087436
Zn9	Zn	0.900859	0.105293	-0.087239
O10	O	0.902145	0.219098	0.066381
C11	C	0.762857	0.111258	0.000082
C12	C	0.678748	0.109876	0.000072
C13	C	0.634797	0.180457	0.000069
C14	C	0.555767	0.179153	0.000079
C15	C	0.520690	0.107267	0.000087
C16	C	0.564647	0.036681	0.000093
C17	C	0.643675	0.037986	0.000089
C18	C	0.245935	0.031418	0.000113
C19	C	0.166901	0.030119	0.000116
C20	C	0.158028	0.172585	0.000104
C21	C	0.237056	0.173890	0.000099
C22	C	0.281006	0.103304	0.000109
C23	C	0.366699	0.104719	0.000100
C24	C	0.434999	0.105852	0.000091
C25	C	0.897170	-0.037649	0.000104
C26	C	0.890090	-0.124431	0.000103
C27	C	0.955100	-0.174651	0.000112
C28	C	0.948442	-0.256191	0.000103
C29	C	0.876773	-0.287509	0.000092
C30	C	0.811758	-0.237282	0.000081
C31	C	0.818417	-0.155744	0.000084
C32	C	0.853251	-0.533228	0.000079
C33	C	0.846597	-0.614773	0.000078
C34	C	0.983282	-0.633676	0.000099
C35	C	0.989934	-0.552135	0.000106
C36	C	0.924919	-0.501916	0.000091
C37	C	0.869967	-0.370855	0.000086
C38	C	0.931726	-0.418571	0.000092
C39	C	1.038840	0.099318	0.000113
C40	C	1.122949	0.100701	0.000118
C41	C	0.904526	0.248226	0.000091
C42	C	0.911607	0.335007	0.000087
N43	N	0.900829	0.105276	0.206647
N44	N	0.900873	0.105294	-0.206450
C45	C	0.948872	0.052054	0.248373
C46	C	0.948876	0.052053	0.331825
C47	C	0.900841	0.105279	0.373550
C48	C	0.852793	0.158504	0.331819
C49	C	0.852785	0.158501	0.248368
C50	C	0.852821	0.158520	0.668366
C51	C	0.852834	0.158521	0.751823
C52	C	0.948912	0.052072	0.751823
C53	C	0.948904	0.052069	0.668372
C54	C	0.900854	0.105290	0.626648
C55	C	0.900849	0.105289	0.536160
C56	C	0.900849	0.105285	0.464037
H57	H	0.265612	0.232426	0.000089
H58	H	1.048294	-0.526642	0.000116
O59	O	0.800986	0.215915	0.376823
H60	H	0.814549	0.276843	0.360785
O61	O	1.000675	-0.005370	0.203383
H62	H	0.966361	-0.043321	0.165377
H63	H	0.765478	-0.114855	0.000077
O64	O	0.801005	0.215927	0.623367
H65	H	0.767614	0.252944	0.666404
H66	H	0.536080	-0.021849	0.000112
O67	O	0.110619	0.248718	0.000107
H68	H	0.123649	0.283125	-0.053937
O69	O	0.293334	-0.044709	0.000124
H70	H	0.255663	-0.094912	0.000124
O71	O	0.792666	-0.404633	0.000078
H72	H	0.761167	-0.384455	0.054110
H73	H	0.679459	-0.019489	0.000091
H74	H	0.813663	0.201839	0.214396
O75	O	0.129063	-0.047417	0.000138
H76	H	0.172900	-0.096282	0.000155
O77	O	1.000695	-0.005353	0.376826
H78	H	0.992625	0.003582	0.441864
O79	O	0.783132	-0.479066	0.000066
H80	H	0.782893	-0.441466	0.054099
O81	O	1.000709	-0.005343	0.623366
H82	H	1.034111	-0.042359	0.666402
H83	H	0.663351	0.238994	0.000061
H84	H	1.013460	-0.149159	0.000126
O85	O	0.734456	-0.271056	0.000066
H86	H	0.702956	-0.250870	0.054095
O87	O	0.508360	0.255278	0.000076
H88	H	0.546029	0.305484	0.000060
H89	H	0.990079	-0.393068	0.000083
H90	H	1.001381	-0.297077	0.000112
H91	H	1.036213	-0.674572	0.000110
O92	O	1.000734	-0.005342	0.796824
H93	H	0.992666	0.003592	0.861862
O94	O	0.769294	-0.648556	0.000057
H95	H	0.725202	-0.599938	0.000038
O96	O	0.801035	0.215943	0.796831
H97	H	0.767621	0.252952	0.753799
