data_functionalizedCrystal
_audit_creation_method	'MofGen! by Chris Wilmer'
_symmetry_space_group_name_H-M	'P1'
_symmetry_Int_Tables_number	1
_symmetry_cell_setting	triclinic
loop_
_symmetry_equiv_pos_as_xyz
  x,y,z
_cell_length_a	17.000383
_cell_length_b	16.098538
_cell_length_c	14.853567
_cell_angle_alpha	87.269523
_cell_angle_beta	79.617617
_cell_angle_gamma	92.524898
loop_
_atom_site_label
_atom_site_type_symbol
_atom_site_fract_x
_atom_site_fract_y
_atom_site_fract_z
O1	O	1.059698	0.069312	0.028180
O2	O	0.828001	0.069299	0.060895
O3	O	0.950039	0.069308	-0.087192
O4	O	0.937661	0.069302	0.176267
O5	O	0.942910	-0.069205	-0.078573
O6	O	0.820872	-0.069215	0.069514
O7	O	1.052569	-0.069202	0.036798
Zn8	Zn	0.935589	-0.091200	0.054525
Zn9	Zn	0.944982	0.091297	0.043169
O10	O	0.930532	-0.069211	0.184886
C11	C	0.794785	0.000041	0.066962
C12	C	0.706432	0.000036	0.072187
C13	C	0.206254	0.000066	0.105921
C14	C	0.289272	0.000066	0.101005
C15	C	0.340172	0.000061	0.015674
C16	C	0.308051	0.000066	-0.064746
C17	C	0.225036	0.000072	-0.059830
C18	C	0.591296	0.000047	-0.003317
C19	C	0.674317	0.000038	-0.008227
C20	C	0.655531	0.000040	0.157524
C21	C	0.572515	0.000041	0.162433
C22	C	0.540401	0.000050	0.082013
C23	C	0.425029	0.000058	0.010647
C24	C	0.455546	0.000059	0.087040
N25	N	0.929184	-0.215750	0.062274
C26	C	0.981001	-0.259331	-0.000561
C27	C	0.976528	-0.346520	0.004868
C28	C	0.920242	-0.390127	0.073136
C29	C	0.868420	-0.346540	0.135974
C30	C	0.872890	-0.259352	0.130540
C31	C	0.904040	-0.653378	0.092817
C32	C	0.899576	-0.740572	0.098247
C33	C	1.007683	-0.740546	-0.032860
C34	C	1.012151	-0.653357	-0.038284
C35	C	0.960326	-0.609777	0.024550
C36	C	0.915671	-0.479248	0.078688
C37	C	0.964895	-0.520658	0.018993
C38	C	1.085785	0.000058	0.030732
C39	C	1.174139	0.000068	0.025507
C40	C	0.945914	0.000054	-0.116426
C41	C	0.944233	0.000061	-0.216375
N42	N	0.951392	0.215847	0.035412
C43	C	0.864635	0.000041	-0.622485
C44	C	1.009618	0.000049	-0.655464
C45	C	1.011199	0.000054	-0.561558
C46	C	0.939496	0.000051	-0.498111
C47	C	0.866213	0.000043	-0.528570
C48	C	1.084480	0.000053	-0.531091
C49	C	1.086063	0.000057	-0.437180
C50	C	1.014360	0.000060	-0.373732
C51	C	0.941075	0.000054	-0.404196
C52	C	0.869372	0.000051	-0.340749
C53	C	0.796086	0.000050	-0.371211
C54	C	0.794510	0.000046	-0.465121
C55	C	1.015936	0.000064	-0.279822
C56	C	0.870950	0.000053	-0.246833
C57	C	0.934657	0.000045	0.214120
C58	C	0.936338	0.000044	0.314068
H59	H	0.681687	0.000034	0.222998
C60	C	0.516527	0.000056	0.256294
H61	H	0.462486	0.000054	0.247705
H62	H	0.528767	0.048359	0.286529
H63	H	0.523779	-0.048252	0.292551
H64	H	1.075604	0.000059	-0.255023
H65	H	1.010720	-0.485151	-0.036594
C66	C	0.853732	-0.527215	0.153753
H67	H	0.823498	-0.488775	0.190391
H68	H	0.880627	-0.561236	0.191160
H69	H	0.818837	-0.561219	0.126003
H70	H	0.715759	0.000039	-0.077718
H71	H	1.026838	-0.223832	-0.056149
C72	C	0.806482	-0.394501	0.211044
H73	H	0.776250	-0.356056	0.247675
H74	H	0.833381	-0.428514	0.248453
H75	H	0.771584	-0.428511	0.183305
C76	C	0.815895	-0.211413	0.199662
H77	H	0.781738	-0.249869	0.241104
H78	H	0.784476	-0.177413	0.167719
H79	H	0.846312	-0.177390	0.232820
C80	C	1.033534	-0.394456	-0.064243
H81	H	1.067704	-0.355998	-0.105670
H82	H	1.003131	-0.428482	-0.097406
H83	H	1.064952	-0.428452	-0.032286
C84	C	1.163347	0.000057	-0.600877
H85	H	1.207217	0.000051	-0.569286
H86	H	1.168230	0.048360	-0.641202
H87	H	1.163255	-0.048251	-0.635190
C88	C	1.166674	0.000070	-0.403679
H89	H	1.209150	0.000077	-0.454917
H90	H	1.167822	-0.048228	-0.364717
H91	H	1.172786	0.048384	-0.370745
C92	C	1.064680	-0.788482	-0.101982
H93	H	1.098843	-0.750023	-0.143415
H94	H	1.034267	-0.822505	-0.135137
H95	H	1.096105	-0.822480	-0.070037
C96	C	1.088486	0.000051	-0.725247
H97	H	1.132356	0.000052	-0.693655
H98	H	1.093368	0.048351	-0.765578
H99	H	1.088398	-0.048261	-0.759555
C100	C	0.481018	0.000055	-0.083213
H101	H	0.450006	0.000061	-0.130407
H102	H	0.511307	-0.048247	-0.085567
H103	H	0.516279	0.048365	-0.091578
H104	H	0.734844	0.000045	-0.489933
C105	C	1.074061	-0.605396	-0.113384
H106	H	1.104277	-0.643839	-0.150035
H107	H	1.108967	-0.571369	-0.085682
H108	H	1.047129	-0.571398	-0.150780
C109	C	0.717218	0.000048	-0.301415
H110	H	0.728660	0.000053	-0.241125
H111	H	0.684682	-0.048253	-0.307019
H112	H	0.689664	0.048358	-0.313031
H113	H	0.861843	-0.617902	0.143981
H114	H	0.315416	0.000072	0.166486
C115	C	0.150268	0.000070	0.199783
H116	H	0.096225	0.000067	0.191198
H117	H	0.162507	0.048373	0.230020
H118	H	0.157524	-0.048239	0.236036
H119	H	0.804967	0.000043	-0.647292
C120	C	0.792078	0.000054	-0.177045
H121	H	0.803512	0.000060	-0.116752
H122	H	0.759543	-0.048247	-0.182652
H123	H	0.764527	0.048364	-0.188669
H124	H	0.853738	-0.776072	0.153843
H125	H	0.565160	0.000052	-0.068801
H126	H	0.349501	0.000067	-0.134224
H127	H	0.414100	0.000067	0.156516
C128	C	0.189708	0.000072	-0.148284
H129	H	0.231910	0.000061	-0.199809
H130	H	0.160206	0.048378	-0.152820
H131	H	0.155222	-0.048234	-0.146802
