data_functionalizedCrystal
_audit_creation_method	'MofGen! by Chris Wilmer'
_symmetry_space_group_name_H-M	'P1'
_symmetry_Int_Tables_number	1
_symmetry_cell_setting	triclinic
loop_
_symmetry_equiv_pos_as_xyz
  x,y,z
_cell_length_a	10.723023
_cell_length_b	10.540510
_cell_length_c	9.798715
_cell_angle_alpha	89.999330
_cell_angle_beta	89.996770
_cell_angle_gamma	84.490429
loop_
_atom_site_label
_atom_site_type_symbol
_atom_site_fract_x
_atom_site_fract_y
_atom_site_fract_z
O1	O	1.657258	0.178044	-0.113469
O2	O	1.294112	0.195087	-0.113474
O3	O	1.483989	0.001852	-0.113471
O4	O	1.467380	0.371279	-0.113472
O5	O	1.483975	0.001852	0.113511
O6	O	1.294098	0.195087	0.113508
O7	O	1.657243	0.178043	0.113513
Zn8	Zn	1.475668	0.186565	0.149549
Zn9	Zn	1.475687	0.186566	-0.149510
O10	O	1.467366	0.371278	0.113510
C11	C	1.247605	0.193847	0.000016
C12	C	1.109049	0.190137	0.000014
C13	C	1.047269	0.188482	0.117597
C14	C	0.904064	0.184647	0.117597
C15	C	1.482744	-0.045451	0.000017
C16	C	1.479041	-0.186399	0.000009
C17	C	1.610948	-0.403923	0.000531
C18	C	1.614898	-0.257329	0.000012
C19	C	1.409504	-0.231121	-0.129607
C20	C	1.406516	-0.377881	-0.129709
C21	C	1.403671	-0.377688	0.128413
C22	C	1.410115	-0.231351	0.130119
C23	C	1.703751	0.179283	0.000020
C24	C	1.842306	0.182994	0.000013
C25	C	1.468611	0.418581	0.000019
C26	C	1.472314	0.559529	0.000018
N27	N	1.475665	0.186564	0.353649
N28	N	1.475700	0.186557	-0.353609
C29	C	1.555389	0.105072	0.421427
C30	C	1.555409	0.105068	0.578590
H31	H	1.100396	0.189898	0.218263
C32	C	0.914070	0.184914	-0.135994
N33	N	0.968132	0.186358	-0.238435
C34	C	1.688404	-0.217722	0.125532
N35	N	1.743775	-0.187897	0.220076
C36	C	0.832292	0.182726	0.253599
N37	N	0.778231	0.181276	0.356039
C38	C	1.682452	-0.460647	0.126104
N39	N	1.736310	-0.503382	0.220689
C40	C	1.461679	-0.435048	0.261138
N41	N	1.505386	-0.478252	0.361100
H42	H	1.623668	0.035304	0.636876
H43	H	1.623625	0.035302	0.363105
H44	H	1.309489	-0.183681	-0.134428
H45	H	1.407446	0.256333	0.588113
C46	C	1.682050	-0.462727	-0.124336
N47	N	1.735601	-0.507021	-0.218389
H48	H	1.454050	-0.418121	-0.226597
H49	H	1.407420	0.256324	0.411972
H50	H	1.457807	-0.200290	-0.226066
H51	H	1.055923	0.188711	-0.100652
H52	H	1.669635	-0.228952	-0.093060
H53	H	1.460713	-0.202765	0.226008
H54	H	1.304904	-0.400823	-0.135582
C55	C	1.276113	-0.165001	0.140690
N56	N	1.175177	-0.115027	0.148640
H57	H	1.301668	-0.399786	0.129284
