data_functionalizedCrystal
_audit_creation_method	'MofGen! by Chris Wilmer'
_symmetry_space_group_name_H-M	'P1'
_symmetry_Int_Tables_number	1
_symmetry_cell_setting	triclinic
loop_
_symmetry_equiv_pos_as_xyz
  x,y,z
_cell_length_a	8.597340
_cell_length_b	23.532407
_cell_length_c	22.010155
_cell_angle_alpha	90.000423
_cell_angle_beta	82.306492
_cell_angle_gamma	84.100404
loop_
_atom_site_label
_atom_site_type_symbol
_atom_site_fract_x
_atom_site_fract_y
_atom_site_fract_z
O1	O	2.081062	0.085002	-0.058411
O2	O	1.624040	0.091519	-0.034484
O3	O	1.866332	0.005434	-0.047180
O4	O	1.838769	0.171087	-0.045715
O5	O	1.866288	0.005446	-0.148228
O6	O	1.623996	0.091532	-0.135532
O7	O	2.081018	0.085015	-0.159459
Cu8	Cu	1.852503	0.088274	-0.156722
Cu9	Cu	1.852555	0.088259	-0.037221
O10	O	1.838725	0.171100	-0.146763
C11	C	1.565559	0.090824	-0.081948
C12	C	1.391370	0.088730	-0.072829
C13	C	1.865608	-0.015781	-0.097669
C14	C	1.863498	-0.079014	-0.097563
C15	C	1.993646	-0.477125	-0.104344
C16	C	1.991685	-0.536540	-0.104236
O17	O	2.112333	-0.572364	-0.110530
N18	N	1.847643	-0.560265	-0.096696
C19	C	1.705551	-0.524571	-0.089255
O20	O	1.582851	-0.550207	-0.082831
C21	C	1.707513	-0.465157	-0.089358
C22	C	1.851565	-0.441436	-0.096906
C23	C	2.137686	-0.453403	-0.111890
C24	C	2.139646	-0.393992	-0.111998
C25	C	1.997565	-0.358303	-0.104560
C26	C	1.853525	-0.382025	-0.097014
C27	C	1.565423	-0.429465	-0.081914
C28	C	1.567398	-0.370047	-0.082017
C29	C	1.711450	-0.346326	-0.089565
C30	C	1.713404	-0.286924	-0.089685
N31	N	1.857446	-0.263199	-0.097226
C32	C	1.999527	-0.298889	-0.104663
C33	C	1.701442	-0.649345	-0.089039
C34	C	1.699478	-0.708758	-0.088940
C35	C	1.985613	-0.720723	-0.103920
C36	C	1.987575	-0.661309	-0.104023
C37	C	1.845484	-0.625620	-0.096579
C38	C	2.003632	-0.174120	-0.104891
C39	C	2.005579	-0.114704	-0.105001
C40	C	1.719445	-0.102744	-0.090018
C41	C	1.717497	-0.162156	-0.089911
C42	C	1.859603	-0.197843	-0.097346
O43	O	1.592819	-0.251065	-0.083392
O44	O	2.122206	-0.273245	-0.111079
C45	C	2.139499	0.085709	-0.111994
C46	C	2.313687	0.087803	-0.121109
C47	C	1.839449	0.192315	-0.096273
C48	C	1.841559	0.255548	-0.096375
N49	N	1.852478	0.088285	-0.240773
C50	C	1.959848	0.050146	-0.666179
C51	C	1.959855	0.050142	-0.729787
O52	O	2.051082	0.017722	-0.767459
N53	N	1.852554	0.088247	-0.755984
C54	C	1.745228	0.126354	-0.718570
O55	O	1.653959	0.158765	-0.746693
C56	C	1.745214	0.126355	-0.654963
C57	C	1.852533	0.088252	-0.628769
C58	C	2.067157	0.012045	-0.639985
C59	C	2.067151	0.012050	-0.576381
C60	C	1.959836	0.050156	-0.538972
C61	C	1.852527	0.088256	-0.565166
C62	C	1.637882	0.164459	-0.617549
C63	C	1.637877	0.164456	-0.553938
C64	C	1.745196	0.126353	-0.527744
C65	C	1.745207	0.126367	-0.464153
N66	N	1.852508	0.088262	-0.437955
C67	C	1.959823	0.050156	-0.475365
C68	C	1.745263	0.126349	-0.852149
C69	C	1.745282	0.126352	-0.915756
C70	C	1.959908	0.050139	-0.926968
C71	C	1.959895	0.050140	-0.863361
C72	C	1.852564	0.088245	-0.825952
C73	C	1.959804	0.050169	-0.341792
C74	C	1.959792	0.050179	-0.278183
C75	C	1.745162	0.126390	-0.266976
C76	C	1.745177	0.126382	-0.330580
C77	C	1.852504	0.088267	-0.367987
O78	O	1.654022	0.158768	-0.426443
O79	O	2.051062	0.017746	-0.447232
N80	N	1.852592	0.088244	0.046829
H81	H	1.380441	0.088609	-0.169423
H82	H	1.324610	0.087920	-0.024512
H83	H	2.154546	-0.018987	-0.670439
H84	H	1.657791	0.157417	-0.236507
C85	C	2.164054	-0.088614	-0.113302
N86	N	2.283414	-0.068966	-0.119553
C87	C	1.627254	0.168297	-0.811008
N88	N	1.538390	0.199900	-0.780024
H89	H	1.657910	0.157385	-0.937078
C90	C	2.141905	-0.759992	-0.112095
N91	N	2.259617	-0.789572	-0.118252
C92	C	1.541010	-0.734844	-0.080645
N93	N	1.421646	-0.754490	-0.074393
C94	C	1.627131	0.168301	-0.359394
N95	N	1.538206	0.199872	-0.381091
C96	C	1.519808	0.206372	-0.646346
N97	N	1.430862	0.237942	-0.668034
C98	C	2.159956	-0.213368	-0.113075
N99	N	2.277700	-0.242929	-0.119245
C100	C	2.298116	-0.367906	-0.120294
N101	N	2.417483	-0.348263	-0.126541
C102	C	1.406952	-0.455544	-0.073607
N103	N	1.287582	-0.475186	-0.067348
H104	H	1.600198	-0.181471	-0.083782
C105	C	2.294001	-0.492652	-0.120079
N106	N	2.411747	-0.522212	-0.126255
C107	C	1.411082	-0.330793	-0.073831
N108	N	1.293345	-0.301228	-0.067667
C109	C	1.563164	-0.063475	-0.081833
N110	N	1.445452	-0.033896	-0.075661
C111	C	2.146041	-0.635221	-0.112320
N112	N	2.265405	-0.615575	-0.118568
H113	H	1.585727	-0.620290	-0.082982
H114	H	1.550470	0.195485	-0.523481
C115	C	2.077851	0.008259	-0.249374
N116	N	2.166767	-0.023317	-0.227678
C117	C	2.077873	0.008242	-0.382931
N118	N	2.166809	-0.023334	-0.413917
H119	H	2.154535	-0.018979	-0.555059
C120	C	2.077942	0.008219	-0.834554
N121	N	2.166857	-0.023358	-0.812860
H122	H	2.047288	0.019111	-0.957439
