data_functionalizedCrystal
_audit_creation_method	'MofGen! by Chris Wilmer'
_symmetry_space_group_name_H-M	'P1'
_symmetry_Int_Tables_number	1
_symmetry_cell_setting	triclinic
loop_
_symmetry_equiv_pos_as_xyz
  x,y,z
_cell_length_a	18.101397
_cell_length_b	19.121274
_cell_length_c	18.101389
_cell_angle_alpha	87.579535
_cell_angle_beta	89.981649
_cell_angle_gamma	92.420740
loop_
_atom_site_label
_atom_site_type_symbol
_atom_site_fract_x
_atom_site_fract_y
_atom_site_fract_z
Zn1	Zn	-0.343219	-1.073710	-0.370443
Zn2	Zn	-0.009886	-0.740376	-0.037109
Zn3	Zn	0.323448	-0.407043	0.296224
Zn4	Zn	-0.467041	-1.073634	-0.246605
Zn5	Zn	-0.133708	-0.740301	0.086729
Zn6	Zn	0.199625	-0.406967	0.420062
Zn7	Zn	-0.337937	-0.956264	-0.251897
Zn8	Zn	-0.004604	-0.622931	0.081436
Zn9	Zn	0.328730	-0.289597	0.414769
Zn10	Zn	-0.461738	-0.956241	-0.375685
Zn11	Zn	-0.128404	-0.622907	-0.042351
Zn12	Zn	0.204929	-0.289574	0.290982
O13	O	-0.402484	-1.014962	-0.311157
O14	O	-0.069150	-0.681629	0.022176
O15	O	0.264183	-0.348295	0.355509
O16	O	-0.364074	-1.171980	-0.349606
O17	O	-0.030741	-0.838647	-0.016273
O18	O	0.302592	-0.505314	0.317060
O19	O	-0.449924	-1.058043	-0.143675
O20	O	-0.116591	-0.724710	0.189659
O21	O	0.216742	-0.391376	0.522992
O22	O	-0.235007	-0.971885	-0.267644
O23	O	0.098327	-0.638552	0.065689
O24	O	0.431660	-0.305218	0.399023
O25	O	-0.455046	-1.171925	-0.258623
O26	O	-0.121713	-0.838592	0.074710
O27	O	0.211621	-0.505258	0.408044
O28	O	-0.238887	-1.058172	-0.354739
O29	O	0.094446	-0.724838	-0.021405
O30	O	0.427779	-0.391505	0.311928
O31	O	-0.355072	-0.971812	-0.147563
O32	O	-0.021739	-0.638478	0.185770
O33	O	0.311595	-0.305145	0.519103
O34	O	-0.349929	-0.857980	-0.272727
O35	O	-0.016596	-0.524647	0.060606
O36	O	0.316737	-0.191313	0.393940
O37	O	-0.446007	-0.971845	-0.478621
O38	O	-0.112674	-0.638511	-0.145288
O39	O	0.220660	-0.305178	0.188045
O40	O	-0.440885	-0.857963	-0.363673
O41	O	-0.107552	-0.524629	-0.030340
O42	O	0.225781	-0.191296	0.302994
O43	O	-0.358932	-1.058149	-0.474770
O44	O	-0.025598	-0.724815	-0.141437
O45	O	0.307735	-0.391482	0.191897
O46	O	-0.569969	-1.058020	-0.263706
O47	O	-0.236635	-0.724687	0.069627
O48	O	0.096698	-0.391353	0.402961
O49	O	-0.566072	-0.971772	-0.358541
O50	O	-0.232739	-0.638438	-0.025207
O51	O	0.100594	-0.305105	0.308126
C52	C	-0.394259	-0.832488	-0.319344
C53	C	-0.060926	-0.499155	0.013990
C54	C	0.272407	-0.165822	0.347323
C55	C	-0.390758	-0.754425	-0.322863
C56	C	-0.057425	-0.421092	0.010470
C57	C	0.275908	-0.087758	0.343803
C58	C	-0.436401	-0.717719	-0.277076
C59	C	-0.103068	-0.384386	0.056257
C60	C	0.230266	-0.051052	0.389590
C61	C	-0.433112	-0.644371	-0.280393
C62	C	-0.099779	-0.311037	0.052940
C63	C	0.233555	0.022296	0.386274
C64	C	-0.384176	-0.607729	-0.329494
C65	C	-0.050843	-0.274396	0.003840
C66	C	0.282491	0.058937	0.337173
C67	C	-0.338532	-0.644441	-0.375286
C68	C	-0.005198	-0.311107	-0.041952
C69	C	0.328135	0.022226	0.291381
C70	C	-0.341825	-0.717788	-0.371972
C71	C	-0.008492	-0.384454	-0.038639
C72	C	0.324842	-0.051121	0.294695
C73	C	-0.371870	-0.386270	-0.341876
C74	C	-0.038537	-0.052936	-0.008542
C75	C	0.294797	0.280397	0.324791
C76	C	-0.368579	-0.312917	-0.345184
C77	C	-0.035245	0.020416	-0.011851
C78	C	0.298088	0.353749	0.321482
C79	C	-0.463160	-0.312853	-0.250292
C80	C	-0.129827	0.020481	0.083041
C81	C	0.203507	0.353814	0.416375
C82	C	-0.466446	-0.386201	-0.246980
C83	C	-0.133112	-0.052868	0.086354
C84	C	0.200221	0.280465	0.419687
C85	C	-0.420804	-0.422906	-0.292774
C86	C	-0.087471	-0.089573	0.040559
C87	C	0.245862	0.243761	0.373892
C88	C	-0.380811	-0.532755	-0.332884
C89	C	-0.047478	-0.199422	0.000450
C90	C	0.285855	0.133911	0.333783
C91	C	-0.424173	-0.497879	-0.289388
C92	C	-0.090840	-0.164545	0.043946
C93	C	0.242493	0.168788	0.377279
C94	C	-0.594892	-1.014904	-0.311133
C95	C	-0.261558	-0.681571	0.022200
C96	C	0.071775	-0.348237	0.355534
C97	C	-0.677208	-1.014944	-0.311145
C98	C	-0.343874	-0.681610	0.022189
C99	C	-0.010541	-0.348277	0.355522
C100	C	-0.827918	-1.014986	-0.311168
C101	C	-0.494585	-0.681653	0.022165
C102	C	-0.161251	-0.348320	0.355499
C103	C	-0.861695	-1.069305	-0.251554
C104	C	-0.528361	-0.735972	0.081780
C105	C	-0.195028	-0.402638	0.415113
C106	C	-0.947307	-1.069170	-0.251349
C107	C	-0.613974	-0.735837	0.081984
C108	C	-0.280640	-0.402503	0.415317
C109	C	-0.976302	-1.015030	-0.311191
C110	C	-0.642969	-0.681696	0.022143
C111	C	-0.309636	-0.348363	0.355476
C112	C	-0.941950	-0.940961	-0.293515
C113	C	-0.608616	-0.607628	0.039818
C114	C	-0.275283	-0.274294	0.373152
C115	C	-0.856318	-0.941250	-0.293072
C116	C	-0.522984	-0.607917	0.040261
C117	C	-0.189651	-0.274584	0.373594
C118	C	-0.860286	-1.034098	-0.388635
C119	C	-0.526952	-0.700765	-0.055302
C120	C	-0.193619	-0.367431	0.278031
C121	C	-0.946010	-1.035756	-0.388158
C122	C	-0.612677	-0.702422	-0.054824
C123	C	-0.279343	-0.369089	0.278509
C124	C	-1.060163	-1.015049	-0.311205
C125	C	-0.726829	-0.681716	0.022128
C126	C	-0.393496	-0.348383	0.355462
C127	C	-0.744057	-1.014961	-0.311152
C128	C	-0.410724	-0.681628	0.022181
C129	C	-0.077391	-0.348295	0.355515
C130	C	-0.209325	-1.015039	-0.311197
C131	C	0.124008	-0.681706	0.022136
C132	C	0.457341	-0.348373	0.355470
C133	C	-0.127013	-1.015072	-0.311214
C134	C	0.206321	-0.681739	0.022119
C135	C	0.539654	-0.348405	0.355453
C136	C	-0.402467	-1.015003	-0.504317
C137	C	-0.069134	-0.681669	-0.170984
C138	C	0.264200	-0.348336	0.162349
C139	C	-0.402460	-1.015020	-0.586631
C140	C	-0.069126	-0.681687	-0.253298
C141	C	0.264207	-0.348353	0.080036
C142	C	-0.410731	-0.198148	-0.302929
C143	C	-0.077398	0.135185	0.030404
C144	C	0.255935	0.468518	0.363737
C145	C	-0.414221	-0.276211	-0.299397
C146	C	-0.080888	0.057122	0.033936
C147	C	0.252446	0.390455	0.367269
C148	C	-0.402323	-1.015061	-0.885720
C149	C	-0.068989	-0.681727	-0.552387
C150	C	0.264344	-0.348394	-0.219053
C151	C	-0.456918	-0.960574	-0.856826
C152	C	-0.123584	-0.627240	-0.523493
C153	C	0.209749	-0.293907	-0.190160
C154	C	-0.457189	-0.960721	-0.771202
C155	C	-0.123856	-0.627388	-0.437868
C156	C	0.209478	-0.294054	-0.104535
C157	C	-0.402391	-1.015040	-0.737338
C158	C	-0.069057	-0.681707	-0.404005
C159	C	0.264276	-0.348373	-0.070672
C160	C	-0.426904	-1.089040	-0.765109
C161	C	-0.093571	-0.755706	-0.431775
C162	C	0.239762	-0.422373	-0.098442
C163	C	-0.427265	-1.088736	-0.850767
C164	C	-0.093932	-0.755403	-0.517434
C165	C	0.239401	-0.422070	-0.184101
C166	C	-0.323116	-0.996191	-0.854995
C167	C	0.010217	-0.662858	-0.521661
C168	C	0.343551	-0.329525	-0.188328
C169	C	-0.323495	-0.994545	-0.769418
C170	C	0.009839	-0.661212	-0.436085
C171	C	0.343172	-0.327878	-0.102751
C172	C	-0.402428	-1.015033	-0.653479
C173	C	-0.069095	-0.681699	-0.320146
C174	C	0.264239	-0.348366	0.013187
C175	C	-0.402287	-1.015073	-0.969579
C176	C	-0.068954	-0.681740	-0.636246
C177	C	0.264379	-0.348406	-0.302912
C178	C	-0.402449	-1.014962	-0.118747
C179	C	-0.069116	-0.681629	0.214587
C180	C	0.264218	-0.348295	0.547920
C181	C	-0.402254	-1.015081	-0.036428
C182	C	-0.068920	-0.681747	0.296906
C183	C	0.264413	-0.348414	0.630239
H184	H	-0.304658	-0.747673	-0.409256
H185	H	0.028676	-0.414340	-0.075923
H186	H	0.362009	-0.081006	0.257410
F187	F	-0.518512	-0.425192	-0.194702
F188	F	-0.185179	-0.091859	0.138631
F189	F	0.148155	0.241474	0.471965
H190	H	-0.839648	-1.056797	-0.194410
H191	H	-0.506315	-0.723463	0.138923
H192	H	-0.172981	-0.390130	0.472256
H193	H	-0.835659	-0.925079	-0.236550
H194	H	-0.502325	-0.591746	0.096783
H195	H	-0.168992	-0.258412	0.430117
F196	F	-0.533832	-0.977038	-0.743691
F197	F	-0.200498	-0.643705	-0.410357
F198	F	0.132835	-0.310372	-0.077024
H199	H	-0.965754	-0.999107	-0.434677
H200	H	-0.632420	-0.665773	-0.101343
H201	H	-0.299087	-0.332440	0.231990
H202	H	-0.476247	-0.747547	-0.237090
H203	H	-0.142914	-0.414214	0.096243
H204	H	0.190420	-0.080881	0.429576
H205	H	-0.960441	-0.899398	-0.335752
H206	H	-0.627108	-0.566065	-0.002419
H207	H	-0.293774	-0.232732	0.330915
F208	F	-0.835121	-1.103481	-0.410535
F209	F	-0.501787	-0.770148	-0.077201
F210	F	-0.168454	-0.436814	0.256132
H211	H	-0.470279	-0.614488	-0.243108
H212	H	-0.136945	-0.281154	0.090225
H213	H	0.196388	0.052179	0.423558
F214	F	-0.511733	-0.273784	-0.201559
F215	F	-0.178400	0.059550	0.131774
F216	F	0.154934	0.392883	0.465107
F217	F	-0.503075	-1.109641	-0.875947
F218	F	-0.169742	-0.776308	-0.542614
F219	F	0.163592	-0.442975	-0.209280
F220	F	-0.826765	-0.886536	-0.347604
F221	F	-0.493432	-0.553202	-0.014271
F222	F	-0.160098	-0.219869	0.319062
H223	H	-0.968731	-1.090264	-0.401550
H224	H	-0.635398	-0.756931	-0.068216
H225	H	-0.302065	-0.423598	0.265117
F226	F	-0.316489	-0.273923	-0.397443
F227	F	0.016845	0.059411	-0.064110
F228	F	0.350178	0.392744	0.269224
H229	H	-0.967269	-1.056517	-0.193889
H230	H	-0.633936	-0.723184	0.139445
H231	H	-0.300602	-0.389851	0.472778
H232	H	-0.389407	-1.130710	-0.869616
H233	H	-0.056074	-0.797377	-0.536282
H234	H	0.277259	-0.464043	-0.202949
F235	F	-0.436631	-0.888998	-0.746941
F236	F	-0.103298	-0.555665	-0.413608
F237	F	0.230036	-0.222332	-0.080274
F238	F	-0.831462	-0.982399	-0.446638
F239	F	-0.498129	-0.649065	-0.113305
F240	F	-0.164796	-0.315732	0.220028
H241	H	-0.441321	-0.905535	-0.879893
H242	H	-0.107987	-0.572202	-0.546560
H243	H	0.225346	-0.238869	-0.213226
F244	F	-0.376755	-1.143531	-0.736061
F245	F	-0.043421	-0.810198	-0.402728
F246	F	0.289912	-0.476864	-0.069395
F247	F	-0.501935	-1.110309	-0.736125
F248	F	-0.168602	-0.776976	-0.402792
F249	F	0.164731	-0.443642	-0.069458
F250	F	-0.533087	-0.976663	-0.884279
F251	F	-0.199753	-0.643330	-0.550946
F252	F	0.133580	-0.309996	-0.217613
H253	H	-0.298691	-0.614601	-0.415268
H254	H	0.034643	-0.281268	-0.081935
H255	H	0.367976	0.052065	0.251399
F256	F	-0.328733	-0.493753	-0.385140
F257	F	0.004601	-0.160419	-0.051806
F258	F	0.337934	0.172914	0.281527
F259	F	-0.294771	-0.926885	-0.886330
F260	F	0.038562	-0.593551	-0.552997
F261	F	0.371896	-0.260218	-0.219664
F262	F	-0.269896	-1.048063	-0.879158
F263	F	0.063437	-0.714730	-0.545824
F264	F	0.396771	-0.381396	-0.212491
H265	H	-0.305069	-0.940088	-0.751541
H266	H	0.028264	-0.606754	-0.418207
H267	H	0.361597	-0.273421	-0.084874
F268	F	-0.267154	-1.042636	-0.739309
F269	F	0.066179	-0.709303	-0.405975
F270	F	0.399512	-0.375969	-0.072642
H271	H	-0.334706	-0.416146	-0.379166
H272	H	-0.001373	-0.082813	-0.045832
H273	H	0.331960	0.250521	0.287501
H274	H	-0.464020	-0.527715	-0.249414
H275	H	-0.130687	-0.194382	0.083920
H276	H	0.202647	0.138952	0.417253
F277	F	-0.977949	-1.140948	-0.265283
F278	F	-0.644616	-0.807615	0.068050
F279	F	-0.311282	-0.474281	0.401383
H280	H	-0.843536	-1.124382	-0.262046
H281	H	-0.510202	-0.791049	0.071287
H282	H	-0.176869	-0.457715	0.404621
F283	F	-0.969074	-0.919472	-0.220482
F284	F	-0.635741	-0.586139	0.112852
F285	F	-0.302408	-0.252805	0.446185
