data_functionalizedCrystal
_audit_creation_method	'MofGen! by Chris Wilmer'
_symmetry_space_group_name_H-M	'P1'
_symmetry_Int_Tables_number	1
_symmetry_cell_setting	triclinic
loop_
_symmetry_equiv_pos_as_xyz
  x,y,z
_cell_length_a	11.804673
_cell_length_b	17.699083
_cell_length_c	17.699083
_cell_angle_alpha	83.283015
_cell_angle_beta	76.679533
_cell_angle_gamma	76.697554
loop_
_atom_site_label
_atom_site_type_symbol
_atom_site_fract_x
_atom_site_fract_y
_atom_site_fract_z
O1	O	0.098858	-1.017658	-0.109308
O2	O	0.598858	-0.517658	0.390692
O3	O	0.098897	-0.797285	-0.121765
O4	O	0.598897	-0.297285	0.378235
O5	O	0.098866	-0.913696	-0.005346
O6	O	0.598866	-0.413696	0.494654
O7	O	0.098889	-0.901247	-0.225727
O8	O	0.598889	-0.401247	0.274273
O9	O	-0.099179	-0.886476	0.021896
O10	O	0.400821	-0.386476	0.521896
O11	O	-0.099148	-0.770065	-0.094524
O12	O	0.400852	-0.270065	0.405476
O13	O	-0.099187	-0.990438	-0.082066
O14	O	0.400813	-0.490438	0.417934
Cu15	Cu	-0.117251	-0.877766	-0.085808
Cu16	Cu	0.382749	-0.377766	0.414192
Cu17	Cu	0.116961	-0.909957	-0.118024
Cu18	Cu	0.616961	-0.409957	0.381976
O19	O	-0.099156	-0.874027	-0.198486
O20	O	0.400844	-0.374027	0.301514
C21	C	-0.000120	-0.755479	-0.107699
C22	C	0.499880	-0.255479	0.392301
C23	C	-0.000106	-0.671463	-0.106363
C24	C	0.499894	-0.171463	0.393637
C25	C	-0.000157	-0.899640	0.036472
C26	C	0.499843	-0.399640	0.536472
C27	C	-0.000157	-0.898301	0.120490
C28	C	0.499843	-0.398301	0.620490
N29	N	-0.281982	-0.855130	-0.063148
N30	N	0.218018	-0.355130	0.436852
C31	C	-0.344306	-0.800750	-0.008724
C32	C	0.155694	-0.300750	0.491276
C33	C	-0.468961	-0.783613	0.008421
C34	C	0.031039	-0.283613	0.508421
C35	C	-0.531304	-0.820858	-0.028852
C36	C	-0.031304	-0.320858	0.471148
C37	C	-0.468980	-0.875243	-0.083273
C38	C	0.031020	-0.375243	0.416727
C39	C	-0.344313	-0.892378	-0.100424
C40	C	0.155687	-0.392378	0.399576
C41	C	-0.531310	-0.912486	-0.120552
C42	C	-0.031310	-0.412486	0.379448
C43	C	-0.468986	-0.966871	-0.174973
C44	C	0.031014	-0.466871	0.325027
C45	C	-0.344331	-0.984004	-0.192121
C46	C	0.155669	-0.484004	0.307879
C47	C	-0.281988	-0.946758	-0.154848
C48	C	0.218012	-0.446758	0.345152
C49	C	-0.655977	-0.895351	-0.103401
C50	C	-0.155977	-0.395351	0.396599
C51	C	-0.655984	-0.986979	-0.195102
C52	C	-0.155984	-0.486979	0.304898
C53	C	-0.531329	-1.004117	-0.212246
C54	C	-0.031329	-0.504117	0.287754
N55	N	0.281692	-0.932599	-0.140678
N56	N	0.781692	-0.432599	0.359322
C57	C	-0.000167	-1.032245	-0.096133
C58	C	0.499833	-0.532245	0.403867
C59	C	-0.000174	-1.116262	-0.097470
C60	C	0.499826	-0.616262	0.402530
C61	C	-0.000099	-0.622843	-0.174697
C62	C	0.499901	-0.122843	0.325303
C63	C	-0.000114	-0.543897	-0.173432
C64	C	0.499886	-0.043897	0.326568
C65	C	-0.000128	-0.513575	-0.103834
C66	C	0.499872	-0.013575	0.396166
C67	C	-0.000139	-0.562200	-0.035494
C68	C	0.499861	-0.062200	0.464506
C69	C	-0.000132	-0.641143	-0.036758
C70	C	0.499868	-0.141143	0.463242
C71	C	-0.000169	-0.243833	-0.030395
C72	C	0.499831	0.256167	0.469605
C73	C	-0.000172	-0.164885	-0.029136
C74	C	0.499828	0.335115	0.470864
C75	C	-0.000151	-0.146587	-0.167069
C76	C	0.499849	0.353413	0.332931
C77	C	-0.000144	-0.225530	-0.168333
C78	C	0.499856	0.274470	0.331667
C79	C	-0.000161	-0.274148	-0.099993
C80	C	0.499839	0.225852	0.400007
C81	C	-0.000146	-0.359749	-0.101364
C82	C	0.499854	0.140251	0.398636
C83	C	-0.000134	-0.427976	-0.102463
C84	C	0.499866	0.072024	0.397537
C85	C	-0.000131	-0.888084	-0.240304
C86	C	0.499869	-0.388084	0.259696
C87	C	-0.000123	-0.889423	-0.324323
C88	C	0.499877	-0.389423	0.175677
C89	C	-0.000171	-0.966633	0.169113
C90	C	0.499829	-0.466633	0.669113
C91	C	-0.000160	-0.965372	0.248055
C92	C	0.499840	-0.465372	0.748055
C93	C	-0.000144	-0.895778	0.278374
C94	C	0.499856	-0.395778	0.778374
C95	C	-0.000126	-0.827442	0.229744
C96	C	0.499874	-0.327442	0.729744
C97	C	-0.000129	-0.828704	0.150802
C98	C	0.499871	-0.328704	0.650802
C99	C	-0.000116	-0.822348	0.548106
C100	C	0.499884	-0.322348	1.048106
C101	C	-0.000117	-0.821090	0.627054
C102	C	0.499883	-0.321090	1.127054
C103	C	-0.000147	-0.959016	0.645358
C104	C	0.499853	-0.459016	1.145358
C105	C	-0.000149	-0.960278	0.566417
C106	C	0.499851	-0.460278	1.066417
C107	C	-0.000126	-0.891943	0.517793
C108	C	0.499874	-0.391943	1.017793
C109	C	-0.000135	-0.893312	0.432195
C110	C	0.499865	-0.393312	0.932195
C111	C	-0.000143	-0.894408	0.363971
C112	C	0.499857	-0.394408	0.863971
H113	H	-0.706710	-0.851070	-0.059092
H114	H	-0.206710	-0.351070	0.440908
N115	N	-0.665752	-0.802469	-0.010098
N116	N	-0.165752	-0.302469	0.489902
H117	H	-0.695973	-0.745294	-0.022895
H118	H	-0.195973	-0.245294	0.477105
H119	H	-0.695289	-0.815547	0.047111
H120	H	-0.195289	-0.315547	0.547111
H121	H	-0.706743	-1.017304	-0.225456
H122	H	-0.206743	-0.517304	0.274544
H123	H	-0.519697	-0.739332	0.052730
H124	H	-0.019697	-0.239332	0.552730
N125	N	-0.000176	-1.035339	0.533717
N126	N	0.499824	-0.535339	1.033717
H127	H	-0.000182	-1.078437	0.576499
H128	H	0.499818	-0.578437	1.076499
H129	H	0.073239	-1.048957	0.491259
H130	H	0.573239	-0.548957	0.991259
H131	H	-0.000117	-0.773062	0.111214
H132	H	0.499883	-0.273062	0.611214
H133	H	-0.000097	-0.766705	0.508525
H134	H	0.499903	-0.266705	1.008525
H135	H	-0.000087	-0.647525	-0.231372
H136	H	0.499913	-0.147525	0.268628
H137	H	-0.293536	-0.770427	0.021614
H138	H	0.206464	-0.270427	0.521614
H139	H	-0.000185	-0.140199	0.027543
H140	H	0.499815	0.359801	0.527543
N141	N	-0.000118	-0.752375	0.262439
N142	N	0.499882	-0.252375	0.762439
H143	H	0.073303	-0.732535	0.234598
H144	H	0.573303	-0.232535	0.734598
H145	H	-0.000169	-0.761997	0.319828
H146	H	0.499831	-0.261997	0.819828
N147	N	-0.147535	-0.965250	-0.173336
N148	N	0.352465	-0.465250	0.326664
H149	H	-0.117505	-0.933406	-0.141460
H150	H	0.382495	-0.433406	0.358540
H151	H	-0.117585	-0.952311	-0.230522
H152	H	0.382415	-0.452311	0.269478
H153	H	-0.000107	-0.504314	-0.229077
H154	H	0.499893	-0.004314	0.270923
H155	H	-0.000183	-0.283409	0.025253
H156	H	0.499817	0.216591	0.525253
H157	H	-0.293590	-1.028282	-0.236440
H158	H	0.206410	-0.528282	0.263560
N159	N	-0.464103	-1.062775	-0.270940
N160	N	0.035897	-0.562775	0.229060
H161	H	-0.375674	-1.067977	-0.276145
H162	H	0.124326	-0.567977	0.223855
H163	H	-0.485880	-1.044726	-0.323011
H164	H	0.014120	-0.544726	0.176989
H165	H	-0.000144	-0.106992	-0.222714
H166	H	0.499856	0.393008	0.277286
H167	H	-0.000167	-0.537503	0.021177
H168	H	0.499833	-0.037503	0.521177
N169	N	-0.000148	-0.693586	0.036946
N170	N	0.499852	-0.193586	0.536946
H171	H	-0.000157	-0.662400	0.081229
H172	H	0.499843	-0.162400	0.581229
H173	H	0.073269	-0.736824	0.029331
H174	H	0.573269	-0.236824	0.529331
N175	N	-0.000199	-1.041695	0.136417
N176	N	0.499801	-0.541695	0.636417
H177	H	-0.000205	-1.084791	0.179200
H178	H	0.499795	-0.584791	0.679200
H179	H	0.073215	-1.055315	0.093959
H180	H	0.573215	-0.555315	0.593959
N181	N	-0.000173	-1.032723	0.697802
N182	N	0.499827	-0.532723	1.197802
H183	H	-0.000166	-1.021368	0.752412
H184	H	0.499834	-0.521368	1.252412
H185	H	0.073234	-1.073154	0.677898
H186	H	0.573234	-0.573154	1.177898
H187	H	-0.000174	-1.021014	0.287641
H188	H	0.499826	-0.521014	0.787641
H189	H	-0.000128	-0.250215	-0.225008
H190	H	0.499872	0.249785	0.274992
H191	H	-0.000106	-0.764414	0.651736
H192	H	0.499894	-0.264414	1.151736
