data_functionalizedCrystal
_audit_creation_method	'MofGen! by Chris Wilmer'
_symmetry_space_group_name_H-M	'P1'
_symmetry_Int_Tables_number	1
_symmetry_cell_setting	triclinic
loop_
_symmetry_equiv_pos_as_xyz
  x,y,z
_cell_length_a	19.077105
_cell_length_b	16.625546
_cell_length_c	19.076919
_cell_angle_alpha	87.730083
_cell_angle_beta	89.923776
_cell_angle_gamma	87.718759
loop_
_atom_site_label
_atom_site_type_symbol
_atom_site_fract_x
_atom_site_fract_y
_atom_site_fract_z
Zn1	Zn	1.058283	-0.390077	0.440407
Zn2	Zn	1.558283	0.109923	0.940407
Zn3	Zn	1.062927	-0.519720	0.322896
Zn4	Zn	1.562927	-0.019720	0.822896
Zn5	Zn	0.945500	-0.379275	0.318200
Zn6	Zn	1.445500	0.120725	0.818200
Zn7	Zn	0.940748	-0.519234	0.435649
Zn8	Zn	1.440748	-0.019234	0.935649
O9	O	1.001864	-0.452076	0.379288
O10	O	1.501864	0.047924	0.879288
O11	O	1.157231	-0.411998	0.428775
O12	O	1.657231	0.088002	0.928775
O13	O	1.051282	-0.496773	0.223942
O14	O	1.551282	0.003227	0.723942
O15	O	0.960506	-0.267879	0.334437
O16	O	1.460506	0.232121	0.834437
O17	O	1.160642	-0.507246	0.342441
O18	O	1.660642	-0.007246	0.842441
O19	O	1.043367	-0.275815	0.424222
O20	O	1.543367	0.224185	0.924222
O21	O	0.965009	-0.393589	0.220492
O22	O	1.465009	0.106411	0.720492
O23	O	0.846538	-0.393117	0.329824
O24	O	1.346538	0.106883	0.829824
O25	O	0.952407	-0.506418	0.534611
O26	O	1.452407	-0.006418	1.034611
O27	O	0.843047	-0.495944	0.416113
O28	O	1.343047	0.004056	0.916113
O29	O	1.038759	-0.411527	0.538107
O30	O	1.538759	0.088473	1.038107
O31	O	1.046674	-0.632485	0.337827
O32	O	1.546674	-0.132485	0.837827
O33	O	0.956910	-0.632127	0.420666
O34	O	1.456910	-0.132127	0.920666
C35	C	0.819296	-0.443306	0.371943
C36	C	1.319296	0.056694	0.871943
C37	C	0.741192	-0.439575	0.368817
C38	C	1.241192	0.060425	0.868817
C39	C	0.702702	-0.491432	0.412204
C40	C	1.202702	0.008568	0.912204
C41	C	0.629314	-0.487916	0.409270
C42	C	1.129314	0.012084	0.909270
C43	C	0.594418	-0.432544	0.362946
C44	C	1.094418	0.067456	0.862946
C45	C	0.632913	-0.380681	0.319557
C46	C	1.132913	0.119319	0.819557
C47	C	0.706299	-0.384194	0.322495
C48	C	1.206299	0.115806	0.822495
C49	C	0.375130	-0.416284	0.349354
C50	C	0.875130	0.083716	0.849354
C51	C	0.301739	-0.412776	0.346418
C52	C	0.801739	0.087224	0.846418
C53	C	0.298145	-0.520010	0.436133
C54	C	0.798145	-0.020010	0.936133
C55	C	0.371533	-0.523522	0.439063
C56	C	0.871533	-0.023522	0.939063
C57	C	0.410021	-0.471655	0.395677
C58	C	0.910021	0.028345	0.895677
N59	N	0.519405	-0.428950	0.359945
N60	N	1.019405	0.071050	0.859945
N61	N	0.485034	-0.475247	0.398682
N62	N	0.985034	0.024753	0.898682
C63	C	1.001799	-0.661563	0.379256
C64	C	1.501799	-0.161563	0.879256
C65	C	1.001834	-0.751186	0.379268
C66	C	1.501834	-0.251186	0.879268
C67	C	1.001954	-1.079371	0.379346
C68	C	1.501954	-0.579371	0.879346
C69	C	1.001918	-0.988060	0.379327
C70	C	1.501918	-0.488060	0.879327
C71	C	1.001894	-0.915281	0.379307
C72	C	1.501894	-0.415281	0.879307
C73	C	1.001859	-0.823965	0.379288
C74	C	1.501859	-0.323965	0.879288
C75	C	1.185146	-0.460881	0.386662
C76	C	1.685146	0.039119	0.886662
C77	C	1.263249	-0.464634	0.389805
C78	C	1.763249	0.035366	0.889805
C79	C	0.994535	-0.460123	0.562568
C80	C	1.494535	0.039877	1.062568
C81	C	0.991412	-0.463552	0.640671
C82	C	1.491412	0.036448	1.140671
C83	C	1.001948	-0.241774	0.379336
C84	C	1.501948	0.258226	0.879336
C85	C	1.001984	-0.152155	0.379357
C86	C	1.501984	0.347845	0.879357
C87	C	1.009205	-0.444005	0.196723
C88	C	1.509205	0.055995	0.696723
C89	C	1.012465	-0.440356	0.118626
C90	C	1.512465	0.059644	0.618626
C91	C	1.034901	-0.415760	0.679185
C92	C	1.534901	0.084240	1.179185
C93	C	1.031958	-0.418978	0.752571
C94	C	1.531958	0.081022	1.252571
C95	C	0.985529	-0.469993	0.787441
C96	C	1.485529	0.030007	1.287441
C97	C	0.942035	-0.517786	0.748922
C98	C	1.442035	-0.017786	1.248922
C99	C	0.944975	-0.514563	0.675537
C100	C	1.444975	-0.014563	1.175537
C101	C	0.971911	-0.484926	1.006722
C102	C	1.471911	0.015074	1.506722
C103	C	0.968976	-0.488147	1.080112
C104	C	1.468976	0.011853	1.580112
C105	C	1.058898	-0.389338	1.083755
C106	C	1.558898	0.110662	1.583755
C107	C	1.061837	-0.386123	1.010369
C108	C	1.561837	0.113877	1.510369
C109	C	1.018341	-0.433913	0.971856
C110	C	1.518341	0.066087	1.471856
N111	N	0.982521	-0.473286	0.862453
N112	N	1.482521	0.026714	1.362453
N113	N	1.021346	-0.430616	0.896846
N114	N	1.521346	0.069384	1.396846
H115	H	0.406459	-0.374056	0.314021
H116	H	0.906459	0.125944	0.814021
C117	C	0.256482	-0.576403	0.483277
C118	C	0.756482	-0.076403	0.983277
C119	C	0.302750	-0.625655	0.524465
C120	C	0.802750	-0.125655	1.024465
C121	C	0.264397	-0.677619	0.567902
C122	C	0.764397	-0.177619	1.067902
H123	H	0.226641	-0.545676	0.512857
H124	H	0.726641	-0.045676	1.012857
H125	H	0.228927	-0.608982	0.455218
H126	H	0.728927	-0.108982	0.955218
H127	H	0.330294	-0.593080	0.552521
H128	H	0.830294	-0.093080	1.052521
H129	H	0.332592	-0.656399	0.494904
H130	H	0.832592	-0.156399	0.994904
H131	H	0.236841	-0.710198	0.539844
H132	H	0.736841	-0.210198	1.039844
H133	H	0.234557	-0.646886	0.597478
H134	H	0.734557	-0.146886	1.097478
H135	H	0.295784	-0.711048	0.595849
H136	H	0.795784	-0.211048	1.095849
C137	C	0.594901	-0.320641	0.269287
C138	C	1.094901	0.179359	0.769287
C139	C	0.522394	-0.328676	0.275986
C140	C	1.022394	0.171324	0.775986
C141	C	0.487357	-0.273387	0.229681
C142	C	0.987357	0.226613	0.729681
H143	H	0.606448	-0.267478	0.280093
H144	H	1.106448	0.232522	0.780093
H145	H	0.608763	-0.330860	0.222518
H146	H	1.108763	0.169140	0.722518
H147	H	0.508538	-0.318451	0.322744
H148	H	1.008538	0.181549	0.822744
H149	H	0.510826	-0.381826	0.265174
H150	H	1.010826	0.118174	0.765174
H151	H	0.501219	-0.283606	0.182913
H152	H	1.001219	0.216394	0.682913
H153	H	0.498910	-0.220228	0.240491
H154	H	0.998910	0.279772	0.740491
H155	H	0.438158	-0.278836	0.234216
H156	H	0.938158	0.221164	0.734216
H157	H	0.597979	-0.530145	0.444600
H158	H	1.097979	-0.030145	0.944600
H159	H	0.273329	-0.367677	0.308699
H160	H	0.773329	0.132323	0.808699
H161	H	0.737637	-0.341962	0.287168
H162	H	1.237637	0.158038	0.787168
C163	C	1.079205	-0.367223	0.794483
C164	C	1.579205	0.132777	1.294483
C165	C	1.122521	-0.416883	0.838439
C166	C	1.622521	0.083117	1.338439
C167	C	1.166043	-0.369228	0.877068
C168	C	1.666043	0.130772	1.377068
H169	H	1.107344	-0.336365	0.763294
H170	H	1.607344	0.163635	1.263294
H171	H	1.051201	-0.332075	0.822071
H172	H	1.551201	0.167925	1.322071
H173	H	1.150521	-0.452017	0.810854
H174	H	1.650521	0.047983	1.310854
H175	H	1.094400	-0.447741	0.869642
H176	H	1.594400	0.052259	1.369642
H177	H	1.138040	-0.334080	0.904656
H178	H	1.638040	0.165920	1.404656
H179	H	1.194178	-0.338372	0.845873
H180	H	1.694178	0.161628	1.345873
H181	H	1.195434	-0.402915	0.906901
H182	H	1.695434	0.097085	1.406901
C183	C	0.891740	-0.573280	0.786822
C184	C	1.391740	-0.073280	1.286822
C185	C	0.929819	-0.628736	0.830528
C186	C	1.429819	-0.128736	1.330528
C187	C	0.883513	-0.679878	0.865443
C188	C	1.383513	-0.179878	1.365443
H189	H	0.859973	-0.542319	0.814280
H190	H	1.359973	-0.042319	1.314280
H191	H	0.866270	-0.601330	0.753395
H192	H	1.366270	-0.101330	1.253395
H193	H	0.955277	-0.600689	0.863950
H194	H	1.455277	-0.100689	1.363950
H195	H	0.961583	-0.659715	0.803086
H196	H	1.461583	-0.159715	1.303086
H197	H	0.858043	-0.707928	0.832017
H198	H	1.358043	-0.207928	1.332017
H199	H	0.851749	-0.648910	0.892898
H200	H	1.351749	-0.148910	1.392898
H201	H	0.909343	-0.717515	0.895097
H202	H	1.409343	-0.217515	1.395097
C203	C	1.085200	-0.360312	0.641236
C204	C	1.585200	0.139688	1.141236
C205	C	1.047120	-0.304885	0.597503
C206	C	1.547120	0.195115	1.097503
C207	C	1.093431	-0.253795	0.562530
C208	C	1.593431	0.246205	1.062530
H209	H	1.110695	-0.332229	0.674608
H210	H	1.610695	0.167771	1.174608
H211	H	1.116944	-0.391340	0.613794
H212	H	1.616944	0.108660	1.113794
H213	H	1.015388	-0.273860	0.624944
H214	H	1.515388	0.226140	1.124944
H215	H	1.021627	-0.332944	0.564118
H216	H	1.521627	0.167056	1.064118
H217	H	1.125175	-0.284824	0.535087
H218	H	1.625175	0.215176	1.035087
H219	H	1.118924	-0.225719	0.595906
H220	H	1.618924	0.274281	1.095906
H221	H	1.067601	-0.216187	0.532848
H222	H	1.567601	0.283813	1.032848
C223	C	1.105996	-0.337343	1.125602
C224	C	1.605996	0.162657	1.625602
C225	C	1.064541	-0.285589	1.166126
C226	C	1.564541	0.214411	1.666126
C227	C	1.107902	-0.237667	1.204676
C228	C	1.607902	0.262333	1.704676
H229	H	1.135467	-0.370820	1.155515
H230	H	1.635467	0.129180	1.655515
H231	H	1.134054	-0.306452	1.094345
H232	H	1.634054	0.193548	1.594345
H233	H	1.036495	-0.316477	1.197379
H234	H	1.536495	0.183523	1.697379
H235	H	1.035071	-0.252095	1.136231
H236	H	1.535071	0.247905	1.636231
H237	H	1.135960	-0.206776	1.173419
H238	H	1.635960	0.293224	1.673419
H239	H	1.137371	-0.271151	1.234585
H240	H	1.637371	0.228849	1.734585
H241	H	1.079781	-0.202541	1.232171
H242	H	1.579781	0.297459	1.732171
C243	C	0.740455	-0.551579	0.462573
C244	C	1.240455	-0.051579	0.962573
C245	C	0.691036	-0.596224	0.499955
C246	C	1.191036	-0.096224	0.999955
C247	C	0.725786	-0.651630	0.546371
C248	C	1.225786	-0.151630	1.046371
H249	H	0.770145	-0.586927	0.436864
H250	H	1.270145	-0.086927	0.936864
H251	H	0.767855	-0.523524	0.494421
H252	H	1.267855	-0.023524	0.994421
H253	H	0.663648	-0.624277	0.468111
H254	H	1.163648	-0.124277	0.968111
H255	H	0.661344	-0.560898	0.525678
H256	H	1.161344	-0.060898	1.025678
H257	H	0.753185	-0.623575	0.578220
H258	H	1.253185	-0.123575	1.078220
H259	H	0.755474	-0.686972	0.520657
H260	H	1.255474	-0.186972	1.020657
H261	H	0.692260	-0.681923	0.571745
H262	H	1.192260	-0.181923	1.071745
C263	C	0.409501	-0.583511	0.489411
C264	C	0.909501	-0.083511	0.989411
C265	C	0.449862	-0.541933	0.536197
C266	C	0.949862	-0.041933	1.036197
C267	C	0.484854	-0.597169	0.582582
C268	C	0.984854	-0.097169	1.082582
H269	H	0.376142	-0.613914	0.514902
H270	H	0.876142	-0.113914	1.014902
H271	H	0.439232	-0.618775	0.463647
H272	H	0.939232	-0.118775	0.963647
H273	H	0.420135	-0.506682	0.561958
H274	H	0.920135	-0.006682	1.061958
H275	H	0.483234	-0.511533	0.510726
H276	H	0.983234	-0.011533	1.010726
H277	H	0.514584	-0.632434	0.556817
H278	H	1.014584	-0.132434	1.056817
H279	H	0.451489	-0.627570	0.608067
H280	H	0.951489	-0.127570	1.108067
H281	H	0.512248	-0.568967	0.614327
H282	H	1.012248	-0.068967	1.114327
H283	H	1.099647	-0.344584	0.981983
H284	H	1.599647	0.155416	1.481983
H285	H	0.909554	-0.553472	0.644180
H286	H	1.409554	-0.053472	1.144180
C287	C	0.918490	-0.543558	1.117843
C288	C	1.418490	-0.043558	1.617843
C289	C	0.881013	-0.584705	1.068409
C290	C	1.381013	-0.084705	1.568409
C291	C	0.834498	-0.635747	1.103141
C292	C	1.334498	-0.135747	1.603141
H293	H	0.944132	-0.581306	1.147542
H294	H	1.444132	-0.081306	1.647542
H295	H	0.886706	-0.512514	1.145230
H296	H	1.386706	-0.012514	1.645230
H297	H	0.912793	-0.615747	1.041033
H298	H	1.412793	-0.115747	1.541033
H299	H	0.855357	-0.546978	1.038707
H300	H	1.355357	-0.046978	1.538707
H301	H	0.802714	-0.604703	1.130528
H302	H	1.302714	-0.104703	1.630528
H303	H	0.860146	-0.673490	1.132839
H304	H	1.360146	-0.173490	1.632839
H305	H	0.809060	-0.663666	1.069605
H306	H	1.309060	-0.163666	1.569605
H307	H	0.936503	-0.523853	0.975374
H308	H	1.436503	-0.023853	1.475374
