data_functionalizedCrystal
_audit_creation_method	'MofGen! by Chris Wilmer'
_symmetry_space_group_name_H-M	'P1'
_symmetry_Int_Tables_number	1
_symmetry_cell_setting	triclinic
loop_
_symmetry_equiv_pos_as_xyz
  x,y,z
_cell_length_a	21.395362
_cell_length_b	18.050589
_cell_length_c	18.050582
_cell_angle_alpha	89.981795
_cell_angle_beta	89.965696
_cell_angle_gamma	90.044101
loop_
_atom_site_label
_atom_site_type_symbol
_atom_site_fract_x
_atom_site_fract_y
_atom_site_fract_z
Zn1	Zn	0.957811	-0.295392	-0.420319
Zn2	Zn	0.957735	-0.419575	-0.296139
Zn3	Zn	0.853043	-0.295438	-0.296101
Zn4	Zn	0.852999	-0.419579	-0.420245
O5	O	0.905397	-0.357496	-0.358201
O6	O	1.045479	-0.311844	-0.403893
O7	O	0.943835	-0.403126	-0.192209
O8	O	0.866991	-0.191507	-0.312594
O9	O	1.045423	-0.403081	-0.312658
O10	O	0.943963	-0.191473	-0.403857
O11	O	0.866918	-0.311923	-0.192182
O12	O	0.765360	-0.311926	-0.312523
O13	O	0.866916	-0.403088	-0.524180
O14	O	0.765327	-0.403132	-0.403731
O15	O	0.943920	-0.311848	-0.524234
O16	O	0.943792	-0.523500	-0.312586
O17	O	0.866843	-0.523503	-0.403767
C18	C	0.742610	-0.357535	-0.358115
C19	C	0.672968	-0.357570	-0.358096
C20	C	0.640255	-0.405124	-0.405517
C21	C	0.574819	-0.405106	-0.405550
C22	C	0.542100	-0.357541	-0.358149
C23	C	0.574821	-0.309978	-0.310724
C24	C	0.640255	-0.309993	-0.310698
C25	C	0.438384	-0.351565	-0.291291
C26	C	0.372952	-0.351556	-0.291316
C27	C	0.340279	-0.357493	-0.358231
C28	C	0.373048	-0.363455	-0.425122
C29	C	0.438482	-0.363469	-0.425095
C30	C	0.471148	-0.357520	-0.358172
C31	C	0.236613	-0.405030	-0.405691
C32	C	0.171177	-0.405006	-0.405726
C33	C	0.171180	-0.309883	-0.310894
C34	C	0.236615	-0.309902	-0.310866
C35	C	0.269328	-0.357480	-0.358264
C36	C	0.905322	-0.550448	-0.358189
C37	C	0.905347	-0.632994	-0.358208
C38	C	0.863543	-0.832473	-0.407775
C39	C	0.848274	-0.881912	-0.340001
C40	C	0.905408	-0.784124	-0.358218
C41	C	0.920707	-0.881767	-0.425999
C42	C	0.905466	-0.930109	-0.358233
C43	C	0.890109	-0.832476	-0.290409
C44	C	0.962569	-0.832327	-0.376452
C45	C	0.947322	-0.881743	-0.308632
C46	C	0.905373	-0.700026	-0.358210
C47	C	0.905502	-1.014206	-0.358234
C48	C	1.068821	-0.357457	-0.358288
C49	C	1.138462	-0.357441	-0.358325
C50	C	0.905422	-0.357463	-0.551907
C51	C	0.905432	-0.357449	-0.634453
C52	C	0.905490	-0.163790	-0.358230
C53	C	0.905530	-0.081245	-0.358242
C54	C	0.863589	-0.406997	-0.833874
C55	C	0.920752	-0.425132	-0.883289
C56	C	0.905463	-0.357392	-0.785583
C57	C	0.848332	-0.339237	-0.883249
C58	C	0.905488	-0.357339	-0.931568
C59	C	0.962656	-0.375563	-0.833911
C60	C	0.890197	-0.289636	-0.833867
C61	C	0.947399	-0.307745	-0.883260
C62	C	0.905448	-0.357425	-0.701485
C63	C	0.905509	-0.357306	-1.015665
C64	C	0.905409	-0.357475	-0.165249
C65	C	0.905520	-0.357280	-0.082704
H66	H	0.346276	-0.346706	-0.236849
H67	H	0.933624	-0.903419	-0.483315
C68	C	0.815797	-0.463737	-0.804571
C69	C	0.746243	-0.456257	-0.825128
C70	C	0.698454	-0.512998	-0.795824
C71	C	0.720219	-0.577218	-0.745961
C72	C	0.789777	-0.584701	-0.725401
C73	C	0.837565	-0.527960	-0.754705
H74	H	0.730128	-0.408715	-0.862042
H75	H	0.646963	-0.507458	-0.811044
H76	H	0.684844	-0.619221	-0.724268
H77	H	0.805892	-0.632243	-0.688487
H78	H	0.889056	-0.533500	-0.739485
C79	C	0.337120	-0.369984	-0.498737
C80	C	0.346100	-0.438626	-0.548240
C81	C	0.310170	-0.445157	-0.621853
C82	C	0.265262	-0.383046	-0.645963
C83	C	0.256281	-0.314400	-0.596459
C84	C	0.292210	-0.307868	-0.522846
H85	H	0.379346	-0.484608	-0.530393
H86	H	0.316819	-0.495974	-0.658498
H87	H	0.238665	-0.387881	-0.700455
H88	H	0.223035	-0.268417	-0.614306
H89	H	0.285561	-0.257051	-0.486201
C90	C	1.027820	-0.802877	-0.397309
C91	C	1.064355	-0.754050	-0.342378
C92	C	1.129607	-0.724599	-0.363244
C93	C	1.158323	-0.743976	-0.439042
C94	C	1.121788	-0.792806	-0.493978
C95	C	1.056537	-0.822257	-0.473111
H96	H	1.043098	-0.739703	-0.286264
H97	H	1.156652	-0.688452	-0.322577
H98	H	1.206626	-0.722175	-0.454488
H99	H	1.143046	-0.807153	-0.550092
H100	H	1.029491	-0.858404	-0.513779
H101	H	0.263249	-0.443766	-0.444289
H102	H	0.877253	-0.232375	-0.812142
C103	C	0.538833	-0.257656	-0.258583
C104	C	0.574821	-0.205343	-0.206420
C105	C	0.538834	-0.153015	-0.154281
C106	C	0.466859	-0.152998	-0.154305
C107	C	0.430867	-0.205313	-0.206471
C108	C	0.466854	-0.257641	-0.258610
H109	H	0.628105	-0.205354	-0.206400
H110	H	0.565478	-0.114288	-0.115664
H111	H	0.440219	-0.114262	-0.115709
H112	H	0.377583	-0.205302	-0.206491
H113	H	0.440210	-0.296368	-0.297226
C114	C	0.474320	-0.345037	-0.217678
C115	C	0.546295	-0.345053	-0.217646
C116	C	0.582230	-0.338525	-0.144037
C117	C	0.546191	-0.331981	-0.070460
C118	C	0.474212	-0.331965	-0.070490
C119	C	0.438276	-0.338493	-0.144099
H120	H	0.572978	-0.349898	-0.272114
H121	H	0.635514	-0.338538	-0.144015
H122	H	0.572792	-0.327149	-0.015970
H123	H	0.447529	-0.327120	-0.016022
H124	H	0.384993	-0.338480	-0.144121
H125	H	0.548179	-0.443829	-0.444168
H126	H	0.877136	-0.810914	-0.233077
H127	H	0.982752	-0.903241	-0.266681
C128	C	0.815648	-0.803236	-0.464309
C129	C	0.776179	-0.858022	-0.510003
C130	C	0.728283	-0.828783	-0.566533
C131	C	0.719856	-0.744759	-0.577368
C132	C	0.759325	-0.689968	-0.531673
C133	C	0.807221	-0.719207	-0.475144
H134	H	0.782417	-0.920226	-0.501984
H135	H	0.699066	-0.869343	-0.600359
H136	H	0.684400	-0.723115	-0.619215
H137	H	0.753087	-0.627763	-0.539693
H138	H	0.836439	-0.678646	-0.441317
H139	H	0.933680	-0.482410	-0.904998
H140	H	1.010996	-0.390961	-0.812330
C141	C	0.135189	-0.457321	-0.457891
C142	C	0.063214	-0.457304	-0.457926
C143	C	0.027225	-0.509620	-0.510091
C144	C	0.063212	-0.561953	-0.562221
C145	C	0.135191	-0.561971	-0.562188
C146	C	0.171179	-0.509655	-0.510023
H147	H	0.036571	-0.418563	-0.419335
H148	H	-0.026059	-0.509607	-0.510116
H149	H	0.036571	-0.600681	-0.600837
H150	H	0.161834	-0.600713	-0.600779
H151	H	0.224463	-0.509669	-0.509998
C152	C	0.995305	-0.251050	-0.912389
C153	C	1.064975	-0.259413	-0.892748
C154	C	1.112882	-0.202727	-0.921883
C155	C	1.091119	-0.137677	-0.970660
C156	C	1.021445	-0.129311	-0.990303
C157	C	0.973538	-0.185998	-0.961168
H158	H	1.081088	-0.307570	-0.856638
H159	H	1.164460	-0.208920	-0.907342
H160	H	1.126583	-0.095714	-0.992228
H161	H	1.005332	-0.081154	-1.026413
H162	H	0.921961	-0.179804	-0.975709
C163	C	0.783007	-0.911340	-0.319167
C164	C	0.726103	-0.891931	-0.367612
C165	C	0.660835	-0.921356	-0.346784
C166	C	0.652470	-0.970191	-0.277511
C167	C	0.709376	-0.989603	-0.229062
C168	C	0.774644	-0.960177	-0.249890
H169	H	0.732294	-0.855778	-0.418896
H170	H	0.618710	-0.906986	-0.382650
H171	H	0.604155	-0.991973	-0.262093
H172	H	0.703185	-1.025755	-0.177778
H173	H	0.816769	-0.974547	-0.214024
C174	C	0.783049	-0.318513	-0.912526
C175	C	0.729568	-0.302279	-0.857770
C176	C	0.664284	-0.281561	-0.887044
C177	C	0.652481	-0.277078	-0.971074
C178	C	0.705963	-0.293312	-1.025836
C179	C	0.771247	-0.314030	-0.996562
H180	H	0.738304	-0.305597	-0.795562
H181	H	0.624693	-0.269543	-0.846506
H182	H	0.604154	-0.261741	-0.992745
H183	H	0.697227	-0.289994	-1.088044
H184	H	0.810838	-0.326048	-1.037100
H185	H	0.465160	-0.368321	-0.479561
C186	C	0.676236	-0.457451	-0.457661
C187	C	0.667164	-0.541866	-0.451463
C188	C	0.703146	-0.594192	-0.503610
C189	C	0.748199	-0.562103	-0.561956
C190	C	0.757273	-0.477683	-0.568157
C191	C	0.721291	-0.425358	-0.516009
H192	H	0.633811	-0.565625	-0.408270
H193	H	0.696428	-0.656685	-0.499020
H194	H	0.774835	-0.600838	-0.600558
H195	H	0.790626	-0.453925	-0.611350
H196	H	0.728009	-0.362865	-0.520600
H197	H	0.263251	-0.271182	-0.272247
C198	C	0.135197	-0.257559	-0.258752
C199	C	0.063222	-0.257539	-0.258779
C200	C	0.027235	-0.205210	-0.206639
C201	C	0.063224	-0.152902	-0.154472
C202	C	0.135203	-0.152921	-0.154443
C203	C	0.171189	-0.205249	-0.206583
H204	H	0.036577	-0.296262	-0.297399
H205	H	-0.026048	-0.205197	-0.206661
H206	H	0.036585	-0.114166	-0.115875
H207	H	0.161847	-0.114198	-0.115824
H208	H	0.224473	-0.205262	-0.206561
H209	H	0.666890	-0.271266	-0.272082
