data_functionalizedCrystal
_audit_creation_method	'MofGen! by Chris Wilmer'
_symmetry_space_group_name_H-M	'P1'
_symmetry_Int_Tables_number	1
_symmetry_cell_setting	triclinic
loop_
_symmetry_equiv_pos_as_xyz
  x,y,z
_cell_length_a	10.489741
_cell_length_b	19.188930
_cell_length_c	9.565339
_cell_angle_alpha	89.995116
_cell_angle_beta	89.999100
_cell_angle_gamma	83.841978
loop_
_atom_site_label
_atom_site_type_symbol
_atom_site_fract_x
_atom_site_fract_y
_atom_site_fract_z
O1	O	1.691850	0.098497	-0.116191
O2	O	1.320448	0.107743	-0.116215
O3	O	1.516867	0.001537	-0.116175
O4	O	1.495431	0.204704	-0.116231
O5	O	1.516852	0.001543	0.116345
O6	O	1.320432	0.107750	0.116305
O7	O	1.691835	0.098504	0.116329
Zn8	Zn	1.506131	0.103128	0.153235
Zn9	Zn	1.506152	0.103119	-0.153121
O10	O	1.495416	0.204711	0.116289
C11	C	1.272924	0.107048	0.000043
C12	C	1.131341	0.104959	0.000035
C13	C	1.516165	-0.024476	0.000089
C14	C	1.514081	-0.101994	0.000101
C15	C	1.064712	0.037383	0.000067
C16	C	0.971879	0.069302	-0.114584
C17	C	0.971898	0.069325	0.114663
C18	C	1.040373	0.136906	-0.114710
C19	C	1.040401	0.136919	0.114640
C20	C	0.947595	0.168887	-0.000039
C21	C	1.629334	-0.146146	0.000115
C22	C	1.627376	-0.218983	0.000092
C23	C	1.510159	-0.247665	0.000084
C24	C	1.394892	-0.203503	0.000062
C25	C	1.396853	-0.130668	0.000071
N26	N	1.420556	-0.356268	0.079209
N27	N	1.418701	-0.425459	0.079204
C28	C	1.504244	-0.467113	0.000055
N29	N	1.591732	-0.436964	-0.079071
N30	N	1.593590	-0.367767	-0.079059
C31	C	1.508020	-0.326642	0.000074
C32	C	1.617382	-0.590244	0.000043
C33	C	1.615419	-0.663081	0.000012
C34	C	1.382932	-0.647600	-0.000004
C35	C	1.384898	-0.574764	0.000013
C36	C	1.502126	-0.546090	0.000043
C37	C	1.739359	0.099199	0.000068
C38	C	1.880941	0.101288	0.000067
C39	C	1.496118	0.230723	0.000022
C40	C	1.498202	0.308242	0.000001
N41	N	1.506127	0.103134	0.362314
N42	N	1.506166	0.103108	-0.362200
C43	C	1.415262	0.152234	0.453499
C44	C	1.530443	0.166361	0.546681
C45	C	1.390995	0.089012	0.546688
C46	C	1.621366	0.117292	0.453444
C47	C	1.481842	0.039916	0.453443
C48	C	1.597107	0.054016	0.546583
H49	H	1.115644	-0.018169	-0.000061
N50	N	1.313580	0.207288	0.399352
H51	H	1.313738	0.206612	0.293771
H52	H	1.226812	0.197093	0.434828
H53	H	0.941511	0.040706	-0.211499
H54	H	1.070569	0.165474	-0.211748
H55	H	1.551011	0.219812	0.587634
H56	H	0.896927	0.224498	-0.000117
N57	N	1.272541	-0.083042	0.000055
H58	H	1.197984	-0.112260	0.000041
H59	H	1.268284	-0.052492	0.086259
N60	N	1.080632	0.174786	0.243013
H61	H	1.056005	0.149225	0.329581
H62	H	1.176560	0.176324	0.241469
H63	H	0.941553	0.040722	0.211592
H64	H	1.718768	0.129289	0.412658
H65	H	1.712836	-0.566896	0.000061
H66	H	1.299453	-0.226861	0.000052
N67	N	1.454564	-0.030866	0.399149
H68	H	1.367513	-0.041481	0.433008
H69	H	1.455661	-0.030414	0.293576
N70	N	1.699013	-0.001004	0.600395
H71	H	1.785907	0.009746	0.566292
H72	H	1.697864	-0.000962	0.705973
N73	N	1.739733	-0.710707	0.000021
H74	H	1.814288	-0.681487	0.000046
H75	H	1.743966	-0.741270	0.086214
N76	N	1.262012	0.073202	0.600956
H77	H	1.193433	0.110335	0.567098
H78	H	1.243058	0.025807	0.565577
H79	H	1.724790	-0.122805	0.000135
N80	N	1.751688	-0.266616	0.000104
H81	H	1.826247	-0.237399	0.000122
H82	H	1.755919	-0.297177	0.086302
H83	H	1.287492	-0.670952	-0.000018
N84	N	1.260582	-0.527143	0.000021
H85	H	1.256211	-0.496585	0.086220
H86	H	1.256289	-0.496617	-0.086227
