data_functionalizedCrystal
_audit_creation_method	'MofGen! by Chris Wilmer'
_symmetry_space_group_name_H-M	'P1'
_symmetry_Int_Tables_number	1
_symmetry_cell_setting	triclinic
loop_
_symmetry_equiv_pos_as_xyz
  x,y,z
_cell_length_a	18.266242
_cell_length_b	11.026607
_cell_length_c	10.967829
_cell_angle_alpha	83.619437
_cell_angle_beta	77.864002
_cell_angle_gamma	89.999774
loop_
_atom_site_label
_atom_site_type_symbol
_atom_site_fract_x
_atom_site_fract_y
_atom_site_fract_z
O1	O	-0.126929	-1.614515	0.523526
O2	O	0.373071	-1.114515	1.023526
O3	O	-0.119409	-1.260713	0.463913
O4	O	0.380591	-0.760713	0.963913
O5	O	-0.100480	-1.445775	0.313900
O6	O	0.399520	-0.945775	0.813900
O7	O	-0.145858	-1.429453	0.673540
O8	O	0.354142	-0.929453	1.173540
O9	O	0.021285	-1.445772	0.313880
O10	O	0.521285	-0.945772	0.813880
O11	O	0.002356	-1.260710	0.463893
O12	O	0.502356	-0.760710	0.963893
O13	O	-0.005164	-1.614512	0.523506
O14	O	0.494836	-1.114512	1.023506
Zn15	Zn	0.017929	-1.437610	0.493696
Zn16	Zn	0.517929	-0.937610	0.993696
Zn17	Zn	-0.142501	-1.437615	0.493723
Zn18	Zn	0.357499	-0.937615	0.993723
O19	O	-0.024093	-1.429450	0.673520
O20	O	0.475907	-0.929450	1.173520
C21	C	-0.057139	-1.215409	0.452906
C22	C	0.442861	-0.715409	0.952906
C23	C	-0.053004	-1.080422	0.420121
C24	C	0.446996	-0.580422	0.920121
N25	N	-0.251990	-1.437618	0.493732
N26	N	0.248010	-0.937618	0.993732
C27	C	-0.033699	-1.444586	0.267132
C28	C	0.466301	-0.944586	0.767132
C29	C	-0.016124	-1.441032	0.127807
C30	C	0.483876	-0.941032	0.627807
C31	C	-0.825907	-1.519726	0.427479
C32	C	-0.325907	-1.019726	0.927479
C33	C	-0.749261	-1.519723	0.427476
C34	C	-0.249261	-1.019723	0.927476
C35	C	-0.719298	-1.437622	0.493698
C36	C	-0.219298	-0.937622	0.993698
C37	C	-0.765983	-1.355496	0.559901
C38	C	-0.265983	-0.855496	1.059901
C39	C	-0.842625	-1.355493	0.559892
C40	C	-0.342625	-0.855493	1.059892
N41	N	-0.612484	-1.422846	0.600795
N42	N	-0.112484	-0.922846	1.100795
N43	N	-0.539677	-1.422856	0.600801
N44	N	-0.039677	-0.922856	1.100801
C45	C	-0.488379	-1.437623	0.493728
C46	C	0.011621	-0.937623	0.993728
N47	N	-0.512640	-1.452404	0.386649
N48	N	-0.012640	-0.952404	0.886649
N49	N	-0.585454	-1.452400	0.386645
N50	N	-0.085454	-0.952400	0.886645
C51	C	-0.636193	-1.437615	0.493715
C52	C	-0.136193	-0.937615	0.993715
C53	C	-0.358595	-1.519734	0.427518
C54	C	0.141405	-1.019734	0.927518
C55	C	-0.281948	-1.519722	0.427512
C56	C	0.218052	-1.019722	0.927512
C57	C	-0.298673	-1.355501	0.559948
C58	C	0.201327	-0.855501	1.059948
C59	C	-0.375317	-1.355507	0.559943
C60	C	0.124683	-0.855507	1.059943
C61	C	-0.405274	-1.437630	0.493731
C62	C	0.094726	-0.937630	0.993731
N63	N	0.127418	-1.437616	0.493679
N64	N	0.627418	-0.937616	0.993679
C65	C	-0.067435	-1.659816	0.534514
C66	C	0.432565	-1.159816	1.034514
C67	C	-0.071576	-1.794803	0.567298
C68	C	0.428424	-1.294803	1.067298
C69	C	-0.064426	-1.007370	0.510644
C70	C	0.435574	-0.507370	1.010644
C71	C	-0.060152	-0.867854	0.476762
C72	C	0.439848	-0.367854	0.976762
C73	C	-0.071367	-1.439449	0.065708
C74	C	0.428633	-0.939449	0.565708
C75	C	-0.053204	-1.435776	-0.078292
C76	C	0.446796	-0.935776	0.421708
C77	C	-0.090875	-1.430640	0.720287
C78	C	0.409125	-0.930640	1.220287
C79	C	-0.108455	-1.434193	0.859612
C80	C	0.391545	-0.934193	1.359612
H81	H	-0.850295	-1.586592	0.373562
H82	H	-0.350295	-1.086592	0.873562
H83	H	-0.243942	-1.586582	0.373596
H84	H	0.256058	-1.086582	0.873596
N85	N	-0.188924	-1.436008	-0.069625
N86	N	0.311076	-0.936008	0.430375
H87	H	-0.214239	-1.360196	-0.099122
H88	H	0.285761	-0.860196	0.400878
H89	H	-0.190434	-1.438423	0.023194
H90	H	0.309566	-0.938423	0.523194
N91	N	-0.035864	-1.026462	0.284235
N92	N	0.464136	-0.526462	0.784235
H93	H	-0.028829	-1.094381	0.228479
H94	H	0.471171	-0.594381	0.728479
H95	H	0.011488	-0.974414	0.266693
H96	H	0.511488	-0.474414	0.766693
H97	H	0.007542	-1.434404	-0.131730
H98	H	0.507542	-0.934404	0.368270
N99	N	-0.698905	-1.608284	0.356069
N100	N	-0.198905	-1.108284	0.856069
H101	H	-0.729513	-1.660305	0.314121
H102	H	-0.229513	-1.160305	0.814121
H103	H	-0.674692	-1.662319	0.416143
H104	H	-0.174692	-1.162319	0.916143
H105	H	0.044618	-1.439660	0.074364
H106	H	0.544618	-0.939660	0.574364
H107	H	-0.880630	-1.288628	0.613800
H108	H	-0.380630	-0.788628	1.113800
N109	N	-0.733670	-1.266936	0.631318
N110	N	-0.233670	-0.766936	1.131318
H111	H	-0.678034	-1.279398	0.621282
H112	H	-0.178034	-0.779398	1.121282
H113	H	-0.758667	-1.281538	0.723179
H114	H	-0.258667	-0.781538	1.223179
N115	N	-0.390913	-1.608300	0.356105
N116	N	0.109087	-1.108300	0.856105
H117	H	-0.349710	-1.660311	0.314157
H118	H	0.150290	-1.160311	0.814157
H119	H	-0.414403	-1.561414	0.290273
H120	H	0.085597	-1.061414	0.790273
H121	H	-0.077365	-1.048115	0.613227
H122	H	0.422635	-0.548115	1.113227
H123	H	-0.274276	-1.288648	0.613861
H124	H	0.225724	-0.788648	1.113861
H125	H	-0.047226	-0.827114	0.374172
H126	H	0.452774	-0.327114	0.874172
N127	N	-0.425666	-1.266944	0.631344
N128	N	0.074334	-0.766944	1.131344
H129	H	-0.395056	-1.214929	0.673294
H130	H	0.104944	-0.714929	1.173294
H131	H	-0.465780	-1.313825	0.697173
H132	H	0.034220	-0.813825	1.197173
N133	N	-0.088715	-0.848750	0.703194
N134	N	0.411285	-0.348750	1.203194
H135	H	-0.089338	-0.940768	0.708139
H136	H	0.410662	-0.440768	1.208139
H137	H	-0.139277	-0.820727	0.746175
H138	H	0.360723	-0.320727	1.246175
N139	N	-0.151828	-1.441099	0.136468
N140	N	0.348172	-0.941099	0.636468
H141	H	-0.153397	-1.443416	0.229300
H142	H	0.346603	-0.943416	0.729300
H143	H	-0.178879	-1.515707	0.120502
H144	H	0.321121	-1.015707	0.620502
