data_functionalizedCrystal
_audit_creation_method	'MofGen! by Chris Wilmer'
_symmetry_space_group_name_H-M	'P1'
_symmetry_Int_Tables_number	1
_symmetry_cell_setting	triclinic
loop_
_symmetry_equiv_pos_as_xyz
  x,y,z
_cell_length_a	17.699077
_cell_length_b	17.699083
_cell_length_c	15.186229
_cell_angle_alpha	90.001174
_cell_angle_beta	90.005045
_cell_angle_gamma	83.281795
loop_
_atom_site_label
_atom_site_type_symbol
_atom_site_fract_x
_atom_site_fract_y
_atom_site_fract_z
O1	O	1.004080	0.095685	0.073219
O2	O	1.337414	0.429018	0.406552
O3	O	1.670747	0.762351	0.739885
O4	O	0.783701	0.108142	0.073223
O5	O	1.117035	0.441475	0.406557
O6	O	1.450368	0.774808	0.739890
O7	O	0.900117	-0.008276	0.073213
O8	O	1.233451	0.325057	0.406546
O9	O	1.566784	0.658391	0.739880
O10	O	0.887665	0.212103	0.073229
O11	O	1.220998	0.545436	0.406562
O12	O	1.554331	0.878769	0.739895
O13	O	0.900104	-0.008270	-0.073244
O14	O	1.233437	0.325064	0.260089
O15	O	1.566770	0.658397	0.593422
O16	O	0.783688	0.108148	-0.073234
O17	O	1.117021	0.441482	0.260099
O18	O	1.450354	0.774815	0.593433
O19	O	1.004067	0.095691	-0.073239
O20	O	1.337400	0.429025	0.260095
O21	O	1.670733	0.762358	0.593428
Zn22	Zn	0.893875	0.101921	-0.096490
Zn23	Zn	1.227208	0.435254	0.236844
Zn24	Zn	1.560542	0.768588	0.570177
Zn25	Zn	0.893893	0.101912	0.096474
Zn26	Zn	1.227226	0.435245	0.429807
Zn27	Zn	1.560560	0.768579	0.763141
O28	O	0.887651	0.212109	-0.073228
O29	O	1.220984	0.545442	0.260105
O30	O	1.554318	0.878776	0.593438
C31	C	0.755498	0.107700	-0.000005
C32	C	1.088831	0.441033	0.333328
C33	C	1.422164	0.774366	0.666662
C34	C	0.671479	0.106363	-0.000003
C35	C	1.004813	0.439696	0.333330
C36	C	1.338146	0.773029	0.666663
C37	C	0.632004	0.105736	-0.079838
C38	C	0.965338	0.439070	0.253495
C39	C	1.298671	0.772403	0.586828
C40	C	0.553062	0.104468	-0.079839
C41	C	0.886395	0.437802	0.253494
C42	C	1.219729	0.771135	0.586827
C43	C	0.513595	0.103832	-0.000005
C44	C	0.846928	0.437165	0.333329
C45	C	1.180262	0.770498	0.666662
C46	C	0.553076	0.104456	0.079836
C47	C	0.886409	0.437789	0.413170
C48	C	1.219742	0.771123	0.746503
C49	C	0.632017	0.105719	0.079837
C50	C	0.965351	0.439052	0.413170
C51	C	1.298684	0.772385	0.746503
C52	C	0.234712	0.099363	0.079838
C53	C	0.568046	0.432696	0.413171
C54	C	0.901379	0.766029	0.746504
C55	C	0.155765	0.098102	0.079831
C56	C	0.489098	0.431435	0.413165
C57	C	0.822431	0.764769	0.746498
C58	C	0.155757	0.098112	-0.079838
C59	C	0.489090	0.431446	0.253495
C60	C	0.822423	0.764779	0.586829
C61	C	0.234699	0.099375	-0.079838
C62	C	0.568032	0.432708	0.253495
C63	C	0.901365	0.766042	0.586829
C64	C	0.274173	0.099995	0.000002
C65	C	0.607506	0.433328	0.333336
C66	C	0.940840	0.766662	0.666669
C67	C	0.359772	0.101369	0.000003
C68	C	0.693105	0.434702	0.333336
C69	C	1.026438	0.768035	0.666669
C70	C	0.427997	0.102464	-0.000004
C71	C	0.761330	0.435797	0.333330
C72	C	1.094664	0.769130	0.666663
C73	C	0.899664	-0.036470	-0.000016
C74	C	1.232998	0.296864	0.333318
C75	C	1.566331	0.630197	0.666651
C76	C	0.898326	-0.120488	-0.000016
C77	C	1.231659	0.212845	0.333317
C78	C	1.564992	0.546179	0.666651
C79	C	0.966659	-0.169110	-0.000019
C80	C	1.299993	0.164223	0.333315
C81	C	1.633326	0.497556	0.666648
C82	C	0.965397	-0.248054	-0.000011
C83	C	1.298730	0.085280	0.333322
C84	C	1.632064	0.418613	0.666656
C85	C	0.895800	-0.278373	-0.000007
C86	C	1.229134	0.054960	0.333327
C87	C	1.562467	0.388294	0.666660
C88	C	0.827461	-0.229744	-0.000001
C89	C	1.160795	0.103589	0.333332
C90	C	1.494128	0.436922	0.666665
C91	C	0.828724	-0.150803	-0.000003
C92	C	1.162058	0.182531	0.333330
C93	C	1.495391	0.515864	0.666664
C94	C	0.822366	-0.548107	0.000006
C95	C	1.155699	-0.214774	0.333339
C96	C	1.489033	0.118559	0.666672
C97	C	0.821108	-0.627055	0.000005
C98	C	1.154442	-0.293722	0.333338
C99	C	1.487775	0.039612	0.666671
C100	C	0.959039	-0.645358	-0.000002
C101	C	1.292372	-0.312025	0.333331
C102	C	1.625705	0.021308	0.666665
C103	C	0.960302	-0.566417	-0.000004
C104	C	1.293635	-0.233083	0.333330
C105	C	1.626968	0.100250	0.666663
C106	C	0.891963	-0.517795	0.000006
C107	C	1.225297	-0.184461	0.333340
C108	C	1.558630	0.148872	0.666673
C109	C	0.893333	-0.432196	-0.000001
C110	C	1.226666	-0.098862	0.333333
C111	C	1.559999	0.234471	0.666666
C112	C	0.894430	-0.363971	-0.000006
C113	C	1.227763	-0.030637	0.333327
C114	C	1.561097	0.302696	0.666660
C115	C	1.032271	0.096133	-0.000009
C116	C	1.365604	0.429467	0.333325
C117	C	1.698937	0.762800	0.666658
C118	C	1.116289	0.097470	-0.000004
C119	C	1.449622	0.430804	0.333329
C120	C	1.782956	0.764137	0.666662
C121	C	0.888104	0.240303	0.000002
C122	C	1.221437	0.573636	0.333336
C123	C	1.554771	0.906969	0.666669
C124	C	0.889443	0.324321	0.000008
C125	C	1.222776	0.657654	0.333342
C126	C	1.556109	0.990988	0.666675
N127	N	0.893868	0.101926	-0.228182
N128	N	1.227202	0.435260	0.105151
N129	N	1.560535	0.768593	0.438484
C130	C	0.939700	0.147760	-0.453903
C131	C	1.273033	0.481094	-0.120569
C132	C	1.606366	0.814427	0.212764
C133	C	0.939708	0.147755	-0.546092
C134	C	1.273041	0.481088	-0.212759
C135	C	1.606374	0.814422	0.120574
C136	C	0.848073	0.056061	-0.546106
C137	C	1.181406	0.389395	-0.212773
C138	C	1.514740	0.722728	0.120560
C139	C	0.848069	0.056063	-0.453918
C140	C	1.181403	0.389397	-0.120585
C141	C	1.514736	0.722730	0.212748
C142	C	0.893881	0.101917	-0.407819
C143	C	1.227215	0.435250	-0.074486
C144	C	1.560548	0.768584	0.258848
C145	C	0.893893	0.101910	-0.592197
C146	C	1.227226	0.435243	-0.258863
C147	C	1.560560	0.768576	0.074470
C148	C	0.893902	0.101904	-0.692153
C149	C	1.227235	0.435237	-0.358819
C150	C	1.560568	0.768570	-0.025486
C151	C	0.893874	0.101923	-0.307856
C152	C	1.227207	0.435256	0.025477
C153	C	1.560540	0.768589	0.358810
N154	N	0.893906	0.101901	0.228167
N155	N	1.227239	0.435234	0.561500
N156	N	1.560573	0.768567	0.894833
H157	H	0.520936	0.103932	0.144839
H158	H	0.854269	0.437266	0.478173
H159	H	1.187603	0.770599	0.811506
H160	H	0.810774	0.018730	-0.583652
H161	H	1.144107	0.352063	-0.250319
H162	H	1.477440	0.685396	0.083015
N163	N	0.748660	-0.495674	0.000013
N164	N	1.081994	-0.162341	0.333346
N165	N	1.415327	0.170993	0.666679
H166	H	0.760015	-0.441063	0.000018
H167	H	1.093349	-0.107729	0.333351
H168	H	1.426682	0.225604	0.666685
H169	H	0.718334	-0.505482	0.054310
H170	H	1.051668	-0.172149	0.387643
H171	H	1.385001	0.161184	0.720976
H172	H	0.977003	0.185097	-0.416371
H173	H	1.310336	0.518431	-0.083038
H174	H	1.643669	0.851764	0.250296
N175	N	0.674563	0.106423	-0.165951
N176	N	1.007896	0.439756	0.167382
N177	N	1.341230	0.773090	0.500715
H178	H	0.713542	0.060048	-0.169515
H179	H	1.046875	0.393382	0.163818
H180	H	1.380209	0.726715	0.497152
H181	H	0.701041	0.153878	-0.169457
H182	H	1.034375	0.487212	0.163876
H183	H	1.367708	0.820545	0.497209
H184	H	0.810758	0.018728	-0.416396
H185	H	1.144091	0.352062	-0.083063
H186	H	1.477425	0.685395	0.250271
N187	N	0.510483	0.103790	-0.165945
N188	N	0.843816	0.437123	0.167388
N189	N	1.177149	0.770457	0.500722
H190	H	0.547530	0.103852	-0.216520
H191	H	0.880863	0.437185	0.116814
H192	H	1.214197	0.770518	0.450147
H193	H	0.471866	0.150439	-0.169686
H194	H	0.805200	0.483772	0.163647
H195	H	1.138533	0.817106	0.496981
H196	H	0.977019	0.185084	-0.583610
H197	H	1.310352	0.518417	-0.250276
H198	H	1.643685	0.851751	0.083057
H199	H	0.266828	0.099897	-0.144848
H200	H	0.600162	0.433230	0.188486
H201	H	0.933495	0.766564	0.521819
H202	H	0.664157	0.106230	0.144846
H203	H	0.997490	0.439563	0.478180
H204	H	1.330823	0.772897	0.811513
H205	H	0.123633	0.097583	0.144846
H206	H	0.456966	0.430916	0.478180
H207	H	0.790299	0.764250	0.811513
N208	N	0.113176	0.097438	-0.165951
N209	N	0.446509	0.430771	0.167382
N210	N	0.779843	0.764104	0.500715
H211	H	0.085798	0.050537	-0.168991
H212	H	0.419132	0.383871	0.164342
H213	H	0.752465	0.717204	0.497676
H214	H	0.150331	0.097009	-0.216471
H215	H	0.483664	0.430342	0.116862
H216	H	0.816997	0.763676	0.450196
N217	N	0.277283	0.100025	0.165947
N218	N	0.610617	0.433359	0.499280
N219	N	0.943950	0.766692	0.832614
H220	H	0.240300	0.099432	0.216519
H221	H	0.573633	0.432765	0.549852
H222	H	0.906967	0.766098	0.883186
H223	H	0.303817	0.147447	0.169437
H224	H	0.637150	0.480780	0.502770
H225	H	0.970483	0.814113	0.836104
H226	H	1.021041	-0.287639	-0.000015
H227	H	1.354374	0.045694	0.333318
H228	H	1.687708	0.379027	0.666652
N229	N	1.041726	-0.136414	-0.000032
N230	N	1.375060	0.196919	0.333302
N231	N	1.708393	0.530252	0.666635
H232	H	1.071664	-0.154151	0.054259
H233	H	1.404998	0.179182	0.387593
H234	H	1.738331	0.512516	0.720926
H235	H	1.032096	-0.079032	-0.000069
H236	H	1.365429	0.254301	0.333264
H237	H	1.698763	0.587635	0.666597
N238	N	1.035366	-0.533715	-0.000015
N239	N	1.368699	-0.200381	0.333318
N240	N	1.702032	0.132952	0.666651
H241	H	1.078465	-0.576497	-0.000015
H242	H	1.411798	-0.243163	0.333319
H243	H	1.745131	0.090170	0.666652
H244	H	1.038898	-0.501358	0.054277
H245	H	1.372232	-0.168025	0.387611
H246	H	1.705565	0.165308	0.720944
H247	H	0.764431	-0.651737	0.000006
H248	H	1.097764	-0.318404	0.333340
H249	H	1.431098	0.014929	0.666673
N250	N	1.032750	-0.697800	-0.000013
N251	N	1.366083	-0.364467	0.333321
N252	N	1.699416	-0.031134	0.666654
H253	H	1.021393	-0.752411	-0.000009
H254	H	1.354727	-0.419078	0.333324
H255	H	1.688060	-0.085744	0.666658
H256	H	1.063097	-0.687997	0.054276
H257	H	1.396430	-0.354663	0.387609
H258	H	1.729763	-0.021330	0.720942
N259	N	0.752395	-0.262441	0.000009
N260	N	1.085728	0.070892	0.333342
N261	N	1.419061	0.404225	0.666676
H262	H	0.761962	-0.319829	0.000006
H263	H	1.095295	0.013505	0.333340
H264	H	1.428629	0.346838	0.666673
H265	H	0.722494	-0.244644	-0.054283
H266	H	1.055827	0.088689	0.279050
H267	H	1.389160	0.422023	0.612383
H268	H	0.773080	-0.111214	-0.000001
H269	H	1.106413	0.222119	0.333333
H270	H	1.439747	0.555452	0.666666
