data_functionalizedCrystal
_audit_creation_method	'MofGen! by Chris Wilmer'
_symmetry_space_group_name_H-M	'P1'
_symmetry_Int_Tables_number	1
_symmetry_cell_setting	triclinic
loop_
_symmetry_equiv_pos_as_xyz
  x,y,z
_cell_length_a	27.731988
_cell_length_b	27.732048
_cell_length_c	22.010155
_cell_angle_alpha	89.999275
_cell_angle_beta	89.997158
_cell_angle_gamma	82.630513
loop_
_atom_site_label
_atom_site_type_symbol
_atom_site_fract_x
_atom_site_fract_y
_atom_site_fract_z
O1	O	-0.640950	-0.057373	0.050453
O2	O	-0.500152	-0.066149	0.050472
O3	O	-0.574924	0.008637	0.050450
O4	O	-0.566178	-0.132159	0.050474
O5	O	-0.574910	0.008625	-0.050600
O6	O	-0.500138	-0.066160	-0.050578
O7	O	-0.640936	-0.057385	-0.050598
Cu8	Cu	-0.570536	-0.061773	-0.059815
Cu9	Cu	-0.570552	-0.061760	0.059689
O10	O	-0.566164	-0.132170	-0.050576
C11	C	-0.482138	-0.065975	-0.000051
C12	C	-0.428481	-0.065433	-0.000044
C13	C	-0.574733	0.026638	-0.000077
C14	C	-0.574181	0.080293	-0.000082
C15	C	-0.095755	-0.062030	-0.055154
C16	C	0.105904	-0.059972	-0.055164
O17	O	0.131983	-0.059691	-0.102010
N18	N	0.131112	-0.059711	-0.000082
C19	C	0.105901	-0.059960	0.055007
O20	O	0.131968	-0.059686	0.101857
C21	C	-0.095757	-0.062015	0.055016
C22	C	-0.120962	-0.062281	-0.000070
C23	C	-0.120959	-0.062296	-0.110236
C24	C	-0.171370	-0.062813	-0.110233
C25	C	-0.196577	-0.063064	-0.055148
C26	C	-0.171373	-0.062798	-0.000067
C27	C	-0.120968	-0.062261	0.110103
C28	C	-0.171386	-0.062773	0.110101
C29	C	-0.196590	-0.063040	0.055015
C30	C	-0.246991	-0.063566	0.055020
N31	N	-0.272199	-0.063828	-0.000062
C32	C	-0.246992	-0.063577	-0.055146
C33	C	0.211774	-0.058883	0.054998
C34	C	0.262189	-0.058370	0.054996
C35	C	0.262189	-0.058381	-0.055175
C36	C	0.211774	-0.058897	-0.055172
C37	C	0.186567	-0.059144	-0.000084
C38	C	-0.352859	-0.064663	-0.055136
C39	C	-0.403274	-0.065182	-0.055128
C40	C	-0.403270	-0.065169	0.055042
C41	C	-0.352859	-0.064652	0.055035
C42	C	-0.327654	-0.064398	-0.000059
O43	O	-0.273102	-0.063843	0.101841
O44	O	-0.273069	-0.063841	-0.101990
C45	C	-0.045343	-0.061513	-0.055157
C46	C	-0.020139	-0.061247	-0.000076
C47	C	-0.045346	-0.061498	0.055008
C48	C	0.030275	-0.060734	-0.000078
C49	C	0.055482	-0.060483	-0.055162
C50	C	0.030275	-0.060745	-0.110245
C51	C	-0.020136	-0.061262	-0.110242
C52	C	-0.020138	-0.061236	0.110090
C53	C	0.030273	-0.060720	0.110083
C54	C	0.055480	-0.060469	0.054999
C55	C	0.341050	-0.057563	-0.000077
C56	C	0.287396	-0.058119	-0.000088
C57	C	-0.566355	-0.150171	-0.000048
C58	C	-0.566908	-0.203826	-0.000039
N59	N	-0.570528	-0.061782	-0.143867
C60	C	-0.614886	0.419116	-0.000056
C61	C	-0.612834	0.620776	-0.000047
O62	O	-0.650056	0.652039	-0.000026
N63	N	-0.568498	0.639890	-0.000042
C64	C	-0.524671	0.608586	-0.000034
O65	O	-0.486913	0.629471	-0.000023
C66	C	-0.526723	0.406928	-0.000039
C67	C	-0.571062	0.387816	-0.000050
C68	C	-0.659221	0.400005	-0.000067
C69	C	-0.659734	0.349593	-0.000073
C70	C	-0.615910	0.318293	-0.000067
C71	C	-0.571574	0.337405	-0.000056
C72	C	-0.482896	0.375625	-0.000027
C73	C	-0.483413	0.325207	-0.000027
C74	C	-0.527752	0.306096	-0.000038
C75	C	-0.528263	0.255693	-0.000056
N76	N	-0.572600	0.236578	-0.000061
C77	C	-0.616423	0.267878	-0.000067
C78	C	-0.523597	0.714460	-0.000033
C79	C	-0.523084	0.764874	-0.000033
C80	C	-0.611248	0.777060	-0.000045
C81	C	-0.611760	0.726645	-0.000049
C82	C	-0.567934	0.695345	-0.000039
C83	C	-0.617496	0.162009	-0.000079
C84	C	-0.618004	0.111593	-0.000087
C85	C	-0.529841	0.099411	-0.000072
C86	C	-0.529332	0.149823	-0.000067
C87	C	-0.573163	0.181122	-0.000069
O88	O	-0.491061	0.224401	-0.000071
O89	O	-0.654176	0.246984	-0.000065
C90	C	-0.614373	0.469528	-0.000051
C91	C	-0.570037	0.488640	-0.000039
C92	C	-0.526214	0.457340	-0.000034
C93	C	-0.569524	0.539054	-0.000039
C94	C	-0.613348	0.570354	-0.000045
C95	C	-0.657684	0.551240	-0.000051
C96	C	-0.658197	0.500828	-0.000056
C97	C	-0.481877	0.476454	-0.000028
C98	C	-0.481369	0.526867	-0.000024
C99	C	-0.525192	0.558167	-0.000029
C100	C	-0.603663	-0.028650	-0.563656
C101	C	-0.603665	-0.028646	-0.627264
O102	O	-0.631818	-0.000482	-0.660164
N103	N	-0.570552	-0.061750	-0.659074
C104	C	-0.537431	-0.094856	-0.627274
O105	O	-0.509265	-0.123012	-0.660172
C106	C	-0.537427	-0.094856	-0.563667
C107	C	-0.570545	-0.061754	-0.531860
C108	C	-0.636778	0.004450	-0.531849
C109	C	-0.636777	0.004446	-0.468246
C110	C	-0.603659	-0.028658	-0.436450
C111	C	-0.570544	-0.061758	-0.468257
C112	C	-0.504304	-0.127959	-0.531868
C113	C	-0.504302	-0.127957	-0.468257
C114	C	-0.537421	-0.094855	-0.436450
C115	C	-0.537424	-0.094866	-0.372858
N116	N	-0.570538	-0.061763	-0.341047
C117	C	-0.603655	-0.028658	-0.372843
C118	C	-0.537442	-0.094851	-0.760852
C119	C	-0.537448	-0.094853	-0.824457
C120	C	-0.603681	-0.028643	-0.824443
C121	C	-0.603677	-0.028644	-0.760836
C122	C	-0.570555	-0.061748	-0.729041
C123	C	-0.603649	-0.028670	-0.239272
C124	C	-0.603646	-0.028678	-0.175663
C125	C	-0.537411	-0.094886	-0.175683
C126	C	-0.537415	-0.094880	-0.239286
C127	C	-0.570537	-0.061768	-0.271079
O128	O	-0.509285	-0.123015	-0.339918
O129	O	-0.631812	-0.000502	-0.339938
N130	N	-0.570564	-0.061747	0.143742
H131	H	-0.332343	-0.064461	-0.099999
H132	H	-0.510452	-0.121840	-0.265184
N133	N	-0.478822	0.682498	-0.000023
N134	N	-0.439242	0.699577	-0.000019
H135	H	-0.407619	0.677007	-0.000014
N136	N	-0.470478	-0.161770	-0.564360
N137	N	-0.485582	-0.191670	-0.599853
H138	H	-0.461690	-0.215549	-0.622801
H139	H	-0.191887	-0.063027	-0.155089
N140	N	-0.477797	0.784400	-0.000022
N141	N	-0.477339	0.829413	-0.000019
H142	H	-0.445353	0.843203	-0.000007
N143	N	-0.637504	0.005178	-0.728357
N144	N	-0.667403	-0.009923	-0.692858
H145	H	-0.691294	0.013970	-0.669927
H146	H	-0.510448	-0.121841	-0.149785
N147	N	-0.470469	-0.161781	-0.435790
N148	N	-0.470795	-0.206457	-0.442902
H149	H	-0.446901	-0.230346	-0.419974
H150	H	-0.510484	-0.121813	-0.850350
H151	H	-0.654112	0.096035	-0.000098
N152	N	0.186028	-0.059142	0.111271
N153	N	0.162607	-0.093511	0.123575
H154	H	0.144424	-0.093694	0.163317
N155	N	-0.485083	0.067427	-0.000072
N156	N	-0.485552	0.022416	-0.000075
H157	H	-0.453941	-0.000175	-0.000071
H158	H	-0.040657	-0.061439	0.154947
H159	H	-0.423793	-0.065401	-0.099988
N160	N	-0.429033	-0.065421	0.111300
N161	N	-0.461882	-0.031620	0.123575
H162	H	-0.480081	-0.031796	0.163307
H163	H	-0.510471	-0.121812	-0.734967
N164	N	-0.662263	0.193982	-0.000079
N165	N	-0.671825	0.223473	0.042515
H166	H	-0.703442	0.246054	0.042512
H167	H	-0.663743	0.031402	-0.442352
N168	N	-0.656009	0.809044	-0.000055
N169	N	-0.655538	0.854055	-0.000056
H170	H	-0.687149	0.876646	-0.000061
H171	H	-0.100455	-0.062043	0.154960
N172	N	-0.705030	0.330083	-0.000082
N173	N	-0.744151	0.358043	-0.000085
H174	H	-0.776144	0.344268	-0.000089
N175	N	-0.327103	-0.064388	0.111298
N176	N	-0.294254	-0.098182	0.123595
H177	H	-0.276067	-0.097993	0.163332
H178	H	-0.191906	-0.062974	0.154961
N179	N	-0.437106	0.444493	-0.000021
N180	N	-0.397526	0.461571	-0.000015
H181	H	-0.365903	0.439000	-0.000013
N182	N	-0.095224	-0.062037	-0.166513
N183	N	-0.117743	-0.062273	-0.215684
H184	H	-0.099571	-0.062092	-0.255434
H185	H	0.191256	-0.059115	-0.100028
N186	N	0.056037	-0.060494	-0.166507
N187	N	0.101049	-0.060035	-0.166493
H188	H	0.119246	-0.059856	-0.206226
N189	N	-0.484043	0.169351	-0.000078
N190	N	-0.454583	0.159645	-0.042675
H191	H	-0.422598	0.173435	-0.042681
N192	N	-0.670611	0.038274	-0.564312
N193	N	-0.700172	0.067823	-0.535893
H194	H	-0.724071	0.091712	-0.558816
N195	N	-0.045870	-0.061536	-0.166516
N196	N	-0.023350	-0.061313	-0.215690
H197	H	-0.041521	-0.061506	-0.255438
H198	H	-0.630647	-0.001687	-0.850342
H199	H	0.050790	-0.060507	0.154944
H200	H	-0.694302	0.485273	-0.000065
H201	H	-0.694910	0.425485	-0.000069
N202	N	0.287950	-0.058130	-0.111438
N203	N	0.332963	-0.057674	-0.111424
H204	H	0.351159	-0.057495	-0.151157
H205	H	0.282707	-0.058161	0.099852
N206	N	-0.657056	0.707134	-0.000064
N207	N	-0.696178	0.735091	-0.000074
H208	H	-0.728170	0.721315	-0.000084
H209	H	-0.446790	0.391176	-0.000014
N210	N	-0.637475	0.005153	-0.271750
N211	N	-0.622370	0.035056	-0.307241
H212	H	-0.646261	0.058942	-0.330179
N213	N	-0.438644	0.293235	-0.000003
N214	N	-0.409082	0.294785	0.042602
H215	H	-0.377465	0.272205	0.042620
N216	N	-0.702445	0.583225	-0.000063
N217	N	-0.701974	0.628235	-0.000060
H218	H	-0.733584	0.650827	-0.000067
H219	H	-0.445260	0.542422	-0.000019
N220	N	-0.637476	0.005145	-0.143183
N221	N	-0.667037	0.034704	-0.171585
H222	H	-0.690926	0.058594	-0.148649
