data_functionalizedCrystal
_audit_creation_method	'MofGen! by Chris Wilmer'
_symmetry_space_group_name_H-M	'P1'
_symmetry_Int_Tables_number	1
_symmetry_cell_setting	triclinic
loop_
_symmetry_equiv_pos_as_xyz
  x,y,z
_cell_length_a	14.048226
_cell_length_b	17.699104
_cell_length_c	14.971494
_cell_angle_alpha	96.545463
_cell_angle_beta	89.999780
_cell_angle_gamma	90.010297
loop_
_atom_site_label
_atom_site_type_symbol
_atom_site_fract_x
_atom_site_fract_y
_atom_site_fract_z
O1	O	-0.079195	-1.004352	0.113194
O2	O	-0.079188	-0.784013	0.127891
O3	O	-0.079189	-0.900085	-0.009677
O4	O	-0.079193	-0.888280	0.250762
O5	O	0.079132	-0.900065	-0.009672
O6	O	0.079133	-0.783993	0.127895
O7	O	0.079127	-1.004332	0.113199
Zn8	Zn	0.104267	-0.894159	0.120548
Zn9	Zn	-0.104328	-0.894186	0.120542
O10	O	0.079128	-0.888260	0.250766
C11	C	-0.000026	-0.755805	0.127363
C12	C	-0.000024	-0.671783	0.125774
N13	N	0.246628	-0.894147	0.120551
C14	C	-0.000025	-0.147091	0.197560
C15	C	-0.000030	-0.226038	0.199048
C16	C	-0.000029	-0.274455	0.118291
C17	C	-0.000034	-0.243921	0.036040
C18	C	-0.000036	-0.164975	0.034553
C19	C	-0.000025	-0.562302	0.042035
C20	C	-0.000019	-0.641253	0.043529
C21	C	-0.000018	-0.623365	0.206531
C22	C	-0.000020	-0.544419	0.205043
C23	C	-0.000030	-0.513892	0.122793
C24	C	-0.000027	-0.428288	0.121181
C25	C	-0.000025	-0.360058	0.119902
C26	C	0.703466	-0.945601	0.059647
C27	C	0.603809	-0.945595	0.059653
C28	C	0.553998	-0.894180	0.120545
C29	C	0.603849	-0.842774	0.181442
C30	C	0.703505	-0.842784	0.181440
C31	C	0.396135	-0.842754	0.181440
C32	C	0.296472	-0.842743	0.181442
C33	C	0.296439	-0.945565	0.059653
C34	C	0.396095	-0.945576	0.059651
C35	C	0.445939	-0.894168	0.120547
N36	N	0.753311	-0.894197	0.120537
C37	C	-0.000032	-0.032540	0.113726
C38	C	-0.000027	-0.116562	0.115316
C39	C	-0.000030	-0.899546	-0.042997
C40	C	-0.000034	-0.897960	-0.142289
C41	C	-0.086337	-0.897228	-0.188933
C42	C	-0.086338	-0.895733	-0.282227
C43	C	-0.000036	-0.894977	-0.328876
C44	C	0.086273	-0.895707	-0.282224
C45	C	0.086273	-0.897196	-0.188931
C46	C	0.086267	-0.892605	-0.476677
C47	C	0.086267	-0.891117	-0.569977
C48	C	-0.086344	-0.891142	-0.569973
C49	C	-0.086344	-0.892631	-0.476680
C50	C	-0.000035	-0.893363	-0.430035
C51	C	-0.000033	-0.888799	0.284087
C52	C	-0.000035	-0.890385	0.383378
H53	H	-0.000019	-0.107675	0.263323
H54	H	-0.156619	-0.893253	-0.438702
H55	H	-0.000016	-0.505001	0.270805
H56	H	-0.000014	-0.648230	0.273503
Br57	Br	-0.000036	-0.267468	0.310671
Br58	Br	-0.000017	-0.706962	-0.066078
H59	H	-0.000030	-0.537456	-0.024938
H60	H	0.156542	-0.895086	-0.320212
Br61	Br	-0.203478	-0.890146	-0.633275
H62	H	-0.000039	-0.283348	-0.029714
Br63	Br	-0.000043	-0.123541	-0.077069
Br64	Br	0.771057	-1.015377	-0.023004
H65	H	-0.156614	-0.897848	-0.150959
Br66	Br	0.203392	-0.890093	-0.633287
Br67	Br	0.463699	-1.015346	-0.022996
Br68	Br	0.536159	-1.015362	-0.022982
Br69	Br	0.228790	-1.015329	-0.022994
Br70	Br	0.228878	-0.772963	0.264085
H71	H	0.436715	-0.800895	0.231031
Br72	Br	-0.203467	-0.894738	-0.345528
Br73	Br	0.536252	-0.773000	0.264091
Br74	Br	0.203401	-0.893599	-0.413374
H75	H	0.744088	-0.800927	0.231024
H76	H	0.156549	-0.897781	-0.150953
