data_functionalizedCrystal
_audit_creation_method	'MofGen! by Chris Wilmer'
_symmetry_space_group_name_H-M	'P1'
_symmetry_Int_Tables_number	1
_symmetry_cell_setting	triclinic
loop_
_symmetry_equiv_pos_as_xyz
  x,y,z
_cell_length_a	12.759401
_cell_length_b	21.395361
_cell_length_c	12.759393
_cell_angle_alpha	89.964307
_cell_angle_beta	90.019676
_cell_angle_gamma	89.969040
loop_
_atom_site_label
_atom_site_type_symbol
_atom_site_fract_x
_atom_site_fract_y
_atom_site_fract_z
Zn1	Zn	1.606151	0.249401	0.593947
Zn2	Zn	1.605993	0.354191	0.418251
Zn3	Zn	1.430449	0.249432	0.418286
Zn4	Zn	1.430393	0.354146	0.593892
O5	O	1.518247	0.301793	0.506094
O6	O	1.753151	0.263308	0.570649
O7	O	1.582665	0.340327	0.271234
O8	O	1.453846	0.161750	0.441625
O9	O	1.753035	0.340297	0.441566
O10	O	1.582933	0.161727	0.570682
O11	O	1.453694	0.263361	0.271260
O12	O	1.283421	0.263317	0.441572
O13	O	1.453750	0.340219	0.740920
O14	O	1.283379	0.340249	0.570589
O15	O	1.582878	0.263263	0.740961
O16	O	1.582610	0.441863	0.441513
O17	O	1.453597	0.441830	0.570555
C18	C	1.245279	0.301782	0.506079
C19	C	1.128503	0.301792	0.506098
C20	C	1.073701	0.261777	0.573415
C21	C	0.963977	0.261783	0.573422
C22	C	0.963865	0.341826	0.438791
C23	C	1.073587	0.341816	0.438780
C24	C	1.518109	0.464580	0.506047
C25	C	1.518146	0.534222	0.506062
C26	C	1.585383	0.566931	0.438941
C27	C	1.585432	0.632367	0.438969
C28	C	1.518226	0.665090	0.506108
C29	C	1.450984	0.632372	0.573242
C30	C	1.450944	0.566938	0.573219
C31	C	1.423628	0.768804	0.514353
C32	C	1.423666	0.834237	0.514369
C33	C	1.518349	0.866911	0.506184
C34	C	1.612997	0.834143	0.497962
C35	C	1.612957	0.768709	0.497939
C36	C	1.518262	0.736042	0.506140
C37	C	1.585645	0.970573	0.439089
C38	C	1.585696	1.036009	0.439125
C39	C	1.451239	1.036014	0.573393
C40	C	1.451197	0.970578	0.573363
C41	C	1.518399	0.937862	0.506205
C42	C	1.792280	0.301804	0.506109
C43	C	1.909056	0.301809	0.506116
C44	C	1.518415	1.138369	0.506182
C45	C	1.518490	1.068728	0.506266
C46	C	1.518325	0.301732	0.780127
C47	C	1.518359	0.301707	0.896904
C48	C	1.518229	0.301807	0.233126
C49	C	1.518399	0.301656	0.116350
C50	C	1.585601	0.261630	0.951789
C51	C	1.585619	0.261603	1.061513
C52	C	1.451149	0.341735	1.061458
C53	C	1.451127	0.341759	0.951736
H54	H	1.118208	0.374402	0.383957
H55	H	1.690021	0.742031	0.491247
H56	H	1.640343	0.229015	0.907148
H57	H	1.396363	0.374394	0.907048
H58	H	1.346519	0.742208	0.521023
H59	H	1.690097	0.860744	0.491297
H60	H	1.640454	1.062641	0.384469
C61	C	0.840658	0.177522	0.588298
C62	C	0.903740	0.217798	0.647422
H63	H	0.803476	0.150365	0.633986
H64	H	0.792251	0.201359	0.548222
H65	H	0.883470	0.153521	0.542598
H66	H	0.860927	0.241803	0.693116
H67	H	0.952152	0.193959	0.687516
H68	H	0.919140	0.374413	0.383985
C69	C	1.636925	0.155505	1.095327
C70	C	1.659538	0.217549	1.121837
H71	H	1.682567	0.128307	1.132564
H72	H	1.566358	0.146330	1.113309
H73	H	1.646533	0.149800	1.022130
H74	H	1.649923	0.223255	1.195033
H75	H	1.730122	0.226727	1.103862
C76	C	1.600268	0.897052	0.297746
C77	C	1.659517	0.934605	0.365281
H78	H	1.645875	0.874851	0.252177
H79	H	1.560220	0.868208	0.337715
H80	H	1.554537	0.922633	0.257531
H81	H	1.705242	0.909023	0.405502
H82	H	1.699582	0.963452	0.325308
C83	C	1.391600	1.136318	0.633046
C84	C	1.377366	1.071975	0.647197
H85	H	1.345990	1.158519	0.678611
H86	H	1.462181	1.146990	0.648488
H87	H	1.376263	1.147080	0.562444
H88	H	1.392710	1.061212	0.717797
H89	H	1.306768	1.061299	0.631763
H90	H	1.640105	0.540296	0.384260
C91	C	1.062787	0.182656	0.706485
C92	C	1.134065	0.217779	0.647401
H93	H	1.100054	0.155489	0.752156
H94	H	1.019994	0.209986	0.746591
H95	H	1.019986	0.158662	0.660775
H96	H	1.176862	0.241776	0.693112
H97	H	1.176877	0.190444	0.607292
H98	H	1.640188	0.659004	0.384311
H99	H	1.396442	0.943944	0.628015
H100	H	1.346598	0.860911	0.521053
H101	H	1.396266	0.659019	0.627909
C102	C	1.318046	0.573516	0.705939
C103	C	1.377026	0.530979	0.646998
H104	H	1.272407	0.551314	0.751481
H105	H	1.363816	0.598989	0.746176
H106	H	1.277901	0.599086	0.660130
H107	H	1.417177	0.505413	0.692808
H108	H	1.331250	0.505495	0.606759
C109	C	1.391481	0.377284	1.229631
C110	C	1.377259	0.385764	1.121733
H111	H	1.345868	0.404470	1.266838
H112	H	1.376150	0.335187	1.247625
H113	H	1.462069	0.386454	1.247606
H114	H	1.306672	0.376588	1.103757
H115	H	1.392582	0.427870	1.103732
