data_functionalizedCrystal
_audit_creation_method	'MofGen! by Chris Wilmer'
_symmetry_space_group_name_H-M	'P1'
_symmetry_Int_Tables_number	1
_symmetry_cell_setting	triclinic
loop_
_symmetry_equiv_pos_as_xyz
  x,y,z
_cell_length_a	14.044191
_cell_length_b	15.944493
_cell_length_c	12.503572
_cell_angle_alpha	93.528588
_cell_angle_beta	86.162165
_cell_angle_gamma	88.333410
loop_
_atom_site_label
_atom_site_type_symbol
_atom_site_fract_x
_atom_site_fract_y
_atom_site_fract_z
O1	O	1.263136	0.198090	-0.089242
O2	O	1.763136	0.698090	0.410758
O3	O	0.987168	0.190776	-0.089257
O4	O	1.487168	0.690776	0.410743
O5	O	1.132717	0.072721	-0.089258
O6	O	1.632717	0.572721	0.410742
O7	O	1.117587	0.316145	-0.089241
O8	O	1.617587	0.816145	0.410759
O9	O	1.121771	0.081615	0.089384
O10	O	1.621771	0.581615	0.589384
O11	O	0.976222	0.199670	0.089385
O12	O	1.476222	0.699670	0.589385
O13	O	1.252190	0.206985	0.089400
O14	O	1.752190	0.706985	0.589400
Cu15	Cu	1.113206	0.204140	0.105704
Cu16	Cu	1.613206	0.704140	0.605704
Cu17	Cu	1.126151	0.193621	-0.105561
Cu18	Cu	1.626151	0.693621	0.394439
O19	O	1.106641	0.325039	0.089401
O20	O	1.606641	0.825039	0.589401
C21	C	0.946381	0.192023	0.000062
C22	C	1.446381	0.692023	0.500062
C23	C	0.841157	0.182479	0.000056
C24	C	1.341157	0.682479	0.500056
C25	C	0.590861	0.232718	0.000070
C26	C	1.090861	0.732718	0.500070
C27	C	0.648502	0.165045	0.000063
C28	C	1.148502	0.665045	0.500063
C29	C	0.755705	0.174748	0.000059
C30	C	1.255705	0.674748	0.500059
C31	C	0.483648	0.223017	0.000074
C32	C	0.983648	0.723017	0.500074
C33	C	1.126626	0.045827	0.000058
C34	C	1.626626	0.545827	0.500058
C35	C	1.124773	-0.047561	0.000045
C36	C	1.624773	0.452439	0.500045
C37	C	1.210445	-0.276903	0.000069
C38	C	1.710445	0.223097	0.500069
C39	C	1.169642	-0.335317	-0.088012
C40	C	1.669642	0.164683	0.411988
C41	C	1.121337	-0.218539	0.000058
C42	C	1.621337	0.281461	0.500058
C43	C	1.158829	-0.326525	0.088115
C44	C	1.658829	0.173475	0.588115
C45	C	1.118025	-0.383696	0.000075
C46	C	1.618025	0.116304	0.500075
C47	C	1.080562	-0.275727	-0.088097
C48	C	1.580562	0.224273	0.411903
C49	C	1.069758	-0.266927	0.088109
C50	C	1.569758	0.233073	0.588109
C51	C	1.028890	-0.325314	0.000006
C52	C	1.528890	0.174686	0.500006
C53	C	1.123248	-0.123397	0.000047
C54	C	1.623248	0.376603	0.500047
C55	C	1.116107	-0.478836	0.000078
C56	C	1.616107	0.021164	0.500078
C57	C	1.292977	0.205737	0.000078
C58	C	1.792977	0.705737	0.500078
C59	C	1.398201	0.215281	0.000078
C60	C	1.898201	0.715281	0.500078
C61	C	1.112732	0.351933	0.000082
C62	C	1.612732	0.851933	0.500082
C63	C	1.114585	0.445321	0.000089
C64	C	1.614585	0.945321	0.500089
N65	N	1.104108	0.211538	0.254296
N66	N	1.604108	0.711538	0.754296
N67	N	1.135257	0.186216	-0.254153
N68	N	1.635257	0.686216	0.245847
C69	C	1.090725	0.222428	0.473412
C70	C	1.590725	0.722428	0.973412
C71	C	1.148637	0.175329	0.526738
C72	C	1.648637	0.675329	1.026738
C73	C	1.141191	0.181388	0.648662
C74	C	1.641191	0.681388	1.148662
C75	C	1.098170	0.216370	0.351477
C76	C	1.598170	0.716370	0.851477
H77	H	1.287206	-0.255530	-0.000015
H78	H	1.787206	0.244470	0.499985
H79	H	0.622024	0.297937	0.000071
H80	H	1.122024	0.797937	0.500071
H81	H	1.035556	0.267300	0.519320
H82	H	1.535556	0.767300	1.019320
H83	H	1.203811	0.130455	0.480825
H84	H	1.703811	0.630455	0.980825
H85	H	1.047520	-0.253435	-0.162643
H86	H	1.547520	0.246565	0.337357
Cl87	Cl	1.234784	-0.381383	-0.202977
Cl88	Cl	1.734784	0.118617	0.297023
Cl89	Cl	0.910300	-0.358084	-0.000070
Cl90	Cl	1.410300	0.141916	0.499930
Cl91	Cl	0.600392	0.064343	0.000055
Cl92	Cl	1.100392	0.564343	0.500055
Cl93	Cl	1.004682	-0.220812	0.203081
Cl94	Cl	1.504682	0.279188	0.703081
Cl95	Cl	1.209910	-0.361113	0.203079
Cl96	Cl	1.709910	0.138887	0.703079
