data_functionalizedCrystal
_audit_creation_method	'MofGen! by Chris Wilmer'
_symmetry_space_group_name_H-M	'P1'
_symmetry_Int_Tables_number	1
_symmetry_cell_setting	triclinic
loop_
_symmetry_equiv_pos_as_xyz
  x,y,z
_cell_length_a	19.077105
_cell_length_b	21.295417
_cell_length_c	19.076919
_cell_angle_alpha	87.733380
_cell_angle_beta	89.923776
_cell_angle_gamma	87.726672
loop_
_atom_site_label
_atom_site_type_symbol
_atom_site_fract_x
_atom_site_fract_y
_atom_site_fract_z
Zn1	Zn	1.058236	-0.304534	0.440387
Zn2	Zn	1.391569	0.028799	0.773720
Zn3	Zn	1.724902	0.362132	1.107054
Zn4	Zn	1.062864	-0.405747	0.322870
Zn5	Zn	1.396197	-0.072414	0.656204
Zn6	Zn	1.729531	0.260919	0.989537
Zn7	Zn	0.945454	-0.296102	0.318181
Zn8	Zn	1.278788	0.037232	0.651515
Zn9	Zn	1.612121	0.370565	0.984848
Zn10	Zn	0.940686	-0.405368	0.435623
Zn11	Zn	1.274019	-0.072034	0.768956
Zn12	Zn	1.607352	0.261299	1.102289
O13	O	1.001810	-0.352938	0.379265
O14	O	1.335143	-0.019605	0.712599
O15	O	1.668477	0.313729	1.045932
O16	O	1.157181	-0.321649	0.428754
O17	O	1.490514	0.011685	0.762088
O18	O	1.823848	0.345018	1.095421
O19	O	1.051222	-0.387832	0.223917
O20	O	1.384555	-0.054499	0.557251
O21	O	1.717889	0.278834	0.890584
O22	O	0.960474	-0.209134	0.334424
O23	O	1.293807	0.124199	0.667757
O24	O	1.627140	0.457532	1.001091
O25	O	1.160581	-0.396009	0.342415
O26	O	1.493915	-0.062676	0.675749
O27	O	1.827248	0.270657	1.009082
O28	O	1.043334	-0.215330	0.424208
O29	O	1.376667	0.118004	0.757541
O30	O	1.710000	0.451337	1.090875
O31	O	0.964962	-0.307276	0.220472
O32	O	1.298295	0.026057	0.553806
O33	O	1.631628	0.359390	0.887139
O34	O	0.846490	-0.306908	0.329804
O35	O	1.179824	0.026425	0.663137
O36	O	1.513157	0.359758	0.996471
O37	O	0.952346	-0.395362	0.534586
O38	O	1.285680	-0.062029	0.867919
O39	O	1.619013	0.271304	1.201252
O40	O	0.842987	-0.387185	0.416088
O41	O	1.176320	-0.053852	0.749421
O42	O	1.509654	0.279481	1.082754
O43	O	1.038710	-0.321280	0.538086
O44	O	1.372043	0.012053	0.871419
O45	O	1.705376	0.345386	1.204753
O46	O	1.046598	-0.493783	0.337795
O47	O	1.379931	-0.160450	0.671129
O48	O	1.713265	0.172883	1.004462
O49	O	0.956834	-0.493504	0.420634
O50	O	1.290168	-0.160171	0.753968
O51	O	1.623501	0.173162	1.087301
C52	C	0.819242	-0.346091	0.371921
C53	C	1.152576	-0.012758	0.705254
C54	C	1.485909	0.320576	1.038587
C55	C	0.741139	-0.343178	0.368795
C56	C	1.074472	-0.009844	0.702128
C57	C	1.407805	0.323489	1.035462
C58	C	0.702642	-0.383663	0.412179
C59	C	1.035976	-0.050330	0.745513
C60	C	1.369309	0.283003	1.078846
C61	C	0.629255	-0.380918	0.409246
C62	C	0.962589	-0.047584	0.742579
C63	C	1.295922	0.285749	1.075913
C64	C	0.594366	-0.337689	0.362924
C65	C	0.927699	-0.004356	0.696258
C66	C	1.261033	0.328978	1.029591
C67	C	0.632868	-0.297199	0.319538
C68	C	0.966201	0.036134	0.652872
C69	C	1.299534	0.369468	0.986205
C70	C	0.706253	-0.299942	0.322476
C71	C	1.039586	0.033391	0.655809
C72	C	1.372920	0.366725	0.989142
C73	C	0.375080	-0.324994	0.349333
C74	C	0.708414	0.008339	0.682666
C75	C	1.041747	0.341672	1.016000
C76	C	0.301690	-0.322256	0.346397
C77	C	0.635023	0.011078	0.679731
C78	C	0.968356	0.344411	1.013064
C79	C	0.298082	-0.405974	0.436106
C80	C	0.631416	-0.072640	0.769440
C81	C	0.964749	0.260693	1.102773
C82	C	0.371470	-0.408715	0.439037
C83	C	0.704803	-0.075382	0.772370
C84	C	1.038136	0.257951	1.105703
C85	C	0.409965	-0.368223	0.395653
C86	C	0.743298	-0.034890	0.728987
C87	C	1.076631	0.298443	1.062320
N88	N	0.519353	-0.334883	0.359923
N89	N	0.852686	-0.001550	0.693257
N90	N	1.186020	0.331784	1.026590
N91	N	0.484976	-0.371027	0.398658
N92	N	0.818310	-0.037693	0.731992
N93	N	1.151643	0.295640	1.065325
C94	C	1.001719	-0.516485	0.379223
C95	C	1.335053	-0.183151	0.712556
C96	C	1.668386	0.150182	1.045889
C97	C	1.001744	-0.586454	0.379231
C98	C	1.335077	-0.253121	0.712564
C99	C	1.668411	0.080213	1.045897
C100	C	1.048522	-0.619448	0.336144
C101	C	1.381855	-0.286115	0.669477
C102	C	1.715189	0.047219	1.002811
C103	C	1.048554	-0.685192	0.336161
C104	C	1.381888	-0.351859	0.669495
C105	C	1.715221	-0.018526	1.002828
C106	C	1.001796	-0.717939	0.379257
C107	C	1.335130	-0.384606	0.712590
C108	C	1.668463	-0.051273	1.045924
C109	C	0.955015	-0.684937	0.422352
C110	C	1.288348	-0.351604	0.755685
C111	C	1.621681	-0.018271	1.089019
C112	C	0.954989	-0.619195	0.422339
C113	C	1.288322	-0.285862	0.755672
C114	C	1.621655	0.047472	1.089006
N115	N	0.940111	-0.819089	0.382141
N116	N	1.273444	-0.485755	0.715474
N117	N	1.606777	-0.152422	1.048807
N118	N	0.940138	-0.881541	0.382149
N119	N	1.273471	-0.548208	0.715483
N120	N	1.606804	-0.214875	1.048816
C121	C	1.001873	-0.916018	0.379300
C122	C	1.335207	-0.582685	0.712634
C123	C	1.668540	-0.249352	1.045967
N124	N	1.063583	-0.885683	0.376429
N125	N	1.396916	-0.552350	0.709762
N126	N	1.730250	-0.219016	1.043096
N127	N	1.063555	-0.823224	0.376417
N128	N	1.396888	-0.489891	0.709750
N129	N	1.730222	-0.156558	1.043084
C130	C	1.001820	-0.789226	0.379276
C131	C	1.335153	-0.455893	0.712610
C132	C	1.668486	-0.122560	1.045943
C133	C	1.048690	-1.020300	0.336230
C134	C	1.382024	-0.686967	0.669564
C135	C	1.715357	-0.353633	1.002897
C136	C	1.048724	-1.086046	0.336252
C137	C	1.382057	-0.752712	0.669586
C138	C	1.715390	-0.419379	1.002919
C139	C	0.955178	-1.085789	0.422439
C140	C	1.288511	-0.752456	0.755773
C141	C	1.621845	-0.419122	1.089106
C142	C	0.955151	-1.020045	0.422421
C143	C	1.288484	-0.686712	0.755755
C144	C	1.621817	-0.353378	1.089088
C145	C	1.001906	-0.987304	0.379313
C146	C	1.335240	-0.653971	0.712646
C147	C	1.668573	-0.320638	1.045979
C148	C	1.185090	-0.359812	0.386639
C149	C	1.518424	-0.026479	0.719973
C150	C	1.851757	0.306855	1.053306
C151	C	1.263193	-0.362741	0.389782
C152	C	1.596527	-0.029408	0.723115
C153	C	1.929860	0.303925	1.056448
C154	C	0.994480	-0.359220	0.562545
C155	C	1.327813	-0.025886	0.895878
C156	C	1.661146	0.307447	1.229212
C157	C	0.991356	-0.361897	0.640648
C158	C	1.324689	-0.028563	0.973981
C159	C	1.658023	0.304770	1.307314
C160	C	1.001919	-0.188754	0.379324
C161	C	1.335253	0.144580	0.712658
C162	C	1.668586	0.477913	1.045991
C163	C	1.001966	-0.118788	0.379349
C164	C	1.335299	0.214545	0.712683
C165	C	1.668633	0.547879	1.046016
C166	C	1.009152	-0.346637	0.196700
C167	C	1.342485	-0.013303	0.530034
C168	C	1.675819	0.320030	0.863367
C169	C	1.012412	-0.343787	0.118604
C170	C	1.345745	-0.010454	0.451937
C171	C	1.679079	0.322879	0.785270
C172	C	1.034851	-0.324586	0.679164
C173	C	1.368184	0.008748	1.012497
C174	C	1.701518	0.342081	1.345831
C175	C	1.031907	-0.327098	0.752550
C176	C	1.365241	0.006235	1.085883
C177	C	1.698574	0.339569	1.419216
C178	C	0.985472	-0.366925	0.787418
C179	C	1.318805	-0.033592	1.120751
C180	C	1.652139	0.299741	1.454084
C181	C	0.941972	-0.404238	0.748896
C182	C	1.275306	-0.070905	1.082229
C183	C	1.608639	0.262429	1.415563
C184	C	0.944913	-0.401722	0.675512
C185	C	1.278246	-0.068388	1.008845
C186	C	1.611579	0.264945	1.342178
C187	C	0.971853	-0.378584	1.006698
C188	C	1.305186	-0.045250	1.340031
C189	C	1.638519	0.288083	1.673364
C190	C	0.968917	-0.381099	1.080087
C191	C	1.302250	-0.047765	1.413421
C192	C	1.635584	0.285568	1.746754
C193	C	1.058852	-0.303958	1.083736
C194	C	1.392185	0.029376	1.417069
C195	C	1.725518	0.362709	1.750402
C196	C	1.061791	-0.301448	1.010350
C197	C	1.395124	0.031886	1.343683
C198	C	1.728458	0.365219	1.677017
C199	C	1.018289	-0.338758	0.971835
C200	C	1.351622	-0.005424	1.305168
C201	C	1.684955	0.327909	1.638501
N202	N	0.982464	-0.369496	0.862429
N203	N	1.315797	-0.036163	1.195763
N204	N	1.649130	0.297171	1.529096
N205	N	1.021294	-0.336183	0.896824
N206	N	1.354627	-0.002850	1.230157
N207	N	1.687961	0.330483	1.563491
H208	H	0.737596	-0.266971	0.287151
H209	H	1.070929	0.066362	0.620484
H210	H	1.404262	0.399695	0.953818
H211	H	0.604455	-0.261999	0.281825
H212	H	0.937788	0.071334	0.615158
H213	H	1.271121	0.404668	0.948492
F214	F	1.105145	-0.264251	1.124732
F215	F	1.438478	0.069082	1.458065
F216	F	1.771812	0.402416	1.791398
H217	H	0.399871	-0.443918	0.476755
H218	H	0.733205	-0.110585	0.810088
H219	H	1.066538	0.222749	1.143422
H220	H	0.273285	-0.287047	0.308681
H221	H	0.606618	0.046287	0.642014
H222	H	0.939952	0.379620	0.975348
F223	F	1.098291	-0.584607	0.290272
F224	F	1.431624	-0.251274	0.623606
F225	F	1.764958	0.082060	0.956939
F226	F	1.098343	-0.720314	0.290300
F227	F	1.431677	-0.386981	0.623633
F228	F	1.765010	-0.053647	0.956967
H229	H	0.266732	-0.438939	0.471428
H230	H	0.600065	-0.105606	0.804761
H231	H	0.933399	0.227727	1.138094
H232	H	0.406414	-0.292027	0.314002
H233	H	0.739748	0.041306	0.647335
H234	H	1.073081	0.374639	0.980668
H235	H	0.916945	-0.711604	0.457442
H236	H	1.250279	-0.378271	0.790776
H237	H	1.583612	-0.044938	1.124109
H238	H	0.916895	-0.592330	0.457426
H239	H	1.250229	-0.258997	0.790759
H240	H	1.583562	0.074336	1.124093
H241	H	0.909487	-0.432098	0.644152
H242	H	1.242821	-0.098764	0.977485
H243	H	1.576154	0.234569	1.310819
F244	F	0.925553	-0.418293	0.965716
F245	F	1.258887	-0.084959	1.299049
F246	F	1.592220	0.248374	1.632383
H247	H	1.086764	-0.993641	0.301131
H248	H	1.420097	-0.660308	0.634464
H249	H	1.753430	-0.326975	0.967798
F250	F	1.098519	-1.121160	0.290396
F251	F	1.431852	-0.787827	0.623729
F252	F	1.765185	-0.454494	0.957063
H253	H	0.731044	-0.418867	0.449897
H254	H	1.064377	-0.085533	0.783231
H255	H	1.397711	0.247800	1.116564
H256	H	1.067327	-0.296717	0.783907
H257	H	1.400661	0.036616	1.117240
H258	H	1.733994	0.369950	1.450573
F259	F	0.892549	-0.446623	0.786007
F260	F	1.225882	-0.113289	1.119340
F261	F	1.559216	0.220044	1.452674
H262	H	0.917110	-1.112451	0.457532
H263	H	1.250443	-0.779118	0.790865
H264	H	1.583776	-0.445785	1.124199
F265	F	0.588288	-0.424008	0.455422
F266	F	0.921621	-0.090675	0.788755
F267	F	1.254955	0.242659	1.122089
H268	H	0.917057	-0.993179	0.457503
H269	H	1.250390	-0.659846	0.790837
H270	H	1.583723	-0.326513	1.124170
F271	F	1.084278	-0.282199	0.642062
F272	F	1.417611	0.051135	0.975395
F273	F	1.750945	0.384468	1.308728
F274	F	1.111214	-0.259058	0.973246
F275	F	1.444548	0.074275	1.306580
F276	F	1.777881	0.407608	1.639913
F277	F	0.919489	-0.423487	1.117195
F278	F	1.252822	-0.090154	1.450528
F279	F	1.586155	0.243179	1.783861
