data_functionalizedCrystal
_audit_creation_method	'MofGen! by Chris Wilmer'
_symmetry_space_group_name_H-M	'P1'
_symmetry_Int_Tables_number	1
_symmetry_cell_setting	triclinic
loop_
_symmetry_equiv_pos_as_xyz
  x,y,z
_cell_length_a	6.817900
_cell_length_b	17.982968
_cell_length_c	11.102244
_cell_angle_alpha	94.232195
_cell_angle_beta	108.604870
_cell_angle_gamma	102.451960
loop_
_atom_site_label
_atom_site_type_symbol
_atom_site_fract_x
_atom_site_fract_y
_atom_site_fract_z
V1	V	-4.041367	-0.237546	-0.177029
O2	O	-4.001741	-0.233027	0.007282
O3	O	-4.018618	-0.235920	-0.349840
O4	O	-3.987550	-0.341150	-0.174843
O5	O	-4.033024	-0.127068	-0.168927
V6	V	-4.522373	-0.224333	-0.154920
O7	O	-4.308146	-0.266532	-0.225527
O8	O	-4.705791	-0.195347	-0.106421
O9	O	-4.321915	-0.225959	0.017892
O10	O	-4.679396	-0.228853	-0.339231
O11	O	-4.648112	-0.334811	-0.163022
O12	O	-4.352983	-0.120730	-0.157105
C13	C	-3.870034	-0.232172	-0.391951
C14	C	-3.932685	-0.231533	-0.533230
C15	C	-3.922552	-0.161465	-0.581114
C16	C	-3.981432	-0.160873	-0.713863
C17	C	-4.060567	-0.300423	-0.750835
C18	C	-4.001702	-0.301014	-0.618088
C19	C	-3.876856	-0.080897	-0.559769
C20	C	-3.935736	-0.080305	-0.692519
C21	C	-3.830402	-0.366402	-0.168724
C22	C	-3.867854	-0.451098	-0.168080
C23	C	-4.068315	-0.494770	-0.174146
C24	C	-4.103492	-0.574350	-0.173541
C25	C	-3.938211	-0.610259	-0.166878
C26	C	-3.737732	-0.566581	-0.160808
C27	C	-3.702553	-0.487001	-0.161404
C28	C	-3.879603	-0.887518	-0.158401
C29	C	-3.914801	-0.967104	-0.157809
C30	C	-4.280542	-0.974867	-0.170538
C31	C	-4.245363	-0.895287	-0.171134
C32	C	-4.044885	-0.851616	-0.165057
C33	C	-4.006742	-0.765325	-0.165711
C34	C	-3.976356	-0.696549	-0.166233
C35	C	-4.133842	-0.229705	0.059996
C36	C	-4.050429	-0.230349	0.201274
C37	C	-4.173474	-0.095473	-0.163229
C38	C	-4.115259	-0.010776	-0.163866
H39	H	-4.202915	-0.465540	-0.179580
H40	H	-3.793759	-0.046297	-0.715367
O41	O	-3.754313	-1.002056	-0.151158
C42	C	-3.527588	-1.077028	-0.032381
C43	C	-3.709371	-1.037493	-0.039770
H44	H	-3.491166	-1.105675	0.057683
H45	H	-3.578592	-1.122485	-0.121118
H46	H	-3.378312	-1.032137	-0.028199
H47	H	-3.858715	-1.082327	-0.043911
H48	H	-3.658190	-0.992022	0.048966
H49	H	-4.379958	-0.866056	-0.176566
H50	H	-4.266720	-0.609904	-0.178473
H51	H	-4.009974	-0.358070	-0.579109
H52	H	-3.699556	-0.053071	-0.506828
O53	O	-3.685073	-0.845089	-0.152817
C54	C	-3.487411	-0.761268	-0.257118
C55	C	-3.707847	-0.809244	-0.263503
H56	H	-3.505742	-0.732287	-0.346609
H57	H	-3.417762	-0.715381	-0.167790
H58	H	-3.375497	-0.800668	-0.252261
H59	H	-3.819922	-0.769905	-0.268408
H60	H	-3.777321	-0.855137	-0.352816
O61	O	-4.475277	-1.017390	-0.176596
C62	C	-4.781438	-1.122055	-0.294023
C63	C	-4.560915	-1.073972	-0.287296
H64	H	-4.850761	-1.167802	-0.383531
H65	H	-4.763420	-1.151214	-0.204727
H66	H	-4.893462	-1.082703	-0.298832
H67	H	-4.448774	-1.113271	-0.282529
H68	H	-4.579100	-1.044805	-0.376591
H69	H	-3.603157	-0.595823	-0.155375
O70	O	-4.127946	-0.367940	-0.833230
C71	C	-4.387342	-0.490660	-0.911557
C72	C	-4.311299	-0.414222	-0.818208
H73	H	-4.535566	-0.528107	-0.899425
H74	H	-4.427845	-0.478251	-1.014692
H75	H	-4.254793	-0.522235	-0.889597
H76	H	-4.443754	-0.382609	-0.840050
H77	H	-4.270730	-0.426683	-0.715101
O78	O	-3.507759	-0.444520	-0.155298
C79	C	-3.201709	-0.339792	-0.037973
C80	C	-3.422267	-0.387852	-0.044718
H81	H	-3.132543	-0.293954	0.051409
H82	H	-3.089478	-0.379079	-0.033029
H83	H	-3.219896	-0.310730	-0.127374
H84	H	-3.404284	-0.416921	0.044661
H85	H	-3.534417	-0.348528	-0.049726
O86	O	-4.004608	-0.047672	-0.513172
C87	C	-4.296326	0.013555	-0.561609
C88	C	-4.151843	-0.024071	-0.614556
H89	H	-4.415372	0.032661	-0.643547
H90	H	-4.386858	-0.029870	-0.515847
H91	H	-4.193591	0.065780	-0.486201
H92	H	-4.254421	-0.076291	-0.690009
H93	H	-4.061298	0.019403	-0.660237
O94	O	-4.113207	-0.053738	-0.739972
C95	C	-4.264064	0.042297	-0.849922
C96	C	-4.062957	0.012270	-0.796282
H97	H	-4.223498	0.095678	-0.895437
H98	H	-4.394882	-0.004311	-0.925622
H99	H	-4.322673	0.057782	-0.768323
H100	H	-4.004160	-0.003208	-0.877793
H101	H	-3.932272	0.058898	-0.720548
