data_functionalizedCrystal
_audit_creation_method	'MofGen! by Chris Wilmer'
_symmetry_space_group_name_H-M	'P1'
_symmetry_Int_Tables_number	1
_symmetry_cell_setting	triclinic
loop_
_symmetry_equiv_pos_as_xyz
  x,y,z
_cell_length_a	12.759401
_cell_length_b	12.759400
_cell_length_c	12.759393
_cell_angle_alpha	90.028927
_cell_angle_beta	90.018567
_cell_angle_gamma	90.013328
loop_
_atom_site_label
_atom_site_type_symbol
_atom_site_fract_x
_atom_site_fract_y
_atom_site_fract_z
Zn1	Zn	1.606258	-0.418231	0.594003
Zn2	Zn	1.606154	-0.593950	0.418331
Zn3	Zn	1.430560	-0.418283	0.418342
Zn4	Zn	1.430550	-0.593866	0.593972
O5	O	1.518381	-0.506082	0.506162
O6	O	1.753266	-0.441554	0.570708
O7	O	1.582822	-0.570704	0.271311
O8	O	1.453915	-0.271255	0.441661
O9	O	1.753189	-0.570654	0.441642
O10	O	1.583000	-0.271217	0.570718
O11	O	1.453814	-0.441642	0.271319
O12	O	1.283538	-0.441560	0.441631
O13	O	1.453898	-0.570511	0.740997
O14	O	1.283531	-0.570561	0.570666
O15	O	1.582990	-0.441473	0.741020
O16	O	1.582812	-0.740960	0.441613
O17	O	1.453797	-0.740898	0.570655
C18	C	1.245413	-0.506058	0.506147
C19	C	1.128637	-0.506072	0.506166
C20	C	1.073808	-0.438977	0.573474
C21	C	0.964084	-0.438997	0.573481
C22	C	0.964027	-0.573217	0.438868
C23	C	1.073749	-0.573191	0.438857
C24	C	1.128695	-0.371858	0.640784
C25	C	1.073866	-0.304758	0.708098
C26	C	0.964142	-0.304778	0.708105
C27	C	0.909247	-0.371899	0.640797
C28	C	1.518320	-0.779050	0.506152
C29	C	1.518391	-0.895826	0.506184
C30	C	1.451198	-0.950694	0.573323
C31	C	1.451254	-1.060418	0.573333
C32	C	1.585704	-1.060397	0.439061
C33	C	1.585642	-0.950675	0.439047
C34	C	1.383947	-0.895846	0.640460
C35	C	1.316749	-0.950714	0.707606
C36	C	1.316805	-1.060438	0.707616
C37	C	1.384058	-1.115294	0.640480
C38	C	1.792414	-0.506108	0.506177
C39	C	1.909191	-0.506119	0.506184
C40	C	1.518454	-0.505976	0.780195
C41	C	1.518486	-0.505931	0.896972
C42	C	1.518470	-0.232049	0.506194
C43	C	1.518508	-0.115272	0.506208
C44	C	1.518368	-0.506112	0.233194
C45	C	1.518540	-0.505861	0.116418
C46	C	1.585713	-0.438735	0.951847
C47	C	1.585738	-0.438697	1.061572
C48	C	1.451305	-0.573061	1.061535
C49	C	1.451276	-0.573093	0.951813
C50	C	1.652923	-0.371573	0.897006
C51	C	1.720157	-0.304372	0.951882
C52	C	1.720182	-0.304334	1.061606
C53	C	1.652973	-0.371497	1.116455
H54	H	0.919503	-0.250135	0.762908
O55	O	1.785471	-0.239032	0.898770
C56	C	1.918855	-0.105800	0.910388
C57	C	1.844923	-0.179729	0.970664
H58	H	1.966956	-0.057850	0.968488
H59	H	1.870678	-0.050805	0.859052
H60	H	1.973716	-0.154076	0.858988
H61	H	1.790046	-0.131537	1.022121
H62	H	1.893164	-0.234727	1.021934
O63	O	1.651015	-1.113843	0.373969
C64	C	1.710687	-1.282868	0.314480
C65	C	1.636673	-1.222474	0.388255
H66	H	1.699102	-1.370707	0.325989
H67	H	1.795398	-1.261283	0.333021
H68	H	1.692303	-1.261314	0.229748
H69	H	1.654963	-1.243996	0.473011
H70	H	1.551985	-1.244064	0.369624
H71	H	1.652913	-0.371599	0.807663
O72	O	1.126855	-0.638472	0.373447
C73	C	1.115230	-0.771569	0.239896
C74	C	1.054957	-0.697710	0.313938
H75	H	1.057127	-0.819466	0.191748
H76	H	1.166589	-0.826616	0.287989
H77	H	1.166606	-0.723240	0.185083
H78	H	1.003524	-0.745954	0.368766
H79	H	1.003664	-0.642660	0.265780
O80	O	1.235280	-0.371671	0.640877
C81	C	1.392769	-0.298050	0.714778
C82	C	1.272065	-0.298133	0.714761
H83	H	1.422547	-0.238616	0.774523
H84	H	1.422586	-0.276080	0.633486
H85	H	1.422535	-0.379459	0.736387
H86	H	1.242210	-0.216748	0.693198
H87	H	1.242320	-0.320162	0.796063
H88	H	1.262084	-1.105109	0.762283
H89	H	1.384095	-1.204639	0.640491
H90	H	1.652987	-0.371449	1.205800
O91	O	1.785531	-0.239199	1.115032
C92	C	1.927449	-0.225040	1.238884
C93	C	1.853487	-0.298923	1.178465
H94	H	1.982424	-0.273298	1.290167
H95	H	1.879299	-0.170099	1.290327
H96	H	1.975428	-0.177019	1.180819
H97	H	1.805492	-0.347012	1.236453
H98	H	1.901697	-0.353794	1.127006
H99	H	1.396587	-0.627741	1.106202
O100	O	1.385961	-0.638487	0.898663
C101	C	1.252627	-0.771757	0.910196
C102	C	1.326552	-0.697759	0.970519
H103	H	1.204559	-0.819682	0.968266
H104	H	1.300806	-0.826772	0.858860
H105	H	1.197733	-0.723536	0.858791
H106	H	1.381460	-0.745896	1.021981
H107	H	1.278307	-0.642742	1.021789
H108	H	1.118569	-0.250105	0.762892
H109	H	0.819902	-0.371887	0.640785
O110	O	1.651009	-0.897531	0.373793
C111	C	1.784317	-0.909080	0.240560
C112	C	1.710367	-0.969395	0.314431
H113	H	1.832311	-0.967155	0.192531
H114	H	1.839269	-0.857660	0.288779
H115	H	1.736054	-0.857759	0.185627
H116	H	1.758545	-1.020772	0.369379
H117	H	1.655412	-1.020748	0.266147
H118	H	1.383896	-0.806503	0.640462
H119	H	0.919323	-0.627865	0.384071
H120	H	1.261988	-0.906045	0.762260
