data_functionalizedCrystal
_audit_creation_method	'MofGen! by Chris Wilmer'
_symmetry_space_group_name_H-M	'P1'
_symmetry_Int_Tables_number	1
_symmetry_cell_setting	triclinic
loop_
_symmetry_equiv_pos_as_xyz
  x,y,z
_cell_length_a	19.077692
_cell_length_b	13.897449
_cell_length_c	19.076919
_cell_angle_alpha	87.723209
_cell_angle_beta	94.657889
_cell_angle_gamma	92.269235
loop_
_atom_site_label
_atom_site_type_symbol
_atom_site_fract_x
_atom_site_fract_y
_atom_site_fract_z
Zn1	Zn	-0.296667	-1.468342	-0.409947
Zn2	Zn	-0.409813	-1.480679	-0.296799
Zn3	Zn	-0.291951	-1.313277	-0.292068
Zn4	Zn	-0.414509	-1.313212	-0.414634
O5	O	-0.353235	-1.393877	-0.353362
O6	O	-0.311685	-1.604960	-0.394956
O7	O	-0.390239	-1.463663	-0.197525
O8	O	-0.193934	-1.328710	-0.303764
O9	O	-0.394812	-1.614024	-0.311827
O10	O	-0.197399	-1.442636	-0.390369
O11	O	-0.303647	-1.340673	-0.194049
O12	O	-0.308200	-1.178287	-0.308308
O13	O	-0.402816	-1.328600	-0.512659
O14	O	-0.398243	-1.178240	-0.398357
O15	O	-0.316238	-1.442574	-0.509216
O16	O	-0.509078	-1.463601	-0.316372
O17	O	-0.512528	-1.340563	-0.402944
C18	C	-0.353220	-1.143264	-0.353328
C19	C	-0.353231	-1.036051	-0.353331
C20	C	-0.536381	-1.403439	-0.360695
C21	C	-0.614732	-1.407617	-0.363856
C22	C	-0.353233	-0.948981	-0.353340
C23	C	-0.353237	-0.839747	-0.353358
C24	C	-0.649800	-1.350321	-0.320221
C25	C	-0.723419	-1.354256	-0.323194
C26	C	-0.761971	-1.415482	-0.369806
C27	C	-0.726898	-1.472783	-0.413443
C28	C	-0.653280	-1.468853	-0.410466
C29	C	-0.982333	-1.433596	-0.383545
C30	C	-1.055957	-1.437520	-0.386520
C31	C	-1.052473	-1.318993	-0.296270
C32	C	-0.978853	-1.315064	-0.293300
C33	C	-0.943787	-1.372369	-0.336934
N34	N	-0.837222	-1.419503	-0.372848
N35	N	-0.868537	-1.368353	-0.333889
C36	C	-0.169375	-1.384304	-0.346016
C37	C	-0.091024	-1.380224	-0.342885
C38	C	-0.360577	-1.384204	-0.537231
C39	C	-0.363705	-1.380081	-0.615585
C40	C	-0.353247	-0.645470	-0.353388
C41	C	-0.353244	-0.752684	-0.353376
C42	C	-0.320101	-1.437481	-0.650604
C43	C	-0.323038	-1.433596	-0.724225
C44	C	-0.369583	-1.372315	-0.762827
C45	C	-0.413189	-1.314908	-0.727803
C46	C	-0.410248	-1.318789	-0.654182
C47	C	-0.383209	-1.354340	-0.983201
C48	C	-0.386148	-1.350465	-1.056826
C49	C	-0.295995	-1.469152	-1.053244
C50	C	-0.293061	-1.473032	-0.979622
C51	C	-0.336665	-1.415622	-0.944604
N52	N	-0.372588	-1.368344	-0.838080
N53	N	-0.333656	-1.419588	-0.869352
C54	C	-0.345871	-1.403567	-0.170207
C55	C	-0.342544	-1.407865	-0.091845
H56	H	-0.751968	-1.307603	-0.287660
C57	C	-0.841296	-1.531429	-0.458085
C58	C	-0.769272	-1.540082	-0.464682
H59	H	-0.867453	-1.572972	-0.489723
H60	H	-0.851481	-1.548737	-0.411226
H61	H	-0.853799	-1.466709	-0.468844
H62	H	-0.756767	-1.604801	-0.453917
H63	H	-0.759082	-1.522780	-0.511552
C64	C	-0.964358	-1.472956	-0.502026
C65	C	-0.943797	-1.496581	-0.431511
H66	H	-0.940562	-1.511841	-0.531639
H67	H	-1.013715	-1.484054	-0.510462
H68	H	-0.952731	-1.406953	-0.511802
H69	H	-0.955429	-1.562583	-0.421734
H70	H	-0.894430	-1.485492	-0.423072
C71	C	-1.142485	-1.450220	-0.484694
C72	C	-1.098344	-1.504815	-0.437759
H73	H	-1.168651	-1.491760	-0.516328
H74	H	-1.173893	-1.416658	-0.459127
H75	H	-1.114842	-1.405227	-0.510467
H76	H	-1.125987	-1.549803	-0.411983
H77	H	-1.066932	-1.538393	-0.463330
H78	H	-0.624728	-1.515510	-0.445997
H79	H	-0.618416	-1.300461	-0.282268
H80	H	-0.451085	-1.265008	-0.759238
H81	H	-0.445749	-1.272038	-0.625670
H82	H	-1.081032	-1.272340	-0.260745
C83	C	-0.982807	-1.198324	-0.204374
C84	C	-0.936480	-1.247778	-0.242052
H85	H	-0.956645	-1.156790	-0.172732
H86	H	-1.012750	-1.161304	-0.236219
H87	H	-1.010436	-1.243343	-0.178608
H88	H	-0.908854	-1.202759	-0.267822
H89	H	-0.906524	-1.284800	-0.210203
H90	H	-0.282200	-1.487386	-0.619180
C91	C	-0.233642	-1.551315	-0.713290
C92	C	-0.275111	-1.496699	-0.762719
H93	H	-0.204056	-1.590277	-0.737056
H94	H	-0.205527	-1.509402	-0.683492
H95	H	-0.263221	-1.591317	-0.685809
H96	H	-0.245531	-1.456691	-0.790197
H97	H	-0.303228	-1.538616	-0.792529
C98	C	-0.204237	-1.589949	-0.983479
C99	C	-0.241893	-1.540389	-0.937194
H100	H	-0.172646	-1.631529	-0.957284
H101	H	-0.236098	-1.626930	-1.013425
H102	H	-0.178419	-1.544995	-1.011111
H103	H	-0.267715	-1.585342	-0.909566
H104	H	-0.210028	-1.503405	-0.907235
C105	C	-0.260466	-1.515897	-1.164508
C106	C	-0.248061	-1.532244	-1.091737
H107	H	-0.230867	-1.554844	-1.188270
H108	H	-0.308304	-1.531850	-1.178465
H109	H	-0.250629	-1.449911	-1.176141
H110	H	-0.257904	-1.598229	-1.080103
H111	H	-0.200212	-1.516297	-1.077775
H112	H	-0.424053	-1.300560	-1.088254
C113	C	-0.472600	-1.236615	-0.994146
C114	C	-0.431129	-1.291223	-0.944715
H115	H	-0.502184	-1.197647	-0.970383
H116	H	-0.443028	-1.196628	-1.021634
H117	H	-0.500724	-1.278540	-1.023939
H118	H	-0.403002	-1.249298	-0.914925
H119	H	-0.460705	-1.331214	-0.917216
