data_functionalizedCrystal
_audit_creation_method	'MofGen! by Chris Wilmer'
_symmetry_space_group_name_H-M	'P1'
_symmetry_Int_Tables_number	1
_symmetry_cell_setting	triclinic
loop_
_symmetry_equiv_pos_as_xyz
  x,y,z
_cell_length_a	18.101398
_cell_length_b	13.032721
_cell_length_c	13.032268
_cell_angle_alpha	76.710373
_cell_angle_beta	97.157621
_cell_angle_gamma	82.799479
loop_
_atom_site_label
_atom_site_type_symbol
_atom_site_fract_x
_atom_site_fract_y
_atom_site_fract_z
Zn1	Zn	1.028325	0.499224	-0.654372
Zn2	Zn	1.028244	0.654309	-0.499320
Zn3	Zn	0.922501	0.476704	-0.476774
Zn4	Zn	0.886455	0.676763	-0.676838
O5	O	0.966381	0.576750	-0.576826
O6	O	1.131942	0.519824	-0.633837
O7	O	1.029269	0.611927	-0.347711
O8	O	0.951658	0.331063	-0.481495
O9	O	1.131883	0.633764	-0.519921
O10	O	1.029407	0.347609	-0.611975
O11	O	0.951579	0.481442	-0.331147
O12	O	0.814092	0.503215	-0.503280
O13	O	0.890223	0.672034	-0.822475
O14	O	0.787609	0.650197	-0.650266
O15	O	0.994454	0.541597	-0.805969
O16	O	0.994317	0.805916	-0.541705
O17	O	0.890144	0.822413	-0.672127
C18	C	0.773981	0.576700	-0.576765
C19	C	0.691666	0.576707	-0.576767
C20	C	0.938328	0.852705	-0.611824
C21	C	0.926391	0.970764	-0.626832
C22	C	0.938327	0.611832	-0.853835
C23	C	0.926371	0.626782	-0.971879
C24	C	0.392559	0.576785	-0.576865
C25	C	0.440523	0.483948	-0.484733
C26	C	0.526154	0.484125	-0.484413
C27	C	0.540950	0.576745	-0.576816
C28	C	0.501599	0.684750	-0.560440
C29	C	0.416058	0.684220	-0.559814
C30	C	0.415648	0.562613	-0.685689
C31	C	0.501613	0.560044	-0.684759
C32	C	0.624813	0.576730	-0.576792
C33	C	0.308696	0.576807	-0.576888
C34	C	1.159533	0.576801	-0.576888
C35	C	1.241843	0.576823	-0.576914
C36	C	0.994562	0.299721	-0.541714
C37	C	1.006571	0.181667	-0.526752
C38	C	0.972646	1.015207	-0.569041
C39	C	0.960309	1.137227	-0.584551
C40	C	0.972613	0.568909	-1.016340
C41	C	0.960258	0.584359	-1.138346
C42	C	0.994377	0.541728	-0.300885
C43	C	1.006506	0.526479	-0.182803
H44	H	0.553655	0.403590	-0.493048
O45	O	0.537598	0.703582	-0.456864
H46	H	0.561235	0.779195	-0.473699
O47	O	0.861810	0.707560	-1.041095
H48	H	0.829812	0.747596	-0.989967
H49	H	1.021347	0.507921	-0.964081
O50	O	0.421856	0.376897	-0.495785
H51	H	0.378196	0.388709	-0.567062
H52	H	0.425494	0.492026	-0.404266
O53	O	0.895692	0.665147	-1.207550
H54	H	0.896122	0.664608	-1.292517
O55	O	0.895749	1.206478	-0.665300
H56	H	0.902095	1.195773	-0.745989
H57	H	0.553155	0.492353	-0.403487
O58	O	1.037208	0.945968	-0.488293
H59	H	1.091337	0.969451	-0.509280
H60	H	0.401941	0.697907	-0.480681
H61	H	0.383128	0.754968	-0.624764
O62	O	1.071071	0.445694	-1.113593
H63	H	1.103062	0.405649	-1.164722
O64	O	1.071135	1.112431	-0.445998
H65	H	1.070693	1.027456	-0.446482
H66	H	0.509725	0.755157	-0.626067
H67	H	0.399377	0.485975	-0.703315
O68	O	0.861833	1.040018	-0.707577
H69	H	0.868180	1.029312	-0.788266
O70	O	0.536508	0.454863	-0.701473
H71	H	0.581683	0.414642	-0.633197
H72	H	0.510873	0.623871	-0.755933
H73	H	0.383133	0.630405	-0.754160
