data_functionalizedCrystal
_audit_creation_method	'MofGen! by Chris Wilmer'
_symmetry_space_group_name_H-M	'P1'
_symmetry_Int_Tables_number	1
_symmetry_cell_setting	triclinic
loop_
_symmetry_equiv_pos_as_xyz
  x,y,z
_cell_length_a	16.974800
_cell_length_b	15.021413
_cell_length_c	16.992695
_cell_angle_alpha	89.996007
_cell_angle_beta	87.021674
_cell_angle_gamma	86.350491
loop_
_atom_site_label
_atom_site_type_symbol
_atom_site_fract_x
_atom_site_fract_y
_atom_site_fract_z
O1	O	1.055459	-0.002038	0.099874
O2	O	1.305459	0.247962	0.349874
O3	O	1.555459	0.497962	0.599874
O4	O	1.805459	0.747962	0.849874
O5	O	0.826058	0.014497	0.112612
O6	O	1.076058	0.264497	0.362612
O7	O	1.326058	0.514497	0.612612
O8	O	1.576058	0.764497	0.862612
O9	O	0.939839	0.006289	-0.007899
O10	O	1.189839	0.256289	0.242101
O11	O	1.439839	0.506289	0.492101
O12	O	1.689839	0.756289	0.742101
O13	O	0.941678	0.006170	0.220384
O14	O	1.191678	0.256170	0.470384
O15	O	1.441678	0.506170	0.720384
O16	O	1.691678	0.756170	0.970384
O17	O	0.939821	-0.141774	-0.007882
O18	O	1.189821	0.108226	0.242118
O19	O	1.439821	0.358226	0.492118
O20	O	1.689821	0.608226	0.742118
O21	O	0.826040	-0.133566	0.112629
O22	O	1.076040	0.116434	0.362629
O23	O	1.326040	0.366434	0.612629
O24	O	1.576040	0.616434	0.862629
O25	O	1.055441	-0.150101	0.099891
O26	O	1.305441	0.099899	0.349891
O27	O	1.555441	0.349899	0.599891
O28	O	1.805441	0.599899	0.849891
Zn29	Zn	0.940738	-0.165342	0.106263
Zn30	Zn	1.190738	0.084658	0.356263
Zn31	Zn	1.440738	0.334658	0.606263
Zn32	Zn	1.690738	0.584658	0.856263
Zn33	Zn	0.940762	0.029738	0.106240
Zn34	Zn	1.190762	0.279738	0.356240
Zn35	Zn	1.440762	0.529738	0.606240
Zn36	Zn	1.690762	0.779738	0.856240
O37	O	0.941660	-0.141893	0.220401
O38	O	1.191660	0.108107	0.470401
O39	O	1.441660	0.358107	0.720401
O40	O	1.691660	0.608107	0.970401
C41	C	0.796560	-0.057409	0.112137
C42	C	1.046560	0.192591	0.362137
C43	C	1.296560	0.442591	0.612137
C44	C	1.546560	0.692591	0.862137
C45	C	0.708692	-0.051075	0.110689
C46	C	0.958692	0.198925	0.360689
C47	C	1.208692	0.448925	0.610689
C48	C	1.458692	0.698925	0.860689
C49	C	0.667407	-0.128811	0.110016
C50	C	0.917407	0.121189	0.360016
C51	C	1.167407	0.371189	0.610016
C52	C	1.417407	0.621189	0.860016
C53	C	0.584846	-0.122862	0.108643
C54	C	0.834846	0.127138	0.358643
C55	C	1.084846	0.377138	0.608643
C56	C	1.334846	0.627138	0.858643
C57	C	0.543573	-0.039177	0.107948
C58	C	0.793573	0.210823	0.357948
C59	C	1.043573	0.460823	0.607948
C60	C	1.293573	0.710823	0.857948
C61	C	0.584864	0.038564	0.108619
C62	C	0.834864	0.288564	0.358619
C63	C	1.084864	0.538564	0.608619
C64	C	1.334864	0.788564	0.858619
C65	C	0.667424	0.032615	0.109987
C66	C	0.917424	0.282615	0.359987
C67	C	1.167424	0.532615	0.609987
C68	C	1.417424	0.782615	0.859987
C69	C	0.296658	-0.012729	0.103852
C70	C	0.546658	0.237271	0.353852
C71	C	0.796658	0.487271	0.603852
C72	C	1.046658	0.737271	0.853852
C73	C	0.214093	-0.006786	0.102486
C74	C	0.464093	0.243214	0.352486
C75	C	0.714093	0.493214	0.602486
C76	C	0.964093	0.743214	0.852486
C77	C	0.214080	-0.168213	0.102509
C78	C	0.464080	0.081787	0.352509
C79	C	0.714080	0.331787	0.602509
C80	C	0.964080	0.581787	0.852509
C81	C	0.296641	-0.174155	0.103881
C82	C	0.546641	0.075845	0.353881
C83	C	0.796641	0.325845	0.603881
C84	C	1.046641	0.575845	0.853881
C85	C	0.337926	-0.096413	0.104548
C86	C	0.587926	0.153587	0.354548
C87	C	0.837926	0.403587	0.604548
C88	C	1.087926	0.653587	0.854548
N89	N	0.459183	-0.033095	0.106547
N90	N	0.709183	0.216905	0.356547
N91	N	0.959183	0.466905	0.606547
N92	N	1.209183	0.716905	0.856547
N93	N	0.422315	-0.102497	0.105943
N94	N	0.672315	0.147503	0.355943
N95	N	0.922315	0.397503	0.605943
N96	N	1.172315	0.647503	0.855943
N97	N	0.940727	-0.298478	0.106278
N98	N	1.190727	-0.048478	0.356278
N99	N	1.440727	0.201522	0.606278
N100	N	1.690727	0.451522	0.856278
C101	C	0.888104	-0.534365	0.161976
C102	C	1.138104	-0.284365	0.411976
C103	C	1.388104	-0.034365	0.661976
C104	C	1.638104	0.215635	0.911976
C105	C	0.960508	-0.598918	0.177113
C106	C	1.210508	-0.348918	0.427113
C107	C	1.460508	-0.098918	0.677113
C108	C	1.710508	0.151082	0.927113
C109	C	0.940746	-0.480087	0.106258
C110	C	1.190746	-0.230087	0.356258
C111	C	1.440746	0.019913	0.606258
C112	C	1.690746	0.269913	0.856258
C113	C	0.868363	-0.592278	0.091138
C114	C	1.118363	-0.342278	0.341138
C115	C	1.368363	-0.092278	0.591138
C116	C	1.618363	0.157722	0.841138
C117	C	0.940758	-0.655512	0.106241
C118	C	1.190758	-0.405512	0.356241
C119	C	1.440758	-0.155512	0.606241
C120	C	1.690758	0.094488	0.856241
C121	C	1.013188	-0.543335	0.121430
C122	C	1.263188	-0.293335	0.371430
C123	C	1.513188	-0.043335	0.621430
C124	C	1.763188	0.206665	0.871430
C125	C	0.920993	-0.536687	0.035425
C126	C	1.170993	-0.286687	0.285425
C127	C	1.420993	-0.036687	0.535425
C128	C	1.670993	0.213313	0.785425
C129	C	0.993447	-0.601216	0.050532
C130	C	1.243447	-0.351216	0.300532
C131	C	1.493447	-0.101216	0.550532
C132	C	1.743447	0.148784	0.800532
C133	C	0.940738	-0.379029	0.106270
C134	C	1.190738	-0.129029	0.356270
C135	C	1.440738	0.120971	0.606270
C136	C	1.690738	0.370971	0.856270
C137	C	0.940774	-0.756568	0.106228
C138	C	1.190774	-0.506568	0.356228
C139	C	1.440774	-0.256568	0.606228
C140	C	1.690774	-0.006568	0.856228
C141	C	1.084939	-0.078194	0.100365
C142	C	1.334939	0.171806	0.350365
C143	C	1.584939	0.421806	0.600365
C144	C	1.834939	0.671806	0.850365
C145	C	1.172807	-0.084521	0.101813
C146	C	1.422807	0.165479	0.351813
C147	C	1.672807	0.415479	0.601813
C148	C	1.922807	0.665479	0.851813
C149	C	0.937464	-0.067572	-0.037100
C150	C	1.187464	0.182428	0.212900
C151	C	1.437464	0.432428	0.462900
C152	C	1.687464	0.682428	0.712900
C153	C	0.930404	-0.067063	-0.124137
C154	C	1.180404	0.182937	0.125863
C155	C	1.430404	0.432937	0.375863
C156	C	1.680404	0.682937	0.625863
N157	N	0.940778	0.162874	0.106219
N158	N	1.190778	0.412874	0.356219
N159	N	1.440778	0.662874	0.606219
N160	N	1.690778	0.912874	0.856219
C161	C	0.998520	-0.071974	-0.174453
C162	C	1.248520	0.178026	0.075547
C163	C	1.498520	0.428026	0.325547
C164	C	1.748520	0.678026	0.575547
C165	C	0.991882	-0.071487	-0.256233
C166	C	1.241882	0.178513	-0.006233
C167	C	1.491882	0.428513	0.243767
C168	C	1.741882	0.678513	0.493767
C169	C	0.917128	-0.066095	-0.287693
C170	C	1.167128	0.183905	-0.037693
C171	C	1.417128	0.433905	0.212307
C172	C	1.667128	0.683905	0.462307
C173	C	0.849008	-0.061182	-0.237370
C174	C	1.099008	0.188818	0.012630
C175	C	1.349008	0.438818	0.262630
C176	C	1.599008	0.688818	0.512630
C177	C	0.855646	-0.061662	-0.155592
C178	C	1.105646	0.188338	0.094408
C179	C	1.355646	0.438338	0.344408
C180	C	1.605646	0.688338	0.594408
C181	C	0.889613	-0.064100	-0.531260
C182	C	1.139613	0.185900	-0.281260
C183	C	1.389613	0.435900	-0.031260
C184	C	1.639613	0.685900	0.218740
C185	C	0.882980	-0.063622	-0.613044
C186	C	1.132980	0.186378	-0.363044
C187	C	1.382980	0.436378	-0.113044
C188	C	1.632980	0.686378	0.136956
C189	C	1.025855	-0.073926	-0.631901
C190	C	1.275855	0.176074	-0.381901
C191	C	1.525855	0.426074	-0.131901
C192	C	1.775855	0.676074	0.118099
C193	C	1.032487	-0.074412	-0.550121
C194	C	1.282487	0.175588	-0.300121
C195	C	1.532487	0.425588	-0.050121
C196	C	1.782487	0.675588	0.199879
C197	C	0.964366	-0.069493	-0.499805
C198	C	1.214366	0.180507	-0.249805
C199	C	1.464366	0.430507	0.000195
C200	C	1.714366	0.680507	0.250195
N201	N	0.910341	-0.065600	-0.371284
N202	N	1.160341	0.184400	-0.121284
N203	N	1.410341	0.434400	0.128716
N204	N	1.660341	0.684400	0.378716
N205	N	0.971154	-0.069982	-0.416215
N206	N	1.221154	0.180018	-0.166215
N207	N	1.471154	0.430018	0.083785
N208	N	1.721154	0.680018	0.333785
C209	C	0.944035	-0.068030	0.249603
C210	C	1.194035	0.181970	0.499603
C211	C	1.444035	0.431970	0.749603
C212	C	1.694035	0.681970	0.999603
C213	C	0.951095	-0.068533	0.336639
C214	C	1.201095	0.181467	0.586639
C215	C	1.451095	0.431467	0.836639
C216	C	1.701095	0.681467	1.086639
H217	H	0.180457	-0.231505	0.101965
H218	H	0.430457	0.018495	0.351965
H219	H	0.680457	0.268495	0.601965
H220	H	0.930457	0.518495	0.851965
F221	F	0.783149	-0.056433	-0.102041
F222	F	1.033149	0.193567	0.147959
F223	F	1.283149	0.443567	0.397959
F224	F	1.533149	0.693567	0.647959
H225	H	0.807144	-0.613951	0.078358
H226	H	1.057144	-0.363951	0.328358
H227	H	1.307144	-0.113951	0.578358
H228	H	1.557144	0.136049	0.828358
F229	F	0.899115	-0.500987	-0.042837
F230	F	1.149115	-0.250987	0.207163
F231	F	1.399115	-0.000987	0.457163
F232	F	1.649115	0.249013	0.707163
H233	H	1.047349	-0.075488	-0.297198
H234	H	1.297349	0.174512	-0.047198
H235	H	1.547349	0.424512	0.202802
H236	H	1.797349	0.674512	0.452802
F237	F	1.078083	-0.077721	-0.140979
F238	F	1.328083	0.172279	0.109021
F239	F	1.578083	0.422279	0.359021
F240	F	1.828083	0.672279	0.609021
F241	F	0.540938	0.127629	0.107856
F242	F	0.790938	0.377629	0.357856
F243	F	1.040938	0.627629	0.607856
F244	F	1.290938	0.877629	0.857856
F245	F	0.803413	-0.057888	-0.646524
F246	F	1.053413	0.192112	-0.396524
F247	F	1.303413	0.442112	-0.146524
F248	F	1.553413	0.692112	0.103476
H249	H	0.843638	-0.505142	0.209132
H250	H	1.093638	-0.255142	0.459132
H251	H	1.343638	-0.005142	0.709132
H252	H	1.593638	0.244858	0.959132
F253	F	0.711325	-0.217880	0.110761
F254	F	0.961325	0.032120	0.360761
F255	F	1.211325	0.282120	0.610761
F256	F	1.461325	0.532120	0.860761
F257	F	0.711363	0.115352	0.110700
F258	F	0.961363	0.365352	0.360700
F259	F	1.211363	0.615352	0.610700
F260	F	1.461363	0.865352	0.860700
F261	F	1.098348	-0.079159	-0.685456
F262	F	1.348348	0.170841	-0.435456
F263	F	1.598348	0.420841	-0.185456
F264	F	1.848348	0.670841	0.064544
H265	H	0.834145	-0.060095	-0.490302
H266	H	1.084145	0.189905	-0.240302
H267	H	1.334145	0.439905	0.009698
H268	H	1.584145	0.689905	0.259698
H269	H	0.180490	0.061364	0.101923
H270	H	0.430490	0.311364	0.351923
H271	H	0.680490	0.561364	0.601923
H272	H	0.930490	0.811364	0.851923
F273	F	0.340561	-0.263224	0.104625
F274	F	0.590561	-0.013224	0.354625
F275	F	0.840561	0.236776	0.604625
F276	F	1.090561	0.486776	0.854625
H277	H	1.038021	-0.630284	0.003403
H278	H	1.288021	-0.380284	0.253403
H279	H	1.538021	-0.130284	0.503403
H280	H	1.788021	0.119716	0.753403
F281	F	0.982361	-0.634587	0.255398
F282	F	1.232361	-0.384587	0.505398
F283	F	1.482361	-0.134587	0.755398
F284	F	1.732361	0.115413	1.005398
F285	F	1.093230	-0.515159	0.138227
F286	F	1.343230	-0.265159	0.388227
F287	F	1.593230	-0.015159	0.638227
F288	F	1.843230	0.234841	0.888227
H289	H	0.330262	0.050573	0.104392
H290	H	0.580262	0.300573	0.354392
H291	H	0.830262	0.550573	0.604392
H292	H	1.080262	0.800573	0.854392
H293	H	1.093359	-0.078802	-0.524513
H294	H	1.343359	0.171198	-0.274513
H295	H	1.593359	0.421198	-0.024513
H296	H	1.843359	0.671198	0.225487
F297	F	0.540910	-0.205599	0.107938
F298	F	0.790910	0.044401	0.357938
F299	F	1.040910	0.294401	0.607938
F300	F	1.290910	0.544401	0.857938
H301	H	0.788141	-0.056786	-0.262991
H302	H	1.038141	0.193214	-0.012991
H303	H	1.288141	0.443214	0.237009
H304	H	1.538141	0.693214	0.487009
