data_functionalizedCrystal
_audit_creation_method	'MofGen! by Chris Wilmer'
_symmetry_space_group_name_H-M	'P1'
_symmetry_Int_Tables_number	1
_symmetry_cell_setting	triclinic
loop_
_symmetry_equiv_pos_as_xyz
  x,y,z
_cell_length_a	19.288867
_cell_length_b	12.811415
_cell_length_c	17.766277
_cell_angle_alpha	84.562803
_cell_angle_beta	89.992126
_cell_angle_gamma	83.592416
loop_
_atom_site_label
_atom_site_type_symbol
_atom_site_fract_x
_atom_site_fract_y
_atom_site_fract_z
O1	O	0.922003	0.130944	-0.071505
O2	O	1.422003	0.630944	0.428495
O3	O	0.719830	0.148605	-0.072717
O4	O	1.219830	0.648605	0.427283
O5	O	0.826001	-0.013043	-0.061676
O6	O	1.326001	0.486957	0.438324
O7	O	0.815831	0.292591	-0.082546
O8	O	1.315831	0.792591	0.417454
O9	O	0.825983	-0.013051	0.063513
O10	O	1.325983	0.486949	0.563513
O11	O	0.719811	0.148596	0.052472
O12	O	1.219811	0.648596	0.552472
O13	O	0.921984	0.130936	0.053684
O14	O	1.421984	0.630936	0.553684
Cu15	Cu	0.820896	0.139765	0.064509
Cu16	Cu	1.320896	0.639765	0.564509
Cu17	Cu	0.820918	0.139775	-0.083542
Cu18	Cu	1.320918	0.639775	0.416458
O19	O	0.815812	0.292583	0.042643
O20	O	1.315812	0.792583	0.542643
C21	C	0.693941	0.148032	-0.010085
C22	C	1.193941	0.648032	0.489915
C23	C	0.616829	0.146325	-0.009971
C24	C	1.116829	0.646325	0.490029
C25	C	0.825422	-0.052148	0.003587
C26	C	1.325422	0.447852	0.503587
C27	C	0.823714	-0.168659	0.011537
C28	C	1.323714	0.331341	0.511537
C29	C	0.061213	0.134035	-0.077363
C30	C	0.561213	0.634035	0.422637
C31	C	0.133669	0.135632	-0.077475
C32	C	0.633669	0.635632	0.422525
C33	C	0.169891	0.136432	-0.009290
C34	C	0.669891	0.636432	0.490710
C35	C	0.133654	0.135606	0.059015
C36	C	0.633654	0.635606	0.559015
C37	C	0.061201	0.133998	0.059125
C38	C	0.561201	0.633998	0.559125
C39	C	0.279528	0.200449	0.038620
C40	C	0.779528	0.700449	0.538620
C41	C	0.351980	0.202064	0.038506
C42	C	0.851980	0.702064	0.538506
C43	C	0.393361	0.141387	-0.009628
C44	C	0.893361	0.641387	0.490372
C45	C	0.362281	0.079108	-0.057661
C46	C	0.862281	0.579108	0.442339
C47	C	0.289828	0.077500	-0.057551
C48	C	0.789828	0.577500	0.442449
C49	C	0.248454	0.138175	-0.009402
C50	C	0.748454	0.638175	0.490598
C51	C	0.508154	0.143937	-0.078049
C52	C	1.008154	0.643937	0.421951
C53	C	0.580612	0.145528	-0.078157
C54	C	1.080612	0.645528	0.421843
C55	C	0.580595	0.145512	0.058334
C56	C	1.080595	0.645512	0.558334
C57	C	0.508140	0.143910	0.058441
C58	C	1.008140	0.643910	0.558441
C59	C	0.471924	0.143128	-0.009753
C60	C	0.971924	0.643128	0.490247
C61	C	0.820513	-0.387574	-0.110019
C62	C	1.320513	0.112426	0.389981
C63	C	0.818908	-0.497046	-0.102553
C64	C	1.318908	0.002954	0.397447
C65	C	0.818895	-0.497076	0.033937
C66	C	1.318895	0.002924	0.533937
C67	C	0.820499	-0.387604	0.026470
C68	C	1.320499	0.112396	0.526470
C69	C	0.821309	-0.332857	-0.045510
C70	C	1.321309	0.167143	0.454490
C71	C	0.822919	-0.223384	-0.052976
C72	C	1.322919	0.276616	0.447024
C73	C	0.822901	-0.223415	0.083512
C74	C	1.322901	0.276585	0.583512
C75	C	0.821296	-0.332887	0.090979
C76	C	1.321296	0.167113	0.590979
C77	C	0.947873	0.131509	-0.008950
C78	C	1.447873	0.631509	0.491050
C79	C	1.024985	0.133215	-0.009068
C80	C	1.524985	0.633215	0.490932
C81	C	0.816392	0.331689	-0.022621
C82	C	1.316392	0.831689	0.477379
C83	C	0.818100	0.448199	-0.030577
C84	C	1.318100	0.948199	0.469423
N85	N	0.820885	0.139758	0.168640
N86	N	1.320885	0.639758	0.668640
N87	N	0.820934	0.139774	-0.187672
N88	N	1.320934	0.639774	0.312328
C89	C	0.867913	0.068216	0.212913
C90	C	1.367913	0.568216	0.712913
C91	C	0.867917	0.068211	0.291715
C92	C	1.367917	0.568211	0.791715
C93	C	0.820900	0.139766	0.326240
C94	C	1.320900	0.639766	0.826240
C95	C	0.773863	0.211314	0.281956
C96	C	1.273863	0.711314	0.781956
C97	C	0.773856	0.211310	0.203156
C98	C	1.273856	0.711310	0.703156
C99	C	0.812076	0.235400	0.444547
C100	C	1.312076	0.735400	0.944547
C101	C	0.812088	0.235405	0.523346
C102	C	1.312088	0.735405	1.023346
C103	C	0.820919	0.139779	0.569285
C104	C	1.320919	0.639779	1.069285
C105	C	0.829751	0.044143	0.536417
C106	C	1.329751	0.544143	1.036417
C107	C	0.829744	0.044139	0.457617
C108	C	1.329744	0.544139	0.957617
C109	C	0.820902	0.139778	0.411685
C110	C	1.320902	0.639778	0.911685
C111	C	0.867954	0.068225	0.699005
C112	C	1.367954	0.568225	1.199005
C113	C	0.867953	0.068219	0.777809
C114	C	1.367953	0.568219	1.277809
C115	C	0.773902	0.211332	0.768048
C116	C	1.273902	0.711332	1.268048
C117	C	0.773899	0.211329	0.689246
C118	C	1.273899	0.711329	1.189246
C119	C	0.820929	0.139777	0.654730
C120	C	1.320929	0.639777	1.154730
H121	H	0.031731	0.133393	-0.132892
H122	H	0.531731	0.633393	0.367108
H123	H	0.735616	0.269590	0.796157
H124	H	1.235616	0.769590	1.296157
H125	H	0.610109	0.146187	-0.133773
H126	H	1.110109	0.646187	0.366227
F127	F	0.619142	0.146349	0.130904
F128	F	1.119142	0.646349	0.630904
F129	F	0.385050	0.268354	0.089621
F130	F	0.885050	0.768354	0.589621
F131	F	0.821384	-0.329308	-0.186625
F132	F	1.321384	0.170692	0.313375
F133	F	0.172206	0.136453	0.131583
F134	F	0.672206	0.636453	0.631583
H135	H	0.823552	-0.178853	0.136040
H136	H	1.323552	0.321147	0.636040
H137	H	0.823581	-0.178811	-0.111587
H138	H	1.323581	0.321189	0.388413
H139	H	0.818230	-0.541668	0.092540
H140	H	1.318230	-0.041668	0.592540
F141	F	0.839138	-0.057641	0.422638
F142	F	1.339138	0.442359	0.922638
H143	H	0.906215	0.009950	0.327769
H144	H	1.406215	0.509950	0.827769
F145	F	0.918005	-0.007935	0.824931
F146	F	1.418005	0.492065	1.324931
H147	H	0.820634	-0.377476	0.149583
H148	H	1.320634	0.122524	0.649583
F149	F	0.172234	0.136506	-0.150167
F150	F	0.672234	0.636506	0.349833
H151	H	0.906206	0.009951	0.184813
H152	H	1.406206	0.509951	0.684813
H153	H	0.818256	-0.541592	-0.155083
H154	H	1.318256	-0.041592	0.344917
F155	F	0.839154	-0.057638	0.585303
F156	F	1.339154	0.442362	1.085303
F157	F	0.723800	0.287459	0.156035
F158	F	1.223800	0.787459	0.656035
F159	F	0.918004	-0.007931	0.662270
F160	F	1.418004	0.492069	1.162270
F161	F	0.469580	0.143052	0.131130
F162	F	0.969580	0.643052	0.631130
F163	F	0.723848	0.287479	0.642123
F164	F	1.223848	0.787479	1.142123
F165	F	0.256753	0.011218	-0.108667
F166	F	0.756753	0.511218	0.391333
F167	F	0.802693	0.337188	0.558320
F168	F	1.302693	0.837188	1.058320
F169	F	0.235495	0.265025	0.089861
F170	F	0.735495	0.765025	0.589861
F171	F	0.723821	0.287466	0.318700
F172	F	1.223821	0.787466	0.818700
F173	F	0.406316	0.014529	-0.108895
F174	F	0.906316	0.514529	0.391105
F175	F	0.469608	0.143098	-0.150625
F176	F	0.969608	0.643098	0.349375
H177	H	0.804874	0.313275	0.407149
H178	H	1.304874	0.813275	0.907149
H179	H	0.031704	0.133335	0.114741
H180	H	0.531704	0.633335	0.614741
