data_functionalizedCrystal
_audit_creation_method	'MofGen! by Chris Wilmer'
_symmetry_space_group_name_H-M	'P1'
_symmetry_Int_Tables_number	1
_symmetry_cell_setting	triclinic
loop_
_symmetry_equiv_pos_as_xyz
  x,y,z
_cell_length_a	18.215407
_cell_length_b	16.625546
_cell_length_c	18.215399
_cell_angle_alpha	90.029176
_cell_angle_beta	90.017368
_cell_angle_gamma	90.019912
loop_
_atom_site_label
_atom_site_type_symbol
_atom_site_fract_x
_atom_site_fract_y
_atom_site_fract_z
Zn1	Zn	1.125084	-0.321065	0.416061
Zn2	Zn	1.625084	0.178935	0.916061
Zn3	Zn	1.124998	-0.455905	0.292992
Zn4	Zn	1.624998	0.044095	0.792992
Zn5	Zn	1.002017	-0.321084	0.293014
Zn6	Zn	1.502017	0.178916	0.793014
Zn7	Zn	1.001988	-0.455853	0.416022
Zn8	Zn	1.501988	0.044147	0.916022
O9	O	1.063522	-0.388477	0.354522
O10	O	1.563522	0.111523	0.854522
O11	O	1.228057	-0.338965	0.399743
O12	O	1.728057	0.161035	0.899743
O13	O	1.108660	-0.438051	0.190011
O14	O	1.608660	0.061949	0.690011
O15	O	1.018390	-0.208249	0.309362
O16	O	1.518390	0.291751	0.809362
O17	O	1.227994	-0.438032	0.309325
O18	O	1.727994	0.061968	0.809325
O19	O	1.108807	-0.208235	0.399764
O20	O	1.608807	0.291765	0.899764
O21	O	1.018306	-0.338998	0.190027
O22	O	1.518306	0.161002	0.690027
O23	O	0.899029	-0.338948	0.309324
O24	O	1.399029	0.161052	0.809324
O25	O	1.018341	-0.437943	0.519012
O26	O	1.518341	0.062057	1.019012
O27	O	0.899008	-0.437962	0.399698
O28	O	1.399008	0.062038	0.899698
O29	O	1.108779	-0.338915	0.519040
O30	O	1.608779	0.161085	1.019040
O31	O	1.108632	-0.568731	0.309287
O32	O	1.608632	-0.068731	0.809287
O33	O	1.018257	-0.568693	0.399677
O34	O	1.518257	-0.068693	0.899677
C35	C	0.872315	-0.388452	0.354510
C36	C	1.372315	0.111548	0.854510
C37	C	0.790517	-0.388461	0.354521
C38	C	1.290517	0.111539	0.854521
C39	C	0.602355	-0.336983	0.401677
C40	C	1.102355	0.163017	0.901677
C41	C	0.525496	-0.336990	0.401679
C42	C	1.025496	0.163010	0.901679
C43	C	0.525441	-0.439993	0.307381
C44	C	1.025441	0.060007	0.807381
C45	C	0.602298	-0.439982	0.307376
C46	C	1.102298	0.060018	0.807376
C47	C	0.640753	-0.388478	0.354527
C48	C	1.140753	0.111522	0.854527
C49	C	0.487037	-0.388496	0.354536
C50	C	0.987037	0.111504	0.854536
C51	C	0.403703	-0.388504	0.354538
C52	C	0.903703	0.111496	0.854538
C53	C	0.724092	-0.388469	0.354524
C54	C	1.224092	0.111531	0.854524
C55	C	1.063452	-0.597968	0.354492
C56	C	1.563452	-0.097968	0.854492
C57	C	1.063490	-0.687589	0.354503
C58	C	1.563490	-0.187589	0.854503
C59	C	1.063618	-1.015764	0.354580
C60	C	1.563618	-0.515764	0.854580
C61	C	1.063580	-0.924456	0.354560
C62	C	1.563580	-0.424456	0.854560
C63	C	1.063553	-0.851680	0.354541
C64	C	1.563553	-0.351680	0.854541
C65	C	1.063516	-0.760365	0.354522
C66	C	1.563516	-0.260365	0.854522
C67	C	1.255475	-0.388502	0.354536
C68	C	1.755475	0.111498	0.854536
C69	C	1.337273	-0.388513	0.354541
C70	C	1.837273	0.111487	0.854541
C71	C	1.063567	-0.388421	0.546475
C72	C	1.563567	0.111579	1.046475
C73	C	1.063586	-0.388398	0.628274
C74	C	1.563586	0.111602	1.128274
C75	C	1.063612	-0.178168	0.354569
C76	C	1.563612	0.321832	0.854569
C77	C	1.063650	-0.088547	0.354590
C78	C	1.563650	0.411453	0.854590
C79	C	1.063519	-0.388474	0.163316
C80	C	1.563519	0.111526	0.663316
C81	C	1.063643	-0.388271	0.081518
C82	C	1.563643	0.111729	0.581518
C83	C	1.110694	-0.336785	0.816484
C84	C	1.610694	0.163215	1.316484
C85	C	1.110703	-0.336762	0.893343
C86	C	1.610703	0.163238	1.393343
C87	C	1.016530	-0.439885	0.893302
C88	C	1.516530	0.060115	1.393302
C89	C	1.016518	-0.439904	0.816445
C90	C	1.516518	0.060096	1.316445
C91	C	1.063604	-0.388355	0.778038
C92	C	1.563604	0.111645	1.278038
C93	C	1.063625	-0.388313	0.931754
C94	C	1.563625	0.111687	1.431754
C95	C	1.063634	-0.388288	1.015088
C96	C	1.563634	0.111712	1.515088
C97	C	1.063594	-0.388379	0.694699
C98	C	1.563594	0.111621	1.194699
H99	H	0.633563	-0.481916	0.268977
H100	H	1.133563	0.018084	0.768977
H101	H	0.978166	-0.481898	0.785141
H102	H	1.478166	0.018102	1.285141
C103	C	1.162484	-0.280073	0.774239
C104	C	1.662484	0.219927	1.274239
N105	N	1.201491	-0.237353	0.742423
N106	N	1.701491	0.262647	1.242423
C107	C	0.483261	-0.280344	0.453549
C108	C	0.983261	0.219656	0.953549
N109	N	0.451450	-0.237676	0.492620
N110	N	0.951450	0.262324	0.992620
H111	H	1.149047	-0.294767	0.924643
H112	H	1.649047	0.205233	1.424643
H113	H	0.633662	-0.295043	0.440068
H114	H	1.133662	0.204957	0.940068
C115	C	0.483133	-0.496650	0.255522
C116	C	0.983133	0.003350	0.755522
N117	N	0.451268	-0.539327	0.216462
N118	N	0.951268	-0.039327	0.716462
C119	C	0.964736	-0.496584	0.935557
C120	C	1.464736	0.003416	1.435557
N121	N	0.925724	-0.539291	0.967383
N122	N	1.425724	-0.039291	1.467383
