data_functionalizedCrystal
_audit_creation_method	'MofGen! by Chris Wilmer'
_symmetry_space_group_name_H-M	'P1'
_symmetry_Int_Tables_number	1
_symmetry_cell_setting	triclinic
loop_
_symmetry_equiv_pos_as_xyz
  x,y,z
_cell_length_a	19.805407
_cell_length_b	19.805405
_cell_length_c	19.805399
_cell_angle_alpha	89.973385
_cell_angle_beta	89.980427
_cell_angle_gamma	90.026726
loop_
_atom_site_label
_atom_site_type_symbol
_atom_site_fract_x
_atom_site_fract_y
_atom_site_fract_z
Zn1	Zn	1.034734	-0.269479	-0.382724
Zn2	Zn	1.368068	0.063854	-0.049391
Zn3	Zn	1.701401	0.397188	0.283942
Zn4	Zn	1.034648	-0.382667	-0.269538
Zn5	Zn	1.367982	-0.049334	0.063795
Zn6	Zn	1.701315	0.283999	0.397129
Zn7	Zn	0.921549	-0.269498	-0.269549
Zn8	Zn	1.254882	0.063836	0.063785
Zn9	Zn	1.588216	0.397169	0.397118
Zn10	Zn	0.921512	-0.382631	-0.382685
Zn11	Zn	1.254845	-0.049298	-0.049351
Zn12	Zn	1.588178	0.284035	0.283982
O13	O	0.978111	-0.326069	-0.326124
O14	O	1.311444	0.007265	0.007209
O15	O	1.644777	0.340598	0.340543
O16	O	1.129439	-0.284501	-0.367722
O17	O	1.462773	0.048833	-0.034388
O18	O	1.796106	0.382166	0.298945
O19	O	1.019625	-0.367678	-0.174823
O20	O	1.352958	-0.034345	0.158511
O21	O	1.686292	0.298989	0.491844
O22	O	0.936615	-0.174778	-0.284583
O23	O	1.269948	0.158555	0.048750
O24	O	1.603281	0.491888	0.382084
O25	O	1.129376	-0.367660	-0.284564
O26	O	1.462710	-0.034326	0.048769
O27	O	1.796043	0.299007	0.382102
O28	O	1.019771	-0.174765	-0.367732
O29	O	1.353105	0.158569	-0.034399
O30	O	1.686438	0.491902	0.298934
O31	O	0.936531	-0.284533	-0.174831
O32	O	1.269865	0.048801	0.158503
O33	O	1.603198	0.382134	0.491836
O34	O	0.826827	-0.284498	-0.284544
O35	O	1.160161	0.048836	0.048789
O36	O	1.493494	0.382169	0.382122
O37	O	0.936551	-0.367598	-0.477406
O38	O	1.269885	-0.034265	-0.144073
O39	O	1.603218	0.299068	0.189260
O40	O	0.826800	-0.367617	-0.367665
O41	O	1.160133	-0.034283	-0.034332
O42	O	1.493467	0.299050	0.299002
O43	O	1.019735	-0.284466	-0.477436
O44	O	1.353069	0.048867	-0.144102
O45	O	1.686402	0.382201	0.189231
O46	O	1.019589	-0.477379	-0.284526
O47	O	1.352922	-0.144046	0.048807
O48	O	1.686256	0.189288	0.382141
O49	O	0.936468	-0.477353	-0.367654
O50	O	1.269801	-0.144019	-0.034321
O51	O	1.603135	0.189314	0.299012
C52	C	0.802255	-0.326056	-0.326102
C53	C	1.135588	0.007278	0.007231
C54	C	1.468921	0.340611	0.340565
C55	C	0.727023	-0.326067	-0.326109
C56	C	1.060356	0.007267	0.007225
C57	C	1.393689	0.340600	0.340558
C58	C	0.691682	-0.369412	-0.369319
C59	C	1.025015	-0.036078	-0.035986
C60	C	1.358349	0.297255	0.297347
C61	C	0.620994	-0.369413	-0.369329
C62	C	0.954327	-0.036080	-0.035996
C63	C	1.287660	0.297254	0.297338
C64	C	0.585647	-0.326072	-0.326124
C65	C	0.918981	0.007262	0.007210
C66	C	1.252314	0.340595	0.340543
C67	C	0.620993	-0.282722	-0.282911
C68	C	0.954326	0.050611	0.050422
C69	C	1.287659	0.383945	0.383755
C70	C	0.691680	-0.282718	-0.282906
C71	C	1.025013	0.050616	0.050428
C72	C	1.358347	0.383949	0.383761
C73	C	0.335920	-0.282737	-0.282934
C74	C	0.669253	0.050596	0.050400
C75	C	1.002586	0.383930	0.383733
C76	C	0.265227	-0.282746	-0.282941
C77	C	0.598561	0.050588	0.050392
C78	C	0.931894	0.383921	0.383726
C79	C	0.265233	-0.369432	-0.369357
C80	C	0.598567	-0.036099	-0.036024
C81	C	0.931900	0.297235	0.297310
C82	C	0.335920	-0.369428	-0.369351
C83	C	0.669254	-0.036094	-0.036018
C84	C	1.002587	0.297239	0.297315
C85	C	0.371260	-0.326076	-0.326142
C86	C	0.704593	0.007258	0.007192
C87	C	1.037926	0.340591	0.340525
C88	C	0.447908	-0.326074	-0.326133
C89	C	0.781242	0.007259	0.007201
C90	C	1.114575	0.340593	0.340534
C91	C	0.509000	-0.326076	-0.326129
C92	C	0.842333	0.007257	0.007205
C93	C	1.175667	0.340590	0.340538
C94	C	0.978034	-0.501925	-0.326099
C95	C	1.311367	-0.168591	0.007234
C96	C	1.644700	0.164742	0.340567
C97	C	0.978063	-0.577157	-0.326112
C98	C	1.311396	-0.243823	0.007222
C99	C	1.644729	0.089510	0.340555
C100	C	1.021337	-0.612436	-0.369441
C101	C	1.354670	-0.279102	-0.036108
C102	C	1.688003	0.054231	0.297225
C103	C	1.021361	-0.683124	-0.369454
C104	C	1.354694	-0.349791	-0.036121
C105	C	1.688028	-0.016457	0.297213
C106	C	0.978114	-0.718532	-0.326133
C107	C	1.311448	-0.385199	0.007201
C108	C	1.644781	-0.051866	0.340534
C109	C	0.934835	-0.683249	-0.282801
C110	C	1.268169	-0.349915	0.050532
C111	C	1.601502	-0.016582	0.383866
C112	C	0.934808	-0.612561	-0.282792
C113	C	1.268141	-0.279228	0.050541
C114	C	1.601475	0.054105	0.383874
C115	C	0.934944	-0.968322	-0.282836
C116	C	1.268277	-0.634988	0.050498
C117	C	1.601611	-0.301655	0.383831
C118	C	0.934976	-1.039014	-0.282846
C119	C	1.268310	-0.705681	0.050487
C120	C	1.601643	-0.372347	0.383820
C121	C	1.021497	-1.038884	-0.369497
C122	C	1.354831	-0.705551	-0.036164
C123	C	1.688164	-0.372218	0.297169
C124	C	1.021470	-0.968197	-0.369489
C125	C	1.354803	-0.634864	-0.036155
C126	C	1.688137	-0.301531	0.297178
C127	C	0.978189	-0.932920	-0.326160
C128	C	1.311522	-0.599586	0.007174
C129	C	1.644855	-0.266253	0.340507
C130	C	0.978162	-0.856271	-0.326147
C131	C	1.311495	-0.522938	0.007186
C132	C	1.644829	-0.189605	0.340519
C133	C	0.978144	-0.795179	-0.326141
C134	C	1.311477	-0.461846	0.007192
C135	C	1.644811	-0.128513	0.340526
C136	C	1.154653	-0.326082	-0.326146
C137	C	1.487987	0.007251	0.007187
C138	C	1.821320	0.340584	0.340520
C139	C	1.229885	-0.326088	-0.326156
C140	C	1.563219	0.007245	0.007178
C141	C	1.896552	0.340579	0.340511
C142	C	0.978149	-0.326026	-0.502667
C143	C	1.311482	0.007307	-0.169333
C144	C	1.644815	0.340641	0.164000
C145	C	0.978165	-0.326008	-0.577899
C146	C	1.311498	0.007325	-0.244565
C147	C	1.644832	0.340659	0.088768
C148	C	0.978207	-0.149526	-0.326163
C149	C	1.311540	0.183807	0.007170
C150	C	1.644873	0.517141	0.340503
C151	C	0.978248	-0.074294	-0.326180
C152	C	1.311581	0.259039	0.007153
C153	C	1.644914	0.592373	0.340487
C154	C	1.021480	-0.282719	-0.613259
C155	C	1.354813	0.050615	-0.279926
C156	C	1.688147	0.383948	0.053408
C157	C	1.021487	-0.282699	-0.683948
C158	C	1.354820	0.050634	-0.350614
C159	C	1.688153	0.383968	-0.017281
C160	C	0.978182	-0.325973	-0.719274
C161	C	1.311515	0.007361	-0.385941
C162	C	1.644848	0.340694	-0.052608
C163	C	0.934862	-0.369264	-0.683909
C164	C	1.268195	-0.035930	-0.350576
C165	C	1.601529	0.297403	-0.017242
C166	C	0.934852	-0.369279	-0.613222
C167	C	1.268186	-0.035946	-0.279888
C168	C	1.601519	0.297387	0.053445
C169	C	0.934900	-0.369201	-0.968982
C170	C	1.268234	-0.035867	-0.635649
C171	C	1.601567	0.297466	-0.302316
C172	C	0.934915	-0.369183	-1.039675
C173	C	1.268248	-0.035850	-0.706341
C174	C	1.601582	0.297484	-0.373008
C175	C	1.021535	-0.282620	-1.039708
C176	C	1.354868	0.050713	-0.706375
C177	C	1.688202	0.384046	-0.373042
C178	C	1.021525	-0.282636	-0.969021
C179	C	1.354858	0.050697	-0.635688
C180	C	1.688192	0.384031	-0.302354
C181	C	0.978203	-0.325924	-0.933662
C182	C	1.311536	0.007409	-0.600328
C183	C	1.644870	0.340742	-0.266995
C184	C	0.978195	-0.325944	-0.857013
C185	C	1.311529	0.007389	-0.523680
C186	C	1.644862	0.340723	-0.190347
C187	C	0.978193	-0.325957	-0.795922
C188	C	1.311526	0.007377	-0.462588
C189	C	1.644859	0.340710	-0.129255
C190	C	0.978112	-0.326062	-0.150268
C191	C	1.311445	0.007271	0.183065
C192	C	1.644779	0.340604	0.516399
C193	C	0.978227	-0.325890	-0.075036
C194	C	1.311560	0.007444	0.258297
C195	C	1.644894	0.340777	0.591630
H196	H	0.236450	-0.247448	-0.247758
H197	H	0.569784	0.085885	0.085575
H198	H	0.903117	0.419219	0.418908
F199	F	1.067612	-0.236648	-0.721578
F200	F	1.400945	0.096686	-0.388244
F201	F	1.734278	0.430019	-0.054911
H202	H	0.899574	-0.404523	-0.584432
H203	H	1.232907	-0.071190	-0.251099
H204	H	1.566241	0.262143	0.082234
F205	F	0.888793	-0.415272	-0.931360
F206	F	1.222127	-0.081939	-0.598026
F207	F	1.555460	0.251395	-0.264693
H208	H	1.056746	-0.247482	-0.584501
H209	H	1.390079	0.085851	-0.251168
H210	H	1.723413	0.419184	0.082166
F211	F	0.729294	-0.415545	-0.415302
F212	F	1.062628	-0.082212	-0.081968
F213	F	1.395961	0.251121	0.251365
F214	F	0.888749	-0.575015	-0.236675
F215	F	1.222082	-0.241682	0.096658
F216	F	1.555416	0.091651	0.429991
F217	F	1.067618	-0.236581	-0.931427
F218	F	1.400952	0.096753	-0.598094
F219	F	1.734285	0.430086	-0.264761
F220	F	0.583373	-0.236591	-0.236933
F221	F	0.916706	0.096743	0.096400
F222	F	1.250039	0.430076	0.429734
H223	H	0.720453	-0.247418	-0.247723
H224	H	1.053787	0.085915	0.085611
H225	H	1.387120	0.419249	0.418944
H226	H	1.056737	-1.067616	-0.404780
H227	H	1.390070	-0.734282	-0.071447
H228	H	1.723403	-0.400949	0.261887
H229	H	0.364696	-0.404723	-0.404531
H230	H	0.698029	-0.071390	-0.071198
H231	H	1.031363	0.261944	0.262136
F232	F	1.067640	-0.236546	-1.077346
F233	F	1.400974	0.096787	-0.744012
F234	F	1.734307	0.430121	-0.410679
H235	H	0.899648	-0.404423	-1.068436
H236	H	1.232981	-0.071090	-0.735102
H237	H	1.566314	0.262244	-0.401769
F238	F	0.583385	-0.415547	-0.415320
F239	F	0.916718	-0.082213	-0.081987
F240	F	1.250051	0.251120	0.251347
H241	H	0.236451	-0.404729	-0.404543
H242	H	0.569785	-0.071395	-0.071210
H243	H	0.903118	0.261938	0.262124
F244	F	0.373521	-0.236596	-0.236948
F245	F	0.706855	0.096737	0.096386
F246	F	1.040188	0.430071	0.429719
H247	H	1.056556	-0.583611	-0.404715
H248	H	1.389889	-0.250277	-0.071382
H249	H	1.723223	0.083056	0.261951
H250	H	0.899600	-0.404495	-0.712678
H251	H	1.232933	-0.071162	-0.379344
H252	H	1.566267	0.262171	-0.046011
H253	H	1.056605	-0.711845	-0.404732
H254	H	1.389938	-0.378511	-0.071399
H255	H	1.723271	-0.045178	0.261934
F256	F	0.888944	-1.076697	-0.236736
F257	F	1.222277	-0.743363	0.096597
F258	F	1.555611	-0.410030	0.429930
F259	F	0.888875	-0.930786	-0.236726
F260	F	1.222209	-0.597452	0.096607
F261	F	1.555542	-0.264119	0.429941
F262	F	1.067501	-0.930517	-0.415595
F263	F	1.400834	-0.597183	-0.082261
F264	F	1.734168	-0.263850	0.251072
H265	H	0.899620	-0.712084	-0.247531
H266	H	1.232954	-0.378750	0.085802
H267	H	1.566287	-0.045417	0.419136
