data_functionalizedCrystal
_audit_creation_method	'MofGen! by Chris Wilmer'
_symmetry_space_group_name_H-M	'P1'
_symmetry_Int_Tables_number	1
_symmetry_cell_setting	triclinic
loop_
_symmetry_equiv_pos_as_xyz
  x,y,z
_cell_length_a	16.109301
_cell_length_b	14.519709
_cell_length_c	14.586319
_cell_angle_alpha	89.995260
_cell_angle_beta	89.999213
_cell_angle_gamma	83.570813
loop_
_atom_site_label
_atom_site_type_symbol
_atom_site_fract_x
_atom_site_fract_y
_atom_site_fract_z
O1	O	1.103336	0.118540	-0.076184
O2	O	0.861300	0.133292	-0.076199
O3	O	0.988735	-0.008336	-0.076183
O4	O	0.975901	0.260168	-0.076200
O5	O	0.988726	-0.008338	0.076298
O6	O	0.861291	0.133290	0.076282
O7	O	1.103327	0.118538	0.076296
Cu8	Cu	0.982308	0.125914	0.090212
Cu9	Cu	0.982319	0.125916	-0.090114
O10	O	0.975892	0.260166	0.076280
C11	C	0.830319	0.132693	0.000039
C12	C	0.738021	0.130902	0.000034
C13	C	0.988132	-0.042696	0.000057
C14	C	0.986340	-0.145073	0.000058
C15	C	0.515887	0.210775	0.000040
C16	C	0.429163	0.209085	0.000046
C17	C	0.448747	0.041048	0.000053
C18	C	0.535468	0.042739	0.000053
C19	C	0.569036	0.127606	0.000042
C20	C	0.395591	0.124224	0.000047
C21	C	0.301562	0.122390	0.000054
C22	C	0.663071	0.129440	0.000037
C23	C	0.979741	-0.519955	0.000034
C24	C	0.981574	-0.415651	0.000041
C25	C	0.983041	-0.332517	0.000047
C26	C	0.984873	-0.228207	0.000052
C27	C	1.134307	0.119136	0.000056
C28	C	1.226606	0.120928	0.000055
C29	C	0.976494	0.294526	0.000038
C30	C	0.978287	0.396903	0.000031
N31	N	0.982307	0.125911	0.217044
N32	N	0.982326	0.125911	-0.216946
C33	C	1.038754	0.063219	0.452057
C34	C	1.038756	0.063217	0.548038
C35	C	0.925873	0.188606	0.548034
C36	C	0.925868	0.188603	0.452054
C37	C	0.982313	0.125911	0.404068
C38	C	0.982321	0.125912	0.596029
C39	C	0.982323	0.125910	0.700096
C40	C	0.982310	0.125911	0.299995
H41	H	0.543214	0.279879	0.000037
H42	H	0.385892	0.276810	0.000045
O43	O	0.415999	-0.041307	0.000015
C44	C	0.328059	-0.024968	0.000035
H45	H	0.307800	0.047008	-0.028835
H46	H	0.303911	-0.029435	0.073187
C47	C	0.316867	-0.186716	-0.024304
C48	C	0.291985	-0.098317	-0.059770
H49	H	0.294613	-0.231963	-0.061190
H50	H	0.376114	-0.197726	-0.024314
H51	H	0.296742	-0.190426	0.036655
H52	H	0.312119	-0.094605	-0.120724
H53	H	0.232740	-0.087309	-0.059772
O54	O	0.586985	-0.038142	0.000014
C55	C	0.538764	-0.113410	0.000038
H56	H	0.474075	-0.089989	-0.028833
H57	H	0.532550	-0.139426	0.073192
C58	C	0.661318	-0.220890	-0.024294
C59	C	0.581868	-0.192125	-0.059761
H60	H	0.687908	-0.269447	-0.061178
H61	H	0.693807	-0.170181	-0.024308
H62	H	0.656129	-0.242564	0.036667
H63	H	0.587059	-0.170441	-0.120716
H64	H	0.549382	-0.242832	-0.059760
O65	O	1.093608	0.002228	0.405585
C66	C	1.143437	-0.053090	0.468528
H67	H	1.109353	-0.054138	0.536948
H68	H	1.205242	-0.023128	0.478727
C69	C	1.202285	-0.151289	0.347047
C70	C	1.160419	-0.152582	0.431079
H71	H	1.212763	-0.212660	0.323946
H72	H	1.168716	-0.114018	0.304640
H73	H	1.253784	-0.126316	0.355558
H74	H	1.108916	-0.177544	0.422565
H75	H	1.193979	-0.189860	0.473484
H76	H	0.879902	0.239655	0.412979
H77	H	1.084715	0.012167	0.587108
O78	O	0.871131	0.249473	0.594791
C79	C	0.883225	0.236021	0.689796
H80	H	0.949272	0.201572	0.702902
H81	H	0.836102	0.189754	0.717045
C82	C	0.789755	0.372673	0.722963
C83	C	0.870877	0.330368	0.739061
H84	H	0.782135	0.430869	0.753354
H85	H	0.781604	0.381734	0.658957
H86	H	0.750495	0.334107	0.745671
H87	H	0.910135	0.368928	0.716343
H88	H	0.879035	0.321315	0.803065
