data_functionalizedCrystal
_audit_creation_method	'MofGen! by Chris Wilmer'
_symmetry_space_group_name_H-M	'P1'
_symmetry_Int_Tables_number	1
_symmetry_cell_setting	triclinic
loop_
_symmetry_equiv_pos_as_xyz
  x,y,z
_cell_length_a	10.685904
_cell_length_b	10.685676
_cell_length_c	10.686551
_cell_angle_alpha	89.701534
_cell_angle_beta	81.591549
_cell_angle_gamma	80.927530
loop_
_atom_site_label
_atom_site_type_symbol
_atom_site_fract_x
_atom_site_fract_y
_atom_site_fract_z
Zn1	Zn	1.975634	0.282822	-0.886834
Zn2	Zn	2.475634	0.782822	-0.386834
Zn3	Zn	1.942908	0.511418	-0.690835
Zn4	Zn	2.442908	1.011418	-0.190835
Zn5	Zn	1.744554	0.317943	-0.660796
Zn6	Zn	2.244554	0.817943	-0.160796
Zn7	Zn	1.747039	0.511296	-0.886735
Zn8	Zn	2.247039	1.011296	-0.386735
O9	O	1.852534	0.405870	-0.781300
O10	O	2.352534	0.905870	-0.281300
O11	O	2.149972	0.298498	-0.873446
O12	O	2.649972	0.798498	-0.373446
O13	O	1.901860	0.500503	-0.510267
O14	O	2.401860	1.000503	-0.010267
O15	O	1.787863	0.136697	-0.678251
O16	O	2.287863	0.636697	-0.178251
O17	O	2.125929	0.466447	-0.729447
O18	O	2.625929	0.966447	-0.229447
O19	O	1.957637	0.110894	-0.844319
O20	O	2.457637	0.610894	-0.344319
O21	O	1.756131	0.358357	-0.488198
O22	O	2.256131	0.858357	0.011802
O23	O	1.566204	0.358239	-0.678155
O24	O	2.066204	0.858239	-0.178155
O25	O	1.792098	0.466239	-1.063331
O26	O	2.292098	0.966239	-0.563331
O27	O	1.568030	0.500295	-0.844152
O28	O	2.068030	1.000295	-0.344152
O29	O	1.960046	0.298380	-1.063403
O30	O	2.460046	0.798380	-0.563403
O31	O	1.904270	0.687989	-0.729351
O32	O	2.404270	1.187989	-0.229351
O33	O	1.760366	0.687900	-0.873279
O34	O	2.260366	1.187900	-0.373279
C35	C	1.520787	0.433066	-0.757884
C36	C	2.020787	0.933066	-0.257884
C37	C	1.378865	0.444728	-0.747899
C38	C	1.878865	0.944728	-0.247899
C39	C	1.829073	0.733726	-0.804594
C40	C	2.329073	1.233726	-0.304594
C41	C	1.819157	0.873972	-0.814610
C42	C	2.319157	1.373972	-0.314610
C43	C	2.185576	0.378569	-0.804808
C44	C	2.685576	0.878569	-0.304808
C45	C	2.327498	0.366934	-0.814826
C46	C	2.827498	0.866934	-0.314826
C47	C	1.876082	1.076732	-0.757928
C48	C	2.376082	1.576732	-0.257928
C49	C	1.886010	0.936485	-0.747924
C50	C	2.386010	1.436485	-0.247924
C51	C	1.880000	0.378378	-1.110433
C52	C	2.380000	0.878378	-0.610433
C53	C	1.891704	0.366663	-1.250691
C54	C	2.391704	0.866663	-0.750691
C55	C	1.825255	0.433157	-0.453446
C56	C	2.325255	0.933157	0.046554
C57	C	1.813823	0.444497	-0.313181
C58	C	2.313823	0.944497	0.186819
H59	H	1.392102	0.291403	-0.879761
H60	H	1.892102	0.791403	-0.379761
H61	H	1.950838	0.882714	-0.683175
H62	H	2.450838	1.382714	-0.183175
N63	N	1.713642	0.544647	-1.241931
N64	N	2.213642	1.044647	-0.741931
H65	H	1.719200	0.539103	-1.148476
H66	H	2.219200	1.039103	-0.648476
H67	H	1.625752	0.530586	-1.257071
H68	H	2.125752	1.030586	-0.757071
H69	H	1.967345	0.291064	-1.304497
H70	H	2.467345	0.791064	-0.804497
H71	H	1.314269	0.520247	-0.682959
H72	H	1.814269	1.020247	-0.182959
N73	N	1.733289	0.945190	-0.900399
N74	N	2.233289	1.445190	-0.400399
H75	H	1.738136	1.038643	-0.895638
H76	H	2.238136	1.538643	-0.395638
H77	H	1.642068	0.931431	-0.872633
H78	H	2.142068	1.431431	-0.372633
