data_functionalizedCrystal
_audit_creation_method	'MofGen! by Chris Wilmer'
_symmetry_space_group_name_H-M	'P1'
_symmetry_Int_Tables_number	1
_symmetry_cell_setting	triclinic
loop_
_symmetry_equiv_pos_as_xyz
  x,y,z
_cell_length_a	12.759400
_cell_length_b	12.759401
_cell_length_c	12.759393
_cell_angle_alpha	90.019322
_cell_angle_beta	89.969553
_cell_angle_gamma	89.988921
loop_
_atom_site_label
_atom_site_type_symbol
_atom_site_fract_x
_atom_site_fract_y
_atom_site_fract_z
Zn1	Zn	-0.418263	-1.606267	-0.594013
Zn2	Zn	-0.593982	-1.606166	-0.418336
Zn3	Zn	-0.418311	-1.430569	-0.418350
Zn4	Zn	-0.593894	-1.430562	-0.593975
O5	O	-0.506112	-1.518391	-0.506168
O6	O	-0.441589	-1.753274	-0.570719
O7	O	-0.570735	-1.582833	-0.271317
O8	O	-0.271284	-1.453920	-0.441673
O9	O	-0.570689	-1.753200	-0.441650
O10	O	-0.271248	-1.583005	-0.570732
O11	O	-0.441671	-1.453822	-0.271327
O12	O	-0.441586	-1.283547	-0.441636
O13	O	-0.570539	-1.453909	-0.741001
O14	O	-0.570586	-1.283542	-0.570668
O15	O	-0.441504	-1.582998	-0.741029
O16	O	-0.740991	-1.582826	-0.441614
O17	O	-0.740927	-1.453811	-0.570655
C18	C	-0.506082	-1.245423	-0.506150
C19	C	-0.506095	-1.128647	-0.506167
C20	C	-0.573370	-1.073810	-0.573242
C21	C	-0.573379	-0.964086	-0.573252
C22	C	-0.438834	-0.964045	-0.439103
C23	C	-0.438821	-1.073767	-0.439099
C24	C	-0.640645	-1.128689	-0.640310
C25	C	-0.707927	-1.073852	-0.707389
C26	C	-0.707936	-0.964128	-0.707399
C27	C	-0.640663	-0.909241	-0.640330
C28	C	-0.779080	-1.518336	-0.506152
C29	C	-0.895856	-1.518408	-0.506180
C30	C	-0.950620	-1.585589	-0.573436
C31	C	-1.060344	-1.585638	-0.573461
C32	C	-1.060531	-1.451322	-0.438966
C33	C	-0.950809	-1.451269	-0.438946
C34	C	-0.895668	-1.652728	-0.640669
C35	C	-0.950432	-1.719915	-0.707930
C36	C	-1.060156	-1.719964	-0.707955
C37	C	-1.115116	-1.652826	-0.640720
C38	C	-0.232079	-1.518475	-0.506208
C39	C	-0.115302	-1.518510	-0.506225
C40	C	-0.506006	-1.518464	-0.780202
C41	C	-0.505961	-1.518496	-0.896979
C42	C	-0.506133	-0.792424	-0.506184
C43	C	-0.506117	-0.909201	-0.506181
C44	C	-0.438766	-1.585722	-0.951857
C45	C	-0.438728	-1.585747	-1.061581
C46	C	-0.573089	-1.451316	-1.061539
C47	C	-0.573121	-1.451287	-0.951817
C48	C	-0.371606	-1.652930	-0.897018
C49	C	-0.304406	-1.720163	-0.951896
C50	C	-0.304368	-1.720188	-1.061621
C51	C	-0.371530	-1.652980	-1.116467
C52	C	-0.506142	-1.518378	-0.233201
C53	C	-0.505891	-1.518550	-0.116425
H54	H	-0.384064	-0.919348	-0.384498
H55	H	-0.806325	-1.652698	-0.640654
O56	O	-1.113192	-1.785320	-0.773326
C57	C	-1.101421	-1.918494	-0.906767
C58	C	-1.041230	-1.844543	-0.832773
H59	H	-1.043265	-1.966380	-0.954865
H60	H	-1.152762	-1.973548	-0.858639
H61	H	-1.152809	-1.870239	-0.961629
H62	H	-0.989785	-1.892714	-0.777896
H63	H	-0.989955	-1.789487	-0.880966
H64	H	-0.762712	-0.919482	-0.762026
O65	O	-0.640628	-0.802654	-0.640544
C66	C	-0.613625	-0.645271	-0.741331
C67	C	-0.613667	-0.765975	-0.741238
H68	H	-0.591808	-0.615579	-0.822727
H69	H	-0.694950	-0.615361	-0.719467
H70	H	-0.554008	-0.615513	-0.681833
H71	H	-0.673232	-0.795822	-0.800737
H72	H	-0.532304	-0.795815	-0.763055
H73	H	-1.105288	-1.396662	-0.384226
O74	O	-0.773156	-1.127117	-0.772691
C75	C	-0.824406	-1.160709	-0.951310
C76	C	-0.750452	-1.100343	-0.877474
H77	H	-0.806090	-1.139067	-1.036042
H78	H	-0.812842	-1.248563	-0.939874
H79	H	-0.909095	-1.139130	-0.932663
H80	H	-0.665734	-1.121833	-0.896075
H81	H	-0.762107	-1.012504	-0.888924
H82	H	-1.204461	-1.652859	-0.640759
O83	O	-0.897767	-1.385974	-0.373520
C84	C	-0.909521	-1.252698	-0.240179
C85	C	-0.969722	-1.326617	-0.314196
H86	H	-0.967671	-1.204673	-0.192212
H87	H	-0.858181	-1.300878	-0.185204
H88	H	-0.858132	-1.197763	-0.288388
H89	H	-1.021168	-1.381567	-0.266072
H90	H	-1.020996	-1.278372	-0.369173
H91	H	-0.249719	-1.774874	-0.907234
O92	O	-0.373447	-1.126880	-0.373835
C93	C	-0.239970	-1.115271	-0.240805
C94	C	-0.313970	-1.054990	-0.314647
H95	H	-0.191849	-1.057174	-0.192948
H96	H	-0.288094	-1.166583	-0.185720
H97	H	-0.185130	-1.166696	-0.289144
H98	H	-0.368825	-1.003509	-0.266393
H99	H	-0.265781	-1.003744	-0.369735
O100	O	-0.239058	-1.785588	-1.114768
C101	C	-0.105752	-1.918881	-1.103223
C102	C	-0.179678	-1.844879	-1.042906
H103	H	-0.057709	-1.966820	-1.045149
H104	H	-0.153930	-1.973881	-1.154559
H105	H	-0.050836	-1.870662	-1.154627
H106	H	-0.234610	-1.893013	-0.991445
H107	H	-0.131435	-1.789875	-0.991637
H108	H	-0.640647	-1.218032	-0.640308
O109	O	-0.371395	-1.653170	-1.223053
C110	C	-0.297581	-1.726927	-1.380533
C111	C	-0.297638	-1.726829	-1.259828
H112	H	-0.237939	-1.786458	-1.410302
H113	H	-0.378905	-1.748773	-1.410359
H114	H	-0.275809	-1.645555	-1.410297
H115	H	-0.319365	-1.808176	-1.229975
H116	H	-0.216305	-1.704925	-1.230073
O117	O	-0.896932	-1.784979	-0.773293
C118	C	-0.772983	-1.798977	-0.915165
C119	C	-0.833485	-1.725175	-0.841189
H120	H	-0.721689	-1.750654	-0.970092
H121	H	-0.721544	-1.853898	-0.867023
H122	H	-0.830994	-1.847023	-0.963195
H123	H	-0.775551	-1.677061	-0.793143
H124	H	-0.884940	-1.670323	-0.889391
H125	H	-0.371632	-1.652920	-0.807675
H126	H	-0.627769	-1.396599	-1.106203
O127	O	-0.638448	-1.386143	-0.898375
C128	C	-0.780354	-1.371966	-0.774486
C129	C	-0.706424	-1.445859	-0.834931
H130	H	-0.835346	-1.420218	-0.723194
H131	H	-0.732180	-1.317056	-0.723050
H132	H	-0.828317	-1.323913	-0.832533
H133	H	-0.658445	-1.493980	-0.776960
H134	H	-0.754658	-1.500700	-0.886383
