data_functionalizedCrystal
_audit_creation_method	'MofGen! by Chris Wilmer'
_symmetry_space_group_name_H-M	'P1'
_symmetry_Int_Tables_number	1
_symmetry_cell_setting	triclinic
loop_
_symmetry_equiv_pos_as_xyz
  x,y,z
_cell_length_a	17.019311
_cell_length_b	14.519709
_cell_length_c	12.996460
_cell_angle_alpha	90.007090
_cell_angle_beta	86.114693
_cell_angle_gamma	96.461763
loop_
_atom_site_label
_atom_site_type_symbol
_atom_site_fract_x
_atom_site_fract_y
_atom_site_fract_z
O1	O	1.046846	-0.117531	-0.178326
O2	O	0.817203	-0.132505	-0.157980
O3	O	0.938113	0.009240	-0.168683
O4	O	0.925936	-0.259276	-0.167623
O5	O	0.938101	0.009248	0.002452
O6	O	0.817190	-0.132497	0.013155
O7	O	1.046834	-0.117523	-0.007191
Cu8	Cu	0.932011	-0.125010	0.018608
Cu9	Cu	0.932026	-0.125019	-0.183779
O10	O	0.925923	-0.259268	0.003512
C11	C	0.787806	-0.131932	-0.069809
C12	C	0.700234	-0.130225	-0.062050
C13	C	0.204936	-0.120601	-0.013490
C14	C	0.287220	-0.122205	-0.020782
C15	C	0.328370	-0.123004	-0.117716
C16	C	0.287230	-0.122209	-0.207362
C17	C	0.204947	-0.120612	-0.200069
C18	C	0.576811	-0.127833	-0.144404
C19	C	0.659100	-0.129427	-0.151690
C20	C	0.659084	-0.129425	0.034891
C21	C	0.576800	-0.127822	0.042176
C22	C	0.535667	-0.127032	-0.047471
C23	C	0.412477	-0.124641	-0.125172
C24	C	0.451560	-0.125402	-0.040014
C25	C	0.937539	0.043602	-0.083065
C26	C	0.935839	0.145977	-0.082914
C27	C	1.076230	-0.118096	-0.095364
C28	C	1.163803	-0.119803	-0.103130
C29	C	0.926497	-0.293630	-0.082108
C30	C	0.928198	-0.396006	-0.082266
N31	N	0.932006	-0.125003	0.160956
C32	C	0.929578	0.520853	-0.082386
C33	C	0.931317	0.416551	-0.082532
C34	C	0.932708	0.333419	-0.082649
C35	C	0.934447	0.229110	-0.082797
N36	N	0.932037	-0.125019	-0.326127
C37	C	0.932025	-0.125020	0.580768
C38	C	0.932017	-0.125018	0.463964
C39	C	0.932016	-0.125012	0.370866
C40	C	0.932007	-0.125009	0.254054
H41	H	0.445991	-0.125289	-0.204095
H42	H	0.320740	-0.122866	-0.286288
H43	H	0.171437	-0.119955	0.065444
H44	H	0.320707	-0.122853	0.052213
H45	H	0.543331	-0.127186	-0.217401
H46	H	0.543304	-0.127151	0.121109
H47	H	0.171457	-0.119965	-0.273064
H48	H	0.418052	-0.124757	0.038909
H49	H	0.692601	-0.130086	-0.230629
H50	H	0.692583	-0.130070	0.107876
