data_functionalizedCrystal
_audit_creation_method	'MofGen! by Chris Wilmer'
_symmetry_space_group_name_H-M	'P1'
_symmetry_Int_Tables_number	1
_symmetry_cell_setting	triclinic
loop_
_symmetry_equiv_pos_as_xyz
  x,y,z
_cell_length_a	14.044220
_cell_length_b	11.026607
_cell_length_c	9.482900
_cell_angle_alpha	78.599815
_cell_angle_beta	79.855987
_cell_angle_gamma	79.112553
loop_
_atom_site_label
_atom_site_type_symbol
_atom_site_fract_x
_atom_site_fract_y
_atom_site_fract_z
O1	O	1.320299	-0.280364	-0.120726
O2	O	1.042498	-0.269603	-0.120763
O3	O	1.158374	-0.095838	-0.120742
O4	O	1.204423	-0.454128	-0.120747
O5	O	1.134863	-0.131288	0.121046
O6	O	1.018987	-0.305053	0.121025
O7	O	1.296788	-0.315814	0.121062
Cu8	Cu	1.155741	-0.313670	0.143121
Cu9	Cu	1.183545	-0.271746	-0.142822
O10	O	1.180912	-0.489578	0.121042
C11	C	1.138124	-0.067432	0.000149
C12	C	1.112800	0.070024	0.000140
C13	C	0.994625	-0.282619	0.000126
C14	C	0.887005	-0.268573	0.000112
C15	C	1.201163	-0.517984	0.000147
C16	C	1.226487	-0.655439	0.000146
C17	C	0.689959	-0.242902	0.000141
C18	C	0.649321	-0.342507	0.000146
C19	C	0.539679	-0.328224	0.000162
C20	C	0.799612	-0.257184	0.000125
C21	C	1.344661	-0.302797	0.000170
C22	C	1.452283	-0.316842	0.000175
N23	N	1.136192	-0.343157	0.344238
C24	C	1.182724	0.136260	0.000148
C25	C	1.156553	0.278328	0.000139
N26	N	1.203100	-0.242250	-0.343938
C27	C	1.177771	-0.280436	0.416444
C28	C	1.161515	-0.304980	0.583859
H29	H	0.642409	-0.146908	0.000150
O30	O	1.104536	-0.390578	0.657887
C31	C	0.944652	-0.452189	0.704705
C32	C	1.009063	-0.355146	0.620802
H33	H	0.867455	-0.423592	0.674730
H34	H	0.941579	-0.456701	0.826540
H35	H	0.977267	-0.548180	0.674883
H36	H	0.976498	-0.259106	0.650502
H37	H	1.012135	-0.350744	0.498988
H38	H	0.696874	-0.438509	0.000137
H39	H	1.077309	0.326795	0.000119
H40	H	1.250731	-0.170372	0.593946
O41	O	1.079216	-0.428750	0.418272
C42	C	0.919332	-0.490362	0.465089
C43	C	0.983743	-0.393318	0.381187
H44	H	0.842135	-0.461764	0.435114
H45	H	0.916260	-0.494873	0.586924
H46	H	0.951947	-0.586352	0.435268
H47	H	0.951178	-0.297279	0.410887
H48	H	0.986815	-0.388917	0.259373
O49	O	1.320972	0.286550	0.000222
C50	C	1.433220	0.092081	0.000145
C51	C	1.326176	0.157614	0.000095
H52	H	1.437465	-0.012170	0.000012
H53	H	1.460912	0.105047	0.101361
H54	H	1.480544	0.134882	-0.101015
H55	H	1.278775	0.114857	0.101187
H56	H	1.298563	0.144656	-0.101187
H57	H	1.261963	0.087788	0.000167
O58	O	1.234739	-0.194791	0.342538
C59	C	1.394667	-0.133305	0.295684
C60	C	1.330244	-0.230374	0.379472
H61	H	1.471902	-0.162053	0.325490
H62	H	1.362180	-0.037303	0.325571
H63	H	1.397624	-0.128741	0.173865
H64	H	1.327262	-0.235050	0.501310
H65	H	1.362756	-0.326327	0.349464
H66	H	1.033562	0.118496	0.000120
