data_functionalizedCrystal
_audit_creation_method	'MofGen! by Chris Wilmer'
_symmetry_space_group_name_H-M	'P1'
_symmetry_Int_Tables_number	1
_symmetry_cell_setting	triclinic
loop_
_symmetry_equiv_pos_as_xyz
  x,y,z
_cell_length_a	10.685661
_cell_length_b	18.050590
_cell_length_c	10.686551
_cell_angle_alpha	85.590282
_cell_angle_beta	80.927378
_cell_angle_gamma	85.639637
loop_
_atom_site_label
_atom_site_type_symbol
_atom_site_fract_x
_atom_site_fract_y
_atom_site_fract_z
Zn1	Zn	1.995678	-0.346640	-0.866129
Zn2	Zn	2.495678	0.153360	-0.366129
Zn3	Zn	1.979241	-0.479696	-0.653853
Zn4	Zn	2.479241	0.020304	-0.153853
Zn5	Zn	1.767113	-0.346674	-0.637654
Zn6	Zn	2.267113	0.153326	-0.137654
Zn7	Zn	1.783373	-0.461940	-0.849817
Zn8	Zn	2.283373	0.038060	-0.349817
O9	O	1.881351	-0.408738	-0.751863
O10	O	2.381351	0.091262	-0.251863
O11	O	2.171124	-0.371707	-0.851576
O12	O	2.671124	0.128293	-0.351576
O13	O	1.937417	-0.469496	-0.474075
O14	O	2.437417	0.030504	0.025925
O15	O	1.797507	-0.242746	-0.668010
O16	O	2.297507	0.257254	-0.168010
O17	O	2.159048	-0.469463	-0.695617
O18	O	2.659048	0.030537	-0.195617
O19	O	1.965433	-0.242722	-0.835869
O20	O	2.465433	0.257278	-0.335869
O21	O	1.781568	-0.371765	-0.462174
O22	O	2.281568	0.128235	0.037826
O23	O	1.591644	-0.354548	-0.652193
O24	O	2.091644	0.145452	-0.152193
O25	O	1.825220	-0.439200	-1.029611
O26	O	2.325220	0.060800	-0.529611
O27	O	1.603590	-0.439233	-0.808068
O28	O	2.103590	0.060767	-0.308068
O29	O	1.981200	-0.354490	-1.041595
O30	O	2.481200	0.145510	-0.541595
O31	O	1.953184	-0.581264	-0.679800
O32	O	2.453184	-0.081264	-0.179800
O33	O	1.809281	-0.568219	-0.823775
O34	O	2.309281	-0.068219	-0.323775
C35	C	1.551560	-0.394968	-0.726603
C36	C	2.051560	0.105032	-0.226603
C37	C	1.410476	-0.389093	-0.715827
C38	C	1.910476	0.110907	-0.215827
C39	C	1.881250	-0.601688	-0.751805
C40	C	2.381250	-0.101688	-0.251805
C41	C	1.881326	-0.684236	-0.751832
C42	C	2.381326	-0.184236	-0.251832
C43	C	1.959766	-0.890756	-0.673670
C44	C	2.459766	-0.390756	-0.173670
C45	C	1.999670	-0.936543	-0.791891
C46	C	2.499670	-0.436543	-0.291891
C47	C	1.881402	-0.835367	-0.751888
C48	C	2.381402	-0.335367	-0.251888
C49	C	1.841631	-0.936665	-0.633730
C50	C	2.341631	-0.436665	-0.133730
C51	C	1.881477	-0.981354	-0.751932
C52	C	2.381477	-0.481354	-0.251932
C53	C	1.921370	-0.880066	-0.870174
C54	C	2.421370	-0.380066	-0.370174
C55	C	1.763271	-0.880186	-0.711930
C56	C	2.263271	-0.380186	-0.211930
C57	C	1.803137	-0.925945	-0.830227
C58	C	2.303137	-0.425945	-0.330227
C59	C	1.881362	-0.751268	-0.751861
C60	C	2.381362	-0.251268	-0.251861
C61	C	1.881518	-1.065450	-0.751972
C62	C	2.381518	-0.565450	-0.251972
C63	C	2.212430	-0.422562	-0.777223
C64	C	2.712430	0.077438	-0.277223
C65	C	2.353516	-0.428453	-0.788030
C66	C	2.853516	0.071547	-0.288030
C67	C	1.906857	-0.394861	-1.082948
C68	C	2.406857	0.105139	-0.582948
C69	C	1.917726	-0.388947	-1.224036
C70	C	2.417726	0.111053	-0.724036
C71	C	1.881490	-0.215034	-0.751952
C72	C	2.381490	0.284966	-0.251952
C73	C	1.881549	-0.132490	-0.751990
C74	C	2.381549	0.367510	-0.251990
C75	C	1.856018	-0.422510	-0.422073
C76	C	2.356018	0.077490	0.077927
C77	C	1.845395	-0.428225	-0.281004
C78	C	2.345395	0.071775	0.218996
H79	H	2.026065	-0.875072	-0.607600
H80	H	2.526065	-0.375072	-0.107600
Br81	Br	1.728325	-0.491822	-1.182397
Br82	Br	2.228325	0.008178	-0.682397
H83	H	1.412684	-0.466640	-0.858099
H84	H	1.912684	0.033360	-0.358099
Br85	Br	1.311860	-0.325428	-0.599051
Br86	Br	1.811860	0.174572	-0.099051
H87	H	1.663363	-0.855533	-0.678076
H88	H	2.163363	-0.355533	-0.178076
Br89	Br	2.166239	-0.977589	-0.848293
Br90	Br	2.666239	-0.477589	-0.348293
H91	H	1.736906	-0.941487	-0.896475
H92	H	2.236906	-0.441487	-0.396475
H93	H	1.987977	-0.350796	-1.283208
H94	H	2.487977	0.149204	-0.783208
Br95	Br	1.977697	-0.838990	-1.036814
Br96	Br	2.477697	-0.338990	-0.536814
H97	H	1.807963	-0.961410	-0.533786
H98	H	2.307963	-0.461410	-0.033786
