data_functionalizedCrystal
_audit_creation_method	'MofGen! by Chris Wilmer'
_symmetry_space_group_name_H-M	'P1'
_symmetry_Int_Tables_number	1
_symmetry_cell_setting	triclinic
loop_
_symmetry_equiv_pos_as_xyz
  x,y,z
_cell_length_a	19.377372
_cell_length_b	21.606444
_cell_length_c	21.606444
_cell_angle_alpha	60.000398
_cell_angle_beta	89.998894
_cell_angle_gamma	72.112173
loop_
_atom_site_label
_atom_site_type_symbol
_atom_site_fract_x
_atom_site_fract_y
_atom_site_fract_z
Zr1	Zr	0.580554	0.861714	-0.173331
O2	O	0.484327	0.960293	-0.256882
O3	O	0.610054	0.741958	-0.147721
O4	O	0.610054	0.871080	-0.276838
O5	O	0.484327	0.831169	-0.025911
O6	O	0.709228	0.902557	-0.292576
O7	O	0.484327	0.831172	-0.127765
O8	O	0.709229	0.671583	-0.061610
O9	O	0.484326	1.062143	-0.256878
O10	O	0.696647	0.822550	-0.148540
O11	O	0.622634	0.799057	-0.060783
O12	O	0.622633	0.951081	-0.212802
O13	O	0.548620	0.927588	-0.125044
Zr14	Zr	0.738725	0.911913	-0.035987
Zr15	Zr	0.738726	0.911917	-0.198432
Zr16	Zr	0.580553	0.861710	-0.010886
Zr17	Zr	0.580553	1.024154	-0.173325
Zr18	Zr	0.738727	0.749473	-0.035993
O19	O	0.709225	1.031669	-0.061597
O20	O	0.709227	1.031675	-0.292572
O21	O	0.484325	0.960287	-0.025907
O22	O	0.834953	0.813335	0.047563
O23	O	0.834954	0.813340	-0.183411
O24	O	0.610053	0.741952	0.083254
O25	O	0.834953	0.942458	-0.183407
O26	O	0.709226	0.902548	0.067520
O27	O	0.610051	0.871070	0.083258
O28	O	0.834952	0.942456	-0.081554
O29	O	0.610051	1.102048	-0.276830
O30	O	0.709228	0.671579	0.067512
O31	O	0.834954	0.711484	0.047560
O32	O	0.834955	0.711487	-0.081561
O33	O	0.484325	1.062140	-0.127757
O34	O	0.610050	1.102045	-0.147709
O35	O	0.696646	0.822547	0.003484
O36	O	0.770660	0.846040	-0.084274
O37	O	0.696646	0.974570	-0.148535
O38	O	0.622632	0.951077	-0.060778
C39	C	0.659642	0.683626	-0.104666
C40	C	0.659643	0.614666	-0.104668
C41	C	0.698275	0.594532	-0.150478
C42	C	0.698278	0.529732	-0.150473
C43	C	0.659643	0.485072	-0.104662
C44	C	0.621009	0.505209	-0.058848
C45	C	0.621012	0.570004	-0.058849
C46	C	0.621001	0.243897	-0.058840
C47	C	0.621000	0.179100	-0.058844
C48	C	0.698267	0.203625	-0.150464
C49	C	0.698269	0.268420	-0.150465
C50	C	0.659639	0.288550	-0.104648
C51	C	0.659638	0.358812	-0.104653
C52	C	0.659640	0.414814	-0.104661
C53	C	0.461791	0.824018	-0.073262
C54	C	0.394643	0.802705	-0.062606
C55	C	-0.019367	1.068061	-0.195279
C56	C	-0.082453	1.048017	-0.185256
C57	C	-0.005178	0.913841	-0.118173
C58	C	0.057915	0.933874	-0.128186
C59	C	0.050814	1.010985	-0.166741
C60	C	0.128097	0.876798	-0.099648
C61	C	0.191185	0.896829	-0.109665
C62	C	0.184091	0.973937	-0.148220
C63	C	0.113902	1.031016	-0.176758
C64	C	0.135196	0.799687	-0.061099
C65	C	0.205377	0.742611	-0.032561
C66	C	0.268467	0.762642	-0.042572
C67	C	0.261373	0.839750	-0.081127
C68	C	0.338656	0.705562	-0.014034
C69	C	0.401744	0.725594	-0.024051
C70	C	0.324461	0.859781	-0.091144
C71	C	0.857489	0.949610	-0.136057
C72	C	0.924637	0.970922	-0.146713
C73	C	0.659641	0.886819	-0.307852
C74	C	0.659641	0.886821	-0.376814
C75	C	0.659638	1.090001	-0.104652
C76	C	0.659637	1.158961	-0.104650
C77	C	0.714277	0.904164	-0.417882
C78	C	0.714280	0.904158	-0.482676
C79	C	0.659642	0.886815	-0.506402
C80	C	0.605003	0.869469	-0.465327
C81	C	0.605005	0.869469	-0.400532
C82	C	0.604997	0.869466	-0.726636
C83	C	0.604999	0.869469	-0.791437
C84	C	0.714272	0.904155	-0.808780
C85	C	0.714273	0.904155	-0.743985
C86	C	0.659637	0.886805	-0.702914
C87	C	0.659636	0.886810	-0.632657
C88	C	0.659640	0.886815	-0.576660
C89	C	0.659639	0.886808	0.098534
C90	C	0.659638	0.886807	0.167496
C91	C	0.857491	0.746423	-0.136063
C92	C	0.924640	0.698775	-0.146722
C93	C	0.659641	0.683621	0.098527
C94	C	0.659641	0.614659	0.167486
C95	C	0.857490	0.746417	0.067129
C96	C	0.924638	0.698768	0.125433
C97	C	0.461790	1.027210	-0.276447
C98	C	0.394641	1.074859	-0.334751
C99	C	0.461789	1.027205	-0.073255
C100	C	0.394640	1.074852	-0.062596
C101	C	0.659639	1.090006	-0.307845
C102	C	0.659639	1.158968	-0.376804
C103	C	0.917540	0.664138	-0.185280
C104	C	0.980627	0.619375	-0.195309
C105	C	1.050814	0.609246	-0.166775
C106	C	1.057912	0.643889	-0.128215
C107	C	0.994826	0.688655	-0.118191
C108	C	0.698275	0.594535	0.233424
C109	C	0.698272	0.529747	0.298225
C110	C	0.659640	0.485080	0.297087
C111	C	0.621001	0.505209	0.231143
C112	C	0.621000	0.570000	0.166344
C113	C	0.994813	0.688657	0.107003
C114	C	1.057912	0.643896	0.161778
C115	C	1.050835	0.609243	0.234983
C116	C	0.980653	0.619358	0.253412
C117	C	0.917555	0.664123	0.198637
C118	C	0.324467	1.084978	-0.316321
C119	C	0.261368	1.129759	-0.371096
C120	C	0.268445	1.164416	-0.444301
C121	C	0.338627	1.154296	-0.462730
C122	C	0.401724	1.109521	-0.407955
C123	C	0.401740	1.109496	-0.024044
C124	C	0.338652	1.154277	-0.014033
C125	C	0.268466	1.164408	-0.042570
C126	C	0.261367	1.129762	-0.081127
C127	C	0.324454	1.084987	-0.091142
C128	C	0.698279	1.203617	-0.375643
C129	C	0.698293	1.268409	-0.440434
C130	C	0.659662	1.288555	-0.506385
C131	C	0.621021	1.243900	-0.507544
C132	C	0.621012	1.179105	-0.442755
H133	H	0.729725	0.187228	-0.187768
Br134	Br	1.004437	0.735683	0.007660
Br135	Br	0.530849	0.845922	-0.670901
Br136	Br	0.970976	0.572367	-0.247640
Br137	Br	0.822321	0.677834	0.223662
H138	H	-0.139599	1.094501	-0.208500
H139	H	0.217061	1.200873	-0.488895
Br140	Br	0.530857	0.845924	-0.344792
Br141	Br	0.314842	1.037950	-0.216978
Br142	Br	0.788422	0.927699	-0.711790
H143	H	0.589543	1.142757	-0.443710
Br144	Br	0.750705	0.655141	-0.212658
H145	H	0.560519	0.855343	-0.484646
Br146	Br	0.166131	1.143480	-0.346069
H147	H	0.860396	0.672385	-0.208528
H148	H	0.729736	0.513339	-0.187774
H149	H	1.115051	0.635666	0.146760
Br150	Br	0.568584	0.597327	0.003327
H151	H	1.102177	0.572792	-0.174941
Br152	Br	0.750735	1.329003	-0.438842
H153	H	0.589542	0.586375	0.112657
H154	H	0.344380	1.182519	-0.522339
Br155	Br	0.971061	0.572324	0.352765
Br156	Br	0.750698	0.329032	-0.212644
Br157	Br	0.659649	0.397151	0.385036
H158	H	0.589569	1.260313	-0.561250
Br159	Br	1.153172	0.630132	-0.089491
Br160	Br	1.004475	0.735654	-0.065853
Br161	Br	0.750715	0.655139	0.234988
Br162	Br	0.750715	0.502443	0.387710
H163	H	0.589548	0.468832	0.230227
H164	H	0.589556	0.468839	-0.021544
H165	H	1.102219	0.572795	0.279576
H166	H	0.458862	1.101283	-0.422970
H167	H	0.458884	1.101251	-0.000800
H168	H	0.344446	1.182479	0.017365
H169	H	0.217102	1.200869	-0.034410
Br170	Br	0.166108	1.143518	-0.119849
Br171	Br	0.530842	0.845931	-0.823637
H172	H	0.318663	1.056779	-0.122532
H173	H	0.729736	1.187225	-0.321949
H174	H	0.659676	1.341317	-0.559135
H175	H	0.758762	0.918279	-0.842226
Br176	Br	0.568563	0.118489	0.003332
H177	H	0.318677	0.922573	-0.122516
Br178	Br	0.568579	0.271204	0.003345
H179	H	0.108118	1.093808	-0.208130
Br180	Br	-0.028998	1.172713	-0.247592
Br181	Br	0.004450	0.809194	-0.065853
Br182	Br	0.215006	0.637964	0.019759
Br183	Br	0.348281	0.600916	0.038276
Br184	Br	0.269710	1.001126	-0.161820
H185	H	0.458889	0.679117	-0.000800
Br186	Br	0.788431	0.927691	-0.538412
H187	H	0.083823	0.783380	-0.052950
Br188	Br	0.788428	0.927710	-0.385694
