data_functionalizedCrystal
_audit_creation_method	'MofGen! by Chris Wilmer'
_symmetry_space_group_name_H-M	'P1'
_symmetry_Int_Tables_number	1
_symmetry_cell_setting	triclinic
loop_
_symmetry_equiv_pos_as_xyz
  x,y,z
_cell_length_a	11.026607
_cell_length_b	14.044220
_cell_length_c	10.065875
_cell_angle_alpha	99.592716
_cell_angle_beta	79.302338
_cell_angle_gamma	100.887447
loop_
_atom_site_label
_atom_site_type_symbol
_atom_site_fract_x
_atom_site_fract_y
_atom_site_fract_z
O1	O	1.670494	0.393284	-0.113515
O2	O	2.003827	0.726618	0.219818
O3	O	2.337161	1.059951	0.553152
O4	O	1.312203	0.347236	-0.113514
O5	O	1.645537	0.680569	0.219819
O6	O	1.978870	1.013903	0.553152
O7	O	1.485969	0.231359	-0.113501
O8	O	1.819302	0.564692	0.219832
O9	O	2.152635	0.898026	0.553165
O10	O	1.496729	0.509161	-0.113528
O11	O	1.830062	0.842494	0.219805
O12	O	2.163395	1.175828	0.553138
O13	O	1.452846	0.253569	0.113485
O14	O	1.786180	0.586902	0.446818
O15	O	2.119513	0.920235	0.780152
O16	O	1.279081	0.369446	0.113472
O17	O	1.612414	0.702779	0.446805
O18	O	1.945747	1.036112	0.780139
O19	O	1.637372	0.415494	0.113471
O20	O	1.970705	0.748827	0.446804
O21	O	2.304038	1.082160	0.780138
Zn22	Zn	1.452967	0.395996	0.149510
Zn23	Zn	1.786301	0.729329	0.482844
Zn24	Zn	2.119634	1.062663	0.816177
Zn25	Zn	1.496608	0.366734	-0.149554
Zn26	Zn	1.829941	0.700067	0.183780
Zn27	Zn	2.163274	1.033400	0.517113
O28	O	1.463606	0.531371	0.113458
O29	O	1.796939	0.864704	0.446791
O30	O	2.130273	1.198037	0.780125
C31	C	1.249512	0.349846	-0.000021
C32	C	1.582845	0.683179	0.333312
C33	C	1.916178	1.016512	0.666646
C34	C	1.112056	0.324521	-0.000020
C35	C	1.445389	0.657855	0.333313
C36	C	1.778723	0.991188	0.666646
C37	C	1.045821	0.394445	-0.000028
C38	C	1.379154	0.727778	0.333305
C39	C	1.712487	1.061112	0.666639
C40	C	0.903753	0.368273	-0.000027
C41	C	1.237087	0.701606	0.333306
C42	C	1.570420	1.034940	0.666639
C43	C	1.464699	0.206346	-0.000008
C44	C	1.798033	0.539680	0.333326
C45	C	2.131366	0.873013	0.666659
C46	C	1.450655	0.098724	-0.000006
C47	C	1.783989	0.432058	0.333327
C48	C	2.117322	0.765391	0.666661
C49	C	1.424983	-0.098320	-0.000025
C50	C	1.758316	0.235013	0.333308
C51	C	2.091650	0.568347	0.666641
C52	C	1.524588	-0.138958	-0.000030
C53	C	1.857921	0.194375	0.333304
C54	C	2.191255	0.527709	0.666637
C55	C	1.510304	-0.248600	-0.000041
C56	C	1.843637	0.084733	0.333293
C57	C	2.176970	0.418067	0.666626
C58	C	1.439265	0.011332	-0.000015
C59	C	1.772599	0.344665	0.333319
C60	C	2.105932	0.677998	0.666652
C61	C	1.700064	0.412884	-0.000025
C62	C	2.033397	0.746217	0.333308
C63	C	2.366730	1.079550	0.666641
C64	C	1.837520	0.438207	-0.000035
C65	C	2.170854	0.771540	0.333298
C66	C	2.504187	1.104874	0.666632
C67	C	1.484876	0.556383	-0.000039
C68	C	1.818209	0.889717	0.333295
C69	C	2.151543	1.223050	0.666628
C70	C	1.498921	0.664004	-0.000049
C71	C	1.832255	0.997338	0.333284
C72	C	2.165588	1.330671	0.666617
N73	N	1.423193	0.415967	0.353614
N74	N	1.756526	0.749301	0.686947
N75	N	2.089860	1.082634	1.020280
N76	N	1.526391	0.346756	-0.353657
N77	N	1.859724	0.680090	-0.020324
N78	N	2.193058	1.013423	0.313010
C79	C	1.486240	0.373675	0.421397
C80	C	1.819573	0.707008	0.754731
C81	C	2.152906	1.040342	1.088064
C82	C	1.463335	0.389055	0.578563
C83	C	1.796668	0.722388	0.911896
C84	C	2.130002	1.055721	1.245230
H85	H	1.063591	0.245278	-0.000048
H86	H	1.396924	0.578611	0.333286
H87	H	1.730258	0.911945	0.666619
H88	H	0.885983	0.517454	-0.000034
H89	H	1.219316	0.850787	0.333300
H90	H	1.552649	1.184120	0.666633
H91	H	1.352254	0.463557	0.411935
H92	H	1.685587	0.796891	0.745268
H93	H	2.018921	1.130224	1.078601
H94	H	1.557169	0.326076	0.363079
H95	H	1.890502	0.659410	0.696412
H96	H	2.223836	0.992743	1.029745
H97	H	1.328988	-0.145870	-0.000029
H98	H	1.662321	0.187464	0.333305
H99	H	1.995655	0.520797	0.666638
H100	H	1.620605	-0.091415	-0.000122
H101	H	1.953938	0.241919	0.333212
H102	H	2.287271	0.575252	0.666545
H103	H	1.597325	0.299155	0.588028
H104	H	1.930658	0.632488	0.921361
H105	H	2.263991	0.965821	1.254694
C106	C	1.239315	0.506641	-0.000034
C107	C	1.572648	0.839974	0.333300
C108	C	1.905982	1.173308	0.666633
C109	C	1.111240	0.501420	-0.000035
C110	C	1.444573	0.834754	0.333298
C111	C	1.777907	1.168087	0.666632
H112	H	1.279698	0.572685	-0.000045
H113	H	1.613031	0.906018	0.333288
H114	H	1.946364	1.239352	0.666622
H115	H	1.251003	0.483143	0.079120
H116	H	1.584337	0.816476	0.412453
H117	H	1.917670	1.149809	0.745786
H118	H	1.274105	0.467647	-0.079191
H119	H	1.607438	0.800980	0.254142
H120	H	1.940772	1.134314	0.587476
H121	H	1.076448	0.540409	0.079128
H122	H	1.409781	0.873742	0.412461
H123	H	1.743114	1.207076	0.745795
H124	H	1.099543	0.524932	-0.079197
H125	H	1.432877	0.858265	0.254137
H126	H	1.766210	1.191598	0.587470
C127	C	0.710265	0.256071	-0.000029
C128	C	1.043599	0.589405	0.333304
C129	C	1.376932	0.922738	0.666638
C130	C	0.838340	0.261292	-0.000024
C131	C	1.171673	0.594626	0.333309
C132	C	1.505006	0.927959	0.666643
H133	H	0.669885	0.190026	-0.000037
H134	H	1.003218	0.523359	0.333297
H135	H	1.336552	0.856692	0.666630
H136	H	0.675474	0.295054	0.079121
H137	H	1.008807	0.628388	0.412454
H138	H	1.342140	0.961721	0.745787
H139	H	0.698580	0.279579	-0.079190
H140	H	1.031914	0.612912	0.254143
H141	H	1.365247	0.946246	0.587476
H142	H	0.850025	0.237791	0.079143
H143	H	1.183358	0.571124	0.412476
H144	H	1.516692	0.904458	0.745810
H145	H	0.873142	0.222295	-0.079182
H146	H	1.206475	0.555628	0.254152
H147	H	1.539808	0.888962	0.587485
H148	H	1.392391	0.436648	0.636878
H149	H	1.725725	0.769981	0.970212
H150	H	2.059058	1.103315	1.303545
