data_functionalizedCrystal
_audit_creation_method	'MofGen! by Chris Wilmer'
_symmetry_space_group_name_H-M	'P1'
_symmetry_Int_Tables_number	1
_symmetry_cell_setting	triclinic
loop_
_symmetry_equiv_pos_as_xyz
  x,y,z
_cell_length_a	10.723022
_cell_length_b	10.489741
_cell_length_c	9.798715
_cell_angle_alpha	89.997135
_cell_angle_beta	89.996609
_cell_angle_gamma	84.503200
loop_
_atom_site_label
_atom_site_type_symbol
_atom_site_fract_x
_atom_site_fract_y
_atom_site_fract_z
O1	O	1.657298	0.178897	-0.113481
O2	O	2.157298	0.678897	0.386519
O3	O	1.294156	0.196024	-0.113486
O4	O	1.794156	0.696024	0.386514
O5	O	1.483990	0.001857	-0.113475
O6	O	1.983990	0.501857	0.386525
O7	O	1.467464	0.373063	-0.113492
O8	O	1.967464	0.873063	0.386508
O9	O	1.483976	0.001856	0.113507
O10	O	1.983976	0.501856	0.613507
O11	O	1.294141	0.196023	0.113496
O12	O	1.794141	0.696023	0.613496
O13	O	1.657284	0.178896	0.113501
O14	O	2.157284	0.678896	0.613501
Zn15	Zn	1.475710	0.187459	0.149537
Zn16	Zn	1.975710	0.687459	0.649537
Zn17	Zn	1.475729	0.187460	-0.149522
Zn18	Zn	1.975729	0.687460	0.350478
O19	O	1.467449	0.373063	0.113490
O20	O	1.967449	0.873063	0.613490
C21	C	1.247648	0.194777	0.000005
C22	C	1.747648	0.694777	0.500005
C23	C	1.109092	0.191050	0.000003
C24	C	1.609092	0.691050	0.500003
C25	C	1.482735	-0.045674	0.000015
C26	C	1.982735	0.454326	0.500015
C27	C	1.479000	-0.187301	0.000012
C28	C	1.979000	0.312699	0.500012
C29	C	1.060462	0.079080	0.000007
C30	C	1.560462	0.579080	0.500007
C31	C	0.917257	0.075225	0.000006
C32	C	1.417257	0.575225	0.500006
C33	C	1.358214	-0.255364	0.000001
C34	C	1.858214	0.244636	0.500001
C35	C	1.415265	-0.347523	0.111915
C36	C	1.915265	0.152477	0.611915
C37	C	1.415308	-0.347497	-0.111871
C38	C	1.915308	0.152503	0.388129
C39	C	1.536101	-0.277596	0.112019
C40	C	2.036101	0.222404	0.612019
C41	C	1.536127	-0.277560	-0.111868
C42	C	2.036127	0.222440	0.388132
C43	C	1.593266	-0.369692	0.000074
C44	C	2.093266	0.130308	0.500074
C45	C	1.703791	0.180142	0.000007
C46	C	2.203791	0.680142	0.500007
C47	C	1.842348	0.183870	-0.000000
C48	C	2.342348	0.683870	0.500000
C49	C	1.468705	0.420594	-0.000003
C50	C	1.968705	0.920594	0.499997
C51	C	1.472439	0.562221	-0.000009
C52	C	1.972439	1.062221	0.499991
N53	N	1.475707	0.187458	0.353637
N54	N	1.975707	0.687458	0.853637
N55	N	1.475743	0.187451	-0.353622
N56	N	1.975743	0.687451	0.146378
C57	C	1.555413	0.105574	0.421418
C58	C	2.055413	0.605574	0.921418
C59	C	1.555433	0.105569	0.578581
C60	C	2.055433	0.605569	1.078581
H61	H	1.124848	-0.013926	0.000005
H62	H	1.624848	0.486074	0.500005
H63	H	1.587197	-0.246548	-0.206487
H64	H	2.087197	0.253452	0.293513
H65	H	0.884210	0.279742	0.000004
H66	H	1.384210	0.779742	0.500004
Br67	Br	1.330101	-0.399090	-0.269559
Br68	Br	1.830101	0.100910	0.230441
Br69	Br	1.669187	-0.011273	0.675725
Br70	Br	2.169187	0.488727	1.175725
H71	H	1.407504	0.257564	0.588098
H72	H	1.907504	0.757564	1.088098
Br73	Br	1.001790	0.346077	-0.000021
Br74	Br	1.501790	0.846077	0.499979
Br75	Br	1.758935	-0.452180	0.000170
Br76	Br	2.258935	0.047820	0.500170
Br77	Br	1.192693	-0.172503	0.000173
Br78	Br	1.692693	0.327497	0.500173
Br79	Br	1.330080	-0.399156	0.269616
Br80	Br	1.830080	0.100844	0.769616
Br81	Br	1.621207	-0.226273	0.269893
Br82	Br	2.121207	0.273727	0.769893
Br83	Br	0.847480	-0.084570	0.000028
Br84	Br	1.347480	0.415430	0.500028
Br85	Br	1.668813	-0.011596	0.324226
Br86	Br	2.168813	0.488404	0.824226
H87	H	1.407477	0.257555	0.411957
H88	H	1.907477	0.757555	0.911957
