data_functionalizedCrystal
_audit_creation_method	'MofGen! by Chris Wilmer'
_symmetry_space_group_name_H-M	'P1'
_symmetry_Int_Tables_number	1
_symmetry_cell_setting	triclinic
loop_
_symmetry_equiv_pos_as_xyz
  x,y,z
_cell_length_a	15.944551
_cell_length_b	15.944551
_cell_length_c	17.766277
_cell_angle_alpha	89.992686
_cell_angle_beta	89.995130
_cell_angle_gamma	83.498738
loop_
_atom_site_label
_atom_site_type_symbol
_atom_site_fract_x
_atom_site_fract_y
_atom_site_fract_z
O1	O	1.114530	0.108333	-0.062517
O2	O	0.869980	0.121690	-0.062536
O3	O	0.998933	-0.007263	-0.062520
O4	O	0.985577	0.237286	-0.062534
O5	O	0.998911	-0.007270	0.062669
O6	O	0.869958	0.121683	0.062652
O7	O	1.114507	0.108327	0.062671
Cu8	Cu	0.992230	0.115004	0.074092
Cu9	Cu	0.992257	0.115012	-0.073958
O10	O	0.985554	0.237280	0.062654
C11	C	0.838675	0.121132	0.000056
C12	C	0.745429	0.119470	0.000049
C13	C	0.998367	-0.038561	0.000075
C14	C	0.996705	-0.131807	0.000075
C15	C	0.530572	0.035565	0.000068
C16	C	0.469563	0.074531	-0.061659
C17	C	0.574703	0.116462	0.000058
C18	C	0.469563	0.074543	0.061767
C19	C	0.409790	0.113551	0.000070
C20	C	0.514922	0.155450	-0.061720
C21	C	0.514929	0.155451	0.061761
C22	C	0.453937	0.194476	0.000019
C23	C	0.669705	0.118137	0.000050
C24	C	0.314789	0.111883	0.000072
C25	C	0.912801	-0.346663	0.000058
C26	C	0.951752	-0.407684	0.061787
C27	C	0.993698	-0.302533	0.000069
C28	C	0.951793	-0.407661	-0.061639
C29	C	0.990787	-0.467445	0.000060
C30	C	1.032671	-0.362325	0.061849
C31	C	1.032701	-0.362295	-0.061633
C32	C	1.071711	-0.423298	0.000111
C33	C	0.995372	-0.207530	0.000075
C34	C	0.989119	-0.562446	0.000060
C35	C	1.145813	0.108885	0.000078
C36	C	1.239059	0.110547	0.000080
C37	C	0.986120	0.268577	0.000058
C38	C	0.987782	0.361823	0.000053
N39	N	0.992218	0.114998	0.178223
N40	N	0.992277	0.115011	-0.178088
C41	C	1.049336	0.057926	0.217617
C42	C	1.049341	0.057922	0.296419
C43	C	0.992235	0.115005	0.335823
C44	C	0.935106	0.172082	0.296419
C45	C	0.935097	0.172078	0.217619
C46	C	0.981234	0.191503	0.460656
C47	C	0.981249	0.191508	0.539455
C48	C	0.992258	0.115015	0.578870
C49	C	1.003270	0.038515	0.539476
C50	C	1.003261	0.038511	0.460675
C51	C	0.992238	0.115015	0.421269
C52	C	1.049385	0.057934	0.703710
C53	C	1.049384	0.057929	0.782513
C54	C	0.935152	0.172096	0.782512
C55	C	0.935149	0.172093	0.703711
C56	C	0.992270	0.115013	0.664314
H57	H	0.563905	-0.031573	-0.000004
F58	F	0.969577	0.272925	0.418716
F59	F	1.110176	-0.002822	0.824441
F60	F	0.874371	0.232842	0.824446
H61	H	0.449468	0.040310	0.113951
H62	H	1.095894	0.011453	0.671632
F63	F	0.825033	-0.303129	0.000128
F64	F	0.907019	-0.433971	0.129992
H65	H	0.534919	0.189643	-0.113962
H66	H	0.888608	0.218558	0.328506
H67	H	0.888641	0.218570	0.671633
H68	H	1.138919	-0.456457	0.000151
F69	F	0.874301	0.232825	0.175691
F70	F	1.110138	-0.002825	0.338352
F71	F	1.077400	-0.335978	-0.129841
F72	F	0.907064	-0.433917	-0.129846
F73	F	0.443291	0.029814	-0.129866
H74	H	0.972287	0.253799	0.571524
F75	F	0.541232	0.200134	0.129970
F76	F	0.410594	0.282319	-0.000029
H77	H	1.066849	-0.342337	0.114093
H78	H	1.012225	-0.023778	0.428604
F79	F	1.110125	-0.002826	0.175690
H80	H	1.012234	-0.023773	0.571565
