data_functionalizedCrystal
_audit_creation_method	'MofGen! by Chris Wilmer'
_symmetry_space_group_name_H-M	'P1'
_symmetry_Int_Tables_number	1
_symmetry_cell_setting	triclinic
loop_
_symmetry_equiv_pos_as_xyz
  x,y,z
_cell_length_a	16.776229
_cell_length_b	17.699099
_cell_length_c	17.699083
_cell_angle_alpha	83.286183
_cell_angle_beta	89.992455
_cell_angle_gamma	89.993452
loop_
_atom_site_label
_atom_site_type_symbol
_atom_site_fract_x
_atom_site_fract_y
_atom_site_fract_z
O1	O	-0.066279	1.004071	0.095769
O2	O	-0.066283	0.783694	0.108209
O3	O	-0.066274	0.900109	-0.008200
O4	O	-0.066288	0.887657	0.212178
O5	O	0.066303	0.900093	-0.008207
O6	O	0.066294	0.783679	0.108202
O7	O	0.066298	1.004056	0.095762
Zn8	Zn	0.087345	0.893865	0.101981
Zn9	Zn	-0.087330	0.893885	0.101990
O10	O	0.066289	0.887641	0.212171
C11	C	0.000005	0.755490	0.107758
C12	C	0.000004	0.671472	0.106414
N13	N	0.206556	0.893857	0.101974
C14	C	0.000015	0.899655	-0.036400
C15	C	0.000015	0.898316	-0.120419
N16	N	-0.206541	0.893899	0.101991
C17	C	0.248278	0.945421	0.050449
C18	C	0.331730	0.945425	0.050448
C19	C	0.373459	0.893868	0.101977
C20	C	0.331732	0.842298	0.153504
C21	C	0.248282	0.842291	0.153500
C22	C	0.668280	0.842326	0.153519
C23	C	0.751736	0.842338	0.153520
C24	C	0.751728	0.945459	0.050467
C25	C	0.668277	0.945452	0.050463
C26	C	0.626557	0.893880	0.101987
C27	C	0.536069	0.893875	0.101987
C28	C	0.463946	0.893876	0.101982
C29	C	0.000008	1.032260	0.096213
C30	C	0.000005	1.116278	0.097556
C31	C	-0.072264	1.155753	0.098192
C32	C	-0.072265	1.234697	0.099448
C33	C	0.000004	1.274164	0.100073
C34	C	0.072277	1.234683	0.099435
C35	C	0.072278	1.155741	0.098174
C36	C	0.072278	1.553048	0.104520
C37	C	0.072273	1.631995	0.105784
C38	C	-0.072264	1.632004	0.105795
C39	C	-0.072264	1.553062	0.104533
C40	C	0.000010	1.513588	0.103891
C41	C	0.000010	1.427988	0.102528
C42	C	0.000004	1.359762	0.101442
C43	C	0.000018	0.966649	-0.169036
C44	C	0.000011	0.965387	-0.247979
C45	C	0.000007	0.895791	-0.278304
C46	C	0.000002	0.827453	-0.229680
C47	C	0.000003	0.828716	-0.150739
C48	C	-0.000005	0.822358	-0.548044
C49	C	-0.000004	0.821100	-0.626992
C50	C	0.000003	0.959029	-0.645284
C51	C	0.000004	0.960292	-0.566342
C52	C	-0.000005	0.891954	-0.517726
C53	C	0.000001	0.893324	-0.432127
C54	C	0.000006	0.894421	-0.363902
C55	C	-0.000001	0.888095	0.240371
C56	C	-0.000007	0.889434	0.324389
H57	H	0.214307	0.987407	0.008492
Cl58	Cl	0.384181	1.010248	-0.014327
H59	H	-0.131113	1.266835	0.099961
H60	H	0.000014	1.021031	-0.287561
Cl61	Cl	0.000011	1.044941	-0.706407
H62	H	-0.131112	1.520931	0.104028
Cl63	Cl	-0.163121	1.106145	0.097411
H64	H	0.000011	1.016964	-0.541657
Cl65	Cl	-0.163124	1.681633	0.106596
Cl66	Cl	0.384190	0.777479	0.218280
H67	H	-0.000005	0.764423	-0.651678
H68	H	-0.000006	0.770787	-0.254377
Cl69	Cl	0.163132	1.681609	0.106569
Cl70	Cl	0.000031	1.054147	-0.130922
Cl71	Cl	0.163137	1.503432	0.103734
Cl72	Cl	-0.000018	0.736447	-0.486936
H73	H	0.000001	0.773072	-0.111155
Cl74	Cl	0.163130	1.284299	0.100220
Cl75	Cl	0.615820	1.010270	-0.014315
H76	H	0.785705	0.987450	0.008511
Cl77	Cl	0.615837	0.777498	0.218293
Cl78	Cl	0.804195	0.777518	0.218303
H79	H	0.214313	0.800302	0.195456
H80	H	0.131126	1.123600	0.097664
