data_functionalizedCrystal
_audit_creation_method	'MofGen! by Chris Wilmer'
_symmetry_space_group_name_H-M	'P1'
_symmetry_Int_Tables_number	1
_symmetry_cell_setting	triclinic
loop_
_symmetry_equiv_pos_as_xyz
  x,y,z
_cell_length_a	10.685661
_cell_length_b	12.645330
_cell_length_c	10.686551
_cell_angle_alpha	94.404096
_cell_angle_beta	99.072622
_cell_angle_gamma	85.639214
loop_
_atom_site_label
_atom_site_type_symbol
_atom_site_fract_x
_atom_site_fract_y
_atom_site_fract_z
Zn1	Zn	1.995692	-0.494809	0.866189
Zn2	Zn	1.979259	-0.684739	0.653935
Zn3	Zn	1.767127	-0.494858	0.637714
Zn4	Zn	1.783391	-0.659393	0.849897
O5	O	1.881367	-0.583450	0.751934
O6	O	2.171139	-0.530591	0.851640
O7	O	1.937436	-0.670178	0.474155
O8	O	1.797517	-0.346506	0.668051
O9	O	2.159066	-0.670131	0.695698
O10	O	1.965442	-0.346471	0.835911
O11	O	1.781583	-0.530673	0.462238
O12	O	1.591657	-0.506096	0.652254
O13	O	1.825237	-0.626933	1.029686
O14	O	1.603607	-0.626980	0.808143
O15	O	1.981213	-0.506014	1.041656
O16	O	1.953207	-0.829721	0.679900
O17	O	1.809303	-0.811100	0.823872
C18	C	1.551575	-0.563794	0.726671
C19	C	1.410491	-0.555408	0.715894
C20	C	1.881273	-0.858875	0.751909
C21	C	1.881352	-0.976707	0.751950
C22	C	1.791250	-1.132607	0.842856
C23	C	1.790726	-1.010036	0.842501
C24	C	1.834870	-1.027118	0.615409
C25	C	1.834320	-1.149645	0.615960
C26	C	2.018451	-1.149759	0.796545
C27	C	2.017851	-1.026928	0.799407
C28	C	2.212447	-0.603183	0.777296
C29	C	2.353533	-0.611592	0.788104
C30	C	1.906872	-0.563641	1.083016
C31	C	1.917741	-0.555199	1.224103
C32	C	1.881498	-0.306949	0.751989
C33	C	1.881554	-0.189121	0.752013
C34	C	1.856034	-0.603109	0.422145
C35	C	1.845411	-0.611266	0.281078
H36	H	1.351316	-0.500885	0.645825
H37	H	1.689445	-0.976227	0.812188
H38	H	1.898104	-1.006555	0.545424
N39	N	1.431891	-0.683810	0.880924
H40	H	1.491452	-0.640513	0.943991
H41	H	1.482812	-0.739177	0.833295
H42	H	1.820998	-0.975320	0.943425
H43	H	1.821339	-1.157424	0.944089
N44	N	2.071962	-1.185674	0.926893
H45	H	2.152776	-1.231737	0.922234
H46	H	2.007907	-1.227779	0.958306
H47	H	1.690613	-1.158953	0.812880
N48	N	1.752346	-0.683396	1.202738
H49	H	1.773766	-0.758954	1.227236
H50	H	1.757538	-0.679317	1.109699
N51	N	1.701365	-1.182212	0.567566
H52	H	1.643664	-1.116996	0.546078
H53	H	1.669291	-1.219614	0.635268
H54	H	1.987991	-0.500741	1.283268
N55	N	1.916916	-1.200299	0.522516
H56	H	1.953517	-1.143008	0.481143
H57	H	1.864155	-1.245589	0.455300
H58	H	1.735475	-0.992484	0.578430
N59	N	2.064038	-0.982689	0.932576
H60	H	2.067031	-0.903013	0.933133
H61	H	2.151846	-1.015352	0.962513
N62	N	2.112768	-0.997624	0.719241
H63	H	2.068431	-0.951174	0.650713
H64	H	2.151721	-1.064412	0.678856
H65	H	2.085855	-1.187356	0.730505
