data_functionalizedCrystal
_audit_creation_method	'MofGen! by Chris Wilmer'
_symmetry_space_group_name_H-M	'P1'
_symmetry_Int_Tables_number	1
_symmetry_cell_setting	triclinic
loop_
_symmetry_equiv_pos_as_xyz
  x,y,z
_cell_length_a	23.532407
_cell_length_b	23.532407
_cell_length_c	16.098538
_cell_angle_alpha	87.283857
_cell_angle_beta	87.286853
_cell_angle_gamma	97.151323
loop_
_atom_site_label
_atom_site_type_symbol
_atom_site_fract_x
_atom_site_fract_y
_atom_site_fract_z
O1	O	-0.066579	0.757820	-0.069139
O2	O	0.266754	1.091153	0.264194
O3	O	0.600087	1.424486	0.597527
O4	O	-0.076582	0.591957	-0.069162
O5	O	0.256751	0.925290	0.264172
O6	O	0.590085	1.258624	0.597505
O7	O	0.011351	0.679890	-0.069160
O8	O	0.344685	1.013224	0.264173
O9	O	0.678018	1.346557	0.597506
O10	O	-0.154513	0.669886	-0.069141
O11	O	0.178821	1.003220	0.264193
O12	O	0.512154	1.336553	0.597526
O13	O	0.006235	0.674754	0.069352
O14	O	0.339568	1.008087	0.402686
O15	O	0.672901	1.341420	0.736019
O16	O	-0.081698	0.586821	0.069351
O17	O	0.251635	0.920154	0.402684
O18	O	0.584968	1.253487	0.736018
O19	O	-0.071696	0.752683	0.069374
O20	O	0.261637	1.086016	0.402707
O21	O	0.594971	1.419350	0.736040
Zn22	Zn	-0.077510	0.668936	0.091354
Zn23	Zn	0.255824	1.002270	0.424688
Zn24	Zn	0.589157	1.335603	0.758021
Zn25	Zn	-0.070768	0.675704	-0.091142
Zn26	Zn	0.262565	1.009037	0.242191
Zn27	Zn	0.595898	1.342371	0.575524
O28	O	-0.159629	0.664750	0.069372
O29	O	0.173704	0.998083	0.402705
O30	O	0.507037	1.331417	0.736039
C31	C	-0.078885	0.568173	0.000091
C32	C	0.254448	0.901506	0.333425
C33	C	0.587781	1.234840	0.666758
C34	C	-0.078119	0.504956	0.000082
C35	C	0.255214	0.838290	0.333415
C36	C	0.588548	1.171623	0.666749
C37	C	-0.125354	0.105852	0.000125
C38	C	0.207979	0.439185	0.333459
C39	C	0.541312	0.772518	0.666792
C40	C	-0.124643	0.046451	0.000130
C41	C	0.208690	0.379784	0.333464
C42	C	0.542024	0.713118	0.666797
O43	O	-0.168430	0.009705	0.000166
O44	O	0.164903	0.343039	0.333499
O45	O	0.498237	0.676372	0.666833
N46	N	-0.072366	0.023825	0.000123
N47	N	0.260967	0.357159	0.333456
N48	N	0.594300	0.690492	0.666790
C49	C	-0.020798	0.060603	0.000119
C50	C	0.312535	0.393936	0.333452
C51	C	0.645869	0.727270	0.666785
O52	O	0.023733	0.035904	0.000114
O53	O	0.357066	0.369237	0.333447
O54	O	0.690399	0.702570	0.666780
C55	C	-0.021510	0.120002	0.000120
C56	C	0.311823	0.453335	0.333453
C57	C	0.645157	0.786669	0.666786
C58	C	-0.073790	0.142625	0.000119
C59	C	0.259544	0.475958	0.333452
C60	C	0.592877	0.809291	0.666786
C61	C	-0.177630	0.128475	0.000126
C62	C	0.155704	0.461808	0.333459
C63	C	0.489037	0.795141	0.666792
C64	C	-0.178341	0.187871	0.000119
C65	C	0.154993	0.521205	0.333452
C66	C	0.488326	0.854538	0.666786
C67	C	-0.126776	0.224644	0.000112
C68	C	0.206557	0.557978	0.333446
C69	C	0.539891	0.891311	0.666779
C70	C	-0.074501	0.202021	0.000112
C71	C	0.258833	0.535354	0.333446
C72	C	0.592166	0.868688	0.666779
C73	C	0.030058	0.156778	0.000122
C74	C	0.363391	0.490112	0.333455
C75	C	0.696724	0.823445	0.666788
C76	C	0.029341	0.216181	0.000123
C77	C	0.362674	0.549514	0.333456
C78	C	0.696008	0.882848	0.666790
C79	C	-0.022939	0.238804	0.000122
C80	C	0.310395	0.572137	0.333456
C81	C	0.643728	0.905470	0.666789
C82	C	-0.023647	0.298191	0.000099
C83	C	0.309686	0.631524	0.333432
C84	C	0.643020	0.964857	0.666766
N85	N	-0.075924	0.320817	0.000107
N86	N	0.257410	0.654150	0.333440
N87	N	0.590743	0.987483	0.666773
C88	C	-0.127488	0.284043	0.000113
C89	C	0.205845	0.617377	0.333447
C90	C	0.539178	0.950710	0.666780
C91	C	-0.019306	-0.064140	0.000118
C92	C	0.314027	0.269194	0.333452
C93	C	0.647360	0.602527	0.666785
C94	C	-0.018594	-0.123537	0.000111
C95	C	0.314740	0.209796	0.333445
C96	C	0.648073	0.543130	0.666778
C97	C	-0.122439	-0.137685	0.000125
C98	C	0.210894	0.195648	0.333458
C99	C	0.544228	0.528982	0.666791
C100	C	-0.123151	-0.078286	0.000126
C101	C	0.210182	0.255047	0.333459
C102	C	0.543516	0.588381	0.666792
C103	C	-0.071583	-0.041514	0.000126
C104	C	0.261750	0.291820	0.333459
C105	C	0.595084	0.625153	0.666792
C106	C	-0.128977	0.408781	0.000099
C107	C	0.204356	0.742114	0.333432
C108	C	0.537689	1.075447	0.666765
C109	C	-0.129684	0.468183	0.000089
C110	C	0.203650	0.801516	0.333422
C111	C	0.536983	1.134850	0.666755
C112	C	-0.025839	0.482326	0.000080
C113	C	0.307495	0.815659	0.333413
C114	C	0.640828	1.148992	0.666747
C115	C	-0.025132	0.422929	0.000086
C116	C	0.308201	0.756262	0.333419
C117	C	0.641535	1.089595	0.666752
C118	C	-0.076706	0.386157	0.000098
C119	C	0.256627	0.719490	0.333431
C120	C	0.589961	1.052823	0.666764
O121	O	0.020117	0.334971	0.000067
O122	O	0.353450	0.668304	0.333400
O123	O	0.686784	1.001638	0.666734
O124	O	-0.172012	0.308751	0.000129
O125	O	0.161321	0.642084	0.333463
O126	O	0.494655	0.975417	0.666796
C127	C	-0.178287	0.667573	0.000118
C128	C	0.155046	1.000906	0.333452
C129	C	0.488379	1.334239	0.666785
C130	C	-0.241505	0.668338	0.000126
C131	C	0.091829	1.001672	0.333460
C132	C	0.425162	1.335005	0.666793
C133	C	-0.640606	0.621107	0.000077
C134	C	-0.307272	0.954440	0.333411
C135	C	0.026061	1.287773	0.666744
C136	C	-0.700006	0.621818	0.000072
C137	C	-0.366672	0.955152	0.333405
C138	C	-0.033339	1.288485	0.666738
O139	O	-0.736749	0.578034	0.000035
O140	O	-0.403416	0.911367	0.333368
O141	O	-0.070082	1.244701	0.666702
N142	N	-0.722632	0.674094	0.000080
N143	N	-0.389299	1.007428	0.333413
N144	N	-0.055966	1.340761	0.666746
C145	C	-0.685855	0.725662	0.000085
C146	C	-0.352522	1.058996	0.333419
C147	C	-0.019188	1.392329	0.666752
O148	O	-0.710555	0.770193	0.000091
O149	O	-0.377221	1.103526	0.333424
O150	O	-0.043888	1.436859	0.666758
C151	C	-0.626456	0.724950	0.000085
C152	C	-0.293122	1.058284	0.333418
C153	C	0.040211	1.391617	0.666752
C154	C	-0.603833	0.672671	0.000085
C155	C	-0.270500	1.006004	0.333419
C156	C	0.062834	1.339337	0.666752
C157	C	-0.617983	0.568831	0.000077
C158	C	-0.284649	0.902165	0.333410
C159	C	0.048684	1.235498	0.666743
C160	C	-0.558587	0.568120	0.000084
C161	C	-0.225253	0.901453	0.333417
C162	C	0.108080	1.234786	0.666751
C163	C	-0.521814	0.619684	0.000092
C164	C	-0.188481	0.953017	0.333425
C165	C	0.144853	1.286350	0.666759
C166	C	-0.544437	0.671959	0.000093
C167	C	-0.211104	1.005293	0.333426
C168	C	0.122229	1.338626	0.666759
C169	C	-0.589679	0.776518	0.000084
C170	C	-0.256346	1.109851	0.333418
C171	C	0.076987	1.443185	0.666751
C172	C	-0.530277	0.775801	0.000084
C173	C	-0.196943	1.109135	0.333417
C174	C	0.136390	1.442468	0.666750
C175	C	-0.507654	0.723522	0.000084
C176	C	-0.174321	1.056855	0.333417
C177	C	0.159012	1.390188	0.666751
C178	C	-0.448269	0.722812	0.000108
C179	C	-0.114935	1.056145	0.333441
C180	C	0.218398	1.389478	0.666774
N181	N	-0.425642	0.670536	0.000100
N182	N	-0.092309	1.003869	0.333433
N183	N	0.241024	1.337202	0.666766
C184	C	-0.462415	0.618972	0.000092
C185	C	-0.129082	0.952305	0.333425
C186	C	0.204252	1.285638	0.666758
C187	C	-0.810597	0.727154	0.000084
C188	C	-0.477264	1.060487	0.333418
C189	C	-0.143931	1.393821	0.666751
C190	C	-0.869995	0.727866	0.000090
C191	C	-0.536662	1.061200	0.333424
C192	C	-0.203329	1.394533	0.666757
C193	C	-0.884142	0.624022	0.000075
C194	C	-0.550809	0.957355	0.333409
C195	C	-0.217476	1.290689	0.666742
C196	C	-0.824743	0.623310	0.000075
C197	C	-0.491410	0.956643	0.333408
C198	C	-0.158077	1.289977	0.666742
C199	C	-0.787971	0.674878	0.000076
C200	C	-0.454638	1.008211	0.333409
C201	C	-0.121304	1.341545	0.666743
C202	C	-0.337679	0.617481	0.000108
C203	C	-0.004345	0.950815	0.333441
C204	C	0.328988	1.284148	0.666774
C205	C	-0.278277	0.616774	0.000118
C206	C	0.055056	0.950108	0.333452
C207	C	0.388390	1.283441	0.666785
C208	C	-0.264135	0.720618	0.000129
C209	C	0.069198	1.053952	0.333463
C210	C	0.402531	1.387285	0.666796
C211	C	-0.323532	0.721326	0.000123
C212	C	0.009801	1.054659	0.333456
C213	C	0.343135	1.387992	0.666790
C214	C	-0.360303	0.669753	0.000109
C215	C	-0.026969	1.003086	0.333443
C216	C	0.306364	1.336419	0.666776
O217	O	-0.411491	0.766573	0.000141
O218	O	-0.078157	1.099907	0.333474
O219	O	0.255176	1.433240	0.666808
O220	O	-0.437706	0.574449	0.000075
O221	O	-0.104373	0.907783	0.333408
O222	O	0.228960	1.241116	0.666742
C223	C	0.030009	0.677068	0.000092
C224	C	0.363343	1.010401	0.333425
C225	C	0.696676	1.343734	0.666758
C226	C	0.093227	0.676302	0.000078
C227	C	0.426560	1.009636	0.333411
C228	C	0.759893	1.342969	0.666745
C229	C	-0.069393	0.776467	0.000118
C230	C	0.263941	1.109801	0.333452
C231	C	0.597274	1.443134	0.666785
C232	C	-0.070159	0.839684	0.000122
C233	C	0.263175	1.173018	0.333456
C234	C	0.596508	1.506351	0.666789
N235	N	-0.082110	0.664322	0.215903
N236	N	0.251223	0.997655	0.549237
N237	N	0.584557	1.330988	0.882570
N238	N	-0.066163	0.680323	-0.215692
N239	N	0.267170	1.013656	0.117642
N240	N	0.600503	1.346990	0.450975
C241	C	-0.044801	0.701658	0.259489
C242	C	0.288533	1.034991	0.592822
C243	C	0.621866	1.368324	0.926156
C244	C	-0.048024	0.698435	0.346678
C245	C	0.285309	1.031768	0.680011
C246	C	0.618642	1.365102	1.013345
C247	C	-0.088560	0.657878	0.390280
C248	C	0.244773	0.991212	0.723613
C249	C	0.578106	1.324545	1.056946
C250	C	-0.125871	0.620539	0.346688
C251	C	0.207462	0.953872	0.680021
C252	C	0.540795	1.287205	1.013354
C253	C	-0.122645	0.623759	0.259500
C254	C	0.210689	0.957092	0.592834
C255	C	0.544022	1.290426	0.926167
C256	C	-0.100248	0.646204	0.653529
C257	C	0.233086	0.979537	0.986863
C258	C	0.566419	1.312870	1.320196
C259	C	-0.103473	0.642987	0.740723
C260	C	0.229861	0.976320	1.074056
C261	C	0.563194	1.309654	1.407389
C262	C	-0.025625	0.720883	0.740707
C263	C	0.307709	1.054216	1.074040
C264	C	0.641042	1.387550	1.407374
C265	C	-0.022404	0.724102	0.653518
C266	C	0.310930	1.057436	0.986851
C267	C	0.644263	1.390769	1.320185
C268	C	-0.059713	0.686760	0.609934
C269	C	0.273621	1.020094	0.943267
C270	C	0.606954	1.353427	1.276600
C271	C	-0.091858	0.654584	0.479401
C272	C	0.241476	0.987918	0.812734
C273	C	0.574809	1.321251	1.146067
C274	C	-0.056412	0.690052	0.520814
C275	C	0.276921	1.023385	0.854148
C276	C	0.610254	1.356719	1.187481
H277	H	0.017439	0.404509	0.000074
H278	H	0.350772	0.737842	0.333407
H279	H	0.684105	1.071176	0.666741
F280	F	-0.657111	0.513945	0.000065
F281	F	-0.323777	0.847278	0.333399
F282	F	0.009556	1.180611	0.666732
H283	H	0.016144	0.512277	0.000071
H284	H	0.349477	0.845610	0.333405
H285	H	0.682810	1.178944	0.666738
F286	F	0.037050	-0.147606	0.000093
F287	F	0.370383	0.185727	0.333427
F288	F	0.703717	0.519060	0.666760
H289	H	-0.170974	0.378847	0.000111
H290	H	0.162359	0.712181	0.333445
H291	H	0.495693	1.045514	0.666778
F292	F	-0.139956	0.606464	0.607151
F293	F	0.193378	0.939797	0.940484
F294	F	0.526711	1.273130	1.273817
F295	F	-0.254205	0.561129	0.000121
F296	F	0.079129	0.894462	0.333454
F297	F	0.412462	1.227795	0.666787
F298	F	-0.232517	0.089346	0.000133
F299	F	0.100817	0.422679	0.333466
F300	F	0.434150	0.756012	0.666799
H301	H	-0.367611	0.575486	0.000096
H302	H	-0.034278	0.908819	0.333430
H303	H	0.299055	1.242152	0.666763
F304	F	-0.233984	0.211940	0.000122
F305	F	0.099349	0.545273	0.333455
F306	F	0.432682	0.878607	0.666789
H307	H	-0.165722	-0.059871	0.000130
H308	H	0.167612	0.273462	0.333463
H309	H	0.500945	0.606795	0.666796
H310	H	-0.341952	0.763896	0.000135
H311	H	-0.008619	1.097229	0.333468
H312	H	0.324714	1.430562	0.666801
F313	F	-0.177319	-0.176832	0.000135
F314	F	0.156014	0.156501	0.333468
F315	F	0.489348	0.489834	0.666802
F316	F	0.035583	-0.025007	0.000111
F317	F	0.368917	0.308326	0.333444
F318	F	0.702250	0.641659	0.666777
F319	F	-0.169011	0.577372	0.393093
F320	F	0.164323	0.910705	0.726426
F321	F	0.497656	1.244039	1.059759
H322	H	-0.124864	0.621564	0.514908
H323	H	0.208470	0.954897	0.848242
H324	H	0.541803	1.288230	1.181575
F325	F	-0.923289	0.569143	0.000066
F326	F	-0.589956	0.902476	0.333400
F327	F	-0.256622	1.235809	0.666733
F328	F	0.085702	0.132715	0.000111
F329	F	0.419035	0.466049	0.333444
F330	F	0.752369	0.799382	0.666777
F331	F	-0.894066	0.783509	0.000102
F332	F	-0.560732	1.116842	0.333436
F333	F	-0.227399	1.450176	0.666769
H334	H	-0.540173	0.525549	0.000077
H335	H	-0.206840	0.858882	0.333410
H336	H	0.126494	1.192215	0.666744
F337	F	0.084228	0.255314	0.000126
F338	F	0.417562	0.588647	0.333459
F339	F	0.750895	0.921980	0.666792
F340	F	-0.800672	0.567668	0.000074
F341	F	-0.467339	0.901001	0.333407
F342	F	-0.134006	1.234334	0.666741
H343	H	-0.153025	0.593356	0.224014
H344	H	0.180308	0.926689	0.557347
H345	H	0.513642	1.260022	0.890680
H346	H	-0.780660	0.769149	0.000091
H347	H	-0.447327	1.102482	0.333424
H348	H	-0.113993	1.435816	0.666758
F349	F	-0.613742	0.832163	0.000069
F350	F	-0.280409	1.165496	0.333403
F351	F	0.052925	1.498829	0.666736
H352	H	-0.500339	0.817795	0.000080
H353	H	-0.167005	1.151129	0.333413
H354	H	0.166328	1.484462	0.666747
F355	F	-0.013270	0.733212	0.474409
F356	F	0.320063	1.066545	0.807743
F357	F	0.653396	1.399879	1.141076
F358	F	-0.224989	0.775493	0.000144
F359	F	0.108344	1.108827	0.333477
F360	F	0.441677	1.442160	0.666810
H361	H	-0.011794	0.734685	0.223994
H362	H	0.321539	1.068019	0.557328
H363	H	0.654872	1.401352	0.890661
F364	F	-0.008315	0.738171	0.393065
F365	F	0.325018	1.071504	0.726399
F366	F	0.658352	1.404838	1.059732
H367	H	0.010604	0.757126	0.618019
H368	H	0.343937	1.090460	0.951353
H369	H	0.677271	1.423793	1.284686
H370	H	-0.172258	0.486599	0.000088
H371	H	0.161076	0.819932	0.333421
H372	H	0.494409	1.153265	0.666754
H373	H	0.004751	0.751284	0.776201
H374	H	0.338085	1.084618	1.109534
H375	H	0.671418	1.417951	1.442868
H376	H	-0.136484	0.609959	0.776219
H377	H	0.196849	0.943293	1.109553
H378	H	0.530182	1.276626	1.442886
