data_functionalizedCrystal
_audit_creation_method	'MofGen! by Chris Wilmer'
_symmetry_space_group_name_H-M	'P1'
_symmetry_Int_Tables_number	1
_symmetry_cell_setting	triclinic
loop_
_symmetry_equiv_pos_as_xyz
  x,y,z
_cell_length_a	23.532407
_cell_length_b	17.019383
_cell_length_c	16.098538
_cell_angle_alpha	96.605849
_cell_angle_beta	87.299027
_cell_angle_gamma	83.124684
loop_
_atom_site_label
_atom_site_type_symbol
_atom_site_fract_x
_atom_site_fract_y
_atom_site_fract_z
O1	O	0.067272	1.053521	0.144746
O2	O	0.077123	0.822939	0.128228
O3	O	-0.010729	0.945183	0.136970
O4	O	0.155124	0.931278	0.136004
O5	O	-0.005617	0.938042	-0.002054
O6	O	0.082235	0.815799	-0.010795
O7	O	0.072384	1.046380	0.005722
Zn8	Zn	0.078121	0.929956	-0.024610
Zn9	Zn	0.071386	0.939364	0.158560
O10	O	0.160236	0.924137	-0.003019
C11	C	0.079404	0.789875	0.056603
C12	C	0.078580	0.701991	0.050307
C13	C	-0.029389	0.941258	0.067430
C14	C	-0.092607	0.940193	0.067348
C15	C	0.075408	0.664588	0.123125
C16	C	0.074644	0.582009	0.117196
C17	C	0.077047	0.536836	0.038450
C18	C	0.080221	0.574244	-0.034373
C19	C	0.080990	0.656821	-0.028444
C20	C	0.074869	0.287314	0.016757
C21	C	0.074098	0.204733	0.010833
C22	C	0.068522	0.212503	0.162403
C23	C	0.069288	0.295081	0.168325
C24	C	0.072465	0.332482	0.095502
C25	C	0.076263	0.452428	0.032388
C26	C	0.073252	0.416888	0.101565
C27	C	-0.491668	1.005859	0.072097
C28	C	-0.551069	1.004870	0.072033
O29	O	-0.587775	1.065743	0.076424
N30	N	-0.573744	0.932196	0.066826
C31	C	-0.537013	0.860507	0.061692
O32	O	-0.561754	0.798601	0.057259
C33	C	-0.477614	0.861496	0.061763
C34	C	-0.454943	0.934175	0.066961
C35	C	-0.468997	1.078531	0.077296
C36	C	-0.409599	1.079520	0.077359
C37	C	-0.372874	1.007836	0.072223
C38	C	-0.395546	0.935163	0.067024
C39	C	-0.440885	0.789808	0.056635
C40	C	-0.381482	0.790804	0.056707
C41	C	-0.358811	0.863482	0.061905
C42	C	-0.299423	0.864467	0.061951
N43	N	-0.276749	0.937141	0.067158
C44	C	-0.313474	1.008825	0.072294
C45	C	-0.661757	0.858433	0.061546
C46	C	-0.721156	0.857442	0.061469
C47	C	-0.735208	1.001806	0.071812
C48	C	-0.675808	1.002796	0.071882
C49	C	-0.639083	0.931107	0.066753
C50	C	-0.188735	1.010896	0.072425
C51	C	-0.129332	1.011877	0.072484
C52	C	-0.115286	0.867514	0.062146
C53	C	-0.174684	0.866531	0.062083
C54	C	-0.211408	0.938229	0.067225
O55	O	-0.262683	0.803627	0.057566
O56	O	-0.288726	1.070722	0.076738
C57	C	0.178896	0.928062	0.066522
C58	C	0.242113	0.929127	0.066610
C59	C	0.070102	1.079445	0.077349
C60	C	0.070926	1.167329	0.083651
N61	N	0.082717	0.923541	-0.149618
C62	C	0.045442	0.975444	-0.189491
C63	C	0.048663	0.970964	-0.277000
C64	C	0.089161	0.914583	-0.324634
C65	C	0.126438	0.862674	-0.284755
C66	C	0.123214	0.867151	-0.197248
C67	C	0.100838	0.898353	-0.589045
C68	C	0.104060	0.893882	-0.676558
C69	C	0.026284	1.002171	-0.668797
C70	C	0.023066	1.006647	-0.581288
C71	C	0.060340	0.954735	-0.541417
C72	C	0.092455	0.910004	-0.414083
C73	C	0.057043	0.959311	-0.451970
N74	N	0.066785	0.945785	0.283568
H75	H	0.072061	0.551559	0.176492
C76	C	-0.509389	1.157392	0.082941
C77	C	-0.554807	1.180293	0.156502
C78	C	-0.595195	1.259158	0.162138
C79	C	-0.590166	1.315123	0.094213
C80	C	-0.544746	1.292224	0.020647
C81	C	-0.504358	1.213358	0.015011
H82	H	-0.558532	1.138863	0.206788
H83	H	-0.628818	1.276110	0.216597
H84	H	-0.620063	1.373504	0.098385
H85	H	-0.541021	1.333654	-0.029640
H86	H	-0.470735	1.196407	-0.039448
H87	H	-0.110877	1.071063	0.076715
H88	H	0.071299	0.453670	0.165680
H89	H	-0.657354	1.061977	0.076116
C90	C	0.066639	0.344777	0.254945
C91	C	0.115847	0.393254	0.279204
C92	C	0.113193	0.442954	0.365823
C93	C	0.061330	0.444177	0.428182
C94	C	0.012118	0.395699	0.403924
C95	C	0.014772	0.345998	0.317306
H96	H	0.154243	0.392350	0.233041
H97	H	0.149623	0.478841	0.383780
H98	H	0.059364	0.480969	0.492302
H99	H	-0.026278	0.396603	0.450087
H100	H	-0.021658	0.310111	0.299349
C101	C	0.000892	1.037465	-0.137098
C102	C	-0.040111	1.094554	-0.180963
C103	C	-0.084664	1.156575	-0.128573
C104	C	-0.088213	1.161507	-0.032318
C105	C	-0.047208	1.104416	0.011553
C106	C	-0.002655	1.042395	-0.040837
H107	H	-0.037485	1.090905	-0.252222
H108	H	-0.115018	1.198837	-0.161049
H109	H	-0.121193	1.207418	0.006465
H110	H	-0.049834	1.108065	0.082812
H111	H	0.027699	1.000133	-0.008361
H112	H	-0.765121	1.060176	0.075997
H113	H	0.076071	0.167951	-0.053295
H114	H	-0.739608	0.798260	0.057222
H115	H	0.078218	0.415639	-0.031728
H116	H	0.153566	0.824885	-0.164784
C117	C	0.072765	0.714274	0.209749
C118	C	0.121981	0.762738	0.234005
C119	C	0.119340	0.812421	0.320632
C120	C	0.067485	0.813639	0.383002
C121	C	0.018266	0.765172	0.358748
C122	C	0.020906	0.715490	0.272121
H123	H	0.160371	0.761838	0.187833
H124	H	0.155776	0.848299	0.338586
H125	H	0.065530	0.850417	0.447129
H126	H	-0.020124	0.766072	0.404920
H127	H	-0.015530	0.679612	0.254167
C128	C	-0.021484	1.068662	-0.528888
C129	C	-0.001624	1.132107	-0.464380
C130	C	-0.046172	1.194124	-0.411976
C131	C	-0.110580	1.192696	-0.424082
C132	C	-0.130443	1.129249	-0.488593
C133	C	-0.085895	1.067232	-0.540996
H134	H	0.046057	1.133166	-0.455416
H135	H	-0.031468	1.241091	-0.364221
H136	H	-0.143557	1.238604	-0.385290
H137	H	-0.178124	1.128189	-0.497557
H138	H	-0.100599	1.020264	-0.588752
H139	H	0.065937	0.182042	0.221692
H140	H	-0.631858	0.800051	0.057362
H141	H	0.131189	0.856086	-0.556589
H142	H	0.077452	0.317756	-0.042541
C143	C	0.084482	0.697971	-0.108542
C144	C	0.136133	0.674039	-0.172533
C145	C	0.139631	0.715188	-0.252633
C146	C	0.091479	0.780269	-0.268741
C147	C	0.039825	0.804205	-0.204749
C148	C	0.036327	0.763055	-0.124649
H149	H	0.171781	0.625859	-0.160610
H150	H	0.177869	0.697470	-0.300004
H151	H	0.094069	0.810731	-0.328036
H152	H	0.004177	0.852385	-0.216671
H153	H	-0.001911	0.780774	-0.077277
H154	H	0.159411	0.816764	-0.323544
H155	H	-0.459333	0.730626	0.052407
H156	H	0.082181	0.537457	-0.098491
H157	H	-0.218630	1.069279	0.076616
C158	C	-0.014720	1.059266	-0.712656
C159	C	-0.055969	1.025599	-0.775027
C160	C	-0.096978	1.082694	-0.818885
C161	C	-0.096737	1.173458	-0.800372
C162	C	-0.055486	1.207130	-0.737998
C163	C	-0.014478	1.150034	-0.694141
H164	H	-0.056149	0.958406	-0.788734
H165	H	-0.127514	1.057768	-0.865058
H166	H	-0.127094	1.215723	-0.832839
H167	H	-0.055307	1.274322	-0.724291
H168	H	0.016058	1.174961	-0.647967
H169	H	-0.351583	0.732425	0.052531
H170	H	0.024067	1.005213	-0.413184
H171	H	-0.193142	0.807350	0.057826
H172	H	-0.085373	0.809150	0.057962
C173	C	0.148610	0.831855	-0.728955
C174	C	0.189608	0.774754	-0.685095
C175	C	0.234157	0.712732	-0.737489
C176	C	0.237708	0.707810	-0.833744
C177	C	0.196708	0.764912	-0.877609
C178	C	0.152159	0.826935	-0.825215
H179	H	0.186981	0.778396	-0.613837
H180	H	0.264508	0.670461	-0.705017
H181	H	0.270686	0.661898	-0.872530
H182	H	0.199336	0.761271	-0.948867
H183	H	0.121809	0.869206	-0.857687
H184	H	-0.391147	1.138702	0.081596
H185	H	0.018311	1.013228	-0.309465
H186	H	0.125431	0.864099	-0.452874
