data_functionalizedCrystal
_audit_creation_method	'MofGen! by Chris Wilmer'
_symmetry_space_group_name_H-M	'P1'
_symmetry_Int_Tables_number	1
_symmetry_cell_setting	triclinic
loop_
_symmetry_equiv_pos_as_xyz
  x,y,z
_cell_length_a	10.540539
_cell_length_b	11.026607
_cell_length_c	9.482900
_cell_angle_alpha	78.599815
_cell_angle_beta	80.617679
_cell_angle_gamma	83.444246
loop_
_atom_site_label
_atom_site_type_symbol
_atom_site_fract_x
_atom_site_fract_y
_atom_site_fract_z
O1	O	1.738884	-0.152500	-0.120820
O2	O	1.373010	-0.168642	-0.120838
O3	O	1.525623	0.016344	-0.120825
O4	O	1.586271	-0.337486	-0.120833
O5	O	1.494659	-0.021383	0.120965
O6	O	1.342045	-0.206369	0.120952
O7	O	1.707920	-0.190227	0.120969
Cu8	Cu	1.522155	-0.201743	0.143038
Cu9	Cu	1.558774	-0.157126	-0.142906
O10	O	1.555307	-0.375213	0.120957
C11	C	1.309960	-0.186294	0.000055
C12	C	1.168219	-0.182671	0.000048
C13	C	1.498953	0.042789	0.000067
C14	C	1.465601	0.177793	0.000061
C15	C	1.581977	-0.401657	0.000061
C16	C	1.615330	-0.536660	0.000058
C17	C	0.954316	-0.043955	0.000616
C18	C	1.101810	-0.047539	0.000056
C19	C	1.138473	-0.226159	-0.138022
C20	C	0.990931	-0.221532	-0.138122
C21	C	0.955832	-0.267183	0.136838
C22	C	1.102855	-0.268710	0.138648
C23	C	1.770970	-0.172574	0.000074
C24	C	1.912712	-0.176196	0.000071
N25	N	1.496409	-0.233123	0.344156
C26	C	1.557693	0.250800	0.000063
C27	C	1.523225	0.390334	0.000056
N28	N	1.584529	-0.125736	-0.344025
C29	C	1.551170	-0.166375	0.416360
C30	C	1.529760	-0.192494	0.583776
H31	H	1.120541	-0.011813	0.099030
H32	H	1.433669	-0.309600	0.406281
C33	C	1.669293	-0.022411	0.572061
N34	N	1.733140	0.055409	0.508856
C35	C	0.914789	0.048626	-0.132388
N36	N	0.885013	0.118356	-0.232566
C37	C	0.882757	0.007297	0.134381
N38	N	0.828847	0.045900	0.235137
H39	H	1.361240	0.218591	0.000046
H40	H	1.613898	-0.089889	0.354237
C41	C	1.756329	0.408240	0.000067
N42	N	1.862528	0.366737	0.000075
C43	C	0.956447	-0.134832	-0.277542
N44	N	0.930480	-0.069523	-0.382552
C45	C	1.160117	0.042970	-0.133888
N46	N	1.204034	0.111144	-0.234783
H47	H	0.965052	-0.317739	-0.144391
H48	H	1.418857	0.431127	0.000041
H49	H	0.929865	-0.364934	0.137769
C50	C	1.198932	-0.359139	-0.144975
N51	N	1.244473	-0.459299	-0.150211
C52	C	1.200405	-0.143464	-0.276839
N53	N	1.247047	-0.081170	-0.381394
H54	H	1.662054	0.210002	0.000077
C55	C	1.444997	-0.295820	0.667693
N56	N	1.381156	-0.373643	0.730902
H57	H	0.901304	-0.239781	0.241494
H58	H	1.147594	-0.368531	0.146982
C59	C	1.126406	-0.226024	0.276642
N60	N	1.144141	-0.193862	0.380576
