data_functionalizedCrystal
_audit_creation_method	'MofGen! by Chris Wilmer'
_symmetry_space_group_name_H-M	'P1'
_symmetry_Int_Tables_number	1
_symmetry_cell_setting	triclinic
loop_
_symmetry_equiv_pos_as_xyz
  x,y,z
_cell_length_a	12.759399
_cell_length_b	12.759401
_cell_length_c	12.759393
_cell_angle_alpha	90.017380
_cell_angle_beta	89.967815
_cell_angle_gamma	89.984723
loop_
_atom_site_label
_atom_site_type_symbol
_atom_site_fract_x
_atom_site_fract_y
_atom_site_fract_z
Zn1	Zn	-0.418198	-1.606241	-0.593978
Zn2	Zn	-0.593917	-1.606137	-0.418297
Zn3	Zn	-0.418253	-1.430546	-0.418318
Zn4	Zn	-0.593836	-1.430530	-0.593939
O5	O	-0.506051	-1.518364	-0.506133
O6	O	-0.441518	-1.753248	-0.570682
O7	O	-0.570672	-1.582808	-0.271279
O8	O	-0.271225	-1.453902	-0.441645
O9	O	-0.570618	-1.753172	-0.441610
O10	O	-0.271184	-1.582985	-0.570702
O11	O	-0.441613	-1.453802	-0.271294
O12	O	-0.441534	-1.283523	-0.441606
O13	O	-0.570480	-1.453875	-0.740965
O14	O	-0.570533	-1.283511	-0.570634
O15	O	-0.441439	-1.582969	-0.740994
O16	O	-0.740927	-1.582793	-0.441571
O17	O	-0.740868	-1.453775	-0.570614
C18	C	-0.506032	-1.245396	-0.506119
C19	C	-0.506049	-1.128620	-0.506138
C20	C	-0.779018	-1.518299	-0.506109
C21	C	-0.895795	-1.518368	-0.506134
C22	C	-0.505944	-1.518432	-0.780166
C23	C	-0.505898	-1.518461	-0.896943
C24	C	-0.950653	-1.585624	-0.439018
C25	C	-1.060377	-1.585691	-0.439053
C26	C	-1.060375	-1.451237	-0.573324
C27	C	-0.950653	-1.451176	-0.573293
C28	C	-1.210257	-1.709701	-0.401662
C29	C	-1.265118	-1.776948	-0.334530
C30	C	-1.229581	-1.793115	-0.232019
C31	C	-1.139182	-1.742019	-0.196620
C32	C	-1.084326	-1.674765	-0.263747
C33	C	-1.119862	-1.658618	-0.366273
C34	C	-0.800772	-1.327165	-0.610673
C35	C	-0.745914	-1.259904	-0.677795
C36	C	-0.781449	-1.243726	-0.780308
C37	C	-0.871851	-1.294804	-0.815703
C38	C	-0.926709	-1.362064	-0.748580
C39	C	-0.891166	-1.378244	-0.646069
C40	C	-0.232018	-1.518457	-0.506180
C41	C	-0.115241	-1.518497	-0.506200
C42	C	-0.506071	-1.792397	-0.506148
C43	C	-0.506080	-1.909173	-0.506154
C44	C	-0.573326	-1.073779	-0.573211
C45	C	-0.573340	-0.964055	-0.573223
C46	C	-0.438795	-0.964022	-0.439078
C47	C	-0.438777	-1.073744	-0.439072
C48	C	-0.651008	-1.073797	-0.650656
C49	C	-0.651021	-0.964073	-0.650667
C50	C	-0.438685	-1.451316	-0.951819
C51	C	-0.438653	-1.451348	-1.061543
C52	C	-0.573052	-1.585678	-1.061506
C53	C	-0.573088	-1.585641	-0.951784
C54	C	-0.361087	-1.373764	-0.951842
C55	C	-0.361056	-1.373796	-1.061566
C56	C	-0.506082	-1.518356	-0.233166
C57	C	-0.505831	-1.518531	-0.116389
H58	H	-0.905990	-1.640337	-0.384334
N59	N	-0.612458	-0.919024	-0.753087
H60	H	-0.593831	-0.977960	-0.802572
H61	H	-0.669342	-0.874422	-0.785316
H62	H	-0.279674	-1.395614	-1.091364
H63	H	-0.900785	-1.281632	-0.899177
H64	H	-0.390182	-1.296499	-1.095591
N65	N	-0.366186	-1.132881	-0.366745
H66	H	-0.382400	-1.113760	-0.291647
H67	H	-0.376400	-1.210700	-0.377003
N68	N	-0.645524	-1.658128	-1.120655
H69	H	-0.635308	-1.647961	-1.198491
H70	H	-0.629192	-1.733164	-1.101483
N71	N	-0.986835	-1.619651	-0.225582
H72	H	-0.972646	-1.640091	-0.150450
H73	H	-0.925300	-1.640652	-0.270773
H74	H	-0.627835	-1.640301	-0.907108
H75	H	-0.382876	-1.292375	-0.922064
N76	N	-0.758771	-0.924592	-0.621616
H77	H	-0.806843	-0.986115	-0.608636
H78	H	-0.753940	-0.880561	-0.556007
H79	H	-1.000316	-1.403659	-0.777409
N80	N	-1.100861	-1.759443	-0.086046
H81	H	-1.149328	-1.809803	-0.048893
H82	H	-1.027742	-1.789719	-0.088012
H83	H	-0.283809	-1.402929	-0.917826
H84	H	-1.338720	-1.818551	-0.363361
N85	N	-1.288783	-1.865625	-0.159618
H86	H	-1.290705	-1.938340	-0.190858
H87	H	-1.252537	-1.868031	-0.089313
N88	N	-1.248579	-1.692269	-0.512235
H89	H	-1.249630	-1.761264	-0.551040
H90	H	-1.321664	-1.661912	-0.510264
N91	N	-0.762436	-1.344613	-0.500103
H92	H	-0.818422	-1.322092	-0.448830
H93	H	-0.746343	-1.421403	-0.489630
H94	H	-1.105054	-1.396531	-0.628001
N95	N	-0.722291	-1.171169	-0.852703
H96	H	-0.659633	-1.141256	-0.814728
H97	H	-0.697839	-1.211536	-0.916279
N98	N	-0.366252	-0.904834	-0.366735
H99	H	-0.382483	-0.923906	-0.291642
H100	H	-0.291230	-0.923969	-0.383268
N101	N	-0.753340	-1.118853	-0.611874
H102	H	-0.785764	-1.163432	-0.668672
H103	H	-0.739946	-1.163343	-0.547810
N104	N	-0.648414	-1.204800	-0.639620
H105	H	-0.634219	-1.225258	-0.564495
H106	H	-0.586882	-1.225788	-0.684821
H107	H	-0.629308	-1.103604	-0.732063
