data_functionalizedCrystal
_audit_creation_method	'MofGen! by Chris Wilmer'
_symmetry_space_group_name_H-M	'P1'
_symmetry_Int_Tables_number	1
_symmetry_cell_setting	triclinic
loop_
_symmetry_equiv_pos_as_xyz
  x,y,z
_cell_length_a	14.044220
_cell_length_b	10.540539
_cell_length_c	12.503572
_cell_angle_alpha	93.560877
_cell_angle_beta	86.164750
_cell_angle_gamma	88.857185
loop_
_atom_site_label
_atom_site_type_symbol
_atom_site_fract_x
_atom_site_fract_y
_atom_site_fract_z
O1	O	1.265193	0.299541	-0.089197
O2	O	0.989150	0.288487	-0.089224
O3	O	1.133469	0.109945	-0.089208
O4	O	1.120874	0.478084	-0.089212
O5	O	1.122616	0.123396	0.089432
O6	O	0.978297	0.301939	0.089417
O7	O	1.254339	0.312993	0.089444
Cu8	Cu	1.115327	0.308694	0.105742
Cu9	Cu	1.128163	0.292786	-0.105522
O10	O	1.110020	0.491536	0.089428
C11	C	0.948377	0.290375	0.000093
C12	C	0.843054	0.275945	0.000082
C13	C	1.127098	0.069272	0.000110
C14	C	1.124272	-0.071962	0.000104
C15	C	0.650213	0.249566	0.000104
C16	C	0.593272	0.351908	0.000107
C17	C	0.485969	0.337231	0.000119
C18	C	0.757526	0.264241	0.000092
C19	C	1.016008	-0.266368	-0.000308
C20	C	1.018848	-0.119430	0.000095
C21	C	1.168809	-0.120809	0.102122
C22	C	1.165206	-0.267711	0.102207
C23	C	1.179693	-0.283309	-0.100941
C24	C	1.180746	-0.136331	-0.102289
C25	C	1.295113	0.311105	0.000125
C26	C	1.400436	0.325535	0.000129
C27	C	1.116392	0.532208	0.000108
C28	C	1.119218	0.673442	0.000107
N29	N	1.106306	0.319883	0.254333
N30	N	1.137191	0.281588	-0.254113
C31	C	1.093036	0.336354	0.473447
C32	C	1.150458	0.265121	0.526780
C33	C	1.143074	0.274286	0.648703
C34	C	1.100419	0.327191	0.351513
H35	H	0.618375	0.150932	0.000110
C36	C	0.954000	-0.305430	0.097959
C37	C	0.996677	-0.391666	0.178467
C38	C	0.934671	-0.430732	0.276734
C39	C	0.829989	-0.383563	0.294495
C40	C	0.787307	-0.297322	0.213985
C41	C	0.849312	-0.258256	0.115718
H42	H	1.074174	-0.426588	0.165321
H43	H	0.966268	-0.494573	0.336333
H44	H	0.784089	-0.412482	0.367238
H45	H	0.709810	-0.262400	0.227130
H46	H	0.817716	-0.194415	0.056119
C47	C	0.636276	0.485171	0.000098
C48	C	0.745150	0.499862	0.000085
C49	C	0.788159	0.633119	0.000076
C50	C	0.722295	0.751684	0.000079
C51	C	0.613414	0.736997	0.000092
C52	C	0.570405	0.603740	0.000101
H53	H	0.793913	0.412090	0.000083
H54	H	0.868760	0.643991	0.000066
H55	H	0.754133	0.850329	0.000072
H56	H	0.564651	0.824769	0.000094
H57	H	0.489804	0.592868	0.000111
C58	C	0.970901	-0.074754	-0.098684
C59	C	0.929755	-0.172844	-0.178487
C60	C	0.881794	-0.128175	-0.277263
C61	C	0.874980	0.014585	-0.296236
C62	C	0.916127	0.112685	-0.216430
C63	C	0.964088	0.068015	-0.117655
H64	H	0.934798	-0.278531	-0.164444
H65	H	0.851334	-0.200795	-0.336340
H66	H	0.839476	0.047652	-0.369355
H67	H	0.911084	0.218372	-0.230473
H68	H	0.994548	0.140635	-0.058578
C69	C	0.965740	-0.318138	-0.099134
C70	C	0.863423	-0.272355	-0.116425
C71	C	0.813153	-0.324137	-0.215254
C72	C	0.865202	-0.421702	-0.296790
C73	C	0.967526	-0.467492	-0.279501
C74	C	1.017795	-0.415710	-0.180672
H75	H	0.824888	-0.200126	-0.056065
H76	H	0.737407	-0.290240	-0.228052
H77	H	0.827990	-0.460035	-0.369949
H78	H	1.006060	-0.539720	-0.339861
H79	H	1.093542	-0.449606	-0.167874
H80	H	1.240744	-0.307665	0.106843
C81	C	0.958539	-0.061047	0.099048
C82	C	0.907643	-0.148140	0.177954
C83	C	0.847333	-0.089757	0.276914
C84	C	0.837919	0.055719	0.296969
C85	C	0.888815	0.142822	0.218061
C86	C	0.949125	0.084439	0.119101
H87	H	0.914611	-0.255838	0.163110
H88	H	0.809656	-0.154236	0.335327
H89	H	0.793274	0.098938	0.370226
H90	H	0.881847	0.250520	0.232905
H91	H	0.986802	0.148918	0.060688
C92	C	1.224370	0.173446	0.464770
C93	C	1.231701	0.164225	0.341084
C94	C	1.305613	0.072558	0.279068
C95	C	1.372193	-0.009887	0.340738
C96	C	1.364863	-0.000668	0.464431
C97	C	1.290952	0.090998	0.526447
H98	H	1.182413	0.225258	0.295426
H99	H	1.311038	0.065735	0.187502
H100	H	1.426907	-0.077743	0.294830
H101	H	1.414152	-0.061701	0.510089
H102	H	1.285527	0.097822	0.618013
C103	C	1.114966	-0.060367	0.204678
C104	C	1.111259	0.085159	0.226123
C105	C	1.057410	0.145597	0.328676
C106	C	1.007267	0.060509	0.409783
C107	C	1.010973	-0.085026	0.388340
C108	C	1.064822	-0.145464	0.285787
H109	H	1.148379	0.148154	0.166081
H110	H	1.054667	0.253332	0.344550
H111	H	0.967405	0.105249	0.485699
H112	H	0.973853	-0.148021	0.448382
H113	H	1.067565	-0.253199	0.269914
H114	H	1.123078	-0.293959	0.178460
C115	C	1.136781	-0.093819	-0.204219
C116	C	1.096497	-0.193235	-0.283539
C117	C	1.052489	-0.150738	-0.385451
C118	C	1.048765	-0.008826	-0.408043
C119	C	1.089050	0.090599	-0.328721
C120	C	1.133057	0.048102	-0.226809
H121	H	1.099253	-0.298295	-0.266817
H122	H	1.022668	-0.224339	-0.444170
H123	H	1.016187	0.022633	-0.483484
H124	H	1.086294	0.195659	-0.345443
H125	H	1.162879	0.121703	-0.168090
H126	H	1.245999	-0.090342	0.105922
C127	C	1.282620	-0.336775	-0.101872
C128	C	1.366802	-0.245523	-0.098711
C129	C	1.469724	-0.298992	-0.099634
C130	C	1.488464	-0.443715	-0.103718
C131	C	1.404279	-0.534976	-0.106879
C132	C	1.301357	-0.481506	-0.105956
H133	H	1.352932	-0.138383	-0.095688
H134	H	1.532043	-0.231434	-0.097295
H135	H	1.564653	-0.483296	-0.104401
H136	H	1.418149	-0.642116	-0.109902
H137	H	1.239038	-0.549065	-0.108295
H138	H	1.150270	-0.324134	-0.178263
H139	H	1.257982	-0.104802	-0.108442
H140	H	1.038335	0.404216	0.519348
