data_functionalizedCrystal
_audit_creation_method	'MofGen! by Chris Wilmer'
_symmetry_space_group_name_H-M	'P1'
_symmetry_Int_Tables_number	1
_symmetry_cell_setting	triclinic
loop_
_symmetry_equiv_pos_as_xyz
  x,y,z
_cell_length_a	11.026607
_cell_length_b	9.616153
_cell_length_c	10.967829
_cell_angle_alpha	102.130112
_cell_angle_beta	96.380563
_cell_angle_gamma	90.006666
loop_
_atom_site_label
_atom_site_type_symbol
_atom_site_fract_x
_atom_site_fract_y
_atom_site_fract_z
O1	O	1.614539	0.241101	0.523507
O2	O	1.260735	0.226817	0.463895
O3	O	1.445793	0.190861	0.313884
O4	O	1.429480	0.277057	0.673517
O5	O	1.445768	-0.040431	0.313883
O6	O	1.260709	-0.004475	0.463893
O7	O	1.614513	0.009809	0.523505
Zn8	Zn	1.437607	-0.034055	0.493699
Zn9	Zn	1.437641	0.270681	0.493701
O10	O	1.429454	0.045765	0.673516
C11	C	1.215419	0.108536	0.452897
C12	C	1.080432	0.100680	0.420113
N13	N	1.437593	-0.242030	0.493699
C14	C	1.007382	0.122377	0.510634
C15	C	0.867865	0.114258	0.476753
C16	C	1.338297	-0.443263	0.573539
C17	C	1.338515	-0.281993	0.573965
C18	C	1.564692	-0.286822	0.550688
C19	C	1.564151	-0.447896	0.551289
C20	C	1.411056	-0.494750	0.356810
C21	C	1.408138	-0.333470	0.357032
C22	C	1.659828	0.128093	0.534504
C23	C	1.794816	0.135958	0.567287
C24	C	1.444592	0.064012	0.267127
C25	C	1.441035	0.030628	0.127805
N26	N	1.437664	0.478654	0.493694
C27	C	1.439462	0.135562	0.065697
C28	C	1.435786	0.101061	-0.078300
C29	C	1.430656	0.172618	0.720273
C30	C	1.434213	0.206010	0.859596
H31	H	1.048130	0.146955	0.613215
C32	C	0.977369	0.170820	0.712543
C33	C	0.849802	0.169185	0.705781
H34	H	1.011312	0.191350	0.798043
H35	H	1.003654	0.080469	0.672121
H36	H	1.003654	0.241770	0.672068
H37	H	0.823516	0.098227	0.746248
H38	H	0.823507	0.259548	0.746221
C39	C	1.332911	-0.153012	-0.028994
C40	C	1.439168	-0.125138	0.055688
H41	H	1.331762	-0.249176	-0.073516
H42	H	1.263459	-0.137131	0.015705
H43	H	1.331463	-0.091643	-0.086615
H44	H	1.440611	-0.186500	0.113315
H45	H	1.508638	-0.141033	0.010986
H46	H	1.435574	0.321398	-0.086979
C47	C	1.135170	-0.402903	0.486183
C48	C	1.210406	-0.507935	0.522311
H49	H	1.056217	-0.442841	0.454545
H50	H	1.129158	-0.327709	0.556726
H51	H	1.169104	-0.366946	0.422757
H52	H	1.176476	-0.543884	0.585744
H53	H	1.216413	-0.583154	0.451759
H54	H	1.440832	0.250942	0.119129
C55	C	1.119660	0.048976	0.204405
C56	C	1.025439	0.067487	0.281626
H57	H	1.085709	0.028475	0.118908
H58	H	1.168584	0.133595	0.220957
H59	H	1.168574	-0.027716	0.220967
H60	H	0.976530	0.144186	0.265071
H61	H	0.976494	-0.017142	0.265067
C62	C	1.271987	-0.395405	0.779206
C63	C	1.361067	-0.465445	0.709061
H64	H	1.286045	-0.409110	0.862868
H65	H	1.275997	-0.296616	0.779709
H66	H	1.193507	-0.433007	0.742621
H67	H	1.439547	-0.427835	0.745641
H68	H	1.357068	-0.564254	0.708565
C69	C	0.685309	0.079458	0.331502
C70	C	0.812876	0.081072	0.338260
H71	H	0.651363	0.058980	0.246003
H72	H	0.659014	0.008496	0.371941
H73	H	0.659036	0.169815	0.371961
H74	H	0.839149	-0.009289	0.297808
H75	H	0.839181	0.152037	0.297803
H76	H	1.483507	-0.547189	0.297056
H77	H	1.244076	-0.251623	0.535806
C78	C	1.262467	-0.109791	0.737977
C79	C	1.361596	-0.197230	0.710292
H80	H	1.276718	-0.057472	0.822147
H81	H	1.253188	-0.045727	0.682611
H82	H	1.190267	-0.166882	0.727967
H83	H	1.433795	-0.140138	0.720293
H84	H	1.370889	-0.261302	0.765675
C85	C	1.614696	-0.332044	0.767362
C86	C	1.595565	-0.466069	0.687227
H87	H	1.634080	-0.343261	0.851287
H88	H	1.680261	-0.283565	0.743458
H89	H	1.542710	-0.278422	0.761702
H90	H	1.667554	-0.519688	0.692880
H91	H	1.529994	-0.514569	0.711139
C92	C	1.560500	-0.423721	0.222544
C93	C	1.499364	-0.299932	0.270069
H94	H	1.616819	-0.403016	0.168854
H95	H	1.603186	-0.457853	0.290051
H96	H	1.502955	-0.494240	0.176479
H97	H	1.556909	-0.229416	0.316143
H98	H	1.456677	-0.265780	0.202552
H99	H	1.640459	-0.499908	0.496951
H100	H	1.434403	-0.014326	-0.131729
H101	H	1.640438	-0.261752	0.495273
H102	H	1.588492	-0.222529	0.650418
C103	C	1.210300	-0.460958	0.259542
C104	C	1.288565	-0.565124	0.292390
H105	H	1.134679	-0.504407	0.219774
H106	H	1.196724	-0.393166	0.332971
H107	H	1.246414	-0.414675	0.203585
H108	H	1.252455	-0.611401	0.348354
H109	H	1.302139	-0.632942	0.218950
H110	H	1.314638	-0.305476	0.314446
