data_functionalizedCrystal
_audit_creation_method	'MofGen! by Chris Wilmer'
_symmetry_space_group_name_H-M	'P1'
_symmetry_Int_Tables_number	1
_symmetry_cell_setting	triclinic
loop_
_symmetry_equiv_pos_as_xyz
  x,y,z
_cell_length_a	23.532407
_cell_length_b	23.532407
_cell_length_c	22.610064
_cell_angle_alpha	89.990850
_cell_angle_beta	89.990066
_cell_angle_gamma	82.848678
loop_
_atom_site_label
_atom_site_type_symbol
_atom_site_fract_x
_atom_site_fract_y
_atom_site_fract_z
O1	O	-0.755269	-0.069133	0.049117
O2	O	-0.505269	0.180867	0.299117
O3	O	-0.255269	0.430867	0.549117
O4	O	-0.005269	0.680867	0.799117
O5	O	-0.589405	-0.079137	0.049135
O6	O	-0.339405	0.170863	0.299135
O7	O	-0.089405	0.420863	0.549135
O8	O	0.160595	0.670863	0.799135
O9	O	-0.677338	0.008797	0.049114
O10	O	-0.427338	0.258797	0.299114
O11	O	-0.177338	0.508797	0.549114
O12	O	0.072662	0.758797	0.799114
O13	O	-0.667335	-0.157067	0.049137
O14	O	-0.417335	0.092933	0.299137
O15	O	-0.167335	0.342933	0.549137
O16	O	0.082665	0.592933	0.799137
O17	O	-0.677313	0.008797	-0.049255
O18	O	-0.427313	0.258797	0.200745
O19	O	-0.177313	0.508797	0.450745
O20	O	0.072687	0.758797	0.700745
O21	O	-0.589380	-0.079137	-0.049234
O22	O	-0.339380	0.170863	0.200766
O23	O	-0.089380	0.420863	0.450766
O24	O	0.160620	0.670863	0.700766
O25	O	-0.755243	-0.069133	-0.049252
O26	O	-0.505243	0.180867	0.200748
O27	O	-0.255243	0.430867	0.450748
O28	O	-0.005243	0.680867	0.700748
Zn29	Zn	-0.672307	-0.074135	-0.064862
Zn30	Zn	-0.422307	0.175865	0.185138
Zn31	Zn	-0.172307	0.425865	0.435138
Zn32	Zn	0.077693	0.675865	0.685138
Zn33	Zn	-0.672341	-0.074135	0.064744
Zn34	Zn	-0.422341	0.175865	0.314744
Zn35	Zn	-0.172341	0.425865	0.564744
Zn36	Zn	0.077659	0.675865	0.814744
O37	O	-0.667310	-0.157067	-0.049232
O38	O	-0.417310	0.092933	0.200768
O39	O	-0.167310	0.342933	0.450768
O40	O	0.082690	0.592933	0.700768
C41	C	-0.568176	-0.078882	-0.000048
C42	C	-0.318176	0.171118	0.249952
C43	C	-0.068176	0.421118	0.499952
C44	C	0.181824	0.671118	0.749952
C45	C	-0.504959	-0.078116	-0.000041
C46	C	-0.254959	0.171884	0.249959
C47	C	-0.004959	0.421884	0.499959
C48	C	0.245041	0.671884	0.749959
C49	C	-0.677071	0.030013	-0.000072
C50	C	-0.427071	0.280013	0.249928
C51	C	-0.177071	0.530013	0.499928
C52	C	0.072929	0.780013	0.749928
C53	C	-0.676305	0.093230	-0.000076
C54	C	-0.426305	0.343230	0.249924
C55	C	-0.176305	0.593230	0.499924
C56	C	0.073695	0.843230	0.749924
C57	C	-0.776472	-0.069388	-0.000069
C58	C	-0.526472	0.180612	0.249931
C59	C	-0.276472	0.430612	0.499931
C60	C	-0.026472	0.680612	0.749931
C61	C	-0.839689	-0.070154	-0.000071
C62	C	-0.589689	0.179846	0.249929
C63	C	-0.339689	0.429846	0.499929
C64	C	-0.089689	0.679846	0.749929
C65	C	-0.105856	-0.125350	-0.000061
C66	C	0.144144	0.124650	0.249939
C67	C	0.394144	0.374650	0.499939
C68	C	0.644144	0.624650	0.749939
C69	C	-0.046456	-0.124638	-0.000065
C70	C	0.203544	0.125362	0.249935
C71	C	0.453544	0.375362	0.499935
C72	C	0.703544	0.625362	0.749935
O73	O	-0.009711	-0.168424	-0.000081
O74	O	0.240289	0.081576	0.249919
O75	O	0.490289	0.331576	0.499919
O76	O	0.740289	0.581576	0.749919
N77	N	-0.023830	-0.072362	-0.000071
N78	N	0.226170	0.177638	0.249929
N79	N	0.476170	0.427638	0.499929
N80	N	0.726170	0.677638	0.749929
C81	C	-0.060607	-0.020794	-0.000080
C82	C	0.189393	0.229206	0.249920
C83	C	0.439393	0.479206	0.499920
C84	C	0.689393	0.729206	0.749920
O85	O	-0.035908	0.023737	-0.000086
O86	O	0.214092	0.273737	0.249914
O87	O	0.464092	0.523737	0.499914
O88	O	0.714092	0.773737	0.749914
C89	C	-0.120006	-0.021506	-0.000080
C90	C	0.129994	0.228494	0.249920
C91	C	0.379994	0.478494	0.499920
C92	C	0.629994	0.728494	0.749920
C93	C	-0.142629	-0.073785	-0.000068
C94	C	0.107371	0.176215	0.249932
C95	C	0.357371	0.426215	0.499932
C96	C	0.607371	0.676215	0.749932
C97	C	-0.128479	-0.177625	-0.000050
C98	C	0.121521	0.072375	0.249950
C99	C	0.371521	0.322375	0.499950
C100	C	0.621521	0.572375	0.749950
C101	C	-0.187876	-0.178336	-0.000045
C102	C	0.062124	0.071664	0.249955
C103	C	0.312124	0.321664	0.499955
C104	C	0.562124	0.571664	0.749955
C105	C	-0.224649	-0.126772	-0.000052
C106	C	0.025351	0.123228	0.249948
C107	C	0.275351	0.373228	0.499948
C108	C	0.525351	0.623228	0.749948
C109	C	-0.202025	-0.074497	-0.000063
C110	C	0.047975	0.175503	0.249937
C111	C	0.297975	0.425503	0.499937
C112	C	0.547975	0.675503	0.749937
C113	C	-0.156783	0.030062	-0.000093
C114	C	0.093217	0.280062	0.249907
C115	C	0.343217	0.530062	0.499907
C116	C	0.593217	0.780062	0.749907
C117	C	-0.216185	0.029345	-0.000094
C118	C	0.033815	0.279345	0.249906
C119	C	0.283815	0.529345	0.499906
C120	C	0.533815	0.779345	0.749906
C121	C	-0.238808	-0.022934	-0.000082
C122	C	0.011192	0.227066	0.249918
C123	C	0.261192	0.477066	0.499918
C124	C	0.511192	0.727066	0.749918
C125	C	-0.298194	-0.023643	-0.000065
C126	C	-0.048194	0.226357	0.249935
C127	C	0.201806	0.476357	0.499935
C128	C	0.451806	0.726357	0.749935
N129	N	-0.320820	-0.075920	-0.000059
N130	N	-0.070820	0.174080	0.249941
N131	N	0.179180	0.424080	0.499941
N132	N	0.429180	0.674080	0.749941
C133	C	-0.284048	-0.127484	-0.000052
C134	C	-0.034048	0.122516	0.249948
C135	C	0.215952	0.372516	0.499948
C136	C	0.465952	0.622516	0.749948
C137	C	0.064135	-0.019302	-0.000080
C138	C	0.314135	0.230698	0.249920
C139	C	0.564135	0.480698	0.499920
C140	C	0.814135	0.730698	0.749920
C141	C	0.123533	-0.018589	-0.000075
C142	C	0.373533	0.231411	0.249925
C143	C	0.623533	0.481411	0.499925
C144	C	0.873533	0.731411	0.749925
C145	C	0.137680	-0.122434	-0.000061
C146	C	0.387680	0.127566	0.249939
C147	C	0.637680	0.377566	0.499939
C148	C	0.887680	0.627566	0.749939
C149	C	0.078281	-0.123146	-0.000062
C150	C	0.328281	0.126854	0.249938
C151	C	0.578281	0.376854	0.499938
C152	C	0.828281	0.626854	0.749938
C153	C	0.041509	-0.071578	-0.000074
C154	C	0.291509	0.178422	0.249926
C155	C	0.541509	0.428422	0.499926
C156	C	0.791509	0.678422	0.749926
C157	C	-0.408784	-0.128974	-0.000042
C158	C	-0.158784	0.121026	0.249958
C159	C	0.091216	0.371026	0.499958
C160	C	0.341216	0.621026	0.749958
C161	C	-0.468186	-0.129680	-0.000034
C162	C	-0.218186	0.120320	0.249966
C163	C	0.031814	0.370320	0.499966
C164	C	0.281814	0.620320	0.749966
C165	C	-0.482329	-0.025836	-0.000051
C166	C	-0.232329	0.224164	0.249949
C167	C	0.017671	0.474164	0.499949
C168	C	0.267671	0.724164	0.749949
C169	C	-0.422932	-0.025129	-0.000055
C170	C	-0.172932	0.224871	0.249945
C171	C	0.077068	0.474871	0.499945
C172	C	0.327068	0.724871	0.749945
C173	C	-0.386160	-0.076702	-0.000052
C174	C	-0.136160	0.173298	0.249948
C175	C	0.113840	0.423298	0.499948
C176	C	0.363840	0.673298	0.749948
O177	O	-0.334974	0.020119	-0.000052
O178	O	-0.084974	0.270119	0.249948
O179	O	0.165026	0.520119	0.499948
O180	O	0.415026	0.770119	0.749948
O181	O	-0.308755	-0.172007	-0.000054
O182	O	-0.058755	0.077993	0.249946
O183	O	0.191245	0.327993	0.499946
O184	O	0.441245	0.577993	0.749946
C185	C	-0.667577	-0.178283	-0.000045
C186	C	-0.417577	0.071717	0.249955
C187	C	-0.167577	0.321717	0.499955
C188	C	0.082423	0.571717	0.749955
C189	C	-0.668343	-0.241500	-0.000036
C190	C	-0.418343	0.008500	0.249964
C191	C	-0.168343	0.258500	0.499964
C192	C	0.081657	0.508500	0.749964
N193	N	-0.672288	-0.074135	-0.153314
N194	N	-0.422288	0.175865	0.096686
N195	N	-0.172288	0.425865	0.346686
N196	N	0.077712	0.675865	0.596686
C197	C	-0.723539	0.492333	-0.000049
C198	C	-0.473539	0.742333	0.249951
C199	C	-0.223539	0.992333	0.499951
C200	C	0.026461	1.242333	0.749951
C201	C	-0.722827	0.551733	-0.000044
C202	C	-0.472827	0.801733	0.249956
C203	C	-0.222827	1.051733	0.499956
C204	C	0.027173	1.301733	0.749956
O205	O	-0.766613	0.588478	-0.000027
O206	O	-0.516613	0.838478	0.249973
O207	O	-0.266613	1.088478	0.499973
O208	O	-0.016613	1.338478	0.749973
N209	N	-0.670551	0.574359	-0.000039
N210	N	-0.420551	0.824359	0.249961
N211	N	-0.170551	1.074359	0.499961
N212	N	0.079449	1.324359	0.749961
C213	C	-0.618983	0.537582	-0.000032
C214	C	-0.368983	0.787582	0.249968
C215	C	-0.118983	1.037582	0.499968
C216	C	0.131017	1.287582	0.749968
O217	O	-0.574452	0.562281	-0.000027
O218	O	-0.324452	0.812281	0.249973
O219	O	-0.074452	1.062281	0.499973
O220	O	0.175548	1.312281	0.749973
C221	C	-0.619695	0.478182	-0.000033
C222	C	-0.369695	0.728182	0.249967
C223	C	-0.119695	0.978182	0.499967
C224	C	0.130305	1.228182	0.749967
C225	C	-0.671974	0.455560	-0.000044
C226	C	-0.421974	0.705560	0.249956
C227	C	-0.171974	0.955560	0.499956
C228	C	0.078026	1.205560	0.749956
C229	C	-0.775814	0.469710	-0.000060
C230	C	-0.525814	0.719710	0.249940
C231	C	-0.275814	0.969710	0.499940
C232	C	-0.025814	1.219710	0.749940
C233	C	-0.776525	0.410313	-0.000065
C234	C	-0.526525	0.660313	0.249935
C235	C	-0.276525	0.910313	0.499935
C236	C	-0.026525	1.160313	0.749935
C237	C	-0.724961	0.373540	-0.000060
C238	C	-0.474961	0.623540	0.249940
C239	C	-0.224961	0.873540	0.499940
C240	C	0.025039	1.123540	0.749940
C241	C	-0.672685	0.396164	-0.000050
C242	C	-0.422685	0.646164	0.249950
C243	C	-0.172685	0.896164	0.499950
C244	C	0.077315	1.146164	0.749950
C245	C	-0.568127	0.441406	-0.000022
C246	C	-0.318127	0.691406	0.249978
C247	C	-0.068127	0.941406	0.499978
C248	C	0.181873	1.191406	0.749978
C249	C	-0.568844	0.382004	-0.000021
C250	C	-0.318844	0.632004	0.249979
C251	C	-0.068844	0.882004	0.499979
C252	C	0.181156	1.132004	0.749979
C253	C	-0.621123	0.359381	-0.000033
C254	C	-0.371123	0.609381	0.249967
C255	C	-0.121123	0.859381	0.499967
C256	C	0.128877	1.109381	0.749967
C257	C	-0.621832	0.299995	-0.000050
C258	C	-0.371832	0.549995	0.249950
C259	C	-0.121832	0.799995	0.499950
C260	C	0.128168	1.049995	0.749950
N261	N	-0.674109	0.277368	-0.000056
N262	N	-0.424109	0.527368	0.249944
N263	N	-0.174109	0.777368	0.499944
N264	N	0.075891	1.027368	0.749944
C265	C	-0.725673	0.314141	-0.000061
C266	C	-0.475673	0.564141	0.249939
C267	C	-0.225673	0.814141	0.499939
C268	C	0.024327	1.064141	0.749939
C269	C	-0.617491	0.662324	-0.000031
C270	C	-0.367491	0.912324	0.249969
C271	C	-0.117491	1.162324	0.499969
C272	C	0.132509	1.412324	0.749969
C273	C	-0.616778	0.721722	-0.000034
C274	C	-0.366778	0.971722	0.249966
C275	C	-0.116778	1.221722	0.499966
C276	C	0.133222	1.471722	0.749966
C277	C	-0.720623	0.735869	-0.000045
C278	C	-0.470623	0.985869	0.249955
C279	C	-0.220623	1.235869	0.499955
C280	C	0.029377	1.485869	0.749955
C281	C	-0.721335	0.676470	-0.000046
C282	C	-0.471335	0.926470	0.249954
C283	C	-0.221335	1.176470	0.499954
C284	C	0.028665	1.426470	0.749954
C285	C	-0.669767	0.639698	-0.000036
C286	C	-0.419767	0.889698	0.249964
C287	C	-0.169767	1.139698	0.499964
C288	C	0.080233	1.389698	0.749964
C289	C	-0.727163	0.189405	-0.000073
C290	C	-0.477163	0.439405	0.249927
C291	C	-0.227163	0.689405	0.499927
C292	C	0.022837	0.939405	0.749927
C293	C	-0.727869	0.130003	-0.000081
C294	C	-0.477869	0.380003	0.249919
C295	C	-0.227869	0.630003	0.499919
C296	C	0.022131	0.880003	0.749919
C297	C	-0.624025	0.115860	-0.000067
C298	C	-0.374025	0.365860	0.249933
C299	C	-0.124025	0.615860	0.499933
C300	C	0.125975	0.865860	0.749933
C301	C	-0.623318	0.175257	-0.000062
C302	C	-0.373318	0.425257	0.249938
C303	C	-0.123318	0.675257	0.499938
C304	C	0.126682	0.925257	0.749938
C305	C	-0.674891	0.212029	-0.000063
C306	C	-0.424891	0.462029	0.249937
C307	C	-0.174891	0.712029	0.499937
C308	C	0.075109	0.962029	0.749937
O309	O	-0.578070	0.263215	-0.000065
O310	O	-0.328070	0.513215	0.249935
O311	O	-0.078070	0.763215	0.499935
O312	O	0.171930	1.013215	0.749935
O313	O	-0.770196	0.289433	-0.000058
O314	O	-0.520196	0.539433	0.249942
O315	O	-0.270196	0.789433	0.499942
O316	O	-0.020196	1.039433	0.749942
C317	C	-0.706686	-0.108496	-0.561955
C318	C	-0.456686	0.141504	-0.311955
C319	C	-0.206686	0.391504	-0.061955
C320	C	0.043314	0.641504	0.188045
C321	C	-0.706693	-0.108494	-0.623874
C322	C	-0.456693	0.141506	-0.373874
C323	C	-0.206693	0.391506	-0.123874
C324	C	0.043307	0.641506	0.126126
O325	O	-0.735916	-0.137705	-0.655892
O326	O	-0.485916	0.112295	-0.405892
O327	O	-0.235916	0.362295	-0.155892
O328	O	0.014084	0.612295	0.094108
N329	N	-0.672352	-0.074128	-0.654851
N330	N	-0.422352	0.175872	-0.404851
N331	N	-0.172352	0.425872	-0.154851
N332	N	0.077648	0.675872	0.095149
C333	C	-0.638006	-0.039758	-0.623905
C334	C	-0.388006	0.210242	-0.373905
C335	C	-0.138006	0.460242	-0.123905
C336	C	0.111994	0.710242	0.126095
O337	O	-0.608797	-0.010527	-0.655939
O338	O	-0.358797	0.239473	-0.405939
O339	O	-0.108797	0.489473	-0.155939
O340	O	0.141203	0.739473	0.094061
C341	C	-0.638002	-0.039757	-0.561986
C342	C	-0.388002	0.210243	-0.311986
C343	C	-0.138002	0.460243	-0.061986
C344	C	0.111998	0.710243	0.188014
C345	C	-0.672341	-0.074129	-0.531013
C346	C	-0.422341	0.175871	-0.281013
C347	C	-0.172341	0.425871	-0.031013
C348	C	0.077659	0.675871	0.218987
C349	C	-0.741022	-0.142864	-0.530981
C350	C	-0.491022	0.107136	-0.280981
C351	C	-0.241022	0.357136	-0.030981
C352	C	0.008978	0.607136	0.219019
C353	C	-0.741014	-0.142867	-0.469065
C354	C	-0.491014	0.107133	-0.219065
C355	C	-0.241014	0.357133	0.030935
C356	C	0.008986	0.607133	0.280935
C357	C	-0.706669	-0.108500	-0.438123
C358	C	-0.456669	0.141500	-0.188123
C359	C	-0.206669	0.391500	0.061877
C360	C	0.043331	0.641500	0.311877
C361	C	-0.672333	-0.074131	-0.469097
C362	C	-0.422333	0.175869	-0.219097
C363	C	-0.172333	0.425869	0.030903
C364	C	0.077667	0.675869	0.280903
C365	C	-0.603660	-0.005383	-0.531041
C366	C	-0.353660	0.244617	-0.281041
C367	C	-0.103660	0.494617	-0.031041
C368	C	0.146340	0.744617	0.218959
C369	C	-0.603659	-0.005384	-0.469118
C370	C	-0.353659	0.244616	-0.219118
C371	C	-0.103659	0.494616	0.030882
C372	C	0.146341	0.744616	0.280882
C373	C	-0.637998	-0.039757	-0.438144
C374	C	-0.387998	0.210243	-0.188144
C375	C	-0.137998	0.460243	0.061856
C376	C	0.112002	0.710243	0.311856
C377	C	-0.637980	-0.039766	-0.376239
C378	C	-0.387980	0.210234	-0.126239
C379	C	-0.137980	0.460234	0.123761
C380	C	0.112020	0.710234	0.373761
N381	N	-0.672321	-0.074132	-0.345262
N382	N	-0.422321	0.175868	-0.095262
N383	N	-0.172321	0.425868	0.154738
N384	N	0.077679	0.675868	0.404738
C385	C	-0.706666	-0.108498	-0.376204
C386	C	-0.456666	0.141502	-0.126204
C387	C	-0.206666	0.391502	0.123796
C388	C	0.043334	0.641502	0.373796
C389	C	-0.638017	-0.039762	-0.753938
C390	C	-0.388017	0.210238	-0.503938
C391	C	-0.138017	0.460238	-0.253938
C392	C	0.111983	0.710238	-0.003938
C393	C	-0.638017	-0.039766	-0.815856
C394	C	-0.388017	0.210234	-0.565856
C395	C	-0.138017	0.460234	-0.315856
C396	C	0.111983	0.710234	-0.065856
C397	C	-0.706705	-0.108502	-0.815821
C398	C	-0.456705	0.141498	-0.565821
C399	C	-0.206705	0.391498	-0.315821
C400	C	0.043295	0.641498	-0.065821
C401	C	-0.706701	-0.108501	-0.753903
C402	C	-0.456701	0.141499	-0.503903
C403	C	-0.206701	0.391499	-0.253903
C404	C	0.043299	0.641499	-0.003903
C405	C	-0.672358	-0.074128	-0.722962
C406	C	-0.422358	0.175872	-0.472962
C407	C	-0.172358	0.425872	-0.222962
C408	C	0.077642	0.675872	0.027038
C409	C	-0.706646	-0.108501	-0.246177
C410	C	-0.456646	0.141499	0.003823
C411	C	-0.206646	0.391499	0.253823
C412	C	0.043354	0.641499	0.503823
C413	C	-0.706633	-0.108502	-0.184256
C414	C	-0.456633	0.141498	0.065744
C415	C	-0.206633	0.391498	0.315744
C416	C	0.043367	0.641498	0.565744
C417	C	-0.637948	-0.039764	-0.184296
C418	C	-0.387948	0.210236	0.065704
C419	C	-0.137948	0.460236	0.315704
C420	C	0.112052	0.710236	0.565704
C421	C	-0.637958	-0.039765	-0.246212
C422	C	-0.387958	0.210235	0.003788
C423	C	-0.137958	0.460235	0.253788
C424	C	0.112042	0.710235	0.503788
C425	C	-0.672312	-0.074135	-0.277151
C426	C	-0.422312	0.175865	-0.027151
C427	C	-0.172312	0.425865	0.222849
C428	C	0.077688	0.675865	0.472849
O429	O	-0.608774	-0.010568	-0.344182
O430	O	-0.358774	0.239432	-0.094182
O431	O	-0.108774	0.489432	0.155818
O432	O	0.141226	0.739432	0.405818
O433	O	-0.735875	-0.137719	-0.344163
O434	O	-0.485875	0.112281	-0.094163
O435	O	-0.235875	0.362281	0.155837
O436	O	0.014125	0.612281	0.405837
N437	N	-0.672364	-0.074131	0.153196
N438	N	-0.422364	0.175869	0.403196
N439	N	-0.172364	0.425869	0.653196
N440	N	0.077636	0.675869	0.903196
H441	H	-0.486602	-0.172255	-0.000024
H442	H	-0.236602	0.077745	0.249976
H443	H	0.013398	0.327745	0.499976
H444	H	0.263398	0.577745	0.749976
F445	F	-0.601396	-0.003192	-0.151355
F446	F	-0.351396	0.246808	0.098645
F447	F	-0.101396	0.496808	0.348645
F448	F	0.148604	0.746808	0.598645
F449	F	-0.089351	-0.232512	-0.000043
F450	F	0.160649	0.017488	0.249957
F451	F	0.410649	0.267488	0.499957
F452	F	0.660649	0.517488	0.749957
H453	H	-0.734663	-0.136490	-0.728688
H454	H	-0.484663	0.113510	-0.478688
H455	H	-0.234663	0.363510	-0.228688
H456	H	0.015337	0.613510	0.021312
F457	F	-0.830701	0.508838	-0.000064
F458	F	-0.580701	0.758838	0.249936
F459	F	-0.330701	1.008838	0.499936
F460	F	-0.080701	1.258838	0.749936
F461	F	-0.513956	0.342871	-0.000010
F462	F	-0.263956	0.592871	0.249990
F463	F	-0.013956	0.842871	0.499990
F464	F	0.236044	1.092871	0.749990
F465	F	-0.832169	0.386245	-0.000064
F466	F	-0.582169	0.636245	0.249936
F467	F	-0.332169	0.886245	0.499936
F468	F	-0.082169	1.136245	0.749936
F469	F	-0.743260	-0.145076	-0.848763
F470	F	-0.493260	0.104924	-0.598763
F471	F	-0.243260	0.354924	-0.348763
F472	F	0.006740	0.604924	-0.098763
H473	H	-0.575693	0.022607	-0.443929
H474	H	-0.325693	0.272607	-0.193929
H475	H	-0.075693	0.522607	0.056071
H476	H	0.174307	0.772607	0.306071
F477	F	-0.775503	0.775016	-0.000048
F478	F	-0.525503	1.025016	0.249952
F479	F	-0.275503	1.275016	0.499952
F480	F	-0.025503	1.525016	0.749952
H481	H	-0.768992	-0.170850	-0.556167
H482	H	-0.518992	0.079150	-0.306167
H483	H	-0.268992	0.329150	-0.056167
H484	H	-0.018992	0.579150	0.193833
H485	H	-0.769159	0.219337	-0.000071
H486	H	-0.519159	0.469337	0.249929
H487	H	-0.269159	0.719337	0.499929
H488	H	-0.019159	0.969337	0.749929
H489	H	-0.525555	0.459814	-0.000009
H490	H	-0.275555	0.709814	0.249991
H491	H	-0.025555	0.959814	0.499991
H492	H	0.224445	1.209814	0.749991
H493	H	-0.610048	-0.011784	-0.841070
H494	H	-0.360048	0.238216	-0.591070
H495	H	-0.110048	0.488216	-0.341070
H496	H	0.139952	0.738216	-0.091070
F497	F	-0.601456	-0.003181	-0.721014
F498	F	-0.351456	0.246819	-0.471014
F499	F	-0.101456	0.496819	-0.221014
F500	F	0.148544	0.746819	0.028986
H501	H	-0.734595	-0.136494	-0.159040
H502	H	-0.484595	0.113506	0.090960
H503	H	-0.234595	0.363506	0.340960
H504	H	0.015405	0.613506	0.590960
H505	H	-0.246123	0.071339	-0.000104
H506	H	0.003877	0.321339	0.249896
H507	H	0.253877	0.571339	0.499896
H508	H	0.503877	0.821339	0.749896
H509	H	-0.580748	0.193677	-0.000069
H510	H	-0.330748	0.443677	0.249931
H511	H	-0.080748	0.693677	0.499931
H512	H	0.169252	0.943677	0.749931
F513	F	-0.783515	0.105930	-0.000093
F514	F	-0.533515	0.355930	0.249907
F515	F	-0.283515	0.605930	0.499907
F516	F	-0.033515	0.855930	0.749907
H517	H	-0.404512	0.017441	-0.000056
H518	H	-0.154512	0.267441	0.249944
H519	H	0.095488	0.517441	0.499944
H520	H	0.345488	0.767441	0.749944
F521	F	0.176828	-0.177314	-0.000057
F522	F	0.426828	0.072686	0.249943
F523	F	0.676828	0.322686	0.499943
F524	F	0.926828	0.572686	0.749943
H525	H	-0.378851	-0.170970	-0.000041
H526	H	-0.128851	0.079030	0.249959
H527	H	0.121149	0.329030	0.499959
H528	H	0.371149	0.579030	0.749959
H529	H	-0.206289	-0.220908	-0.000035
H530	H	0.043711	0.029092	0.249965
H531	H	0.293711	0.279092	0.499965
H532	H	0.543711	0.529092	0.749965
H533	H	0.141947	0.023982	-0.000076
H534	H	0.391947	0.273982	0.249924
H535	H	0.641947	0.523982	0.499924
H536	H	0.891947	0.773982	0.749924
F537	F	0.054210	-0.178789	-0.000050
F538	F	0.304210	0.071211	0.249950
F539	F	0.554210	0.321211	0.499950
F540	F	0.804210	0.571211	0.749950
H541	H	-0.512280	0.016146	-0.000054
H542	H	-0.262280	0.266146	0.249946
H543	H	-0.012280	0.516146	0.499946
H544	H	0.237720	0.766146	0.749946
F545	F	0.025003	0.035587	-0.000086
F546	F	0.275003	0.285587	0.249914
F547	F	0.525003	0.535587	0.499914
F548	F	0.775003	0.785587	0.749914
H549	H	-0.138375	0.072634	-0.000103
H550	H	0.111625	0.322634	0.249897
H551	H	0.361625	0.572634	0.499897
H552	H	0.611625	0.822634	0.749897
F553	F	-0.776978	0.652399	-0.000058
F554	F	-0.526978	0.902399	0.249942
F555	F	-0.276978	1.152399	0.499942
F556	F	-0.026978	1.402399	0.749942
H557	H	-0.574207	0.740136	-0.000035
H558	H	-0.324207	0.990136	0.249965
H559	H	-0.074207	1.240136	0.499965
H560	H	0.175793	1.490136	0.749965
H561	H	-0.734620	-0.136488	-0.271360
H562	H	-0.484620	0.113512	-0.021360
H563	H	-0.234620	0.363512	0.228640
H564	H	0.015380	0.613512	0.478640
F565	F	-0.562602	0.623192	-0.000025
F566	F	-0.312602	0.873192	0.249975
F567	F	-0.062602	1.123192	0.499975
F568	F	0.187398	1.373192	0.749975
F569	F	-0.567111	0.031201	-0.563992
F570	F	-0.317111	0.281201	-0.313992
F571	F	-0.067111	0.531201	-0.063992
F572	F	0.182889	0.781201	0.186008
H573	H	-0.582043	0.085909	-0.000065
H574	H	-0.332043	0.335909	0.249935
H575	H	-0.082043	0.585909	0.499935
H576	H	0.167957	0.835909	0.749935
H577	H	-0.768979	-0.170854	-0.443852
H578	H	-0.518979	0.079146	-0.193852
H579	H	-0.268979	0.329146	0.056148
H580	H	-0.018979	0.579146	0.306148
H581	H	-0.609989	-0.011784	-0.271432
H582	H	-0.359989	0.238216	-0.021432
H583	H	-0.109989	0.488216	0.228568
H584	H	0.140011	0.738216	0.478568
