data_functionalizedCrystal
_audit_creation_method	'MofGen! by Chris Wilmer'
_symmetry_space_group_name_H-M	'P1'
_symmetry_Int_Tables_number	1
_symmetry_cell_setting	triclinic
loop_
_symmetry_equiv_pos_as_xyz
  x,y,z
_cell_length_a	10.654559
_cell_length_b	16.109301
_cell_length_c	9.130313
_cell_angle_alpha	89.997330
_cell_angle_beta	89.999532
_cell_angle_gamma	83.975082
loop_
_atom_site_label
_atom_site_type_symbol
_atom_site_fract_x
_atom_site_fract_y
_atom_site_fract_z
O1	O	1.666243	0.116807	-0.121813
O2	O	1.300615	0.127924	-0.121814
O3	O	1.493473	0.001394	-0.121798
O4	O	1.473385	0.243336	-0.121828
O5	O	1.493470	0.001398	0.121800
O6	O	1.300612	0.127928	0.121785
O7	O	1.666240	0.116810	0.121786
Cu8	Cu	1.483426	0.122369	0.144028
Cu9	Cu	1.483429	0.122365	-0.144056
O10	O	1.473382	0.243340	0.121770
C11	C	1.253827	0.127108	-0.000015
C12	C	1.114417	0.124661	-0.000015
C13	C	1.063920	0.047862	-0.000002
C14	C	0.932929	0.045568	-0.000012
C15	C	0.902944	0.196878	-0.000043
C16	C	1.033932	0.199171	-0.000043
C17	C	1.081230	-0.039496	0.000023
C18	C	0.950239	-0.041790	0.000012
C19	C	1.492658	-0.029584	0.000002
C20	C	1.490218	-0.121894	0.000004
C21	C	1.598984	-0.343517	-0.000019
C22	C	1.596682	-0.430251	-0.000031
C23	C	1.367862	-0.411742	-0.000026
C24	C	1.370166	-0.325010	-0.000025
C25	C	1.485730	-0.290900	-0.000014
C26	C	1.481125	-0.464366	-0.000027
C27	C	1.478628	-0.558407	-0.000040
C28	C	1.488228	-0.196853	-0.000003
C29	C	1.713028	0.117626	-0.000016
C30	C	1.852438	0.120073	-0.000026
C31	C	1.474197	0.274318	-0.000033
C32	C	1.476637	0.366628	-0.000045
N33	N	1.483433	0.122372	0.346651
N34	N	1.483432	0.122356	-0.346679
C35	C	1.568853	0.066363	0.423310
C36	C	1.568849	0.066353	0.576646
C37	C	1.398003	0.178367	0.576652
C38	C	1.398002	0.178372	0.423318
C39	C	1.667493	0.001695	0.423308
C40	C	1.667489	0.001685	0.576645
H41	H	1.123426	-0.072418	-0.101913
H42	H	1.688905	-0.473089	-0.000038
H43	H	0.914988	-0.069615	-0.105166
H44	H	1.693084	-0.315748	-0.000013
H45	H	1.127229	-0.065886	0.105208
N46	N	1.243223	-0.448533	-0.000032
H47	H	1.258947	-0.511462	-0.000028
H48	H	1.193669	-0.429332	0.090275
H49	H	1.637796	-0.058703	0.624199
N50	N	1.248008	-0.268250	-0.000029
H51	H	1.174449	-0.303018	-0.000026
H52	H	1.243982	-0.231862	0.090274
H53	H	0.921332	-0.075948	0.101963
N54	N	1.787906	0.028514	0.360284
H55	H	1.798858	0.086954	0.394414
H56	H	1.861955	-0.011035	0.394428
N57	N	1.305850	0.238766	0.340632
H58	H	1.251732	0.274238	0.412471
H59	H	1.353887	0.275828	0.277006
N60	N	1.305860	0.238763	0.659343
H61	H	1.318818	0.230260	0.768112
H62	H	1.320331	0.297837	0.632548
N63	N	1.640243	-0.082948	0.368169
H64	H	1.628075	-0.120724	0.454162
H65	H	1.561021	-0.076668	0.306674
N66	N	1.795067	0.020557	0.631778
H67	H	1.813354	0.077171	0.594948
H68	H	1.795030	0.020509	0.742394
N69	N	1.088401	0.282003	-0.000101
H70	H	1.017535	0.328854	-0.000122
H71	H	1.142100	0.286267	0.090196
H72	H	0.837397	0.257542	-0.000067
