data_functionalizedCrystal
_audit_creation_method	'MofGen! by Chris Wilmer'
_symmetry_space_group_name_H-M	'P1'
_symmetry_Int_Tables_number	1
_symmetry_cell_setting	triclinic
loop_
_symmetry_equiv_pos_as_xyz
  x,y,z
_cell_length_a	27.732048
_cell_length_b	14.519709
_cell_length_c	12.996460
_cell_angle_alpha	90.007090
_cell_angle_beta	89.991924
_cell_angle_gamma	96.838601
loop_
_atom_site_label
_atom_site_type_symbol
_atom_site_fract_x
_atom_site_fract_y
_atom_site_fract_z
O1	O	0.641452	-0.109733	-0.085627
O2	O	1.141452	0.390267	0.414373
O3	O	0.500739	-0.126418	-0.085617
O4	O	1.000739	0.373582	0.414383
O5	O	0.574826	0.016228	-0.085613
O6	O	1.074826	0.516228	0.414387
O7	O	0.567365	-0.252379	-0.085631
O8	O	1.067365	0.247621	0.414369
O9	O	0.574818	0.016236	0.085521
O10	O	1.074818	0.516236	0.585521
O11	O	0.500731	-0.126410	0.085517
O12	O	1.000731	0.373590	0.585517
O13	O	0.641445	-0.109725	0.085507
O14	O	1.141445	0.390275	0.585507
Cu15	Cu	0.571087	-0.118067	0.101138
Cu16	Cu	1.071087	0.381933	0.601138
Cu17	Cu	0.571096	-0.118076	-0.101248
Cu18	Cu	1.071096	0.381924	0.398752
O19	O	0.567357	-0.252371	0.085503
O20	O	1.067357	0.247629	0.585503
C21	C	0.574475	0.050586	-0.000046
C22	C	1.074475	0.550586	0.499954
C23	C	0.573433	0.152949	-0.000045
C24	C	1.073433	0.652949	0.499955
C25	C	0.659457	-0.110079	-0.000064
C26	C	1.159457	0.389921	0.499936
C27	C	0.713117	-0.111134	-0.000075
C28	C	1.213117	0.388866	0.499925
C29	C	0.482726	-0.126064	-0.000049
C30	C	0.982726	0.373936	0.499951
C31	C	0.429066	-0.125009	-0.000044
C32	C	0.929066	0.374991	0.499956
C33	C	1.051561	-0.033479	-0.000035
C34	C	1.551561	0.466521	0.499965
C35	C	1.253239	-0.037392	-0.000031
C36	C	1.753239	0.462608	0.499969
O37	O	1.284155	0.033618	0.000017
O38	O	1.784155	0.533618	0.500017
N39	N	1.272767	-0.121975	-0.000040
N40	N	1.772767	0.378025	0.499960
C41	C	1.241872	-0.205586	-0.000043
C42	C	1.741872	0.294414	0.499957
O43	O	1.263110	-0.277619	-0.000040
O44	O	1.763110	0.222381	0.499960
C45	C	1.040195	-0.201672	-0.000039
C46	C	1.540195	0.298328	0.499961
C47	C	1.020670	-0.117083	-0.000040
C48	C	1.520670	0.382917	0.499960
C49	C	1.032035	0.051103	-0.000035
C50	C	1.532035	0.551103	0.499965
C51	C	0.981619	0.052080	-0.000042
C52	C	1.481619	0.552080	0.499958
C53	C	0.950728	-0.031524	-0.000047
C54	C	1.450728	0.468476	0.499953
C55	C	0.970253	-0.116106	-0.000047
C56	C	1.470253	0.383894	0.499953
C57	C	1.009301	-0.285282	-0.000034
C58	C	1.509301	0.214718	0.499966
C59	C	0.958879	-0.284296	-0.000030
C60	C	1.458879	0.215704	0.499970
C61	C	0.939354	-0.199707	-0.000032
C62	C	1.439354	0.300293	0.499968
C63	C	0.888945	-0.198733	-0.000059
C64	C	1.388945	0.301267	0.499941
N65	N	0.869417	-0.114150	-0.000050
N66	N	1.369417	0.385850	0.499950
C67	C	0.900309	-0.030546	-0.000044
C68	C	1.400309	0.469454	0.499956
C69	C	1.347756	-0.207635	-0.000047
C70	C	1.847756	0.292365	0.499953
C71	C	1.398175	-0.208613	-0.000050
C72	C	1.898175	0.291387	0.499950
C73	C	1.409539	-0.040419	-0.000037
C74	C	1.909539	0.459581	0.499963
C75	C	1.359119	-0.039441	-0.000041
C76	C	1.859119	0.460559	0.499959
C77	C	1.328228	-0.123052	-0.000038
C78	C	1.828228	0.376948	0.499962
C79	C	0.794430	-0.028500	-0.000059
C80	C	1.294430	0.471500	0.499941
C81	C	0.744008	-0.027530	-0.000069
C82	C	1.244008	0.472470	0.499931
C83	C	0.732649	-0.195723	-0.000077
C84	C	1.232649	0.304277	0.499923
C85	C	0.783066	-0.196694	-0.000072
C86	C	1.283066	0.303306	0.499928
C87	C	0.813956	-0.113074	-0.000059
C88	C	1.313956	0.386926	0.499941
O89	O	0.858001	-0.269705	-0.000096
O90	O	1.358001	0.230295	0.499904
O91	O	0.879062	0.041477	-0.000025
O92	O	1.379062	0.541477	0.499975
C93	C	1.101977	-0.034456	-0.000028
C94	C	1.601977	0.465544	0.499972
C95	C	1.121503	-0.119038	-0.000028
C96	C	1.621503	0.380962	0.499972
C97	C	1.090612	-0.202642	-0.000033
C98	C	1.590612	0.297358	0.499967
C99	C	1.171922	-0.120017	-0.000030
C100	C	1.671922	0.379983	0.499970
C101	C	1.202813	-0.036412	-0.000025
C102	C	1.702813	0.463588	0.499975
C103	C	1.183285	0.048171	-0.000016
C104	C	1.683285	0.548171	0.499984
C105	C	1.132869	0.049148	-0.000022
C106	C	1.632869	0.549148	0.499978
C107	C	1.110140	-0.287225	-0.000042
C108	C	1.610140	0.212775	0.499958
C109	C	1.160557	-0.288196	-0.000037
C110	C	1.660557	0.211804	0.499963
C111	C	1.191448	-0.204591	-0.000031
C112	C	1.691448	0.295409	0.499969
C113	C	0.567708	-0.286729	-0.000067
C114	C	1.067708	0.213271	0.499933
C115	C	0.568751	-0.389092	-0.000074
C116	C	1.068751	0.110908	0.499926
N117	N	0.571084	-0.118060	0.243485
N118	N	1.071084	0.381940	0.743485
C119	C	0.569596	0.527778	-0.000072
C120	C	1.069596	1.027778	0.499928
C121	C	0.570662	0.423488	-0.000064
C122	C	1.070662	0.923488	0.499936
C123	C	0.571514	0.340367	-0.000058
C124	C	1.071514	0.840367	0.499942
C125	C	0.572580	0.236071	-0.000052
C126	C	1.072580	0.736071	0.499948
N127	N	0.571103	-0.118076	-0.243595
N128	N	1.071103	0.381924	0.256405
C129	C	0.571095	-0.118077	0.663299
C130	C	1.071095	0.381923	1.163299
C131	C	0.571091	-0.118075	0.546494
C132	C	1.071091	0.381925	1.046494
C133	C	0.571090	-0.118069	0.453396
C134	C	1.071090	0.381931	0.953396
C135	C	0.571085	-0.118066	0.336583
C136	C	1.071085	0.381934	0.836583
H137	H	0.728114	0.041355	-0.000073
H138	H	1.228114	0.541355	0.499927
N139	N	0.804129	-0.287925	-0.000085
N140	N	1.304129	0.212075	0.499915
H141	H	0.776907	-0.340739	-0.000093
H142	H	1.276907	0.159261	0.499907
H143	H	0.824792	-0.291991	0.063363
H144	H	1.324792	0.208009	0.563363
H145	H	1.208446	0.116244	-0.000017
H146	H	1.708446	0.616244	0.499983
H147	H	1.434699	0.027655	-0.000036
H148	H	1.934699	0.527655	0.499964
H149	H	1.025189	-0.354162	-0.000037
H150	H	1.525189	0.145838	0.499963
N151	N	0.699326	-0.285893	-0.000088
N152	N	1.199326	0.214107	0.499912
H153	H	0.664424	-0.272431	-0.000087
H154	H	1.164424	0.227569	0.499913
H155	H	0.705651	-0.322781	0.063355
H156	H	1.205651	0.177219	0.563355
N157	N	1.181613	-0.379436	-0.000051
N158	N	1.681613	0.120564	0.499949
H159	H	1.154389	-0.432246	-0.000055
H160	H	1.654389	0.067754	0.499945
H161	H	1.202278	-0.383507	0.063393
H162	H	1.702278	0.116493	0.563393
N163	N	1.419232	-0.299847	-0.000075
N164	N	1.919232	0.200153	0.499925
H165	H	1.392007	-0.352657	-0.000078
H166	H	1.892007	0.147343	0.499922
H167	H	1.439900	-0.303922	0.063363
H168	H	1.939900	0.196078	0.563363
H169	H	1.322609	-0.275724	-0.000046
H170	H	1.822609	0.224276	0.499954
H171	H	1.084993	-0.355308	-0.000045
H172	H	1.584993	0.144692	0.499955
N173	N	0.925561	-0.374477	-0.000003
N174	N	1.425561	0.125523	0.499997
H175	H	0.945584	-0.428205	0.000004
H176	H	1.445584	0.071795	0.500004
H177	H	0.904394	-0.377757	-0.063440
H178	H	1.404394	0.122243	0.436560
H179	H	1.057182	0.119187	-0.000027
H180	H	1.557182	0.619187	0.499973
H181	H	1.116976	0.118029	-0.000024
H182	H	1.616976	0.618029	0.499976
N183	N	0.827743	0.061685	-0.000057
N184	N	1.327743	0.561685	0.499943
H185	H	0.848911	0.065043	0.063384
H186	H	1.348911	0.565043	0.563384
H187	H	0.807684	0.115358	-0.000099
H188	H	1.307684	0.615358	0.499901
N189	N	0.960563	0.143315	-0.000034
N190	N	1.460563	0.643315	0.499966
H191	H	0.987789	0.196122	-0.000025
H192	H	1.487789	0.696122	0.499975
H193	H	0.939889	0.147387	0.063411
H194	H	1.439889	0.647387	0.563411
H195	H	1.343225	0.029438	-0.000042
H196	H	1.843225	0.529438	0.499958
