data_functionalizedCrystal
_audit_creation_method	'MofGen! by Chris Wilmer'
_symmetry_space_group_name_H-M	'P1'
_symmetry_Int_Tables_number	1
_symmetry_cell_setting	triclinic
loop_
_symmetry_equiv_pos_as_xyz
  x,y,z
_cell_length_a	13.262390
_cell_length_b	13.339070
_cell_length_c	16.176319
_cell_angle_alpha	89.996815
_cell_angle_beta	74.075302
_cell_angle_gamma	99.429367
loop_
_atom_site_label
_atom_site_type_symbol
_atom_site_fract_x
_atom_site_fract_y
_atom_site_fract_z
O1	O	1.432462	0.136444	-0.390829
O2	O	1.131186	0.151275	-0.323089
O3	O	1.247247	-0.003550	-0.349182
O4	O	1.316401	0.291269	-0.364736
O5	O	1.247222	-0.003560	-0.211684
O6	O	1.131161	0.151265	-0.185591
O7	O	1.432437	0.136434	-0.253330
Cu8	Cu	1.281797	0.143849	-0.206906
Cu9	Cu	1.281826	0.143861	-0.369514
O10	O	1.316376	0.291259	-0.227237
C11	C	1.091826	0.150438	-0.245493
C12	C	0.974579	0.147948	-0.219131
C13	C	0.644138	0.140935	-0.444635
C14	C	0.754297	0.143270	-0.469404
C15	C	0.809373	0.144440	-0.406838
C16	C	0.754280	0.143274	-0.319498
C17	C	0.644109	0.140930	-0.294726
C18	C	0.809343	0.144435	-0.256929
C19	C	0.754250	0.143269	-0.169589
C20	C	0.644090	0.140927	-0.144821
C21	C	0.589014	0.139757	-0.207387
C22	C	0.919514	0.146779	-0.281701
C23	C	0.919485	0.146774	-0.131792
C24	C	0.809326	0.144439	-0.107023
C25	C	1.235553	-0.041293	-0.277808
C26	C	1.200734	-0.153742	-0.269982
C27	C	1.471471	-0.517392	-0.330855
C28	C	1.504188	-0.411742	-0.338204
C29	C	1.428328	-0.347237	-0.321149
C30	C	1.319744	-0.388393	-0.296744
C31	C	1.287022	-0.494054	-0.289388
C32	C	1.243879	-0.323898	-0.279683
C33	C	1.135295	-0.365054	-0.255278
C34	C	1.102580	-0.470705	-0.247924
C35	C	1.178441	-0.535210	-0.264978
C36	C	1.276600	-0.218237	-0.287038
C37	C	1.092152	-0.194898	-0.245572
C38	C	1.059434	-0.300549	-0.238223
C39	C	1.471797	0.137271	-0.330929
C40	C	1.589044	0.139762	-0.357296
C41	C	1.328070	0.329003	-0.298614
C42	C	1.362889	0.441451	-0.306445
N43	N	1.281783	0.143840	-0.092537
N44	N	1.281846	0.143861	-0.483884
C45	C	1.333205	0.075312	-0.060834
C46	C	1.333210	0.075311	0.025712
C47	C	1.281799	0.143843	0.080552
C48	C	1.230371	0.212375	0.048843
C49	C	1.230360	0.212370	-0.037700
C50	C	1.230413	0.212394	0.397862
C51	C	1.230430	0.212395	0.484410
C52	C	1.333262	0.075334	0.461274
C53	C	1.333251	0.075330	0.374731
C54	C	1.281819	0.143857	0.343031
C55	C	1.281812	0.143856	0.249189
C56	C	1.281812	0.143850	0.174391
H57	H	0.964361	0.147730	-0.352814
N58	N	1.174892	0.286282	-0.071891
H59	H	1.207927	0.358230	-0.064271
H60	H	1.182692	0.275791	-0.135023
H61	H	0.599284	0.139973	-0.495566
H62	H	1.188537	0.268193	0.372059
N63	N	0.584661	0.139652	-0.050620
H64	H	0.636148	0.140035	-0.014717
H65	H	0.549314	0.201758	-0.039158
H66	H	1.030380	-0.142378	-0.231681
H67	H	1.188505	0.268172	0.093500
N68	N	0.928185	0.146948	-0.433549
H69	H	0.954729	0.147508	-0.498371
H70	H	0.964394	0.210224	-0.412232
H71	H	0.499314	0.137859	-0.187224
N72	N	0.942325	-0.344954	-0.211892
H73	H	0.907687	-0.321473	-0.153135
H74	H	0.907794	-0.321451	-0.255131
N75	N	0.749890	0.143168	-0.012824
H76	H	0.758081	0.080139	0.017600
H77	H	0.779820	0.205628	0.013646
H78	H	0.964327	0.147725	-0.080845
N79	N	0.813716	0.144516	-0.563598
H80	H	0.762112	0.143419	-0.599475
H81	H	0.869184	0.208198	-0.579344
H82	H	1.365010	-0.184738	-0.306909
N83	N	1.463608	-0.233284	-0.329088
H84	H	1.435268	-0.203250	-0.271752
H85	H	1.543906	-0.217083	-0.347171
N86	N	1.388663	0.001399	-0.119981
H87	H	1.421237	-0.042014	-0.086761
H88	H	1.335384	-0.043574	-0.143899
H89	H	1.592597	-0.378240	-0.358073
H90	H	1.533225	-0.569921	-0.344731
H91	H	1.375080	0.019509	0.051524
N92	N	1.143149	-0.649165	-0.257053
H93	H	1.207685	-0.683778	-0.271565
H94	H	1.099028	-0.669956	-0.196163
H95	H	1.014164	-0.504211	-0.228046
H96	H	1.375119	0.019527	0.330081
N97	N	1.388736	0.001418	0.495464
H98	H	1.380942	0.011813	0.558610
H99	H	1.355676	-0.070496	0.487777
N100	N	1.174970	0.286310	0.543564
H101	H	1.142380	0.329718	0.510352
H102	H	1.117226	0.247299	0.592468
