data_functionalizedCrystal
_audit_creation_method	'MofGen! by Chris Wilmer'
_symmetry_space_group_name_H-M	'P1'
_symmetry_Int_Tables_number	1
_symmetry_cell_setting	triclinic
loop_
_symmetry_equiv_pos_as_xyz
  x,y,z
_cell_length_a	17.699083
_cell_length_b	10.654551
_cell_length_c	16.776229
_cell_angle_alpha	89.996205
_cell_angle_beta	89.998886
_cell_angle_gamma	83.884188
loop_
_atom_site_label
_atom_site_type_symbol
_atom_site_fract_x
_atom_site_fract_y
_atom_site_fract_z
O1	O	1.005088	0.158809	-0.066171
O2	O	1.505088	0.658809	0.433829
O3	O	0.784841	0.179470	-0.066197
O4	O	1.284841	0.679470	0.433803
O5	O	0.900028	-0.013689	-0.066184
O6	O	1.400028	0.486311	0.433816
O7	O	0.889902	0.351967	-0.066184
O8	O	1.389902	0.851967	0.433816
O9	O	0.900013	-0.013700	0.066393
O10	O	1.400013	0.486300	0.566393
O11	O	0.784826	0.179458	0.066380
O12	O	1.284826	0.679458	0.566380
O13	O	1.005073	0.158797	0.066405
O14	O	1.505073	0.658797	0.566405
Zn15	Zn	0.894947	0.169126	0.087442
Zn16	Zn	1.394947	0.669126	0.587442
Zn17	Zn	0.894967	0.169141	-0.087234
Zn18	Zn	1.394967	0.669141	0.412766
O19	O	0.889886	0.351955	0.066392
O20	O	1.389886	0.851955	0.566392
C21	C	0.756632	0.178724	0.000088
C22	C	1.256632	0.678724	0.500088
C23	C	0.672600	0.176503	0.000078
C24	C	1.172600	0.676503	0.500078
C25	C	0.624700	0.289883	0.000078
C26	C	1.124700	0.789883	0.500078
C27	C	0.545743	0.287788	0.000089
C28	C	1.045743	0.787788	0.500089
C29	C	0.514688	0.172313	0.000093
C30	C	1.014688	0.672313	0.500093
C31	C	0.562594	0.058924	0.000095
C32	C	1.062594	0.558924	0.500095
C33	C	0.641549	0.061020	0.000091
C34	C	1.141549	0.561020	0.500091
C35	C	0.244177	0.050470	0.000115
C36	C	0.744177	0.550470	0.500115
C37	C	0.165216	0.048383	0.000117
C38	C	0.665216	0.548383	0.500117
C39	C	0.148371	0.277238	0.000113
C40	C	0.648371	0.777238	0.500113
C41	C	0.227327	0.279334	0.000108
C42	C	0.727327	0.779334	0.500108
C43	C	0.275226	0.165946	0.000115
C44	C	0.775226	0.665946	0.500115
C45	C	0.360839	0.168218	0.000105
C46	C	0.860839	0.668218	0.500105
C47	C	0.429076	0.170039	0.000097
C48	C	0.929076	0.670039	0.500097
C49	C	0.899277	-0.060479	0.000102
C50	C	1.399277	0.439521	0.500102
C51	C	0.897052	-0.199884	0.000097
C52	C	1.397052	0.300116	0.500097
C53	C	0.896016	-0.265371	-0.072169
C54	C	1.396016	0.234629	0.427831
C55	C	0.893919	-0.396355	-0.072166
C56	C	1.393919	0.103645	0.427834
C57	C	0.893896	-0.396353	0.072376
C58	C	1.393896	0.103647	0.572376
C59	C	0.895988	-0.265370	0.072372
C60	C	1.395988	0.234630	0.572372
C61	C	0.897080	-0.199884	-0.144445
C62	C	1.397080	0.300116	0.355555
C63	C	0.896046	-0.265372	-0.216717
C64	C	1.396046	0.234628	0.283283
C65	C	0.893949	-0.396355	-0.216713
C66	C	1.393949	0.103645	0.283287
C67	C	0.892886	-0.461851	-0.144438
C68	C	1.392886	0.038149	0.355562
C69	C	1.033282	0.159543	0.000118
C70	C	1.533282	0.659543	0.500118
C71	C	1.117315	0.161764	0.000123
C72	C	1.617315	0.661764	0.500123
C73	C	0.890638	0.398746	0.000104
C74	C	1.390638	0.898746	0.500104
C75	C	0.892863	0.538150	0.000104
C76	C	1.392863	1.038150	0.500104
N77	N	0.894939	0.169114	0.206653
N78	N	1.394939	0.669114	0.706653
N79	N	0.894982	0.169143	-0.206445
N80	N	1.394982	0.669143	0.293555
C81	C	0.945959	0.083619	0.248376
C82	C	1.445959	0.583619	0.748376
C83	C	0.945964	0.083618	0.331828
C84	C	1.445964	0.583618	0.831828
C85	C	0.894950	0.169119	0.373556
C86	C	1.394950	0.669119	0.873556
C87	C	0.843924	0.254619	0.331827
C88	C	1.343924	0.754619	0.831827
C89	C	0.843917	0.254613	0.248377
C90	C	1.343917	0.754613	0.748377
C91	C	0.843951	0.254643	0.668374
C92	C	1.343951	0.754643	1.168374
C93	C	0.843964	0.254645	0.751831
C94	C	1.343964	0.754645	1.251831
C95	C	0.945998	0.083648	0.751826
C96	C	1.445998	0.583648	1.251826
C97	C	0.945991	0.083642	0.668375
C98	C	1.445991	0.583642	1.168375
C99	C	0.894963	0.169137	0.626654
C100	C	1.394963	0.669137	1.126654
C101	C	0.894958	0.169135	0.536165
C102	C	1.394958	0.669135	1.036165
C103	C	0.894958	0.169127	0.464043
C104	C	1.394958	0.669127	0.964043
H105	H	0.680549	-0.031306	0.000090
H106	H	1.180549	0.468694	0.500090
H107	H	0.802404	0.324258	0.634411
H108	H	1.302404	0.824258	1.134411
H109	H	0.252607	0.373366	0.000101
H110	H	0.752607	0.873366	0.500101
Cl111	Cl	0.779788	0.362103	0.384283
Cl112	Cl	1.279788	0.862103	0.884283
H113	H	0.802370	0.324230	0.214407
H114	H	1.302370	0.824230	0.714407
H115	H	0.506746	0.380114	0.000088
H116	H	1.006746	0.880114	0.500088
H117	H	0.893098	-0.449670	-0.275560
H118	H	1.393098	0.050330	0.224440
Cl119	Cl	0.304383	-0.092076	0.000122
Cl120	Cl	0.804383	0.407924	0.500122
H121	H	0.649978	0.383916	0.000074
H122	H	1.149978	0.883916	0.500074
Cl123	Cl	0.892562	-0.478692	0.163230
Cl124	Cl	1.392562	0.021308	0.663230
Cl125	Cl	0.899721	-0.035220	-0.144454
Cl126	Cl	1.399721	0.464780	0.355546
Cl127	Cl	0.897380	-0.183036	-0.307572
Cl128	Cl	1.397380	0.316964	0.192428
Cl129	Cl	0.890242	-0.626517	-0.144436
Cl130	Cl	1.390242	-0.126517	0.355564
H131	H	0.896815	-0.212046	0.131217
H132	H	1.396815	0.287954	0.631217
Cl133	Cl	1.010098	-0.023870	0.195927
Cl134	Cl	1.510098	0.476130	0.695927
Cl135	Cl	0.779827	0.362139	0.804288
Cl136	Cl	1.279827	0.862139	1.304288
Cl137	Cl	1.010104	-0.023866	0.384281
Cl138	Cl	1.510104	0.476134	0.884281
Cl139	Cl	1.010147	-0.023838	0.804280
Cl140	Cl	1.510147	0.476162	1.304280
Cl141	Cl	0.088150	0.419786	0.000108
Cl142	Cl	0.588150	0.919786	0.500108
Cl143	Cl	0.523553	-0.086247	0.000106
Cl144	Cl	1.023553	0.413753	0.500106
Cl145	Cl	0.126177	-0.096798	0.000123
Cl146	Cl	0.626177	0.403202	0.500123
Cl147	Cl	1.010126	-0.023845	0.615920
Cl148	Cl	1.510126	0.476155	1.115920
