data_functionalizedCrystal
_audit_creation_method	'MofGen! by Chris Wilmer'
_symmetry_space_group_name_H-M	'P1'
_symmetry_Int_Tables_number	1
_symmetry_cell_setting	triclinic
loop_
_symmetry_equiv_pos_as_xyz
  x,y,z
_cell_length_a	19.805407
_cell_length_b	18.050589
_cell_length_c	19.805399
_cell_angle_alpha	89.977706
_cell_angle_beta	89.982197
_cell_angle_gamma	90.025537
loop_
_atom_site_label
_atom_site_type_symbol
_atom_site_fract_x
_atom_site_fract_y
_atom_site_fract_z
Zn1	Zn	1.034727	-0.295730	-0.382713
Zn2	Zn	1.034638	-0.419922	-0.269535
Zn3	Zn	0.921542	-0.295745	-0.269541
Zn4	Zn	0.921502	-0.419877	-0.382685
O5	O	0.978102	-0.357818	-0.326118
O6	O	1.129432	-0.312217	-0.367708
O7	O	1.019616	-0.403475	-0.174819
O8	O	0.936610	-0.191818	-0.284567
O9	O	1.129367	-0.403460	-0.284557
O10	O	1.019767	-0.191807	-0.367714
O11	O	0.936524	-0.312242	-0.174823
O12	O	0.826820	-0.312198	-0.284540
O13	O	0.936542	-0.403383	-0.477405
O14	O	0.826790	-0.403397	-0.367667
O15	O	1.019728	-0.312173	-0.477425
O16	O	1.019577	-0.523841	-0.284530
O17	O	0.936456	-0.523807	-0.367661
C18	C	0.802246	-0.357795	-0.326102
C19	C	0.727014	-0.357803	-0.326111
C20	C	0.691705	-0.310377	-0.369473
C21	C	0.621016	-0.310380	-0.369476
C22	C	0.585639	-0.357815	-0.326119
C23	C	0.620953	-0.405244	-0.282751
C24	C	0.691640	-0.405235	-0.282746
C25	C	0.335880	-0.405277	-0.282772
C26	C	0.265188	-0.405283	-0.282783
C27	C	0.265256	-0.310422	-0.369502
C28	C	0.335943	-0.310414	-0.369497
C29	C	0.371251	-0.357839	-0.326127
C30	C	0.447900	-0.357833	-0.326124
C31	C	0.508992	-0.357825	-0.326125
C32	C	0.978021	-0.550770	-0.326107
C33	C	0.978048	-0.633316	-0.326125
C34	C	0.932891	-0.832776	-0.371316
C35	C	0.916392	-0.882214	-0.309553
C36	C	0.978114	-0.784447	-0.326134
C37	C	0.994646	-0.882090	-0.387903
C38	C	0.978177	-0.930432	-0.326148
C39	C	0.961583	-0.832797	-0.264338
C40	C	1.039865	-0.832670	-0.342730
C41	C	1.023390	-0.882085	-0.280925
C42	C	0.978076	-0.700348	-0.326126
C43	C	0.978215	-1.014528	-0.326148
C44	C	1.154645	-0.357842	-0.326135
C45	C	1.229877	-0.357852	-0.326142
C46	C	0.978140	-0.357772	-0.502661
C47	C	0.978156	-0.357752	-0.577893
C48	C	0.978203	-0.164113	-0.326144
C49	C	0.978246	-0.081567	-0.326155
C50	C	1.021472	-0.310256	-0.613249
C51	C	1.021479	-0.310235	-0.683937
C52	C	0.978173	-0.357713	-0.719269
C53	C	0.934852	-0.405210	-0.683908
C54	C	0.934843	-0.405228	-0.613221
C55	C	0.934891	-0.405141	-0.968981
C56	C	0.934905	-0.405122	-1.039674
C57	C	1.021527	-0.310148	-1.039698
C58	C	1.021518	-0.310165	-0.969011
C59	C	0.978195	-0.357660	-0.933656
C60	C	0.978187	-0.357682	-0.857008
C61	C	0.978184	-0.357695	-0.795916
C62	C	0.978103	-0.357811	-0.150262
C63	C	0.978218	-0.357622	-0.075031
H64	H	0.592143	-0.443862	-0.247446
H65	H	1.056801	-0.271473	-1.068492
H66	H	0.899637	-0.443786	-1.068438
H67	H	0.899624	-0.443825	-0.940204
H68	H	0.899589	-0.443865	-0.712680
H69	H	1.056784	-0.271506	-0.940247
H70	H	1.008603	-0.903743	-0.440136
N71	N	0.374095	-0.259250	-0.416262
H72	H	0.403424	-0.224793	-0.388806
H73	H	0.403386	-0.289525	-0.447571
N74	N	0.888116	-0.456453	-0.575090
H75	H	0.898599	-0.509515	-0.587384
H76	H	0.894697	-0.449197	-0.524961
N77	N	1.068207	-0.259015	-0.722069
H78	H	1.061642	-0.266204	-0.772211
H79	H	1.057704	-0.205976	-0.709719
N80	N	0.729860	-0.259219	-0.416242
H81	H	0.696762	-0.229175	-0.443712
H82	H	0.759189	-0.224808	-0.388743
H83	H	1.061661	-0.903600	-0.242678
H84	H	1.092045	-0.810893	-0.356785
N85	N	0.582931	-0.259213	-0.416232
H86	H	0.616069	-0.229162	-0.443697
H87	H	0.553597	-0.289479	-0.447513
H88	H	0.894591	-0.811124	-0.409470
N89	N	0.227174	-0.259266	-0.416280
H90	H	0.177025	-0.266464	-0.409705
H91	H	0.239544	-0.206210	-0.405829
N92	N	0.227024	-0.456441	-0.236014
H93	H	0.239312	-0.509519	-0.246435
H94	H	0.239320	-0.444766	-0.187689
N95	N	0.373957	-0.456424	-0.235995
H96	H	0.340818	-0.486475	-0.208533
H97	H	0.403289	-0.490830	-0.263486
N98	N	0.943018	-0.804244	-0.195129
H99	H	0.943089	-0.748292	-0.195555
H100	H	0.896560	-0.822758	-0.182536
N101	N	0.847262	-0.911051	-0.290954
H102	H	0.834449	-0.892348	-0.244636
H103	H	0.813151	-0.893116	-0.325143
N104	N	0.729728	-0.456384	-0.235973
H105	H	0.696592	-0.486436	-0.208507
H106	H	0.759059	-0.490789	-0.263466
H107	H	1.056740	-0.271596	-0.584487
