data_functionalizedCrystal
_audit_creation_method	'MofGen! by Chris Wilmer'
_symmetry_space_group_name_H-M	'P1'
_symmetry_Int_Tables_number	1
_symmetry_cell_setting	triclinic
loop_
_symmetry_equiv_pos_as_xyz
  x,y,z
_cell_length_a	21.295417
_cell_length_b	19.121102
_cell_length_c	19.120904
_cell_angle_alpha	89.911827
_cell_angle_beta	87.591662
_cell_angle_gamma	87.584620
loop_
_atom_site_label
_atom_site_type_symbol
_atom_site_fract_x
_atom_site_fract_y
_atom_site_fract_z
Zn1	Zn	-0.307921	1.054814	0.442032
Zn2	Zn	-0.408895	1.059724	0.324785
Zn3	Zn	-0.298967	0.942584	0.319816
Zn4	Zn	-0.408472	0.937535	0.436987
O5	O	-0.356064	0.998664	0.380905
O6	O	-0.325239	1.153571	0.430669
O7	O	-0.390743	1.048352	0.226021
O8	O	-0.212069	0.957530	0.336060
O9	O	-0.399425	1.157177	0.344528
O10	O	-0.218647	1.039985	0.425851
O11	O	-0.309980	0.962291	0.222371
O12	O	-0.309569	0.843809	0.331169
O13	O	-0.398703	0.948925	0.535761
O14	O	-0.390022	0.840100	0.417254
O15	O	-0.324829	1.035089	0.539467
O16	O	-0.496925	1.043456	0.339637
O17	O	-0.496614	0.953685	0.422072
C18	C	-0.348778	0.816517	0.373125
C19	C	-0.345677	0.738593	0.369814
C20	C	-0.386166	0.700074	0.413007
C21	C	-0.383244	0.626856	0.409899
C22	C	-0.339836	0.592158	0.363593
C23	C	-0.299344	0.630682	0.320398
C24	C	-0.302263	0.703899	0.323510
C25	C	-0.328921	0.371187	0.351961
C26	C	-0.326006	0.297965	0.348850
C27	C	-0.409906	0.294144	0.438353
C28	C	-0.412824	0.367362	0.441458
C29	C	-0.372329	0.405880	0.398265
C30	C	-0.336850	0.517318	0.360413
C31	C	-0.375313	0.480719	0.401449
C32	C	-0.519610	0.998574	0.380862
C33	C	-0.589580	0.998599	0.380870
C34	C	-0.622590	1.045380	0.337994
C35	C	-0.688335	1.045413	0.338011
C36	C	-0.721065	0.998651	0.380897
C37	C	-0.688046	0.951865	0.423781
C38	C	-0.622304	0.951839	0.423768
N39	N	-0.822078	0.937094	0.383622
N40	N	-0.884530	0.937121	0.383630
C41	C	-0.919144	0.998728	0.380940
N42	N	-0.888946	1.060308	0.378228
N43	N	-0.826487	1.060281	0.378215
C44	C	-0.792352	0.998674	0.380916
C45	C	-1.023443	1.045548	0.338080
C46	C	-1.089189	1.045581	0.338103
C47	C	-1.088899	0.952028	0.423869
C48	C	-1.023154	0.952001	0.423850
C49	C	-0.990430	0.998760	0.380953
C50	C	-0.191880	0.998773	0.380964
C51	C	-0.121914	0.998820	0.380989
C52	C	-0.362718	0.990896	0.563763
C53	C	-0.365553	0.987586	0.641686
C54	C	-0.363378	1.181523	0.388716
C55	C	-0.366495	1.259446	0.392044
C56	C	-0.349392	1.006442	0.198761
C57	C	-0.346384	1.009889	0.120844
C58	C	-0.328425	1.030890	0.680225
C59	C	-0.331086	1.027771	0.753441
C60	C	-0.370880	0.981351	0.788118
C61	C	-0.408010	0.938043	0.749573
C62	C	-0.405345	0.941159	0.676358
C63	C	-0.380849	0.969696	1.009084
C64	C	-0.383513	0.966585	1.082305
C65	C	-0.306588	1.056312	1.086168
C66	C	-0.303929	1.059427	1.012951
C67	C	-0.341056	1.016116	0.974413
C68	C	-0.373603	0.978164	0.862957
C69	C	-0.338330	1.019300	0.899575
H70	H	-0.263997	0.602426	0.282698
H71	H	-0.290651	0.269716	0.311147
Cl72	Cl	-0.251359	0.752323	0.269209
H73	H	-0.996275	0.913904	0.458761
H74	H	-0.595949	1.083456	0.303066
Cl75	Cl	-0.729843	1.104227	0.284104
Cl76	Cl	-0.259914	1.110754	1.134619
Cl77	Cl	-0.580802	0.893022	0.477673
H78	H	-0.996798	1.083625	0.303153
Cl79	Cl	-0.284437	1.082244	0.801889
Cl80	Cl	-0.729192	0.893082	0.477698
Cl81	Cl	-0.253901	1.117786	0.969363
H82	H	-1.116065	1.083681	0.303189
Cl83	Cl	-0.429881	0.524340	0.459660
Cl84	Cl	-0.433539	0.908220	1.125897
H85	H	-1.115547	0.913957	0.458790
H86	H	-0.301509	0.489059	0.322710
H87	H	-0.296022	1.068692	0.651997
Cl88	Cl	-0.278011	0.419599	0.297663
Cl89	Cl	-0.434147	0.578435	0.464202
Cl90	Cl	-0.427524	0.915247	0.960646
H91	H	-0.440409	0.900244	0.777813
H92	H	-0.435572	0.905889	0.644980
Cl93	Cl	-0.460812	0.245718	0.492648
Cl94	Cl	-0.288298	1.077647	0.855980
Cl95	Cl	-0.423631	0.919812	0.906556
H96	H	-0.421515	0.728320	0.450712
H97	H	-0.448173	0.395608	0.479164
