data_functionalizedCrystal
_audit_creation_method	'MofGen! by Chris Wilmer'
_symmetry_space_group_name_H-M	'P1'
_symmetry_Int_Tables_number	1
_symmetry_cell_setting	triclinic
loop_
_symmetry_equiv_pos_as_xyz
  x,y,z
_cell_length_a	25.993420
_cell_length_b	25.993429
_cell_length_c	25.993440
_cell_angle_alpha	59.996825
_cell_angle_beta	89.997044
_cell_angle_gamma	60.000485
loop_
_atom_site_label
_atom_site_type_symbol
_atom_site_fract_x
_atom_site_fract_y
_atom_site_fract_z
O1	O	-0.352920	0.368216	-0.806702
O2	O	-0.278108	0.262869	-0.626543
O3	O	-0.278109	0.368217	-0.731889
O4	O	-0.352920	0.262868	-0.701355
O5	O	-0.363673	0.453780	-0.731888
O6	O	-0.363673	0.348432	-0.626541
O7	O	-0.438485	0.453779	-0.806700
Cu8	Cu	-0.408892	0.408918	-0.716621
Cu9	Cu	-0.307702	0.307730	-0.716622
O10	O	-0.438485	0.348431	-0.701354
C11	C	-0.277317	0.461514	-0.738829
C12	C	-0.309065	0.425401	-0.734466
C13	C	-0.308421	0.523863	-0.739263
C14	C	-0.184155	0.461510	-0.738821
C15	C	-0.116293	0.425394	-0.734449
C16	C	-0.215400	0.523859	-0.739255
C17	C	-0.277316	0.554671	-0.738823
C18	C	-0.309062	0.618161	-0.734452
C19	C	-0.215402	0.430844	-0.739261
C20	C	-0.528790	0.565866	-1.187821
C21	C	-0.590704	0.628215	-1.218924
C22	C	-0.528792	0.565863	-1.094659
C23	C	-0.590706	0.628213	-1.125904
C24	C	-0.621950	0.659024	-1.187819
C25	C	-0.497687	0.535196	-1.125905
C26	C	-0.435421	0.464938	-1.187579
C27	C	-0.405894	0.430641	-1.216905
C28	C	-0.437726	0.460082	-1.278254
C29	C	-0.405715	0.422896	-1.310053
C30	C	-0.499085	0.523824	-1.310289
C31	C	-0.528609	0.558121	-1.280966
C32	C	-0.496777	0.528675	-1.219611
C33	C	-0.722636	0.752152	-1.281189
C34	C	-0.786258	0.811003	-1.310715
C35	C	-0.818168	0.840517	-1.278881
C36	C	-0.887151	0.904324	-1.310890
C37	C	-0.786461	0.811191	-1.217521
C38	C	-0.722841	0.752345	-1.187997
C39	C	-0.690931	0.722826	-1.219832
C40	C	-0.435424	0.464932	-0.993971
C41	C	-0.405902	0.430628	-0.930345
C42	C	-0.437736	0.460066	-0.898434
C43	C	-0.405727	0.422877	-0.829449
C44	C	-0.499092	0.523802	-0.930139
C45	C	-0.528617	0.558107	-0.993763
C46	C	-0.496781	0.528669	-1.025676
C47	C	-0.621957	0.150783	-0.679574
C48	C	-0.590712	0.088433	-0.679139
C49	C	-0.528798	0.150784	-0.679579
C50	C	-0.497694	0.088435	-0.679143
C51	C	-0.528798	0.057623	-0.679576
C52	C	-0.590711	0.181452	-0.679141
C53	C	-0.722643	0.251711	-0.687133
C54	C	-0.786265	0.286008	-0.691902
C55	C	-0.818174	0.256568	-0.694294
C56	C	-0.887158	0.293754	-0.699469
C57	C	-0.786467	0.192825	-0.691911
C58	C	-0.722848	0.158528	-0.687138
C59	C	-0.690938	0.187974	-0.684752
C60	C	-0.529041	-0.035505	-0.687133
C61	C	-0.499717	-0.094357	-0.691904
C62	C	-0.438369	-0.123871	-0.694300
C63	C	-0.406572	-0.187679	-0.699477
C64	C	-0.406335	-0.094545	-0.691919
C65	C	-0.435656	-0.035699	-0.687146
C66	C	-0.497010	-0.006179	-0.684755
C67	C	-0.529039	0.251715	-0.687141
C68	C	-0.499716	0.286020	-0.691923
C69	C	-0.438368	0.256581	-0.694319
C70	C	-0.406570	0.293769	-0.699498
C71	C	-0.406337	0.192844	-0.691938
C72	C	-0.435657	0.158540	-0.687159
C73	C	-0.497008	0.187978	-0.684761
O74	O	0.090091	0.262859	-0.701335
O75	O	-0.090065	0.368209	-0.731872
O76	O	0.015269	0.262858	-0.626524
O77	O	-0.015243	0.368210	-0.806683
O78	O	0.015272	0.348418	-0.626518
O79	O	-0.090062	0.453769	-0.731866
O80	O	0.090094	0.348419	-0.701329
Cu81	Cu	0.000016	0.408907	-0.716597
Cu82	Cu	0.000012	0.307722	-0.716604
O83	O	-0.015240	0.453770	-0.806676
O84	O	-0.352925	0.791434	-0.701336
O85	O	-0.278105	0.641811	-0.731869
O86	O	-0.278115	0.641803	-0.626523
O87	O	-0.352914	0.791442	-0.806682
O88	O	-0.363681	0.641804	-0.626531
O89	O	-0.363671	0.641812	-0.731876
O90	O	-0.438490	0.791435	-0.701344
Cu91	Cu	-0.408893	0.716624	-0.716611
Cu92	Cu	-0.307702	0.716622	-0.716602
O93	O	-0.438480	0.791443	-0.806690
O94	O	-1.090059	1.074819	-1.352933
O95	O	-0.909902	0.925209	-1.278128
O96	O	-1.015234	0.925188	-1.278116
O97	O	-0.984727	1.074840	-1.352945
O98	O	-1.015232	0.925191	-1.363683
O99	O	-0.909900	0.925212	-1.363695
O100	O	-1.090057	1.074822	-1.438499
Cu101	Cu	-0.999979	1.000017	-1.408910
Cu102	Cu	-0.999981	1.000014	-1.307718
O103	O	-0.984726	1.074843	-1.438511
O104	O	-0.363668	0.348439	-1.438505
O105	O	-0.438478	0.453790	-1.363698
O106	O	-0.438473	0.348435	-1.363677
O107	O	-0.363673	0.453794	-1.438526
O108	O	-0.352905	0.262878	-1.278117
O109	O	-0.352909	0.368233	-1.278138
O110	O	-0.278100	0.262882	-1.352944
Cu111	Cu	-0.307692	0.307745	-1.307729
Cu112	Cu	-0.408886	0.408927	-1.408914
O113	O	-0.278104	0.368237	-1.352966
C114	C	-0.184155	0.161981	-0.439296
C115	C	-0.116293	0.098492	-0.407553
C116	C	-0.215399	0.192792	-0.408192
C117	C	-0.277317	0.255135	-0.532453
C118	C	-0.309065	0.291247	-0.600313
C119	C	-0.308420	0.285805	-0.501208
C120	C	-0.277314	0.255139	-0.439295
C121	C	-0.309059	0.291256	-0.407549
C122	C	-0.215402	0.192788	-0.501209
C123	C	0.022203	0.255104	-0.439265
C124	C	0.017834	0.291214	-0.407515
C125	C	0.022634	0.192756	-0.408165
C126	C	0.022210	0.255113	-0.532430
C127	C	0.017847	0.291232	-0.600291
C128	C	0.022640	0.192764	-0.501188
C129	C	0.022200	0.161950	-0.439273
C130	C	0.017826	0.098459	-0.407532
C131	C	0.022644	0.285777	-0.501180
C132	C	-0.277346	0.461492	-0.439279
C133	C	-0.309096	0.425377	-0.407538
C134	C	-0.215434	0.430819	-0.408169
C135	C	-0.277336	0.554655	-0.532435
C136	C	-0.309075	0.618151	-0.600297
C137	C	-0.215423	0.523841	-0.501183
C138	C	-0.184184	0.461488	-0.439268
C139	C	-0.116325	0.425370	-0.407516
C140	C	-0.308444	0.523845	-0.501194
C141	C	-0.036972	0.659021	-1.187795
C142	C	-0.037406	0.628213	-1.218901
C143	C	-0.036982	0.565860	-1.094636
C144	C	-0.037416	0.535194	-1.125884
C145	C	-0.036975	0.565864	-1.187799
C146	C	-0.037413	0.628209	-1.125880
C147	C	-0.029408	0.752144	-1.187548
C148	C	-0.024632	0.810995	-1.216871
C149	C	-0.022233	0.840512	-1.278220
C150	C	-0.017052	0.904319	-1.310015
C151	C	-0.024615	0.811190	-1.310256
C152	C	-0.029394	0.752345	-1.280936
C153	C	-0.031788	0.722822	-1.219582
C154	C	-0.029409	0.558551	-1.281171
C155	C	-0.024637	0.524457	-1.310699
C156	C	-0.022247	0.460715	-1.278868
C157	C	-0.017069	0.423743	-1.310880
C158	C	-0.024636	0.431062	-1.217508
C159	C	-0.029411	0.465156	-1.187982
C160	C	-0.031795	0.528898	-1.219814
C161	C	-0.029429	0.558537	-0.993946
C162	C	-0.024655	0.524433	-0.930320
C163	C	-0.022266	0.460691	-0.898412
C164	C	-0.017095	0.423714	-0.829427
C165	C	-0.024645	0.431042	-0.930120
C166	C	-0.029416	0.465141	-0.993743
C167	C	-0.031808	0.528888	-1.025654
O168	O	-0.015299	0.368175	-0.278091
O169	O	0.015250	0.262833	-0.352907
O170	O	-0.090099	0.368175	-0.352916
O171	O	0.090051	0.262832	-0.278082
O172	O	-0.090090	0.453743	-0.438477
O173	O	0.015259	0.348401	-0.438469
O174	O	-0.015289	0.453742	-0.363652
Cu175	Cu	-0.000014	0.408884	-0.408873
Cu176	Cu	-0.000025	0.307691	-0.307686
O177	O	0.090060	0.348400	-0.363643
C178	C	-0.621933	1.150820	-1.187806
C179	C	-0.590698	1.181516	-1.218898
C180	C	-0.528783	1.057671	-1.094636
C181	C	-0.497690	1.088508	-1.125869
C182	C	-0.528795	1.150866	-1.187782
C183	C	-0.590687	1.088463	-1.125893
C184	C	-0.722600	1.158090	-1.187587
C185	C	-0.786213	1.192167	-1.216922
C186	C	-0.818124	1.255917	-1.278269
C187	C	-0.887099	1.292870	-1.310078
C188	C	-0.786426	1.285596	-1.310292
C189	C	-0.722815	1.251519	-1.280959
C190	C	-0.690905	1.187768	-1.219607
C191	C	-0.529053	1.251832	-1.281136
C192	C	-0.499741	1.286156	-1.310649
C193	C	-0.438405	1.256735	-1.278805
C194	C	-0.406622	1.293950	-1.310801
C195	C	-0.406369	1.192984	-1.217447
C196	C	-0.435678	1.158660	-1.187936
C197	C	-0.497020	1.188087	-1.219781
C198	C	-0.529017	0.964507	-0.993962
C199	C	-0.499697	0.905652	-0.930337
C200	C	-0.438360	0.876155	-0.898417
C201	C	-0.406564	0.812337	-0.829433
C202	C	-0.406339	0.905507	-0.930110
C203	C	-0.435656	0.964362	-0.993732
C204	C	-0.496996	0.993859	-1.025655
H205	H	-0.615791	0.653993	-1.100814
C206	C	-0.181512	0.363065	-0.740207
N207	N	-0.155986	0.312015	-0.740918
C208	C	-0.377138	0.353596	-0.535103
N209	N	-0.428892	0.404659	-0.560633
C210	C	-0.534986	1.356280	-1.378139
N211	N	-0.561529	1.409099	-1.428973
H212	H	-0.446823	0.062652	-0.678445
H213	H	-0.031354	0.610456	-1.307095
H214	H	-0.359317	0.549637	-0.526279
C215	C	-0.428964	0.467416	-1.092016
N216	N	-0.377204	0.416365	-1.066490
H217	H	-0.615796	0.062640	-0.678425
H218	H	-0.022691	0.379156	-1.191594
C219	C	-0.596097	0.628242	-1.316206
N220	N	-0.646928	0.681061	-1.342750
C221	C	-0.534960	-0.126607	-0.694525
N222	N	-0.561502	-0.150902	-0.696499
H223	H	-0.190311	0.167003	-0.357320
C224	C	-0.377148	0.558702	-0.740217
N225	N	-0.428912	0.584943	-0.740935
C226	C	-0.022017	0.360919	-0.895018
N227	N	-0.020041	0.308105	-0.868578
H228	H	-0.022719	0.548580	-0.904509
C229	C	0.023575	0.157920	-0.339440
N230	N	0.024282	0.131684	-0.287678
C231	C	-0.181514	0.558701	-0.740210
N232	N	-0.155995	0.584948	-0.740935
H233	H	0.023338	0.166987	-0.526281
C234	C	-0.687542	0.284100	-0.684498
N235	N	-0.661106	0.308498	-0.682517
C236	C	-0.338407	0.360524	-0.895476
N237	N	-0.287568	0.307718	-0.869211
H238	H	-0.022695	0.548610	-1.360659
C239	C	-0.428976	1.053690	-1.091969
N240	N	-0.377222	1.027466	-1.066438
C241	C	-0.181530	0.558676	-0.535068
N242	N	-0.156001	0.584912	-0.560588
C243	C	-0.338404	0.360528	-1.181665
N244	N	-0.287568	0.307717	-1.155123
H245	H	-0.578999	1.275793	-1.307071
H246	H	-0.615784	1.231689	-1.269770
C247	C	-0.534096	0.556212	-1.377783
N248	N	-0.560468	0.580611	-1.428620
C249	C	-0.181516	0.157946	-0.535095
N250	N	-0.155996	0.131702	-0.560617
H251	H	-0.190360	0.380654	-0.357292
H252	H	-0.615798	0.231622	-0.678439
C253	C	-0.821126	0.843260	-1.378211
N254	N	-0.847393	0.867562	-1.429051
H255	H	0.023349	0.335947	-0.526260
H256	H	-0.356377	-0.118587	-0.693868
H257	H	-0.038126	0.485027	-1.100800
C258	C	-0.038346	0.663051	-1.287626
N259	N	-0.039052	0.689288	-1.339387
C260	C	-0.038347	0.663033	-1.091984
N261	N	-0.039046	0.689258	-1.066452
C262	C	-0.338862	0.873057	-0.894993
N263	N	-0.288038	0.848612	-0.868542
C264	C	-0.022010	0.843242	-1.181628
N265	N	-0.020037	0.867533	-1.155083
C266	C	-0.021971	0.843664	-1.377746
N267	N	-0.019980	0.868120	-1.428578
H268	H	-0.031380	0.610445	-1.019926
H269	H	-0.031363	0.728113	-1.137592
C270	C	-0.032037	0.432539	-1.120489
N271	N	-0.034014	0.407970	-1.069651
C272	C	-0.821571	0.843660	-1.182502
N273	N	-0.848014	0.868114	-1.156124
C274	C	-0.624561	1.053594	-1.092020
N275	N	-0.650073	1.027329	-1.066508
H276	H	-0.031336	0.728474	-1.307023
H277	H	-0.615787	0.653999	-1.269796
H278	H	-0.696656	0.728123	-1.307116
H279	H	-0.409496	0.440961	-1.019953
C280	C	-0.687964	0.720087	-1.120504
N281	N	-0.661695	0.695789	-1.069666
C282	C	-0.534925	0.873370	-0.895479
N283	N	-0.561460	0.849056	-0.869221
C284	C	-0.821075	1.159520	-1.181695
N285	N	-0.847335	1.134929	-1.155163
C286	C	-0.821538	1.355732	-1.377778
N287	N	-0.847981	1.408558	-1.428608
H288	H	-0.578961	0.988517	-1.019953
C289	C	-0.687948	1.284163	-1.316182
N290	N	-0.661686	1.308752	-1.342712
H291	H	-0.031363	0.441003	-1.019561
C292	C	-0.338893	1.160625	-1.182418
N293	N	-0.288071	1.136250	-1.156032
C294	C	-0.534112	0.556187	-0.895034
N295	N	-0.560486	0.580578	-0.868591
H296	H	-0.696620	1.106179	-1.137632
H297	H	-0.409592	1.106754	-1.137980
H298	H	-0.409496	0.440960	-1.137623
H299	H	-0.578577	0.610003	-1.019575
H300	H	-0.409580	0.988258	-1.019536
C301	C	-0.821137	0.356122	-0.694526
N302	N	-0.847405	0.408933	-0.696501
C303	C	-0.821577	0.160445	-0.694546
N304	N	-0.848019	0.136055	-0.696532
C305	C	-0.534952	0.356125	-0.694535
N306	N	-0.561492	0.408932	-0.696503
H307	H	-0.697031	0.106624	-0.685190
C308	C	-0.400425	-0.003432	-0.684539
N309	N	-0.373890	0.020876	-0.682582
C310	C	-0.596528	-0.003044	-0.684493
N311	N	-0.647360	0.021408	-0.682507
H312	H	-0.578992	0.275688	-0.685186
C313	C	-0.338848	0.160459	-0.694574
N314	N	-0.288014	0.136067	-0.696556
H315	H	-0.409574	0.106642	-0.685222
