data_functionalizedCrystal
_audit_creation_method	'MofGen! by Chris Wilmer'
_symmetry_space_group_name_H-M	'P1'
_symmetry_Int_Tables_number	1
_symmetry_cell_setting	triclinic
loop_
_symmetry_equiv_pos_as_xyz
  x,y,z
_cell_length_a	19.077212
_cell_length_b	19.077068
_cell_length_c	18.215407
_cell_angle_alpha	87.713242
_cell_angle_beta	92.314333
_cell_angle_gamma	94.708021
loop_
_atom_site_label
_atom_site_type_symbol
_atom_site_fract_x
_atom_site_fract_y
_atom_site_fract_z
Zn1	Zn	1.066377	-0.237619	0.470998
Zn2	Zn	1.399710	0.095714	0.804332
Zn3	Zn	1.733043	0.429047	1.137665
Zn4	Zn	1.061568	-0.355476	0.352673
Zn5	Zn	1.394902	-0.022143	0.686006
Zn6	Zn	1.728235	0.311190	1.019340
Zn7	Zn	0.948508	-0.242325	0.343178
Zn8	Zn	1.281841	0.091008	0.676512
Zn9	Zn	1.615174	0.424342	1.009845
Zn10	Zn	0.943713	-0.360197	0.470932
Zn11	Zn	1.277046	-0.026864	0.804265
Zn12	Zn	1.610379	0.306470	1.137598
O13	O	1.005041	-0.298904	0.409445
O14	O	1.338375	0.034429	0.742779
O15	O	1.671708	0.367762	1.076112
O16	O	1.164390	-0.249308	0.459303
O17	O	1.497724	0.084025	0.792637
O18	O	1.831057	0.417358	1.125970
O19	O	1.046565	-0.340460	0.248429
O20	O	1.379899	-0.007127	0.581762
O21	O	1.713232	0.326207	0.915095
O22	O	0.968162	-0.143047	0.356188
O23	O	1.301496	0.190286	0.689522
O24	O	1.634829	0.523619	1.022855
O25	O	1.160858	-0.335897	0.372370
O26	O	1.494191	-0.002564	0.705704
O27	O	1.827525	0.330769	1.039037
O28	O	1.054760	-0.139590	0.450097
O29	O	1.388093	0.193743	0.783430
O30	O	1.721427	0.527077	1.116764
O31	O	0.963500	-0.257328	0.241453
O32	O	1.296833	0.076005	0.574786
O33	O	1.630167	0.409338	0.908120
O34	O	0.849220	-0.261906	0.356124
O35	O	1.182553	0.071427	0.689457
O36	O	1.515887	0.404761	1.022790
O37	O	0.959990	-0.343943	0.573925
O38	O	1.293323	-0.010610	0.907259
O39	O	1.626656	0.322723	1.240592
O40	O	0.845697	-0.348506	0.449984
O41	O	1.179030	-0.015173	0.783317
O42	O	1.512364	0.318161	1.116650
O43	O	1.050110	-0.253886	0.573974
O44	O	1.383444	0.079447	0.907307
O45	O	1.716777	0.412781	1.240641
O46	O	1.041916	-0.454756	0.372306
O47	O	1.375249	-0.121423	0.705639
O48	O	1.708582	0.211911	1.038972
O49	O	0.955327	-0.458224	0.459190
O50	O	1.288661	-0.124891	0.792523
O51	O	1.621994	0.208442	1.125857
C52	C	0.821879	-0.306229	0.402017
C53	C	1.155213	0.027104	0.735350
C54	C	1.488546	0.360437	1.068683
C55	C	0.743521	-0.309380	0.398857
C56	C	1.076854	0.023953	0.732190
C57	C	1.410188	0.357287	1.065523
C58	C	0.302249	-0.331947	0.376226
C59	C	0.635583	0.001386	0.709560
C60	C	0.968916	0.334719	1.042893
C61	C	0.375875	-0.328983	0.379190
C62	C	0.709209	0.004350	0.712523
C63	C	1.042542	0.337684	1.045856
C64	C	0.414527	-0.282493	0.426012
C65	C	0.747860	0.050841	0.759346
C66	C	1.081193	0.384174	1.092679
C67	C	0.379549	-0.238958	0.469869
C68	C	0.712882	0.094375	0.803203
C69	C	1.046215	0.427708	1.136536
C70	C	0.305924	-0.241919	0.466902
C71	C	0.639257	0.091414	0.800235
C72	C	0.972591	0.424747	1.133568
C73	C	0.634918	-0.268807	0.439746
C74	C	0.968252	0.064526	0.773079
C75	C	1.301585	0.397860	1.106413
C76	C	0.708548	-0.265851	0.442712
C77	C	1.041881	0.067483	0.776045
C78	C	1.375214	0.400816	1.109379
C79	C	0.704870	-0.355875	0.352031
C80	C	1.038203	-0.022542	0.685364
C81	C	1.371536	0.310792	1.018698
C82	C	0.631244	-0.358835	0.349071
C83	C	0.964577	-0.025501	0.682404
C84	C	1.297910	0.307832	1.015737
C85	C	0.596272	-0.315298	0.392925
C86	C	0.929605	0.018035	0.726258
C87	C	1.262939	0.351369	1.059591
N88	N	0.489784	-0.279463	0.429044
N89	N	0.823118	0.053870	0.762378
N90	N	1.156451	0.387204	1.095711
N91	N	0.521016	-0.318324	0.389889
N92	N	0.854349	0.015009	0.723222
N93	N	1.187683	0.348342	1.056555
C94	C	0.997599	-0.482069	0.416788
C95	C	1.330932	-0.148736	0.750121
C96	C	1.664265	0.184598	1.083454
C97	C	0.994479	-0.560425	0.419956
C98	C	1.327812	-0.227092	0.753289
C99	C	1.661146	0.106242	1.086623
C100	C	1.038130	-0.595406	0.376249
C101	C	1.371464	-0.262073	0.709583
C102	C	1.704797	0.071260	1.042916
C103	C	1.035200	-0.669030	0.379234
C104	C	1.368534	-0.335697	0.712567
C105	C	1.701867	-0.002363	1.045900
C106	C	0.988615	-0.707671	0.425922
C107	C	1.321948	-0.374338	0.759255
C108	C	1.655282	-0.041005	1.092588
C109	C	0.944962	-0.672685	0.469634
C110	C	1.278295	-0.339352	0.802967
C111	C	1.611629	-0.006018	1.136300
C112	C	0.947896	-0.599063	0.466653
C113	C	1.281229	-0.265729	0.799986
C114	C	1.614563	0.067604	1.133319
C115	C	0.975006	-0.928056	0.439688
C116	C	1.308339	-0.594722	0.773021
C117	C	1.641672	-0.261389	1.106354
C118	C	0.972073	-1.001683	0.442664
C119	C	1.305407	-0.668350	0.775997
C120	C	1.638740	-0.335017	1.109331
C121	C	1.062313	-0.998023	0.352265
C122	C	1.395646	-0.664690	0.685598
C123	C	1.728980	-0.331357	1.018931
C124	C	1.065240	-0.924400	0.349284
C125	C	1.398573	-0.591066	0.682618
C126	C	1.731906	-0.257733	1.015951
C127	C	1.021589	-0.889420	0.392999
C128	C	1.354923	-0.556086	0.726332
C129	C	1.688256	-0.222753	1.059666
N130	N	0.985618	-0.782927	0.428972
N131	N	1.318951	-0.449594	0.762305
N132	N	1.652284	-0.116260	1.095639
N133	N	1.024591	-0.814165	0.389952
N134	N	1.357924	-0.480832	0.723286
N135	N	1.691258	-0.147499	1.056619
C136	C	1.188919	-0.291551	0.416903
C137	C	1.522252	0.041782	0.750237
C138	C	1.855585	0.375115	1.083570
C139	C	1.267276	-0.288418	0.420082
C140	C	1.600610	0.044916	0.753415
C141	C	1.933943	0.378249	1.086748
C142	C	1.005052	-0.298916	0.601399
C143	C	1.338385	0.034417	0.934732
C144	C	1.671718	0.367750	1.268066
C145	C	1.005056	-0.298921	0.683198
C146	C	1.338389	0.034412	1.016532
C147	C	1.671723	0.367745	1.349865
C148	C	1.012532	-0.115024	0.402091
C149	C	1.345866	0.218310	0.735424
C150	C	1.679199	0.551643	1.068758
C151	C	1.015725	-0.036665	0.398957
C152	C	1.349058	0.296669	0.732290
C153	C	1.682391	0.630002	1.065624
C154	C	1.048298	-0.342195	0.951892
C155	C	1.381631	-0.008861	1.285225
C156	C	1.714965	0.324472	1.618558
C157	C	1.048299	-0.342198	0.875033
C158	C	1.381633	-0.008865	1.208366
C159	C	1.714966	0.324469	1.541700
C160	C	0.961794	-0.255638	0.867752
C161	C	1.295128	0.077695	1.201086
C162	C	1.628461	0.411029	1.534419
C163	C	0.961790	-0.255639	0.944610
C164	C	1.295123	0.077694	1.277943
C165	C	1.628456	0.411028	1.611276
C166	C	1.005045	-0.298916	0.986677
C167	C	1.338379	0.034417	1.320011
C168	C	1.671712	0.367751	1.653344
C169	C	1.005052	-0.298918	0.832962
C170	C	1.338385	0.034415	1.166295
C171	C	1.671718	0.367748	1.499628
C172	C	1.005053	-0.298921	0.749628
C173	C	1.338386	0.034412	1.082961
C174	C	1.671720	0.367745	1.416295
C175	C	1.005043	-0.298914	1.070016
C176	C	1.338377	0.034419	1.403349
C177	C	1.671710	0.367753	1.736683
C178	C	1.005030	-0.298911	1.218239
C179	C	1.338364	0.034423	1.551572
C180	C	1.671697	0.367756	1.884906
C181	C	1.005041	-0.298913	1.136440
C182	C	1.338375	0.034420	1.469774
C183	C	1.671708	0.367754	1.803107
H184	H	0.404347	-0.364428	0.343477
H185	H	0.737681	-0.031095	0.676810
H186	H	1.071014	0.302238	1.010144
H187	H	0.907035	-0.704153	0.507651
H188	H	1.240368	-0.370819	0.840985
H189	H	1.573701	-0.037486	1.174318
H190	H	0.740016	-0.227987	0.480839
H191	H	1.073349	0.105346	0.814173
H192	H	1.406683	0.438679	1.147506
H193	H	1.070745	-0.697508	0.343642
H194	H	1.404079	-0.364175	0.676976
H195	H	1.737412	-0.030842	1.010309
H196	H	1.083519	-0.377435	0.986141
H197	H	1.416852	-0.044101	1.319474
H198	H	1.750185	0.289232	1.652808
H199	H	0.912352	-0.570582	0.502244
H200	H	1.245685	-0.237248	0.835578
H201	H	1.579018	0.096085	1.168911
F202	F	0.915774	-0.209569	0.822975
F203	F	1.249107	0.123764	1.156308
F204	F	1.582440	0.457097	1.489641
F205	F	0.261120	-0.381434	0.326396
F206	F	0.594453	-0.048101	0.659730
F207	F	0.927787	0.285232	0.993063
H208	H	0.599779	-0.396692	0.310942
H209	H	0.933112	-0.063358	0.644275
H210	H	1.266445	0.269975	0.977608
F211	F	1.114830	-0.883279	0.299601
F212	F	1.448163	-0.549946	0.632934
F213	F	1.781497	-0.216613	0.966268
H214	H	1.083520	-0.377440	0.846714
H215	H	1.416853	-0.044106	1.180048
H216	H	1.750187	0.289227	1.513381
H217	H	1.097852	-1.026512	0.316676
H218	H	1.431185	-0.693179	0.650009
H219	H	1.764518	-0.359845	0.983342
F220	F	0.915743	-0.209582	0.981633
F221	F	1.249076	0.123751	1.314966
F222	F	1.582410	0.457084	1.648300
H223	H	0.934147	-1.033143	0.480696
H224	H	1.267480	-0.699810	0.814030
H225	H	1.600813	-0.366476	1.147363
F226	F	0.928548	-0.890837	0.486212
F227	F	1.261881	-0.557504	0.819546
F228	F	1.595214	-0.224170	1.152879
F229	F	1.087709	-0.554288	0.326552
F230	F	1.421042	-0.220955	0.659885
F231	F	1.754375	0.112379	0.993219
H232	H	0.733352	-0.391320	0.316327
H233	H	1.066685	-0.057986	0.649660
H234	H	1.400018	0.275347	0.982994
F235	F	0.597708	-0.222475	0.486425
F236	F	0.931041	0.110858	0.819758
F237	F	1.264375	0.444192	1.153091
H238	H	0.277450	-0.206471	0.502611
H239	H	0.610783	0.126863	0.835944
H240	H	0.944117	0.460196	1.169277
F241	F	0.420686	-0.189477	0.519700
F242	F	0.754020	0.143856	0.853033
F243	F	1.087353	0.477190	1.186366
