data_functionalizedCrystal
_audit_creation_method	'MofGen! by Chris Wilmer'
_symmetry_space_group_name_H-M	'P1'
_symmetry_Int_Tables_number	1
_symmetry_cell_setting	triclinic
loop_
_symmetry_equiv_pos_as_xyz
  x,y,z
_cell_length_a	10.540510
_cell_length_b	10.540510
_cell_length_c	12.996460
_cell_angle_alpha	89.996346
_cell_angle_beta	89.994188
_cell_angle_gamma	84.513311
loop_
_atom_site_label
_atom_site_type_symbol
_atom_site_fract_x
_atom_site_fract_y
_atom_site_fract_z
O1	O	1.685892	0.178725	-0.085567
O2	O	1.316472	0.195621	-0.085567
O3	O	1.509630	0.002463	-0.085567
O4	O	1.492734	0.371883	-0.085568
O5	O	1.509609	0.002452	0.085567
O6	O	1.316452	0.195610	0.085567
O7	O	1.685872	0.178714	0.085567
Cu8	Cu	1.501160	0.187161	0.101193
Cu9	Cu	1.501184	0.187174	-0.101193
O10	O	1.492714	0.371872	0.085566
C11	C	1.269159	0.194356	-0.000000
C12	C	1.128209	0.190589	-0.000001
C13	C	0.910739	0.324775	-0.000394
C14	C	1.057334	0.328793	-0.000002
C15	C	1.083445	0.119836	0.097723
C16	C	0.936685	0.116797	0.097799
C17	C	0.936902	0.113931	-0.096813
C18	C	1.083242	0.120486	-0.098098
C19	C	1.508361	-0.044846	-0.000002
C20	C	1.504594	-0.185795	-0.000008
C21	C	1.638780	-0.403265	0.000384
C22	C	1.642798	-0.256670	-0.000007
C23	C	1.433858	-0.230540	-0.097732
C24	C	1.430819	-0.377301	-0.097808
C25	C	1.427918	-0.377121	0.096803
C26	C	1.434473	-0.230781	0.098089
C27	C	1.733185	0.179979	-0.000002
C28	C	1.874135	0.183746	-0.000009
C29	C	1.493983	0.419181	-0.000001
C30	C	1.497750	0.560130	-0.000001
N31	N	1.501152	0.187151	0.243540
N32	N	1.501202	0.187174	-0.243540
C33	C	1.501182	0.187175	0.663354
C34	C	1.501170	0.187173	0.546549
C35	C	1.501168	0.187164	0.453450
C36	C	1.501154	0.187160	0.336638
H37	H	1.086683	0.384145	-0.070057
F38	F	0.906637	-0.018307	0.103647
H39	H	1.333573	-0.181704	0.103990
F40	F	1.708765	-0.460129	-0.090701
H41	H	1.692614	-0.445231	0.070467
F42	F	1.715114	-0.218322	0.091567
H43	H	1.132322	0.019588	-0.103999
H44	H	1.698482	-0.228266	-0.070180
H45	H	1.114286	0.168964	0.170449
H46	H	0.914759	0.010168	-0.097473
F47	F	1.292291	-0.406060	0.097666
H48	H	1.479177	-0.417517	-0.170858
F49	F	0.855907	0.395163	-0.091998
H50	H	0.867218	0.378303	0.069292
F51	F	1.295713	-0.407347	-0.103611
F52	F	1.094448	0.401561	0.091719
H53	H	0.894358	0.157519	-0.170882
F54	F	1.501739	-0.193388	0.192587
H55	H	1.332115	-0.183140	-0.101366
H56	H	0.896454	0.165141	0.170848
F57	F	1.498088	-0.190216	-0.192792
H58	H	1.471829	-0.419313	0.170878
H59	H	1.130845	0.018093	0.101358
H60	H	1.111864	0.171966	-0.170393
