data_functionalizedCrystal
_audit_creation_method	'MofGen! by Chris Wilmer'
_symmetry_space_group_name_H-M	'P1'
_symmetry_Int_Tables_number	1
_symmetry_cell_setting	triclinic
loop_
_symmetry_equiv_pos_as_xyz
  x,y,z
_cell_length_a	16.959453
_cell_length_b	17.077404
_cell_length_c	17.077396
_cell_angle_alpha	90.021457
_cell_angle_beta	89.970430
_cell_angle_gamma	89.978170
loop_
_atom_site_label
_atom_site_type_symbol
_atom_site_fract_x
_atom_site_fract_y
_atom_site_fract_z
Zn1	Zn	-0.314700	-1.200056	-0.443878
Zn2	Zn	0.185300	-0.700056	0.056122
Zn3	Zn	-0.446888	-1.199963	-0.312609
Zn4	Zn	0.053112	-0.699963	0.187391
Zn5	Zn	-0.314726	-1.068787	-0.312621
Zn6	Zn	0.185274	-0.568787	0.187379
Zn7	Zn	-0.446839	-1.068756	-0.443828
Zn8	Zn	0.053161	-0.568756	0.056172
O9	O	-0.380788	-1.134390	-0.378234
O10	O	0.119212	-0.634390	0.121766
O11	O	-0.332246	-1.309890	-0.426480
O12	O	0.167754	-0.809890	0.073520
O13	O	-0.429388	-1.182537	-0.202764
O14	O	0.070612	-0.682537	0.297236
O15	O	-0.204111	-1.086252	-0.330058
O16	O	0.295889	-0.586252	0.169942
O17	O	-0.429363	-1.309822	-0.330038
O18	O	0.070637	-0.809822	0.169962
O19	O	-0.204093	-1.182694	-0.426492
O20	O	0.295907	-0.682694	0.073508
O21	O	-0.332289	-1.086163	-0.202773
O22	O	0.167711	-0.586163	0.297227
O23	O	-0.332241	-0.958936	-0.330010
O24	O	0.167759	-0.458936	0.169990
O25	O	-0.429279	-1.086198	-0.553682
O26	O	0.070721	-0.586198	-0.053682
O27	O	-0.429304	-0.958913	-0.426408
O28	O	0.070696	-0.458913	0.073592
O29	O	-0.332198	-1.182664	-0.553718
O30	O	0.167802	-0.682664	-0.053718
O31	O	-0.557493	-1.182506	-0.329990
O32	O	-0.057493	-0.682506	0.170010
O33	O	-0.557456	-1.086109	-0.426396
O34	O	-0.057456	-0.586109	0.073604
C35	C	-0.380770	-0.930442	-0.378205
C36	C	0.119230	-0.430442	0.121795
C37	C	-0.380781	-0.843193	-0.378212
C38	C	0.119219	-0.343193	0.121788
C39	C	-0.431397	-0.802211	-0.428324
C40	C	0.068603	-0.302211	0.071676
C41	C	-0.431397	-0.720231	-0.428334
C42	C	0.068603	-0.220231	0.071666
C43	C	-0.380785	-0.679233	-0.378227
C44	C	0.119215	-0.179233	0.121773
C45	C	-0.330163	-0.720221	-0.328112
C46	C	0.169837	-0.220221	0.171888
C47	C	-0.330160	-0.802200	-0.328107
C48	C	0.169840	-0.302200	0.171893
C49	C	-0.330175	-0.549351	-0.328126
C50	C	0.169825	-0.049351	0.171874
C51	C	-0.330180	-0.467366	-0.328129
C52	C	0.169820	0.032634	0.171871
C53	C	-0.431413	-0.467382	-0.428352
C54	C	0.068587	0.032618	0.071648
C55	C	-0.431410	-0.549360	-0.428347
C56	C	0.068590	-0.049360	0.071653
C57	C	-0.380789	-0.590342	-0.378231
C58	C	0.119211	-0.090342	0.121769
C59	C	-0.586155	-1.134315	-0.378204
C60	C	-0.086155	-0.634315	0.121796
C61	C	-0.674011	-1.134355	-0.378217
C62	C	-0.174011	-0.634355	0.121783
C63	C	-0.715363	-1.084203	-0.327973
C64	C	-0.215363	-0.584203	0.172027
C65	C	-0.715213	-1.184540	-0.428478
C66	C	-0.215213	-0.684540	0.071522
C67	C	-0.797759	-1.184577	-0.428495
C68	C	-0.297759	-0.684577	0.071505
C69	C	-0.839111	-1.134425	-0.378251
C70	C	-0.339111	-0.634425	0.121749
C71	C	-0.797916	-1.084236	-0.327990
C72	C	-0.297916	-0.584236	0.172010
C73	C	-0.838959	-1.234759	-0.478761
C74	C	-0.338959	-0.734759	0.021239
C75	C	-0.921510	-1.234797	-0.478781
C76	C	-0.421510	-0.734797	0.021219
C77	C	-0.962863	-1.184649	-0.428532
C78	C	-0.462863	-0.684649	0.071468
C79	C	-0.921664	-1.134458	-0.378268
C80	C	-0.421664	-0.634458	0.121732
C81	C	-0.963016	-1.084306	-0.328024
C82	C	-0.463016	-0.584306	0.171976
C83	C	-0.921818	-1.034120	-0.277756
C84	C	-0.421818	-0.534120	0.222244
C85	C	-0.839270	-1.034087	-0.277741
C86	C	-0.339270	-0.534087	0.222259
C87	C	-1.045412	-1.184681	-0.428547
C88	C	-0.545412	-0.684681	0.071453
C89	C	-1.045569	-1.084340	-0.328041
C90	C	-0.545569	-0.584340	0.171959
C91	C	-0.174620	-1.134487	-0.378282
C92	C	0.325380	-0.634487	0.121718
C93	C	-0.086763	-1.134529	-0.378302
C94	C	0.413237	-0.634529	0.121698
C95	C	-0.380730	-1.134438	-0.582978
C96	C	0.119270	-0.634438	-0.082978
C97	C	-0.380705	-1.134458	-0.670228
C98	C	0.119295	-0.634458	-0.170228
C99	C	-0.380802	-0.339135	-0.378255
C100	C	0.119198	0.160865	0.121745
C101	C	-0.380796	-0.426384	-0.378242
C102	C	0.119204	0.073616	0.121758
C103	C	-0.330151	-1.184689	-0.711239
C104	C	0.169849	-0.684689	-0.211239
C105	C	-0.330124	-1.184699	-0.793219
C106	C	0.169876	-0.684699	-0.293219
C107	C	-0.380657	-1.134480	-0.834188
C108	C	0.119343	-0.634480	-0.334188
C109	C	-0.431214	-1.084243	-0.793172
C110	C	0.068786	-0.584243	-0.293172
C111	C	-0.431236	-1.084231	-0.711193
C112	C	0.068764	-0.584231	-0.211193
C113	C	-0.431166	-1.084275	-0.964042
C114	C	0.068834	-0.584275	-0.464042
C115	C	-0.431146	-1.084289	-1.046027
C116	C	0.068854	-0.584289	-0.546027
C117	C	-0.330055	-1.184743	-1.046068
C118	C	0.169945	-0.684743	-0.546068
C119	C	-0.330077	-1.184731	-0.964089
C120	C	0.169923	-0.684731	-0.464089
C121	C	-0.380635	-1.134494	-0.923079
C122	C	0.119365	-0.634494	-0.423079
C123	C	-0.380789	-1.134388	-0.174286
C124	C	0.119211	-0.634388	0.325714
C125	C	-0.380591	-1.134520	-0.087037
C126	C	0.119409	-0.634520	0.412963
H127	H	-0.472627	-0.582738	-0.469144
H128	H	0.027373	-0.082738	0.030856
H129	H	-0.288960	-1.225604	-0.826606
H130	H	0.211040	-0.725604	-0.326606
O131	O	-0.275580	-1.238897	-0.919896
O132	O	0.224420	-0.738897	-0.419896
H133	H	-0.240415	-1.273827	-0.962184
H134	H	0.259585	-0.773827	-0.462184
H135	H	-0.472292	-1.043395	-1.079381
H136	H	0.027708	-0.543395	-0.579381
H137	H	-0.472324	-1.043355	-0.930654
H138	H	0.027676	-0.543355	-0.430654
O139	O	-0.485711	-1.030073	-0.837359
O140	O	0.014289	-0.530073	-0.337359
H141	H	-0.547754	-1.043495	-0.821609
H142	H	-0.047754	-0.543495	-0.321609
H143	H	-0.955498	-0.993282	-0.236851
H144	H	-0.455498	-0.493282	0.263149
H145	H	-0.472615	-0.686867	-0.469139
H146	H	0.027385	-0.186867	0.030861
O147	O	-0.485973	-0.846430	-0.482381
O148	O	0.014027	-0.346430	0.017619
H149	H	-0.526150	-0.883753	-0.447186
H150	H	-0.026150	-0.383753	0.052814
H151	H	-1.078951	-1.225532	-0.469485
H152	H	-0.578951	-0.725532	0.030515
H153	H	-0.288957	-0.433988	-0.287337
H154	H	0.211043	0.066012	0.212663
H155	H	-0.288938	-0.835566	-0.287305
H156	H	0.211062	-0.335566	0.212695
H157	H	-0.288888	-1.225646	-1.079463
H158	H	0.211112	-0.725646	-0.579463
H159	H	-0.472628	-0.434010	-0.469160
H160	H	0.027372	0.065990	0.030840
H161	H	-0.472394	-1.043319	-0.677803
H162	H	0.027606	-0.543319	-0.177803
O163	O	-0.794838	-0.979956	-0.223531
O164	O	-0.294838	-0.479956	0.276469
H165	H	-0.730490	-0.988352	-0.231968
H166	H	-0.230490	-0.488352	0.268032
H167	H	-0.681818	-1.043343	-0.287042
H168	H	-0.181818	-0.543343	0.212958
O169	O	-0.275586	-0.593557	-0.274066
O170	O	0.224414	-0.093557	0.225934
H171	H	-0.240400	-0.551279	-0.239216
H172	H	0.259600	-0.051279	0.260784
H173	H	-0.288950	-0.686834	-0.287318
H174	H	0.211050	-0.186834	0.212682
O175	O	-0.670618	-1.238634	-0.482666
O176	O	-0.170618	-0.738634	0.017334
H177	H	-0.606296	-1.230183	-0.474207
H178	H	-0.106296	-0.730183	0.025793
O179	O	-0.275651	-1.238857	-0.667051
O180	O	0.224349	-0.738857	-0.167051
H181	H	-0.213608	-1.225422	-0.682791
H182	H	0.286392	-0.725422	-0.182791
O183	O	-1.090171	-1.030245	-0.273850
O184	O	-0.590171	-0.530245	0.226150
H185	H	-1.047653	-0.995341	-0.238900
H186	H	-0.547653	-0.495341	0.261100
H187	H	-0.805288	-1.275588	-0.519672
H188	H	-0.305288	-0.775588	-0.019672
H189	H	-0.955046	-1.275664	-0.519711
H190	H	-0.455046	-0.775664	-0.019711
