data_functionalizedCrystal
_audit_creation_method	'MofGen! by Chris Wilmer'
_symmetry_space_group_name_H-M	'P1'
_symmetry_Int_Tables_number	1
_symmetry_cell_setting	triclinic
loop_
_symmetry_equiv_pos_as_xyz
  x,y,z
_cell_length_a	16.992694
_cell_length_b	13.339070
_cell_length_c	16.053802
_cell_angle_alpha	93.267614
_cell_angle_beta	87.249047
_cell_angle_gamma	103.148759
loop_
_atom_site_label
_atom_site_type_symbol
_atom_site_fract_x
_atom_site_fract_y
_atom_site_fract_z
O1	O	1.090314	0.214289	-0.069315
O2	O	0.861508	0.211892	-0.069340
O3	O	0.949651	0.063704	-0.069328
O4	O	1.002170	0.362477	-0.069327
O5	O	0.944792	0.071825	0.069530
O6	O	0.856649	0.220013	0.069518
O7	O	1.085454	0.222410	0.069543
Zn8	Zn	0.970280	0.222501	0.091577
Zn9	Zn	0.976682	0.211801	-0.091374
O10	O	0.997311	0.370598	0.069531
C11	C	0.829196	0.212871	0.000086
C12	C	0.740151	0.203676	0.000076
C13	C	0.709211	0.292389	0.000077
C14	C	0.625543	0.283745	0.000089
C15	C	0.572817	0.186385	0.000093
C16	C	0.603763	0.097665	0.000095
C17	C	0.687429	0.106311	0.000090
C18	C	0.321423	0.150552	0.000116
C19	C	0.237752	0.141912	0.000119
C20	C	0.259538	0.327993	0.000114
C21	C	0.343205	0.336630	0.000103
C22	C	0.374143	0.247910	0.000109
N23	N	0.487295	0.177547	0.000103
N24	N	0.459663	0.256750	0.000106
C25	C	0.938350	0.029358	0.000099
C26	C	0.911906	-0.085082	0.000093
C27	C	1.117519	-0.433251	0.000116
C28	C	1.142367	-0.325729	0.000126
C29	C	1.084754	-0.265562	0.000118
C30	C	1.002289	-0.312928	0.000099
C31	C	0.977439	-0.420460	0.000095
C32	C	0.944673	-0.252771	0.000097
C33	C	0.862209	-0.300136	0.000078
C34	C	0.837363	-0.407658	0.000074
C35	C	0.894976	-0.467825	0.000082
C36	C	0.969524	-0.145239	0.000101
C37	C	0.829443	-0.132447	0.000080
C38	C	0.804596	-0.239970	0.000070
C39	C	1.117767	0.221431	0.000115
C40	C	1.206811	0.230626	0.000120
C41	C	1.008612	0.404944	0.000102
C42	C	1.035056	0.519384	0.000103
N43	N	0.965916	0.229803	0.216437
N44	N	0.981051	0.204492	-0.216234
C45	C	1.003445	0.166774	0.260136
C46	C	1.000402	0.171892	0.347543
C47	C	0.959834	0.240045	0.391248
C48	C	0.922300	0.303076	0.347543
C49	C	0.925339	0.297952	0.260138
C50	C	0.946555	0.262399	0.652656
C51	C	0.943522	0.267520	0.740067
C52	C	1.021623	0.136334	0.740060
C53	C	1.024662	0.131221	0.652654
C54	C	0.987124	0.194248	0.608956
N55	N	0.956725	0.245281	0.480592
N56	N	0.990229	0.189006	0.519615
H57	H	0.560826	0.018394	0.000111
C58	C	0.884737	0.366441	0.212583
C59	C	0.942708	0.429986	0.162374
C60	C	0.905330	0.493080	0.118548
H61	H	0.860144	0.407859	0.251033
H62	H	0.844656	0.324712	0.178447
H63	H	0.982775	0.471711	0.196508
H64	H	0.967305	0.388595	0.123909
H65	H	0.865249	0.451350	0.084412
H66	H	0.880738	0.534491	0.157004
H67	H	0.944656	0.536195	0.084470
H68	H	1.209509	-0.287171	0.000142
C69	C	1.041247	0.103427	0.394836
C70	C	1.077453	0.042675	0.337853
C71	C	1.115101	-0.020396	0.381389
H72	H	1.002105	0.060119	0.428947
H73	H	1.081384	0.145169	0.428904
H74	H	1.037321	0.000937	0.303800
H75	H	1.116606	0.085956	0.303741
H76	H	1.155237	0.021345	0.415456
H77	H	1.075953	-0.063698	0.415498
H78	H	1.139677	-0.061617	0.342733
H79	H	1.164418	-0.482247	0.000129
H80	H	1.057695	0.075725	0.617071
H81	H	1.036667	-0.106684	0.000116
H82	H	0.874749	-0.555379	0.000071
H83	H	1.052183	0.085019	0.775647
H84	H	0.782530	-0.083459	0.000077
C85	C	0.354962	0.054180	-0.000057
C86	C	0.330543	-0.008217	-0.071506
C87	C	0.361435	-0.097001	-0.071699
H88	H	0.335105	0.017247	0.048310
H89	H	0.412346	0.073217	-0.000102
H90	H	0.273172	-0.027254	-0.071453
H91	H	0.350399	0.028685	-0.119884
H92	H	0.418819	-0.077965	-0.071745
H93	H	0.341575	-0.133925	-0.023330
H94	H	0.344877	-0.139344	-0.120180
H95	H	1.036484	0.111281	0.224557
C96	C	0.592110	0.380184	0.000046
C97	C	0.656193	0.467295	0.000014
C98	C	0.625426	0.556156	-0.000035
H99	H	0.558255	0.383661	0.048460
H100	H	0.561633	0.377900	-0.048393
H101	H	0.686656	0.469578	0.048448
H102	H	0.690053	0.463852	-0.048396
H103	H	0.594950	0.553872	-0.048473
H104	H	0.591571	0.559622	0.048380
H105	H	0.668902	0.615270	-0.000064
H106	H	0.910485	0.323023	0.775648
H107	H	0.915992	0.313720	0.617084
C108	C	0.878329	0.377043	0.395143
C109	C	0.883719	0.368064	0.481042
C110	C	0.843233	0.436200	0.524915
H111	H	0.823096	0.360746	0.380930
H112	H	0.902455	0.445660	0.380857
H113	H	0.859591	0.299463	0.495322
H114	H	0.938942	0.384371	0.495281
H115	H	0.867360	0.504817	0.510629
H116	H	0.788003	0.419896	0.510695
H117	H	0.846892	0.430124	0.583202
C118	C	0.715028	-0.291211	0.000011
C119	C	0.669886	-0.215517	-0.000017
C120	C	0.587375	-0.262683	-0.000083
H121	H	0.700617	-0.330059	0.048417
H122	H	0.704088	-0.335694	-0.048435
H123	H	0.680820	-0.171052	0.048425
H124	H	0.684272	-0.176664	-0.048419
H125	H	0.576436	-0.307166	-0.048529
H126	H	0.572972	-0.301530	0.048324
H127	H	0.556736	-0.211333	-0.000110
C128	C	1.111892	-0.148840	0.000079
C129	C	1.196441	-0.120238	0.000074
C130	C	1.221474	-0.012720	0.000023
H131	H	1.090030	-0.119195	0.048483
H132	H	1.093390	-0.124954	-0.048369
H133	H	1.214935	-0.144113	0.048518
H134	H	1.218323	-0.149855	-0.048326
H135	H	1.202972	0.011167	-0.048426
H136	H	1.199607	0.016915	0.048427
H137	H	1.278842	0.006701	0.000011
H138	H	0.386130	0.415909	0.000090
C139	C	0.225998	0.424338	-0.000057
C140	C	0.255393	0.478380	-0.071508
C141	C	0.224505	0.567134	-0.071697
H142	H	0.242480	0.466930	0.048308
H143	H	0.168617	0.405288	-0.000098
H144	H	0.312761	0.497432	-0.071460
H145	H	0.238913	0.435818	-0.119885
H146	H	0.167125	0.548084	-0.071737
H147	H	0.240989	0.609718	-0.023328
H148	H	0.244439	0.603808	-0.120179
H149	H	0.194823	0.062627	0.000122
H150	H	0.752136	0.371670	0.000073
H151	H	0.712618	0.034071	0.000088
H152	H	0.770215	-0.446220	0.000065
