data_functionalizedCrystal
_audit_creation_method	'MofGen! by Chris Wilmer'
_symmetry_space_group_name_H-M	'P1'
_symmetry_Int_Tables_number	1
_symmetry_cell_setting	triclinic
loop_
_symmetry_equiv_pos_as_xyz
  x,y,z
_cell_length_a	18.215407
_cell_length_b	12.594516
_cell_length_c	18.215399
_cell_angle_alpha	89.977894
_cell_angle_beta	89.980167
_cell_angle_gamma	90.016501
loop_
_atom_site_label
_atom_site_type_symbol
_atom_site_fract_x
_atom_site_fract_y
_atom_site_fract_z
Zn1	Zn	1.125117	-0.423740	-0.416146
Zn2	Zn	1.375117	-0.173740	-0.166146
Zn3	Zn	1.625117	0.076260	0.083854
Zn4	Zn	1.875117	0.326260	0.333854
Zn5	Zn	1.125045	-0.601738	-0.293092
Zn6	Zn	1.375045	-0.351738	-0.043092
Zn7	Zn	1.625045	-0.101738	0.206908
Zn8	Zn	1.875045	0.148262	0.456908
Zn9	Zn	1.002050	-0.423775	-0.293093
Zn10	Zn	1.252050	-0.173775	-0.043093
Zn11	Zn	1.502050	0.076225	0.206907
Zn12	Zn	1.752050	0.326225	0.456907
Zn13	Zn	1.002035	-0.601679	-0.416117
Zn14	Zn	1.252035	-0.351679	-0.166117
Zn15	Zn	1.502035	-0.101679	0.083883
Zn16	Zn	1.752035	0.148321	0.333883
O17	O	1.063561	-0.512733	-0.354612
O18	O	1.313561	-0.262733	-0.104612
O19	O	1.563561	-0.012733	0.145388
O20	O	1.813561	0.237267	0.395388
O21	O	1.228092	-0.447362	-0.399834
O22	O	1.478092	-0.197362	-0.149834
O23	O	1.728092	0.052638	0.100166
O24	O	1.978092	0.302638	0.350166
O25	O	1.108705	-0.578170	-0.190108
O26	O	1.358705	-0.328170	0.059892
O27	O	1.608705	-0.078170	0.309892
O28	O	1.858705	0.171830	0.559892
O29	O	1.018412	-0.274825	-0.309429
O30	O	1.268412	-0.024825	-0.059429
O31	O	1.518412	0.225175	0.190571
O32	O	1.768412	0.475175	0.440571
O33	O	1.228038	-0.578136	-0.309427
O34	O	1.478038	-0.328136	-0.059427
O35	O	1.728038	-0.078136	0.190573
O36	O	1.978038	0.171864	0.440573
O37	O	1.108829	-0.274799	-0.399835
O38	O	1.358829	-0.024799	-0.149835
O39	O	1.608829	0.225201	0.100165
O40	O	1.858829	0.475201	0.350165
O41	O	1.018341	-0.447422	-0.190109
O42	O	1.268341	-0.197422	0.059891
O43	O	1.518341	0.052578	0.309891
O44	O	1.768341	0.302578	0.559891
O45	O	0.899063	-0.447364	-0.309401
O46	O	1.149063	-0.197364	-0.059401
O47	O	1.399063	0.052636	0.190599
O48	O	1.649063	0.302636	0.440599
O49	O	1.018386	-0.578035	-0.519105
O50	O	1.268386	-0.328035	-0.269105
O51	O	1.518386	-0.078035	-0.019105
O52	O	1.768386	0.171965	0.230895
O53	O	0.899052	-0.578069	-0.399786
O54	O	1.149052	-0.328069	-0.149786
O55	O	1.399052	-0.078069	0.100214
O56	O	1.649052	0.171931	0.350214
O57	O	1.108814	-0.447305	-0.519126
O58	O	1.358814	-0.197305	-0.269126
O59	O	1.608814	0.052695	-0.019126
O60	O	1.858814	0.302695	0.230874
O61	O	1.108690	-0.750676	-0.309399
O62	O	1.358690	-0.500676	-0.059399
O63	O	1.608690	-0.250676	0.190601
O64	O	1.858690	-0.000676	0.440601
O65	O	1.018315	-0.750632	-0.399785
O66	O	1.268315	-0.500632	-0.149785
O67	O	1.518315	-0.250632	0.100215
O68	O	1.768315	-0.000632	0.350215
C69	C	0.872355	-0.512715	-0.354591
C70	C	1.122355	-0.262715	-0.104591
C71	C	1.372355	-0.012715	0.145409
C72	C	1.622355	0.237285	0.395409
C73	C	0.790556	-0.512733	-0.354599
C74	C	1.040556	-0.262733	-0.104599
C75	C	1.290556	-0.012733	0.145401
C76	C	1.540556	0.237267	0.395401
C77	C	1.063513	-0.789274	-0.354605
C78	C	1.313513	-0.539274	-0.104605
C79	C	1.563513	-0.289274	0.145395
C80	C	1.813513	-0.039274	0.395395
C81	C	1.063560	-0.907579	-0.354626
C82	C	1.313560	-0.657579	-0.104626
C83	C	1.563560	-0.407579	0.145374
C84	C	1.813560	-0.157579	0.395374
C85	C	0.602376	-0.580898	-0.401604
C86	C	0.852376	-0.330898	-0.151604
C87	C	1.102376	-0.080898	0.098396
C88	C	1.352376	0.169102	0.348396
C89	C	0.525517	-0.580901	-0.401613
C90	C	0.775517	-0.330901	-0.151613
C91	C	1.025517	-0.080901	0.098387
C92	C	1.275517	0.169099	0.348387
C93	C	0.525499	-0.444588	-0.307636
C94	C	0.775499	-0.194588	-0.057636
C95	C	1.025499	0.055412	0.192364
C96	C	1.275499	0.305412	0.442364
C97	C	0.602356	-0.444580	-0.307631
C98	C	0.852356	-0.194580	-0.057631
C99	C	1.102356	0.055420	0.192369
C100	C	1.352356	0.305420	0.442369
C101	C	0.640793	-0.512741	-0.354614
C102	C	0.890793	-0.262741	-0.104614
C103	C	1.140793	-0.012741	0.145386
C104	C	1.390793	0.237259	0.395386
C105	C	0.487077	-0.512752	-0.354628
C106	C	0.737077	-0.262752	-0.104628
C107	C	0.987077	-0.012752	0.145372
C108	C	1.237077	0.237248	0.395372
C109	C	0.403743	-0.512755	-0.354638
C110	C	0.653743	-0.262755	-0.104638
C111	C	0.903743	-0.012755	0.145362
C112	C	1.153743	0.237245	0.395362
C113	C	0.724132	-0.512737	-0.354606
C114	C	0.974132	-0.262737	-0.104606
C115	C	1.224132	-0.012737	0.145394
C116	C	1.474132	0.237263	0.395394
C117	C	1.014400	-0.976847	-0.403753
C118	C	1.264400	-0.726847	-0.153753
C119	C	1.514400	-0.476847	0.096247
C120	C	1.764400	-0.226847	0.346247
C121	C	0.996471	-1.047706	-0.336600
C122	C	1.246471	-0.797706	-0.086600
C123	C	1.496471	-0.547706	0.163400
C124	C	1.746471	-0.297706	0.413400
C125	C	1.081556	-1.047520	-0.421791
C126	C	1.331556	-0.797520	-0.171791
C127	C	1.581556	-0.547520	0.078209
C128	C	1.831556	-0.297520	0.328209
C129	C	1.045595	-0.976880	-0.287438
C130	C	1.295595	-0.726880	-0.037438
C131	C	1.545595	-0.476880	0.212562
C132	C	1.795595	-0.226880	0.462562
C133	C	1.130712	-0.976687	-0.372674
C134	C	1.380712	-0.726687	-0.122674
C135	C	1.630712	-0.476687	0.127326
C136	C	1.880712	-0.226687	0.377326
C137	C	1.112808	-1.047514	-0.305475
C138	C	1.362808	-0.797514	-0.055475
C139	C	1.612808	-0.547514	0.194525
C140	C	1.862808	-0.297514	0.444525
C141	C	1.255514	-0.512752	-0.354634
C142	C	1.505514	-0.262752	-0.104634
C143	C	1.755514	-0.012752	0.145366
C144	C	2.005514	0.237248	0.395366
C145	C	1.337313	-0.512760	-0.354643
C146	C	1.587313	-0.262760	-0.104643
C147	C	1.837313	-0.012760	0.145357
C148	C	2.087313	0.237240	0.395357
C149	C	1.063606	-0.512660	-0.546565
C150	C	1.313606	-0.262660	-0.296565
C151	C	1.563606	-0.012660	-0.046565
C152	C	1.813606	0.237340	0.203435
C153	C	1.063625	-0.512628	-0.628364
C154	C	1.313625	-0.262628	-0.378364
C155	C	1.563625	-0.012628	-0.128364
C156	C	1.813625	0.237372	0.121636
C157	C	1.063630	-0.235112	-0.354635
C158	C	1.313630	0.014888	-0.104635
C159	C	1.563630	0.264888	0.145365
C160	C	1.813630	0.514888	0.395365
C161	C	1.063659	-0.116807	-0.354645
C162	C	1.313659	0.133193	-0.104645
C163	C	1.563659	0.383193	0.145355
C164	C	1.813659	0.633193	0.395355
C165	C	1.110728	-0.444493	-0.816570
C166	C	1.360728	-0.194493	-0.566570
C167	C	1.610728	0.055507	-0.316570
C168	C	1.860728	0.305507	-0.066570
C169	C	1.110737	-0.444462	-0.893429
C170	C	1.360737	-0.194462	-0.643429
C171	C	1.610737	0.055538	-0.393429
C172	C	1.860737	0.305538	-0.143429
C173	C	1.016575	-0.580599	-0.893396
C174	C	1.266575	-0.330599	-0.643396
C175	C	1.516575	-0.080599	-0.393396
C176	C	1.766575	0.169401	-0.143396
C177	C	1.016563	-0.580624	-0.816538
C178	C	1.266563	-0.330624	-0.566538
C179	C	1.516563	-0.080624	-0.316538
C180	C	1.766563	0.169376	-0.066538
C181	C	1.063644	-0.512572	-0.778127
C182	C	1.313644	-0.262572	-0.528127
C183	C	1.563644	-0.012572	-0.278127
C184	C	1.813644	0.237428	-0.028127
C185	C	1.063664	-0.512517	-0.931844
C186	C	1.313664	-0.262517	-0.681844
C187	C	1.563664	-0.012517	-0.431844
C188	C	1.813664	0.237483	-0.181844
C189	C	1.063674	-0.512483	-1.015177
C190	C	1.313674	-0.262483	-0.765177
C191	C	1.563674	-0.012483	-0.515177
C192	C	1.813674	0.237517	-0.265177
C193	C	1.063634	-0.512604	-0.694788
C194	C	1.313634	-0.262604	-0.444788
C195	C	1.563634	-0.012604	-0.194788
C196	C	1.813634	0.237396	0.055212
C197	C	1.063559	-0.512729	-0.163406
C198	C	1.313559	-0.262729	0.086594
C199	C	1.563559	-0.012729	0.336594
C200	C	1.813559	0.237271	0.586594
C201	C	1.063683	-0.512461	-0.081607
C202	C	1.313683	-0.262461	0.168393
C203	C	1.563683	-0.012461	0.418393
C204	C	1.813683	0.237539	0.668393
H205	H	0.633668	-0.636396	-0.439862
H206	H	0.883668	-0.386396	-0.189862
H207	H	1.133668	-0.136396	0.060138
H208	H	1.383668	0.113604	0.310138
Br209	Br	0.952685	-0.672953	-0.945529
Br210	Br	1.202685	-0.422953	-0.695529
Br211	Br	1.452685	-0.172953	-0.445529
Br212	Br	1.702685	0.077047	-0.195529
H213	H	1.154423	-1.078347	-0.263891
H214	H	1.404423	-0.828347	-0.013891
H215	H	1.654423	-0.578347	0.236109
H216	H	1.904423	-0.328347	0.486109
H217	H	0.939728	-1.078924	-0.321350
H218	H	1.189728	-0.828924	-0.071350
H219	H	1.439728	-0.578924	0.178650
H220	H	1.689728	-0.328924	0.428650
H221	H	1.149077	-0.389024	-0.924726
H222	H	1.399077	-0.139024	-0.674726
H223	H	1.649077	0.110976	-0.424726
H224	H	1.899077	0.360976	-0.174726
H225	H	1.030348	-0.945979	-0.230630
H226	H	1.280348	-0.695979	0.019370
H227	H	1.530348	-0.445979	0.269370
H228	H	1.780348	-0.195979	0.519370
H229	H	1.149063	-0.389079	-0.785298
H230	H	1.399063	-0.139079	-0.535298
H231	H	1.649063	0.110921	-0.285298
H232	H	1.899063	0.360921	-0.035298
Br233	Br	0.944991	-0.925126	-0.472898
Br234	Br	1.194991	-0.675126	-0.222898
Br235	Br	1.444991	-0.425126	0.027102
Br236	Br	1.694991	-0.175126	0.277102
Br237	Br	0.952651	-0.673014	-0.764361
Br238	Br	1.202651	-0.423014	-0.514361
Br239	Br	1.452651	-0.173014	-0.264361
Br240	Br	1.702651	0.076986	-0.014361
H241	H	1.096738	-1.078549	-0.478583
H242	H	1.346738	-0.828549	-0.228583
H243	H	1.596738	-0.578549	0.021417
H244	H	1.846738	-0.328549	0.271417
Br245	Br	0.473382	-0.673399	-0.465391
Br246	Br	0.723382	-0.423399	-0.215391
Br247	Br	0.973382	-0.173399	0.034609
Br248	Br	1.223382	0.076601	0.284609
H249	H	1.187442	-0.945472	-0.387956
H250	H	1.437442	-0.695472	-0.137956
H251	H	1.687442	-0.445472	0.112044
H252	H	1.937442	-0.195472	0.362044
Br253	Br	0.473331	-0.352088	-0.243877
Br254	Br	0.723331	-0.102088	0.006123
Br255	Br	0.973331	0.147912	0.256123
Br256	Br	1.223331	0.397912	0.506123
Br257	Br	0.654499	-0.352064	-0.243862
Br258	Br	0.904499	-0.102064	0.006138
Br259	Br	1.154499	0.147936	0.256138
Br260	Br	1.404499	0.397936	0.506138
