data_functionalizedCrystal
_audit_creation_method	'MofGen! by Chris Wilmer'
_symmetry_space_group_name_H-M	'P1'
_symmetry_Int_Tables_number	1
_symmetry_cell_setting	triclinic
loop_
_symmetry_equiv_pos_as_xyz
  x,y,z
_cell_length_a	16.974897
_cell_length_b	23.532357
_cell_length_c	15.455313
_cell_angle_alpha	92.642146
_cell_angle_beta	83.675220
_cell_angle_gamma	83.114936
loop_
_atom_site_label
_atom_site_type_symbol
_atom_site_fract_x
_atom_site_fract_y
_atom_site_fract_z
O1	O	1.055609	0.067575	-0.146163
O2	O	1.555609	0.567575	0.353837
O3	O	0.824548	0.077372	-0.129964
O4	O	1.324548	0.577372	0.370036
O5	O	0.947066	-0.010453	-0.138535
O6	O	1.447066	0.489547	0.361465
O7	O	0.933091	0.155401	-0.137591
O8	O	1.433091	0.655401	0.362409
O9	O	0.940060	-0.005451	0.006217
O10	O	1.440060	0.494549	0.506217
O11	O	0.817542	0.082374	0.014789
O12	O	1.317542	0.582374	0.514789
O13	O	1.048603	0.072577	-0.001411
O14	O	1.548603	0.572577	0.498589
Cu15	Cu	0.932433	0.077932	0.019906
Cu16	Cu	1.432433	0.577932	0.519906
Cu17	Cu	0.940718	0.072017	-0.151280
Cu18	Cu	1.440718	0.572017	0.348720
O19	O	0.926085	0.160402	0.007161
O20	O	1.426085	0.660402	0.507161
C21	C	0.791489	0.079592	-0.055515
C22	C	1.291489	0.579592	0.444485
C23	C	0.703424	0.078747	-0.049340
C24	C	1.203424	0.578747	0.450660
C25	C	0.665862	0.075625	-0.125337
C26	C	1.165862	0.575625	0.374663
C27	C	0.583113	0.074841	-0.119522
C28	C	1.083113	0.574841	0.380478
C29	C	0.537928	0.077175	-0.037709
C30	C	1.037928	0.577175	0.462291
C31	C	0.575495	0.080298	0.038293
C32	C	1.075495	0.580298	0.538293
C33	C	0.658242	0.081086	0.032478
C34	C	1.158242	0.581086	0.532478
C35	C	0.290041	0.075114	-0.011855
C36	C	0.790041	0.575114	0.488145
C37	C	0.207289	0.074323	-0.006045
C38	C	0.707289	0.574323	0.493955
C39	C	0.214912	0.068868	-0.163861
C40	C	0.714912	0.568868	0.336139
C41	C	0.297661	0.069653	-0.169670
C42	C	0.797661	0.569653	0.330330
C43	C	0.335221	0.072779	-0.093667
C44	C	0.835221	0.572779	0.406333
N45	N	0.453345	0.076371	-0.031764
N46	N	0.953345	0.576371	0.468236
N47	N	0.419801	0.073586	-0.099613
N48	N	0.919801	0.573586	0.400387
C49	C	0.943213	-0.029169	-0.066132
C50	C	1.443213	0.470831	0.433868
C51	C	0.942162	-0.092388	-0.066050
C52	C	1.442162	0.407612	0.433950
C53	C	0.939384	-0.487134	-0.144539
C54	C	1.439384	0.012866	0.355461
C55	C	0.938385	-0.546534	-0.144474
C56	C	1.438385	-0.046534	0.355526
O57	O	0.941090	-0.579570	-0.211541
O58	O	1.441090	-0.079570	0.288459
N59	N	0.934071	-0.573519	-0.065536
N60	N	1.434071	-0.073519	0.434464
C61	C	0.930747	-0.541100	0.013343
C62	C	1.430747	-0.041100	0.513343
O63	O	0.926985	-0.569507	0.080492
O64	O	1.426985	-0.069507	0.580492
C65	C	0.931740	-0.481700	0.013277
C66	C	1.431740	0.018300	0.513277
C67	C	0.936063	-0.454719	-0.065666
C68	C	1.436063	0.045281	0.434334
C69	C	0.943706	-0.460152	-0.223476
C70	C	1.443706	0.039848	0.276524
C71	C	0.944706	-0.400756	-0.223541
C72	C	1.444706	0.099244	0.276459
C73	C	0.941385	-0.368341	-0.144669
C74	C	1.441385	0.131659	0.355331
C75	C	0.937063	-0.395323	-0.065731
C76	C	1.437063	0.104677	0.434269
C77	C	0.928411	-0.449281	0.092156
C78	C	1.428411	0.050719	0.592156
C79	C	0.929404	-0.389878	0.092083
C80	C	1.429404	0.110122	0.592083
C81	C	0.933727	-0.362896	0.013139
C82	C	1.433727	0.137104	0.513139
C83	C	0.934743	-0.303512	0.013076
C84	C	1.434743	0.196488	0.513076
N85	N	0.939057	-0.276526	-0.065862
N86	N	1.439057	0.223474	0.434138
C87	C	0.942378	-0.308941	-0.144734
C88	C	1.442378	0.191059	0.355266
C89	C	0.928660	-0.665844	0.013475
C90	C	1.428660	-0.165844	0.513475
C91	C	0.927673	-0.725243	0.013541
C92	C	1.427673	-0.225243	0.513541
C93	C	0.935309	-0.730673	-0.144276
C94	C	1.435309	-0.230673	0.355724
C95	C	0.936303	-0.671273	-0.144342
C96	C	1.436303	-0.171273	0.355658
C97	C	0.932975	-0.638859	-0.065463
C98	C	1.432975	-0.138859	0.434537
C99	C	0.944479	-0.184204	-0.144865
C100	C	1.444479	0.315796	0.355135
C101	C	0.945483	-0.124803	-0.144923
C102	C	1.445483	0.375197	0.355077
C103	C	0.937842	-0.119378	0.012894
C104	C	1.437842	0.380622	0.512894
C105	C	0.936843	-0.178775	0.012953
C106	C	1.436843	0.321225	0.512953
C107	C	0.940159	-0.211186	-0.065934
C108	C	1.440159	0.288814	0.434066
O109	O	0.932037	-0.270439	0.080109
O110	O	1.432037	0.229561	0.580109
O111	O	0.946129	-0.280525	-0.211871
O112	O	1.446129	0.219475	0.288129
C113	C	1.081661	0.070357	-0.075861
C114	C	1.581661	0.570357	0.424139
C115	C	1.169727	0.071202	-0.082042
C116	C	1.669727	0.571202	0.417958
C117	C	0.929938	0.179118	-0.065244
C118	C	1.429938	0.679118	0.434756
C119	C	0.930989	0.242337	-0.065332
C120	C	1.430989	0.742337	0.434668
N121	N	0.926611	0.082092	0.140309
N122	N	1.426611	0.582092	0.640309
N123	N	0.946546	0.067853	-0.271684
N124	N	1.446546	0.567853	0.228316
C125	C	0.978679	0.044794	0.182060
C126	C	1.478679	0.544794	0.682060
C127	C	0.974283	0.047946	0.273175
C128	C	1.474283	0.547946	0.773175
C129	C	0.917823	0.088398	0.322538
C130	C	1.417823	0.588398	0.822538
C131	C	0.865750	0.125697	0.280781
C132	C	1.365750	0.625697	0.780781
C133	C	0.870142	0.122542	0.189667
C134	C	1.370142	0.622542	0.689667
C135	C	0.898865	0.101997	0.595446
C136	C	1.398865	0.601997	1.095446
C137	C	0.894478	0.105150	0.686565
C138	C	1.394478	0.605150	1.186565
C139	C	1.003011	0.027398	0.678954
C140	C	1.503011	0.527398	1.178954
C141	C	1.007402	0.024249	0.587839
C142	C	1.507402	0.524249	1.087839
C143	C	0.955326	0.061547	0.546090
C144	C	1.455326	0.561547	1.046090
N145	N	0.913331	0.091621	0.415672
N146	N	1.413331	0.591621	0.915672
N147	N	0.959815	0.058320	0.452957
N148	N	1.459815	0.558320	0.952957
H149	H	0.702646	0.073723	-0.191958
H150	H	1.202646	0.573723	0.308042
H151	H	0.538698	0.082202	0.104907
H152	H	1.038698	0.582202	0.604907
C153	C	0.173597	0.065441	-0.247458
C154	C	0.673597	0.565441	0.252542
H155	H	0.212359	0.064163	-0.297015
H156	H	0.712359	0.564163	0.202985
H157	H	0.135162	0.098232	-0.248029
H158	H	0.635162	0.598232	0.251971
H159	H	0.147790	0.031808	-0.248914
H160	H	0.647790	0.531808	0.251086
H161	H	0.948223	-0.378793	-0.287825
H162	H	1.448223	0.121207	0.212175
C163	C	0.947368	-0.495800	-0.310244
C164	C	1.447368	0.004200	0.189756
H165	H	0.950090	-0.471216	-0.357258
H166	H	1.450090	0.028784	0.142742
H167	H	0.900872	-0.514597	-0.310273
H168	H	1.400872	-0.014597	0.189727
H169	H	0.993421	-0.523573	-0.316743
H170	H	1.493421	-0.023573	0.183257
C171	C	0.699563	0.084507	0.116074
C172	C	1.199563	0.584507	0.616074
H173	H	0.660804	0.085775	0.165632
H174	H	1.160804	0.585775	0.665632
H175	H	0.725375	0.118135	0.117531
H176	H	1.225375	0.618135	0.617531
H177	H	0.737995	0.051710	0.116639
H178	H	1.237995	0.551710	0.616639
C179	C	0.347360	0.067098	-0.259661
C180	C	0.847360	0.567098	0.240339
H181	H	0.402022	0.068012	-0.252240
H182	H	0.902022	0.568012	0.247760
H183	H	0.329045	0.099061	-0.290687
H184	H	0.829045	0.599061	0.209313
H185	H	0.341685	0.032636	-0.291572
H186	H	0.841685	0.532636	0.208428
H187	H	1.024658	0.011857	0.141875
H188	H	1.524658	0.511857	0.641875
H189	H	0.949005	-0.102838	-0.209211
H190	H	1.449005	0.397162	0.290789
C191	C	1.069541	-0.020222	0.533540
C192	C	1.569541	0.479778	1.033540
H193	H	1.064715	-0.016746	0.473295
H194	H	1.564715	0.483254	0.973295
H195	H	1.060559	-0.057704	0.549044
H196	H	1.560559	0.442296	1.049044
H197	H	1.121704	-0.013632	0.544771
H198	H	1.621704	0.486368	1.044771
C199	C	0.541800	0.071394	-0.203119
C200	C	1.041800	0.571394	0.296881
H201	H	0.580564	0.070106	-0.252676
H202	H	1.080564	0.570106	0.247324
H203	H	0.503360	0.104179	-0.203712
H204	H	1.003360	0.604179	0.296288
H205	H	0.516001	0.037756	-0.204552
H206	H	1.016001	0.537756	0.295448
C207	C	0.941050	-0.641598	-0.231178
C208	C	1.441050	-0.141598	0.268822
H209	H	0.942881	-0.669415	-0.278138
H210	H	1.442881	-0.169415	0.221862
H211	H	0.987866	-0.623029	-0.237733
H212	H	1.487866	-0.123029	0.262267
H213	H	0.895316	-0.614050	-0.231243
H214	H	1.395316	-0.114050	0.268757
C215	C	0.922924	-0.754920	0.100376
C216	C	1.422924	-0.254920	0.600376
H217	H	0.922809	-0.794940	0.089127
H218	H	1.422809	-0.294940	0.589127
H219	H	0.875247	-0.739572	0.136028
H220	H	1.375247	-0.239572	0.636028
H221	H	0.967796	-0.748562	0.129541
H222	H	1.467796	-0.248562	0.629541
H223	H	0.827742	0.152913	0.155674
H224	H	1.327742	0.652913	0.655674
H225	H	1.016681	0.017575	0.307169
H226	H	1.516681	0.517575	0.807169
H227	H	0.170498	0.076240	0.060580
H228	H	0.670498	0.576240	0.560580
H229	H	0.320613	0.077656	0.050032
H230	H	0.820613	0.577656	0.550032
H231	H	0.926682	-0.363487	0.156318
H232	H	1.426682	0.136513	0.656318
H233	H	1.045408	-0.002968	0.712954
H234	H	1.545408	0.497032	1.212954
C235	C	0.934184	-0.083717	0.099650
C236	C	1.434184	0.416283	0.599650
H237	H	0.931471	-0.108290	0.146678
H238	H	1.431471	0.391710	0.646678
H239	H	0.888141	-0.055940	0.106137
H240	H	1.388141	0.444060	0.606137
H241	H	0.980690	-0.064925	0.099662
H242	H	1.480690	0.435075	0.599662
H243	H	0.856464	0.132367	0.561461
H244	H	1.356464	0.632367	1.061461
H245	H	0.938011	-0.757076	-0.208498
H246	H	1.438011	-0.257076	0.291502
H247	H	0.925952	-0.639456	0.077711
H248	H	1.425952	-0.139456	0.577711
H249	H	0.924892	-0.471239	0.156440
H250	H	1.424892	0.028761	0.656440
C251	C	0.803647	0.170194	0.335076
C252	C	1.303647	0.670194	0.835076
H253	H	0.808493	0.166736	0.395320
H254	H	1.308493	0.666736	0.895320
H255	H	0.751468	0.163639	0.323871
H256	H	1.251468	0.663639	0.823871
H257	H	0.812678	0.207665	0.319541
H258	H	1.312678	0.707665	0.819541
C259	C	0.832328	0.149619	0.740865
C260	C	1.332328	0.649619	1.240865
H261	H	0.801925	0.171369	0.702954
H262	H	1.301925	0.671369	1.202954
H263	H	0.858916	0.174493	0.774430
H264	H	1.358916	0.674493	1.274430
H265	H	0.797778	0.130416	0.778705
H266	H	1.297778	0.630416	1.278705
C267	C	0.948149	-0.219851	-0.231639
C268	C	1.448149	0.280149	0.268361
H269	H	0.950878	-0.195269	-0.278655
H270	H	1.450878	0.304731	0.221345
H271	H	0.901654	-0.238649	-0.231673
H272	H	1.401654	0.261351	0.268327
H273	H	0.994202	-0.247624	-0.238128
H274	H	1.494202	0.252376	0.261872
C275	C	0.932090	-0.208456	0.099788
C276	C	1.432090	0.291544	0.599788
H277	H	0.930252	-0.180641	0.146751
H278	H	1.430252	0.319359	0.646751
H279	H	0.977807	-0.236013	0.099856
H280	H	1.477807	0.263987	0.599856
H281	H	0.885259	-0.227014	0.106334
H282	H	1.385259	0.272986	0.606334
