data_functionalizedCrystal
_audit_creation_method	'MofGen! by Chris Wilmer'
_symmetry_space_group_name_H-M	'P1'
_symmetry_Int_Tables_number	1
_symmetry_cell_setting	triclinic
loop_
_symmetry_equiv_pos_as_xyz
  x,y,z
_cell_length_a	16.120490
_cell_length_b	16.120444
_cell_length_c	16.120297
_cell_angle_alpha	84.384883
_cell_angle_beta	89.870317
_cell_angle_gamma	90.165174
loop_
_atom_site_label
_atom_site_type_symbol
_atom_site_fract_x
_atom_site_fract_y
_atom_site_fract_z
Zn1	Zn	1.224982	-0.422332	0.554792
Zn2	Zn	1.474982	-0.172332	0.804792
Zn3	Zn	1.724982	0.077668	1.054792
Zn4	Zn	1.974982	0.327668	1.304792
Zn5	Zn	1.224875	-0.555017	0.422098
Zn6	Zn	1.474875	-0.305017	0.672098
Zn7	Zn	1.724875	-0.055017	0.922098
Zn8	Zn	1.974875	0.194983	1.172098
Zn9	Zn	1.093721	-0.408241	0.408037
Zn10	Zn	1.343721	-0.158241	0.658037
Zn11	Zn	1.593721	0.091759	0.908037
Zn12	Zn	1.843721	0.341759	1.158037
Zn13	Zn	1.078872	-0.554241	0.554034
Zn14	Zn	1.328872	-0.304241	0.804034
Zn15	Zn	1.578872	-0.054241	1.054034
Zn16	Zn	1.828872	0.195759	1.304034
O17	O	1.155613	-0.484958	0.484740
O18	O	1.405613	-0.234958	0.734740
O19	O	1.655613	0.015042	0.984740
O20	O	1.905613	0.265042	1.234740
O21	O	1.341004	-0.446155	0.543392
O22	O	1.591004	-0.196155	0.793392
O23	O	1.841004	0.053845	1.043392
O24	O	2.091004	0.303845	1.293392
O25	O	1.213647	-0.529974	0.303600
O26	O	1.463647	-0.279974	0.553600
O27	O	1.713647	-0.029974	0.803600
O28	O	1.963647	0.220026	1.053600
O29	O	1.117393	-0.293479	0.421937
O30	O	1.367393	-0.043479	0.671937
O31	O	1.617393	0.206521	0.921937
O32	O	1.867393	0.456521	1.171937
O33	O	1.340925	-0.543638	0.445902
O34	O	1.590925	-0.293638	0.695902
O35	O	1.840925	-0.043638	0.945902
O36	O	2.090925	0.206362	1.195902
O37	O	1.213829	-0.303832	0.529757
O38	O	1.463829	-0.053832	0.779757
O39	O	1.713829	0.196168	1.029757
O40	O	1.963829	0.446168	1.279757
O41	O	1.117289	-0.422138	0.293270
O42	O	1.367289	-0.172138	0.543270
O43	O	1.617289	0.077862	0.793270
O44	O	1.867289	0.327862	1.043270
O45	O	0.975716	-0.421386	0.421202
O46	O	1.225716	-0.171386	0.671202
O47	O	1.475716	0.078614	0.921202
O48	O	1.725716	0.328614	1.171202
O49	O	1.092084	-0.542316	0.670767
O50	O	1.342084	-0.292316	0.920767
O51	O	1.592084	-0.042316	1.170767
O52	O	1.842084	0.207684	1.420767
O53	O	0.964806	-0.528652	0.528465
O54	O	1.214806	-0.278652	0.778465
O55	O	1.464806	-0.028652	1.028465
O56	O	1.714806	0.221348	1.278465
O57	O	1.199431	-0.445403	0.671324
O58	O	1.449431	-0.195403	0.921324
O59	O	1.699431	0.054597	1.171324
O60	O	1.949431	0.304597	1.421324
O61	O	1.199248	-0.671545	0.445167
O62	O	1.449248	-0.421545	0.695167
O63	O	1.699248	-0.171545	0.945167
O64	O	1.949248	0.078455	1.195167
O65	O	1.091980	-0.670975	0.542100
O66	O	1.341980	-0.420975	0.792100
O67	O	1.591980	-0.170975	1.042100
O68	O	1.841980	0.079025	1.292100
C69	C	0.940174	-0.473407	0.473226
C70	C	1.190174	-0.223407	0.723226
C71	C	1.440174	0.026593	0.973226
C72	C	1.690174	0.276593	1.223226
C73	C	0.848006	-0.468486	0.468321
C74	C	1.098006	-0.218486	0.718321
C75	C	1.348006	0.031514	0.968321
C76	C	1.598006	0.281514	1.218321
C77	C	1.144013	-0.701503	0.495097
C78	C	1.394013	-0.451503	0.745097
C79	C	1.644013	-0.201503	0.995097
C80	C	1.894013	0.048497	1.245097
C81	C	1.139125	-0.794147	0.499559
C82	C	1.389125	-0.544147	0.749559
C83	C	1.639125	-0.294147	0.999559
C84	C	1.889125	-0.044147	1.249559
C85	C	0.632811	-0.510476	0.510185
C86	C	0.882811	-0.260476	0.760185
C87	C	1.132811	-0.010476	1.010185
C88	C	1.382811	0.239524	1.260185
C89	C	0.679259	-0.459510	0.459365
C90	C	0.929259	-0.209510	0.709365
C91	C	1.179259	0.040490	0.959365
C92	C	1.429259	0.290490	1.209365
C93	C	0.773158	-0.464506	0.464350
C94	C	1.023158	-0.214506	0.714350
C95	C	1.273158	0.035494	0.964350
C96	C	1.523158	0.285494	1.214350
C97	C	0.538902	-0.505481	0.505201
C98	C	0.788902	-0.255481	0.755201
C99	C	1.038902	-0.005481	1.005201
C100	C	1.288902	0.244519	1.255201
C101	C	1.181163	-1.005308	0.461782
C102	C	1.431163	-0.755308	0.711782
C103	C	1.681163	-0.505308	0.961782
C104	C	1.931163	-0.255308	1.211782
C105	C	1.130215	-0.963765	0.507716
C106	C	1.380215	-0.713765	0.757716
C107	C	1.630215	-0.463765	1.007716
C108	C	1.880215	-0.213765	1.257716
C109	C	1.135174	-0.869381	0.503176
C110	C	1.385174	-0.619381	0.753176
C111	C	1.635174	-0.369381	1.003176
C112	C	1.885174	-0.119381	1.253176
C113	C	1.176206	-1.099701	0.466320
C114	C	1.426206	-0.849701	0.716320
C115	C	1.676206	-0.599701	0.966320
C116	C	1.926206	-0.349701	1.216320
C117	C	1.371893	-0.496555	0.496300
C118	C	1.621893	-0.246555	0.746300
C119	C	1.871893	0.003445	0.996300
C120	C	2.121893	0.253445	1.246300
C121	C	1.464058	-0.501497	0.501226
C122	C	1.714058	-0.251497	0.751226
C123	C	1.964058	-0.001497	1.001226
C124	C	2.214058	0.248503	1.251226
C125	C	1.144113	-0.495345	0.702133
C126	C	1.394113	-0.245345	0.952133
C127	C	1.644113	0.004655	1.202133
C128	C	1.894113	0.254655	1.452133
C129	C	1.139212	-0.499771	0.794773
C130	C	1.389212	-0.249771	1.044773
C131	C	1.639212	0.000229	1.294773
C132	C	1.889212	0.250229	1.544773
C133	C	1.167279	-0.267569	0.474363
C134	C	1.417279	-0.017569	0.724363
C135	C	1.667279	0.232431	0.974363
C136	C	1.917279	0.482431	1.224363
C137	C	1.172251	-0.174931	0.469941
C138	C	1.422251	0.075069	0.719941
C139	C	1.672251	0.325069	0.969941
C140	C	1.922251	0.575069	1.219941
C141	C	1.167119	-0.474554	0.268193
C142	C	1.417119	-0.224554	0.518193
C143	C	1.667119	0.025446	0.768193
C144	C	1.917119	0.275446	1.018193
C145	C	1.172192	-0.469901	0.175551
C146	C	1.422192	-0.219901	0.425551
C147	C	1.672192	0.030099	0.675551
C148	C	1.922192	0.280099	0.925551
C149	C	1.130236	-0.507833	0.964384
C150	C	1.380236	-0.257833	1.214384
C151	C	1.630236	-0.007833	1.464384
C152	C	1.880236	0.242167	1.714384
C153	C	1.181166	-0.461842	1.005945
C154	C	1.431166	-0.211842	1.255945
C155	C	1.681166	0.038158	1.505945
C156	C	1.931166	0.288158	1.755945
C157	C	1.176172	-0.466327	1.100323
C158	C	1.426172	-0.216327	1.350323
C159	C	1.676172	0.033673	1.600323
C160	C	1.926172	0.283673	1.850323
C161	C	1.135229	-0.503348	0.869998
C162	C	1.385229	-0.253348	1.119998
C163	C	1.635229	-0.003348	1.369998
C164	C	1.885229	0.246652	1.619998
H165	H	0.648504	-0.412124	0.412113
H166	H	0.898504	-0.162124	0.662113
H167	H	1.148504	0.087876	0.912113
H168	H	1.398504	0.337876	1.162113
H169	H	1.228519	-0.419099	0.970646
H170	H	1.478519	-0.169099	1.220646
H171	H	1.728519	0.080901	1.470646
H172	H	1.978519	0.330901	1.720646
H173	H	1.082873	-0.999085	0.550451
H174	H	1.332873	-0.749085	0.800451
H175	H	1.582873	-0.499085	1.050451
H176	H	1.832873	-0.249085	1.300451
H177	H	1.228501	-0.969992	0.419049
H178	H	1.478501	-0.719992	0.669049
H179	H	1.728501	-0.469992	0.919049
H180	H	1.978501	-0.219992	1.169049
H181	H	0.663564	-0.557858	0.557433
H182	H	0.913564	-0.307858	0.807433
H183	H	1.163564	-0.057858	1.057433
H184	H	1.413564	0.192142	1.307433
Cl185	Cl	1.057133	-0.573824	1.018880
Cl186	Cl	1.307133	-0.323824	1.268880
Cl187	Cl	1.557133	-0.073824	1.518880
Cl188	Cl	1.807133	0.176176	1.768880
