data_functionalizedCrystal
_audit_creation_method	'MofGen! by Chris Wilmer'
_symmetry_space_group_name_H-M	'P1'
_symmetry_Int_Tables_number	1
_symmetry_cell_setting	triclinic
loop_
_symmetry_equiv_pos_as_xyz
  x,y,z
_cell_length_a	21.295417
_cell_length_b	10.686154
_cell_length_c	10.685880
_cell_angle_alpha	90.360073
_cell_angle_beta	94.332822
_cell_angle_gamma	85.590079
loop_
_atom_site_label
_atom_site_type_symbol
_atom_site_fract_x
_atom_site_fract_y
_atom_site_fract_z
Zn1	Zn	-0.196553	-1.972150	-0.562391
Zn2	Zn	-0.294441	-1.955878	-0.352615
Zn3	Zn	-0.197831	-1.746278	-0.368706
Zn4	Zn	-0.310436	-1.762286	-0.578377
O5	O	-0.249815	-1.859148	-0.465522
O6	O	-0.202310	-2.145539	-0.521139
O7	O	-0.275465	-1.914565	-0.179209
O8	O	-0.109569	-1.776352	-0.394442
O9	O	-0.274227	-2.133584	-0.367018
O10	O	-0.108631	-1.942299	-0.536742
O11	O	-0.204486	-1.760573	-0.191031
O12	O	-0.219997	-1.572855	-0.409943
O13	O	-0.301489	-1.803634	-0.751796
O14	O	-0.302728	-1.584615	-0.563988
O15	O	-0.217820	-1.957820	-0.740051
O16	O	-0.384655	-1.930087	-0.382519
O17	O	-0.396406	-1.787855	-0.548385
C18	C	-0.263237	-1.533218	-0.490447
C19	C	-0.268995	-1.393785	-0.501140
C20	C	-0.413371	-1.858978	-0.465465
C21	C	-0.483338	-1.859024	-0.465474
C22	C	-0.510064	-1.933161	-0.379184
C23	C	-0.575806	-1.933222	-0.379208
C24	C	-0.614818	-1.859122	-0.465510
C25	C	-0.588084	-1.784980	-0.551816
C26	C	-0.522344	-1.784931	-0.551798
N27	N	-0.722944	-1.750116	-0.483465
N28	N	-0.785394	-1.750166	-0.483475
C29	C	-0.812889	-1.859268	-0.465571
N30	N	-0.775575	-1.968320	-0.447633
N31	N	-0.713119	-1.968268	-0.447617
C32	C	-0.686103	-1.859168	-0.465540
C33	C	-0.910899	-1.933478	-0.379302
C34	C	-0.976642	-1.933542	-0.379335
C35	C	-0.988920	-1.785288	-0.551937
C36	C	-0.923178	-1.785236	-0.551910
C37	C	-0.884172	-1.859329	-0.465586
C38	C	-0.085620	-1.859355	-0.465604
C39	C	-0.015650	-1.859443	-0.465639
C40	C	-0.261296	-1.884328	-0.792712
C41	C	-0.266189	-1.895058	-0.932141
C42	C	-0.236335	-1.186351	-0.440492
C43	C	-0.230575	-1.325783	-0.429805
C44	C	-0.238330	-1.834138	-0.139599
C45	C	-0.233251	-1.823651	-0.000153
H46	H	-0.193276	-1.374234	-0.360552
Cl47	Cl	-0.609413	-2.026428	-0.270719
H48	H	-0.201309	-1.754298	-0.951714
Cl49	Cl	-0.315515	-2.002130	-1.006928
H50	H	-0.500584	-1.724558	-0.622067
Cl51	Cl	-0.461031	-2.026326	-0.270680
Cl52	Cl	-0.637128	-1.691832	-0.660315
Cl53	Cl	-0.326592	-1.318981	-0.608058
H54	H	-0.879139	-1.993813	-0.309016
Cl55	Cl	-1.010241	-2.026762	-0.270854
Cl56	Cl	-0.889577	-1.692023	-0.660390
Cl57	Cl	-1.037958	-1.692142	-0.660440
