data_functionalizedCrystal
_audit_creation_method	'MofGen! by Chris Wilmer'
_symmetry_space_group_name_H-M	'P1'
_symmetry_Int_Tables_number	1
_symmetry_cell_setting	triclinic
loop_
_symmetry_equiv_pos_as_xyz
  x,y,z
_cell_length_a	13.897449
_cell_length_b	25.639239
_cell_length_c	13.897441
_cell_angle_alpha	90.034305
_cell_angle_beta	90.020733
_cell_angle_gamma	90.039966
loop_
_atom_site_label
_atom_site_type_symbol
_atom_site_fract_x
_atom_site_fract_y
_atom_site_fract_z
Zn1	Zn	1.474562	-0.208116	0.545356
Zn2	Zn	1.724562	0.041884	0.795356
Zn3	Zn	1.974562	0.291884	1.045356
Zn4	Zn	2.224562	0.541884	1.295356
Zn5	Zn	1.474397	-0.295559	0.384047
Zn6	Zn	1.724397	-0.045559	0.634047
Zn7	Zn	1.974397	0.204441	0.884047
Zn8	Zn	2.224397	0.454441	1.134047
Zn9	Zn	1.313251	-0.208141	0.384075
Zn10	Zn	1.563251	0.041859	0.634075
Zn11	Zn	1.813251	0.291859	0.884075
Zn12	Zn	2.063251	0.541859	1.134075
Zn13	Zn	1.313174	-0.295524	0.545300
Zn14	Zn	1.563174	-0.045524	0.795300
Zn15	Zn	1.813174	0.204476	1.045300
Zn16	Zn	2.063174	0.454476	1.295300
O17	O	1.393846	-0.251835	0.464695
O18	O	1.643846	-0.001835	0.714695
O19	O	1.893846	0.248165	0.964695
O20	O	2.143846	0.498165	1.214695
O21	O	1.609522	-0.219720	0.523970
O22	O	1.859522	0.030280	0.773970
O23	O	2.109522	0.280280	1.023970
O24	O	2.359522	0.530280	1.273970
O25	O	1.452984	-0.283987	0.249069
O26	O	1.702984	-0.033987	0.499069
O27	O	1.952984	0.216013	0.749069
O28	O	2.202984	0.466013	0.999069
O29	O	1.334751	-0.134973	0.405504
O30	O	1.584751	0.115027	0.655504
O31	O	1.834751	0.365027	0.905504
O32	O	2.084751	0.615027	1.155504
O33	O	1.609400	-0.283963	0.405457
O34	O	1.859400	-0.033963	0.655457
O35	O	2.109400	0.216037	0.905457
O36	O	2.359400	0.466037	1.155457
O37	O	1.453265	-0.134954	0.523997
O38	O	1.703265	0.115046	0.773997
O39	O	1.953265	0.365046	1.023997
O40	O	2.203265	0.615046	1.273997
O41	O	1.334591	-0.219762	0.249089
O42	O	1.584591	0.030238	0.499089
O43	O	1.834591	0.280238	0.749089
O44	O	2.084591	0.530238	0.999089
O45	O	1.178259	-0.219729	0.405449
O46	O	1.428259	0.030271	0.655449
O47	O	1.678259	0.280271	0.905449
O48	O	1.928259	0.530271	1.155449
O49	O	1.334619	-0.283905	0.680289
O50	O	1.584619	-0.033905	0.930289
O51	O	1.834619	0.216095	1.180289
O52	O	2.084619	0.466095	1.430289
O53	O	1.178202	-0.283929	0.523901
O54	O	1.428202	-0.033929	0.773901
O55	O	1.678202	0.216071	1.023901
O56	O	1.928202	0.466071	1.273901
O57	O	1.453190	-0.219686	0.680331
O58	O	1.703190	0.030314	0.930331
O59	O	1.953190	0.280314	1.180331
O60	O	2.203190	0.530314	1.430331
O61	O	1.452909	-0.368719	0.405403
O62	O	1.702909	-0.118719	0.655403
O63	O	1.952909	0.131281	0.905403
O64	O	2.202909	0.381281	1.155403
O65	O	1.334459	-0.368694	0.523874
O66	O	1.584459	-0.118694	0.773874
O67	O	1.834459	0.131306	1.023874
O68	O	2.084459	0.381306	1.273874
C69	C	1.143232	-0.251828	0.464673
C70	C	1.393232	-0.001828	0.714673
C71	C	1.643232	0.248172	0.964673
C72	C	1.893232	0.498172	1.214673
C73	C	1.036018	-0.251838	0.464686
C74	C	1.286018	-0.001838	0.714686
C75	C	1.536018	0.248162	0.964686
C76	C	1.786018	0.498162	1.214686
C77	C	0.839722	-0.251840	0.464711
C78	C	1.089722	-0.001840	0.714711
C79	C	1.339722	0.248160	0.964711
C80	C	1.589722	0.498160	1.214711
C81	C	0.948955	-0.251837	0.464695
C82	C	1.198955	-0.001837	0.714695
C83	C	1.448955	0.248163	0.964695
C84	C	1.698955	0.498163	1.214695
C85	C	1.393684	-0.387678	0.464650
C86	C	1.643684	-0.137678	0.714650
C87	C	1.893684	0.112322	0.964650
C88	C	2.143684	0.362322	1.214650
C89	C	1.393702	-0.445792	0.464664
C90	C	1.643702	-0.195792	0.714664
C91	C	1.893702	0.054208	0.964664
C92	C	2.143702	0.304208	1.214664
C93	C	1.455684	-0.806155	0.403111
C94	C	1.705684	-0.556155	0.653111
C95	C	1.955684	-0.306155	0.903111
C96	C	2.205684	-0.056155	1.153111
C97	C	1.455721	-0.860760	0.403124
C98	C	1.705721	-0.610760	0.653124
C99	C	1.955721	-0.360760	0.903124
C100	C	2.205721	-0.110760	1.153124
O101	O	1.508251	-0.888997	0.350742
O102	O	1.758251	-0.638997	0.600742
O103	O	2.008251	-0.388997	0.850742
O104	O	2.258251	-0.138997	1.100742
N105	N	1.394015	-0.888074	0.464758
N106	N	1.644015	-0.638074	0.714758
N107	N	1.894015	-0.388074	0.964758
N108	N	2.144015	-0.138074	1.214758
C109	C	1.332275	-0.860782	0.526391
C110	C	1.582275	-0.610782	0.776391
C111	C	1.832275	-0.360782	1.026391
C112	C	2.082275	-0.110782	1.276391
O113	O	1.279794	-0.889029	0.578817
O114	O	1.529794	-0.639029	0.828817
O115	O	1.779794	-0.389029	1.078817
O116	O	2.029794	-0.139029	1.328817
C117	C	1.332243	-0.806178	0.526382
C118	C	1.582243	-0.556178	0.776382
C119	C	1.832243	-0.306178	1.026382
C120	C	2.082243	-0.056178	1.276382
C121	C	1.393946	-0.778867	0.464737
C122	C	1.643946	-0.528867	0.714737
C123	C	1.893946	-0.278867	0.964737
C124	C	2.143946	-0.028867	1.214737
C125	C	1.517382	-0.778844	0.341472
C126	C	1.767382	-0.528844	0.591472
C127	C	2.017382	-0.278844	0.841472
C128	C	2.267382	-0.028844	1.091472
C129	C	1.517343	-0.724243	0.341458
C130	C	1.767343	-0.474243	0.591458
C131	C	2.017343	-0.224243	0.841458
C132	C	2.267343	0.025757	1.091458
C133	C	1.455606	-0.696954	0.403084
C134	C	1.705606	-0.446954	0.653084
C135	C	1.955606	-0.196954	0.903084
C136	C	2.205606	0.053046	1.153084
C137	C	1.393907	-0.724266	0.464723
C138	C	1.643907	-0.474266	0.714723
C139	C	1.893907	-0.224266	0.964723
C140	C	2.143907	0.025734	1.214723
C141	C	1.270509	-0.778887	0.588018
C142	C	1.520509	-0.528887	0.838018
C143	C	1.770509	-0.278887	1.088018
C144	C	2.020509	-0.028887	1.338018
C145	C	1.270483	-0.724280	0.588004
C146	C	1.520483	-0.474280	0.838004
C147	C	1.770483	-0.224280	1.088004
C148	C	2.020483	0.025720	1.338004
C149	C	1.332186	-0.696968	0.526359
C150	C	1.582186	-0.446968	0.776359
C151	C	1.832186	-0.196968	1.026359
C152	C	2.082186	0.053032	1.276359
C153	C	1.332131	-0.642377	0.526334
C154	C	1.582131	-0.392377	0.776334
C155	C	1.832131	-0.142377	1.026334
C156	C	2.082131	0.107623	1.276334
N157	N	1.393837	-0.615062	0.464700
N158	N	1.643837	-0.365062	0.714700
N159	N	1.893837	-0.115062	0.964700
N160	N	2.143837	0.134938	1.214700
C161	C	1.455574	-0.642351	0.403075
C162	C	1.705574	-0.392351	0.653075
C163	C	1.955574	-0.142351	0.903075
C164	C	2.205574	0.107649	1.153075
C165	C	1.332348	-0.975452	0.526405
C166	C	1.582348	-0.725452	0.776405
C167	C	1.832348	-0.475452	1.026405
C168	C	2.082348	-0.225452	1.276405
C169	C	1.332374	-1.030055	0.526410
C170	C	1.582374	-0.780055	0.776410
C171	C	1.832374	-0.530055	1.026410
C172	C	2.082374	-0.280055	1.276410
C173	C	1.455821	-1.030029	0.403145
C174	C	1.705821	-0.780029	0.653145
C175	C	1.955821	-0.530029	0.903145
C176	C	2.205821	-0.280029	1.153145
C177	C	1.455790	-0.975426	0.403136
C178	C	1.705790	-0.725426	0.653136
C179	C	1.955790	-0.475426	0.903136
C180	C	2.205790	-0.225426	1.153136
C181	C	1.394054	-0.948138	0.464771
C182	C	1.644054	-0.698138	0.714771
C183	C	1.894054	-0.448138	0.964771
C184	C	2.144054	-0.198138	1.214771
C185	C	1.455487	-0.527686	0.403050
C186	C	1.705487	-0.277686	0.653050
C187	C	1.955487	-0.027686	0.903050
C188	C	2.205487	0.222314	1.153050
C189	C	1.455440	-0.473081	0.403038
C190	C	1.705440	-0.223081	0.653038
C191	C	1.955440	0.026919	0.903038
C192	C	2.205440	0.276919	1.153038
C193	C	1.331997	-0.473111	0.526307
C194	C	1.581997	-0.223111	0.776307
C195	C	1.831997	0.026889	1.026307
C196	C	2.081997	0.276889	1.276307
C197	C	1.332040	-0.527712	0.526315
C198	C	1.582040	-0.277712	0.776315
C199	C	1.832040	-0.027712	1.026315
C200	C	2.082040	0.222288	1.276315
C201	C	1.393793	-0.554998	0.464683
C202	C	1.643793	-0.304998	0.714683
C203	C	1.893793	-0.054998	0.964683
C204	C	2.143793	0.195002	1.214683
O205	O	1.279630	-0.614105	0.578693
O206	O	1.529630	-0.364105	0.828693
O207	O	1.779630	-0.114105	1.078693
O208	O	2.029630	0.135895	1.328693
O209	O	1.508056	-0.614097	0.350666
O210	O	1.758056	-0.364097	0.600666
O211	O	2.008056	-0.114097	0.850666
O212	O	2.258056	0.135903	1.100666
C213	C	1.645439	-0.251843	0.464717
C214	C	1.895439	-0.001843	0.714717
C215	C	2.145439	0.248157	0.964717
C216	C	2.395439	0.498157	1.214717
C217	C	1.752653	-0.251846	0.464727
C218	C	2.002653	-0.001846	0.714727
C219	C	2.252653	0.248154	0.964727
C220	C	2.502653	0.498154	1.214727
C221	C	1.393914	-0.251789	0.716288
C222	C	1.643914	-0.001789	0.966288
C223	C	1.893914	0.248211	1.216288
C224	C	2.143914	0.498211	1.466288
C225	C	1.393943	-0.251769	0.823502
C226	C	1.643943	-0.001769	1.073502
C227	C	1.893943	0.248231	1.323502
C228	C	2.143943	0.498231	1.573502
C229	C	1.394035	-0.115462	0.464760
C230	C	1.644035	0.134538	0.714760
C231	C	1.894035	0.384538	0.964760
C232	C	2.144035	0.634538	1.214760
C233	C	1.394116	-0.057348	0.464788
C234	C	1.644116	0.192652	0.714788
C235	C	1.894116	0.442652	0.964788
C236	C	2.144116	0.692652	1.214788
C237	C	1.393833	-0.251843	0.214080
C238	C	1.643833	-0.001843	0.464080
C239	C	1.893833	0.248157	0.714080
C240	C	2.143833	0.498157	0.964080
C241	C	1.393991	-0.251716	0.106867
C242	C	1.643991	-0.001716	0.356867
C243	C	1.893991	0.248284	0.606867
C244	C	2.143991	0.498284	0.856867
C245	C	1.393970	-0.251734	1.019797
C246	C	1.643970	-0.001734	1.269797
C247	C	1.893970	0.248266	1.519797
C248	C	2.143970	0.498266	1.769797
C249	C	1.393952	-0.251755	0.910564
C250	C	1.643952	-0.001755	1.160564
C251	C	1.893952	0.248245	1.410564
C252	C	2.143952	0.498245	1.660564
H253	H	1.505686	-0.450845	0.352836
H254	H	1.755686	-0.200845	0.602836
H255	H	2.005686	0.049155	0.852836
H256	H	2.255686	0.299155	1.102836
H257	H	1.220259	-0.801115	0.638212
H258	H	1.470259	-0.551115	0.888212
H259	H	1.720259	-0.301115	1.138212
H260	H	1.970259	-0.051115	1.388212
H261	H	1.567662	-0.801056	0.291289
H262	H	1.817662	-0.551056	0.541289
H263	H	2.067662	-0.301056	0.791289
H264	H	2.317662	-0.051056	1.041289
H265	H	1.282067	-0.953237	0.576593
H266	H	1.532067	-0.703237	0.826593
H267	H	1.782067	-0.453237	1.076593
H268	H	2.032067	-0.203237	1.326593
H269	H	1.506034	-0.953192	0.352940
H270	H	1.756034	-0.703192	0.602940
H271	H	2.006034	-0.453192	0.852940
H272	H	2.256034	-0.203192	1.102940
H273	H	1.505774	-0.549896	0.352865
H274	H	1.755774	-0.299896	0.602865
H275	H	2.005774	-0.049896	0.852865
H276	H	2.255774	0.200104	1.102865
H277	H	1.282120	-1.052287	0.576599
H278	H	1.532120	-0.802287	0.826599
H279	H	1.782120	-0.552287	1.076599
H280	H	2.032120	-0.302287	1.326599
H281	H	1.281728	-0.450884	0.576479
H282	H	1.531728	-0.200884	0.826479
H283	H	1.781728	0.049116	1.076479
H284	H	2.031728	0.299116	1.326479
H285	H	1.567590	-0.702009	0.291265
H286	H	1.817590	-0.452009	0.541265
H287	H	2.067590	-0.202009	0.791265
H288	H	2.317590	0.047991	1.041265
H289	H	1.506095	-1.052257	0.352969
H290	H	1.756095	-0.802257	0.602969
H291	H	2.006095	-0.552257	0.852969
H292	H	2.256095	-0.302257	1.102969
H293	H	1.220211	-0.702064	0.638198
H294	H	1.470211	-0.452064	0.888198
H295	H	1.720211	-0.202064	1.138198
H296	H	1.970211	0.047936	1.388198
H297	H	1.281799	-0.549950	0.576514
H298	H	1.531799	-0.299950	0.826514
H299	H	1.781799	-0.049950	1.076514
H300	H	2.031799	0.200050	1.326514
