data_functionalizedCrystal
_audit_creation_method	'MofGen! by Chris Wilmer'
_symmetry_space_group_name_H-M	'P1'
_symmetry_Int_Tables_number	1
_symmetry_cell_setting	triclinic
loop_
_symmetry_equiv_pos_as_xyz
  x,y,z
_cell_length_a	19.288864
_cell_length_b	10.654548
_cell_length_c	18.366186
_cell_angle_alpha	90.004352
_cell_angle_beta	90.022894
_cell_angle_gamma	83.810273
loop_
_atom_site_label
_atom_site_type_symbol
_atom_site_fract_x
_atom_site_fract_y
_atom_site_fract_z
O1	O	0.922378	0.156657	0.060781
O2	O	0.720256	0.177789	0.060730
O3	O	0.825965	-0.015616	0.060755
O4	O	0.816669	0.350062	0.060756
O5	O	0.825946	-0.015625	-0.060344
O6	O	0.720238	0.177780	-0.060369
O7	O	0.922360	0.156647	-0.060319
Zn8	Zn	0.821296	0.167212	-0.079571
Zn9	Zn	0.821320	0.167225	0.079983
O10	O	0.816651	0.350052	-0.060344
C11	C	0.694366	0.177105	0.000174
C12	C	0.617249	0.175063	0.000155
C13	C	0.573295	0.288545	0.000167
C14	C	0.500836	0.286627	0.000175
C15	C	0.472333	0.171222	0.000186
C16	C	0.516296	0.057725	0.000170
C17	C	0.588754	0.059646	0.000155
C18	C	0.363483	0.080503	0.042637
C19	C	0.291026	0.078587	0.042657
C20	C	0.248848	0.165292	0.000230
C21	C	0.279135	0.253935	-0.042207
C22	C	0.351593	0.255856	-0.042222
C23	C	0.393765	0.169126	0.000202
C24	C	0.126325	0.276702	0.000249
C25	C	0.053865	0.274780	0.000253
C26	C	0.069327	0.045875	0.000255
C27	C	0.141786	0.047800	0.000245
C28	C	0.170280	0.163218	0.000245
C29	C	0.825273	-0.062404	0.000206
C30	C	0.823232	-0.201804	0.000209
C31	C	0.820354	-0.398268	0.066221
C32	C	0.822280	-0.267289	0.066221
C33	C	0.822264	-0.267305	-0.065808
C34	C	0.820342	-0.398282	-0.065808
C35	C	0.819395	-0.463746	0.132237
C36	C	0.820364	-0.398254	0.198254
C37	C	0.822290	-0.267275	0.198255
C38	C	0.823248	-0.201788	0.132239
C39	C	0.948250	0.157332	0.000239
C40	C	1.025367	0.159373	0.000263
C41	C	0.817342	0.396841	0.000207
C42	C	0.819384	0.536240	0.000208
N43	N	0.821285	0.167203	-0.188462
C44	C	0.868108	0.081605	-0.226552
C45	C	0.868113	0.081599	-0.302779
C46	C	0.821300	0.167213	-0.340915
C47	C	0.774468	0.252818	-0.302816
C48	C	0.774460	0.252812	-0.226590
C49	C	0.812751	0.281635	-0.461676
C50	C	0.812763	0.281641	-0.537901
C51	C	0.821320	0.167229	-0.576022
C52	C	0.829879	0.052804	-0.537909
C53	C	0.829871	0.052799	-0.461683
C54	C	0.821303	0.167228	-0.423570
C55	C	0.868151	0.081618	-0.696767
C56	C	0.868150	0.081610	-0.772996
C57	C	0.774509	0.252840	-0.773031
C58	C	0.774506	0.252836	-0.696804
C59	C	0.821331	0.167226	-0.658676
N60	N	0.821337	0.167224	0.188874
H61	H	0.244795	0.324538	-0.076755
H62	H	0.397820	0.009895	0.077190
C63	C	0.758577	-0.531155	-0.142412
C64	C	0.819280	-0.470291	-0.138366
H65	H	0.757929	-0.575619	-0.187205
H66	H	0.718901	-0.470256	-0.139691
H67	H	0.757742	-0.588885	-0.103089
H68	H	0.820113	-0.412554	-0.177686
H69	H	0.858967	-0.531198	-0.141094
H70	H	0.823043	-0.213975	-0.119555
H71	H	0.736351	0.322524	-0.333870
C72	C	0.310060	-0.094565	0.126523
C73	C	0.257739	-0.018850	0.089299
H74	H	0.289510	-0.154725	0.155314
H75	H	0.334913	-0.043119	0.157105
H76	H	0.341235	-0.137218	0.092391
H77	H	0.226568	0.023810	0.123431
H78	H	0.232875	-0.070304	0.058714
H79	H	0.906278	0.011900	-0.804009
H80	H	0.906234	0.011894	-0.195510
C81	C	0.760165	-0.424100	0.310760
C82	C	0.819300	-0.470238	0.270814
H83	H	0.759509	-0.468537	0.355557
H84	H	0.719426	-0.435750	0.283615
H85	H	0.761464	-0.336725	0.320209
H86	H	0.817999	-0.557611	0.261361
H87	H	0.860050	-0.458599	0.297964
C88	C	0.624275	-0.134856	0.062407
C89	C	0.637074	-0.065100	0.000150
H90	H	0.654110	-0.211865	0.062407
H91	H	0.577049	-0.152517	0.062408
H92	H	0.632996	-0.087497	0.104630
H93	H	0.628348	-0.112456	-0.042072
H94	H	0.684311	-0.047442	0.000143
C95	C	0.507122	-0.137969	-0.062074
C96	C	0.484968	-0.069131	0.000184
H97	H	0.487778	-0.216283	-0.062069
H98	H	0.556560	-0.153065	-0.062081
H99	H	0.492040	-0.091248	-0.104296
H100	H	0.500054	-0.115848	0.042406
H101	H	0.435519	-0.054039	0.000197
H102	H	0.906243	0.011892	-0.333798
H103	H	0.596491	0.382526	0.000169
H104	H	0.046121	-0.048091	0.000310
C105	C	0.177307	-0.146696	0.062502
C106	C	0.190105	-0.076943	0.000244
H107	H	0.207141	-0.223707	0.062501
H108	H	0.130081	-0.164354	0.062506
H109	H	0.186032	-0.099337	0.104724
H110	H	0.181375	-0.124299	-0.041978
H111	H	0.237342	-0.059289	0.000233
H112	H	0.836838	-0.040369	-0.430654
H113	H	0.906276	0.011905	-0.665722
C114	C	0.045864	0.501232	0.000267
C115	C	0.005547	0.399529	0.000266
H116	H	0.016033	0.578246	0.000280
H117	H	0.074422	0.497226	-0.041965
H118	H	0.074471	0.497206	0.042495
H119	H	-0.023057	0.403549	-0.041965
H120	H	-0.023024	0.403538	0.042503
H121	H	0.836846	-0.040361	-0.568946
H122	H	0.817824	-0.570394	0.132244
C123	C	0.766406	0.000299	0.096278
C124	C	0.825370	-0.057814	0.132235
H125	H	0.767718	0.089180	0.096273
H126	H	0.725550	-0.019510	0.120653
H127	H	0.765969	-0.029349	0.047517
H128	H	0.825804	-0.028173	0.180998
H129	H	0.866236	-0.037995	0.107862
H130	H	0.736390	0.322543	-0.804081
H131	H	0.823086	-0.213956	0.252010
C132	C	0.198875	0.411672	0.062483
C133	C	0.157654	0.403563	0.000238
H134	H	0.218211	0.489994	0.062475
H135	H	0.235420	0.344365	0.062476
H136	H	0.170944	0.406176	0.104713
H137	H	0.185586	0.409050	-0.041993
H138	H	0.121104	0.470888	0.000238
C139	C	0.681955	0.422094	-0.704498
C140	C	0.723043	0.346943	-0.654931
H141	H	0.650185	0.480197	-0.678646
H142	H	0.656725	0.369938	-0.734243
H143	H	0.711092	0.467130	-0.734213
H144	H	0.693906	0.301900	-0.625219
H145	H	0.748275	0.399106	-0.625173
H146	H	0.805799	0.374812	-0.568927
H147	H	0.805771	0.374809	-0.430645
H148	H	0.465042	0.379040	0.000182
H149	H	0.736330	0.322518	-0.195577
H150	H	0.376249	0.328027	-0.076778
