data_functionalizedCrystal
_audit_creation_method	'MofGen! by Chris Wilmer'
_symmetry_space_group_name_H-M	'P1'
_symmetry_Int_Tables_number	1
_symmetry_cell_setting	triclinic
loop_
_symmetry_equiv_pos_as_xyz
  x,y,z
_cell_length_a	21.395362
_cell_length_b	21.395361
_cell_length_c	21.395355
_cell_angle_alpha	90.021511
_cell_angle_beta	90.043940
_cell_angle_gamma	90.046585
loop_
_atom_site_label
_atom_site_type_symbol
_atom_site_fract_x
_atom_site_fract_y
_atom_site_fract_z
Zn1	Zn	0.957859	-0.249246	0.354573
Zn2	Zn	1.207859	0.000754	0.604573
Zn3	Zn	1.457859	0.250754	0.854573
Zn4	Zn	1.707859	0.500754	1.104573
Zn5	Zn	0.957762	-0.354005	0.249790
Zn6	Zn	1.207762	-0.104005	0.499790
Zn7	Zn	1.457762	0.145995	0.749790
Zn8	Zn	1.707762	0.395995	0.999790
Zn9	Zn	0.853074	-0.249275	0.249774
Zn10	Zn	1.103074	0.000725	0.499774
Zn11	Zn	1.353074	0.250725	0.749774
Zn12	Zn	1.603074	0.500725	0.999774
Zn13	Zn	0.853044	-0.354018	0.354494
Zn14	Zn	1.103044	-0.104018	0.604494
Zn15	Zn	1.353044	0.145982	0.854494
Zn16	Zn	1.603044	0.395982	1.104494
O17	O	0.905435	-0.301636	0.302158
O18	O	1.155435	-0.051636	0.552158
O19	O	1.405435	0.198364	0.802158
O20	O	1.655435	0.448364	1.052158
O21	O	1.045524	-0.263125	0.340712
O22	O	1.295524	-0.013125	0.590712
O23	O	1.545524	0.236875	0.840712
O24	O	1.795524	0.486875	1.090712
O25	O	0.943847	-0.340119	0.162110
O26	O	1.193847	-0.090119	0.412110
O27	O	1.443847	0.159881	0.662110
O28	O	1.693847	0.409881	0.912110
O29	O	0.867028	-0.161593	0.263702
O30	O	1.117028	0.088407	0.513702
O31	O	1.367028	0.338407	0.763702
O32	O	1.617028	0.588407	1.013702
O33	O	1.045453	-0.340091	0.263729
O34	O	1.295453	-0.090091	0.513729
O35	O	1.545453	0.159909	0.763729
O36	O	1.795453	0.409909	1.013729
O37	O	0.944013	-0.161572	0.340697
O38	O	1.194013	0.088428	0.590697
O39	O	1.444013	0.338428	0.840697
O40	O	1.694013	0.588428	1.090697
O41	O	0.866934	-0.263174	0.162098
O42	O	1.116934	-0.013174	0.412098
O43	O	1.366934	0.236826	0.662098
O44	O	1.616934	0.486826	0.912098
O45	O	0.765392	-0.263187	0.263626
O46	O	1.015392	-0.013187	0.513626
O47	O	1.265392	0.236813	0.763626
O48	O	1.515392	0.486813	1.013626
O49	O	0.866976	-0.340113	0.442183
O50	O	1.116976	-0.090113	0.692183
O51	O	1.366976	0.159887	0.942183
O52	O	1.616976	0.409887	1.192183
O53	O	0.765370	-0.340141	0.340564
O54	O	1.015370	-0.090141	0.590564
O55	O	1.265370	0.159859	0.840564
O56	O	1.515370	0.409859	1.090564
O57	O	0.943983	-0.263137	0.442240
O58	O	1.193983	-0.013137	0.692240
O59	O	1.443983	0.236863	0.942240
O60	O	1.693983	0.486863	1.192240
O61	O	0.943817	-0.441685	0.263653
O62	O	1.193817	-0.191685	0.513653
O63	O	1.443817	0.058315	0.763653
O64	O	1.693817	0.308315	1.013653
O65	O	0.866881	-0.441695	0.340579
O66	O	1.116881	-0.191695	0.590579
O67	O	1.366881	0.058305	0.840579
O68	O	1.616881	0.308305	1.090579
C69	C	0.742647	-0.301669	0.302085
C70	C	0.992647	-0.051669	0.552085
C71	C	1.242647	0.198331	0.802085
C72	C	1.492647	0.448331	1.052085
C73	C	0.673006	-0.301698	0.302069
C74	C	0.923006	-0.051698	0.552069
C75	C	1.173006	0.198302	0.802069
C76	C	1.423006	0.448302	1.052069
C77	C	0.640297	-0.341822	0.342070
C78	C	0.890297	-0.091822	0.592070
C79	C	1.140297	0.158178	0.842070
C80	C	1.390297	0.408178	1.092070
C81	C	0.574862	-0.341806	0.342098
C82	C	0.824862	-0.091806	0.592098
C83	C	1.074862	0.158194	0.842098
C84	C	1.324862	0.408194	1.092098
C85	C	0.542138	-0.301674	0.302113
C86	C	0.792138	-0.051674	0.552113
C87	C	1.042138	0.198326	0.802113
C88	C	1.292138	0.448326	1.052113
C89	C	0.574854	-0.261543	0.262109
C90	C	0.824854	-0.011543	0.512109
C91	C	1.074854	0.238457	0.762109
C92	C	1.324854	0.488457	1.012109
C93	C	0.640288	-0.261555	0.262087
C94	C	0.890288	-0.011555	0.512087
C95	C	1.140288	0.238445	0.762087
C96	C	1.390288	0.488445	1.012087
C97	C	0.438413	-0.296627	0.245708
C98	C	0.688413	-0.046627	0.495708
C99	C	0.938413	0.203373	0.745708
C100	C	1.188413	0.453373	0.995708
C101	C	0.372980	-0.296619	0.245730
C102	C	0.622980	-0.046619	0.495730
C103	C	0.872980	0.203381	0.745730
C104	C	1.122980	0.453381	0.995730
C105	C	0.340317	-0.301633	0.302182
C106	C	0.590317	-0.051633	0.552182
C107	C	0.840317	0.198367	0.802182
C108	C	1.090317	0.448367	1.052182
C109	C	0.373095	-0.306668	0.358616
C110	C	0.623095	-0.056668	0.608616
C111	C	0.873095	0.193332	0.858616
C112	C	1.123095	0.443332	1.108616
C113	C	0.438529	-0.306681	0.358594
C114	C	0.688529	-0.056681	0.608594
C115	C	0.938529	0.193319	0.858594
C116	C	1.188529	0.443319	1.108594
C117	C	0.471185	-0.301656	0.302133
C118	C	0.721185	-0.051656	0.552133
C119	C	0.971185	0.198344	0.802133
C120	C	1.221185	0.448344	1.052133
C121	C	0.236656	-0.341742	0.342218
C122	C	0.486656	-0.091742	0.592218
C123	C	0.736656	0.158258	0.842218
C124	C	0.986656	0.408258	1.092218
C125	C	0.171219	-0.341723	0.342247
C126	C	0.421219	-0.091723	0.592247
C127	C	0.671219	0.158277	0.842247
C128	C	0.921219	0.408277	1.092247
C129	C	0.171213	-0.261462	0.262252
C130	C	0.421213	-0.011462	0.512252
C131	C	0.671213	0.238538	0.762252
C132	C	0.921213	0.488538	1.012252
C133	C	0.236648	-0.261479	0.262229
C134	C	0.486648	-0.011479	0.512229
C135	C	0.736648	0.238521	0.762229
C136	C	0.986648	0.488521	1.012229
C137	C	0.269366	-0.301622	0.302211
C138	C	0.519366	-0.051622	0.552211
C139	C	0.769366	0.198378	0.802211
C140	C	1.019366	0.448378	1.052211
C141	C	0.905352	-0.464424	0.302123
C142	C	1.155352	-0.214424	0.552123
C143	C	1.405352	0.035576	0.802123
C144	C	1.655352	0.285576	1.052123
C145	C	0.905374	-0.534065	0.302129
C146	C	1.155374	-0.284065	0.552129
C147	C	1.405374	-0.034065	0.802129
C148	C	1.655374	0.215935	1.052129
C149	C	0.945470	-0.566752	0.262114
C150	C	1.195470	-0.316752	0.512114
C151	C	1.445470	-0.066752	0.762114
C152	C	1.695470	0.183248	1.012114
C153	C	0.945499	-0.632188	0.262128
C154	C	1.195499	-0.382188	0.512128
C155	C	1.445499	-0.132188	0.762128
C156	C	1.695499	0.117812	1.012128
C157	C	0.905421	-0.664933	0.302150
C158	C	1.155421	-0.414933	0.552150
C159	C	1.405421	-0.164933	0.802150
C160	C	1.655421	0.085067	1.052150
C161	C	0.865322	-0.632238	0.342172
C162	C	1.115322	-0.382238	0.592172
C163	C	1.365322	-0.132238	0.842172
C164	C	1.615322	0.117762	1.092172
C165	C	0.865299	-0.566804	0.342162
C166	C	1.115299	-0.316804	0.592162
C167	C	1.365299	-0.066804	0.842162
C168	C	1.615299	0.183196	1.092162
C169	C	0.849006	-0.768664	0.307041
C170	C	1.099006	-0.518664	0.557041
C171	C	1.349006	-0.268664	0.807041
C172	C	1.599006	-0.018664	1.057041
C173	C	0.849029	-0.834097	0.307047
C174	C	1.099029	-0.584097	0.557047
C175	C	1.349029	-0.334097	0.807047
C176	C	1.599029	-0.084097	1.057047
C177	C	0.905494	-0.866754	0.302187
C178	C	1.155494	-0.616754	0.552187
C179	C	1.405494	-0.366754	0.802187
C180	C	1.655494	-0.116754	1.052187
C181	C	0.961939	-0.833970	0.297307
C182	C	1.211939	-0.583970	0.547307
C183	C	1.461939	-0.333970	0.797307
C184	C	1.711939	-0.083970	1.047307
C185	C	0.961915	-0.768536	0.297296
C186	C	1.211915	-0.518536	0.547296
C187	C	1.461915	-0.268536	0.797296
C188	C	1.711915	-0.018536	1.047296
C189	C	0.905443	-0.735886	0.302167
C190	C	1.155443	-0.485886	0.552167
C191	C	1.405443	-0.235886	0.802167
C192	C	1.655443	0.014114	1.052167
C193	C	0.945625	-0.970394	0.262186
C194	C	1.195625	-0.720394	0.512186
C195	C	1.445625	-0.470394	0.762186
C196	C	1.695625	-0.220394	1.012186
C197	C	0.945655	-1.035830	0.262204
C198	C	1.195655	-0.785830	0.512204
C199	C	1.445655	-0.535830	0.762204
C200	C	1.695655	-0.285830	1.012204
C201	C	0.865473	-1.035879	0.342245
C202	C	1.115473	-0.785879	0.592245
C203	C	1.365473	-0.535879	0.842245
C204	C	1.615473	-0.285879	1.092245
C205	C	0.865448	-0.970444	0.342230
C206	C	1.115448	-0.720444	0.592230
C207	C	1.365448	-0.470444	0.842230
C208	C	1.615448	-0.220444	1.092230
C209	C	0.905524	-0.937705	0.302197
C210	C	1.155524	-0.687705	0.552197
C211	C	1.405524	-0.437705	0.802197
C212	C	1.655524	-0.187705	1.052197
C213	C	1.068858	-0.301603	0.302231
C214	C	1.318858	-0.051603	0.552231
C215	C	1.568858	0.198397	0.802231
C216	C	1.818858	0.448397	1.052231
C217	C	1.138499	-0.301589	0.302262
C218	C	1.388499	-0.051589	0.552262
C219	C	1.638499	0.198411	0.802262
C220	C	1.888499	0.448411	1.052262
C221	C	0.905487	-0.301623	0.465581
C222	C	1.155487	-0.051623	0.715581
C223	C	1.405487	0.198377	0.965581
C224	C	1.655487	0.448377	1.215581
C225	C	0.905509	-0.301618	0.535222
C226	C	1.155509	-0.051618	0.785222
C227	C	1.405509	0.198382	1.035222
C228	C	1.655509	0.448382	1.285222
C229	C	0.905535	-0.138213	0.302206
C230	C	1.155535	0.111787	0.552206
C231	C	1.405535	0.361787	0.802206
C232	C	1.655535	0.611787	1.052206
C233	C	0.905578	-0.068571	0.302227
C234	C	1.155578	0.181429	0.552227
C235	C	1.405578	0.431429	0.802227
C236	C	1.655578	0.681429	1.052227
C237	C	0.905419	-0.301603	0.139370
C238	C	1.155419	-0.051603	0.389370
C239	C	1.405419	0.198397	0.639370
C240	C	1.655419	0.448397	0.889370
C241	C	0.905518	-0.301432	0.069729
C242	C	1.155518	-0.051432	0.319729
C243	C	1.405518	0.198568	0.569729
C244	C	1.655518	0.448568	0.819729
C245	C	0.945605	-0.261535	0.567966
C246	C	1.195605	-0.011535	0.817966
C247	C	1.445605	0.238465	1.067966
C248	C	1.695605	0.488465	1.317966
C249	C	0.945604	-0.261508	0.633402
C250	C	1.195604	-0.011508	0.883402
C251	C	1.445604	0.238492	1.133402
C252	C	1.695604	0.488492	1.383402
C253	C	0.905514	-0.301575	0.666091
C254	C	1.155514	-0.051575	0.916091
C255	C	1.405514	0.198425	1.166091
C256	C	1.655514	0.448425	1.416091
C257	C	0.865410	-0.341661	0.633339
C258	C	1.115410	-0.091661	0.883339
C259	C	1.365410	0.158339	1.133339
C260	C	1.615410	0.408339	1.383339
C261	C	0.865407	-0.341682	0.567904
C262	C	1.115407	-0.091682	0.817904
C263	C	1.365407	0.158318	1.067904
C264	C	1.615407	0.408318	1.317904
C265	C	0.900538	-0.357992	0.769752
C266	C	1.150538	-0.107992	1.019752
C267	C	1.400538	0.142008	1.269752
C268	C	1.650538	0.392008	1.519752
C269	C	0.900545	-0.357972	0.835185
C270	C	1.150545	-0.107972	1.085185
C271	C	1.400545	0.142028	1.335185
C272	C	1.650545	0.392028	1.585185
C273	C	0.905518	-0.301509	0.867911
C274	C	1.155518	-0.051509	1.117911
C275	C	1.405518	0.198491	1.367911
C276	C	1.655518	0.448491	1.617911
C277	C	0.910497	-0.245065	0.835197
C278	C	1.160497	0.004935	1.085197
C279	C	1.410497	0.254935	1.335197
C280	C	1.660497	0.504935	1.585197
C281	C	0.910495	-0.245086	0.769763
C282	C	1.160495	0.004914	1.019763
C283	C	1.410495	0.254914	1.269763
C284	C	1.660495	0.504914	1.519763
C285	C	0.905512	-0.301556	0.737043
C286	C	1.155512	-0.051556	0.987043
C287	C	1.405512	0.198444	1.237043
C288	C	1.655512	0.448444	1.487043
C289	C	0.945615	-0.261393	0.971608
C290	C	1.195615	-0.011393	1.221608
C291	C	1.445615	0.238607	1.471608
C292	C	1.695615	0.488607	1.721608
C293	C	0.945610	-0.261365	1.037045
C294	C	1.195610	-0.011365	1.287045
C295	C	1.445610	0.238635	1.537045
C296	C	1.695610	0.488635	1.787045
C297	C	0.865419	-0.341524	1.036980
C298	C	1.115419	-0.091524	1.286980
C299	C	1.365419	0.158476	1.536980
C300	C	1.615419	0.408476	1.786980
C301	C	0.865421	-0.341547	0.971545
C302	C	1.115421	-0.091547	1.221545
C303	C	1.365421	0.158453	1.471545
C304	C	1.615421	0.408453	1.721545
C305	C	0.905522	-0.301482	0.938863
C306	C	1.155522	-0.051482	1.188863
C307	C	1.405522	0.198518	1.438863
C308	C	1.655522	0.448518	1.688863
H309	H	0.465002	-0.292541	0.199734
H310	H	0.715002	-0.042541	0.449734
H311	H	0.965002	0.207459	0.699734
H312	H	1.215002	0.457459	0.949734
H313	H	0.803068	-0.860785	0.311015
H314	H	1.053068	-0.610785	0.561015
H315	H	1.303068	-0.360785	0.811015
H316	H	1.553068	-0.110785	1.061015
H317	H	0.832766	-0.374282	0.659958
H318	H	1.082766	-0.124282	0.909958
H319	H	1.332766	0.125718	1.159958
H320	H	1.582766	0.375718	1.409958
H321	H	0.346502	-0.310751	0.404585
H322	H	0.596502	-0.060751	0.654585
H323	H	0.846502	0.189249	0.904585
H324	H	1.096502	0.439249	1.154585
H325	H	0.346297	-0.292523	0.199778
H326	H	0.596297	-0.042523	0.449778
H327	H	0.846297	0.207477	0.699778
H328	H	1.096297	0.457477	0.949778
H329	H	0.978258	-0.228910	0.541360
H330	H	1.228258	0.021090	0.791360
H331	H	1.478258	0.271090	1.041360
H332	H	1.728258	0.521090	1.291360
H333	H	0.263296	-0.374426	0.374776
H334	H	0.513296	-0.124426	0.624776
H335	H	0.763296	0.125574	0.874776
H336	H	1.013296	0.375574	1.124776
H337	H	0.896494	-0.403932	0.861815
H338	H	1.146494	-0.153932	1.111815
H339	H	1.396494	0.096068	1.361815
H340	H	1.646494	0.346068	1.611815
H341	H	1.007918	-0.860558	0.293349
H342	H	1.257918	-0.610558	0.543349
H343	H	1.507918	-0.360558	0.793349
H344	H	1.757918	-0.110558	1.043349
H345	H	0.832753	-0.374322	0.541245
H346	H	1.082753	-0.124322	0.791245
H347	H	1.332753	0.125678	1.041245
H348	H	1.582753	0.375678	1.291245
H349	H	0.978310	-1.062443	0.229621
H350	H	1.228310	-0.812443	0.479621
H351	H	1.478310	-0.562443	0.729621
H352	H	1.728310	-0.312443	0.979621
H353	H	0.978254	-0.228864	0.660067
H354	H	1.228254	0.021136	0.910067
H355	H	1.478254	0.271136	1.160067
H356	H	1.728254	0.521136	1.410067
H357	H	0.548206	-0.228866	0.229554
H358	H	0.798206	0.021134	0.479554
H359	H	1.048206	0.271134	0.729554
H360	H	1.298206	0.521134	0.979554
H361	H	0.978259	-0.943737	0.229590
H362	H	1.228259	-0.693737	0.479590
H363	H	1.478259	-0.443737	0.729590
H364	H	1.728259	-0.193737	0.979590
H365	H	0.666932	-0.374509	0.374627
H366	H	0.916932	-0.124509	0.624627
H367	H	1.166932	0.125491	0.874627
H368	H	1.416932	0.375491	1.124627
H369	H	0.144569	-0.228783	0.229699
H370	H	0.394569	0.021217	0.479699
H371	H	0.644569	0.271217	0.729699
H372	H	0.894569	0.521217	0.979699
H373	H	0.832770	-0.374141	1.063595
H374	H	1.082770	-0.124141	1.313595
H375	H	1.332770	0.125859	1.563595
H376	H	1.582770	0.375859	1.813595
H377	H	0.914547	-0.199128	0.743130
H378	H	1.164547	0.050872	0.993130
H379	H	1.414547	0.300872	1.243130
H380	H	1.664547	0.550872	1.493130
H381	H	0.832843	-1.062540	0.374834
H382	H	1.082843	-0.812540	0.624834
H383	H	1.332843	-0.562540	0.874834
H384	H	1.582843	-0.312540	1.124834
H385	H	0.978260	-0.228721	1.063704
H386	H	1.228260	0.021279	1.313704
H387	H	1.478260	0.271279	1.563704
H388	H	1.728260	0.521279	1.813704
H389	H	0.832691	-0.658904	0.374760
H390	H	1.082691	-0.408904	0.624760
H391	H	1.332691	-0.158904	0.874760
H392	H	1.582691	0.091096	1.124760
H393	H	0.896321	-0.403959	0.743111
H394	H	1.146321	-0.153959	0.993111
H395	H	1.396321	0.096041	1.243111
H396	H	1.646321	0.346041	1.493111
H397	H	0.978103	-0.540098	0.229519
H398	H	1.228103	-0.290098	0.479519
H399	H	1.478103	-0.040098	0.729519
H400	H	1.728103	0.209902	0.979519
H401	H	1.007873	-0.741844	0.293325
H402	H	1.257873	-0.491844	0.543325
H403	H	1.507873	-0.241844	0.793325
H404	H	1.757873	0.008156	1.043325
H405	H	0.978153	-0.658807	0.229544
H406	H	1.228153	-0.408807	0.479544
H407	H	1.478153	-0.158807	0.729544
H408	H	1.728153	0.091193	0.979544
H409	H	0.548226	-0.374479	0.374674
H410	H	0.798226	-0.124479	0.624674
H411	H	1.048226	0.125521	0.874674
H412	H	1.298226	0.375521	1.124674
H413	H	0.263280	-0.228809	0.229652
H414	H	0.513280	0.021191	0.479652
H415	H	0.763280	0.271191	0.729652
H416	H	1.013280	0.521191	0.979652
H417	H	0.465214	-0.310778	0.404543
H418	H	0.715214	-0.060778	0.654543
H419	H	0.965214	0.189222	0.904543
H420	H	1.215214	0.439222	1.154543
H421	H	0.914548	-0.199088	0.861842
H422	H	1.164548	0.050912	1.111842
H423	H	1.414548	0.300912	1.361842
H424	H	1.664548	0.550912	1.611842
H425	H	0.832774	-0.374190	0.944885
H426	H	1.082774	-0.124190	1.194885
H427	H	1.332774	0.125810	1.444885
H428	H	1.582774	0.375810	1.694885
H429	H	0.832795	-0.943828	0.374811
H430	H	1.082795	-0.693828	0.624811
H431	H	1.332795	-0.443828	0.874811
H432	H	1.582795	-0.193828	1.124811
H433	H	0.832647	-0.540189	0.374747
H434	H	1.082647	-0.290189	0.624747
H435	H	1.332647	-0.040189	0.874747
H436	H	1.582647	0.209811	1.124747
H437	H	0.144589	-0.374395	0.374824
H438	H	0.394589	-0.124395	0.624824
H439	H	0.644589	0.125605	0.874824
H440	H	0.894589	0.375605	1.124824
H441	H	0.666919	-0.228880	0.229513
H442	H	0.916919	0.021120	0.479513
H443	H	1.166919	0.271120	0.729513
H444	H	1.416919	0.521120	0.979513
H445	H	0.978265	-0.228767	0.944997
H446	H	1.228265	0.021233	1.194997
H447	H	1.478265	0.271233	1.444997
H448	H	1.728265	0.521233	1.694997
H449	H	0.803022	-0.742081	0.311001
H450	H	1.053022	-0.492081	0.561001
H451	H	1.303022	-0.242081	0.811001
H452	H	1.553022	0.007919	1.061001
