data_functionalizedCrystal
_audit_creation_method	'MofGen! by Chris Wilmer'
_symmetry_space_group_name_H-M	'P1'
_symmetry_Int_Tables_number	1
_symmetry_cell_setting	triclinic
loop_
_symmetry_equiv_pos_as_xyz
  x,y,z
_cell_length_a	16.625547
_cell_length_b	19.120786
_cell_length_c	16.625539
_cell_angle_alpha	87.528626
_cell_angle_beta	89.975178
_cell_angle_gamma	92.464876
loop_
_atom_site_label
_atom_site_type_symbol
_atom_site_fract_x
_atom_site_fract_y
_atom_site_fract_z
Zn1	Zn	1.218969	-0.279630	-0.442286
Zn2	Zn	1.552302	0.053703	-0.108953
Zn3	Zn	1.885636	0.387036	0.224381
Zn4	Zn	1.213113	-0.397095	-0.301692
Zn5	Zn	1.546446	-0.063761	0.031641
Zn6	Zn	1.879779	0.269572	0.364975
Zn7	Zn	1.084130	-0.279655	-0.307455
Zn8	Zn	1.417463	0.053679	0.025878
Zn9	Zn	1.750796	0.387012	0.359211
Zn10	Zn	1.078344	-0.397052	-0.436474
Zn11	Zn	1.411677	-0.063719	-0.103141
Zn12	Zn	1.745010	0.269615	0.230193
O13	O	1.148639	-0.338358	-0.371977
O14	O	1.481972	-0.005025	-0.038644
O15	O	1.815305	0.328309	0.294690
O16	O	1.331024	-0.295220	-0.423656
O17	O	1.664358	0.038113	-0.090323
O18	O	1.997691	0.371447	0.243010
O19	O	1.195973	-0.381544	-0.189623
O20	O	1.529307	-0.048211	0.143711
O21	O	1.862640	0.285123	0.477044
O22	O	1.106889	-0.181361	-0.330185
O23	O	1.440222	0.151972	0.003148
O24	O	1.773556	0.485306	0.336481
O25	O	1.326721	-0.381520	-0.320363
O26	O	1.660055	-0.048187	0.012971
O27	O	1.993388	0.285146	0.346304
O28	O	1.205955	-0.181343	-0.429245
O29	O	1.539288	0.151990	-0.095911
O30	O	1.872622	0.485323	0.237422
O31	O	1.101210	-0.295262	-0.193857
O32	O	1.434543	0.038072	0.139476
O33	O	1.767877	0.371405	0.472810
O34	O	0.970530	-0.295220	-0.324550
O35	O	1.303864	0.038113	0.008784
O36	O	1.637197	0.371446	0.342117
O37	O	1.097027	-0.381448	-0.550079
O38	O	1.430361	-0.048114	-0.216746
O39	O	1.763694	0.285219	0.116588
O40	O	0.966279	-0.381471	-0.419339
O41	O	1.299613	-0.048138	-0.086006
O42	O	1.632946	0.285195	0.247328
O43	O	1.200344	-0.295179	-0.554349
O44	O	1.533678	0.038155	-0.221016
O45	O	1.867011	0.371488	0.112318
O46	O	1.190363	-0.495379	-0.314727
O47	O	1.523696	-0.162046	0.018606
O48	O	1.857029	0.171287	0.351940
O49	O	1.091349	-0.495348	-0.413751
O50	O	1.424682	-0.162015	-0.080417
O51	O	1.758015	0.171319	0.252916
C52	C	0.939149	-0.338344	-0.371940
C53	C	1.272482	-0.005011	-0.038606
C54	C	1.605815	0.328322	0.294727
C55	C	0.849527	-0.338355	-0.371942
C56	C	1.182860	-0.005022	-0.038608
C57	C	1.516194	0.328311	0.294725
C58	C	0.776744	-0.338357	-0.371952
C59	C	1.110078	-0.005023	-0.038618
C60	C	1.443411	0.328310	0.294715
C61	C	0.685436	-0.338361	-0.371972
C62	C	1.018769	-0.005027	-0.038638
C63	C	1.352102	0.328306	0.294695
C64	C	0.612659	-0.338367	-0.371992
C65	C	0.945992	-0.005034	-0.038659
C66	C	1.279326	0.328300	0.294675
C67	C	0.521345	-0.338372	-0.372011
C68	C	0.854678	-0.005038	-0.038678
C69	C	1.188011	0.328295	0.294656
C70	C	1.139614	-0.520849	-0.363000
C71	C	1.472948	-0.187516	-0.029667
C72	C	1.806281	0.145817	0.303666
C73	C	1.135827	-0.598920	-0.359187
C74	C	1.469161	-0.265587	-0.025854
C75	C	1.802494	0.067747	0.307480
C76	C	1.185588	-0.635528	-0.409012
C77	C	1.518921	-0.302195	-0.075679
C78	C	1.852255	0.031139	0.257654
C79	C	1.182026	-0.708884	-0.405431
C80	C	1.515360	-0.375550	-0.072098
C81	C	1.848693	-0.042217	0.261236
C82	C	1.128708	-0.745630	-0.352019
C83	C	1.462041	-0.412297	-0.018686
C84	C	1.795374	-0.078963	0.314647
C85	C	1.078941	-0.709017	-0.302192
C86	C	1.412275	-0.375683	0.031141
C87	C	1.745608	-0.042350	0.364475
C88	C	1.082499	-0.635663	-0.305778
C89	C	1.415833	-0.302329	0.027555
C90	C	1.749166	0.031004	0.360889
C91	C	1.115383	-0.967116	-0.338613
C92	C	1.448716	-0.633783	-0.005279
C93	C	1.782049	-0.300449	0.328054
C94	C	1.111830	-1.040475	-0.335029
C95	C	1.445163	-0.707142	-0.001695
C96	C	1.778497	-0.373809	0.331638
C97	C	1.214914	-1.040337	-0.438269
C98	C	1.548248	-0.707004	-0.104936
C99	C	1.881581	-0.373670	0.228398
C100	C	1.218471	-0.966981	-0.441847
C101	C	1.551804	-0.633648	-0.108514
C102	C	1.885138	-0.300315	0.224820
C103	C	1.168702	-0.930375	-0.392023
C104	C	1.502035	-0.597041	-0.058689
C105	C	1.835369	-0.263708	0.274644
C106	C	1.125068	-0.820611	-0.348355
C107	C	1.458401	-0.487278	-0.015022
C108	C	1.791734	-0.153944	0.318311
C109	C	1.172338	-0.855395	-0.395691
C110	C	1.505672	-0.522061	-0.062358
C111	C	1.839005	-0.188728	0.270975
C112	C	1.358947	-0.338372	-0.372015
C113	C	1.692280	-0.005039	-0.038682
C114	C	2.025614	0.328294	0.294652
C115	C	1.448568	-0.338378	-0.372031
C116	C	1.781901	-0.005045	-0.038698
C117	C	2.115234	0.328288	0.294636
C118	C	1.148694	-0.338306	-0.582288
C119	C	1.482027	-0.004972	-0.248955
C120	C	1.815360	0.328361	0.084378
C121	C	1.148717	-0.338283	-0.671911
C122	C	1.482051	-0.004950	-0.338577
C123	C	1.815384	0.328383	-0.005244
C124	C	1.157721	-0.155154	-0.381006
C125	C	1.491054	0.178179	-0.047673
C126	C	1.824387	0.511513	0.285660
C127	C	1.161591	-0.077083	-0.384854
C128	C	1.494924	0.256250	-0.051521
C129	C	1.828257	0.589583	0.281813
C130	C	1.148758	-0.338205	-1.000090
C131	C	1.482092	-0.004871	-0.666757
C132	C	1.815425	0.328462	-0.333424
C133	C	1.148744	-0.338229	-0.908781
C134	C	1.482078	-0.004896	-0.575447
C135	C	1.815411	0.328438	-0.242114
C136	C	1.148738	-0.338245	-0.836003
C137	C	1.482071	-0.004911	-0.502670
C138	C	1.815405	0.328422	-0.169337
C139	C	1.148724	-0.338268	-0.744688
C140	C	1.482057	-0.004934	-0.411355
C141	C	1.815390	0.328399	-0.078021
C142	C	1.148633	-0.338359	-0.162486
C143	C	1.481966	-0.005026	0.170847
C144	C	1.815300	0.328307	0.504181
C145	C	1.148775	-0.338184	-0.072874
C146	C	1.482109	-0.004851	0.260459
C147	C	1.815442	0.328483	0.593793
H148	H	1.229009	-0.605614	-0.452502
H149	H	1.562343	-0.272281	-0.119169
H150	H	1.895676	0.061053	0.214164
H151	H	1.041978	-0.605857	-0.265206
H152	H	1.375311	-0.272524	0.068127
H153	H	1.708645	0.060810	0.401461
H154	H	1.068408	-1.070392	-0.291534
H155	H	1.401741	-0.737059	0.041799
H156	H	1.735074	-0.403726	0.375133
H157	H	1.255432	-1.070150	-0.478834
H158	H	1.588766	-0.736817	-0.145501
H159	H	1.922099	-0.403484	0.187832
H160	H	1.215748	-0.825474	-0.439182
H161	H	1.549081	-0.492141	-0.105849
H162	H	1.882414	-0.158807	0.227484
H163	H	1.074860	-0.937317	-0.298042
H164	H	1.408193	-0.603983	0.035291
H165	H	1.741527	-0.270650	0.368625
H166	H	1.261887	-0.937064	-0.485339
H167	H	1.595221	-0.603731	-0.152006
H168	H	1.928554	-0.270397	0.181328
H169	H	1.081658	-0.850538	-0.304865
H170	H	1.414991	-0.517205	0.028468
H171	H	1.748324	-0.183872	0.361801
H172	H	1.222553	-0.738687	-0.445998
H173	H	1.555886	-0.405353	-0.112665
H174	H	1.889220	-0.072020	0.220669
H175	H	1.035525	-0.738942	-0.258706
H176	H	1.368858	-0.405608	0.074627
H177	H	1.702191	-0.072275	0.407960
