data_functionalizedCrystal
_audit_creation_method	'MofGen! by Chris Wilmer'
_symmetry_space_group_name_H-M	'P1'
_symmetry_Int_Tables_number	1
_symmetry_cell_setting	triclinic
loop_
_symmetry_equiv_pos_as_xyz
  x,y,z
_cell_length_a	12.970454
_cell_length_b	17.052862
_cell_length_c	12.970454
_cell_angle_alpha	89.999706
_cell_angle_beta	59.999776
_cell_angle_gamma	50.259530
loop_
_atom_site_label
_atom_site_type_symbol
_atom_site_fract_x
_atom_site_fract_y
_atom_site_fract_z
Zr1	Zr	0.765897	0.914391	0.046006
O2	O	1.041091	0.762834	-0.148671
O3	O	0.532382	0.960852	0.105685
O4	O	0.747471	0.960853	-0.109405
O5	O	0.826003	0.762831	0.236086
O6	O	0.685526	1.117054	-0.078433
O7	O	0.826002	0.762833	0.066420
O8	O	0.300770	1.117052	0.306325
O9	O	1.210758	0.762834	-0.148672
O10	O	0.566765	1.097238	0.154251
O11	O	0.612995	0.980666	0.257757
O12	O	0.866234	0.980668	0.004516
O13	O	0.912464	0.864096	0.108021
Zr14	Zr	0.667104	1.163512	0.366002
Zr15	Zr	0.667102	1.163514	0.095403
Zr16	Zr	0.765899	0.914390	0.316604
Zr17	Zr	1.036497	0.914391	0.046004
Zr18	Zr	0.396504	1.163512	0.366003
O19	O	0.900620	1.117052	0.306322
O20	O	0.900616	1.117054	-0.078434
O21	O	1.041094	0.762831	0.236085
O22	O	0.391910	1.315070	0.560678
O23	O	0.391907	1.315072	0.175922
O24	O	0.532385	0.960849	0.490441
O25	O	0.606998	1.315072	0.175921
O26	O	0.685530	1.117051	0.521413
O27	O	0.747476	0.960849	0.490440
O28	O	0.607000	1.315071	0.345587
O29	O	1.132229	0.960853	-0.109407
O30	O	0.300772	1.117050	0.521414
O31	O	0.222243	1.315070	0.560679
O32	O	0.222241	1.315071	0.345589
O33	O	1.210760	0.762833	0.066418
O34	O	1.132231	0.960852	0.105682
O35	O	0.566767	1.097236	0.407492
O36	O	0.520537	1.213808	0.303986
O37	O	0.820006	1.097238	0.154250
O38	O	0.866236	0.980666	0.257756
C39	C	0.378021	1.038952	0.206005
C40	C	0.263145	1.038952	0.206006
C41	C	0.840079	0.727337	0.144215
C42	C	0.882020	0.621578	0.123244
C43	C	0.374949	0.566860	0.376776
C44	C	0.335538	0.666229	0.396474
C45	C	0.472155	0.655072	0.328169
C46	C	0.648190	0.544535	0.240161
C47	C	0.687606	0.445157	0.220453
C48	C	0.784811	0.533369	0.171846
C49	C	0.960847	0.422832	0.083839
C50	C	1.000254	0.323466	0.064135
C51	C	0.863638	0.334623	0.132440
C52	C	0.745395	0.632746	0.191554
C53	C	1.058052	0.511043	0.035231
C54	C	1.097463	0.411675	0.015534
C55	C	1.054980	1.038952	0.206002
C56	C	1.169857	1.038952	0.206001
C57	C	0.716498	1.038954	-0.132473
C58	C	0.716497	1.038955	-0.247349
C59	C	0.592923	1.350566	0.267792
C60	C	0.550981	1.456326	0.288763
C61	C	0.716503	1.038950	0.544481
C62	C	0.716504	1.038949	0.659357
C63	C	0.254443	1.350566	0.267794
C64	C	0.097625	1.456326	0.288765
C65	C	0.378024	1.038950	0.544482
C66	C	0.263148	1.038949	0.659359
C67	C	0.254446	1.350564	0.606271
C68	C	0.097629	1.456323	0.742118
C69	C	1.178555	0.727340	-0.194264
C70	C	1.335372	0.621581	-0.330111
C71	C	1.178558	0.727337	0.144213
C72	C	1.335376	0.621578	0.123242
C73	C	1.054977	1.038954	-0.132475
C74	C	1.169853	1.038955	-0.247352
C75	C	0.048113	1.445143	0.220442
C76	C	-0.099216	1.544505	0.240120
C77	C	-0.197036	1.655049	0.328128
C78	C	-0.147512	1.666230	0.396452
C79	C	-0.000179	1.566869	0.376767
C80	C	-0.000150	1.566848	0.751887
C81	C	-0.147485	1.666228	0.879521
C82	C	-0.197045	1.655082	0.997385
C83	C	-0.099252	1.544545	0.987612
C84	C	0.048088	1.445167	0.859979
C85	C	1.433164	0.511056	-0.339879
C86	C	1.580533	0.411675	-0.467514
C87	C	1.630099	0.422822	-0.585378
C88	C	1.532298	0.533359	-0.575605
C89	C	1.384940	0.632737	-0.447972
C90	C	1.384900	0.632761	0.191554
C91	C	1.532258	0.533399	0.171847
C92	C	1.630082	0.422855	0.083834
C93	C	1.580553	0.411674	0.015515
C94	C	1.433204	0.511035	0.035215
H95	H	0.602065	0.722738	0.263220
H96	H	0.127756	1.355141	0.148763
H97	H	0.263735	0.575929	0.432375
H98	H	1.750091	0.341893	-0.689296
H99	H	1.572675	0.542421	-0.671585
H100	H	0.440055	0.735985	0.344213
C101	C	-0.255143	1.787829	0.493280
H102	H	-0.204565	1.780271	0.531160
H103	H	-0.373415	1.829100	0.563993
H104	H	-0.253832	1.829130	0.444419
C105	C	-0.255080	1.787806	0.890254
H106	H	-0.349931	1.845404	0.983143
H107	H	-0.300632	1.796488	0.847135
H108	H	-0.181060	1.796534	0.847118
C109	C	1.688160	0.290072	-0.081282
H110	H	1.782990	0.232507	-0.083209
H111	H	1.733741	0.281333	-0.169976
H112	H	1.614129	0.281349	-0.050353
H113	H	-0.139627	1.535486	1.083595
C114	C	0.054343	1.579132	0.622255
H115	H	-0.024995	1.659197	0.646372
H116	H	0.051015	1.542906	0.570213
H117	H	0.170626	1.542894	0.570219
H118	H	0.040114	1.575990	0.432414
H119	H	1.305318	0.722729	-0.440034
H120	H	-0.139516	1.535379	0.184478
C121	C	0.141920	0.787808	0.493280
H122	H	0.138012	0.845393	0.495226
H123	H	0.084146	0.796525	0.581964
H124	H	0.084151	0.796523	0.462359
H125	H	1.240793	0.321664	-0.056124
C126	C	-0.359109	1.764340	0.349786
H127	H	-0.410281	1.831783	0.411980
H128	H	-0.443308	1.764329	0.385164
H129	H	-0.323711	1.764336	0.265565
C130	C	1.378727	0.498720	-0.039917
H131	H	1.458087	0.418651	-0.095139
H132	H	1.382033	0.534949	-0.095286
H133	H	1.262455	0.534941	0.024331
H134	H	1.572558	0.542525	0.227489
H135	H	-0.317023	1.736011	1.101304
H136	H	1.305261	0.722763	0.263229
H137	H	1.169296	0.501955	-0.020391
H138	H	0.895717	0.253714	0.116413
H139	H	0.127686	1.355176	0.852044
H140	H	1.750059	0.341958	0.067805
C141	C	1.688075	0.290101	-0.478239
H142	H	1.637422	0.297704	-0.389760
H143	H	1.806355	0.248799	-0.525765
H144	H	1.686760	0.248804	-0.525789
C145	C	1.193887	0.201880	-0.032677
H146	H	1.269607	0.209464	-0.070527
H147	H	1.215765	0.160583	-0.103413
H148	H	1.215752	0.160590	0.016197
C149	C	1.378668	0.498778	-0.210244
H150	H	1.276893	0.573787	-0.132820
H151	H	1.472528	0.457497	-0.208962
H152	H	1.352940	0.457482	-0.208967
