data_functionalizedCrystal
_audit_creation_method	'MofGen! by Chris Wilmer'
_symmetry_space_group_name_H-M	'P1'
_symmetry_Int_Tables_number	1
_symmetry_cell_setting	triclinic
loop_
_symmetry_equiv_pos_as_xyz
  x,y,z
_cell_length_a	21.395364
_cell_length_b	12.827892
_cell_length_c	21.395356
_cell_angle_alpha	89.977501
_cell_angle_beta	89.976411
_cell_angle_gamma	90.030343
loop_
_atom_site_label
_atom_site_type_symbol
_atom_site_fract_x
_atom_site_fract_y
_atom_site_fract_z
Zn1	Zn	0.957920	-0.415643	-0.354284
Zn2	Zn	1.457920	0.084357	0.145716
Zn3	Zn	0.957852	-0.590397	-0.249516
Zn4	Zn	1.457852	-0.090397	0.250484
Zn5	Zn	0.853137	-0.415716	-0.249521
Zn6	Zn	1.353137	0.084284	0.250479
Zn7	Zn	0.853132	-0.590388	-0.354256
Zn8	Zn	1.353132	-0.090388	0.145744
O9	O	0.905510	-0.503036	-0.301894
O10	O	1.405510	-0.003036	0.198106
O11	O	1.045589	-0.438797	-0.340396
O12	O	1.545589	0.061203	0.159604
O13	O	0.943935	-0.567260	-0.161839
O14	O	1.443935	-0.067260	0.338161
O15	O	0.867067	-0.269471	-0.263431
O16	O	1.367067	0.230529	0.236569
O17	O	1.045539	-0.567189	-0.263423
O18	O	1.545539	-0.067189	0.236577
O19	O	0.944050	-0.269416	-0.340401
O20	O	1.444050	0.230584	0.159599
O21	O	0.867001	-0.438923	-0.161842
O22	O	1.367001	0.061077	0.338158
O23	O	0.765458	-0.438914	-0.263405
O24	O	1.265458	0.061086	0.236595
O25	O	0.867059	-0.567173	-0.441938
O26	O	1.367059	-0.067173	0.058062
O27	O	0.765455	-0.567244	-0.340353
O28	O	1.265455	-0.067244	0.159647
O29	O	0.944046	-0.438788	-0.441958
O30	O	1.444046	0.061212	0.058042
O31	O	0.943931	-0.736632	-0.263397
O32	O	1.443931	-0.236632	0.236603
O33	O	0.866993	-0.736625	-0.340349
O34	O	1.366993	-0.236625	0.159651
C35	C	0.742723	-0.503087	-0.301877
C36	C	1.242723	-0.003087	0.198123
C37	C	0.673081	-0.503134	-0.301884
C38	C	1.173081	-0.003134	0.198116
C39	C	0.640417	-0.436390	-0.342026
C40	C	1.140417	0.063610	0.157974
C41	C	0.574981	-0.436362	-0.342028
C42	C	1.074981	0.063638	0.157972
C43	C	0.542213	-0.503097	-0.301895
C44	C	1.042213	-0.003097	0.198105
C45	C	0.574886	-0.569846	-0.261746
C46	C	1.074886	-0.069846	0.238254
C47	C	0.640320	-0.569864	-0.261740
C48	C	1.140320	-0.069864	0.238260
C49	C	0.438504	-0.597208	-0.296863
C50	C	0.938504	-0.097208	0.203137
C51	C	0.373071	-0.597191	-0.296873
C52	C	0.873071	-0.097191	0.203127
C53	C	0.340392	-0.503039	-0.301909
C54	C	0.840392	-0.003039	0.198091
C55	C	0.373155	-0.408902	-0.306949
C56	C	0.873155	0.091098	0.193051
C57	C	0.438589	-0.408920	-0.306943
C58	C	0.938589	0.091080	0.193057
C59	C	0.471261	-0.503084	-0.301897
C60	C	0.971261	-0.003084	0.198103
C61	C	0.236775	-0.436260	-0.342056
C62	C	0.736775	0.063740	0.157944
C63	C	0.171338	-0.436230	-0.342054
C64	C	0.671338	0.063770	0.157946
C65	C	0.171244	-0.569723	-0.261775
C66	C	0.671244	-0.069723	0.238225
C67	C	0.236680	-0.569743	-0.261774
C68	C	0.736680	-0.069743	0.238226
C69	C	0.269441	-0.503013	-0.301917
C70	C	0.769441	-0.003013	0.198083
C71	C	0.905471	-0.774546	-0.301883
C72	C	1.405471	-0.274546	0.198117
C73	C	0.905512	-0.890699	-0.301899
C74	C	1.405512	-0.390699	0.198101
C75	C	0.943589	-0.942374	-0.340020
C76	C	1.443589	-0.442374	0.159980
C77	C	0.943631	-1.062424	-0.340037
C78	C	1.443631	-0.562424	0.159963
C79	C	1.068933	-0.502986	-0.301912
C80	C	1.568933	-0.002986	0.198088
C81	C	1.138575	-0.502964	-0.301920
C82	C	1.638575	-0.002964	0.198080
C83	C	0.905559	-0.502971	-0.465318
C84	C	1.405559	-0.002971	0.034682
C85	C	0.905580	-0.502944	-0.534959
C86	C	1.405580	-0.002944	-0.034959
C87	C	0.905567	-0.230466	-0.301920
C88	C	1.405567	0.269534	0.198080
C89	C	0.905591	-0.114313	-0.301930
C90	C	1.405591	0.385687	0.198070
C91	C	0.865532	-0.436111	-0.567664
C92	C	1.365532	0.063889	-0.067664
C93	C	0.865530	-0.436092	-0.633099
C94	C	1.365530	0.063908	-0.133099
C95	C	0.905587	-0.502894	-0.665827
C96	C	1.405587	-0.002894	-0.165827
C97	C	0.945639	-0.569740	-0.633114
C98	C	1.445639	-0.069740	-0.133114
C99	C	0.945636	-0.569764	-0.567680
C100	C	1.445636	-0.069764	-0.067680
C101	C	0.962041	-0.511085	-0.769514
C102	C	1.462041	-0.011085	-0.269514
C103	C	0.962045	-0.511053	-0.834947
C104	C	1.462045	-0.011053	-0.334947
C105	C	0.905598	-0.502823	-0.867648
C106	C	1.405598	-0.002823	-0.367648
C107	C	0.849144	-0.494604	-0.834908
C108	C	1.349144	0.005396	-0.334908
C109	C	0.849141	-0.494629	-0.769474
C110	C	1.349141	0.005371	-0.269474
C111	C	0.905595	-0.502875	-0.736780
C112	C	1.405595	-0.002875	-0.236780
C113	C	0.865543	-0.435966	-0.971306
C114	C	1.365543	0.064034	-0.471306
C115	C	0.865540	-0.435954	-1.036742
C116	C	1.365540	0.064046	-0.536742
C117	C	0.945655	-0.569597	-1.036756
C118	C	1.445655	-0.069597	-0.536756
C119	C	0.945653	-0.569614	-0.971321
C120	C	1.445653	-0.069614	-0.471321
C121	C	0.905598	-0.502793	-0.938600
C122	C	1.405598	-0.002793	-0.438600
C123	C	0.905497	-0.503025	-0.139107
C124	C	1.405497	-0.003025	0.360893
C125	C	0.905598	-0.502758	-0.069466
C126	C	1.405598	-0.002758	0.430534
H127	H	0.263451	-0.381917	-0.374739
H128	H	0.763451	0.118083	0.125261
C129	C	0.272616	-0.643171	-0.217625
C130	C	0.772616	-0.143171	0.282375
H131	H	0.316278	-0.633620	-0.223366
H132	H	0.816278	-0.133620	0.276634
H133	H	0.261867	-0.713401	-0.226723
H134	H	0.761867	-0.213401	0.273277
H135	H	0.261878	-0.627776	-0.175541
H136	H	0.761878	-0.127776	0.324459
C137	C	0.989715	-0.643118	-0.935343
C138	C	1.489715	-0.143118	-0.435343
H139	H	1.013576	-0.682895	-0.964205
H140	H	1.513576	-0.182895	-0.464205
H141	H	0.965739	-0.688668	-0.909802
H142	H	1.465739	-0.188668	-0.409802
H143	H	1.017023	-0.603133	-0.909834
H144	H	1.517023	-0.103133	-0.409834
H145	H	0.144565	-0.624060	-0.229098
H146	H	0.644565	-0.124060	0.270902
H147	H	0.548380	-0.382006	-0.374715
H148	H	1.048380	0.117994	0.125285
H149	H	0.978254	-0.624131	-0.659766
H150	H	1.478254	-0.124131	-0.159766
H151	H	0.144744	-0.381873	-0.374741
H152	H	0.644744	0.118127	0.125259
H153	H	0.978251	-0.624187	-0.541052
H154	H	1.478251	-0.124187	-0.041052
H155	H	0.465261	-0.332270	-0.311044
H156	H	0.965261	0.167730	0.188956
C157	C	0.676451	-0.362977	-0.386174
C158	C	1.176451	0.137023	0.113826
H159	H	0.647621	-0.323214	-0.410077
H160	H	1.147621	0.176786	0.089923
H161	H	0.701977	-0.403011	-0.413431
H162	H	1.201977	0.096989	0.086569
H163	H	0.701980	-0.317393	-0.362244
H164	H	1.201980	0.182607	0.137756
H165	H	0.872941	-0.935335	-0.269278
H166	H	1.372941	-0.435335	0.230722
H167	H	0.346549	-0.332234	-0.311050
H168	H	0.846549	0.167766	0.188950
C169	C	0.821470	-0.362616	-0.531674
C170	C	1.321470	0.137384	-0.031674
H171	H	0.797615	-0.322815	-0.560528
H172	H	1.297615	0.177185	-0.060528
H173	H	0.845446	-0.317088	-0.506161
H174	H	1.345446	0.182912	-0.006161
H175	H	0.794156	-0.402612	-0.506136
H176	H	1.294156	0.097388	-0.006136
H177	H	1.008013	-0.517741	-0.861599
H178	H	1.508013	-0.017741	-0.361599
H179	H	1.008011	-0.517778	-0.742894
H180	H	1.508011	-0.017778	-0.242894
H181	H	0.832927	-0.381557	-0.944663
H182	H	1.332927	0.118443	-0.444663
H183	H	0.346401	-0.673844	-0.292773
H184	H	0.846401	-0.173844	0.207227
H185	H	0.465105	-0.673883	-0.292761
H186	H	0.965105	-0.173883	0.207239
C187	C	0.538847	-0.643255	-0.217601
C188	C	1.038847	-0.143255	0.282399
H189	H	0.567675	-0.683005	-0.193689
H190	H	1.067675	-0.183005	0.306311
H191	H	0.513314	-0.688834	-0.241523
H192	H	1.013314	-0.188834	0.258477
H193	H	0.513324	-0.603206	-0.190343
H194	H	1.013324	-0.103206	0.309657
C195	C	0.676253	-0.643295	-0.217588
C196	C	1.176253	-0.143295	0.282412
H197	H	0.647368	-0.683042	-0.193688
H198	H	1.147368	-0.183042	0.306312
H199	H	0.701786	-0.603272	-0.190329
H200	H	1.201786	-0.103272	0.309671
H201	H	0.701767	-0.688891	-0.241515
H202	H	1.201767	-0.188891	0.258485
C203	C	0.987587	-0.882084	-0.384092
C204	C	1.487587	-0.382084	0.115908
H205	H	0.981790	-0.809306	-0.378296
H206	H	1.481790	-0.309306	0.121704
H207	H	0.978415	-0.899893	-0.426194
H208	H	1.478415	-0.399893	0.073806
H209	H	1.029708	-0.899851	-0.374968
H210	H	1.529708	-0.399851	0.125032
H211	H	0.976233	-1.106863	-0.372672
H212	H	1.476233	-0.606863	0.127328
H213	H	0.832923	-0.381534	-1.063370
H214	H	1.332923	0.118466	-0.563370
H215	H	0.872992	-1.069881	-0.269289
H216	H	1.372992	-0.569881	0.230711
C217	C	0.821478	-0.362566	-0.669083
C218	C	1.321478	0.137434	-0.169083
H219	H	0.797626	-0.322770	-0.640223
H220	H	1.297626	0.177230	-0.140223
H221	H	0.794171	-0.402531	-0.694598
H222	H	1.294171	0.097469	-0.194598
H223	H	0.845468	-0.317019	-0.694618
H224	H	1.345468	0.182981	-0.194618
C225	C	0.787049	-0.485600	-0.733459
C226	C	1.287049	0.014400	-0.233459
H227	H	0.795134	-0.486788	-0.689807
H228	H	1.295134	0.013212	-0.189807
H229	H	0.760682	-0.542451	-0.744167
H230	H	1.260682	-0.042451	-0.244167
H231	H	0.767027	-0.421977	-0.744179
H232	H	1.267027	0.078023	-0.244179
C233	C	0.787047	-0.485581	-0.870870
C234	C	1.287047	0.014419	-0.370870
H235	H	0.795131	-0.486764	-0.914529
H236	H	1.295131	0.013236	-0.414529
H237	H	0.767013	-0.421980	-0.860154
H238	H	1.267013	0.078020	-0.360154
H239	H	0.760691	-0.542457	-0.860122
H240	H	1.260691	-0.042457	-0.360122
H241	H	0.978272	-0.623986	-1.063403
H242	H	1.478272	-0.123986	-0.563403
