data_functionalizedCrystal
_audit_creation_method	'MofGen! by Chris Wilmer'
_symmetry_space_group_name_H-M	'P1'
_symmetry_Int_Tables_number	1
_symmetry_cell_setting	triclinic
loop_
_symmetry_equiv_pos_as_xyz
  x,y,z
_cell_length_a	17.077404
_cell_length_b	19.120786
_cell_length_c	17.077396
_cell_angle_alpha	87.528765
_cell_angle_beta	89.980499
_cell_angle_gamma	92.465349
loop_
_atom_site_label
_atom_site_type_symbol
_atom_site_fract_x
_atom_site_fract_y
_atom_site_fract_z
Zn1	Zn	1.186709	-0.279626	-0.430494
Zn2	Zn	1.686709	0.220374	0.069506
Zn3	Zn	1.181010	-0.397090	-0.293620
Zn4	Zn	1.681010	0.102910	0.206380
Zn5	Zn	1.055439	-0.279651	-0.299241
Zn6	Zn	1.555439	0.220349	0.200759
Zn7	Zn	1.049804	-0.397049	-0.424846
Zn8	Zn	1.549804	0.102951	0.075154
O9	O	1.118240	-0.338354	-0.362050
O10	O	1.618240	0.161646	0.137950
O11	O	1.295799	-0.295215	-0.412349
O12	O	1.795799	0.204785	0.087651
O13	O	1.164326	-0.381539	-0.184518
O14	O	1.664326	0.118461	0.315482
O15	O	1.077596	-0.181357	-0.321368
O16	O	1.577596	0.318643	0.178632
O17	O	1.291612	-0.381516	-0.311789
O18	O	1.791612	0.118484	0.188211
O19	O	1.174039	-0.181339	-0.417799
O20	O	1.674039	0.318661	0.082201
O21	O	1.072070	-0.295257	-0.188647
O22	O	1.572070	0.204743	0.311353
O23	O	0.944845	-0.295217	-0.315891
O24	O	1.444845	0.204783	0.184109
O25	O	1.067992	-0.381445	-0.535444
O26	O	1.567992	0.118555	-0.035444
O27	O	0.940705	-0.381468	-0.408173
O28	O	1.440705	0.118532	0.091827
O29	O	1.168575	-0.295175	-0.539593
O30	O	1.668575	0.204825	-0.039593
O31	O	1.158861	-0.495375	-0.306312
O32	O	1.658861	0.004625	0.193688
O33	O	1.062465	-0.495345	-0.402723
O34	O	1.562465	0.004655	0.097277
C35	C	0.914293	-0.338341	-0.362029
C36	C	1.414293	0.161659	0.137971
C37	C	0.827043	-0.338353	-0.362038
C38	C	1.327043	0.161647	0.137962
C39	C	1.109455	-0.520845	-0.353312
C40	C	1.609455	-0.020845	0.146688
C41	C	1.105768	-0.598916	-0.349600
C42	C	1.605768	-0.098916	0.150400
C43	C	0.783914	-0.383332	-0.410005
C44	C	1.283914	0.116668	0.089995
C45	C	0.701934	-0.383333	-0.410018
C46	C	1.201934	0.116667	0.089982
C47	C	0.663083	-0.338359	-0.362058
C48	C	1.163083	0.161641	0.137942
C49	C	0.706218	-0.293375	-0.314089
C50	C	1.206218	0.206625	0.185911
C51	C	0.788197	-0.293370	-0.314081
C52	C	1.288197	0.206630	0.185919
C53	C	0.535347	-0.293389	-0.314107
C54	C	1.035347	0.206611	0.185893
C55	C	0.453362	-0.293394	-0.314114
C56	C	0.953362	0.206606	0.185886
C57	C	0.449084	-0.383352	-0.410044
C58	C	0.949084	0.116648	0.089956
C59	C	0.531063	-0.383347	-0.410036
C60	C	1.031063	0.116653	0.089964
C61	C	0.574192	-0.338364	-0.362066
C62	C	1.074192	0.161636	0.137934
C63	C	1.154211	-0.635524	-0.398103
C64	C	1.654211	-0.135524	0.101897
C65	C	1.150744	-0.708880	-0.394617
C66	C	1.650744	-0.208880	0.105383
C67	C	1.098837	-0.745626	-0.342622
C68	C	1.598837	-0.245626	0.157378
C69	C	1.050388	-0.709013	-0.294117
C70	C	1.550388	-0.209013	0.205883
C71	C	1.053852	-0.635659	-0.297608
C72	C	1.553852	-0.135659	0.202392
C73	C	1.085865	-0.967112	-0.329571
C74	C	1.585865	-0.467112	0.170429
C75	C	1.082406	-1.040471	-0.326082
C76	C	1.582406	-0.540471	0.173918
C77	C	1.182761	-1.040333	-0.426584
C78	C	1.682761	-0.540333	0.073416
C79	C	1.186224	-0.966977	-0.430067
C80	C	1.686224	-0.466977	0.069933
C81	C	1.137772	-0.930371	-0.381564
C82	C	1.637772	-0.430371	0.118436
C83	C	1.095293	-0.820607	-0.339055
C84	C	1.595293	-0.320607	0.160945
C85	C	1.141313	-0.855391	-0.385136
C86	C	1.641313	-0.355391	0.114864
C87	C	1.322984	-0.338367	-0.362072
C88	C	1.822984	0.161633	0.137928
C89	C	1.410234	-0.338373	-0.362081
C90	C	1.910234	0.161627	0.137919
C91	C	1.118290	-0.338302	-0.566797
C92	C	1.618290	0.161698	-0.066797
C93	C	1.118312	-0.338280	-0.654048
C94	C	1.618312	0.161720	-0.154048
C95	C	1.127082	-0.155150	-0.370840
C96	C	1.627082	0.344850	0.129160
C97	C	1.130849	-0.077079	-0.374586
C98	C	1.630849	0.422921	0.125414
C99	C	1.170687	-0.293356	-0.697200
C100	C	1.670687	0.206644	-0.197200
C101	C	1.170698	-0.293333	-0.779182
C102	C	1.670698	0.206667	-0.279182
C103	C	1.118336	-0.338238	-0.818010
C104	C	1.618336	0.161762	-0.318010
C105	C	1.065955	-0.383164	-0.774852
C106	C	1.565955	0.116836	-0.274852
C107	C	1.065941	-0.383183	-0.692872
C108	C	1.565941	0.116817	-0.192872
C109	C	1.065988	-0.383122	-0.945724
C110	C	1.565988	0.116878	-0.445724
C111	C	1.066003	-0.383103	-1.027709
C112	C	1.566003	0.116897	-0.527709
C113	C	1.170745	-0.293271	-1.032034
C114	C	1.670745	0.206729	-0.532034
C115	C	1.170732	-0.293290	-0.950054
C116	C	1.670732	0.206710	-0.450054
C117	C	1.118351	-0.338218	-0.906902
C118	C	1.618351	0.161782	-0.406902
C119	C	1.118238	-0.338355	-0.158102
C120	C	1.618238	0.161645	0.341898
C121	C	1.118379	-0.338179	-0.070861
C122	C	1.618379	0.161821	0.429139
H123	H	0.815540	-0.419958	-0.449057
H124	H	1.315540	0.080042	0.050943
Br125	Br	1.241760	-0.232415	-0.644513
Br126	Br	1.741760	0.267585	-0.144513
Br127	Br	1.211749	-0.805520	-0.455703
Br128	Br	1.711749	-0.305520	0.044297
H129	H	1.046415	-0.937313	-0.290077
H130	H	1.546415	-0.437313	0.209923
H131	H	1.040133	-1.070388	-0.283742
H132	H	1.540133	-0.570388	0.216258
H133	H	1.213349	-0.256752	-0.814313
H134	H	1.713349	0.243248	-0.314313
H135	H	1.228491	-0.937060	-0.472405
H136	H	1.728491	-0.437060	0.027595
Br137	Br	0.979932	-0.758882	-0.223562
Br138	Br	1.479932	-0.258882	0.276438
Br139	Br	0.988102	-0.585975	-0.231783
Br140	Br	1.488102	-0.085975	0.268217
H141	H	1.196483	-0.605610	-0.440439
H142	H	1.696483	-0.105610	0.059561
Br143	Br	1.241801	-0.232353	-0.897359
Br144	Br	1.741801	0.267647	-0.397359
H145	H	1.023364	-0.419668	-1.059320
H146	H	1.523364	0.080332	-0.559320
H147	H	0.570461	-0.256752	-0.275052
H148	H	1.070461	0.243248	0.224948
H149	H	0.666822	-0.419960	-0.449077
H150	H	1.166822	0.080040	0.050923
H151	H	1.023323	-0.419695	-0.910592
H152	H	1.523323	0.080305	-0.410592
Br153	Br	1.024843	-0.870483	-0.268500
Br154	Br	1.524843	-0.370483	0.231500
Br155	Br	1.241836	-0.232301	-1.090597
Br156	Br	1.741836	0.267699	-0.590597
H157	H	1.023318	-0.419724	-0.806472
H158	H	1.523318	0.080276	-0.306472
H159	H	1.023284	-0.419758	-0.657738
H160	H	1.523284	0.080242	-0.157738
H161	H	0.421733	-0.256764	-0.275071
H162	H	0.921733	0.243236	0.224929
Br163	Br	0.390554	-0.444391	-0.475158
Br164	Br	0.890554	0.055609	0.024842
Br165	Br	0.653493	-0.232331	-0.249008
Br166	Br	1.153493	0.267669	0.250992
Br167	Br	0.583789	-0.444391	-0.475117
Br168	Br	1.083789	0.055609	0.024883
Br169	Br	0.846730	-0.232321	-0.248985
Br170	Br	1.346730	0.267679	0.251015
H171	H	1.190198	-0.738683	-0.434107
H172	H	1.690198	-0.238683	0.065893
Br173	Br	1.248511	-1.090017	-0.492406
Br174	Br	1.748511	-0.590017	0.007594
