data_functionalizedCrystal
_audit_creation_method	'MofGen! by Chris Wilmer'
_symmetry_space_group_name_H-M	'P1'
_symmetry_Int_Tables_number	1
_symmetry_cell_setting	triclinic
loop_
_symmetry_equiv_pos_as_xyz
  x,y,z
_cell_length_a	8.497374
_cell_length_b	17.077404
_cell_length_c	17.077402
_cell_angle_alpha	89.976892
_cell_angle_beta	89.987778
_cell_angle_gamma	90.003463
loop_
_atom_site_label
_atom_site_type_symbol
_atom_site_fract_x
_atom_site_fract_y
_atom_site_fract_z
Zn1	Zn	0.891988	1.199930	0.312640
Zn2	Zn	0.628173	1.199874	0.443874
Zn3	Zn	0.628207	1.068699	0.312627
Zn4	Zn	0.891897	1.068630	0.443868
O5	O	0.760066	1.134283	0.378252
O6	O	0.857016	1.309770	0.330056
O7	O	0.407415	1.182479	0.426461
O8	O	0.663251	1.086159	0.202782
O9	O	0.663193	1.309729	0.426474
O10	O	0.857049	1.182574	0.202791
O11	O	0.407440	1.086105	0.330034
O12	O	0.663162	0.958843	0.330028
O13	O	1.112671	1.086042	0.426463
O14	O	0.856894	0.958792	0.426450
O15	O	1.112738	1.182508	0.330050
O16	O	0.663104	1.182412	0.553720
O17	O	0.856861	1.085988	0.553716
C18	C	0.760023	0.930336	0.378238
C19	C	0.760042	0.843086	0.378251
C20	C	0.760003	1.134208	0.582200
C21	C	0.760029	1.134247	0.669450
C22	C	0.860756	0.802090	0.428533
C23	C	0.860781	0.720109	0.428535
C24	C	0.760083	0.679126	0.378257
C25	C	0.659364	0.720128	0.327969
C26	C	0.659348	0.802107	0.327964
C27	C	0.659402	0.549258	0.327985
C28	C	0.659416	0.467273	0.327991
C29	C	0.860835	0.467260	0.428556
C30	C	0.860819	0.549239	0.428551
C31	C	0.760098	0.590235	0.378263
C32	C	1.171547	1.134278	0.378253
C33	C	1.350191	1.134279	0.378262
C34	C	0.760111	1.339028	0.378267
C35	C	0.760130	1.426277	0.378273
C36	C	0.760164	1.134381	0.173508
C37	C	0.760206	1.134422	0.086258
C38	C	0.659248	1.184506	0.710416
C39	C	0.659289	1.184545	0.792397
C40	C	0.760103	1.134319	0.833409
C41	C	0.860895	1.084058	0.792437
C42	C	0.860861	1.084024	0.710458
C43	C	0.860955	1.084130	0.963307
C44	C	0.860986	1.084163	1.045291
C45	C	0.659382	1.184651	1.045246
C46	C	0.659349	1.184618	0.963267
C47	C	0.760139	1.134355	0.922300
H48	H	0.942751	0.835452	0.469478
O49	O	0.958385	0.680196	0.477420
C50	C	0.868380	0.632764	0.528058
H51	H	0.748933	0.620487	0.500273
H52	H	0.932606	0.575117	0.538631
H53	H	0.850821	0.664334	0.586215
O54	O	0.958979	1.035242	0.670745
C55	C	1.116250	1.052357	0.690718
H56	H	1.119593	1.082551	0.750217
H57	H	1.186895	0.995678	0.693550
H58	H	1.169434	1.092678	0.644538
O59	O	0.561331	1.233506	1.084915
C60	C	0.472364	1.277839	1.031137
H61	H	0.466820	1.245662	0.972729
H62	H	0.348093	1.286274	1.054843
H63	H	0.530235	1.337429	1.022354
O64	O	0.958780	0.588930	0.477416
C65	C	1.047656	0.535170	0.521816
H66	H	1.053255	0.476742	0.489675
H67	H	1.171914	0.558867	0.530285
H68	H	0.989671	0.526428	0.581388
O69	O	0.959080	1.035357	1.085011
C70	C	1.048020	0.990980	1.031276
H71	H	1.053509	1.023102	0.972809
H72	H	1.172312	0.982578	1.054947
H73	H	0.990161	0.931377	1.022622
H74	H	0.943034	1.043203	0.929955
H75	H	0.942850	0.433878	0.469499
O76	O	0.958753	1.035160	0.832186
C77	C	0.924101	0.956930	0.812238
H78	H	0.863428	0.955305	0.752730
H79	H	1.037892	0.921684	0.809436
H80	H	0.842966	0.930542	0.858414
O81	O	0.561558	0.427582	0.279074
C82	C	0.472638	0.481343	0.234696
H83	H	0.537249	0.539788	0.232024
H84	H	0.456053	0.457671	0.172838
H85	H	0.352711	0.490042	0.263339
H86	H	0.577398	0.582634	0.287028
H87	H	0.577381	0.686753	0.287029
H88	H	0.577222	1.225471	0.825748
O89	O	0.561356	0.841812	0.279099
C90	C	0.472503	0.788062	0.234711
H91	H	0.466940	0.729613	0.266862
H92	H	0.348231	0.811741	0.226242
H93	H	0.530485	0.779370	0.175139
O94	O	0.561261	1.233369	0.670702
C95	C	0.472292	1.277723	0.724444
H96	H	0.536942	1.280438	0.782864
H97	H	0.455563	1.339567	0.700710
H98	H	0.352430	1.249030	0.733213
H99	H	0.577251	1.225511	0.929875
