data_functionalizedCrystal
_audit_creation_method	'MofGen! by Chris Wilmer'
_symmetry_space_group_name_H-M	'P1'
_symmetry_Int_Tables_number	1
_symmetry_cell_setting	triclinic
loop_
_symmetry_equiv_pos_as_xyz
  x,y,z
_cell_length_a	19.188930
_cell_length_b	17.038272
_cell_length_c	17.666332
_cell_angle_alpha	89.996433
_cell_angle_beta	89.988397
_cell_angle_gamma	87.128169
loop_
_atom_site_label
_atom_site_type_symbol
_atom_site_fract_x
_atom_site_fract_y
_atom_site_fract_z
O1	O	0.151587	1.036898	-0.062869
O2	O	0.149180	0.809275	-0.062891
O3	O	0.049136	0.929655	-0.062864
O4	O	0.251631	0.916518	-0.062895
O5	O	0.049129	0.929634	0.063033
O6	O	0.149173	0.809254	0.063006
O7	O	0.151580	1.036877	0.063028
Cu8	Cu	0.150376	0.923064	0.074512
Cu9	Cu	0.150384	0.923089	-0.074375
O10	O	0.251624	0.916497	0.063002
C11	C	0.146987	0.780143	0.000055
C12	C	0.140456	0.693371	0.000047
C13	C	0.200422	0.643069	0.000039
C14	C	0.194281	0.561538	0.000050
C15	C	0.128173	0.530310	0.000065
C16	C	0.068202	0.580618	0.000076
C17	C	0.074344	0.662147	0.000070
C18	C	0.106475	0.284619	0.000088
C19	C	0.100337	0.203083	0.000092
C20	C	0.226417	0.184009	0.000068
C21	C	0.232553	0.265541	0.000058
C22	C	0.172582	0.315842	0.000072
C23	C	0.121894	0.446972	0.000074
C24	C	0.178862	0.399178	0.000069
C25	C	0.023095	0.929219	0.000086
C26	C	-0.054489	0.927942	0.000093
C27	C	-0.095025	0.998578	0.000103
C28	C	-0.167923	0.997378	0.000091
C29	C	-0.200283	0.925539	0.000083
C30	C	-0.159738	0.854894	0.000069
C31	C	-0.086841	0.856096	0.000073
N32	N	-0.311702	0.870619	0.042923
N33	N	-0.380951	0.869482	0.042920
C34	C	-0.419917	0.921913	0.000068
N35	N	-0.387018	0.975536	-0.042772
N36	N	-0.317762	0.976675	-0.042766
C37	C	-0.279327	0.924228	0.000078
C38	C	-0.539497	0.991253	0.000064
C39	C	-0.612397	0.990050	0.000047
C40	C	-0.604210	0.847564	0.000032
C41	C	-0.531312	0.848769	0.000042
C42	C	-0.498960	0.920615	0.000061
C43	C	0.277665	0.916933	0.000050
C44	C	0.355249	0.918210	0.000038
C45	C	0.153772	1.066009	0.000081
C46	C	0.160304	1.152782	0.000083
N47	N	0.150370	0.923052	0.179232
N48	N	0.150385	0.923107	-0.179094
C49	C	0.106095	0.976374	0.218853
C50	C	0.106091	0.976378	0.298101
C51	C	0.150376	0.923068	0.337724
C52	C	0.194654	0.869737	0.298093
C53	C	0.194651	0.869729	0.218847
N54	N	0.211552	0.912907	0.462133
N55	N	0.211553	0.912919	0.537413
C56	C	0.150387	0.923089	0.576488
N57	N	0.089219	0.933261	0.537439
N58	N	0.089219	0.933252	0.462151
C59	C	0.150384	0.923071	0.423653
C60	C	0.106105	0.976418	0.702039
C61	C	0.106100	0.976418	0.781288
C62	C	0.194670	0.869780	0.781279
C63	C	0.194668	0.869777	0.702031
C64	C	0.150386	0.923101	0.662416
H65	H	0.057642	0.325565	0.000101
O66	O	0.003999	0.550247	-0.000044
C67	C	-0.003316	0.503643	-0.065235
H68	H	0.034309	0.522802	-0.110815
H69	H	-0.059139	0.511155	-0.087112
H70	H	0.008966	0.439290	-0.050494
H71	H	0.286386	0.290960	0.000037
H72	H	0.230706	0.826307	0.186587
O73	O	-0.491857	0.780205	0.000140
C74	C	-0.449473	0.776618	0.065355
H75	H	-0.442112	0.838647	0.087101
H76	H	-0.396475	0.747316	0.050690
H77	H	-0.475557	0.740989	0.111007
O78	O	-0.207383	1.065945	0.000207
C79	C	-0.249793	1.069499	0.065420
H80	H	-0.257162	1.007459	0.087143
H81	H	-0.302784	1.098808	0.050762
H82	H	-0.223728	1.105105	0.111087
O83	O	-0.651672	1.058741	0.000090
C84	C	-0.607481	1.122407	0.000090
H85	H	-0.554325	1.102372	0.023927
H86	H	-0.631416	1.171874	0.036649
H87	H	-0.600970	1.144456	-0.060303
O88	O	0.016021	0.710902	0.000040
C89	C	-0.043646	0.665859	0.000071
H90	H	-0.029543	0.604945	-0.023763
H91	H	-0.085958	0.696088	-0.036474
H92	H	-0.063685	0.660121	0.060474
H93	H	0.070036	1.019791	0.186601
O94	O	0.036132	0.172707	-0.000023
C95	C	0.028816	0.126104	-0.065214
H96	H	0.066435	0.145269	-0.110798
H97	H	-0.027009	0.133609	-0.087085
H98	H	0.041107	0.061752	-0.050475
O99	O	-0.047431	0.787498	-0.000067
C100	C	-0.004989	0.783952	-0.065255
H101	H	-0.029267	0.824025	-0.110826
H102	H	-0.000535	0.720962	-0.087150
H103	H	0.049154	0.804001	-0.050505
O104	O	0.252555	0.512710	-0.000095
C105	C	0.292411	0.526845	-0.065300
H106	H	0.257211	0.554834	-0.110867
H107	H	0.316970	0.468902	-0.087187
H108	H	0.335279	0.568226	-0.050574
O109	O	-0.635747	0.777847	0.000055
C110	C	-0.708781	0.791931	0.000029
H111	H	-0.722261	0.852986	0.023872
H112	H	-0.733882	0.745968	0.036569
H113	H	-0.729256	0.788227	-0.060374
O114	O	-0.507984	1.060990	-0.000028
C115	C	-0.466057	1.065962	-0.065235
H116	H	-0.451580	1.004291	-0.086976
H117	H	-0.416531	1.096954	-0.050563
H118	H	-0.496157	1.100662	-0.110894
H119	H	0.232687	0.424608	0.000061
H120	H	0.070036	1.019800	0.330367
H121	H	0.230710	0.826330	0.330358
O122	O	0.237749	0.817957	0.663656
C123	C	0.276824	0.770890	0.715618
H124	H	0.279534	0.802939	0.772102
H125	H	0.331856	0.758770	0.692708
H126	H	0.250679	0.712904	0.724061
H127	H	-0.186090	0.796402	0.000061
H128	H	0.070046	1.019835	0.669783
O129	O	0.057661	0.416674	0.000213
C130	C	0.020795	0.442414	0.065407
H131	H	0.059360	0.459250	0.110977
H132	H	-0.011838	0.393122	0.087298
H133	H	-0.014948	0.495684	0.050664
H134	H	0.254254	0.668488	0.000027
O135	O	0.063068	1.028294	0.819661
C136	C	0.023976	1.075341	0.767699
H137	H	0.052648	1.076115	0.711202
H138	H	0.017075	1.137804	0.790589
H139	H	-0.029406	1.050150	0.759287
O140	O	0.237590	0.817961	0.819841
C141	C	0.197315	0.769859	0.865682
H142	H	0.144558	0.801183	0.877564
H143	H	0.225713	0.757394	0.921402
H144	H	0.189109	0.712105	0.835149
H145	H	0.275242	0.143046	0.000058
H146	H	-0.068689	1.057080	0.000116
