data_functionalizedCrystal
_audit_creation_method	'MofGen! by Chris Wilmer'
_symmetry_space_group_name_H-M	'P1'
_symmetry_Int_Tables_number	1
_symmetry_cell_setting	triclinic
loop_
_symmetry_equiv_pos_as_xyz
  x,y,z
_cell_length_a	16.992694
_cell_length_b	16.992695
_cell_length_c	15.455313
_cell_angle_alpha	92.847427
_cell_angle_beta	87.142206
_cell_angle_gamma	90.668223
loop_
_atom_site_label
_atom_site_type_symbol
_atom_site_fract_x
_atom_site_fract_y
_atom_site_fract_z
O1	O	1.054080	0.163694	-0.072023
O2	O	1.554080	0.663694	0.427977
O3	O	0.825681	0.161862	-0.072048
O4	O	1.325681	0.661862	0.427952
O5	O	0.938965	0.048579	-0.072029
O6	O	1.438965	0.548579	0.427971
O7	O	0.940797	0.276978	-0.072042
O8	O	1.440797	0.776978	0.427958
O9	O	0.932485	0.055028	0.072232
O10	O	1.432485	0.555028	0.572232
O11	O	0.819202	0.168312	0.072213
O12	O	1.319202	0.668312	0.572213
O13	O	1.047601	0.170144	0.072238
O14	O	1.547601	0.670144	0.572238
Cu15	Cu	0.932809	0.169817	0.085398
Cu16	Cu	1.432809	0.669817	0.585398
Cu17	Cu	0.940473	0.162189	-0.085207
Cu18	Cu	1.440473	0.662189	0.414793
O19	O	0.934317	0.283428	0.072219
O20	O	1.434317	0.783428	0.572219
C21	C	0.793081	0.162731	0.000079
C22	C	1.293081	0.662731	0.500079
C23	C	0.705597	0.155702	0.000070
C24	C	1.205597	0.655702	0.500070
C25	C	0.659607	0.223520	0.000066
C26	C	1.159607	0.723520	0.500066
C27	C	0.577405	0.216911	0.000079
C28	C	1.077405	0.716911	0.500079
C29	C	0.541197	0.142484	0.000088
C30	C	1.041197	0.642484	0.500088
C31	C	0.587193	0.074661	0.000094
C32	C	1.087193	0.574661	0.500094
C33	C	0.669393	0.081271	0.000088
C34	C	1.169393	0.581271	0.500088
C35	C	0.295881	0.115091	0.000113
C36	C	0.795881	0.615091	0.500113
C37	C	0.213676	0.108486	0.000116
C38	C	0.713676	0.608486	0.500116
C39	C	0.203893	0.250737	0.000103
C40	C	0.703893	0.750737	0.500103
C41	C	0.286095	0.257340	0.000091
C42	C	0.786095	0.757340	0.500091
C43	C	0.332084	0.189517	0.000102
C44	C	0.832084	0.689517	0.500102
N45	N	0.457174	0.135727	0.000098
N46	N	0.957174	0.635727	0.500098
N47	N	0.416105	0.196275	0.000098
N48	N	0.916105	0.696275	0.500098
C49	C	0.933369	0.022443	0.000102
C50	C	1.433369	0.522443	0.500102
C51	C	0.926341	-0.065041	0.000101
C52	C	1.426341	0.434959	0.500101
C53	C	0.994158	-0.111032	0.000109
C54	C	1.494158	0.388968	0.500109
C55	C	0.987550	-0.193233	0.000100
C56	C	1.487550	0.306767	0.500100
C57	C	0.913123	-0.229442	0.000089
C58	C	1.413123	0.270558	0.500089
C59	C	0.845300	-0.183445	0.000078
C60	C	1.345300	0.316555	0.500078
C61	C	0.851910	-0.101246	0.000081
C62	C	1.351910	0.398754	0.500081
C63	C	0.885729	-0.474757	0.000074
C64	C	1.385729	0.025243	0.500074
C65	C	0.879124	-0.556962	0.000074
C66	C	1.379124	-0.056962	0.500074
C67	C	1.021375	-0.566744	0.000094
C68	C	1.521375	-0.066744	0.500094
C69	C	1.027977	-0.484543	0.000102
C70	C	1.527977	0.015457	0.500102
C71	C	0.960155	-0.438554	0.000087
C72	C	1.460155	0.061446	0.500087
N73	N	0.906366	-0.313464	0.000082
N74	N	1.406366	0.186536	0.500082
N75	N	0.966913	-0.354533	0.000087
N76	N	1.466913	0.145467	0.500087
C77	C	1.080201	0.169275	0.000109
C78	C	1.580201	0.669275	0.500109
C79	C	1.167685	0.176304	0.000113
C80	C	1.667685	0.676304	0.500113
C81	C	0.939913	0.309563	0.000087
C82	C	1.439913	0.809563	0.500087
C83	C	0.946942	0.397047	0.000082
C84	C	1.446942	0.897047	0.500082
N85	N	0.927425	0.175181	0.205392
N86	N	1.427425	0.675181	0.705392
N87	N	0.945863	0.156819	-0.205202
N88	N	1.445863	0.656819	0.294798
C89	C	0.975571	0.127074	0.250795
C90	C	1.475571	0.627074	0.750795
C91	C	0.971507	0.131139	0.341602
C92	C	1.471507	0.631139	0.841602
C93	C	0.919301	0.183315	0.387005
C94	C	1.419301	0.683315	0.887005
C95	C	0.871149	0.231424	0.341596
C96	C	1.371149	0.731424	0.841596
C97	C	0.875210	0.227355	0.250791
C98	C	1.375210	0.727355	0.750791
C99	C	0.901772	0.200858	0.658584
C100	C	1.401772	0.700858	1.158584
C101	C	0.897717	0.204926	0.749395
C102	C	1.397717	0.704926	1.249395
C103	C	0.998074	0.104639	0.749395
C104	C	1.498074	0.604639	1.249395
C105	C	1.002133	0.100578	0.658588
C106	C	1.502133	0.600578	1.158588
C107	C	0.953979	0.148684	0.613187
C108	C	1.453979	0.648684	1.113187
N109	N	0.915147	0.187473	0.479825
N110	N	1.415147	0.687473	0.979825
N111	N	0.958129	0.144522	0.520369
N112	N	1.458129	0.644522	1.020369
H113	H	0.315570	0.317946	0.000074
H114	H	0.815570	0.817946	0.500074
H115	H	0.830503	-0.437322	0.000061
H116	H	1.330503	0.062678	0.500061
H117	H	0.166440	0.305954	0.000096
H118	H	0.666440	0.805954	0.500096
N119	N	0.548134	-0.005611	0.000103
N120	N	1.048134	0.494389	0.500103
H121	H	0.566973	-0.037948	-0.053372
H122	H	1.066973	0.462052	0.446628
H123	H	0.562192	-0.033099	0.053619
H124	H	1.062192	0.466901	0.553619
N125	N	0.527765	0.290034	0.000088
N126	N	1.027765	0.790034	0.500088
H127	H	0.491059	0.292824	0.053577
H128	H	0.991059	0.792824	0.553577
H129	H	0.563198	0.338167	0.000050
H130	H	1.063198	0.838167	0.500050
H131	H	0.818513	-0.586440	0.000079
H132	H	1.318513	-0.086440	0.500079
N133	N	1.074433	-0.071981	0.000129
N134	N	1.574433	0.428019	0.500129
H135	H	1.116392	-0.113592	0.000132
H136	H	1.616392	0.386408	0.500132
H137	H	1.082678	-0.040475	-0.053347
H138	H	1.582678	0.459525	0.446653
H139	H	1.076591	-0.604197	0.000106
H140	H	1.576591	-0.104197	0.500106
N141	N	0.174621	0.028207	0.000149
N142	N	0.674621	0.528207	0.500149
H143	H	0.115570	0.034315	0.000151
H144	H	0.615570	0.534315	0.500151
H145	H	0.193517	-0.004101	-0.053322
H146	H	0.693517	0.495899	0.446678
N147	N	1.108255	-0.445495	0.000085
N148	N	1.608255	0.054505	0.500085
H149	H	1.102151	-0.386443	0.000081
H150	H	1.602151	0.113557	0.500081
H151	H	1.135769	-0.459606	0.053561
H152	H	1.635769	0.040394	0.553561
N153	N	0.765024	-0.222495	0.000060
N154	N	1.265024	0.277505	0.500060
H155	H	0.771126	-0.281547	0.000063
H156	H	1.271126	0.218453	0.500063
H157	H	0.732718	-0.203600	0.053535
H158	H	1.232718	0.296400	0.553535
N159	N	1.031866	0.070782	0.201831
N160	N	1.531866	0.570782	0.701831
H161	H	1.027132	0.075499	0.137416
H162	H	1.527132	0.575499	0.637416
H163	H	1.087573	0.084106	0.217687
H164	H	1.587573	0.584106	0.717687
H165	H	1.010711	0.091966	0.378568
H166	H	1.510711	0.591966	0.878568
H167	H	1.044644	0.058092	0.621622
H168	H	1.544644	0.558092	1.121622
H169	H	0.796685	-0.063801	0.000073
H170	H	1.296685	0.436199	0.500073
H171	H	1.042774	-0.230675	0.000109
H172	H	1.542774	0.269325	0.500109
N173	N	1.050008	0.052756	0.798362
N174	N	1.550008	0.552756	1.298362
H175	H	1.039516	0.063248	0.862776
H176	H	1.539516	0.563248	1.362776
H177	H	1.038127	-0.004374	0.782500
H178	H	1.538127	0.495626	1.282500
H179	H	0.855202	0.247417	0.786359
H180	H	1.355202	0.747417	1.286359
H181	H	0.862564	0.240030	0.621625
H182	H	1.362564	0.740030	1.121625
N183	N	0.814834	0.287695	0.390562
N184	N	1.314834	0.787695	0.890562
H185	H	0.819568	0.282975	0.454977
H186	H	1.319568	0.782975	0.954977
H187	H	0.828131	0.343403	0.374676
H188	H	1.328131	0.843403	0.874676
N189	N	0.823278	0.279236	0.201816
N190	N	1.323278	0.779236	0.701816
H191	H	0.789589	0.312908	0.244356
H192	H	1.289589	0.812908	0.744356
H193	H	0.857274	0.314256	0.164127
H194	H	1.357274	0.814256	0.664127
H195	H	0.333316	0.059864	0.000122
H196	H	0.833316	0.559864	0.500122
N197	N	0.698658	0.303795	0.000046
N198	N	1.198658	0.803795	0.500046
H199	H	0.657047	0.345754	0.000046
H200	H	1.157047	0.845754	0.500046
H201	H	0.730157	0.312030	0.053521
H202	H	1.230157	0.812030	0.553521
H203	H	0.706838	0.026046	0.000090
H204	H	1.206838	0.526046	0.500090
