data_functionalizedCrystal
_audit_creation_method	'MofGen! by Chris Wilmer'
_symmetry_space_group_name_H-M	'P1'
_symmetry_Int_Tables_number	1
_symmetry_cell_setting	triclinic
loop_
_symmetry_equiv_pos_as_xyz
  x,y,z
_cell_length_a	11.792241
_cell_length_b	11.792254
_cell_length_c	11.295483
_cell_angle_alpha	94.123239
_cell_angle_beta	85.870734
_cell_angle_gamma	84.196007
loop_
_atom_site_label
_atom_site_type_symbol
_atom_site_fract_x
_atom_site_fract_y
_atom_site_fract_z
O1	O	1.514505	0.147979	-0.098909
O2	O	2.014505	0.647979	0.401091
O3	O	1.184167	0.164010	-0.098937
O4	O	1.684167	0.664010	0.401063
O5	O	1.357344	-0.009174	-0.098914
O6	O	1.857344	0.490826	0.401086
O7	O	1.341327	0.321163	-0.098932
O8	O	1.841327	0.821163	0.401068
O9	O	1.342133	0.006013	0.099135
O10	O	1.842133	0.506013	0.599135
O11	O	1.168956	0.179198	0.099112
O12	O	1.668956	0.679198	0.599112
O13	O	1.499294	0.163167	0.099140
O14	O	1.999294	0.663167	0.599140
Cu15	Cu	1.332736	0.172569	0.117209
Cu16	Cu	1.832736	0.672569	0.617209
Cu17	Cu	1.350725	0.154608	-0.117007
Cu18	Cu	1.850725	0.654608	0.382993
O19	O	1.326117	0.336351	0.099117
O20	O	1.826117	0.836351	0.599117
C21	C	1.134271	0.170596	0.000084
C22	C	1.634271	0.670596	0.500084
C23	C	1.008257	0.167581	0.000073
C24	C	1.508257	0.667581	0.500073
C25	C	0.777542	0.162041	0.000108
C26	C	1.277542	0.662041	0.500108
C27	C	0.905929	0.165119	0.000089
C28	C	1.405929	0.665119	0.500089
C29	C	1.348730	-0.043871	0.000110
C30	C	1.848730	0.456129	0.500110
C31	C	1.345710	-0.169884	0.000109
C32	C	1.845710	0.330116	0.500109
C33	C	1.343256	-0.272221	0.000104
C34	C	1.843256	0.227779	0.500104
C35	C	1.340188	-0.400609	0.000093
C36	C	1.840188	0.099391	0.500093
C37	C	1.549190	0.156580	0.000116
C38	C	2.049190	0.656580	0.500116
C39	C	1.675204	0.159595	0.000119
C40	C	2.175204	0.659595	0.500119
C41	C	1.334731	0.371048	0.000090
C42	C	1.834731	0.871048	0.500090
C43	C	1.337752	0.497060	0.000083
C44	C	1.837752	0.997060	0.500083
N45	N	1.320092	0.185201	0.281944
N46	N	1.820092	0.685201	0.781944
N47	N	1.363377	0.141967	-0.281741
N48	N	1.863377	0.641967	0.218259
C49	C	1.454394	0.050970	0.531251
C50	C	1.954394	0.550970	1.031251
C51	C	1.444847	0.060524	0.655913
C52	C	1.944847	0.560524	1.155913
C53	C	1.291447	0.213858	0.655933
C54	C	1.791447	0.713858	1.155933
C55	C	1.300994	0.204304	0.531271
C56	C	1.800994	0.704304	1.031271
C57	C	1.382471	0.122858	0.468934
C58	C	1.882471	0.622858	0.968934
C59	C	1.392023	0.113310	0.344269
C60	C	1.892023	0.613310	0.844269
C61	C	1.238618	0.266638	0.344291
C62	C	1.738618	0.766638	0.844291
C63	C	1.229071	0.276192	0.468954
C64	C	1.729071	0.776192	0.968954
H65	H	1.458368	0.046996	0.293516
H66	H	1.958368	0.546996	0.793516
H67	H	1.225102	0.280162	0.706704
H68	H	1.725102	0.780162	1.206704
H69	H	1.180057	0.325177	0.293539
H70	H	1.680057	0.825177	0.793539
H71	H	1.162730	0.342501	0.519723
H72	H	1.662730	0.842501	1.019723
Cl73	Cl	1.535266	-0.029856	0.734251
Cl74	Cl	2.035266	0.470144	1.234251
H75	H	1.520744	-0.015339	0.480496
H76	H	2.020744	0.484661	0.980496
