data_functionalizedCrystal
_audit_creation_method	'MofGen! by Chris Wilmer'
_symmetry_space_group_name_H-M	'P1'
_symmetry_Int_Tables_number	1
_symmetry_cell_setting	triclinic
loop_
_symmetry_equiv_pos_as_xyz
  x,y,z
_cell_length_a	27.732048
_cell_length_b	27.732048
_cell_length_c	15.186229
_cell_angle_alpha	89.991324
_cell_angle_beta	90.002148
_cell_angle_gamma	82.642655
loop_
_atom_site_label
_atom_site_type_symbol
_atom_site_fract_x
_atom_site_fract_y
_atom_site_fract_z
O1	O	0.640926	0.057516	-0.073124
O2	O	0.500133	0.066262	-0.073152
O3	O	0.574902	-0.008508	-0.073121
O4	O	0.566157	0.132286	-0.073156
O5	O	0.574897	-0.008509	0.073336
O6	O	0.500128	0.066261	0.073305
O7	O	0.640921	0.057515	0.073333
Zn8	Zn	0.570524	0.061888	0.096572
Zn9	Zn	0.570530	0.061889	-0.096392
O10	O	0.566152	0.132285	0.073301
C11	C	0.574716	-0.026515	0.000110
C12	C	0.574164	-0.080170	0.000117
C13	C	0.482124	0.066078	0.000073
C14	C	0.428469	0.065525	0.000063
C15	C	0.614867	-0.418985	0.000080
C16	C	0.612816	-0.620645	0.000068
O17	O	0.650037	-0.651900	0.000036
N18	N	0.568481	-0.639768	0.000060
C19	C	0.524656	-0.608474	0.000049
O20	O	0.486899	-0.629367	0.000033
C21	C	0.526707	-0.406815	0.000055
C22	C	0.571045	-0.387694	0.000072
C23	C	0.659202	-0.399864	0.000096
C24	C	0.659714	-0.349452	0.000104
C25	C	0.615892	-0.318161	0.000096
C26	C	0.571557	-0.337282	0.000080
C27	C	0.482882	-0.375521	0.000038
C28	C	0.483399	-0.325104	0.000038
C29	C	0.527737	-0.305983	0.000055
C30	C	0.528247	-0.255580	0.000080
N31	N	0.572583	-0.236456	0.000088
C32	C	0.616405	-0.267747	0.000096
C33	C	0.523582	-0.714348	0.000047
C34	C	0.523069	-0.764762	0.000047
C35	C	0.611230	-0.776930	0.000064
C36	C	0.611742	-0.726514	0.000071
C37	C	0.567917	-0.695224	0.000055
C38	C	0.617477	-0.161878	0.000114
C39	C	0.617986	-0.111461	0.000125
C40	C	0.529825	-0.099298	0.000104
C41	C	0.529316	-0.149710	0.000097
C42	C	0.573147	-0.180999	0.000099
O43	O	0.491047	-0.224296	0.000101
O44	O	0.654156	-0.246844	0.000093
C45	C	0.614355	-0.469397	0.000072
C46	C	0.570021	-0.488518	0.000056
C47	C	0.526198	-0.457228	0.000048
C48	C	0.569508	-0.538933	0.000056
C49	C	0.613330	-0.570223	0.000064
C50	C	0.657665	-0.551100	0.000072
C51	C	0.658177	-0.500688	0.000080
C52	C	0.481863	-0.476351	0.000040
C53	C	0.481355	-0.526764	0.000033
C54	C	0.525177	-0.558054	0.000041
C55	C	0.089654	0.106229	0.000091
C56	C	-0.112006	0.104178	0.000099
O57	O	-0.143262	0.141398	0.000128
N58	N	-0.131130	0.059843	0.000109
C59	C	-0.099835	0.016017	0.000122
O60	O	-0.120728	-0.021740	0.000139
C61	C	0.101824	0.018068	0.000120
C62	C	0.120944	0.062407	0.000101
C63	C	0.108775	0.150563	0.000073
C64	C	0.159187	0.151075	0.000066
C65	C	0.190477	0.107253	0.000077
C66	C	0.171356	0.062919	0.000095
C67	C	0.133117	-0.025757	0.000139
C68	C	0.183535	-0.025240	0.000141
C69	C	0.202655	0.019098	0.000123
C70	C	0.253059	0.019609	0.000098
N71	N	0.272183	0.063944	0.000089
C72	C	0.240892	0.107766	0.000078
C73	C	-0.205709	0.014943	0.000121
C74	C	-0.256124	0.014430	0.000120
C75	C	-0.268291	0.102591	0.000099
C76	C	-0.217876	0.103104	0.000094
C77	C	-0.186585	0.059278	0.000112
C78	C	0.346761	0.108839	0.000063
C79	C	0.397178	0.109347	0.000052
C80	C	0.409341	0.021186	0.000078
C81	C	0.358929	0.020678	0.000084
C82	C	0.327639	0.064508	0.000079
O83	O	0.284343	-0.017592	0.000079
O84	O	0.261794	0.145518	0.000080
C85	C	0.039242	0.105716	0.000098
C86	C	0.020120	0.061382	0.000115
C87	C	0.051411	0.017560	0.000126
C88	C	-0.030294	0.060869	0.000114
C89	C	-0.061585	0.104691	0.000104
C90	C	-0.042461	0.149026	0.000094
C91	C	0.007951	0.149539	0.000087
C92	C	0.032287	-0.026775	0.000135
C93	C	-0.018125	-0.027284	0.000141
C94	C	-0.049416	0.016538	0.000131
C95	C	0.658931	0.057699	0.000106
C96	C	0.712586	0.058252	0.000110
C97	C	0.566338	0.150292	0.000068
C98	C	0.566891	0.203947	0.000055
N99	N	0.570523	0.061887	0.228265
N100	N	0.570535	0.061887	-0.228084
C101	C	0.603642	0.028790	0.454002
C102	C	0.603644	0.028789	0.546191
C103	C	0.537413	0.094985	0.546172
C104	C	0.537409	0.094984	0.453984
C105	C	0.570527	0.061886	0.407901
C106	C	0.570532	0.061887	0.592279
C107	C	0.570533	0.061886	0.692235
C108	C	0.570525	0.061887	0.307939
H109	H	0.654093	-0.095896	0.000141
H110	H	0.510440	0.121935	0.416447
C111	C	0.706953	-0.479662	0.000093
N112	N	0.743694	-0.463829	0.000100
H113	H	-0.202311	0.139207	0.000084
C114	C	0.337895	-0.028096	0.000093
N115	N	0.322056	-0.064833	0.000107
H116	H	0.653168	-0.187348	0.000112
H117	H	0.209009	-0.060929	0.000156
H118	H	0.412743	0.145454	0.000037
H119	H	-0.293777	0.138273	0.000091
C120	C	0.312350	0.157054	0.000053
N121	N	0.286432	0.193370	0.000039
H122	H	0.434827	-0.014492	0.000083
H123	H	0.695819	-0.333889	0.000114
C124	C	0.066701	-0.074986	0.000143
N125	N	0.092620	-0.111302	0.000143
H126	H	-0.271687	-0.021674	0.000122
H127	H	0.694889	-0.425336	0.000099
H128	H	0.494146	-0.073812	0.000100
H129	H	0.647846	-0.710950	0.000084
C130	C	0.028977	0.198314	0.000077
N131	N	0.044810	0.235055	0.000074
C132	C	0.180212	0.199851	0.000065
N133	N	0.196046	0.236592	0.000071
H134	H	0.630609	0.001838	0.583724
C135	C	0.500985	0.131389	0.596872
N136	N	0.473546	0.158809	0.635058
C137	C	-0.076890	0.197231	0.000086
N138	N	-0.102825	0.233536	0.000086
C139	C	0.474293	-0.785789	0.000040
N140	N	0.437554	-0.801624	0.000028
H141	H	0.646911	-0.802415	0.000071
H142	H	0.630608	0.001839	0.416483
H143	H	0.083302	0.186251	0.000068
H144	H	-0.180236	-0.020747	0.000136
C145	C	0.705870	-0.585529	0.000079
N146	N	0.742175	-0.611464	0.000079
H147	H	0.446777	-0.391080	0.000019
C148	C	0.475367	-0.679934	0.000031
N149	N	0.439051	-0.654016	0.000022
C150	C	0.480543	-0.170743	0.000084
N151	N	0.443805	-0.186582	0.000065
C152	C	0.435186	-0.290687	0.000024
N153	N	0.398872	-0.264766	0.000017
H154	H	0.445246	-0.542327	0.000027
H155	H	0.446177	-0.450879	0.000032
C156	C	-0.039151	-0.076063	0.000167
N157	N	-0.054987	-0.112802	0.000196
H158	H	0.117558	-0.061861	0.000155
