data_functionalizedCrystal
_audit_creation_method	'MofGen! by Chris Wilmer'
_symmetry_space_group_name_H-M	'P1'
_symmetry_Int_Tables_number	1
_symmetry_cell_setting	triclinic
loop_
_symmetry_equiv_pos_as_xyz
  x,y,z
_cell_length_a	13.897449
_cell_length_b	25.639240
_cell_length_c	13.897441
_cell_angle_alpha	90.041488
_cell_angle_beta	90.023394
_cell_angle_gamma	90.033584
loop_
_atom_site_label
_atom_site_type_symbol
_atom_site_fract_x
_atom_site_fract_y
_atom_site_fract_z
Zn1	Zn	1.474602	-0.208123	0.545377
Zn2	Zn	1.474453	-0.295565	0.384047
Zn3	Zn	1.313291	-0.208147	0.384088
Zn4	Zn	1.313230	-0.295530	0.545292
O5	O	1.393894	-0.251841	0.464701
O6	O	1.609564	-0.219727	0.523994
O7	O	1.453038	-0.283994	0.249071
O8	O	1.334777	-0.134978	0.405535
O9	O	1.609455	-0.283970	0.405466
O10	O	1.453291	-0.134961	0.524033
O11	O	1.334633	-0.219768	0.249100
O12	O	1.178301	-0.219734	0.405453
O13	O	1.334673	-0.283910	0.680285
O14	O	1.178257	-0.283934	0.523890
O15	O	1.453232	-0.219693	0.680347
O16	O	1.452979	-0.368726	0.405385
O17	O	1.334529	-0.368700	0.523851
C18	C	1.143280	-0.251833	0.464667
C19	C	1.036066	-0.251842	0.464676
C20	C	0.948996	-0.251844	0.464692
C21	C	0.839763	-0.251848	0.464721
C22	C	1.393758	-0.387684	0.464625
C23	C	1.393788	-0.445798	0.464625
C24	C	1.455635	-0.806113	0.526514
C25	C	1.455663	-0.860717	0.526534
O26	O	1.508086	-0.888914	0.579077
N27	N	1.394028	-0.888080	0.464794
C28	C	1.332353	-0.860836	0.403038
O29	O	1.279929	-0.889124	0.350526
C30	C	1.332320	-0.806233	0.403024
C31	C	1.393967	-0.778873	0.464761
C32	C	1.517276	-0.778753	0.588247
C33	C	1.517248	-0.724152	0.588226
C34	C	1.455580	-0.696912	0.526472
C35	C	1.393939	-0.724272	0.464740
C36	C	1.270641	-0.778989	0.341273
C37	C	1.270613	-0.724382	0.341265
C38	C	1.332260	-0.697022	0.403002
C39	C	1.332244	-0.642431	0.402965
N40	N	1.393879	-0.615068	0.464704
C41	C	1.455548	-0.642309	0.526458
C42	C	1.332425	-0.975506	0.403073
C43	C	1.332461	-1.030109	0.403081
C44	C	1.455771	-1.029986	0.526579
C45	C	1.455739	-0.975383	0.526565
C46	C	1.394060	-0.948144	0.464813
C47	C	1.455486	-0.527644	0.526409
C48	C	1.455456	-0.473038	0.526379
C49	C	1.332143	-0.473165	0.402885
C50	C	1.332176	-0.527766	0.402911
C51	C	1.393851	-0.555004	0.464680
O52	O	1.279845	-0.614200	0.350452
O53	O	1.507954	-0.614014	0.578970
C54	C	1.645487	-0.251850	0.464735
C55	C	1.752701	-0.251853	0.464750
C56	C	1.393962	-0.251795	0.716294
C57	C	1.393992	-0.251775	0.823508
C58	C	1.394057	-0.115468	0.464798
C59	C	1.394127	-0.057354	0.464839
C60	C	1.393881	-0.251849	0.214087
C61	C	1.394039	-0.251722	0.106873
C62	C	1.394018	-0.251740	1.019803
C63	C	1.394000	-0.251761	0.910571
H64	H	1.505701	-0.549814	0.576714
H65	H	1.567444	-0.701879	0.638500
H66	H	1.282273	-1.052381	0.352799
N67	N	1.518423	-0.445086	0.589444
N68	N	1.484451	-0.414597	0.650866
H69	H	1.528922	-0.394855	0.695399
N70	N	1.580276	-0.806565	0.651344
N71	N	1.635299	-0.782119	0.706454
H72	H	1.679802	-0.801758	0.751017
N73	N	1.269411	-0.947686	0.339994
N74	N	1.180406	-0.953831	0.346311
H75	H	1.135899	-0.934186	0.301764
H76	H	1.281986	-0.550044	0.352632
N77	N	1.518717	-0.947446	0.589631
N78	N	1.573775	-0.971781	0.644756
H79	H	1.618256	-0.952054	0.689301
N80	N	1.518764	-1.057826	0.589652
N81	N	1.518776	-1.106578	0.589649
H82	H	1.563263	-1.126242	0.634189
N83	N	1.207623	-0.696551	0.278181
N84	N	1.207602	-0.647798	0.278164
H85	H	1.163118	-0.628142	0.233610
N86	N	1.207651	-0.806920	0.278214
N87	N	1.152587	-0.782581	0.223102
H88	H	1.108089	-0.802305	0.178569
N89	N	1.269170	-0.445326	0.339804
N90	N	1.269163	-0.396574	0.339801
H91	H	1.224687	-0.376910	0.295250
