data_functionalizedCrystal
_audit_creation_method	'MofGen! by Chris Wilmer'
_symmetry_space_group_name_H-M	'P1'
_symmetry_Int_Tables_number	1
_symmetry_cell_setting	triclinic
loop_
_symmetry_equiv_pos_as_xyz
  x,y,z
_cell_length_a	14.044220
_cell_length_b	14.044220
_cell_length_c	13.101018
_cell_angle_alpha	93.664297
_cell_angle_beta	93.664400
_cell_angle_gamma	86.811122
loop_
_atom_site_label
_atom_site_type_symbol
_atom_site_fract_x
_atom_site_fract_y
_atom_site_fract_z
O1	O	0.225353	-1.281975	-0.085109
O2	O	0.217046	-1.005305	-0.085135
O3	O	0.082864	-1.139486	-0.085113
O4	O	0.359534	-1.147793	-0.085132
O5	O	0.092500	-1.129848	0.085316
O6	O	0.226681	-0.995666	0.085294
O7	O	0.234988	-1.272336	0.085319
Zn8	Zn	0.232365	-1.132471	0.112366
Zn9	Zn	0.219669	-1.145170	-0.112182
O10	O	0.369170	-1.138155	0.085297
C11	C	0.052060	-1.131031	0.000102
C12	C	-0.054083	-1.120187	0.000102
C13	C	0.218228	-0.964864	0.000076
C14	C	0.207383	-0.858722	0.000066
C15	C	0.233806	-1.312777	0.000106
C16	C	0.244651	-1.418920	0.000109
C17	C	-0.248421	-1.100362	0.000086
C18	C	-0.299551	-1.177276	0.000090
C19	C	-0.407688	-1.166245	0.000080
C20	C	-0.140275	-1.111391	0.000095
C21	C	0.399974	-1.146610	0.000080
C22	C	0.506116	-1.157455	0.000073
N23	N	0.241029	-1.123811	0.265613
C24	C	0.187558	-0.664383	0.000088
C25	C	0.264472	-0.613253	0.000087
C26	C	0.253441	-0.505116	0.000099
C27	C	0.198587	-0.772529	0.000076
N28	N	0.210998	-1.153837	-0.265429
C29	C	0.199206	-1.165614	0.525530
C30	C	0.252818	-1.112036	0.474648
C31	C	0.246257	-1.118589	0.358330
C32	C	0.205766	-1.159063	0.641858
H33	H	-0.262115	-1.251413	0.000028
O34	O	-0.293226	-1.011992	0.000127
C35	C	-0.392785	-1.020515	0.000097
H36	H	-0.407924	-1.091256	0.032360
H37	H	-0.425520	-1.018208	-0.081667
C38	C	-0.418277	-0.850496	0.027308
C39	C	-0.436870	-0.937378	0.066942
H40	H	-0.445472	-0.799212	0.068537
H41	H	-0.351202	-0.844753	0.027324
H42	H	-0.445556	-0.848587	-0.040828
H43	H	-0.409580	-0.939291	0.135072
H44	H	-0.503941	-0.943120	0.066939
O45	O	0.352959	-0.657804	-0.000074
C46	C	0.397820	-0.636050	-0.088363
H47	H	0.364398	-0.566400	-0.117770
H48	H	0.388042	-0.696206	-0.150179
C49	C	0.546230	-0.710659	-0.025461
C50	C	0.505186	-0.625109	-0.061574
H51	H	0.612459	-0.703913	-0.008939
H52	H	0.516006	-0.725318	0.034019
H53	H	0.538072	-0.760780	-0.076980
H54	H	0.513333	-0.574992	-0.010051
H55	H	0.535414	-0.610440	-0.121045
H56	H	0.113431	-0.626945	0.000099
O57	O	0.313440	-1.051526	0.527046
C58	C	0.306573	-1.058359	0.633202
H59	H	0.278104	-1.130418	0.647726
H60	H	0.255820	-0.998552	0.663658
C61	C	0.441055	-0.960772	0.670562
C62	C	0.406096	-1.049278	0.688401
H63	H	0.502444	-0.955166	0.704613
H64	H	0.445680	-0.956165	0.599044
H65	H	0.398752	-0.910942	0.695943
H66	H	0.448393	-1.099106	0.663009
H67	H	0.401481	-1.053894	0.759917
H68	H	0.148384	-1.216402	0.481738
