data_functionalizedCrystal
_audit_creation_method	'MofGen! by Chris Wilmer'
_symmetry_space_group_name_H-M	'P1'
_symmetry_Int_Tables_number	1
_symmetry_cell_setting	triclinic
loop_
_symmetry_equiv_pos_as_xyz
  x,y,z
_cell_length_a	29.839134
_cell_length_b	29.839131
_cell_length_c	29.839126
_cell_angle_alpha	89.975848
_cell_angle_beta	89.980151
_cell_angle_gamma	90.021992
loop_
_atom_site_label
_atom_site_type_symbol
_atom_site_fract_x
_atom_site_fract_y
_atom_site_fract_z
Zn1	Zn	0.686753	-0.179121	-0.254008
Zn2	Zn	1.020087	0.154213	0.079326
Zn3	Zn	1.353420	0.487546	0.412659
Zn4	Zn	0.686676	-0.254241	-0.178878
Zn5	Zn	1.020009	0.079092	0.154456
Zn6	Zn	1.353342	0.412426	0.487789
Zn7	Zn	0.611626	-0.179100	-0.178890
Zn8	Zn	0.944960	0.154233	0.154443
Zn9	Zn	1.278293	0.487566	0.487777
Zn10	Zn	0.611584	-0.254199	-0.253979
Zn11	Zn	0.944917	0.079134	0.079355
Zn12	Zn	1.278251	0.412468	0.412688
O13	O	0.649160	-0.216665	-0.216439
O14	O	0.982493	0.116668	0.116895
O15	O	1.315826	0.450001	0.450228
O16	O	0.749610	-0.189112	-0.244048
O17	O	1.082944	0.144222	0.089285
O18	O	1.416277	0.477555	0.422618
O19	O	0.676705	-0.244283	-0.116012
O20	O	1.010039	0.089051	0.217321
O21	O	1.343372	0.422384	0.550655
O22	O	0.621642	-0.116236	-0.188872
O23	O	0.954976	0.217097	0.144462
O24	O	1.288309	0.550431	0.477795
O25	O	0.749553	-0.244302	-0.188851
O26	O	1.082886	0.089031	0.144483
O27	O	1.416220	0.422364	0.477816
O28	O	0.676838	-0.116251	-0.244060
O29	O	1.010171	0.217083	0.089273
O30	O	1.343505	0.550416	0.422606
O31	O	0.621567	-0.189077	-0.116021
O32	O	0.954900	0.144256	0.217312
O33	O	1.288233	0.477589	0.550645
O34	O	0.548754	-0.189036	-0.188844
O35	O	0.882087	0.144297	0.144489
O36	O	1.215420	0.477630	0.477823
O37	O	0.621570	-0.244230	-0.316850
O38	O	0.954904	0.089103	0.016484
O39	O	1.288237	0.422436	0.349817
O40	O	0.548723	-0.244211	-0.244011
O41	O	0.882056	0.089123	0.089322
O42	O	1.215389	0.422456	0.422655
O43	O	0.676797	-0.189071	-0.316871
O44	O	1.010130	0.144263	0.016462
O45	O	1.343464	0.477596	0.349796
O46	O	0.676664	-0.317103	-0.188823
O47	O	1.009998	0.016231	0.144511
O48	O	1.343331	0.349564	0.477844
O49	O	0.621495	-0.317072	-0.243999
O50	O	0.954828	0.016262	0.089334
O51	O	1.288161	0.349595	0.422667
C52	C	0.532437	-0.216617	-0.216426
C53	C	0.865771	0.116716	0.116907
C54	C	1.199104	0.450050	0.450241
C55	C	0.482503	-0.216607	-0.216431
C56	C	0.815836	0.116726	0.116902
C57	C	1.149170	0.450059	0.450235
C58	C	0.125941	-0.187987	-0.245237
C59	C	0.459275	0.145346	0.088097
C60	C	0.792608	0.478679	0.421430
C61	C	0.313614	-0.187951	-0.245226
C62	C	0.646948	0.145382	0.088107
C63	C	0.980281	0.478715	0.421441
O64	O	0.337901	-0.163560	-0.269715
O65	O	0.671234	0.169773	0.063618
O66	O	1.004567	0.503106	0.396951
N67	N	0.337058	-0.216637	-0.216442
N68	N	0.670391	0.116697	0.116891
N69	N	1.003724	0.450030	0.450225
C70	C	0.313580	-0.245335	-0.187660
C71	C	0.646913	0.087998	0.145673
C72	C	0.980247	0.421331	0.479006
O73	O	0.337826	-0.269737	-0.163181
O74	O	0.671159	0.063597	0.170153
O75	O	1.004493	0.396930	0.503486
C76	C	0.125908	-0.245373	-0.187673
C77	C	0.459241	0.087960	0.145660
C78	C	0.792574	0.421293	0.478993
C79	C	0.102467	-0.216683	-0.216456
C80	C	0.435800	0.116650	0.116877
C81	C	0.769133	0.449984	0.450210
C82	C	0.102500	-0.159299	-0.274017
C83	C	0.435834	0.174034	0.059316
C84	C	0.769167	0.507367	0.392649
C85	C	0.055585	-0.159307	-0.274018
C86	C	0.388918	0.174026	0.059315
C87	C	0.722252	0.507360	0.392649
C88	C	0.032110	-0.188003	-0.245238
C89	C	0.365444	0.145331	0.088096
C90	C	0.698777	0.478664	0.421429
C91	C	0.055551	-0.216690	-0.216457
C92	C	0.388885	0.116643	0.116877
C93	C	0.722218	0.449976	0.450210
C94	C	0.102431	-0.274074	-0.158894
C95	C	0.435764	0.059259	0.174439
C96	C	0.769097	0.392593	0.507772
C97	C	0.055510	-0.274082	-0.158901
C98	C	0.388843	0.059251	0.174432
C99	C	0.722176	0.392585	0.507766
C100	C	0.032069	-0.245391	-0.187684
C101	C	0.365402	0.087942	0.145650
C102	C	0.698735	0.421275	0.478983
C103	C	-0.014839	-0.245394	-0.187677
C104	C	0.318495	0.087940	0.145656
C105	C	0.651828	0.421273	0.478990
N106	N	-0.038282	-0.216708	-0.216461
N107	N	0.295051	0.116625	0.116872
N108	N	0.628385	0.449959	0.450205
C109	C	-0.014807	-0.188013	-0.245242
C110	C	0.318526	0.145321	0.088092
C111	C	0.651859	0.478654	0.421425
C112	C	0.412110	-0.245313	-0.187655
C113	C	0.745444	0.088021	0.145678
C114	C	1.078777	0.421354	0.479012
C115	C	0.459028	-0.245303	-0.187651
C116	C	0.792362	0.088031	0.145682
C117	C	1.125695	0.421364	0.479016
C118	C	0.459060	-0.187919	-0.245218
C119	C	0.792393	0.145414	0.088116
C120	C	1.125726	0.478748	0.421449
C121	C	0.412141	-0.187927	-0.245219
C122	C	0.745474	0.145406	0.088114
C123	C	1.078808	0.478740	0.421448
C124	C	0.388667	-0.216627	-0.216439
C125	C	0.722001	0.116706	0.116894
C126	C	1.055334	0.450039	0.450227
C127	C	-0.113333	-0.188030	-0.245240
C128	C	0.220000	0.145303	0.088093
C129	C	0.553333	0.478636	0.421426
C130	C	-0.160253	-0.188039	-0.245237
C131	C	0.173080	0.145294	0.088096
C132	C	0.506414	0.478627	0.421430
C133	C	-0.160280	-0.245424	-0.187672
C134	C	0.173053	0.087909	0.145661
C135	C	0.506387	0.421242	0.478994
C136	C	-0.113365	-0.245414	-0.187674
C137	C	0.219969	0.087919	0.145660
C138	C	0.553302	0.421253	0.478993
C139	C	-0.089892	-0.216716	-0.216461
C140	C	0.243441	0.116618	0.116872
C141	C	0.576774	0.449951	0.450205
O142	O	-0.039154	-0.269775	-0.163204
O143	O	0.294179	0.063558	0.170129
O144	O	0.627513	0.396891	0.503462
O145	O	-0.039062	-0.163622	-0.269725
O146	O	0.294272	0.169711	0.063609
O147	O	0.627605	0.503045	0.396942
C148	C	0.172857	-0.187980	-0.245236
C149	C	0.506190	0.145354	0.088097
C150	C	0.839523	0.478687	0.421431
C151	C	0.196298	-0.216668	-0.216455
C152	C	0.529631	0.116666	0.116878
C153	C	0.862964	0.449999	0.450212
C154	C	0.172823	-0.245363	-0.187675
C155	C	0.506156	0.087970	0.145659
C156	C	0.839490	0.421303	0.478992
C157	C	0.243216	-0.216658	-0.216451
C158	C	0.576549	0.116676	0.116882
C159	C	0.909882	0.450009	0.450215
C160	C	0.266690	-0.187962	-0.245231
C161	C	0.600023	0.145371	0.088102
C162	C	0.933357	0.478704	0.421435
C163	C	0.243247	-0.159277	-0.274016
C164	C	0.576580	0.174057	0.059318
C165	C	0.909913	0.507390	0.392651
C166	C	0.196331	-0.159284	-0.274016
C167	C	0.529665	0.174049	0.059317
C168	C	0.862998	0.507382	0.392650
C169	C	0.196266	-0.274049	-0.158891
C170	C	0.529600	0.059285	0.174443
C171	C	0.862933	0.392618	0.507776
C172	C	0.243182	-0.274038	-0.158892
C173	C	0.576515	0.059295	0.174441
C174	C	0.909849	0.392628	0.507775
C175	C	0.266656	-0.245343	-0.187672
C176	C	0.599990	0.087990	0.145661
C177	C	0.933323	0.421324	0.478994
C178	C	0.649079	-0.333388	-0.216416
C179	C	0.982412	-0.000054	0.116917
C180	C	1.315745	0.333279	0.450250
C181	C	0.649085	-0.383322	-0.216422
C182	C	0.982418	-0.049989	0.116912
C183	C	1.315752	0.283344	0.450245
C184	C	0.677939	-0.692969	-0.187750
C185	C	1.011272	-0.359636	0.145583
C186	C	1.344605	-0.026302	0.478917
C187	C	0.677994	-0.880642	-0.187767
C188	C	1.011328	-0.547309	0.145566
C189	C	1.344661	-0.213976	0.478899
O190	O	0.702462	-0.904910	-0.163373
O191	O	1.035796	-0.571577	0.169961
O192	O	1.369129	-0.238243	0.503294
N193	N	0.649253	-0.904107	-0.216472
N194	N	0.982586	-0.570774	0.116861
N195	N	1.315920	-0.237441	0.450194
C196	C	0.620498	-0.880651	-0.245177
C197	C	0.953831	-0.547318	0.088156
C198	C	1.287165	-0.213985	0.421490
O199	O	0.596056	-0.904916	-0.269596
O200	O	0.929390	-0.571583	0.063737
O201	O	1.262723	-0.238249	0.397071
C202	C	0.620445	-0.692979	-0.245162
C203	C	0.953778	-0.359646	0.088172
C204	C	1.287112	-0.026312	0.421505
C205	C	0.649185	-0.669516	-0.216452
C206	C	0.982518	-0.336183	0.116882
C207	C	1.315852	-0.002850	0.450215
C208	C	0.706677	-0.669506	-0.159043
C209	C	1.040010	-0.336173	0.174291
C210	C	1.373343	-0.002840	0.507624
C211	C	0.706661	-0.622591	-0.159037
C212	C	1.039994	-0.289258	0.174296
C213	C	1.373328	0.044076	0.507630
C214	C	0.677907	-0.599138	-0.187738
C215	C	1.011240	-0.265805	0.145595
C216	C	1.344574	0.067528	0.478928
C217	C	0.649169	-0.622601	-0.216446
C218	C	0.982502	-0.289268	0.116888
C219	C	1.315836	0.044066	0.450221
C220	C	0.591693	-0.669524	-0.273868
C221	C	0.925026	-0.336191	0.059465
C222	C	1.258359	-0.002857	0.392798
C223	C	0.591683	-0.622603	-0.273863
C224	C	0.925016	-0.289270	0.059471
C225	C	1.258349	0.044064	0.392804
C226	C	0.620423	-0.599140	-0.245153
C227	C	0.953756	-0.265807	0.088181
C228	C	1.287089	0.067526	0.421514
C229	C	0.620399	-0.552233	-0.245141
C230	C	0.953733	-0.218899	0.088192
C231	C	1.287066	0.114434	0.421525
N232	N	0.649141	-0.528768	-0.216437
N233	N	0.982474	-0.195434	0.116897
N234	N	1.315807	0.137899	0.450230
C235	C	0.677894	-0.552220	-0.187735
C236	C	1.011228	-0.218887	0.145598
C237	C	1.344561	0.114446	0.478932
C238	C	0.620527	-0.979182	-0.245183
C239	C	0.953860	-0.645849	0.088151
C240	C	1.287194	-0.312515	0.421484
C241	C	0.620540	-1.026100	-0.245186
C242	C	0.953873	-0.692766	0.088147
C243	C	1.287206	-0.359433	0.421481
C244	C	0.678037	-1.026087	-0.187777
C245	C	1.011370	-0.692754	0.145556
C246	C	1.344703	-0.359421	0.478890
C247	C	0.678021	-0.979169	-0.187772
C248	C	1.011355	-0.645835	0.145562
C249	C	1.344688	-0.312502	0.478895
C250	C	0.649268	-0.955717	-0.216478
C251	C	0.982602	-0.622383	0.116856
C252	C	1.315935	-0.289050	0.450189
C253	C	0.677859	-0.453695	-0.187725
C254	C	1.011192	-0.120361	0.145609
C255	C	1.344525	0.212972	0.478942
C256	C	0.677839	-0.406775	-0.187720
C257	C	1.011172	-0.073442	0.145613
C258	C	1.344506	0.259892	0.478946
C259	C	0.620344	-0.406791	-0.245131
C260	C	0.953677	-0.073458	0.088203
C261	C	1.287010	0.259875	0.421536
C262	C	0.620362	-0.453707	-0.245134
C263	C	0.953695	-0.120374	0.088199
C264	C	1.287028	0.212960	0.421533
C265	C	0.649123	-0.477157	-0.216429
C266	C	0.982456	-0.143824	0.116904
C267	C	1.315789	0.189509	0.450237
O268	O	0.595948	-0.527936	-0.269527
O269	O	0.929281	-0.194603	0.063806
O270	O	1.262614	0.138731	0.397140
O271	O	0.702339	-0.527948	-0.163327
O272	O	1.035673	-0.194614	0.170007
O273	O	1.369006	0.138719	0.503340
C274	C	0.677955	-0.739885	-0.187756
C275	C	1.011288	-0.406551	0.145577
C276	C	1.344621	-0.073218	0.478911
C277	C	0.649217	-0.763347	-0.216463
C278	C	0.982550	-0.430014	0.116870
C279	C	1.315883	-0.096681	0.450204
C280	C	0.620463	-0.739895	-0.245165
C281	C	0.953796	-0.406561	0.088169
C282	C	1.287130	-0.073228	0.421502
C283	C	0.649229	-0.810265	-0.216467
C284	C	0.982563	-0.476932	0.116867
C285	C	1.315896	-0.143598	0.450200
C286	C	0.677983	-0.833718	-0.187765
C287	C	1.011316	-0.500385	0.145568
C288	C	1.344650	-0.167051	0.478902
C289	C	0.706724	-0.810253	-0.159060
C290	C	1.040058	-0.476919	0.174273
C291	C	1.373391	-0.143586	0.507607
C292	C	0.706708	-0.763337	-0.159054
C293	C	1.040042	-0.430004	0.174279
C294	C	1.373375	-0.096671	0.507612
C295	C	0.591722	-0.763360	-0.273870
C296	C	0.925055	-0.430026	0.059464
C297	C	1.258388	-0.096693	0.392797
C298	C	0.591739	-0.810275	-0.273873
C299	C	0.925073	-0.476942	0.059461
C300	C	1.258406	-0.143608	0.392794
C301	C	0.620493	-0.833728	-0.245171
C302	C	0.953827	-0.500395	0.088162
C303	C	1.287160	-0.167061	0.421496
C304	C	0.766338	-0.216714	-0.216451
C305	C	1.099671	0.116619	0.116882
C306	C	1.433005	0.449953	0.450215
C307	C	0.816273	-0.216735	-0.216457
C308	C	1.149606	0.116599	0.116877
C309	C	1.482939	0.449932	0.450210
C310	C	0.649188	-0.216648	-0.333617
C311	C	0.982521	0.116685	-0.000284
C312	C	1.315854	0.450019	0.333050
C313	C	0.649199	-0.216641	-0.383551
C314	C	0.982533	0.116693	-0.050218
C315	C	1.315866	0.450026	0.283115
C316	C	0.649253	-0.099487	-0.216471
C317	C	0.982587	0.233846	0.116863
C318	C	1.315920	0.567180	0.450196
C319	C	0.649293	-0.049552	-0.216484
C320	C	0.982627	0.283781	0.116849
C321	C	1.315960	0.617114	0.450182
C322	C	0.620498	-0.187850	-0.693202
C323	C	0.953831	0.145483	-0.359869
C324	C	1.287165	0.478816	-0.026536
C325	C	0.620511	-0.187819	-0.880876
C326	C	0.953844	0.145514	-0.547542
C327	C	1.287177	0.478848	-0.214209
O328	O	0.596085	-0.163385	-0.905147
O329	O	0.929418	0.169948	-0.571814
O330	O	1.262752	0.503281	-0.238480
N331	N	0.649221	-0.216556	-0.904337
N332	N	0.982554	0.116777	-0.571003
N333	N	1.315887	0.450110	-0.237670
C334	C	0.677928	-0.245306	-0.880876
C335	C	1.011261	0.088028	-0.547543
C336	C	1.344594	0.421361	-0.214210
O337	O	0.702345	-0.269751	-0.905138
O338	O	1.035678	0.063582	-0.571804
O339	O	1.369011	0.396916	-0.238471
C340	C	0.677912	-0.245339	-0.693204
C341	C	1.011246	0.087995	-0.359871
C342	C	1.344579	0.421328	-0.026538
C343	C	0.649204	-0.216596	-0.669746
C344	C	0.982537	0.116737	-0.336412
C345	C	1.315870	0.450070	-0.003079
C346	C	0.591791	-0.159111	-0.669744
C347	C	0.925124	0.174223	-0.336411
C348	C	1.258458	0.507556	-0.003077
C349	C	0.591790	-0.159117	-0.622828
C350	C	0.925123	0.174216	-0.289495
C351	C	1.258457	0.507550	0.043838
C352	C	0.620496	-0.187863	-0.599372
C353	C	0.953829	0.145470	-0.266038
C354	C	1.287162	0.478804	0.067295
C355	C	0.649202	-0.216603	-0.622830
C356	C	0.982536	0.116731	-0.289497
C357	C	1.315869	0.450064	0.043837
C358	C	0.706617	-0.274090	-0.669745
C359	C	1.039950	0.059243	-0.336412
C360	C	1.373283	0.392577	-0.003078
C361	C	0.706610	-0.274097	-0.622824
C362	C	1.039943	0.059237	-0.289491
C363	C	1.373276	0.392570	0.043843
C364	C	0.677901	-0.245354	-0.599365
C365	C	1.011234	0.087979	-0.266032
C366	C	1.344567	0.421313	0.067301
C367	C	0.677907	-0.245355	-0.552458
C368	C	1.011240	0.087978	-0.219124
C369	C	1.344574	0.421311	0.114209
N370	N	0.649197	-0.216618	-0.528997
N371	N	0.982530	0.116715	-0.195663
N372	N	1.315863	0.450049	0.137670
C373	C	0.620491	-0.187872	-0.552454
C374	C	0.953824	0.145462	-0.219120
C375	C	1.287158	0.478795	0.114213
C376	C	0.677934	-0.245286	-0.979407
C377	C	1.011268	0.088048	-0.646074
C378	C	1.344601	0.421381	-0.312740
C379	C	0.677939	-0.245277	-1.026325
C380	C	1.011272	0.088056	-0.692992
C381	C	1.344606	0.421390	-0.359658
C382	C	0.620521	-0.187791	-1.026321
C383	C	0.953854	0.145543	-0.692988
C384	C	1.287188	0.478876	-0.359654
C385	C	0.620519	-0.187798	-0.979402
C386	C	0.953852	0.145536	-0.646069
C387	C	1.287186	0.478869	-0.312736
C388	C	0.649224	-0.216548	-0.955946
C389	C	0.982558	0.116785	-0.622613
C390	C	1.315891	0.450118	-0.289279
C391	C	0.620491	-0.187887	-0.453928
C392	C	0.953824	0.145446	-0.120594
C393	C	1.287158	0.478780	0.212739
C394	C	0.620494	-0.187895	-0.407008
C395	C	0.953827	0.145439	-0.073675
C396	C	1.287160	0.478772	0.259658
C397	C	0.677910	-0.245382	-0.407016
C398	C	1.011243	0.087951	-0.073683
C399	C	1.344576	0.421284	0.259650
C400	C	0.677909	-0.245373	-0.453932
C401	C	1.011242	0.087960	-0.120599
C402	C	1.344576	0.421294	0.212735
C403	C	0.649196	-0.216624	-0.477386
C404	C	0.982529	0.116709	-0.144053
C405	C	1.315863	0.450043	0.189280
O406	O	0.702316	-0.269780	-0.528158
O407	O	1.035650	0.063553	-0.194824
O408	O	1.368983	0.396887	0.138509
O409	O	0.596071	-0.163437	-0.528184
O410	O	0.929404	0.169896	-0.194851
O411	O	1.262738	0.503230	0.138482
C412	C	0.620499	-0.187844	-0.740118
C413	C	0.953832	0.145489	-0.406785
C414	C	1.287166	0.478823	-0.073451
C415	C	0.649206	-0.216584	-0.763577
C416	C	0.982539	0.116750	-0.430243
C417	C	1.315873	0.450083	-0.096910
C418	C	0.677912	-0.245330	-0.740120
C419	C	1.011245	0.088004	-0.406786
C420	C	1.344578	0.421337	-0.073453
C421	C	0.649210	-0.216575	-0.810494
C422	C	0.982544	0.116758	-0.477161
C423	C	1.315877	0.450092	-0.143828
C424	C	0.620505	-0.187829	-0.833951
C425	C	0.953838	0.145505	-0.500618
C426	C	1.287171	0.478838	-0.167285
C427	C	0.591794	-0.159091	-0.810490
C428	C	0.925128	0.174242	-0.477157
C429	C	1.258461	0.507575	-0.143824
C430	C	0.591793	-0.159098	-0.763575
C431	C	0.925127	0.174236	-0.430241
C432	C	1.258460	0.507569	-0.096908
C433	C	0.706622	-0.274067	-0.763581
C434	C	1.039955	0.059266	-0.430247
C435	C	1.373288	0.392600	-0.096914
C436	C	0.706621	-0.274058	-0.810496
C437	C	1.039954	0.059275	-0.477163
C438	C	1.373288	0.392609	-0.143830
C439	C	0.677915	-0.245312	-0.833953
C440	C	1.011249	0.088021	-0.500620
C441	C	1.344582	0.421355	-0.167286
C442	C	0.649158	-0.216650	-0.099716
C443	C	0.982491	0.116683	0.233617
C444	C	1.315825	0.450017	0.566951
C445	C	0.649233	-0.216531	-0.049782
C446	C	0.982567	0.116803	0.283551
C447	C	1.315900	0.450136	0.616885
H448	H	-0.094228	-0.164661	-0.268682
H449	H	0.239106	0.168672	0.064652
H450	H	0.572439	0.502006	0.397985
H451	H	0.568307	-0.744268	-0.297242
H452	H	0.901641	-0.410935	0.036091
H453	H	1.234974	-0.077601	0.369424
O454	O	0.592548	-0.956473	-0.273080
O455	O	0.925882	-0.623140	0.060253
O456	O	1.259215	-0.289807	0.393586
C457	C	0.567193	-0.987251	-0.298420
C458	C	0.900527	-0.653917	0.034914
C459	C	1.233860	-0.320584	0.368247
H460	H	0.565665	-1.020704	-0.280016
H461	H	0.898998	-0.687371	0.053317
H462	H	1.232332	-0.354037	0.386651
H463	H	0.531788	-0.973722	-0.303176
H464	H	0.865121	-0.640388	0.030158
H465	H	1.198455	-0.307055	0.363491
H466	H	0.583624	-0.992214	-0.332556
H467	H	0.916957	-0.658880	0.000777
H468	H	1.250290	-0.325547	0.334110
O469	O	0.125319	-0.131485	-0.302024
O470	O	0.458652	0.201848	0.031309
O471	O	0.791986	0.535181	0.364643
C472	C	0.152476	-0.157088	-0.330991
C473	C	0.485809	0.176246	0.002342
C474	C	0.819143	0.509579	0.335676
H475	H	0.138339	-0.192480	-0.333705
H476	H	0.471672	0.140853	-0.000372
H477	H	0.805006	0.474186	0.332961
H478	H	0.153018	-0.140883	-0.365592
H479	H	0.486351	0.192450	-0.032259
H480	H	0.819685	0.525784	0.301075
H481	H	0.188030	-0.158603	-0.317100
H482	H	0.521363	0.174731	0.016234
H483	H	0.854697	0.508064	0.349567
H484	H	0.036504	-0.135946	-0.297458
H485	H	0.369837	0.197387	0.035875
H486	H	0.703170	0.530721	0.369209
O487	O	0.592681	-1.048938	-0.273094
O488	O	0.926014	-0.715604	0.060239
O489	O	1.259348	-0.382271	0.393572
C490	C	0.618249	-1.076035	-0.302146
C491	C	0.951582	-0.742702	0.031188
C492	C	1.284916	-0.409369	0.364521
H493	H	0.652305	-1.083054	-0.286332
H494	H	0.985638	-0.749721	0.047001
H495	H	1.318971	-0.416387	0.380335
H496	H	0.599953	-1.109035	-0.308157
H497	H	0.933287	-0.775702	0.025177
H498	H	1.266620	-0.442369	0.358510
H499	H	0.623164	-1.057930	-0.335439
H500	H	0.956497	-0.724597	-0.002106
H501	H	1.289830	-0.391264	0.331228
H502	H	0.729994	-0.297496	-0.688837
H503	H	1.063328	0.035838	-0.355504
H504	H	1.396661	0.369171	-0.022170
H505	H	0.596931	-0.387689	-0.268498
H506	H	0.930265	-0.054356	0.064835
H507	H	1.263598	0.278978	0.398169
O508	O	0.481937	-0.160088	-0.273163
O509	O	0.815270	0.173245	0.060170
O510	O	1.148603	0.506579	0.393504
C511	C	0.528373	-0.166228	-0.266976
C512	C	0.861706	0.167106	0.066357
C513	C	1.195039	0.500439	0.399691
H514	H	0.534763	-0.200875	-0.252194
H515	H	0.868096	0.132459	0.081140
H516	H	1.201429	0.465792	0.414473
H517	H	0.546222	-0.163231	-0.300630
H518	H	0.879555	0.170102	0.032703
H519	H	1.212888	0.503436	0.366036
H520	H	0.541684	-0.139542	-0.243102
H521	H	0.875017	0.193791	0.090231
H522	H	1.208350	0.527124	0.423564
H523	H	0.730111	-0.744237	-0.135676
H524	H	1.063445	-0.410904	0.197657
H525	H	1.396778	-0.077571	0.530991
O526	O	0.592561	-0.159960	-0.384291
O527	O	0.925894	0.173374	-0.050957
O528	O	1.259228	0.506707	0.282376
C529	C	0.567233	-0.134581	-0.415059
C530	C	0.900566	0.198753	-0.081726
C531	C	1.233899	0.532086	0.251608
H532	H	0.565666	-0.152978	-0.448497
H533	H	0.898999	0.180355	-0.115164
H534	H	1.232332	0.513688	0.218169
H535	H	0.531839	-0.129776	-0.401495
H536	H	0.865172	0.203558	-0.068162
H537	H	1.198506	0.536891	0.265171
H538	H	0.583711	-0.100467	-0.420064
H539	H	0.917044	0.232866	-0.086731
H540	H	1.250378	0.566200	0.246602
O541	O	0.265929	-0.301975	-0.130977
O542	O	0.599263	0.031358	0.202356
O543	O	0.932596	0.364692	0.535689
C544	C	0.254443	-0.346762	-0.140714
C545	C	0.587777	-0.013429	0.192619
C546	C	0.921110	0.319904	0.525953
H547	H	0.241560	-0.349076	-0.176601
H548	H	0.574893	-0.015742	0.156732
H549	H	0.908226	0.317591	0.490066
H550	H	0.285289	-0.368952	-0.136805
H551	H	0.618622	-0.035619	0.196528
H552	H	0.951955	0.297715	0.529862
H553	H	0.227195	-0.358476	-0.116610
H554	H	0.560529	-0.025142	0.216723
H555	H	0.893862	0.308191	0.550056
O556	O	0.563962	-0.131153	-0.600023
O557	O	0.897295	0.202180	-0.266690
O558	O	1.230629	0.535513	0.066644
C559	C	0.589553	-0.102155	-0.572888
C560	C	0.922886	0.231178	-0.239554
C561	C	1.256219	0.564512	0.093779
H562	H	0.624941	-0.099388	-0.587032
H563	H	0.958274	0.233945	-0.253699
H564	H	1.291607	0.567278	0.079634
H565	H	0.573327	-0.067577	-0.572364
H566	H	0.906661	0.265757	-0.239030
H567	H	1.239994	0.599090	0.094303
H568	H	0.591083	-0.116050	-0.537325
H569	H	0.924417	0.217283	-0.203992
H570	H	1.257750	0.550617	0.129341
O571	O	0.389442	-0.160046	-0.273223
O572	O	0.722775	0.173287	0.060110
O573	O	1.056109	0.506621	0.393443
C574	C	0.420228	-0.134710	-0.298614
C575	C	0.753561	0.198624	0.034720
C576	C	1.086895	0.531957	0.368053
H577	H	0.453670	-0.153107	-0.300129
H578	H	0.787003	0.180226	0.033204
H579	H	1.120336	0.513559	0.366538
H580	H	0.406692	-0.129969	-0.334021
H581	H	0.740026	0.203365	-0.000688
H582	H	1.073359	0.536698	0.332646
H583	H	0.425216	-0.100566	-0.282223
H584	H	0.758549	0.232767	0.051111
H585	H	1.091883	0.566100	0.384444
O586	O	0.481727	-0.273212	-0.159674
O587	O	0.815060	0.060122	0.173660
O588	O	1.148393	0.393455	0.506993
C589	C	0.450940	-0.298532	-0.134267
C590	C	0.784274	0.034802	0.199066
C591	C	1.117607	0.368135	0.532399
H592	H	0.417504	-0.300116	-0.152670
H593	H	0.750838	0.033218	0.180663
H594	H	1.084171	0.366551	0.513996
H595	H	0.464484	-0.333920	-0.129411
H596	H	0.797818	-0.000587	0.203923
H597	H	1.131151	0.332747	0.537256
H598	H	0.445938	-0.282035	-0.100177
H599	H	0.779272	0.051298	0.233156
H600	H	1.112605	0.384632	0.566490
H601	H	-0.179336	-0.164674	-0.268675
H602	H	0.153997	0.168660	0.064658
H603	H	0.487330	0.501993	0.397991
O604	O	0.734715	-0.833054	-0.131250
O605	O	1.068048	-0.499720	0.202084
O606	O	1.401382	-0.166387	0.535417
C607	C	0.763713	-0.860159	-0.156871
C608	C	1.097046	-0.526825	0.176462
C609	C	1.430379	-0.193492	0.509796
H610	H	0.766446	-0.845994	-0.192255
H611	H	1.099779	-0.512661	0.141079
H612	H	1.433112	-0.179328	0.474412
H613	H	0.798302	-0.860671	-0.140669
H614	H	1.131636	-0.527337	0.192665
H615	H	1.464969	-0.194004	0.525998
H616	H	0.749839	-0.895728	-0.158408
H617	H	1.083172	-0.562395	0.174925
H618	H	1.416506	-0.229062	0.508259
O619	O	0.706045	-1.048811	-0.159920
O620	O	1.039378	-0.715477	0.173413
O621	O	1.372711	-0.382144	0.506746
C622	C	0.750803	-1.037303	-0.169807
C623	C	1.084136	-0.703970	0.163526
C624	C	1.417470	-0.370636	0.496859
H625	H	0.751693	-1.003230	-0.187080
H626	H	1.085027	-0.669897	0.146253
H627	H	1.418360	-0.336564	0.479586
H628	H	0.770979	-1.035688	-0.137412
H629	H	1.104312	-0.702354	0.195922
H630	H	1.437646	-0.369021	0.529255
H631	H	0.765929	-1.063684	-0.192923
H632	H	1.099263	-0.730351	0.140410
H633	H	1.432596	-0.397018	0.473743
H634	H	0.393002	-0.268685	-0.164217
H635	H	0.726336	0.064648	0.169116
H636	H	1.059669	0.397982	0.502449
H637	H	0.262368	-0.135910	-0.297448
H638	H	0.595701	0.197423	0.035885
H639	H	0.929035	0.530757	0.369219
O640	O	0.705845	-0.273151	-0.956575
O641	O	1.039178	0.060182	-0.623242
O642	O	1.372512	0.393516	-0.289908
C643	C	0.734888	-0.247591	-0.929459
C644	C	1.068221	0.085742	-0.596125
C645	C	1.401555	0.419076	-0.262792
H646	H	0.719069	-0.213542	-0.922429
H647	H	1.052402	0.119792	-0.589095
H648	H	1.385735	0.453125	-0.255762
H649	H	0.740896	-0.265902	-0.896466
H650	H	1.074230	0.067432	-0.563132
H651	H	1.407563	0.400765	-0.229799
H652	H	0.768184	-0.242661	-0.947554
H653	H	1.101517	0.090672	-0.614220
H654	H	1.434851	0.424005	-0.280887
O655	O	0.125124	-0.301988	-0.130921
O656	O	0.458457	0.031345	0.202412
O657	O	0.791791	0.364678	0.535746
C658	C	0.094335	-0.327307	-0.105518
C659	C	0.427668	0.006026	0.227815
C660	C	0.761001	0.339359	0.561149
H661	H	0.060899	-0.328887	-0.123923
H662	H	0.394233	0.004447	0.209411
H663	H	0.727566	0.337780	0.542744
H664	H	0.107875	-0.362697	-0.100664
H665	H	0.441209	-0.029364	0.232669
H666	H	0.774542	0.303969	0.566003
H667	H	0.089333	-0.310813	-0.071427
H668	H	0.422666	0.022520	0.261907
H669	H	0.756000	0.355853	0.595240
O670	O	0.032688	-0.302009	-0.131007
O671	O	0.366021	0.031324	0.202327
O672	O	0.699354	0.364657	0.535660
C673	C	0.005543	-0.331058	-0.156532
C674	C	0.338877	0.002276	0.176801
C675	C	0.672210	0.335609	0.510134
H676	H	0.019693	-0.333876	-0.191911
H677	H	0.353027	-0.000543	0.141422
H678	H	0.686360	0.332791	0.474756
H679	H	0.005000	-0.365610	-0.140224
H680	H	0.338333	-0.032276	0.193109
H681	H	0.671667	0.301057	0.526443
H682	H	-0.030012	-0.317177	-0.158103
H683	H	0.303321	0.016156	0.175230
H684	H	0.636655	0.349490	0.508563
O685	O	0.734536	-0.302041	-0.600109
O686	O	1.067870	0.031292	-0.266776
O687	O	1.401203	0.364626	0.066558
C688	C	0.759864	-0.327414	-0.630879
C689	C	1.093197	0.005919	-0.297546
C690	C	1.426531	0.339253	0.035788
H691	H	0.761437	-0.309006	-0.664328
H692	H	1.094770	0.024327	-0.330995
H693	H	1.428103	0.357660	0.002339
H694	H	0.795256	-0.332229	-0.617334
H695	H	1.128589	0.001105	-0.284001
H696	H	1.461922	0.334438	0.049333
H697	H	0.743381	-0.361524	-0.635856
H698	H	1.076714	-0.028191	-0.302523
H699	H	1.410048	0.305143	0.030810
O700	O	0.173544	-0.131369	-0.301915
O701	O	0.506877	0.201964	0.031419
O702	O	0.840210	0.535298	0.364752
C703	C	0.146391	-0.102326	-0.276397
C704	C	0.479724	0.231007	0.056937
C705	C	0.813057	0.564340	0.390270
H706	H	0.160512	-0.099499	-0.241016
H707	H	0.493845	0.233834	0.092317
H708	H	0.827178	0.567167	0.425650
H709	H	0.145877	-0.067776	-0.292709
H710	H	0.479210	0.265557	0.040624
H711	H	0.812544	0.598891	0.373957
H712	H	0.110828	-0.116218	-0.274831
H713	H	0.444161	0.217115	0.058503
H714	H	0.777494	0.550449	0.391836
O715	O	0.705768	-0.273370	-0.384274
O716	O	1.039101	0.059964	-0.050940
O717	O	1.372434	0.393297	0.282393
C718	C	0.695900	-0.318139	-0.395713
C719	C	1.029233	0.015195	-0.062380
C720	C	1.362567	0.348528	0.270953
H721	H	0.678638	-0.319057	-0.429777
H722	H	1.011971	0.014277	-0.096444
H723	H	1.345304	0.347610	0.236890
H724	H	0.728303	-0.338303	-0.397314
H725	H	1.061636	-0.004970	-0.063981
H726	H	1.394970	0.328363	0.269352
H727	H	0.672781	-0.333258	-0.369300
H728	H	1.006114	0.000076	-0.035967
H729	H	1.339447	0.333409	0.297367
H730	H	-0.179402	-0.268786	-0.164238
H731	H	0.153932	0.064548	0.169095
H732	H	0.487265	0.397881	0.502428
H733	H	0.177158	-0.297417	-0.135454
H734	H	0.510491	0.035916	0.197879
H735	H	0.843825	0.369250	0.531213
O736	O	-0.090661	-0.273325	-0.159700
O737	O	0.242672	0.060008	0.173633
O738	O	0.576006	0.393342	0.506967
C739	C	-0.121444	-0.298645	-0.134289
C740	C	0.211890	0.034689	0.199044
C741	C	0.545223	0.368022	0.532377
H742	H	-0.154884	-0.300224	-0.152686
H743	H	0.178450	0.033109	0.180648
H744	H	0.511783	0.366442	0.513981
H745	H	-0.107901	-0.334034	-0.129438
H746	H	0.225432	-0.000701	0.203895
H747	H	0.558765	0.332632	0.537228
H748	H	-0.126437	-0.282150	-0.100197
H749	H	0.206896	0.051183	0.233137
H750	H	0.540229	0.384516	0.566470
O751	O	0.563761	-0.692239	-0.301802
O752	O	0.897095	-0.358905	0.031532
O753	O	1.230428	-0.025572	0.364865
C754	C	0.538378	-0.661469	-0.327123
C755	C	0.871712	-0.328135	0.006210
C756	C	1.205045	0.005198	0.339543
H757	H	0.556773	-0.628012	-0.328684
H758	H	0.890106	-0.294679	0.004649
H759	H	1.223440	0.038654	0.337982
H760	H	0.533572	-0.675003	-0.362520
H761	H	0.866906	-0.341669	-0.029186
H762	H	1.200239	-0.008336	0.304147
H763	H	0.504265	-0.656509	-0.310643
H764	H	0.837598	-0.323176	0.022690
H765	H	1.170932	0.010157	0.356023
H766	H	0.701291	-0.268773	-0.473033
H767	H	1.034624	0.064561	-0.139700
H768	H	1.367958	0.397894	0.193634
H769	H	0.568332	-0.829374	-0.297251
H770	H	0.901665	-0.496041	0.036082
H771	H	1.234999	-0.162708	0.369415
O772	O	0.705801	-0.384053	-0.159816
O773	O	1.039135	-0.050720	0.173517
O774	O	1.372468	0.282613	0.506850
C775	C	0.731176	-0.414818	-0.134479
C776	C	1.064509	-0.081485	0.198854
C777	C	1.397842	0.251849	0.532188
H778	H	0.732730	-0.448251	-0.152888
H779	H	1.066063	-0.114917	0.180446
H780	H	1.399397	0.218416	0.513779
H781	H	0.766571	-0.401241	-0.129717
H782	H	1.099904	-0.067908	0.203616
H783	H	1.433237	0.265425	0.536950
H784	H	0.714745	-0.419839	-0.100345
H785	H	1.048078	-0.086506	0.232988
H786	H	1.381412	0.246827	0.566322
H787	H	0.597111	-0.164476	-0.473019
H788	H	0.930444	0.168857	-0.139686
H789	H	1.263777	0.502190	0.193648
O790	O	0.705736	-0.476523	-0.159825
O791	O	1.039070	-0.143190	0.173508
O792	O	1.372403	0.190143	0.506842
C793	C	0.680191	-0.503692	-0.130778
C794	C	1.013524	-0.170358	0.202555
C795	C	1.346858	0.162975	0.535888
H796	H	0.646137	-0.510738	-0.146588
H797	H	0.979470	-0.177405	0.186746
H798	H	1.312803	0.155928	0.520079
H799	H	0.698508	-0.536673	-0.124783
H800	H	1.031842	-0.203340	0.208550
H801	H	1.365175	0.129993	0.541884
H802	H	0.675272	-0.485634	-0.097477
H803	H	1.008605	-0.152300	0.235856
H804	H	1.341938	0.181033	0.569189
H805	H	0.730065	-0.603490	-0.135660
H806	H	1.063398	-0.270157	0.197673
H807	H	1.396731	0.063176	0.531006
H808	H	0.730094	-0.688597	-0.135670
H809	H	1.063427	-0.355263	0.197663
H810	H	1.396761	-0.021930	0.530996
H811	H	0.568413	-0.135702	-0.688837
H812	H	0.901746	0.197632	-0.355504
H813	H	1.235080	0.530965	-0.022171
H814	H	0.701424	-0.960068	-0.164394
H815	H	1.034758	-0.626735	0.168940
H816	H	1.368091	-0.293401	0.502273
O817	O	0.705845	-0.273236	-1.049040
O818	O	1.039178	0.060097	-0.715707
O819	O	1.372511	0.393431	-0.382374
C820	C	0.731185	-0.298600	-1.018270
C821	C	1.064518	0.034733	-0.684937
C822	C	1.397852	0.368066	-0.351603
H823	H	0.712777	-0.300151	-0.984821
H824	H	1.046111	0.033183	-0.651488
H825	H	1.379444	0.366516	-0.318155
H826	H	0.735951	-0.333997	-1.031815
H827	H	1.069284	-0.000664	-0.698482
H828	H	1.402617	0.332669	-0.365148
H829	H	0.765318	-0.282164	-1.013292
H830	H	1.098651	0.051169	-0.679959
H831	H	1.431984	0.384503	-0.346625
O832	O	0.563815	-0.599801	-0.301796
O833	O	0.897148	-0.266468	0.031538
O834	O	1.230482	0.066865	0.364871
C835	C	0.589367	-0.572620	-0.330824
C836	C	0.922701	-0.239287	0.002509
C837	C	1.256034	0.094047	0.335843
H838	H	0.624754	-0.586732	-0.333631
H839	H	0.958087	-0.253399	-0.000298
H840	H	1.291421	0.079935	0.333036
H841	H	0.573101	-0.572082	-0.365384
H842	H	0.906434	-0.238749	-0.032050
H843	H	1.239767	0.094585	0.301283
H844	H	0.590910	-0.537068	-0.316932
H845	H	0.924243	-0.203735	0.016401
H846	H	1.257576	0.129599	0.349735
O847	O	0.592491	-0.476482	-0.273084
O848	O	0.925824	-0.143149	0.060249
O849	O	1.259158	0.190184	0.393583
C850	C	0.602273	-0.464974	-0.317865
C851	C	0.935606	-0.131640	0.015468
C852	C	1.268940	0.201693	0.348801
H853	H	0.638156	-0.452046	-0.320162
H854	H	0.971490	-0.118712	0.013171
H855	H	1.304823	0.214621	0.346504
H856	H	0.598405	-0.495818	-0.340063
H857	H	0.931738	-0.162485	-0.006729
H858	H	1.265071	0.170849	0.326604
H859	H	0.578169	-0.437752	-0.329582
H860	H	0.911503	-0.104419	0.003751
H861	H	1.244836	0.228915	0.337085
H862	H	0.597142	-0.164393	-0.960305
H863	H	0.930475	0.168941	-0.626972
H864	H	1.263809	0.502274	-0.293639
H865	H	0.568423	-0.135684	-0.829597
H866	H	0.901756	0.197650	-0.496264
H867	H	1.235090	0.530983	-0.162930
H868	H	0.597149	-0.164383	-1.045427
H869	H	0.930482	0.168950	-0.712094
H870	H	1.263815	0.502283	-0.378761
H871	H	0.568416	-0.135693	-0.744479
H872	H	0.901749	0.197641	-0.411146
H873	H	1.235082	0.530974	-0.077812
H874	H	0.730004	-0.297463	-0.829592
H875	H	1.063337	0.035870	-0.496259
H876	H	1.396670	0.369204	-0.162926
H877	H	0.729996	-0.297478	-0.744487
H878	H	1.063330	0.035856	-0.411154
H879	H	1.396663	0.369189	-0.077820
