data_functionalizedCrystal
_audit_creation_method	'MofGen! by Chris Wilmer'
_symmetry_space_group_name_H-M	'P1'
_symmetry_Int_Tables_number	1
_symmetry_cell_setting	triclinic
loop_
_symmetry_equiv_pos_as_xyz
  x,y,z
_cell_length_a	23.532407
_cell_length_b	23.532357
_cell_length_c	22.010155
_cell_angle_alpha	89.998697
_cell_angle_beta	89.996931
_cell_angle_gamma	82.838485
loop_
_atom_site_label
_atom_site_type_symbol
_atom_site_fract_x
_atom_site_fract_y
_atom_site_fract_z
O1	O	0.755251	0.069129	-0.050457
O2	O	0.589386	0.079132	-0.050475
O3	O	0.677335	-0.008803	-0.050453
O4	O	0.667302	0.157064	-0.050479
O5	O	0.677319	-0.008790	0.050597
O6	O	0.589370	0.079145	0.050575
O7	O	0.755235	0.069142	0.050594
Cu8	Cu	0.672301	0.074145	0.059811
Cu9	Cu	0.672320	0.074129	-0.059693
O10	O	0.667286	0.157077	0.050571
C11	C	0.568162	0.078884	0.000048
C12	C	0.504945	0.078118	0.000041
C13	C	0.105834	0.125353	0.000061
C14	C	0.046434	0.124641	0.000065
O15	O	0.009681	0.168428	0.000080
N16	N	0.023817	0.072364	0.000072
C17	C	0.060604	0.020794	0.000082
O18	O	0.035912	-0.023737	0.000089
C19	C	0.120003	0.021506	0.000082
C20	C	0.142616	0.073787	0.000069
C21	C	0.128448	0.177629	0.000048
C22	C	0.187844	0.178341	0.000043
C23	C	0.224626	0.126775	0.000051
C24	C	0.202012	0.074498	0.000064
C25	C	0.156788	-0.030063	0.000096
C26	C	0.216191	-0.029346	0.000097
C27	C	0.238804	0.022935	0.000084
C28	C	0.298190	0.023644	0.000067
N29	N	0.320807	0.075922	0.000059
C30	C	0.284025	0.127487	0.000052
C31	C	-0.064139	0.019303	0.000082
C32	C	-0.123536	0.018590	0.000077
C33	C	-0.137702	0.122437	0.000061
C34	C	-0.078303	0.123149	0.000062
C35	C	-0.041522	0.071580	0.000074
C36	C	0.408761	0.128977	0.000041
C37	C	0.468163	0.129684	0.000033
C38	C	0.482324	0.025837	0.000052
C39	C	0.422927	0.025130	0.000056
C40	C	0.386147	0.076704	0.000053
O41	O	0.334977	-0.020120	0.000054
O42	O	0.308725	0.172011	0.000052
C43	C	0.677076	-0.030013	0.000074
C44	C	0.676322	-0.093232	0.000080
C45	C	0.671594	-0.485250	-0.055036
C46	C	0.670877	-0.544650	-0.055040
O47	O	0.670494	-0.575372	-0.101885
N48	N	0.670512	-0.574354	0.000042
C49	C	0.670859	-0.544655	0.055131
O50	O	0.670483	-0.575374	0.101982
C51	C	0.671572	-0.485256	0.055134
C52	C	0.671943	-0.455556	0.000048
C53	C	0.671963	-0.455550	-0.110117
C54	C	0.672682	-0.396155	-0.110113
C55	C	0.673030	-0.366460	-0.055029
C56	C	0.672661	-0.396160	0.000052
C57	C	0.671915	-0.455557	0.110222
C58	C	0.672628	-0.396154	0.110220
C59	C	0.672998	-0.366454	0.055135
C60	C	0.673728	-0.307070	0.055141
N61	N	0.674092	-0.277366	0.000059
C62	C	0.673743	-0.307061	-0.055026
C63	C	0.669361	-0.669396	0.055121
C64	C	0.668652	-0.728795	0.055118
C65	C	0.668668	-0.728786	-0.055053
C66	C	0.669381	-0.669387	-0.055050
C67	C	0.669725	-0.639692	0.000039
C68	C	0.675252	-0.182327	-0.055014
C69	C	0.675973	-0.122927	-0.055005
C70	C	0.675954	-0.122941	0.055166
C71	C	0.675236	-0.182336	0.055157
C72	C	0.674883	-0.212027	0.000063
O73	O	0.674109	-0.276310	0.101962
O74	O	0.674112	-0.276333	-0.101869
C75	C	0.776459	0.069390	0.000070
C76	C	0.839676	0.070156	0.000072
C77	C	0.667545	0.178287	0.000043
C78	C	0.668300	0.241506	0.000033
N79	N	0.672292	0.074155	0.143864
N80	N	0.672334	0.074114	-0.143745
C81	C	0.711266	0.035197	0.563653
C82	C	0.711269	0.035193	0.627260
O83	O	0.744383	0.002076	0.660160
N84	N	0.672320	0.074117	0.659071
C85	C	0.633362	0.113044	0.627270
O86	O	0.600233	0.146152	0.660168
C87	C	0.633357	0.113045	0.563663
C88	C	0.672312	0.074122	0.531857
C89	C	0.750218	-0.003724	0.531846
C90	C	0.750216	-0.003719	0.468243
C91	C	0.711262	0.035206	0.436446
C92	C	0.672310	0.074127	0.468253
C93	C	0.594397	0.151969	0.531864
C94	C	0.594395	0.151966	0.468253
C95	C	0.633350	0.113043	0.436446
C96	C	0.633354	0.113056	0.372854
N97	N	0.672303	0.074132	0.341044
C98	C	0.711257	0.035207	0.372840
C99	C	0.633374	0.113039	0.760848
C100	C	0.633382	0.113041	0.824453
C101	C	0.711288	0.035189	0.824439
C102	C	0.711283	0.035190	0.760833
C103	C	0.672323	0.074115	0.729038
C104	C	0.711250	0.035220	0.239269
C105	C	0.711246	0.035230	0.175660
C106	C	0.633338	0.113080	0.175679
C107	C	0.633344	0.113073	0.239282
C108	C	0.672302	0.074138	0.271076
O109	O	0.600255	0.146155	0.339914
O110	O	0.744376	0.002100	0.339935
H111	H	0.404515	-0.017442	0.000058
N112	N	0.552371	0.193944	0.566157
H113	H	0.573971	0.219061	0.592547
H114	H	0.527705	0.218554	0.536312
N115	N	0.676324	-0.090909	0.114578
H116	H	0.711503	-0.106064	0.138670
H117	H	0.676810	-0.048781	0.106170
N118	N	0.673089	-0.364129	-0.169528
H119	H	0.673602	-0.321993	-0.161177
H120	H	0.708283	-0.379342	-0.193565
N121	N	0.591321	0.155056	0.141376
H122	H	0.566641	0.179714	0.171174
H123	H	0.612971	0.180126	0.114981
H124	H	0.668359	-0.752973	0.099974
H125	H	0.246136	-0.071341	0.000108
N126	N	0.669738	-0.637371	0.114541
H127	H	0.669401	-0.665206	0.149430
H128	H	0.705345	-0.617547	0.116947
H129	H	0.562667	0.183662	0.442369
N130	N	-0.053922	0.179540	0.000053
H131	H	-0.029597	0.182159	0.037513
H132	H	-0.029618	0.182116	-0.037431
N133	N	0.671517	-0.487581	0.169636
H134	H	0.671843	-0.459747	0.204527
H135	H	0.635909	-0.507404	0.172031
H136	H	0.512282	-0.016147	0.000056
N137	N	0.591338	0.155061	0.273593
H138	H	0.566664	0.179723	0.243796
H139	H	0.566288	0.133386	0.299984
H140	H	0.486571	0.172259	0.000022
N141	N	-0.147926	-0.037797	0.000089
H142	H	-0.172254	-0.040416	-0.037367
H143	H	-0.115576	-0.070321	0.000117
N144	N	-0.024468	-0.036322	0.000092
H145	H	-0.047814	-0.069544	0.000097
H146	H	0.000488	-0.038297	-0.037368
H147	H	0.743006	0.003493	0.850339
N148	N	0.676350	-0.090880	-0.114414
H149	H	0.711953	-0.071050	-0.116873
H150	H	0.675990	-0.118732	-0.149282
H151	H	0.601650	0.144741	0.734963
N152	N	0.369096	0.184602	0.000051
H153	H	0.392443	0.217823	0.000046
H154	H	0.344137	0.186575	-0.037404
H155	H	0.743004	0.003495	0.734939
N156	N	0.591369	0.155025	0.858756
H157	H	0.566693	0.179682	0.828955
H158	H	0.566321	0.133345	0.885145
H159	H	0.098505	0.219623	0.000044
N160	N	0.212229	0.234729	0.000026
H161	H	0.179908	0.267283	0.000021
H162	H	0.236564	0.237298	0.037484
H163	H	0.674962	-0.206494	-0.099877
H164	H	0.742970	0.003534	0.149765
N165	N	0.671626	-0.487578	-0.169535
H166	H	0.671982	-0.459743	-0.204422
H167	H	0.706656	-0.517025	-0.171904
H168	H	0.742973	0.003516	0.265148
H169	H	0.138388	-0.072635	0.000107
H170	H	0.668382	-0.752974	-0.099906
H171	H	-0.167662	0.164425	0.000058
N172	N	0.669780	-0.637355	-0.114462
H173	H	0.669453	-0.665186	-0.149355
H174	H	0.634765	-0.607892	-0.116869
N175	N	0.672997	-0.364126	0.169638
H176	H	0.672654	-0.391958	0.204530
H177	H	0.708605	-0.344303	0.172048
H178	H	0.781935	-0.035415	0.442349
H179	H	0.674940	-0.206520	0.100012
N180	N	0.792245	-0.045702	0.566134
H181	H	0.816919	-0.070350	0.536324
H182	H	0.817293	-0.024015	0.592513
