data_functionalizedCrystal
_audit_creation_method	'MofGen! by Chris Wilmer'
_symmetry_space_group_name_H-M	'P1'
_symmetry_Int_Tables_number	1
_symmetry_cell_setting	triclinic
loop_
_symmetry_equiv_pos_as_xyz
  x,y,z
_cell_length_a	10.540539
_cell_length_b	15.944551
_cell_length_c	9.616153
_cell_angle_alpha	89.996788
_cell_angle_beta	89.995174
_cell_angle_gamma	84.012115
loop_
_atom_site_label
_atom_site_type_symbol
_atom_site_fract_x
_atom_site_fract_y
_atom_site_fract_z
O1	O	1.684280	0.118370	-0.115583
O2	O	1.314716	0.129523	-0.115601
O3	O	1.509590	0.001731	-0.115579
O4	O	1.489406	0.246161	-0.115605
O5	O	1.509563	0.001734	0.115712
O6	O	1.314689	0.129525	0.115690
O7	O	1.684254	0.118372	0.115708
Zn8	Zn	1.499467	0.123949	0.152422
Zn9	Zn	1.499502	0.123946	-0.152315
O10	O	1.489379	0.246163	0.115686
C11	C	1.267411	0.128688	0.000043
C12	C	1.126497	0.126185	0.000036
C13	C	0.944375	0.030298	0.000587
C14	C	1.090959	0.032835	0.000051
C15	C	1.064228	0.171108	-0.132042
C16	C	0.917727	0.167922	-0.132138
C17	C	0.917182	0.169824	0.130883
C18	C	1.064152	0.170684	0.132615
C19	C	1.508739	-0.029566	0.000067
C20	C	1.506227	-0.122827	0.000067
C21	C	1.379430	-0.338440	0.000042
C22	C	1.438297	-0.399105	0.114086
C23	C	1.501682	-0.293580	0.000056
C24	C	1.438352	-0.399091	-0.113950
C25	C	1.497283	-0.458519	0.000040
C26	C	1.560583	-0.353017	0.114194
C27	C	1.560621	-0.352996	-0.113944
C28	C	1.619577	-0.413643	0.000128
C29	C	1.504213	-0.198563	0.000067
C30	C	1.494762	-0.553535	0.000039
C31	C	1.731559	0.119207	0.000061
C32	C	1.872473	0.121710	0.000058
C33	C	1.490231	0.277461	0.000037
C34	C	1.492743	0.370722	0.000027
N35	N	1.499452	0.123951	0.360396
N36	N	1.499527	0.123937	-0.360289
C37	C	1.394895	0.192081	0.580755
C38	C	1.395120	0.192337	0.419587
C39	C	1.631904	0.143890	0.418850
C40	C	1.631333	0.144372	0.580067
C41	C	1.472882	0.035659	0.580316
C42	C	1.469828	0.036231	0.419089
H43	H	1.085648	0.239662	-0.136963
H44	H	1.655935	0.207567	0.378454
H45	H	1.134043	-0.002512	0.094731
C46	C	1.120064	0.126351	0.264618
H47	H	1.181153	0.080914	0.239055
H48	H	1.053513	0.105320	0.316494
H49	H	1.160053	0.165469	0.319731
H50	H	1.296666	0.180340	0.380069
H51	H	1.612236	-0.332717	0.210715
H52	H	0.869037	0.237250	0.131769
H53	H	1.277955	-0.305737	0.000151
C54	C	1.368435	-0.426690	0.244322
H55	H	1.283126	-0.400698	0.244182
H56	H	1.411033	-0.410152	0.325305
H57	H	1.368021	-0.486242	0.243806
C58	C	1.739599	0.078680	0.367053
H59	H	1.818828	0.091922	0.403631
H60	H	1.742622	0.079887	0.268350
H61	H	1.723794	0.023998	0.397248
H62	H	1.372395	0.021118	0.380886
C63	C	1.756772	-0.457629	0.000219
H64	H	1.799979	-0.441858	0.081303
H65	H	1.800530	-0.441145	-0.080019
H66	H	1.754440	-0.517028	-0.000537
H67	H	1.378404	0.016683	0.621050
H68	H	0.886035	0.139615	0.230998
C69	C	1.122338	0.128955	-0.264829
H70	H	1.084043	0.156589	-0.344203
H71	H	1.107220	0.071259	-0.266011
H72	H	1.211607	0.133023	-0.266202
C73	C	0.880237	0.123060	-0.265493
H74	H	0.954509	0.106947	-0.319096
H75	H	0.822677	0.160240	-0.318301
H76	H	0.840418	0.074302	-0.241349
C77	C	1.663039	0.231375	0.630853
H78	H	1.662976	0.232436	0.729633
H79	H	1.600840	0.273795	0.596747
H80	H	1.744882	0.241564	0.597521
C81	C	1.566087	-0.035566	0.364686
H82	H	1.625875	-0.012882	0.305207
H83	H	1.522036	-0.074826	0.314358
H84	H	1.609767	-0.063275	0.440945
C85	C	1.575947	-0.032862	0.631827
H86	H	1.634936	-0.007839	0.689253
H87	H	1.619574	-0.059122	0.554300
H88	H	1.536911	-0.073888	0.683741
H89	H	0.916281	-0.006580	0.095308
C90	C	1.417562	0.280060	0.635442
H91	H	1.490516	0.275444	0.694043
H92	H	1.345107	0.303010	0.686764
H93	H	1.431073	0.316001	0.559246
H94	H	1.612295	-0.332559	-0.210358
H95	H	1.296131	0.180269	0.619562
C96	C	0.904257	-0.019319	-0.126639
H97	H	0.843883	0.015433	-0.180081
H98	H	0.867043	-0.067892	-0.096258
H99	H	0.977102	-0.036095	-0.182088
C100	C	1.368495	-0.426641	-0.244197
H101	H	1.283196	-0.400633	-0.244051
H102	H	1.368075	-0.486188	-0.243720
H103	H	1.411106	-0.410080	-0.325175
H104	H	1.133200	-0.002764	-0.094786
C105	C	1.418101	0.280811	0.367451
H106	H	1.427349	0.316735	0.444802
H107	H	1.347605	0.303209	0.312621
H108	H	1.493555	0.277073	0.312781
C109	C	1.095606	0.262629	0.143383
H110	H	1.056749	0.287931	0.224374
H111	H	1.064056	0.293069	0.063513
H112	H	1.185425	0.263611	0.148925
C113	C	0.851684	0.258611	-0.140282
H114	H	0.914426	0.297235	-0.143528
H115	H	0.799349	0.269894	-0.060645
H116	H	0.800551	0.264654	-0.221736
C117	C	1.739673	0.079938	0.632764
H118	H	1.740054	0.079794	0.731559
H119	H	1.819127	0.094926	0.599524
H120	H	1.726662	0.025340	0.599732
