data_functionalizedCrystal
_audit_creation_method	'MofGen! by Chris Wilmer'
_symmetry_space_group_name_H-M	'P1'
_symmetry_Int_Tables_number	1
_symmetry_cell_setting	triclinic
loop_
_symmetry_equiv_pos_as_xyz
  x,y,z
_cell_length_a	13.897449
_cell_length_b	17.077402
_cell_length_c	17.077384
_cell_angle_alpha	90.089817
_cell_angle_beta	89.944994
_cell_angle_gamma	89.975837
loop_
_atom_site_label
_atom_site_type_symbol
_atom_site_fract_x
_atom_site_fract_y
_atom_site_fract_z
Zn1	Zn	1.474994	0.312016	-0.443814
Zn2	Zn	1.974994	0.812016	0.056186
Zn3	Zn	1.474777	0.443429	-0.312545
Zn4	Zn	1.974777	0.943429	0.187455
Zn5	Zn	1.313587	0.312184	-0.312564
Zn6	Zn	1.813587	0.812184	0.187436
Zn7	Zn	1.313650	0.443247	-0.443771
Zn8	Zn	1.813650	0.943247	0.056229
O9	O	1.394252	0.377719	-0.378174
O10	O	1.894252	0.877719	0.121826
O11	O	1.609947	0.329454	-0.426411
O12	O	2.109947	0.829454	0.073589
O13	O	1.453277	0.426165	-0.202700
O14	O	1.953277	0.926165	0.297300
O15	O	1.335062	0.202315	-0.330001
O16	O	1.835062	0.702315	0.169999
O17	O	1.609788	0.426002	-0.329968
O18	O	2.109788	0.926002	0.170032
O19	O	1.453647	0.202191	-0.426430
O20	O	1.953647	0.702191	0.073570
O21	O	1.334852	0.329740	-0.202715
O22	O	1.834852	0.829740	0.297285
O23	O	1.178614	0.329564	-0.329959
O24	O	1.678614	0.829564	0.170041
O25	O	1.335171	0.425693	-0.553624
O26	O	1.835171	0.925693	-0.053624
O27	O	1.178660	0.425855	-0.426357
O28	O	1.678660	0.925855	0.073643
O29	O	1.453709	0.329278	-0.553656
O30	O	1.953709	0.829278	-0.053656
O31	O	1.453339	0.553252	-0.329926
O32	O	1.953339	1.053252	0.170074
O33	O	1.334960	0.553118	-0.426338
O34	O	1.834960	1.053118	0.073662
C35	C	1.143638	0.377708	-0.378156
C36	C	1.643638	0.877708	0.121844
C37	C	1.036424	0.377723	-0.378167
C38	C	1.536424	0.877723	0.121833
C39	C	1.394159	0.581667	-0.378143
C40	C	1.894159	1.081667	0.121857
C41	C	1.394207	0.668917	-0.378155
C42	C	1.894207	1.168917	0.121845
C43	C	1.394471	0.377446	-0.582919
C44	C	1.894471	0.877446	-0.082919
C45	C	1.394565	0.377330	-0.670169
C46	C	1.894565	0.877330	-0.170169
C47	C	0.840129	0.377726	-0.378187
C48	C	1.340129	0.877726	0.121813
C49	C	0.949361	0.377722	-0.378174
C50	C	1.449361	0.877722	0.121826
C51	C	1.645845	0.377730	-0.378192
C52	C	2.145845	0.877730	0.121808
C53	C	1.753059	0.377735	-0.378200
C54	C	2.253059	0.877735	0.121800
C55	C	1.394372	0.172975	-0.378222
C56	C	1.894372	0.672975	0.121778
C57	C	1.394423	0.085725	-0.378243
C58	C	1.894423	0.585725	0.121757
C59	C	1.455910	0.709950	-0.328008
C60	C	1.955910	1.209950	0.171992
C61	C	1.455958	0.791931	-0.328028
C62	C	1.955958	1.291931	0.171972
C63	C	1.394296	0.832876	-0.378192
C64	C	1.894296	1.332876	0.121808
C65	C	1.332591	0.791837	-0.428345
C66	C	1.832591	1.291837	0.071655
C67	C	1.332549	0.709858	-0.428328
C68	C	1.832549	1.209858	0.071672
C69	C	1.332680	0.962707	-0.428375
C70	C	1.832680	1.462707	0.071625
C71	C	1.332720	1.044691	-0.428391
C72	C	1.832720	1.544691	0.071609
C73	C	1.456089	1.044779	-0.328074
C74	C	1.956089	1.544779	0.171926
C75	C	1.456047	0.962800	-0.328058
C76	C	1.956047	1.462800	0.171942
C77	C	1.394340	0.921767	-0.378210
C78	C	1.894340	1.421767	0.121790
C79	C	1.394089	0.377934	-0.174226
C80	C	1.894089	0.877934	0.325774
C81	C	1.394183	0.377829	-0.086976
C82	C	1.894183	0.877829	0.413024
C83	C	1.332421	0.327544	0.288793
C84	C	1.832421	0.827544	0.788793
C85	C	1.332342	0.327644	0.206813
C86	C	1.832342	0.827644	0.706813
C87	C	1.394410	0.377528	0.165872
C88	C	1.894410	0.877528	0.665872
C89	C	1.456556	0.427321	0.206916
C90	C	1.956556	0.927321	0.706916
C91	C	1.456631	0.427223	0.288895
C92	C	1.956631	0.927223	0.788895
C93	C	1.456399	0.427519	0.036047
C94	C	1.956399	0.927519	0.536047
C95	C	1.456326	0.427615	-0.045938
C96	C	1.956326	0.927615	0.454062
C97	C	1.332110	0.327940	-0.046035
C98	C	1.832110	0.827940	0.453965
C99	C	1.332184	0.327842	0.035943
C100	C	1.832184	0.827842	0.535943
C101	C	1.394332	0.377634	0.076982
C102	C	1.894332	0.877634	0.576982
H103	H	1.506118	0.676618	-0.287155
H104	H	2.006118	1.176618	0.212845
Br105	Br	1.248188	0.259834	0.344348
Br106	Br	1.748188	0.759834	0.844348
H107	H	1.506868	0.468235	-0.079270
H108	H	2.006868	0.968235	0.420730
Br109	Br	1.247956	0.260134	0.091506
Br110	Br	1.747956	0.760134	0.591506
Br111	Br	1.539707	0.847616	-0.259972
Br112	Br	2.039707	1.347616	0.240028
Br113	Br	1.247949	0.260117	0.151121
Br114	Br	1.747949	0.760117	0.651121
Br115	Br	1.540736	0.495099	0.091741
Br116	Br	2.040736	0.995099	0.591741
H117	H	1.507089	0.467941	0.173576
H118	H	2.007089	0.967941	0.673576
H119	H	1.282305	0.676449	-0.469165
H120	H	1.782305	1.176449	0.030835
H121	H	1.281508	0.287397	-0.079453
H122	H	1.781508	0.787397	0.420547
H123	H	1.506251	0.929463	-0.287206
H124	H	2.006251	1.429463	0.212794
Br125	Br	1.539821	1.100466	-0.260000
Br126	Br	2.039821	1.600466	0.240000
Br127	Br	1.540964	0.494800	0.344591
Br128	Br	2.040964	0.994800	0.844591
H129	H	1.282528	1.078027	-0.469253
H130	H	1.782528	1.578027	0.030747
H131	H	1.282435	0.929300	-0.469217
H132	H	1.782435	1.429300	0.030783
H133	H	1.282389	0.825181	-0.469193
H134	H	1.782389	1.325181	0.030807
