data_functionalizedCrystal
_audit_creation_method	'MofGen! by Chris Wilmer'
_symmetry_space_group_name_H-M	'P1'
_symmetry_Int_Tables_number	1
_symmetry_cell_setting	triclinic
loop_
_symmetry_equiv_pos_as_xyz
  x,y,z
_cell_length_a	15.995350
_cell_length_b	27.732048
_cell_length_c	15.072220
_cell_angle_alpha	89.993868
_cell_angle_beta	89.991149
_cell_angle_gamma	83.067515
loop_
_atom_site_label
_atom_site_type_symbol
_atom_site_fract_x
_atom_site_fract_y
_atom_site_fract_z
O1	O	1.110190	0.062301	-0.073717
O2	O	0.866315	0.069995	-0.073737
O3	O	0.995827	-0.004216	-0.073709
O4	O	0.980678	0.136512	-0.073744
O5	O	0.995795	-0.004212	0.073856
O6	O	0.866283	0.069999	0.073828
O7	O	1.110158	0.062305	0.073848
Zn8	Zn	0.988215	0.066153	0.097267
Zn9	Zn	0.988257	0.066148	-0.097156
O10	O	0.980646	0.136516	0.073821
C11	C	0.835108	0.069679	0.000044
C12	C	0.742170	0.068726	0.000037
C13	C	0.404467	0.065301	0.000056
C14	C	0.452585	0.012449	0.000399
C15	C	0.549263	0.013403	0.000060
C16	C	0.572006	0.067000	0.000047
C17	C	0.530599	0.093065	-0.084223
C18	C	0.433981	0.091738	-0.084287
C19	C	0.433592	0.092834	0.083522
C20	C	0.530537	0.092822	0.084630
C21	C	0.666691	0.067962	0.000039
C22	C	0.309782	0.064340	0.000058
C23	C	0.995493	-0.022222	0.000076
C24	C	0.994535	-0.075881	0.000083
C25	C	1.065040	-0.414392	0.000043
C26	C	1.061487	-0.616067	0.000030
O27	O	1.125959	-0.647045	-0.000004
N28	N	0.984692	-0.635522	0.000025
C29	C	0.908780	-0.604555	0.000017
O30	O	0.843380	-0.625730	0.000003
C31	C	0.912334	-0.402881	0.000023
C32	C	0.989134	-0.383429	0.000037
C33	C	1.141834	-0.394940	0.000056
C34	C	1.142721	-0.344524	0.000064
C35	C	1.066815	-0.313561	0.000059
C36	C	0.990021	-0.333013	0.000045
C37	C	0.836422	-0.371914	0.000009
C38	C	0.837317	-0.321493	0.000008
C39	C	0.914117	-0.302041	0.000023
C40	C	0.915002	-0.251634	0.000048
N41	N	0.991797	-0.232179	0.000053
C42	C	1.067703	-0.263142	0.000059
C43	C	0.906920	-0.710437	0.000015
C44	C	0.906031	-0.760855	0.000015
C45	C	1.058739	-0.772364	0.000027
C46	C	1.059627	-0.721945	0.000033
C47	C	0.983715	-0.690982	0.000021
C48	C	1.069561	-0.157265	0.000076
C49	C	1.070442	-0.106844	0.000088
C50	C	0.917734	-0.095340	0.000072
C51	C	0.916853	-0.145756	0.000065
C52	C	0.992773	-0.176718	0.000064
O53	O	0.850565	-0.220628	0.000072
O54	O	1.133094	-0.241958	0.000053
C55	C	1.064153	-0.464808	0.000035
C56	C	0.987359	-0.484260	0.000022
C57	C	0.911452	-0.453297	0.000016
C58	C	0.986470	-0.534679	0.000022
C59	C	1.062377	-0.565642	0.000027
C60	C	1.139172	-0.546187	0.000032
C61	C	1.140059	-0.495771	0.000040
C62	C	0.834657	-0.472752	0.000011
C63	C	0.833776	-0.523168	0.000004
C64	C	0.909683	-0.554132	0.000009
C65	C	1.141364	0.062621	0.000066
C66	C	1.234302	0.063575	0.000066
C67	C	0.980980	0.154523	0.000034
C68	C	0.981938	0.208182	0.000021
N69	N	0.988193	0.066156	0.229956
N70	N	0.988287	0.066140	-0.229845
C71	C	0.988256	0.066146	0.589158
C72	C	0.918727	0.105721	0.551536
C73	C	0.918884	0.105866	0.448710
C74	C	0.988224	0.066151	0.410954
C75	C	1.075446	0.077167	0.448249
C76	C	1.075056	0.077448	0.551106
C77	C	0.971342	0.015437	0.551269
C78	C	0.969333	0.015775	0.448405
C79	C	0.988211	0.066153	0.310240
C80	C	0.988274	0.066145	0.689871
H81	H	0.415932	0.072726	-0.147272
H82	H	0.577944	-0.007086	0.060468
C83	C	1.147393	0.040250	0.584731
C84	C	1.162002	0.033059	0.685094
C85	C	1.234528	-0.004012	0.718713
C86	C	1.292446	-0.033891	0.651970
C87	C	1.277839	-0.026700	0.551601
C88	C	1.205313	0.010370	0.517982
H89	H	1.119126	0.055177	0.734507
H90	H	1.245341	-0.009335	0.793013
H91	H	1.346135	-0.061332	0.676857
H92	H	1.320715	-0.048819	0.502188
H93	H	1.194500	0.015693	0.443682
C94	C	0.887315	0.001136	0.586341
C95	C	0.816742	-0.007609	0.520936
C96	C	0.732710	-0.021903	0.556008
C97	C	0.719251	-0.027452	0.656487
C98	C	0.789826	-0.018707	0.721899
C99	C	0.873858	-0.004413	0.686826
H100	H	0.826703	-0.003501	0.446550
H101	H	0.680466	-0.028377	0.507586
H102	H	0.657045	-0.038033	0.682450
H103	H	0.779864	-0.022815	0.796285
H104	H	0.926102	0.002061	0.735249
C105	C	1.039843	-0.024351	0.584140
C106	C	1.096271	-0.054786	0.516859
C107	C	1.164774	-0.094569	0.549736
C108	C	1.176849	-0.103917	0.649895
C109	C	1.120419	-0.073482	0.717183
C110	C	1.051916	-0.033699	0.684306
H111	H	1.087334	-0.047866	0.442709
H112	H	1.206546	-0.117099	0.499925
H113	H	1.227559	-0.133367	0.674233
H114	H	1.129356	-0.080401	0.791333
H115	H	1.010144	-0.011169	0.734117
H116	H	0.854029	0.099303	0.423496
C117	C	1.096227	0.126557	0.413435
C118	C	1.179019	0.145576	0.440842
C119	C	1.199795	0.194968	0.406030
C120	C	1.137778	0.225341	0.343810
C121	C	1.054980	0.206323	0.316400
C122	C	1.034205	0.156931	0.351212
H123	H	1.224933	0.123091	0.486904
H124	H	1.261087	0.209046	0.426322
H125	H	1.153157	0.261904	0.318041
H126	H	1.009067	0.228808	0.270338
H127	H	0.972912	0.142853	0.330920
H128	H	0.771232	-0.539001	-0.000000
C129	C	0.830832	0.096964	0.584949
C130	C	0.812062	0.097424	0.685178
C131	C	0.724169	0.088645	0.718580
C132	C	0.655046	0.079406	0.651752
C133	C	0.673815	0.078945	0.551517
C134	C	0.761708	0.087724	0.518115
H135	H	0.863232	0.104264	0.734653
H136	H	0.710275	0.088986	0.792781
H137	H	0.589983	0.072907	0.676478
H138	H	0.622645	0.072105	0.502042
H139	H	0.775602	0.087383	0.443914
C140	C	0.823411	-0.676380	0.000010
C141	C	0.803003	-0.640141	0.076637
C142	C	0.719494	-0.606086	0.076638
C143	C	0.656394	-0.608271	0.000011
C144	C	0.676800	-0.644512	-0.076621
C145	C	0.760309	-0.678566	-0.076622
H146	H	0.849715	-0.638522	0.133366
H147	H	0.704388	-0.579258	0.133367
H148	H	0.594576	-0.583062	0.000012
H149	H	0.630088	-0.646131	-0.133350
H150	H	0.775415	-0.705394	-0.133350
H151	H	0.905175	0.007416	0.424030
H152	H	1.090060	0.114429	0.575080
H153	H	0.434323	-0.008675	0.060832
C154	C	1.142238	-0.806429	0.000027
C155	C	1.162613	-0.842681	0.076648
C156	C	1.246107	-0.876748	0.076640
C157	C	1.309228	-0.874563	0.000011
C158	C	1.288855	-0.838310	-0.076616
C159	C	1.205361	-0.804243	-0.076608
H160	H	1.115885	-0.844300	0.133379
H161	H	1.261188	-0.903586	0.133365
H162	H	1.371035	-0.899782	0.000005
H163	H	1.335582	-0.836691	-0.133347
H164	H	1.190280	-0.777405	-0.133333
C165	C	0.406155	0.069489	0.169816
C166	C	0.427938	0.090503	0.260327
C167	C	0.400507	0.067150	0.346615
C168	C	0.351294	0.022783	0.342391
C169	C	0.329509	0.001767	0.251876
C170	C	0.356939	0.025120	0.165588
H171	H	0.464371	0.123348	0.263457
H172	H	0.416634	0.082707	0.413620
H173	H	0.330988	0.005495	0.406266
H174	H	0.293076	-0.031078	0.248746
H175	H	0.340812	0.009562	0.098583
H176	H	1.203650	-0.420146	0.000057
H177	H	0.775499	-0.296285	-0.000003
C178	C	1.033374	-0.025877	0.413704
C179	C	1.026539	-0.078578	0.442241
C180	C	1.090591	-0.120229	0.407546
C181	C	1.161479	-0.109178	0.344313
C182	C	1.168318	-0.056475	0.315772
C183	C	1.104265	-0.014824	0.350468
H184	H	0.974061	-0.086760	0.489053
H185	H	1.085528	-0.159243	0.428674
H186	H	1.208894	-0.140011	0.318629
H187	H	1.220796	-0.048292	0.268961
H188	H	1.109328	0.024191	0.329340
H189	H	0.558086	0.073794	0.146972
H190	H	0.772844	-0.447546	0.000005
H191	H	0.433276	-0.008581	-0.059692
H192	H	0.929308	0.143139	0.577366
C193	C	0.933384	0.156701	0.415441
C194	C	1.014573	0.178134	0.440712
C195	C	1.029076	0.228971	0.407445
C196	C	0.962389	0.258376	0.348907
C197	C	0.881194	0.236944	0.323633
C198	C	0.866691	0.186106	0.356900
H199	H	1.063943	0.156366	0.484049
H200	H	1.089182	0.244836	0.426156
H201	H	0.973125	0.296009	0.324281
H202	H	0.831824	0.258711	0.280296
H203	H	0.806585	0.170241	0.338190
C204	C	1.144107	-0.700550	0.000041
C205	C	1.206957	-0.712237	0.076673
C206	C	1.291442	-0.690845	0.076679
C207	C	1.313075	-0.657767	0.000053
C208	C	1.250223	-0.646078	-0.076585
C209	C	1.165739	-0.667469	-0.076591
H210	H	1.190945	-0.736725	0.133402
H211	H	1.337969	-0.699498	0.133412
H212	H	1.375615	-0.641931	0.000057
H213	H	1.266236	-0.621589	-0.133313
H214	H	1.119212	-0.658816	-0.133323
C215	C	1.154927	-0.085449	0.000100
C216	C	1.176528	-0.052379	0.076734
C217	C	1.261010	-0.030986	0.076744
C218	C	1.323891	-0.042662	0.000119
C219	C	1.302292	-0.075733	-0.076520
C220	C	1.217810	-0.097126	-0.076530
H221	H	1.129978	-0.043735	0.133461
H222	H	1.276999	-0.006504	0.133478
H223	H	1.386430	-0.026825	0.000127
H224	H	1.348842	-0.084377	-0.133247
H225	H	1.201821	-0.121608	-0.133265
H226	H	0.843493	-0.776688	0.000019
H227	H	0.577401	-0.007228	-0.060444
H228	H	1.131383	-0.182469	0.000072
H229	H	1.128393	0.049109	0.423790
H230	H	0.401231	0.130541	-0.088120
H231	H	0.545395	0.131906	0.089710
C232	C	0.548993	0.146260	-0.088477
C233	C	0.640602	0.157940	-0.093067
C234	C	0.658997	0.211134	-0.097318
C235	C	0.585784	0.252648	-0.096978
C236	C	0.494169	0.240969	-0.092388
C237	C	0.475774	0.187775	-0.088137
H238	H	0.694804	0.127208	-0.093319
H239	H	0.726817	0.219780	-0.100716
H240	H	0.599401	0.292026	-0.100125
H241	H	0.439967	0.271701	-0.092136
H242	H	0.407954	0.179129	-0.084738
C243	C	0.569252	0.068598	-0.168937
C244	C	0.664384	0.066870	-0.186662
C245	C	0.703033	0.042397	-0.271372
C246	C	0.646551	0.019652	-0.338357
C247	C	0.551414	0.021380	-0.320634
C248	C	0.512765	0.045853	-0.235924
H249	H	0.706200	0.083708	-0.137073
H250	H	0.773460	0.041119	-0.284491
H251	H	0.675162	0.001536	-0.401065
H252	H	0.509598	0.004542	-0.370223
H253	H	0.442338	0.047131	-0.222805
H254	H	0.401326	0.131802	0.084083
H255	H	1.205260	-0.328691	0.000072
C256	C	0.751936	-0.393299	-0.000012
C257	C	0.689045	-0.381612	0.076600
C258	C	0.604552	-0.402993	0.076577
C259	C	0.582949	-0.436062	-0.000058
C260	C	0.645842	-0.447750	-0.076676
C261	C	0.730335	-0.426369	-0.076653
H262	H	0.705035	-0.357131	0.133335
H263	H	0.557994	-0.394341	0.133295
H264	H	0.520402	-0.451890	-0.000075
H265	H	0.629852	-0.472231	-0.133411
H266	H	0.776892	-0.435022	-0.133371
C267	C	0.832378	-0.167160	0.000053
C268	C	0.769487	-0.155492	0.076672
C269	C	0.685012	-0.176893	0.076650
C270	C	0.663428	-0.209963	0.000008
C271	C	0.726320	-0.221632	-0.076616
C272	C	0.810795	-0.200231	-0.076593
H273	H	0.785464	-0.131011	0.133412
H274	H	0.638455	-0.168255	0.133372
H275	H	0.600894	-0.225805	-0.000008
H276	H	0.710343	-0.246114	-0.133355
H277	H	0.857352	-0.208870	-0.133316
C278	C	0.834241	-0.061273	0.000062
C279	C	0.813888	-0.025025	-0.076569
C280	C	0.730395	0.009044	-0.076587
C281	C	0.667256	0.006864	0.000026
C282	C	0.687608	-0.029385	0.076663
C283	C	0.771101	-0.063454	0.076681
H284	H	0.860628	-0.023410	-0.133288
H285	H	0.715329	0.035878	-0.133320
H286	H	0.605449	0.032084	0.000013
H287	H	0.640867	-0.031000	0.133382
H288	H	0.786166	-0.090288	0.133413
H289	H	1.200977	-0.571406	0.000040
C290	C	1.224542	-0.474379	0.000047
C291	C	1.287395	-0.486072	0.076675
C292	C	1.371883	-0.464684	0.076678
C293	C	1.393518	-0.431604	0.000054
C294	C	1.330663	-0.419910	-0.076579
C295	C	1.246175	-0.441297	-0.076583
H296	H	1.271382	-0.510561	0.133401
H297	H	1.418412	-0.473341	0.133408
H298	H	1.456061	-0.415772	0.000057
H299	H	1.346676	-0.395421	-0.133306
H300	H	1.199646	-0.432640	-0.133312
