data_functionalizedCrystal
_audit_creation_method	'MofGen! by Chris Wilmer'
_symmetry_space_group_name_H-M	'P1'
_symmetry_Int_Tables_number	1
_symmetry_cell_setting	triclinic
loop_
_symmetry_equiv_pos_as_xyz
  x,y,z
_cell_length_a	6.817900
_cell_length_b	15.866870
_cell_length_c	10.943624
_cell_angle_alpha	110.425160
_cell_angle_beta	108.838799
_cell_angle_gamma	102.655915
loop_
_atom_site_label
_atom_site_type_symbol
_atom_site_fract_x
_atom_site_fract_y
_atom_site_fract_z
V1	V	-4.123267	-0.132606	-0.465660
O2	O	-4.072829	0.006398	-0.391843
O3	O	-4.108858	-0.262961	-0.524945
O4	O	-4.101110	-0.130555	-0.640251
O5	O	-4.080631	-0.126924	-0.275739
V6	V	-4.599090	-0.115981	-0.435356
O7	O	-4.401416	-0.169075	-0.532137
O8	O	-4.771139	-0.079512	-0.368879
O9	O	-4.390293	0.014373	-0.376071
O10	O	-4.766925	-0.254985	-0.509173
O11	O	-4.759124	-0.121663	-0.625277
O12	O	-4.398041	-0.118032	-0.260765
C13	C	-3.961278	-0.294739	-0.533718
C14	C	-4.030959	-0.401305	-0.583354
C15	C	-3.950655	-0.683418	-0.122938
C16	C	-4.016146	-0.783558	-0.169621
C17	C	-4.139936	-0.810895	-0.419093
C18	C	-4.074444	-0.710755	-0.372429
C19	C	-3.979808	-0.647024	-0.224350
C20	C	-4.103597	-0.674361	-0.473842
C21	C	-4.038121	-0.574230	-0.427182
C22	C	-3.943492	-0.510493	-0.279110
C23	C	-3.914333	-0.546893	-0.177691
C24	C	-4.198248	-0.738094	-0.621921
C25	C	-4.227401	-0.701700	-0.723333
C26	C	-4.161910	-0.601567	-0.676673
C27	C	-4.067281	-0.537830	-0.528601
C28	C	-4.191070	-0.565167	-0.778093
C29	C	-4.125594	-0.465036	-0.731433
C30	C	-4.001805	-0.437699	-0.481941
C31	C	-3.951393	-0.125841	-0.680800
C32	C	-4.014785	-0.125027	-0.823939
C33	C	-3.859294	-0.119542	-0.898476
C34	C	-4.053424	-0.200952	-1.043210
C35	C	-3.933636	-0.042175	-0.934259
C36	C	-4.208130	-0.206513	-0.966833
C37	C	-4.088258	-0.047664	-0.857824
C38	C	-4.282526	-0.129097	-1.002539
C39	C	-4.201216	0.046146	-0.367297
C40	C	-4.110775	0.152712	-0.317670
C41	C	-4.211100	-0.122749	-0.220211
C42	C	-4.126945	-0.123559	-0.077068
H43	H	-3.890189	-0.428961	-0.241122
H44	H	-3.679863	-0.115611	-0.853157
H45	H	-4.039360	-0.265756	-1.123001
C46	C	-3.557143	0.056414	-0.864837
C47	C	-3.777821	0.051595	-0.917591
H48	H	-3.460944	0.114304	-0.854538
H49	H	-3.546191	0.001952	-0.930909
H50	H	-3.514625	0.056270	-0.773274
H51	H	-3.820346	0.051732	-1.009159
H52	H	-3.788782	0.106071	-0.851517
C53	C	-4.306893	-0.582137	-1.020022
C54	C	-4.295123	-0.635227	-0.940858
H55	H	-4.371149	-0.625390	-1.120507
H56	H	-4.160826	-0.539400	-0.991038
H57	H	-4.396723	-0.545626	-1.002222
H58	H	-4.205279	-0.671733	-0.958649
H59	H	-4.441214	-0.677981	-0.969852
C60	C	-4.302712	-0.300334	-0.848684
C61	C	-4.363990	-0.300383	-0.983786
H62	H	-4.398919	-0.358288	-0.859153
H63	H	-4.314857	-0.245961	-0.783266
H64	H	-4.152808	-0.296734	-0.812019
H65	H	-4.513890	-0.303975	-1.020445
H66	H	-4.351867	-0.354770	-1.049226
H67	H	-4.102238	0.017144	-0.777997
C68	C	-4.050037	-0.388156	-0.263191
C69	C	-3.897792	-0.367628	-0.319173
H70	H	-3.985835	-0.344890	-0.162713
H71	H	-4.084816	-0.452985	-0.276442
H72	H	-4.182701	-0.380496	-0.312439
H73	H	-3.765134	-0.375294	-0.269932
H74	H	-3.862983	-0.302782	-0.305909
C75	C	-3.942764	-0.423019	0.011241
C76	C	-3.810294	-0.476820	-0.014921
H77	H	-3.878528	-0.379754	0.111721
H78	H	-4.088808	-0.465774	-0.017737
H79	H	-3.950762	-0.387028	-0.042505
H80	H	-3.802309	-0.512817	0.038817
H81	H	-3.664210	-0.434060	0.014073
C82	C	-3.834894	-0.666441	0.119004
C83	C	-3.846655	-0.613355	0.039834
H84	H	-3.770716	-0.623187	0.219485
H85	H	-3.745024	-0.702928	0.101249
H86	H	-3.980979	-0.709201	0.089983
H87	H	-3.700568	-0.570601	0.068847
H88	H	-3.936526	-0.576852	0.057599
C89	C	-4.061509	-0.924909	-0.130355
C90	C	-3.984063	-0.823563	-0.058136
H91	H	-4.041709	-0.949605	-0.061529
H92	H	-3.979716	-0.943801	-0.183642
H93	H	-4.215639	-0.950054	-0.194856
H94	H	-3.829928	-0.798417	0.006358
H95	H	-4.065853	-0.804662	-0.004824
C96	C	-4.295259	-0.976528	-0.601399
C97	C	-4.243946	-0.880953	-0.581857
H98	H	-4.359452	-1.019775	-0.701884
H99	H	-4.398525	-0.990442	-0.563417
H100	H	-4.162585	-0.984187	-0.552167
H101	H	-4.376623	-0.873292	-0.631080
H102	H	-4.140674	-0.867034	-0.619857
C103	C	-4.668793	-0.220635	-1.081971
C104	C	-4.524910	-0.134573	-1.063541
H105	H	-4.818431	-0.224020	-1.119644
H106	H	-4.629946	-0.221716	-0.991152
H107	H	-4.655606	-0.274535	-1.147638
H108	H	-4.538086	-0.080672	-0.997864
H109	H	-4.563770	-0.133483	-1.154373
H110	H	-4.251560	-0.819627	-0.659906
H111	H	-4.304468	-0.753604	-0.843900
H112	H	-4.149366	-0.435405	-0.814015
