data_functionalizedCrystal
_audit_creation_method	'MofGen! by Chris Wilmer'
_symmetry_space_group_name_H-M	'P1'
_symmetry_Int_Tables_number	1
_symmetry_cell_setting	triclinic
loop_
_symmetry_equiv_pos_as_xyz
  x,y,z
_cell_length_a	16.974901
_cell_length_b	23.532409
_cell_length_c	16.053802
_cell_angle_alpha	92.552399
_cell_angle_beta	96.225225
_cell_angle_gamma	96.872916
loop_
_atom_site_label
_atom_site_type_symbol
_atom_site_fract_x
_atom_site_fract_y
_atom_site_fract_z
O1	O	-1.055358	0.067777	-0.140656
O2	O	-0.555358	0.567777	0.359344
O3	O	-0.824329	0.077550	-0.125063
O4	O	-0.324329	0.577550	0.374937
O5	O	-0.946809	-0.010261	-0.133331
O6	O	-0.446809	0.489739	0.366669
O7	O	-0.932877	0.155588	-0.132388
O8	O	-0.432877	0.655588	0.367612
O9	O	-0.940067	-0.005448	0.005983
O10	O	-0.440067	0.494552	0.505983
O11	O	-0.817587	0.082363	0.014251
O12	O	-0.317587	0.582363	0.514251
O13	O	-1.048616	0.072591	-0.001342
O14	O	-0.548616	0.572591	0.498658
Zn15	Zn	-0.932031	0.078241	0.028573
Zn16	Zn	-0.432031	0.578241	0.528573
Zn17	Zn	-0.940914	0.071899	-0.154979
Zn18	Zn	-0.440914	0.571899	0.345021
O19	O	-0.926136	0.160402	0.006926
O20	O	-0.426136	0.660402	0.506926
C21	C	-0.791406	0.079672	-0.053412
C22	C	-0.291406	0.579672	0.446588
C23	C	-0.703352	0.078818	-0.047469
C24	C	-0.203352	0.578818	0.452531
C25	C	-0.943083	-0.029071	-0.063652
C26	C	-0.443083	0.470929	0.436348
C27	C	-0.942016	-0.092289	-0.063586
C28	C	-0.442016	0.407711	0.436414
C29	C	-0.665651	0.075795	-0.120611
C30	C	-0.165651	0.575795	0.379389
C31	C	-0.582913	0.075002	-0.115015
C32	C	-0.082913	0.575002	0.384985
C33	C	-0.537877	0.077229	-0.036276
C34	C	-0.037877	0.577229	0.463724
C35	C	-0.575583	0.080254	0.036871
C36	C	-0.075583	0.580254	0.536871
C37	C	-0.658320	0.081051	0.031274
C38	C	-0.158320	0.581051	0.531274
C39	C	-0.290038	0.075131	-0.011394
C40	C	0.209962	0.575131	0.488606
C41	C	-0.207296	0.074333	-0.005802
C42	C	0.292704	0.574333	0.494198
C43	C	-0.214631	0.069082	-0.157689
C44	C	0.285369	0.569082	0.342311
C45	C	-0.297369	0.069875	-0.163279
C46	C	0.202631	0.569875	0.336721
C47	C	-0.335068	0.072904	-0.090132
C48	C	0.164932	0.572904	0.409868
N49	N	-0.453305	0.076417	-0.030554
N50	N	0.046695	0.576417	0.469446
N51	N	-0.419637	0.073720	-0.095855
N52	N	0.080363	0.573720	0.404145
C53	C	-0.941152	-0.368163	-0.139223
C54	C	-0.441152	0.131837	0.360777
C55	C	-0.942143	-0.308761	-0.139290
C56	C	-0.442143	0.191239	0.360710
O57	O	-0.945808	-0.280268	-0.203909
O58	O	-0.445808	0.219732	0.296091
N59	N	-0.938959	-0.276435	-0.063382
N60	N	-0.438959	0.223565	0.436618
C61	C	-0.934791	-0.303513	0.012597
C62	C	-0.434791	0.196487	0.512597
O63	O	-0.932174	-0.270563	0.077157
O64	O	-0.432174	0.229437	0.577157
C65	C	-0.933806	-0.362914	0.012663
C66	C	-0.433806	0.137086	0.512663
C67	C	-0.936982	-0.395237	-0.063249
C68	C	-0.436982	0.104763	0.436751
C69	C	-0.944329	-0.400485	-0.215130
C70	C	-0.444329	0.099515	0.284870
C71	C	-0.943336	-0.459882	-0.215062
C72	C	-0.443336	0.040118	0.284938
C73	C	-0.939166	-0.486957	-0.139088
C74	C	-0.439166	0.013043	0.360912
C75	C	-0.935989	-0.454634	-0.063182
C76	C	-0.435989	0.045366	0.436818
C77	C	-0.929644	-0.389992	0.088642
C78	C	-0.429644	0.110008	0.588642
C79	C	-0.928659	-0.449397	0.088701
C80	C	-0.428659	0.050603	0.588701
C81	C	-0.931835	-0.481720	0.012788
C82	C	-0.431835	0.018280	0.512788
C83	C	-0.930827	-0.541105	0.012860
C84	C	-0.430827	-0.041105	0.512860
N85	N	-0.934011	-0.573431	-0.063049
N86	N	-0.434011	-0.073431	0.436951
C87	C	-0.938181	-0.546357	-0.139023
C88	C	-0.438181	-0.046357	0.360977
C89	C	-0.936862	-0.178768	0.012453
C90	C	-0.436862	0.321232	0.512453
C91	C	-0.937842	-0.119368	0.012389
C92	C	-0.437842	0.380632	0.512389
C93	C	-0.945195	-0.124620	-0.139499
C94	C	-0.445195	0.375380	0.360501
C95	C	-0.944210	-0.184021	-0.139434
C96	C	-0.444210	0.315979	0.360566
C97	C	-0.940047	-0.211095	-0.063455
C98	C	-0.440047	0.288905	0.436545
C99	C	-0.936095	-0.671095	-0.138875
C100	C	-0.436095	-0.171095	0.361125
C101	C	-0.935099	-0.730496	-0.138801
C102	C	-0.435099	-0.230496	0.361199
C103	C	-0.927750	-0.725239	0.013087
C104	C	-0.427750	-0.225239	0.513087
C105	C	-0.928742	-0.665842	0.013013
C106	C	-0.428742	-0.165842	0.513013
C107	C	-0.932918	-0.638772	-0.062975
C108	C	-0.432918	-0.138772	0.437025
O109	O	-0.927166	-0.569638	0.077445
O110	O	-0.427166	-0.069638	0.577445
O111	O	-0.940807	-0.579316	-0.203572
O112	O	-0.440807	-0.079316	0.296428
C113	C	-0.081539	0.070465	-0.072995
C114	C	0.418461	0.570465	0.427005
C115	C	-0.169595	0.071309	-0.078944
C116	C	0.330405	0.571309	0.421056
C117	C	-0.929862	0.179211	-0.062755
C118	C	-0.429862	0.679211	0.437245
C119	C	-0.930929	0.242429	-0.062827
C120	C	-0.430929	0.742429	0.437173
N121	N	-0.925975	0.082569	0.153843
N122	N	-0.425975	0.582569	0.653843
N123	N	-0.946976	0.067567	-0.280248
N124	N	-0.446976	0.567567	0.219752
C125	C	-0.978110	0.045219	0.194017
C126	C	-0.478110	0.545219	0.694017
C127	C	-0.973881	0.048251	0.281710
C128	C	-0.473881	0.548251	0.781710
C129	C	-0.917521	0.088638	0.329225
C130	C	-0.417521	0.588638	0.829225
C131	C	-0.865381	0.125990	0.289045
C132	C	-0.365381	0.625990	0.789045
C133	C	-0.869606	0.122954	0.201354
C134	C	-0.369606	0.622954	0.701354
C135	C	-0.899062	0.101883	0.591881
C136	C	-0.399062	0.601883	1.091881
C137	C	-0.894842	0.104917	0.679577
C138	C	-0.394842	0.604917	1.179577
C139	C	-1.003341	0.027178	0.672236
C140	C	-0.503341	0.527178	1.172236
C141	C	-1.007565	0.024148	0.584544
C142	C	-0.507565	0.524148	1.084544
C143	C	-0.955422	0.061498	0.544371
C144	C	-0.455422	0.561498	1.044371
N145	N	-0.913198	0.091740	0.418861
N146	N	-0.413198	0.591740	0.918861
N147	N	-0.959742	0.058392	0.454738
N148	N	-0.459742	0.558392	0.954738
H149	H	-0.702314	0.073980	-0.184729
H150	H	-0.202314	0.573980	0.315271
H151	H	-0.819487	0.158872	0.327737
H152	H	-0.319487	0.658872	0.827737
Br153	Br	-0.949990	-0.363754	-0.318252
Br154	Br	-0.449990	0.136246	0.181748
H155	H	-0.937683	-0.756811	-0.200620
H156	H	-0.437683	-0.256811	0.299380
Br157	Br	-0.709485	0.085159	0.130543
Br158	Br	-0.209485	0.585159	0.630543
H159	H	-0.827152	0.153368	0.168645
H160	H	-0.327152	0.653368	0.668645
Br161	Br	-0.941762	-0.634366	-0.242002
Br162	Br	-0.441762	-0.134366	0.257998
Br163	Br	-0.922082	-0.761994	0.116190
Br164	Br	-0.422082	-0.261994	0.616190
Br165	Br	-0.925320	-0.346139	0.191674
Br166	Br	-0.425320	0.153861	0.691674
H167	H	-0.552221	0.072540	-0.174575
H168	H	-0.052221	0.572540	0.325425
Br169	Br	-0.950834	-0.087864	-0.242607
Br170	Br	-0.450834	0.412136	0.257393
Br171	Br	-0.341189	0.079242	0.087878
Br172	Br	0.158811	0.579242	0.587878
Br173	Br	-1.044632	-0.002441	0.336236
Br174	Br	-0.544632	0.497559	0.836236
H175	H	-0.334033	0.068058	-0.227397
H176	H	0.165967	0.568058	0.272603
H177	H	-0.183928	0.066618	-0.217242
H178	H	0.316072	0.566618	0.282758
Br179	Br	-1.054608	-0.009590	0.129540
Br180	Br	-0.554608	0.490410	0.629540
H181	H	-0.926124	-0.639521	0.074830
H182	H	-0.426124	-0.139521	0.574830
Br183	Br	-0.933508	-0.075506	0.115419
Br184	Br	-0.433508	0.424494	0.615419
H185	H	-1.053458	-0.008738	0.545858
H186	H	-0.553458	0.491262	1.045858
Br187	Br	-0.146179	0.077340	0.101064
Br188	Br	0.353821	0.577340	0.601064
H189	H	-1.045792	-0.003232	0.704953
H190	H	-0.545792	0.496768	1.204953
Br191	Br	-0.818349	0.159735	0.744057
Br192	Br	-0.318349	0.659735	1.244057
Br193	Br	-0.931204	-0.215504	0.115578
Br194	Br	-0.431204	0.284496	0.615578
H195	H	-0.538908	0.082071	0.100982
H196	H	-0.038908	0.582071	0.600982
Br197	Br	-0.828301	0.152572	0.537365
Br198	Br	-0.328301	0.652572	1.037365
Br199	Br	-0.947655	-0.503741	-0.318093
Br200	Br	-0.447655	-0.003741	0.181907
Br201	Br	-0.948521	-0.227882	-0.242461
Br202	Br	-0.448521	0.272118	0.257539
Br203	Br	-0.923014	-0.486137	0.191821
Br204	Br	-0.423014	0.013863	0.691821
