data_functionalizedCrystal
_audit_creation_method	'MofGen! by Chris Wilmer'
_symmetry_space_group_name_H-M	'P1'
_symmetry_Int_Tables_number	1
_symmetry_cell_setting	triclinic
loop_
_symmetry_equiv_pos_as_xyz
  x,y,z
_cell_length_a	13.032831
_cell_length_b	12.759400
_cell_length_c	13.032268
_cell_angle_alpha	97.150187
_cell_angle_beta	90.886977
_cell_angle_gamma	82.819639
loop_
_atom_site_label
_atom_site_type_symbol
_atom_site_fract_x
_atom_site_fract_y
_atom_site_fract_z
Zn1	Zn	1.498516	-0.709532	-0.780845
Zn2	Zn	1.520267	-0.866067	-0.608867
Zn3	Zn	1.348373	-0.665643	-0.587085
Zn4	Zn	1.326515	-0.860387	-0.758992
O5	O	1.423418	-0.775407	-0.683947
O6	O	1.645323	-0.751042	-0.776293
O7	O	1.515715	-0.823490	-0.462060
O8	O	1.368334	-0.524453	-0.612817
O9	O	1.661303	-0.866048	-0.649941
O10	O	1.478644	-0.556699	-0.755172
O11	O	1.389425	-0.676239	-0.446057
O12	O	1.201551	-0.670731	-0.591628
O13	O	1.331081	-0.856366	-0.905808
O14	O	1.185493	-0.813808	-0.717927
O15	O	1.457450	-0.745534	-0.921863
O16	O	1.494520	-1.012325	-0.628751
O17	O	1.352172	-1.008152	-0.739048
C18	C	1.156205	-0.736891	-0.650043
C19	C	1.041887	-0.720442	-0.635563
C20	C	0.983014	-0.783992	-0.691504
C21	C	0.864860	-0.766993	-0.676540
C22	C	1.423359	-1.048363	-0.683918
C23	C	1.423424	-1.165153	-0.683952
C24	C	1.497609	-1.222171	-0.626602
C25	C	1.497668	-1.331908	-0.626642
C26	C	1.349348	-1.327596	-0.741382
C27	C	1.349295	-1.217863	-0.741348
C28	C	1.571738	-1.169461	-0.569206
C29	C	1.645929	-1.226480	-0.511852
C30	C	1.645988	-1.336216	-0.511891
C31	C	1.571857	-1.388934	-0.569286
C32	C	1.691674	-0.814074	-0.717984
C33	C	1.805989	-0.830552	-0.732489
C34	C	1.389401	-0.805212	-0.952195
C35	C	1.374905	-0.817913	-1.066506
C36	C	1.423501	-0.501392	-0.684002
C37	C	1.423537	-0.384623	-0.684026
C38	C	1.430967	-0.768738	-1.125413
C39	C	1.415986	-0.781864	-1.243560
C40	C	1.457361	-0.745651	-0.416751
C41	C	1.472056	-0.732683	-0.302465
H42	H	0.843052	-0.897545	-0.791471
C43	C	1.727470	-1.168489	-0.448724
N44	N	1.788888	-1.124811	-0.401174
H45	H	1.315811	-0.869723	-1.103540
H46	H	1.004816	-0.653445	-0.576595
H47	H	0.827794	-0.699991	-0.617568
H48	H	1.571696	-1.080107	-0.569164
C49	C	1.033088	-0.874502	-0.771172
N50	N	1.070803	-0.942677	-0.831178
C51	C	1.727599	-1.398935	-0.448803
N52	N	1.789067	-1.446171	-0.401277
H53	H	1.571918	-1.478291	-0.569323
H54	H	1.288994	-1.370528	-0.788109
H55	H	1.288887	-1.171438	-0.788048
C56	C	1.510791	-0.698729	-1.075386
N57	N	1.570917	-0.645996	-1.037707
H58	H	1.356888	-0.833678	-1.280589
C59	C	1.551889	-0.662674	-1.252445
N60	N	1.612020	-0.609946	-1.214769
