data_functionalizedCrystal
_audit_creation_method	'MofGen! by Chris Wilmer'
_symmetry_space_group_name_H-M	'P1'
_symmetry_Int_Tables_number	1
_symmetry_cell_setting	triclinic
loop_
_symmetry_equiv_pos_as_xyz
  x,y,z
_cell_length_a	17.699077
_cell_length_b	6.394989
_cell_length_c	16.776229
_cell_angle_alpha	90.003593
_cell_angle_beta	89.993415
_cell_angle_gamma	95.110856
loop_
_atom_site_label
_atom_site_type_symbol
_atom_site_fract_x
_atom_site_fract_y
_atom_site_fract_z
O1	O	1.006776	-0.264072	-0.066273
O2	O	0.786748	-0.298449	-0.066276
O3	O	0.899885	0.022820	-0.066275
O4	O	0.893639	-0.585341	-0.066274
O5	O	0.899870	0.022840	0.066302
O6	O	0.786732	-0.298429	0.066301
O7	O	1.006761	-0.264052	0.066304
Zn8	Zn	0.896744	-0.281237	0.087352
Zn9	Zn	0.896765	-0.281263	-0.087324
O10	O	0.893623	-0.585321	0.066303
C11	C	0.758531	-0.297209	0.000012
C12	C	0.674475	-0.293520	0.000011
C13	C	0.634981	-0.291771	0.072279
C14	C	0.556003	-0.288272	0.072280
C15	C	0.516519	-0.286536	0.000011
C16	C	0.556018	-0.288279	-0.072263
C17	C	0.634996	-0.291764	-0.072263
C18	C	0.237512	-0.274223	-0.072264
C19	C	0.158528	-0.270745	-0.072258
C20	C	0.158519	-0.270731	0.072278
C21	C	0.237496	-0.274216	0.072278
C22	C	0.276989	-0.275947	0.000005
C23	C	0.362626	-0.279738	0.000005
C24	C	0.430883	-0.282760	0.000011
C25	C	1.034978	-0.265292	0.000014
C26	C	1.119034	-0.268981	0.000011
C27	C	0.898642	0.100645	0.000011
C28	C	0.894868	0.336860	0.000010
N29	N	0.896735	-0.281218	0.206563
N30	N	0.896779	-0.281266	-0.206535
C31	C	0.946849	-0.139019	0.248281
C32	C	0.946853	-0.139017	0.331733
C33	C	0.896747	-0.281227	0.373466
C34	C	0.846628	-0.423433	0.331742
C35	C	0.846621	-0.423423	0.248292
C36	C	0.846656	-0.423474	0.668290
C37	C	0.846669	-0.423477	0.751746
C38	C	0.946888	-0.139068	0.751731
C39	C	0.946881	-0.139058	0.668280
C40	C	0.896760	-0.281256	0.626564
C41	C	0.896755	-0.281254	0.536075
C42	C	0.896755	-0.281241	0.463953
H43	H	0.667122	-0.293202	0.131128
H44	H	0.523852	-0.286812	0.131128
C45	C	0.280925	-0.276113	0.151773
H46	H	0.246092	-0.274548	0.194815
H47	H	0.307123	-0.399217	0.154781
H48	H	0.316344	-0.155698	0.154771
C49	C	0.791547	-0.579934	0.622408
H50	H	0.798714	-0.559569	0.566731
H51	H	0.801109	-0.719287	0.636086
H52	H	0.740816	-0.557456	0.636092
H53	H	0.126354	-0.269312	0.131127
C54	C	0.115098	-0.268827	-0.151757
H55	H	0.149930	-0.270339	-0.194801
H56	H	0.079677	-0.389223	-0.154763
H57	H	0.088902	-0.145703	-0.154755
H58	H	0.987684	-0.023265	0.634303
H59	H	0.269658	-0.275627	-0.131113
H60	H	0.523865	-0.286851	-0.131105
H61	H	0.667150	-0.293192	-0.131111
H62	H	0.987654	-0.023224	0.214307
C63	C	1.001985	0.017383	0.377619
H64	H	1.031833	0.102056	0.340812
H65	H	0.973945	0.104245	0.410185
H66	H	1.034205	-0.057677	0.410160
H67	H	0.805812	-0.539214	0.214326
C68	C	1.002014	0.017371	0.797620
H69	H	0.994838	-0.002978	0.853298
H70	H	1.052737	-0.005135	0.783933
H71	H	0.992462	0.156747	0.783948
H72	H	0.805863	-0.539285	0.785724
H73	H	0.805827	-0.539216	0.365726
