data_functionalizedCrystal
_audit_creation_method	'MofGen! by Chris Wilmer'
_symmetry_space_group_name_H-M	'P1'
_symmetry_Int_Tables_number	1
_symmetry_cell_setting	triclinic
loop_
_symmetry_equiv_pos_as_xyz
  x,y,z
_cell_length_a	15.995350
_cell_length_b	15.995343
_cell_length_c	15.455313
_cell_angle_alpha	87.323095
_cell_angle_beta	87.330785
_cell_angle_gamma	96.509221
loop_
_atom_site_label
_atom_site_type_symbol
_atom_site_fract_x
_atom_site_fract_y
_atom_site_fract_z
O1	O	-0.104238	1.114655	-0.072036
O2	O	0.395762	1.614655	0.427964
O3	O	-0.117571	0.870880	-0.072056
O4	O	0.382429	1.370880	0.427944
O5	O	0.010984	0.999431	-0.072048
O6	O	0.510984	1.499431	0.427952
O7	O	-0.232792	0.986103	-0.072043
O8	O	0.267208	1.486103	0.427957
O9	O	0.003662	0.992080	0.072213
O10	O	0.503662	1.492080	0.572213
O11	O	-0.124892	0.863528	0.072206
O12	O	0.375108	1.363528	0.572206
O13	O	-0.111559	1.107304	0.072226
O14	O	0.388441	1.607304	0.572226
Cu15	Cu	-0.118894	0.984745	0.085388
Cu16	Cu	0.381106	1.484745	0.585388
Cu17	Cu	-0.110236	0.993438	-0.085218
Cu18	Cu	0.389764	1.493438	0.414782
O19	O	-0.240113	0.978752	0.072219
O20	O	0.259887	1.478752	0.572219
C21	C	-0.120681	0.836009	0.000073
C22	C	0.379319	1.336009	0.500073
C23	C	-0.119032	0.743059	0.000065
C24	C	0.380968	1.243059	0.500065
C25	C	-0.116039	0.572872	0.000076
C26	C	0.383961	1.072872	0.500076
C27	C	-0.023242	0.549527	0.000074
C28	C	0.476758	1.049527	0.500074
C29	C	-0.021513	0.452832	0.000406
C30	C	0.478487	0.952832	0.500406
C31	C	-0.113091	0.405312	0.000087
C32	C	0.386909	0.905312	0.500087
C33	C	-0.163923	0.430214	0.082304
C34	C	0.336077	0.930214	0.582304
C35	C	-0.165027	0.527003	0.082368
C36	C	0.334973	1.027003	0.582368
C37	C	-0.158060	0.535273	-0.081690
C38	C	0.341940	1.035273	0.418310
C39	C	-0.154580	0.438833	-0.082766
C40	C	0.345420	0.938833	0.417234
C41	C	-0.111430	0.310613	0.000095
C42	C	0.388570	0.810613	0.500095
C43	C	-0.117703	0.667570	0.000073
C44	C	0.382297	1.167570	0.500073
C45	C	-0.267648	0.982979	0.000089
C46	C	0.232352	1.482979	0.500089
C47	C	-0.360598	0.984630	0.000091
C48	C	0.139402	1.484630	0.500091
C49	C	-0.698345	0.990563	0.000078
C50	C	-0.198345	1.490563	0.500078
C51	C	-0.650892	1.082132	-0.000236
C52	C	-0.150892	1.582132	0.499764
C53	C	-0.554219	1.080463	0.000094
C54	C	-0.054219	1.580463	0.500094
C55	C	-0.530785	0.987620	0.000084
C56	C	-0.030785	1.487620	0.500084
C57	C	-0.576049	0.938266	0.082458
C58	C	-0.076049	1.438266	0.582458
C59	C	-0.672688	0.940563	0.082523
C60	C	-0.172688	1.440563	0.582523
C61	C	-0.664710	0.947031	-0.081530
C62	C	-0.164710	1.447031	0.418470
C63	C	-0.567710	0.947108	-0.082614
C64	C	-0.067710	1.447108	0.417386
C65	C	-0.436088	0.985952	0.000091
C66	C	0.063912	1.485952	0.500091
C67	C	-0.793043	0.992228	0.000078
C68	C	-0.293043	1.492228	0.500078
C69	C	0.038518	0.995205	0.000080
C70	C	0.538518	1.495205	0.500080
C71	C	0.131469	0.993553	0.000071
C72	C	0.631469	1.493553	0.500071
C73	C	-0.108448	1.142174	0.000096
C74	C	0.391552	1.642174	0.500096
C75	C	-0.110098	1.235125	0.000098
C76	C	0.389902	1.735125	0.500098
N77	N	-0.124983	0.978636	0.205383
N78	N	0.375017	1.478636	0.705383
N79	N	-0.104140	0.999554	-0.205213
N80	N	0.395860	1.499554	0.294787
C81	C	-0.070389	1.033269	0.250781
C82	C	0.429611	1.533269	0.750781
C83	C	-0.075001	1.028657	0.341588
C84	C	0.424999	1.528657	0.841588
C85	C	-0.134213	0.969416	0.386997
C86	C	0.365787	1.469416	0.886997
C87	C	-0.188810	0.914778	0.341594
C88	C	0.311190	1.414778	0.841594
C89	C	-0.184192	0.919387	0.250788
C90	C	0.315808	1.419387	0.750788
C91	C	-0.154120	0.949524	0.658577
C92	C	0.345880	1.449524	1.158577
C93	C	-0.158735	0.944921	0.749390
C94	C	0.341265	1.444921	1.249390
C95	C	-0.044925	1.058799	0.749378
C96	C	0.455075	1.558799	1.249378
C97	C	-0.040316	1.063406	0.658570
C98	C	0.459684	1.563406	1.158570
C99	C	-0.094910	1.008765	0.613175
C100	C	0.405090	1.508765	1.113175
N101	N	-0.138931	0.964702	0.479817
N102	N	0.361069	1.464702	0.979817
N103	N	-0.090187	1.013476	0.520357
N104	N	0.409813	1.513476	1.020357
H105	H	-0.226324	0.549327	-0.082481
H106	H	0.273676	1.049327	0.417519
N107	N	-0.557543	0.847711	0.086525
N108	N	-0.057543	1.347711	0.586525
H109	H	-0.612016	0.809126	0.085709
H110	H	-0.112016	1.309126	0.585709
H111	H	-0.519526	0.837860	0.034879
H112	H	-0.019526	1.337860	0.534879
H113	H	0.015719	0.580538	-0.058876
H114	H	0.515719	1.080538	0.441124
N115	N	-0.542591	0.975678	0.163670
N116	N	-0.042591	1.475678	0.663670
H117	H	-0.590208	0.996153	0.199003
H118	H	-0.090208	1.496153	0.699003
H119	H	-0.517008	0.931339	0.199060
H120	H	-0.017008	1.431339	0.699060
N121	N	-0.006529	1.097169	0.201807
N122	N	0.493471	1.597169	0.701807
H123	H	0.027357	1.131077	0.244349
H124	H	0.527357	1.631077	0.744349
H125	H	0.032422	1.067031	0.164139
H126	H	0.532422	1.567031	0.664139
H127	H	-0.682080	0.980143	-0.143967
H128	H	-0.182080	1.480143	0.356033
H129	H	-0.136221	0.550645	0.144060
H130	H	0.363779	1.050645	0.644060
N131	N	-0.521284	1.123796	0.078457
N132	N	-0.021284	1.623796	0.578457
H133	H	-0.458275	1.122894	0.078996
H134	H	0.041725	1.622894	0.578996
H135	H	-0.534565	1.184075	0.075878
H136	H	-0.034565	1.684075	0.575878
N137	N	-0.715681	0.851286	0.087481
N138	N	-0.215681	1.351286	0.587481
H139	H	-0.696260	0.820925	0.035703
H140	H	-0.196260	1.320925	0.535703
H141	H	-0.700840	0.821096	0.142538
H142	H	-0.200840	1.321096	0.642538
H143	H	-0.673544	1.115604	0.058455
H144	H	-0.173544	1.615604	0.558455
N145	N	0.019678	0.583943	0.078049
N146	N	0.519678	1.083943	0.578049
H147	H	-0.020727	0.614591	0.113375
H148	H	0.479273	1.114591	0.613375
H149	H	0.037658	0.535942	0.114840
H150	H	0.537658	1.035942	0.614840
N151	N	0.013956	1.117730	0.798339
N152	N	0.513956	1.617730	1.298339
H153	H	0.002050	1.105824	0.862755
H154	H	0.502050	1.605824	1.362755
H155	H	0.074168	1.108866	0.782473
H156	H	0.574168	1.608866	1.282473
N157	N	-0.222610	0.881031	0.798370
N158	N	0.277390	1.381031	1.298370
H159	H	-0.256496	0.847117	0.755834
H160	H	0.243504	1.347117	1.255834
H161	H	-0.192453	0.842110	0.836063
H162	H	0.307547	1.342110	1.336063
N163	N	-0.253407	0.387844	0.086060
N164	N	0.246593	0.887844	0.586060
H165	H	-0.261876	0.352012	0.034378
H166	H	0.238124	0.852012	0.534378
H167	H	-0.264526	0.351086	0.141242
H168	H	0.235474	0.851086	0.641242
N169	N	-0.016146	1.087610	0.390553
N170	N	0.483854	1.587610	0.890553
H171	H	0.022051	1.125851	0.348008
H172	H	0.522051	1.625851	0.848008
H173	H	-0.050172	1.122694	0.428204
H174	H	0.449828	1.622694	0.928204
H175	H	-0.694118	0.970355	0.144105
H176	H	-0.194118	1.470355	0.644105
H177	H	-0.537313	0.983186	-0.143554
H178	H	-0.037313	1.483186	0.356446
H179	H	-0.552092	0.879659	-0.087598
H180	H	-0.052092	1.379659	0.412402
N181	N	-0.706740	0.857656	-0.082282
N182	N	-0.206740	1.357656	0.417718
H183	H	-0.747371	0.845389	-0.030046
H184	H	-0.247371	1.345389	0.469954
H185	H	-0.738404	0.850443	-0.136972
H186	H	-0.238404	1.350443	0.363028
N187	N	0.023547	1.127302	0.609595
N188	N	0.523547	1.627302	1.109595
H189	H	0.057434	1.161212	0.652134
H190	H	0.557434	1.661212	1.152134
H191	H	0.062496	1.097162	0.571927
H192	H	0.562496	1.597162	1.071927
H193	H	-0.198574	0.905035	0.621623
H194	H	0.301426	1.405035	1.121623
N195	N	-0.252669	0.850876	0.390565
N196	N	0.247331	1.350876	0.890565
H197	H	-0.247312	0.856246	0.454980
H198	H	0.252688	1.356246	0.954980
H199	H	-0.311267	0.861347	0.374684
H200	H	0.188733	1.361347	0.874684
H201	H	-0.228648	0.874898	0.213826
H202	H	0.271352	1.374898	0.713826
H203	H	0.011833	0.431374	0.059687
H204	H	0.511833	0.931374	0.559687
N205	N	0.030834	0.431607	-0.077640
N206	N	0.530834	0.931607	0.422360
H207	H	0.052991	0.485125	-0.112571
H208	H	0.552991	0.985125	0.387429
H209	H	0.079673	0.402116	-0.057716
H210	H	0.579673	0.902116	0.442284
H211	H	-0.135025	0.406992	0.143722
H212	H	0.364975	0.906992	0.643722
N213	N	-0.255399	0.546080	0.087016
N214	N	0.244601	1.046080	0.587016
H215	H	-0.294343	0.491636	0.089018
H216	H	0.205657	0.991636	0.589018
H217	H	-0.266238	0.577287	0.140985
H218	H	0.233762	1.077287	0.640985
H219	H	-0.117513	0.423375	-0.143591
H220	H	0.382487	0.923375	0.356409
N221	N	-0.115093	0.576923	-0.164267
N222	N	0.384907	1.076923	0.335733
H223	H	-0.067949	0.620592	-0.149507
H224	H	0.432051	1.120592	0.350493
H225	H	-0.091292	0.532989	-0.199938
H226	H	0.408708	1.032989	0.300062
H227	H	-0.221147	0.406142	-0.087983
H228	H	0.278853	0.906142	0.412017
N229	N	-0.512591	1.131492	-0.078105
N230	N	-0.012591	1.631492	0.421895
H231	H	-0.534344	1.106569	-0.132731
H232	H	-0.034344	1.606569	0.367269
H233	H	-0.525992	1.191579	-0.075854
H234	H	-0.025992	1.691579	0.424146
N235	N	-0.671444	1.134593	-0.078492
N236	N	-0.171444	1.634593	0.421508
H237	H	-0.711717	1.099517	-0.114500
H238	H	-0.211717	1.599517	0.385500
H239	H	-0.698381	1.185070	-0.058775
H240	H	-0.198381	1.685070	0.441225
