data_functionalizedCrystal
_audit_creation_method	'MofGen! by Chris Wilmer'
_symmetry_space_group_name_H-M	'P1'
_symmetry_Int_Tables_number	1
_symmetry_cell_setting	triclinic
loop_
_symmetry_equiv_pos_as_xyz
  x,y,z
_cell_length_a	23.096457
_cell_length_b	23.096457
_cell_length_c	16.704494
_cell_angle_alpha	56.630831
_cell_angle_beta	90.005559
_cell_angle_gamma	59.998903
loop_
_atom_site_label
_atom_site_type_symbol
_atom_site_fract_x
_atom_site_fract_y
_atom_site_fract_z
Zr1	Zr	-0.045704	0.573228	0.815169
O2	O	-0.143178	0.704070	0.680021
O3	O	-0.015825	0.449356	0.856601
O4	O	-0.136624	0.570170	0.856565
O5	O	0.072912	0.583239	0.680082
O6	O	-0.131452	0.559828	0.995824
O7	O	-0.022378	0.583257	0.680057
O8	O	0.084635	0.343715	0.995888
O9	O	-0.143176	0.799352	0.680018
O10	O	0.000780	0.490007	0.978196
O11	O	0.068034	0.497712	0.874288
O12	O	-0.074191	0.639953	0.874245
O13	O	-0.006936	0.647658	0.770337
Zr14	Zr	0.114521	0.556706	1.037310
Zr15	Zr	-0.037456	0.556734	1.037270
Zr16	Zr	0.106273	0.573199	0.815209
Zr17	Zr	-0.045701	0.725191	0.815164
Zr18	Zr	0.114518	0.404743	1.037315
O19	O	0.084641	0.680577	0.995878
O20	O	-0.131450	0.680618	0.995820
O21	O	0.072914	0.704029	0.680079
O22	O	0.211994	0.425864	1.172458
O23	O	-0.004097	0.425905	1.172400
O24	O	0.200267	0.449316	0.856659
O25	O	-0.004095	0.546695	1.172397
O26	O	0.205441	0.559764	0.995913
O27	O	0.200269	0.570106	0.856655
O28	O	0.091195	0.546677	1.172422
O29	O	-0.136620	0.786241	0.856559
O30	O	0.205437	0.343692	0.995920
O31	O	0.211993	0.330582	1.172461
O32	O	0.091191	0.330605	1.172429
O33	O	-0.022375	0.799329	0.680050
O34	O	-0.015819	0.786219	0.856591
O35	O	0.143008	0.489980	0.978234
O36	O	0.075753	0.482276	1.082142
O37	O	0.000782	0.632222	0.978191
O38	O	0.068037	0.639927	0.874283
C39	C	0.034405	0.374884	0.926245
C40	C	0.034404	0.310372	0.926247
C41	C	-0.000686	-0.154167	0.980480
C42	C	-0.000692	-0.093547	0.980478
C43	C	0.034414	-0.059213	0.926240
C44	C	0.069514	-0.085487	0.871980
C45	C	0.069513	-0.146100	0.871975
N46	N	0.095104	0.002610	0.933787
N47	N	0.095104	0.060188	0.933797
C48	C	0.034416	0.123412	0.926248
N49	N	-0.026269	0.126874	0.918709
N50	N	-0.026267	0.069288	0.918705
C51	C	0.034418	0.006513	0.926238
C52	C	-0.000693	0.215415	0.980497
C53	C	-0.000702	0.276041	0.980487
C54	C	0.069512	0.284093	0.871996
C55	C	0.069513	0.223475	0.871999
C56	C	0.034413	0.189137	0.926255
C57	C	-0.155691	0.565003	0.926189
C58	C	-0.220210	0.565015	0.926172
C59	C	-0.247654	0.559319	1.002893
C60	C	-0.308261	0.559301	1.002916
C61	C	-0.341430	0.564996	0.926202
C62	C	-0.313976	0.570688	0.849474
C63	C	-0.253366	0.570697	0.849459
N64	N	-0.463165	0.618097	0.835238
N65	N	-0.520743	0.618089	0.835256
C66	C	-0.524044	0.564966	0.926245
N67	N	-0.467596	0.511860	1.017219
N68	N	-0.410015	0.511871	1.017200
C69	C	-0.407151	0.564986	0.926210
C70	C	-0.617204	0.559248	1.002997
C71	C	-0.677810	0.559225	1.003021
C72	C	-0.683528	0.570621	0.849571
C73	C	-0.622919	0.570636	0.849555
C74	C	-0.589763	0.564953	0.926268
C75	C	0.224508	0.564931	0.926290
C76	C	0.289026	0.564919	0.926307
C77	C	0.024092	0.585598	0.648425
C78	C	0.020590	0.592600	0.554137
C79	C	0.034412	0.755049	0.926234
C80	C	0.034413	0.819562	0.926232
C81	C	0.092297	0.449199	0.485493
C82	C	0.089009	0.455774	0.396904
C83	C	0.010731	0.612324	0.288370
C84	C	0.014019	0.605749	0.376959
C85	C	0.054803	0.524184	0.475519
C86	C	0.058086	0.517610	0.564109
C87	C	-0.020188	0.674159	0.455574
C88	C	-0.023476	0.680733	0.366985
C89	C	0.044725	0.544336	1.204054
C90	C	0.048227	0.537334	1.298342
C91	C	0.044722	0.354253	1.204060
C92	C	0.048222	0.282739	1.298349
C93	C	0.224505	0.374848	0.926296
C94	C	0.289022	0.310324	0.926315
C95	C	0.234822	0.354217	1.204110
C96	C	0.302840	0.282691	1.298417
C97	C	-0.166005	0.775716	0.648369
C98	C	-0.234023	0.847243	0.554062
C99	C	0.024095	0.775680	0.648419
C100	C	0.020595	0.847195	0.554130
C101	C	-0.155688	0.755085	0.926183
C102	C	-0.220205	0.819610	0.926164
C103	C	0.010724	0.253191	1.288370
C104	C	0.013999	0.186005	1.376957
C105	C	0.054775	0.148364	1.475522
C106	C	0.092274	0.177918	1.485499
C107	C	0.088996	0.245107	1.396913
C108	C	0.358462	0.275987	0.980583
C109	C	0.419088	0.215368	0.980597
C110	C	0.410273	0.189083	0.926349
C111	C	0.340826	0.223426	0.872074
C112	C	0.280201	0.284049	0.872055
C113	C	0.299677	0.245079	1.396953
C114	C	0.363582	0.177880	1.485573
C115	C	0.430650	0.148290	1.475654
C116	C	0.433812	0.185909	1.377108
C117	C	0.369907	0.253111	1.288491
C118	C	-0.230860	0.884862	0.455526
C119	C	-0.294765	0.952080	0.366906
C120	C	-0.361833	0.981673	0.376824
C121	C	-0.364995	0.944050	0.475371
C122	C	-0.301090	0.876838	0.563988
C123	C	0.058086	0.876749	0.564109
C124	C	0.054795	0.943952	0.475522
C125	C	0.014016	0.981595	0.376957
C126	C	-0.023480	0.952038	0.366980
C127	C	-0.020193	0.884840	0.455566
C128	C	-0.211367	0.845875	0.980423
C129	C	-0.271981	0.906493	0.980425
C130	C	-0.341433	0.940849	0.926162
C131	C	-0.350269	0.914578	0.871901
C132	C	-0.289656	0.853957	0.871906
H133	H	0.098096	-0.167489	0.827798
H134	H	0.098098	0.202081	0.827829
C135	C	-0.039319	-0.191913	1.040134
N136	N	-0.068426	-0.220336	1.085055
C137	C	0.360087	0.136504	1.593963
N138	N	0.357453	0.105340	1.675601
C139	C	-0.426671	0.952347	0.812258
N140	N	-0.484218	0.980787	0.767347
H141	H	-0.056682	0.982697	0.286717
H142	H	-0.413862	1.036402	0.304658
C143	C	-0.223203	0.577018	0.765018
N144	N	-0.200495	0.581800	0.701402
C145	C	0.476971	0.122387	0.926391
N146	N	0.527210	0.072147	0.926433
H147	H	-0.264773	0.927876	1.024608
H148	H	-0.330610	0.554662	1.065394
H149	H	-0.056678	0.747141	0.286727
H150	H	-0.590205	0.554617	1.065464
C151	C	-0.061434	0.756647	0.444606
N152	N	-0.092501	0.818776	0.436346
C153	C	0.108133	-0.047720	0.812321
N154	N	0.137221	-0.019273	0.767382
H155	H	0.125510	0.382786	0.565744
H156	H	0.125474	0.147261	1.565762
C157	C	-0.720010	0.576887	0.765183
N158	N	-0.747492	0.581606	0.701621
C159	C	0.130257	0.277594	1.407908
N160	N	0.161339	0.302059	1.416197
C161	C	0.373399	0.294475	1.180103
N162	N	0.376035	0.325629	1.098467
C163	C	0.500940	0.074359	1.573147
N164	N	0.553881	0.018671	1.646583
C165	C	-0.291270	0.993451	0.258516
N166	N	-0.288636	1.024610	0.176878
C167	C	-0.027248	0.153501	1.365958
N168	N	-0.058314	0.129018	1.357672
C169	C	0.495473	0.177592	1.040317
N170	N	0.553005	0.149139	1.085302
H171	H	0.223663	0.311998	0.827867
C172	C	0.096053	0.976446	0.486520
N173	N	0.127130	1.000916	0.494807
H174	H	-0.220659	0.554689	1.065359
C175	C	0.507594	0.153343	1.366216
N176	N	0.563169	0.128808	1.358014
C177	C	-0.438777	0.976606	0.486263
N178	N	-0.494352	1.001123	0.494465
C179	C	-0.707987	0.552936	1.087440
N180	N	-0.730714	0.548194	1.151030
C181	C	-0.299390	0.825084	0.812197
N182	N	-0.306728	0.803343	0.767218
H183	H	-0.022489	0.283837	1.208122
H184	H	-0.176256	0.860772	0.447431
C185	C	0.102945	0.835358	0.672522
N186	N	0.136731	0.804190	0.754177
H187	H	0.245073	0.269161	1.405048
H188	H	0.365652	0.297381	1.024758
H189	H	-0.029275	-0.072153	1.024655
H190	H	-0.303675	0.846209	0.644218
C191	C	0.010411	1.055511	0.279520
N192	N	0.007701	1.111181	0.206133
H193	H	-0.050721	0.860780	0.447426
H194	H	-0.029277	0.187459	1.024672
H195	H	-0.154822	0.817911	1.024610
H196	H	0.057440	0.093654	1.547645
H197	H	-0.029288	0.297435	1.024658
H198	H	0.098092	0.312052	0.827829
H199	H	-0.340984	0.575323	0.787014
H200	H	0.333660	0.202016	0.827907
H201	H	-0.600575	0.575279	0.787078
C202	C	0.102951	0.427887	0.672525
N203	N	0.136747	0.360306	0.754184
H204	H	0.119542	0.394714	0.405033
H205	H	-0.022463	0.678730	0.208110
H206	H	-0.390782	0.990211	0.926166
