data_functionalizedCrystal
_audit_creation_method	'MofGen! by Chris Wilmer'
_symmetry_space_group_name_H-M	'P1'
_symmetry_Int_Tables_number	1
_symmetry_cell_setting	triclinic
loop_
_symmetry_equiv_pos_as_xyz
  x,y,z
_cell_length_a	6.817900
_cell_length_b	12.840933
_cell_length_c	10.992421
_cell_angle_alpha	81.913975
_cell_angle_beta	108.764763
_cell_angle_gamma	88.345099
loop_
_atom_site_label
_atom_site_type_symbol
_atom_site_fract_x
_atom_site_fract_y
_atom_site_fract_z
V1	V	-3.925750	0.325199	-0.180787
O2	O	-3.887458	0.319024	0.005573
O3	O	-3.904627	0.322961	-0.355475
O4	O	-3.821128	0.467036	-0.179373
O5	O	-3.971534	0.173951	-0.171748
V6	V	-4.413129	0.307110	-0.158335
O7	O	-4.178551	0.364878	-0.230038
O8	O	-4.610526	0.267431	-0.109084
O9	O	-4.211046	0.309349	0.016353
O10	O	-4.568819	0.313286	-0.344695
O11	O	-4.484742	0.458359	-0.167374
O12	O	-4.294545	0.165273	-0.159749
C13	C	-3.758082	0.317827	-0.398018
C14	C	-3.821723	0.316942	-0.540836
C15	C	-3.651583	0.501608	-0.173375
C16	C	-3.647429	0.619740	-0.173373
C17	C	-4.127432	0.130696	-0.165744
C18	C	-4.110435	0.012563	-0.165743
C19	C	-3.693522	0.309809	-0.736057
C20	C	-3.627146	0.310316	-0.587417
C21	C	-3.948714	0.219672	-0.578566
C22	C	-4.013546	0.218642	-0.727100
C23	C	-4.029473	0.418040	-0.767537
C24	C	-3.959196	0.420150	-0.619043
V25	V	-3.908700	0.811363	-0.180796
O26	O	-3.943865	0.962570	-0.171755
O27	O	-3.814225	0.664180	-0.179382
O28	O	-3.886037	0.852753	-0.355482
O29	O	-3.871556	0.772691	0.005563
V30	V	-4.394134	0.848810	-0.158351
O31	O	-4.163440	0.795833	-0.230051
O32	O	-4.588799	0.887027	-0.109103
O33	O	-4.265795	0.984746	-0.159761
O34	O	-4.476159	0.703519	-0.167394
O35	O	-4.548468	0.893398	-0.344712
O36	O	-4.193983	0.796173	0.016338
C37	C	-4.020935	0.314480	0.058889
C38	C	-3.936530	0.315371	0.201706
C39	C	-3.739042	0.860284	-0.398014
C40	C	-3.801347	0.897264	-0.540831
C41	C	-4.004911	0.771674	0.058883
C42	C	-3.921881	0.733657	0.201702
C43	C	-4.011673	0.920084	-0.614499
C44	C	-4.070242	0.954846	-0.748688
C45	C	-3.918483	0.966780	-0.809208
C46	C	-3.708138	0.943961	-0.735529
C47	C	-3.649572	0.909207	-0.601341
C48	C	-3.709829	0.703380	0.262196
C49	C	-3.631782	0.667671	0.396391
C50	C	-3.765792	0.662233	0.470089
C51	C	-3.977861	0.692517	0.409588
C52	C	-4.055903	0.728232	0.275396
H53	H	-3.529736	0.379819	-0.562300
H54	H	-3.521418	0.236213	-0.534285
H55	H	-4.093695	0.220793	-0.548341
N56	N	-3.981666	1.004266	-0.953940
H57	H	-4.137942	1.016906	-0.991417
H58	H	-3.932716	0.948825	-0.996670
N59	N	-3.606396	0.401372	-0.798358
H60	H	-3.643190	0.399287	-0.894582
H61	H	-3.450306	0.396310	-0.756935
H62	H	-3.584591	0.953684	-0.784825
N63	N	-3.403060	0.634995	0.461633
H64	H	-3.341596	0.680603	0.530087
H65	H	-3.330187	0.643840	0.394493
H66	H	-3.947511	0.141411	-0.743896
N67	N	-3.565258	0.709229	0.182729
H68	H	-3.611249	0.662506	0.113690
H69	H	-3.419142	0.684649	0.241532
N70	N	-3.596971	0.211728	-0.762353
H71	H	-3.500493	0.232384	-0.813184
H72	H	-3.710084	0.170930	-0.814367
H73	H	-4.086955	0.688084	0.469614
H74	H	-3.478303	0.890624	-0.541371
H75	H	-4.228577	0.752877	0.226153
N76	N	-3.839077	0.515490	-0.588288
H77	H	-3.825443	0.555396	-0.670798
H78	H	-3.696263	0.491861	-0.523928
N79	N	-4.297118	0.979445	-0.828132
H80	H	-4.337640	0.932469	-0.897198
H81	H	-4.321201	1.055768	-0.870914
N82	N	-4.247070	0.218439	-0.781266
H83	H	-4.307478	0.219014	-0.708637
H84	H	-4.284618	0.153022	-0.822363
H85	H	-4.135273	0.910367	-0.565243
H86	H	-3.852414	0.143264	-0.523618
H87	H	-3.980473	0.491642	-0.817739
N88	N	-3.681603	0.623714	0.614825
H89	H	-3.526930	0.605359	0.641954
H90	H	-3.752226	0.559037	0.636566
H91	H	-4.102681	0.431014	-0.588937
H92	H	-4.206367	0.423138	-0.808702
