data_functionalizedCrystal
_audit_creation_method	'MofGen! by Chris Wilmer'
_symmetry_space_group_name_H-M	'P1'
_symmetry_Int_Tables_number	1
_symmetry_cell_setting	triclinic
loop_
_symmetry_equiv_pos_as_xyz
  x,y,z
_cell_length_a	12.970454
_cell_length_b	14.560438
_cell_length_c	14.560438
_cell_angle_alpha	119.998094
_cell_angle_beta	60.000686
_cell_angle_gamma	89.996900
loop_
_atom_site_label
_atom_site_type_symbol
_atom_site_fract_x
_atom_site_fract_y
_atom_site_fract_z
Zr1	Zr	0.993220	0.120536	1.005287
O2	O	1.043678	0.267182	1.005285
O3	O	0.828599	0.075580	1.005287
O4	O	0.828590	0.267183	1.196886
O5	O	1.213360	-0.075559	0.662549
O6	O	0.828592	0.267184	1.348025
O7	O	1.043686	0.075580	0.813685
O8	O	0.828607	-0.075558	1.005289
O9	O	1.213345	0.267183	1.005285
O10	O	0.938594	0.056409	1.118081
O11	O	1.065218	-0.056385	0.892497
O12	O	1.065208	0.169202	1.118080
O13	O	1.191832	0.056408	0.892495
Zr14	Zr	1.263832	-0.120511	1.005292
Zr15	Zr	0.993223	0.120538	1.246337
Zr16	Zr	1.263829	-0.120513	0.764242
Zr17	Zr	1.263819	0.120537	1.005288
Zr18	Zr	0.993233	-0.120512	1.005291
O19	O	1.428453	-0.075555	1.005292
O20	O	1.043682	0.267185	1.348026
O21	O	1.428449	-0.075558	0.662550
O22	O	1.213374	-0.267157	1.005294
O23	O	0.828602	0.075583	1.348029
O24	O	1.213370	-0.267160	0.662553
O25	O	1.043692	0.075584	1.348030
O26	O	1.428461	-0.267158	0.813693
O27	O	1.428460	-0.267159	0.662554
O28	O	1.213365	-0.075555	1.196894
O29	O	1.213347	0.267185	1.196888
O30	O	1.043705	-0.267159	0.813691
O31	O	1.043707	-0.267158	1.005294
O32	O	0.828609	-0.075557	1.196892
O33	O	1.428443	0.075582	0.813687
O34	O	1.428445	0.075583	1.005290
O35	O	1.191844	-0.169177	0.892499
O36	O	1.065220	-0.056383	1.118084
O37	O	1.191834	0.056410	1.118082
O38	O	1.318458	-0.056384	0.892498
C39	C	0.790048	0.000011	1.005288
C40	C	0.675172	0.000010	1.005287
C41	C	1.128510	0.301527	1.005284
C42	C	1.128504	0.403858	1.005283
C43	C	1.128542	-0.301502	1.005295
C44	C	1.128548	-0.403833	1.005296
C45	C	1.467003	0.000014	1.005291
C46	C	1.581880	0.000015	1.005292
C47	C	1.128523	0.000010	0.703773
C48	C	1.128522	0.000010	0.601441
C49	C	1.194608	0.393059	0.887532
C50	C	1.194634	0.489214	0.887538
C51	C	1.062441	0.606964	1.123056
C52	C	1.062424	0.510810	1.123049
C53	C	1.062428	-0.058863	0.553367
C54	C	1.062436	-0.058864	0.457212
C55	C	1.194632	0.058890	0.457216
C56	C	1.194631	0.058883	0.553363
C57	C	1.128529	0.000015	1.306806
C58	C	1.128530	0.000016	1.409138
C59	C	0.790035	0.301528	1.306799
C60	C	0.675155	0.403859	1.409129
C61	C	0.790052	0.000013	1.306804
C62	C	0.675176	0.000013	1.409136
C63	C	1.128539	-0.301504	0.703778
C64	C	1.128543	-0.403836	0.601448
C65	C	1.467000	0.000012	0.703774
C66	C	1.581875	0.000012	0.601443
C67	C	1.467016	-0.301503	0.703780
C68	C	1.581897	-0.403834	0.601450
C69	C	1.128513	0.301529	1.306801
C70	C	1.128508	0.403861	1.409131
C71	C	0.621197	0.451917	1.540461
C72	C	0.513244	0.548058	1.636624
C73	C	0.459255	0.596145	1.601452
C74	C	0.513218	0.548079	1.470107
C75	C	0.621164	0.451934	1.373947
C76	C	0.621224	-0.083255	1.373926
C77	C	0.513276	-0.083258	1.470064
C78	C	0.459287	0.000003	1.601411
C79	C	0.513245	0.083279	1.636621
C80	C	0.621186	0.083287	1.540484
C81	C	1.635835	-0.083264	0.470112
C82	C	1.743783	-0.083287	0.373947
C83	C	1.797764	-0.000029	0.409117
C84	C	1.743799	0.083251	0.540461
C85	C	1.635858	0.083269	0.636623
C86	C	1.635847	-0.451899	0.470118
C87	C	1.743779	-0.548060	0.373955
C88	C	1.797764	-0.596149	0.409127
C89	C	1.743805	-0.548079	0.540472
C90	C	1.635870	-0.451925	0.636632
C91	C	1.194641	-0.510788	0.553373
C92	C	1.194651	-0.606936	0.457214
C93	C	1.062456	-0.489166	0.457216
C94	C	1.062454	-0.393021	0.553367
H95	H	1.248465	0.480412	0.791654
O96	O	0.455098	-0.173085	1.432062
H97	H	0.455323	-0.221092	1.471892
O98	O	1.577586	0.173131	0.778283
H99	H	1.577784	0.133156	0.826149
H100	H	1.591894	-0.151063	0.441451
H101	H	1.248461	0.106822	0.592500
H102	H	1.787704	-0.151104	0.267008
O103	O	0.991171	-0.477511	0.405358
H104	H	0.945220	-0.386984	0.454934
O105	O	0.991160	-0.277656	0.605219
H106	H	1.002277	-0.212619	0.680144
H107	H	0.665142	0.412778	1.569123
H108	H	1.008638	0.694052	1.218939
H109	H	1.787773	-0.587246	0.569095
O110	O	0.991143	-0.122362	0.405368
H111	H	1.002258	-0.112480	0.330422
H112	H	0.469322	0.587184	1.743565
O113	O	1.914175	-0.000041	0.305394
H114	H	1.942609	-0.071932	0.208164
H115	H	1.787768	0.151037	0.569079
O116	O	0.991142	0.522482	1.250076
H117	H	1.057891	0.481488	1.255689
O118	O	0.342838	0.699856	1.705174
H119	H	0.314407	0.725196	1.802404
H120	H	1.008611	-0.106815	0.592497
H121	H	0.665110	0.151092	1.569171
H122	H	1.248454	0.106824	0.418060
O123	O	1.577704	-0.400067	0.778285
H124	H	1.633397	-0.449657	0.786573
H125	H	0.469247	0.587243	1.441484
O126	O	1.265927	-0.522445	0.605229
H127	H	1.311898	-0.612972	0.555633
H128	H	0.665094	0.412815	1.267011
H129	H	1.248476	-0.694018	0.418074
O130	O	0.679428	-0.173060	1.232265
H131	H	0.679186	-0.133008	1.184485
H132	H	1.248413	0.305978	0.791639
O133	O	0.342855	-0.000002	1.705098
H134	H	0.314420	-0.071899	1.658535
H135	H	0.469271	0.151068	1.743575
O136	O	1.577637	-0.400035	0.432167
H137	H	1.633294	-0.449629	0.324684
H138	H	1.787701	-0.587184	0.267014
O139	O	1.914188	-0.699854	0.305405
H140	H	1.942632	-0.725183	0.208175
