data_functionalizedCrystal
_audit_creation_method	'MofGen! by Chris Wilmer'
_symmetry_space_group_name_H-M	'P1'
_symmetry_Int_Tables_number	1
_symmetry_cell_setting	triclinic
loop_
_symmetry_equiv_pos_as_xyz
  x,y,z
_cell_length_a	16.625546
_cell_length_b	17.077404
_cell_length_c	16.625539
_cell_angle_alpha	90.016978
_cell_angle_beta	90.028532
_cell_angle_gamma	90.022693
loop_
_atom_site_label
_atom_site_type_symbol
_atom_site_fract_x
_atom_site_fract_y
_atom_site_fract_z
Zn1	Zn	-0.321010	1.200037	0.455896
Zn2	Zn	-0.455849	1.199951	0.321058
Zn3	Zn	-0.321035	1.068775	0.321077
Zn4	Zn	-0.455805	1.068738	0.455848
O5	O	-0.388425	1.134375	0.388470
O6	O	-0.338905	1.309873	0.438022
O7	O	-0.437994	1.182530	0.208228
O8	O	-0.208199	1.086239	0.338988
O9	O	-0.437970	1.309810	0.338957
O10	O	-0.208181	1.182677	0.438040
O11	O	-0.338946	1.086155	0.208242
O12	O	-0.338904	0.958923	0.338942
O13	O	-0.437896	1.086176	0.568687
O14	O	-0.437919	0.958896	0.437958
O15	O	-0.338862	1.182641	0.568722
O16	O	-0.568676	1.182494	0.338911
O17	O	-0.568643	1.086092	0.437940
C18	C	-0.388410	0.930428	0.388448
C19	C	-0.388423	0.843178	0.388457
C20	C	-0.440058	0.802194	0.439932
C21	C	-0.440060	0.720214	0.439945
C22	C	-0.388430	0.679218	0.388478
C23	C	-0.336789	0.720208	0.337001
C24	C	-0.336784	0.802187	0.336993
C25	C	-0.336805	0.549338	0.337020
C26	C	-0.336811	0.467353	0.337027
C27	C	-0.440081	0.467365	0.439973
C28	C	-0.440076	0.549344	0.439964
C29	C	-0.388436	0.590327	0.388486
C30	C	-0.597916	1.134301	0.388436
C31	C	-0.687537	1.134341	0.388449
C32	C	-1.015712	1.134478	0.388533
C33	C	-0.924404	1.134437	0.388511
C34	C	-0.851627	1.134409	0.388490
C35	C	-0.760313	1.134370	0.388470
C36	C	-0.178116	1.134471	0.388521
C37	C	-0.088495	1.134512	0.388543
C38	C	-0.388371	1.134414	0.598779
C39	C	-0.388349	1.134430	0.688400
C40	C	-0.388440	1.339120	0.388493
C41	C	-0.388446	1.426369	0.388502
C42	C	-0.388419	1.134382	0.178979
C43	C	-0.388215	1.134518	0.089358
C44	C	-0.388331	1.134443	0.761182
C45	C	-0.388301	1.134461	0.852491
C46	C	-0.388273	1.134480	0.925267
C47	C	-0.388243	1.134499	1.016582
H48	H	-0.482126	0.433992	0.481891
H49	H	-0.482122	0.582720	0.481869
H50	H	-0.482104	0.835567	0.481840
F51	F	-0.281864	0.423724	0.282248
F52	F	-0.281825	0.845804	0.282208
F53	F	-0.281843	0.592954	0.282232
H54	H	-0.294748	0.686823	0.295099
H55	H	-0.482107	0.686848	0.481860
