data_functionalizedCrystal
_audit_creation_method	'MofGen! by Chris Wilmer'
_symmetry_space_group_name_H-M	'P1'
_symmetry_Int_Tables_number	1
_symmetry_cell_setting	triclinic
loop_
_symmetry_equiv_pos_as_xyz
  x,y,z
_cell_length_a	14.519731
_cell_length_b	9.565339
_cell_length_c	14.519731
_cell_angle_alpha	90.000753
_cell_angle_beta	83.688853
_cell_angle_gamma	90.003653
loop_
_atom_site_label
_atom_site_type_symbol
_atom_site_fract_x
_atom_site_fract_y
_atom_site_fract_z
O1	O	1.223864	0.116266	0.120977
O2	O	0.955391	0.116269	0.135193
O3	O	1.096735	0.116255	-0.006152
O4	O	1.082520	0.116280	0.262322
O5	O	1.096724	-0.116265	-0.006143
O6	O	0.955380	-0.116251	0.135202
O7	O	1.223853	-0.116254	0.120986
Zn8	Zn	1.089615	-0.153170	0.128095
Zn9	Zn	1.089629	0.153185	0.128084
O10	O	1.082508	-0.116240	0.262330
C11	C	0.921026	0.000009	0.134531
C12	C	0.818645	0.000009	0.132535
N13	N	1.089611	-0.362250	0.128102
C14	C	0.735501	0.000015	0.130913
C15	C	0.631192	0.000015	0.128887
C16	C	0.548053	0.000015	0.127278
C17	C	0.443738	0.000018	0.125252
C18	C	1.024224	-0.453446	0.193448
C19	C	1.107592	-0.546624	0.211486
C20	C	1.006280	-0.546627	0.110071
C21	C	1.173021	-0.453376	0.146183
C22	C	1.071654	-0.453371	0.044731
C23	C	1.155082	-0.546506	0.062734
C24	C	1.258218	0.000009	0.121648
C25	C	1.360598	0.000018	0.123643
C26	C	1.096064	-0.000006	-0.040507
C27	C	1.094068	-0.000007	-0.142887
N28	N	1.089640	0.362264	0.128069
C29	C	1.092446	-0.000003	-0.226031
C30	C	1.090419	0.000007	-0.330340
C31	C	1.088811	0.000016	-0.413479
C32	C	1.086785	0.000025	-0.517795
C33	C	1.083180	0.000024	0.296685
C34	C	1.085176	0.000034	0.399066
H35	H	1.122800	-0.587584	0.281977
H36	H	1.210450	-0.587110	0.007456
H37	H	1.243520	-0.412586	0.161504
H38	H	0.935796	-0.587592	0.094835
O39	O	0.958417	-0.404748	0.259549
C40	C	0.903018	-0.397085	0.422115
C41	C	0.977610	-0.452305	0.347353
H42	H	0.918498	-0.435537	0.493119
H43	H	0.903176	-0.277910	0.421150
H44	H	0.832113	-0.437010	0.407410
H45	H	1.048552	-0.412484	0.362007
H46	H	0.977370	-0.571479	0.348336
O47	O	1.053320	-0.404519	-0.039299
C48	C	0.944730	-0.396592	-0.153321
C49	C	0.965379	-0.451987	-0.058135
H50	H	0.873639	-0.434972	-0.168588
H51	H	0.945510	-0.277418	-0.152712
H52	H	0.999795	-0.436458	-0.209166
H53	H	0.910337	-0.412224	-0.002237
H54	H	0.964633	-0.571159	-0.058823
