data_functionalizedCrystal
_audit_creation_method	'MofGen! by Chris Wilmer'
_symmetry_space_group_name_H-M	'P1'
_symmetry_Int_Tables_number	1
_symmetry_cell_setting	triclinic
loop_
_symmetry_equiv_pos_as_xyz
  x,y,z
_cell_length_a	21.395362
_cell_length_b	16.959454
_cell_length_c	21.395356
_cell_angle_alpha	89.977834
_cell_angle_beta	89.957023
_cell_angle_gamma	90.035955
loop_
_atom_site_label
_atom_site_type_symbol
_atom_site_fract_x
_atom_site_fract_y
_atom_site_fract_z
Zn1	Zn	0.957900	-0.314366	-0.354610
Zn2	Zn	0.957824	-0.446548	-0.249842
Zn3	Zn	0.853117	-0.314424	-0.249811
Zn4	Zn	0.853103	-0.446544	-0.354547
O5	O	0.905486	-0.380471	-0.302202
O6	O	1.045568	-0.331878	-0.340751
O7	O	0.943907	-0.429048	-0.162160
O8	O	0.867054	-0.203806	-0.263726
O9	O	1.045512	-0.428992	-0.263779
O10	O	0.944038	-0.203763	-0.340721
O11	O	0.866980	-0.331977	-0.162137
O12	O	0.765437	-0.331973	-0.263665
O13	O	0.867031	-0.428984	-0.442233
O14	O	0.765427	-0.429040	-0.340614
O15	O	0.944025	-0.331874	-0.442279
O16	O	0.943895	-0.557159	-0.263718
O17	O	0.866957	-0.557155	-0.340645
C18	C	0.742698	-0.380513	-0.302130
C19	C	0.673057	-0.380549	-0.302114
C20	C	0.640355	-0.431159	-0.342121
C21	C	0.574920	-0.431140	-0.342149
C22	C	0.542189	-0.380519	-0.302158
C23	C	0.574898	-0.329899	-0.262148
C24	C	0.640332	-0.329914	-0.262126
C25	C	0.438464	-0.374163	-0.245752
C26	C	0.373031	-0.374153	-0.245774
C27	C	0.340368	-0.380467	-0.302227
C28	C	0.373146	-0.386808	-0.358661
C29	C	0.438580	-0.386823	-0.358639
C30	C	0.471236	-0.380496	-0.302178
C31	C	0.236714	-0.431059	-0.342268
C32	C	0.171277	-0.431034	-0.342297
C33	C	0.171257	-0.329797	-0.262291
C34	C	0.236692	-0.329818	-0.262267
C35	C	0.269417	-0.380453	-0.302255
C36	C	0.905433	-0.585837	-0.302192
C37	C	0.905468	-0.673694	-0.302208
C38	C	0.865483	-1.045197	-0.342254
C39	C	0.945664	-1.045141	-0.262215
C40	C	0.945642	-0.962595	-0.262209
C41	C	0.905539	-0.921346	-0.302226
C42	C	0.865458	-0.962644	-0.342248
C43	C	0.985717	-0.921292	-0.222184
C44	C	0.985696	-0.838741	-0.222176
C45	C	0.945596	-0.797491	-0.262196
C46	C	0.905515	-0.838793	-0.302220
C47	C	0.865412	-0.797544	-0.342236
C48	C	0.825333	-0.838845	-0.382264
C49	C	0.825358	-0.921394	-0.382268
C50	C	0.945571	-0.714942	-0.262192
C51	C	0.865387	-0.714991	-0.342230
C52	C	1.068909	-0.380429	-0.302276
C53	C	1.138550	-0.380412	-0.302307
C54	C	0.905535	-0.380422	-0.465626
C55	C	0.905556	-0.380401	-0.535267
C56	C	0.905556	-0.174302	-0.302227
C57	C	0.905585	-0.086446	-0.302237
C58	C	0.865511	-0.329850	-0.567958
C59	C	0.865508	-0.329836	-0.633394
C60	C	0.905563	-0.380363	-0.666135
C61	C	0.945611	-0.430924	-0.633436
C62	C	0.945608	-0.430942	-0.568002
C63	C	0.962016	-0.386558	-0.769841
C64	C	0.962020	-0.386533	-0.835274
C65	C	0.905573	-0.380310	-0.867956
C66	C	0.849120	-0.374094	-0.835197
C67	C	0.849117	-0.374113	-0.769763
C68	C	0.905571	-0.380349	-0.737088
C69	C	0.865522	-0.329741	-0.971600
C70	C	0.865519	-0.329732	-1.037037
C71	C	0.945627	-0.430815	-1.037078
C72	C	0.945625	-0.430829	-0.971643
C73	C	0.905573	-0.380287	-0.938908
C74	C	0.905473	-0.380462	-0.139415
C75	C	0.905573	-0.380261	-0.069774
H76	H	0.144608	-0.288577	-0.229733
C77	C	0.538937	-0.486814	-0.386155
H78	H	0.495280	-0.479549	-0.380443
H79	H	0.549616	-0.539909	-0.376907
H80	H	0.549711	-0.475320	-0.428269
C81	C	0.337226	-0.393751	-0.420764
H82	H	0.293561	-0.392825	-0.412698
H83	H	0.347938	-0.441907	-0.440731
H84	H	0.348010	-0.350794	-0.447172
C85	C	0.336981	-0.367177	-0.183700
H86	H	0.365804	-0.363404	-0.150076
H87	H	0.311420	-0.412461	-0.178135
H88	H	0.311486	-0.321349	-0.184590
C89	C	0.781270	-0.966825	-0.426286
H90	H	0.787023	-1.021895	-0.420551
H91	H	0.790408	-0.953266	-0.468396
H92	H	0.739172	-0.953352	-0.417055
H93	H	0.832853	-1.078828	-0.374845
H94	H	0.978310	-1.078731	-0.229632
H95	H	0.832904	-0.288570	-1.063653
H96	H	0.666958	-0.288699	-0.229547
C97	C	0.821453	-0.274167	-0.935589
H98	H	0.797593	-0.244070	-0.964433
H99	H	0.845422	-0.239723	-0.910081
H100	H	0.794145	-0.304433	-0.910044
H101	H	0.465053	-0.369017	-0.199778
C102	C	0.821274	-0.669623	-0.386250
H103	H	0.797408	-0.706045	-0.410085
H104	H	0.845218	-0.637371	-0.413575
H105	H	0.793973	-0.637474	-0.362243
H106	H	1.018362	-0.954882	-0.189600
H107	H	0.978242	-0.471954	-1.063736
C108	C	0.787023	-0.367289	-0.733730
H109	H	0.753403	-0.363586	-0.762561
H110	H	0.787848	-0.321481	-0.708207
H111	H	0.781505	-0.412607	-0.708198
C112	C	0.781223	-0.793470	-0.426282
H113	H	0.757354	-0.829885	-0.450120
H114	H	0.805170	-0.761217	-0.453604
H115	H	0.753923	-0.761320	-0.402272
C116	C	1.029771	-0.793313	-0.178140
H117	H	1.024009	-0.738242	-0.183861
H118	H	1.071871	-0.806778	-0.187351
H119	H	1.020610	-0.806885	-0.136034
H120	H	0.978200	-0.681319	-0.229599
H121	H	0.832895	-0.288698	-0.541310
C122	C	0.676349	-0.486847	-0.386113
H123	H	0.647497	-0.516980	-0.409948
H124	H	0.701829	-0.521253	-0.362094
H125	H	0.701920	-0.456654	-0.413448
C126	C	0.821462	-0.274224	-0.669365
H127	H	0.827200	-0.281455	-0.713023
H128	H	0.830655	-0.221118	-0.658653
H129	H	0.779355	-0.285802	-0.658614
C130	C	0.787023	-0.367271	-0.871138
H131	H	0.795107	-0.368165	-0.914800
H132	H	0.766993	-0.319164	-0.860415
H133	H	0.760664	-0.410291	-0.860381
H134	H	1.007986	-0.391619	-0.743237
H135	H	0.548244	-0.288682	-0.229588
C136	C	0.989684	-0.486425	-0.935680
H137	H	1.013543	-0.516511	-0.964550
H138	H	0.965706	-0.520879	-0.910131
H139	H	1.016994	-0.456181	-0.910180
C140	C	1.024113	-0.393372	-0.871306
H141	H	1.016033	-0.392460	-0.914957
H142	H	1.044127	-0.441492	-0.860591
H143	H	1.050486	-0.350368	-0.860606
H144	H	0.978224	-0.472064	-0.660099
C145	C	0.474637	-0.393794	-0.420709
H146	H	0.518284	-0.392905	-0.412607
H147	H	0.463972	-0.350839	-0.447129
H148	H	0.463905	-0.441952	-0.440680
C149	C	0.272713	-0.486745	-0.386259
H150	H	0.243863	-0.516876	-0.410098
H151	H	0.298190	-0.521154	-0.362238
H152	H	0.298289	-0.456554	-0.413591
C153	C	0.135305	-0.486719	-0.386299
H154	H	0.164169	-0.516884	-0.410102
H155	H	0.109825	-0.456536	-0.413654
H156	H	0.109735	-0.521108	-0.362279
C157	C	0.272669	-0.274154	-0.218256
H158	H	0.316326	-0.281408	-0.223973
H159	H	0.261892	-0.285647	-0.176146
H160	H	0.261989	-0.221055	-0.227506
C161	C	0.989664	-0.486546	-0.532040
H162	H	1.013522	-0.516635	-0.560909
H163	H	0.965685	-0.520996	-0.506490
H164	H	1.016976	-0.456302	-0.506541
