data_functionalizedCrystal
_audit_creation_method	'MofGen! by Chris Wilmer'
_symmetry_space_group_name_H-M	'P1'
_symmetry_Int_Tables_number	1
_symmetry_cell_setting	triclinic
loop_
_symmetry_equiv_pos_as_xyz
  x,y,z
_cell_length_a	16.974800
_cell_length_b	14.519709
_cell_length_c	16.053802
_cell_angle_alpha	92.569364
_cell_angle_beta	91.074188
_cell_angle_gamma	83.534829
loop_
_atom_site_label
_atom_site_type_symbol
_atom_site_fract_x
_atom_site_fract_y
_atom_site_fract_z
O1	O	1.049243	0.117559	0.001491
O2	O	1.549243	0.617559	0.501491
O3	O	0.819801	0.131676	-0.014020
O4	O	1.319801	0.631676	0.485980
O5	O	0.940605	-0.009617	-0.005846
O6	O	1.440605	0.490383	0.494154
O7	O	0.928439	0.258852	-0.006683
O8	O	1.428439	0.758852	0.493317
O9	O	0.933956	-0.001872	0.132563
O10	O	1.433956	0.498128	0.632563
O11	O	0.813152	0.139421	0.124389
O12	O	1.313152	0.639421	0.624389
O13	O	1.042594	0.125304	0.139900
O14	O	1.542594	0.625304	0.639900
Zn15	Zn	0.926817	0.133592	0.154120
Zn16	Zn	1.426817	0.633592	0.654120
Zn17	Zn	0.935578	0.123388	-0.028240
Zn18	Zn	1.435578	0.623388	0.471760
O19	O	0.921790	0.266597	0.131726
O20	O	1.421790	0.766597	0.631726
C21	C	0.787113	0.134870	0.053200
C22	C	1.287113	0.634870	0.553200
C23	C	0.699617	0.132836	0.047285
C24	C	1.199617	0.632836	0.547285
C25	C	0.654892	0.136101	0.119955
C26	C	1.154892	0.636101	0.619955
C27	C	0.572682	0.134175	0.114400
C28	C	1.072682	0.634175	0.614400
C29	C	0.535198	0.128992	0.036174
C30	C	1.035198	0.628992	0.536174
C31	C	0.579930	0.125725	-0.036501
C32	C	1.079930	0.625725	0.463499
C33	C	0.662139	0.127644	-0.030945
C34	C	1.162139	0.627644	0.469055
C35	C	0.289719	0.122795	0.011468
C36	C	0.789719	0.622795	0.511468
C37	C	0.207504	0.120879	0.005917
C38	C	0.707504	0.620879	0.505917
C39	C	0.200261	0.129328	0.156819
C40	C	0.700261	0.629328	0.656819
C41	C	0.282472	0.131252	0.162368
C42	C	0.782472	0.631252	0.662368
C43	C	0.327197	0.127979	0.089693
C44	C	0.827197	0.627979	0.589693
N45	N	0.451166	0.127027	0.030494
N46	N	0.951166	0.627027	0.530494
N47	N	0.411228	0.129938	0.095374
N48	N	0.911228	0.629938	0.595374
C49	C	0.936713	-0.040105	0.063320
C50	C	1.436713	0.459895	0.563320
C51	C	0.935014	-0.142487	0.063206
C52	C	1.435014	0.357513	0.563206
C53	C	0.928760	-0.517387	0.062762
C54	C	1.428760	-0.017387	0.562762
C55	C	0.930497	-0.413078	0.062885
C56	C	1.430497	0.086922	0.562885
C57	C	0.931887	-0.329940	0.062985
C58	C	1.431887	0.170060	0.562985
C59	C	0.933624	-0.225625	0.063107
C60	C	1.433624	0.274375	0.563107
C61	C	1.075282	0.122110	0.072678
C62	C	1.575282	0.622110	0.572678
C63	C	1.162778	0.124143	0.078587
C64	C	1.662778	0.624143	0.578587
C65	C	0.925682	0.297085	0.062558
C66	C	1.425682	0.797085	0.562558
C67	C	0.927381	0.399467	0.062666
C68	C	1.427381	0.899467	0.562666
N69	N	0.920844	0.140556	0.278576
N70	N	1.420844	0.640556	0.778576
N71	N	0.941558	0.116417	-0.152696
N72	N	1.441558	0.616417	0.347304
C73	C	0.972265	0.080457	0.325749
C74	C	1.472265	0.580457	0.825749
C75	C	0.968094	0.085337	0.412874
C76	C	1.468094	0.585337	0.912874
C77	C	0.912505	0.150321	0.452824
C78	C	1.412505	0.650321	0.952824
C79	C	0.861078	0.210423	0.405644
C80	C	1.361078	0.710423	0.905644
C81	C	0.865246	0.205538	0.318521
C82	C	1.365246	0.705538	0.818521
C83	C	0.894299	0.171633	0.713001
C84	C	1.394299	0.671633	1.213001
C85	C	0.890137	0.176516	0.800131
C86	C	1.390137	0.676516	1.300131
C87	C	0.997151	0.051428	0.807355
C88	C	1.497151	0.551428	1.307355
C89	C	1.001317	0.046553	0.720230
C90	C	1.501317	0.546553	1.220230
C91	C	0.949888	0.106651	0.673058
C92	C	1.449888	0.606651	1.173058
N93	N	0.908242	0.155313	0.541879
N94	N	1.408242	0.655313	1.041879
N95	N	0.954148	0.101654	0.584004
N96	N	1.454148	0.601654	1.084004
H97	H	0.536271	0.136818	0.173576
H98	H	1.036271	0.636818	0.673576
H99	H	0.312985	0.135468	0.226068
H100	H	0.812985	0.635468	0.726068
O101	O	0.543392	0.120731	-0.112424
O102	O	1.043392	0.620731	0.387576
C103	C	0.419962	0.113981	-0.187862
C104	C	0.919962	0.613981	0.312138
C105	C	0.461237	0.119655	-0.101825
C106	C	0.961237	0.619655	0.398175
H107	H	0.353536	0.113089	-0.179322
H108	H	0.853536	0.613089	0.320678
H109	H	0.430729	0.176769	-0.224478
H110	H	0.930729	0.676769	0.275522
H111	H	0.445083	0.047809	-0.223487
H112	H	0.945083	0.547809	0.276513
H113	H	0.436142	0.185787	-0.066131
H114	H	0.936142	0.685787	0.433869
H115	H	0.450474	0.056820	-0.065272
H116	H	0.950474	0.556820	0.434728
O117	O	0.705465	0.124513	-0.101620
O118	O	1.205465	0.624513	0.398380
C119	C	0.703983	0.115883	-0.251879
C120	C	1.203983	0.615883	0.248121
C121	C	0.654820	0.119448	-0.171905
C122	C	1.154820	0.619448	0.328095
H123	H	0.663060	0.111768	-0.308725
H124	H	1.163060	0.611768	0.191275
H125	H	0.735505	0.181064	-0.253593
H126	H	1.235505	0.681064	0.246407
H127	H	0.749796	0.052107	-0.252519
H128	H	1.249796	0.552107	0.247481
H129	H	0.608967	0.183183	-0.171212
H130	H	1.108967	0.683183	0.328788
H131	H	0.623354	0.054224	-0.170223
H132	H	1.123354	0.554224	0.329777
O133	O	1.026288	0.017249	0.287077
O134	O	1.526288	0.517249	0.787077
C135	C	1.132019	-0.106272	0.303449
C136	C	1.632019	0.393728	0.803449
C137	C	1.070864	-0.034743	0.347348
C138	C	1.570864	0.465257	0.847348
H139	H	1.168087	-0.148313	0.352159
H140	H	1.668087	0.351687	0.852159
H141	H	1.099922	-0.154799	0.260397
H142	H	1.599922	0.345201	0.760397
H143	H	1.173363	-0.068604	0.265284
H144	H	1.673363	0.431396	0.765284
H145	H	1.029504	-0.072333	0.385557
H146	H	1.529504	0.427667	0.885557
H147	H	1.103014	0.013781	0.390350
H148	H	1.603014	0.513781	0.890350
H149	H	0.163838	0.131990	0.215987
H150	H	0.663838	0.631990	0.715987
H151	H	0.176987	0.116661	-0.057787
H152	H	0.676987	0.616661	0.442213
O153	O	1.017939	0.026869	0.458723
O154	O	1.517939	0.526869	0.958723
C155	C	1.029857	-0.093486	0.558255
C156	C	1.529857	0.406514	1.058255
C157	C	0.973314	-0.027332	0.506366
C158	C	1.473314	0.472668	1.006366
H159	H	0.993800	-0.137311	0.596800
H160	H	1.493800	0.362689	1.096800
H161	H	1.070292	-0.140828	0.514768
H162	H	1.570292	0.359172	1.014768
H163	H	1.067345	-0.051241	0.601657
H164	H	1.567345	0.448759	1.101657
H165	H	0.935774	-0.069502	0.462959
H166	H	1.435774	0.430498	0.962959
H167	H	0.932932	0.020012	0.549901
H168	H	1.432932	0.520012	1.049901
H169	H	0.326125	0.120127	-0.047710
H170	H	0.826125	0.620127	0.452290
O171	O	0.691179	0.141095	0.196011
O172	O	1.191179	0.641095	0.696011
C173	C	0.675304	0.149317	0.345097
C174	C	1.175304	0.649317	0.845097
C175	C	0.634114	0.143645	0.259016
C176	C	1.134114	0.643645	0.759016
H177	H	0.629183	0.151401	0.396059
H178	H	1.129183	0.651401	0.896059
H179	H	0.720714	0.085932	0.352011
H180	H	1.220714	0.585932	0.852011
H181	H	0.706511	0.214891	0.350945
H182	H	1.206511	0.714891	0.850945
H183	H	0.602862	0.078111	0.253109
H184	H	1.102862	0.578111	0.753109
H185	H	0.588747	0.207077	0.252140
H186	H	1.088747	0.707077	0.752140
H187	H	1.046582	-0.006363	0.687705
H188	H	1.546582	0.493637	1.187705
H189	H	0.823373	0.254476	0.280113
H190	H	1.323373	0.754476	0.780113
O191	O	1.047069	-0.007087	0.853086
O192	O	1.547069	0.492913	1.353086
C193	C	1.091704	-0.165812	0.882900
C194	C	1.591704	0.334188	1.382900
C195	C	1.035147	-0.099641	0.831040
C196	C	1.535147	0.400359	1.331040
H197	H	1.082073	-0.240654	0.865107
H198	H	1.582073	0.259346	1.365107
H199	H	1.155684	-0.154644	0.870010
H200	H	1.655684	0.345356	1.370010
H201	H	1.079186	-0.151113	0.952027
H202	H	1.579186	0.348887	1.452027
H203	H	1.047593	-0.114299	0.761897
H204	H	1.547593	0.385701	1.261897
H205	H	0.971185	-0.110822	0.844001
H206	H	1.471185	0.389178	1.344001
H207	H	0.844867	0.229438	0.832654
H208	H	1.344867	0.729438	1.332654
H209	H	0.852425	0.220570	0.674600
H210	H	1.352425	0.720570	1.174600
O211	O	0.807149	0.273522	0.444583
O212	O	1.307149	0.773522	0.944583
C213	C	0.753271	0.336453	0.575594
C214	C	1.253271	0.836453	1.075594
C215	C	0.814395	0.264961	0.531606
C216	C	1.314395	0.764961	1.031606
H217	H	0.759098	0.329543	0.645959
H218	H	1.259098	0.829543	1.145959
H219	H	0.764458	0.409415	0.559210
H220	H	1.264458	0.909415	1.059210
H221	H	0.690961	0.323284	0.554165
H222	H	1.190961	0.823284	1.054165
H223	H	0.876729	0.278043	0.553011
H224	H	1.376729	0.778043	1.053011
H225	H	0.803139	0.192023	0.547990
H226	H	1.303139	0.692023	1.047990
