data_functionalizedCrystal
_audit_creation_method	'MofGen! by Chris Wilmer'
_symmetry_space_group_name_H-M	'P1'
_symmetry_Int_Tables_number	1
_symmetry_cell_setting	triclinic
loop_
_symmetry_equiv_pos_as_xyz
  x,y,z
_cell_length_a	18.050591
_cell_length_b	18.050590
_cell_length_c	19.805399
_cell_angle_alpha	89.972574
_cell_angle_beta	89.975361
_cell_angle_gamma	90.014558
loop_
_atom_site_label
_atom_site_type_symbol
_atom_site_fract_x
_atom_site_fract_y
_atom_site_fract_z
Zn1	Zn	1.135370	-0.295756	-0.382812
Zn2	Zn	1.635370	0.204244	0.117188
Zn3	Zn	1.135293	-0.419948	-0.269624
Zn4	Zn	1.635293	0.080052	0.230376
Zn5	Zn	1.011181	-0.295768	-0.269626
Zn6	Zn	1.511181	0.204232	0.230374
Zn7	Zn	1.011158	-0.419900	-0.382761
Zn8	Zn	1.511158	0.080100	0.117239
O9	O	1.073250	-0.357843	-0.326206
O10	O	1.573250	0.142157	0.173794
O11	O	1.239284	-0.312245	-0.367818
O12	O	1.739284	0.187755	0.132182
O13	O	1.118807	-0.403500	-0.174908
O14	O	1.618807	0.096500	0.325092
O15	O	1.027696	-0.191841	-0.284663
O16	O	1.527696	0.308159	0.215337
O17	O	1.239228	-0.403489	-0.284659
O18	O	1.739228	0.096511	0.215341
O19	O	1.118937	-0.191833	-0.367820
O20	O	1.618937	0.308167	0.132180
O21	O	1.027622	-0.312265	-0.174909
O22	O	1.527622	0.187735	0.325091
O23	O	0.907253	-0.312219	-0.284614
O24	O	1.407253	0.187781	0.215386
O25	O	1.027657	-0.403407	-0.477484
O26	O	1.527657	0.096593	0.022516
O27	O	0.907236	-0.403418	-0.367733
O28	O	1.407236	0.096582	0.132267
O29	O	1.118915	-0.312199	-0.477522
O30	O	1.618915	0.187801	0.022478
O31	O	1.118785	-0.523866	-0.284609
O32	O	1.618785	-0.023866	0.215391
O33	O	1.027583	-0.523831	-0.367730
O34	O	1.527583	-0.023831	0.132270
C35	C	0.880298	-0.357815	-0.326168
C36	C	1.380298	0.142185	0.173832
C37	C	0.797752	-0.357821	-0.326168
C38	C	1.297752	0.142179	0.173832
C39	C	0.598289	-0.308169	-0.281072
C40	C	1.098289	0.191831	0.218928
C41	C	0.548880	-0.375907	-0.264415
C42	C	1.048880	0.124093	0.235585
C43	C	0.646622	-0.357844	-0.326199
C44	C	1.146622	0.142156	0.173801
C45	C	0.548950	-0.290130	-0.342855
C46	C	1.048950	0.209870	0.157145
C47	C	0.500637	-0.357859	-0.326227
C48	C	1.000637	0.142141	0.173773
C49	C	0.598300	-0.425616	-0.309509
C50	C	1.098300	0.074384	0.190491
C51	C	0.598374	-0.339794	-0.387978
C52	C	1.098374	0.160206	0.112022
C53	C	0.548987	-0.407578	-0.371344
C54	C	1.048987	0.092422	0.128656
C55	C	0.730720	-0.357834	-0.326181
C56	C	1.230720	0.142166	0.173819
C57	C	0.416541	-0.357877	-0.326245
C58	C	0.916541	0.142123	0.173755
C59	C	1.073193	-0.550795	-0.326179
C60	C	1.573193	-0.050795	0.173821
C61	C	1.073237	-0.633341	-0.326190
C62	C	1.573237	-0.133341	0.173810
C63	C	1.122936	-0.832784	-0.281052
C64	C	1.622936	-0.332784	0.218948
C65	C	1.141075	-0.882119	-0.342828
C66	C	1.641075	-0.382119	0.157172
C67	C	1.073279	-0.784471	-0.326217
C68	C	1.573279	-0.284471	0.173783
C69	C	1.055215	-0.882218	-0.264468
C70	C	1.555215	-0.382218	0.235532
C71	C	1.073321	-0.930456	-0.326237
C72	C	1.573321	-0.430456	0.173763
C73	C	1.091454	-0.832719	-0.388026
C74	C	1.591454	-0.332719	0.111974
C75	C	1.005561	-0.832813	-0.309624
C76	C	1.505561	-0.332813	0.190376
C77	C	1.023676	-0.882126	-0.371443
C78	C	1.523676	-0.382126	0.128557
C79	C	1.073257	-0.700373	-0.326204
C80	C	1.573257	-0.200373	0.173796
C81	C	1.073343	-1.014553	-0.326257
C82	C	1.573343	-0.514553	0.173743
C83	C	1.266956	-0.357871	-0.326244
C84	C	1.766956	0.142129	0.173756
C85	C	1.349502	-0.357883	-0.326260
C86	C	1.849502	0.142117	0.173740
C87	C	1.073292	-0.357796	-0.502748
C88	C	1.573292	0.142204	-0.002748
C89	C	1.073310	-0.357776	-0.577981
C90	C	1.573310	0.142224	-0.077981
C91	C	1.073328	-0.164137	-0.326248
C92	C	1.573328	0.335863	0.173752
C93	C	1.073361	-0.081591	-0.326265
C94	C	1.573361	0.418409	0.173735
C95	C	1.120829	-0.310282	-0.613345
C96	C	1.620829	0.189718	-0.113345
C97	C	1.120836	-0.310260	-0.684034
C98	C	1.620836	0.189740	-0.184034
C99	C	1.073328	-0.357737	-0.719356
C100	C	1.573328	0.142263	-0.219356
C101	C	1.025804	-0.405234	-0.683986
C102	C	1.525804	0.094766	-0.183986
C103	C	1.025793	-0.405251	-0.613299
C104	C	1.525793	0.094749	-0.113299
C105	C	1.025846	-0.405165	-0.969060
C106	C	1.525846	0.094835	-0.469060
C107	C	1.025862	-0.405145	-1.039752
C108	C	1.525862	0.094855	-0.539752
C109	C	1.120889	-0.310174	-1.039794
C110	C	1.620889	0.189826	-0.539794
C111	C	1.120878	-0.310191	-0.969107
C112	C	1.620878	0.189809	-0.469107
C113	C	1.073352	-0.357684	-0.933744
C114	C	1.573352	0.142316	-0.433744
C115	C	1.073343	-0.357706	-0.857095
C116	C	1.573343	0.142294	-0.357095
C117	C	1.073340	-0.357720	-0.796003
C118	C	1.573340	0.142280	-0.296003
C119	C	1.073252	-0.357836	-0.150350
C120	C	1.573252	0.142164	0.349650
C121	C	1.073378	-0.357646	-0.075118
C122	C	1.573378	0.142354	0.424882
H123	H	0.619937	-0.266207	-0.242869
H124	H	1.119937	0.233793	0.257131
H125	H	0.987172	-0.443808	-1.068510
H126	H	1.487172	0.056192	-0.568510
H127	H	0.527233	-0.232866	-0.356907
H128	H	1.027233	0.267134	0.143093
H129	H	1.164943	-0.811117	-0.242896
H130	H	1.664943	-0.311117	0.257104
H131	H	1.106693	-0.811069	-0.440299
H132	H	1.606693	-0.311069	0.059701
H133	H	0.987158	-0.443847	-0.940275
H134	H	1.487158	0.056153	-0.440275
H135	H	0.981701	-0.903655	-0.409691
H136	H	1.481701	-0.403655	0.090309
H137	H	1.198361	-0.903778	-0.356875
H138	H	1.698361	-0.403778	0.143125
H139	H	1.039919	-0.903960	-0.212240
H140	H	1.539919	-0.403960	0.287760
H141	H	1.159585	-0.271500	-1.068596
H142	H	1.659585	0.228500	-0.568596
H143	H	0.527475	-0.449641	-0.409518
H144	H	1.027475	0.050359	0.090482
H145	H	0.948293	-0.811138	-0.295558
H146	H	1.448293	-0.311138	0.204442
H147	H	1.159567	-0.271533	-0.940351
H148	H	1.659567	0.228467	-0.440351
H149	H	0.527141	-0.391185	-0.212181
H150	H	1.027141	0.108815	0.287819
H151	H	0.619887	-0.482905	-0.295375
H152	H	1.119887	0.017095	0.204625
H153	H	0.620131	-0.324495	-0.440196
H154	H	1.120131	0.175505	0.059804
H155	H	1.159518	-0.271622	-0.584591
H156	H	1.659518	0.228378	-0.084591
H157	H	1.159533	-0.271587	-0.712825
H158	H	1.659533	0.228413	-0.212825
H159	H	0.987119	-0.443888	-0.712751
H160	H	1.487119	0.056112	-0.212751
H161	H	0.987091	-0.443918	-0.584506
H162	H	1.487091	0.056082	-0.084506
