data_functionalizedCrystal
_audit_creation_method	'MofGen! by Chris Wilmer'
_symmetry_space_group_name_H-M	'P1'
_symmetry_Int_Tables_number	1
_symmetry_cell_setting	triclinic
loop_
_symmetry_equiv_pos_as_xyz
  x,y,z
_cell_length_a	10.489716
_cell_length_b	10.489741
_cell_length_c	8.965430
_cell_angle_alpha	90.000457
_cell_angle_beta	89.996741
_cell_angle_gamma	84.534155
loop_
_atom_site_label
_atom_site_type_symbol
_atom_site_fract_x
_atom_site_fract_y
_atom_site_fract_z
O1	O	1.694059	0.179813	0.124026
O2	O	1.322859	0.196738	0.124032
O3	O	1.516905	0.002677	0.124020
O4	O	1.500012	0.373874	0.124038
O5	O	1.516915	0.002683	-0.124059
O6	O	1.322868	0.196744	-0.124047
O7	O	1.694068	0.179819	-0.124052
Cu8	Cu	1.508469	0.188282	-0.146701
Cu9	Cu	1.508458	0.188275	0.146681
O10	O	1.500022	0.373880	-0.124041
C11	C	1.275332	0.195470	-0.000007
C12	C	1.133701	0.191665	-0.000005
C13	C	1.036027	0.310669	0.000005
C14	C	0.958685	0.247788	-0.122321
C15	C	0.958683	0.247754	0.122265
C16	C	1.058225	0.128833	-0.122431
C17	C	1.058227	0.128816	0.122265
C18	C	0.980935	0.065848	-0.000091
C19	C	1.515634	-0.044852	-0.000018
C20	C	1.511817	-0.186481	-0.000016
C21	C	1.388351	-0.254610	-0.000003
C22	C	1.446680	-0.346735	-0.122319
C23	C	1.446700	-0.346715	0.122267
C24	C	1.570196	-0.276740	-0.122433
C25	C	1.570199	-0.276711	0.122263
C26	C	1.628618	-0.368808	-0.000083
C27	C	1.741596	0.181087	-0.000010
C28	C	1.883227	0.184892	-0.000002
C29	C	1.501293	0.421409	0.000001
C30	C	1.505110	0.563038	0.000008
N31	N	1.508486	0.188287	-0.353050
C32	C	1.598255	0.098546	-0.450322
C33	C	1.482758	0.072721	-0.549726
C34	C	1.623937	0.214028	-0.549774
C35	C	1.392931	0.162404	-0.450266
C36	C	1.534186	0.303762	-0.450305
C37	C	1.418606	0.277986	-0.549664
N38	N	1.508451	0.188260	0.353030
H39	H	0.915195	0.298012	0.225667
H40	H	1.555983	0.401398	-0.406600
C41	C	1.250359	-0.330416	-0.261694
C42	C	1.376167	-0.388602	-0.261914
H43	H	1.206823	-0.356267	-0.347867
H44	H	1.251604	-0.239997	-0.262246
H45	H	1.207324	-0.355543	-0.174828
H46	H	1.419205	-0.363468	-0.348775
H47	H	1.374928	-0.479041	-0.261376
C48	C	1.830879	-0.398553	0.126697
C49	C	1.765793	-0.435509	-0.000172
H50	H	1.915570	-0.439716	0.126629
H51	H	1.787242	-0.422534	0.213630
H52	H	1.833984	-0.308345	0.125856
H53	H	1.762680	-0.525717	0.000674
H54	H	1.809441	-0.411536	-0.087127
C55	C	1.680504	-0.343079	-0.348166
C56	C	1.640665	-0.235135	-0.262193
H57	H	1.724011	-0.317389	-0.434441
H58	H	1.607943	-0.384722	-0.377389
H59	H	1.736595	-0.400323	-0.290975
H60	H	1.584566	-0.177895	-0.319381
H61	H	1.713236	-0.193472	-0.232971
C62	C	1.249699	0.065345	-0.260957
C63	C	1.116692	0.061070	-0.262191
H64	H	1.285791	0.023520	-0.347244
H65	H	1.284630	0.023376	-0.174215
H66	H	1.268878	0.152041	-0.260600
H67	H	1.097512	-0.025627	-0.262537
H68	H	1.081749	0.103036	-0.348956
C69	C	1.575818	-0.269735	0.389834
C70	C	1.640656	-0.234794	0.261863
H71	H	1.619306	-0.243845	0.476024
H72	H	1.573231	-0.359990	0.391336
H73	H	1.490949	-0.229046	0.388940
H74	H	1.725523	-0.275490	0.262752
H75	H	1.643258	-0.144521	0.260362
H76	H	1.721587	0.235812	-0.593483
H77	H	1.342593	0.353870	-0.593008
C78	C	1.700362	-0.002113	-0.235248
C79	C	1.700637	-0.003947	-0.391415
H80	H	1.763569	-0.065384	-0.198883
H81	H	1.618516	-0.019608	-0.199729
H82	H	1.718836	0.079896	-0.201223
H83	H	1.682154	-0.085953	-0.425440
H84	H	1.782502	0.013539	-0.426948
C85	C	1.018864	0.512444	-0.128399
C86	C	1.069358	0.450401	-0.000146
H87	H	1.039452	0.598703	-0.128499
H88	H	0.928474	0.510956	-0.129280
H89	H	1.054442	0.469759	-0.214401
H90	H	1.033772	0.493082	0.085856
H91	H	1.159767	0.451897	0.000749
H92	H	1.394439	-0.377677	0.225686
H93	H	0.915207	0.298027	-0.225731
C94	C	0.998661	-0.135994	-0.128364
C95	C	0.947936	-0.073991	-0.000189
H96	H	0.978278	-0.222320	-0.128432
H97	H	1.089028	-0.134297	-0.129169
H98	H	0.963058	-0.093426	-0.214420
H99	H	0.983547	-0.116554	0.085867
H100	H	0.857550	-0.075696	0.000629
C101	C	1.436425	-0.140826	-0.488283
C102	C	1.453384	-0.059120	-0.608694
H103	H	1.418305	-0.222222	-0.524687
H104	H	1.367105	-0.105474	-0.428495
H105	H	1.512375	-0.150208	-0.430018
H106	H	1.377429	-0.049730	-0.666953
H107	H	1.522710	-0.094480	-0.668506
H108	H	1.101719	0.078616	0.225680
H109	H	1.295257	0.140510	-0.406740
C110	C	1.186028	-0.224390	0.126634
C111	C	1.251314	-0.187570	-0.000159
H112	H	1.101427	-0.183008	0.126524
H113	H	1.229685	-0.200568	0.213617
H114	H	1.182678	-0.314566	0.125732
H115	H	1.254672	-0.097395	0.000749
H116	H	1.207645	-0.211383	-0.087165
