data_functionalizedCrystal
_audit_creation_method	'MofGen! by Chris Wilmer'
_symmetry_space_group_name_H-M	'P1'
_symmetry_Int_Tables_number	1
_symmetry_cell_setting	triclinic
loop_
_symmetry_equiv_pos_as_xyz
  x,y,z
_cell_length_a	11.792241
_cell_length_b	16.109291
_cell_length_c	10.268362
_cell_angle_alpha	90.003314
_cell_angle_beta	89.998512
_cell_angle_gamma	83.825452
loop_
_atom_site_label
_atom_site_type_symbol
_atom_site_fract_x
_atom_site_fract_y
_atom_site_fract_z
O1	O	0.145828	1.103824	-0.108061
O2	O	0.645828	1.603824	0.391939
O3	O	0.163995	0.861846	-0.108116
O4	O	0.663995	1.361846	0.391884
O5	O	-0.010311	0.988707	-0.108078
O6	O	0.489689	1.488707	0.391922
O7	O	0.320134	0.976963	-0.108099
O8	O	0.820134	1.476963	0.391901
O9	O	-0.010305	0.988695	0.108522
O10	O	0.489695	1.488695	0.608522
O11	O	0.164001	0.861834	0.108484
O12	O	0.664001	1.361834	0.608484
O13	O	0.145834	1.103812	0.108540
O14	O	0.645834	1.603812	0.608540
Cu15	Cu	0.154918	0.982822	0.128289
Cu16	Cu	0.654918	1.482822	0.628289
Cu17	Cu	0.154911	0.982836	-0.127866
Cu18	Cu	0.654911	1.482836	0.372134
O19	O	0.320140	0.976951	0.108502
O20	O	0.820140	1.476951	0.608502
C21	C	-0.052592	0.987963	0.000222
C22	C	0.447408	1.487963	0.500222
C23	C	-0.178586	0.985755	0.000220
C24	C	0.321414	1.485755	0.500220
C25	C	0.163264	0.830862	0.000177
C26	C	0.663264	1.330862	0.500177
C27	C	0.161064	0.738556	0.000156
C28	C	0.661064	1.238556	0.500156
C29	C	0.146565	1.134796	0.000243
C30	C	0.646565	1.634796	0.500243
C31	C	0.148765	1.227102	0.000256
C32	C	0.648765	1.727102	0.500256
C33	C	-0.409263	0.981695	0.000197
C34	C	0.090737	1.481695	0.500197
C35	C	-0.280898	0.983951	0.000209
C36	C	0.219102	1.483951	0.500209
C37	C	0.362421	0.977695	0.000199
C38	C	0.862421	1.477695	0.500199
C39	C	0.488415	0.979903	0.000192
C40	C	0.988415	1.479903	0.500192
N41	N	0.154922	0.982818	0.308455
N42	N	0.654922	1.482818	0.808455
C43	C	0.155969	1.526209	0.118267
C44	C	0.655969	2.026209	0.618267
C45	C	0.153880	1.439480	0.118285
C46	C	0.653880	1.939480	0.618285
C47	C	0.153857	1.439455	-0.117865
C48	C	0.653857	1.939455	0.382135
C49	C	0.155937	1.526184	-0.117881
C50	C	0.655937	2.026184	0.382119
C51	C	0.156999	1.569558	0.000189
C52	C	0.656999	2.069558	0.500189
C53	C	0.152830	1.396100	0.000223
C54	C	0.652830	1.896100	0.500223
C55	C	0.150566	1.302064	0.000242
C56	C	0.650566	1.802064	0.500242
C57	C	0.159261	1.663600	0.000171
C58	C	0.659261	2.163600	0.500171
N59	N	0.154898	0.982847	-0.308032
N60	N	0.654898	1.482847	0.191968
C61	C	0.154923	0.982824	0.426298
C62	C	0.654923	1.482824	0.926298
C63	C	0.154913	0.982834	0.574135
C64	C	0.654913	1.482834	1.074135
H65	H	0.156833	1.561522	0.214408
H66	H	0.656833	2.061522	0.714408
H67	H	0.153042	1.404189	0.214437
H68	H	0.653042	1.904189	0.714437
N69	N	0.152771	1.395135	-0.238452
N70	N	0.652771	1.895135	0.261548
N71	N	0.150915	1.317699	-0.238423
N72	N	0.650915	1.817699	0.261577
H73	H	0.150150	1.286398	-0.323591
H74	H	0.650150	1.786398	0.176409
N75	N	0.156963	1.570468	-0.238506
N76	N	0.656963	2.070468	0.261494
N77	N	0.076760	1.568080	-0.317540
N78	N	0.576760	2.068080	0.182460
H79	H	0.077477	1.599356	-0.402729
H80	H	0.577477	2.099356	0.097271
