data_functionalizedCrystal
_audit_creation_method	'MofGen! by Chris Wilmer'
_symmetry_space_group_name_H-M	'P1'
_symmetry_Int_Tables_number	1
_symmetry_cell_setting	triclinic
loop_
_symmetry_equiv_pos_as_xyz
  x,y,z
_cell_length_a	19.805407
_cell_length_b	12.759400
_cell_length_c	19.805399
_cell_angle_alpha	90.023237
_cell_angle_beta	90.019573
_cell_angle_gamma	90.014685
loop_
_atom_site_label
_atom_site_type_symbol
_atom_site_fract_x
_atom_site_fract_y
_atom_site_fract_z
Zn1	Zn	1.034791	-0.418291	0.382740
Zn2	Zn	1.534791	0.081709	0.882740
Zn3	Zn	1.034729	-0.593984	0.269560
Zn4	Zn	1.534729	-0.093984	0.769560
Zn5	Zn	0.921605	-0.418320	0.269565
Zn6	Zn	1.421605	0.081680	0.769565
Zn7	Zn	0.921592	-0.593928	0.382707
Zn8	Zn	1.421592	-0.093928	0.882707
O9	O	0.978179	-0.506131	0.326143
O10	O	1.478179	-0.006131	0.826143
O11	O	1.129499	-0.441608	0.367739
O12	O	1.629499	0.058392	0.867739
O13	O	1.019702	-0.570717	0.174844
O14	O	1.519702	-0.070717	0.674844
O15	O	0.936651	-0.271295	0.284593
O16	O	1.436651	0.228705	0.784593
O17	O	1.129454	-0.570689	0.284586
O18	O	1.629454	-0.070689	0.784586
O19	O	1.019808	-0.271273	0.367743
O20	O	1.519808	0.228727	0.867743
O21	O	0.936591	-0.441657	0.174848
O22	O	1.436591	0.058343	0.674848
O23	O	0.826887	-0.441603	0.284561
O24	O	1.326887	0.058397	0.784561
O25	O	0.936629	-0.570594	0.477428
O26	O	1.436629	-0.070594	0.977428
O27	O	0.826877	-0.570622	0.367687
O28	O	1.326877	-0.070622	0.867687
O29	O	1.019795	-0.441554	0.477452
O30	O	1.519795	0.058446	0.977452
O31	O	1.019689	-0.740998	0.284554
O32	O	1.519689	-0.240998	0.784554
O33	O	0.936568	-0.740957	0.367682
O34	O	1.436568	-0.240957	0.867682
C35	C	0.802323	-0.506110	0.326121
C36	C	1.302323	-0.006110	0.826121
C37	C	0.727091	-0.506127	0.326128
C38	C	1.227091	-0.006127	0.826128
C39	C	0.691760	-0.573408	0.369341
C40	C	1.191760	-0.073408	0.869341
C41	C	0.621071	-0.573410	0.369351
C42	C	1.121071	-0.073410	0.869351
C43	C	0.585716	-0.506135	0.326143
C44	C	1.085716	-0.006135	0.826143
C45	C	0.621052	-0.438847	0.282928
C46	C	1.121052	0.061153	0.782928
C47	C	0.691739	-0.438840	0.282922
C48	C	1.191739	0.061160	0.782922
C49	C	0.335979	-0.438870	0.282950
C50	C	0.835979	0.061130	0.782950
C51	C	0.265287	-0.438884	0.282958
C52	C	0.765287	0.061116	0.782958
C53	C	0.265311	-0.573440	0.369379
C54	C	0.765311	-0.073440	0.869379
C55	C	0.335998	-0.573433	0.369373
C56	C	0.835998	-0.073433	0.869373
C57	C	0.371328	-0.506141	0.326161
C58	C	0.871328	-0.006141	0.826161
C59	C	0.447977	-0.506139	0.326152
C60	C	0.947977	-0.006139	0.826152
C61	C	0.509069	-0.506142	0.326148
C62	C	1.009069	-0.006142	0.826148
C63	C	0.978139	-0.779098	0.326129
C64	C	1.478139	-0.279098	0.826129
C65	C	0.978184	-0.895875	0.326146
C66	C	1.478184	-0.395875	0.826146
C67	C	1.021513	-0.950723	0.282908
C68	C	1.521513	-0.450723	0.782908
C69	C	1.021555	-1.060447	0.282929
C70	C	1.521555	-0.560447	0.782929
C71	C	0.934932	-1.060464	0.369426
C72	C	1.434932	-0.560464	0.869426
C73	C	0.934894	-0.950742	0.369408
C74	C	1.434894	-0.450742	0.869408
C75	C	1.064802	-0.895855	0.239646
C76	C	1.564802	-0.395855	0.739646
C77	C	1.108135	-0.950704	0.196404
C78	C	1.608135	-0.450704	0.696404
C79	C	1.108176	-1.060428	0.196425
C80	C	1.608176	-0.560428	0.696425
C81	C	1.064886	-1.115303	0.239687
C82	C	1.564886	-0.615303	0.739687
C83	C	1.154722	-0.506152	0.326165
C84	C	1.654722	-0.006152	0.826165
C85	C	1.229954	-0.506160	0.326175
C86	C	1.729954	-0.006160	0.826175
C87	C	0.978217	-0.506064	0.502686
C88	C	1.478217	-0.006064	1.002686
C89	C	0.978233	-0.506036	0.577918
C90	C	1.478233	-0.006036	1.077918
C91	C	0.978238	-0.232097	0.326172
C92	C	1.478238	0.267903	0.826172
C93	C	0.978263	-0.115321	0.326184
C94	C	1.478263	0.384679	0.826184
C95	C	0.978180	-0.506121	0.150287
C96	C	1.478180	-0.006121	0.650287
C97	C	0.978295	-0.505853	0.075055
C98	C	1.478295	-0.005853	0.575055
C99	C	1.021539	-0.438842	0.613276
C100	C	1.521539	0.061158	1.113276
C101	C	1.021546	-0.438811	0.683964
C102	C	1.521546	0.061189	1.183964
C103	C	0.978250	-0.505981	0.719294
C104	C	1.478250	-0.005981	1.219294
C105	C	0.934940	-0.573179	0.683931
C106	C	1.434940	-0.073179	1.183931
C107	C	0.934930	-0.573203	0.613244
C108	C	1.434930	-0.073203	1.113244
C109	C	0.934978	-0.573081	0.969004
C110	C	1.434978	-0.073081	1.469004
C111	C	0.934992	-0.573054	1.039696
C112	C	1.434992	-0.073054	1.539696
C113	C	1.021594	-0.438689	1.039725
C114	C	1.521594	0.061311	1.539725
C115	C	1.021584	-0.438713	0.969038
C116	C	1.521584	0.061287	1.469038
C117	C	0.978272	-0.505906	0.933681
C118	C	1.478272	-0.005906	1.433681
C119	C	0.978264	-0.505937	0.857033
C120	C	1.478264	-0.005937	1.357033
C121	C	0.978261	-0.505957	0.795941
C122	C	1.478261	-0.005957	1.295941
H123	H	0.592308	-0.628198	0.404539
H124	H	1.092308	-0.128198	0.904539
H125	H	0.236536	-0.628228	0.404567
H126	H	0.736536	-0.128228	0.904567
C127	C	0.800127	-0.633154	0.407706
C128	C	1.300127	-0.133154	0.907706
C129	C	0.730620	-0.647361	0.416836
C130	C	1.230620	-0.147361	0.916836
H131	H	0.824115	-0.678814	0.437027
H132	H	1.324115	-0.178814	0.937027
H133	H	0.811721	-0.562591	0.417690
H134	H	1.311721	-0.062591	0.917690
H135	H	0.811683	-0.648440	0.362209
H136	H	1.311683	-0.148440	0.862209
H137	H	0.719063	-0.632067	0.462332
H138	H	1.219063	-0.132067	0.962332
H139	H	0.719021	-0.717940	0.406857
H140	H	1.219021	-0.217940	0.906857
C141	C	0.901944	-0.750981	0.947227
C142	C	1.401944	-0.250981	1.447227
C143	C	0.887362	-0.646936	0.930153
C144	C	1.387362	-0.146936	1.430153
H145	H	0.872544	-0.796574	0.923239
H146	H	1.372544	-0.296574	1.423239
H147	H	0.895763	-0.760566	0.994378
H148	H	1.395763	-0.260566	1.494378
H149	H	0.947412	-0.766369	0.935633
H150	H	1.447412	-0.266369	1.435633
H151	H	0.841895	-0.631545	0.941752
H152	H	1.341895	-0.131545	1.441752
H153	H	0.893536	-0.637346	0.882992
H154	H	1.393536	-0.137346	1.382992
H155	H	0.720505	-0.384048	0.247737
H156	H	1.220505	0.115952	0.747737
C157	C	0.925566	-0.714356	1.119167
C158	C	1.425566	-0.214356	1.619167
C159	C	0.887396	-0.646894	1.078530
C160	C	1.387396	-0.146894	1.578530
H161	H	0.896183	-0.759944	1.143137
H162	H	1.396183	-0.259944	1.643137
H163	H	0.951355	-0.674336	1.150338
H164	H	1.451355	-0.174336	1.650338
H165	H	0.955037	-0.754554	1.091582
H166	H	1.455037	-0.254554	1.591582
H167	H	0.857928	-0.606690	1.106116
H168	H	1.357928	-0.106690	1.606116
H169	H	0.861596	-0.686918	1.047355
H170	H	1.361596	-0.186918	1.547355
H171	H	1.064772	-0.806512	0.239622
H172	H	1.564772	-0.306512	0.739622
C173	C	0.843865	-0.587829	0.533738
C174	C	1.343865	-0.087829	1.033738
C175	C	0.887327	-0.647073	0.574381
C176	C	1.387327	-0.147073	1.074381
H177	H	0.814473	-0.633436	0.509752
H178	H	1.314473	-0.133436	1.009752
H179	H	0.869646	-0.547842	0.502581
H180	H	1.369646	-0.047842	1.002581
H181	H	0.817992	-0.542043	0.561321
H182	H	1.317992	-0.042043	1.061321
H183	H	0.913203	-0.692854	0.546797
H184	H	1.413203	-0.192854	1.046797
H185	H	0.861543	-0.687078	0.605542
H186	H	1.361543	-0.187078	1.105542
C187	C	0.185769	-0.424115	0.191923
C188	C	0.685769	0.075885	0.691923
C189	C	0.226428	-0.364932	0.235453
C190	C	0.726428	0.135068	0.735453
H191	H	0.161785	-0.378465	0.162593
H192	H	0.661785	0.121535	0.662593
H193	H	0.154610	-0.464176	0.217659
H194	H	0.654610	0.035824	0.717659
H195	H	0.213341	-0.469831	0.165988
H196	H	0.713341	0.030169	0.665988
H197	H	0.198855	-0.319222	0.261392
H198	H	0.698855	0.180778	0.761392
H199	H	0.257590	-0.324854	0.209715
H200	H	0.757590	0.175146	0.709715
C201	C	1.146531	-0.782499	0.157961
C202	C	1.646531	-0.282499	0.657961
C203	C	1.155718	-0.890389	0.148853
C204	C	1.655718	-0.390389	0.648853
H205	H	1.175906	-0.745267	0.128601
H206	H	1.675906	-0.245267	0.628601
H207	H	1.156407	-0.764460	0.203438
H208	H	1.656407	-0.264460	0.703438
H209	H	1.101051	-0.764599	0.148010
H210	H	1.601051	-0.264599	0.648010
H211	H	1.201198	-0.908290	0.158809
H212	H	1.701198	-0.408290	0.658809
H213	H	1.145848	-0.908435	0.103366
H214	H	1.645848	-0.408435	0.603366
H215	H	0.364736	-0.384085	0.247759
H216	H	0.864736	0.115915	0.747759
C217	C	0.512685	-0.379106	0.244563
C218	C	1.012685	0.120894	0.744563
C219	C	0.582191	-0.364892	0.235435
C220	C	1.082191	0.135108	0.735435
H221	H	0.488696	-0.333452	0.215238
H222	H	0.988696	0.166548	0.715238
H223	H	0.501125	-0.363827	0.290053
H224	H	1.001125	0.136173	0.790053
H225	H	0.501094	-0.449680	0.234575
H226	H	1.001094	0.050320	0.734575
H227	H	0.593783	-0.294320	0.245428
H228	H	1.093783	0.205680	0.745428
H229	H	0.593755	-0.380164	0.189934
H230	H	1.093755	0.119836	0.689934
C231	C	1.193790	-1.049384	0.110922
C232	C	1.693790	-0.549384	0.610922
C233	C	1.155806	-1.120719	0.148897
C234	C	1.655806	-0.620719	0.648897
H235	H	1.223190	-1.086606	0.081575
H236	H	1.723190	-0.586606	0.581575
H237	H	1.219649	-1.006528	0.140427
H238	H	1.719649	-0.506528	0.640427
H239	H	1.164290	-1.006651	0.085001
H240	H	1.664290	-0.506651	0.585001
H241	H	1.185306	-1.163447	0.174822
H242	H	1.685306	-0.663447	0.674822
H243	H	1.129945	-1.163594	0.119389
H244	H	1.629945	-0.663594	0.619389
H245	H	0.899685	-0.627866	0.712702
H246	H	1.399685	-0.127866	1.212702
H247	H	0.364781	-0.628219	0.404555
H248	H	0.864781	-0.128219	0.904555
C249	C	1.112109	-1.272473	0.192628
C250	C	1.612109	-0.772473	0.692628
C251	C	1.064933	-1.235915	0.239713
C252	C	1.564933	-0.735915	0.739713
H253	H	1.112133	-1.346932	0.192640
H254	H	1.612133	-0.846932	0.692640
H255	H	1.155764	-1.247585	0.204371
H256	H	1.655764	-0.747585	0.704371
H257	H	1.100415	-1.247708	0.148936
H258	H	1.600415	-0.747708	0.648936
H259	H	1.076629	-1.260673	0.283405
H260	H	1.576629	-0.760673	0.783405
H261	H	1.021268	-1.260814	0.227973
H262	H	1.521268	-0.760814	0.727973
C263	C	0.896524	-1.228671	0.407853
C264	C	1.396524	-0.728671	0.907853
C265	C	0.887344	-1.120782	0.416971
C266	C	1.387344	-0.620782	0.916971
H267	H	0.867140	-1.265905	0.437203
H268	H	1.367140	-0.765905	0.937203
H269	H	0.941996	-1.246582	0.417807
H270	H	1.441996	-0.746582	0.917807
H271	H	0.886652	-1.246697	0.362367
H272	H	1.386652	-0.746697	0.862367
H273	H	0.897221	-1.102754	0.462457
H274	H	1.397221	-0.602754	0.962457
H275	H	0.841862	-1.102864	0.407023
H276	H	1.341862	-0.602864	0.907023
C277	C	0.849278	-0.961772	0.454912
C278	C	1.349278	-0.461772	0.954912
C279	C	0.887270	-0.890445	0.416938
C280	C	1.387270	-0.390445	0.916938
H281	H	0.819878	-0.924544	0.484255
H282	H	1.319878	-0.424544	0.984255
H283	H	0.878769	-1.004508	0.480830
H284	H	1.378769	-0.504508	0.980830
H285	H	0.823414	-1.004626	0.425401
H286	H	1.323414	-0.504626	0.925401
H287	H	0.913139	-0.847595	0.446449
H288	H	1.413139	-0.347595	0.946449
H289	H	0.857776	-0.847691	0.391018
H290	H	1.357776	-0.347691	0.891018
C291	C	1.107140	-0.306013	0.620412
C292	C	1.607140	0.193987	1.120412
C293	C	1.069131	-0.365002	0.574445
C294	C	1.569131	0.134998	1.074445
H295	H	1.136517	-0.260421	0.596439
H296	H	1.636517	0.239579	1.096439
H297	H	1.133024	-0.351781	0.647980
H298	H	1.633024	0.148219	1.147980
H299	H	1.077653	-0.265818	0.647983
H300	H	1.577653	0.234182	1.147983
H301	H	1.098617	-0.405204	0.546877
H302	H	1.598617	0.094796	1.046877
H303	H	1.043245	-0.319229	0.546865
H304	H	1.543245	0.180771	1.046865
C305	C	1.030986	-0.297441	0.763456
C306	C	1.530986	0.202559	1.263456
C307	C	1.069146	-0.364935	0.722823
C308	C	1.569146	0.135065	1.222823
H309	H	1.060373	-0.251822	0.787440
H310	H	1.560373	0.248178	1.287440
H311	H	1.005213	-0.337436	0.794615
H312	H	1.505213	0.162564	1.294615
H313	H	1.001500	-0.257277	0.735866
H314	H	1.501500	0.242723	1.235866
H315	H	1.098629	-0.405105	0.750413
H316	H	1.598629	0.094895	1.250413
H317	H	1.094931	-0.324936	0.691660
H318	H	1.594931	0.175064	1.191660
C319	C	1.107185	-0.305883	0.976168
C320	C	1.607185	0.194117	1.476168
C321	C	1.069174	-0.364874	0.930204
C322	C	1.569174	0.135126	1.430204
H323	H	1.136560	-0.260291	0.952193
H324	H	1.636560	0.239709	1.452193
H325	H	1.133071	-0.351649	1.003735
H326	H	1.633071	0.148351	1.503735
H327	H	1.077700	-0.265687	1.003740
H328	H	1.577700	0.234313	1.503740
H329	H	1.098659	-0.405076	0.902636
H330	H	1.598659	0.094924	1.402636
H331	H	1.043286	-0.319102	0.902625
H332	H	1.543286	0.180898	1.402625
H333	H	1.056859	-0.383973	1.068521
H334	H	1.556859	0.116027	1.568521
