data_functionalizedCrystal
_audit_creation_method	'MofGen! by Chris Wilmer'
_symmetry_space_group_name_H-M	'P1'
_symmetry_Int_Tables_number	1
_symmetry_cell_setting	triclinic
loop_
_symmetry_equiv_pos_as_xyz
  x,y,z
_cell_length_a	17.699083
_cell_length_b	19.188930
_cell_length_c	16.176319
_cell_angle_alpha	89.988074
_cell_angle_beta	89.998611
_cell_angle_gamma	83.213899
loop_
_atom_site_label
_atom_site_type_symbol
_atom_site_fract_x
_atom_site_fract_y
_atom_site_fract_z
O1	O	1.003963	0.088294	-0.068640
O2	O	1.337296	0.421628	0.264693
O3	O	1.670629	0.754961	0.598027
O4	O	0.783569	0.099782	-0.068668
O5	O	1.116902	0.433115	0.264665
O6	O	1.450236	0.766448	0.597998
O7	O	0.900126	-0.007610	-0.068637
O8	O	1.233459	0.325723	0.264696
O9	O	1.566792	0.659056	0.598029
O10	O	0.887406	0.195687	-0.068671
O11	O	1.220739	0.529020	0.264662
O12	O	1.554072	0.862353	0.597996
O13	O	0.900110	-0.007617	0.068856
O14	O	1.233443	0.325716	0.402189
O15	O	1.566777	0.659049	0.735523
O16	O	0.783553	0.099775	0.068825
O17	O	1.116886	0.433108	0.402158
O18	O	1.450220	0.766442	0.735492
O19	O	1.003947	0.088288	0.068853
O20	O	1.337280	0.421621	0.402187
O21	O	1.670613	0.754954	0.735520
Cu22	Cu	0.893748	0.094031	0.081393
Cu23	Cu	1.227082	0.427364	0.414727
Cu24	Cu	1.560415	0.760697	0.748060
Cu25	Cu	0.893767	0.094039	-0.081208
Cu26	Cu	1.227101	0.427372	0.252125
Cu27	Cu	1.560434	0.760705	0.585458
O28	O	0.887390	0.195680	0.068822
O29	O	1.220723	0.529013	0.402155
O30	O	1.554056	0.862346	0.735489
C31	C	0.755365	0.099367	0.000075
C32	C	1.088698	0.432700	0.333408
C33	C	1.422031	0.766033	0.666742
C34	C	0.671348	0.098132	0.000065
C35	C	1.004681	0.431465	0.333398
C36	C	1.338015	0.764799	0.666731
C37	C	0.899706	-0.033625	0.000112
C38	C	1.233039	0.299708	0.333445
C39	C	1.566373	0.633041	0.666778
C40	C	0.898469	-0.111131	0.000119
C41	C	1.231803	0.222202	0.333452
C42	C	1.565136	0.555535	0.666785
C43	C	0.622644	0.161169	0.000055
C44	C	0.955977	0.494502	0.333388
C45	C	1.289311	0.827835	0.666721
C46	C	0.543702	0.160004	0.000065
C47	C	0.877036	0.493338	0.333399
C48	C	1.210369	0.826671	0.666732
C49	C	0.513466	0.095802	0.000081
C50	C	0.846799	0.429136	0.333414
C51	C	1.180133	0.762469	0.666747
C52	C	0.562176	0.032761	0.000093
C53	C	0.895510	0.366094	0.333427
C54	C	1.228843	0.699427	0.666760
C55	C	0.641117	0.033926	0.000088
C56	C	0.974450	0.367259	0.333422
C57	C	1.307783	0.700592	0.666755
C58	C	0.243819	0.028060	0.000115
C59	C	0.577153	0.361394	0.333448
C60	C	0.910486	0.694727	0.666781
C61	C	0.164873	0.026900	0.000117
C62	C	0.498206	0.360233	0.333450
C63	C	0.831540	0.693567	0.666784
C64	C	0.146405	0.154139	0.000092
C65	C	0.479739	0.487472	0.333425
C66	C	0.813072	0.820806	0.666758
C67	C	0.225345	0.155304	0.000087
C68	C	0.558679	0.488637	0.333420
C69	C	0.892012	0.821971	0.666753
C70	C	0.274049	0.092263	0.000104
C71	C	0.607382	0.425596	0.333437
C72	C	0.940715	0.758929	0.666770
C73	C	0.359646	0.093526	0.000094
C74	C	0.692980	0.426859	0.333427
C75	C	1.026313	0.760193	0.666760
C76	C	0.427870	0.094538	0.000085
C77	C	0.761203	0.427872	0.333418
C78	C	1.094537	0.761205	0.666752
C79	C	0.966861	-0.155978	0.000131
C80	C	1.300194	0.177355	0.333465
C81	C	1.633528	0.510688	0.666798
C82	C	0.965699	-0.228804	0.000118
C83	C	1.299033	0.104530	0.333451
C84	C	1.632366	0.437863	0.666785
C85	C	0.896142	-0.256778	0.000108
C86	C	1.229475	0.076555	0.333442
C87	C	1.562809	0.409889	0.666775
C88	C	0.827741	-0.211921	0.000091
C89	C	1.161075	0.121412	0.333424
C90	C	1.494408	0.454746	0.666758
C91	C	0.828905	-0.139098	0.000096
C92	C	1.162238	0.194236	0.333430
C93	C	1.495572	0.527569	0.666763
N94	N	0.842968	-0.364845	0.046893
N95	N	1.176302	-0.031512	0.380227
N96	N	1.509635	0.301822	0.713560
N97	N	0.841868	-0.434025	0.046890
N98	N	1.175201	-0.100692	0.380223
N99	N	1.508534	0.232642	0.713557
C100	C	0.892632	-0.476191	0.000091
C101	C	1.225965	-0.142857	0.333425
C102	C	1.559299	0.190476	0.666758
N103	N	0.944550	-0.446565	-0.046694
N104	N	1.277883	-0.113231	0.286639
N105	N	1.611217	0.220102	0.619973
N106	N	0.945653	-0.377379	-0.046687
N107	N	1.278986	-0.044045	0.286646
N108	N	1.612320	0.289288	0.619979
C109	C	0.894873	-0.335742	0.000102
C110	C	1.228206	-0.002409	0.333436
C111	C	1.561539	0.330925	0.666769
C112	C	0.959769	-0.600004	0.000088
C113	C	1.293102	-0.266671	0.333422
C114	C	1.626435	0.066663	0.666755
C115	C	0.958604	-0.672830	0.000070
C116	C	1.291937	-0.339497	0.333403
C117	C	1.625271	-0.006163	0.666737
C118	C	0.820644	-0.655946	0.000051
C119	C	1.153977	-0.322612	0.333385
C120	C	1.487311	0.010721	0.666718
C121	C	0.821811	-0.583121	0.000061
C122	C	1.155144	-0.249788	0.333395
C123	C	1.488477	0.083545	0.666728
C124	C	0.891375	-0.555155	0.000084
C125	C	1.224708	-0.221822	0.333417
C126	C	1.558042	0.111512	0.666751
C127	C	1.032151	0.088703	0.000108
C128	C	1.365484	0.422036	0.333441
C129	C	1.698818	0.755369	0.666775
C130	C	1.116167	0.089938	0.000113
C131	C	1.449501	0.423271	0.333446
C132	C	1.782834	0.756604	0.666779
C133	C	0.887810	0.221695	0.000071
C134	C	1.221143	0.555028	0.333405
C135	C	1.554476	0.888361	0.666738
C136	C	0.889046	0.299201	0.000059
C137	C	1.222379	0.632534	0.333392
C138	C	1.555713	0.965867	0.666726
N139	N	0.893741	0.094025	0.195758
N140	N	1.227074	0.427358	0.529092
N141	N	1.560407	0.760691	0.862425
N142	N	0.893781	0.094039	-0.195574
N143	N	1.227114	0.427373	0.137760
N144	N	1.560448	0.760706	0.471093
C145	C	0.945367	0.046491	0.239036
C146	C	1.278701	0.379824	0.572370
C147	C	1.612034	0.713157	0.905703
C148	C	0.945371	0.046490	0.325584
C149	C	1.278705	0.379823	0.658917
C150	C	1.612038	0.713157	0.992250
C151	C	0.893751	0.094027	0.368851
C152	C	1.227085	0.427360	0.702184
C153	C	1.560418	0.760694	1.035518
C154	C	0.842119	0.141563	0.325567
C155	C	1.175452	0.474896	0.658900
C156	C	1.508786	0.808230	0.992234
C157	C	0.842112	0.141560	0.239022
C158	C	1.175445	0.474893	0.572355
C159	C	1.508779	0.808227	0.905688
C160	C	0.842145	0.141576	0.674595
C161	C	1.175478	0.474909	1.007929
C162	C	1.508811	0.808243	1.341262
C163	C	0.842157	0.141577	0.761147
C164	C	1.175491	0.474910	1.094480
C165	C	1.508824	0.808244	1.427814
C166	C	0.945404	0.046506	0.761157
C167	C	1.278737	0.379840	1.094491
C168	C	1.612071	0.713173	1.427824
C169	C	0.945397	0.046503	0.674612
C170	C	1.278730	0.379836	1.007945
C171	C	1.612064	0.713170	1.341278
C172	C	0.893763	0.094036	0.631335
C173	C	1.227096	0.427370	0.964669
C174	C	1.560429	0.760703	1.298002
C175	C	0.893758	0.094036	0.537491
C176	C	1.227091	0.427369	0.870824
C177	C	1.560425	0.760702	1.204158
C178	C	0.893759	0.094031	0.462694
C179	C	1.227092	0.427365	0.796027
C180	C	1.560425	0.760698	1.129360
H181	H	0.647256	0.213450	0.000042
H182	H	0.980589	0.546783	0.333375
H183	H	1.313922	0.880116	0.666708
H184	H	0.771107	-0.234702	0.000081
H185	H	1.104441	0.098631	0.333415
H186	H	1.437774	0.431964	0.666748
N187	N	0.786452	0.192838	0.627925
N188	N	1.119786	0.526171	0.961258
N189	N	1.453119	0.859505	1.294591
H190	H	0.753755	0.222952	0.668470
H191	H	1.087088	0.556285	1.001803
H192	H	1.420421	0.889619	1.335136
H193	H	0.815311	0.223673	0.591998
H194	H	1.148645	0.557007	0.925331
H195	H	1.481978	0.890340	1.258665
H196	H	0.987405	0.007784	0.203814
H197	H	1.320739	0.341117	0.537147
H198	H	1.654072	0.674450	0.870480
N199	N	1.039472	-0.277180	0.000143
N200	N	1.372805	0.056154	0.333476
N201	N	1.706139	0.389487	0.666809
H202	H	1.042048	-0.307777	0.051113
H203	H	1.375382	0.025556	0.384446
H204	H	1.708715	0.358889	0.717779
H205	H	1.042036	-0.307718	-0.050858
H206	H	1.375369	0.025615	0.282475
H207	H	1.708702	0.358949	0.615808
H208	H	0.800085	0.180266	0.360800
H209	H	1.133419	0.513600	0.694134
H210	H	1.466752	0.846933	1.027467
H211	H	0.987409	0.007784	0.360820
H212	H	1.320742	0.341117	0.694153
H213	H	1.654076	0.674451	1.027487
H214	H	0.800071	0.180266	0.203785
H215	H	1.133405	0.513599	0.537119
H216	H	1.466738	0.846933	0.870452
H217	H	0.504050	0.211335	0.000056
H218	H	0.837383	0.544669	0.333389
H219	H	1.170717	0.878002	0.666723
H220	H	0.249959	0.207584	0.000070
H221	H	0.583292	0.540917	0.333404
H222	H	0.916626	0.874251	0.666737
N223	N	1.001075	-0.004765	0.627944
N224	N	1.334409	0.328568	0.961278
N225	N	1.667742	0.661901	1.294611
H226	H	1.033782	-0.034880	0.668494
H227	H	1.367115	0.298453	1.001828
H228	H	1.700448	0.631787	1.335161
H229	H	0.972201	-0.035599	0.592049
H230	H	1.305534	0.297734	0.925383
H231	H	1.638868	0.631067	1.258716
H232	H	0.987446	0.007800	0.796402
H233	H	1.320779	0.341133	1.129736
H234	H	1.654112	0.674466	1.463069
N235	N	0.786473	0.192844	0.807819
N236	N	1.119807	0.526178	1.141153
N237	N	1.453140	0.859511	1.474486
H238	H	0.795010	0.242392	0.792743
H239	H	1.128343	0.575725	1.126076
H240	H	1.461676	0.909058	1.459410
H241	H	0.732811	0.184795	0.792752
H242	H	1.066145	0.518128	1.126085
H243	H	1.399478	0.851461	1.459418
N244	N	0.093875	0.222137	0.000076
N245	N	0.427209	0.555470	0.333409
N246	N	0.760542	0.888803	0.666742
H247	H	0.039278	0.211660	0.000084
H248	H	0.372611	0.544994	0.333417
H249	H	0.705945	0.878327	0.666751
H250	H	0.103644	0.250123	0.051037
H251	H	0.436978	0.583456	0.384371
H252	H	0.770311	0.916789	0.717704
N253	N	0.132258	-0.042350	0.000135
N254	N	0.465592	0.290984	0.333468
N255	N	0.798925	0.624317	0.666801
H256	H	0.175090	-0.082110	0.000147
H257	H	0.508423	0.251223	0.333480
H258	H	0.841756	0.584557	0.666814
H259	H	0.099906	-0.045600	0.051106
H260	H	0.433240	0.287734	0.384440
H261	H	0.766573	0.621067	0.717773
H262	H	1.023506	-0.133213	0.000147
H263	H	1.356839	0.200120	0.333480
H264	H	1.690172	0.533453	0.666814
N265	N	0.296343	-0.039931	0.000139
N266	N	0.629677	0.293402	0.333472
N267	N	0.963010	0.626736	0.666805
H268	H	0.265208	-0.080777	0.000148
H269	H	0.598541	0.252556	0.333481
H270	H	0.931874	0.585889	0.666814
H271	H	0.329502	-0.042223	-0.050830
H272	H	0.662835	0.291110	0.282504
H273	H	0.996169	0.624444	0.615837
N274	N	0.755137	-0.090721	0.000082
N275	N	1.088470	0.242612	0.333415
N276	N	1.421804	0.575946	0.666749
H277	H	0.710894	-0.119490	0.000071
H278	H	1.044227	0.213843	0.333404
H279	H	1.377561	0.547177	0.666738
H280	H	0.752608	-0.060151	0.051056
H281	H	1.085942	0.273182	0.384389
H282	H	1.419275	0.606516	0.717722
N283	N	1.034794	-0.569833	0.000109
N284	N	1.368127	-0.236500	0.333442
N285	N	1.701460	0.096834	0.666776
H286	H	1.077945	-0.609297	0.000108
H287	H	1.411278	-0.275964	0.333442
H288	H	1.744612	0.057369	0.666775
H289	H	1.038287	-0.539972	-0.050856
H290	H	1.371620	-0.206638	0.282477
H291	H	1.704953	0.126695	0.615810
H292	H	0.537552	-0.019514	0.000118
H293	H	0.870885	0.313819	0.333451
H294	H	1.204218	0.647153	0.666784
H295	H	0.764009	-0.678722	0.000039
H296	H	1.097342	-0.345388	0.333373
H297	H	1.430676	-0.012055	0.666706
N298	N	0.693651	-0.034064	0.000106
N299	N	1.026985	0.299270	0.333439
N300	N	1.360318	0.632603	0.666772
H301	H	0.662520	-0.074913	0.000116
H302	H	0.995853	0.258421	0.333449
H303	H	1.329186	0.591754	0.666782
H304	H	0.726808	-0.036352	-0.050864
H305	H	1.060141	0.296981	0.282469
H306	H	1.393474	0.630314	0.615803
H307	H	1.014299	-0.709345	0.000076
H308	H	1.347633	-0.376011	0.333409
H309	H	1.680966	-0.042678	0.666742
N310	N	0.748045	-0.534745	0.000053
N311	N	1.081378	-0.201411	0.333386
N312	N	1.414711	0.131922	0.666719
H313	H	0.703803	-0.563514	0.000045
H314	H	1.037136	-0.230181	0.333378
H315	H	1.370469	0.103152	0.666712
H316	H	0.745517	-0.504173	0.051025
H317	H	1.078851	-0.170840	0.384358
H318	H	1.412184	0.162494	0.717692
