data_functionalizedCrystal
_audit_creation_method	'MofGen! by Chris Wilmer'
_symmetry_space_group_name_H-M	'P1'
_symmetry_Int_Tables_number	1
_symmetry_cell_setting	triclinic
loop_
_symmetry_equiv_pos_as_xyz
  x,y,z
_cell_length_a	23.532407
_cell_length_b	23.532407
_cell_length_c	22.610064
_cell_angle_alpha	90.000603
_cell_angle_beta	89.997161
_cell_angle_gamma	97.151322
loop_
_atom_site_label
_atom_site_type_symbol
_atom_site_fract_x
_atom_site_fract_y
_atom_site_fract_z
O1	O	0.755263	-0.069127	-0.049117
O2	O	1.005263	0.180873	0.200883
O3	O	1.255263	0.430873	0.450883
O4	O	1.505263	0.680873	0.700883
O5	O	0.589400	-0.079130	-0.049135
O6	O	0.839400	0.170870	0.200865
O7	O	1.089400	0.420870	0.450865
O8	O	1.339400	0.670870	0.700865
O9	O	0.677333	0.008803	-0.049114
O10	O	0.927333	0.258803	0.200886
O11	O	1.177333	0.508803	0.450886
O12	O	1.427333	0.758803	0.700886
O13	O	0.667330	-0.157060	-0.049137
O14	O	0.917330	0.092940	0.200863
O15	O	1.167330	0.342940	0.450863
O16	O	1.417330	0.592940	0.700863
O17	O	0.677318	0.008790	0.049255
O18	O	0.927318	0.258790	0.299255
O19	O	1.177318	0.508790	0.549255
O20	O	1.427318	0.758790	0.799255
O21	O	0.589385	-0.079143	0.049234
O22	O	0.839385	0.170857	0.299234
O23	O	1.089385	0.420857	0.549234
O24	O	1.339385	0.670857	0.799234
O25	O	0.755248	-0.069140	0.049252
O26	O	1.005248	0.180860	0.299252
O27	O	1.255248	0.430860	0.549252
O28	O	1.505248	0.680860	0.799252
Zn29	Zn	0.672314	-0.074144	0.064862
Zn30	Zn	0.922314	0.175856	0.314862
Zn31	Zn	1.172314	0.425856	0.564862
Zn32	Zn	1.422314	0.675856	0.814862
Zn33	Zn	0.672334	-0.074127	-0.064744
Zn34	Zn	0.922334	0.175873	0.185256
Zn35	Zn	1.172334	0.425873	0.435256
Zn36	Zn	1.422334	0.675873	0.685256
O37	O	0.667315	-0.157073	0.049232
O38	O	0.917315	0.092927	0.299232
O39	O	1.167315	0.342927	0.549232
O40	O	1.417315	0.592927	0.799232
C41	C	0.568176	-0.078882	0.000048
C42	C	0.818176	0.171118	0.250048
C43	C	1.068176	0.421118	0.500048
C44	C	1.318176	0.671118	0.750048
C45	C	0.504959	-0.078116	0.000041
C46	C	0.754959	0.171884	0.250041
C47	C	1.004959	0.421884	0.500041
C48	C	1.254959	0.671884	0.750041
C49	C	0.105856	-0.125350	0.000061
C50	C	0.355856	0.124650	0.250061
C51	C	0.605856	0.374650	0.500061
C52	C	0.855856	0.624650	0.750061
C53	C	0.046456	-0.124638	0.000065
C54	C	0.296456	0.125362	0.250065
C55	C	0.546456	0.375362	0.500065
C56	C	0.796456	0.625362	0.750065
O57	O	0.009711	-0.168424	0.000081
O58	O	0.259711	0.081576	0.250081
O59	O	0.509711	0.331576	0.500081
O60	O	0.759711	0.581576	0.750081
N61	N	0.023830	-0.072362	0.000071
N62	N	0.273830	0.177638	0.250071
N63	N	0.523830	0.427638	0.500071
N64	N	0.773830	0.677638	0.750071
C65	C	0.060607	-0.020794	0.000080
C66	C	0.310607	0.229206	0.250080
C67	C	0.560607	0.479206	0.500080
C68	C	0.810607	0.729206	0.750080
O69	O	0.035908	0.023737	0.000086
O70	O	0.285908	0.273737	0.250086
O71	O	0.535908	0.523737	0.500086
O72	O	0.785908	0.773737	0.750086
C73	C	0.120006	-0.021506	0.000080
C74	C	0.370006	0.228494	0.250080
C75	C	0.620006	0.478494	0.500080
C76	C	0.870006	0.728494	0.750080
C77	C	0.142629	-0.073785	0.000068
C78	C	0.392629	0.176215	0.250068
C79	C	0.642629	0.426215	0.500068
C80	C	0.892629	0.676215	0.750068
C81	C	0.128479	-0.177625	0.000050
C82	C	0.378479	0.072375	0.250050
C83	C	0.628479	0.322375	0.500050
C84	C	0.878479	0.572375	0.750050
C85	C	0.187876	-0.178336	0.000045
C86	C	0.437876	0.071664	0.250045
C87	C	0.687876	0.321664	0.500045
C88	C	0.937876	0.571664	0.750045
C89	C	0.224649	-0.126772	0.000052
C90	C	0.474649	0.123228	0.250052
C91	C	0.724649	0.373228	0.500052
C92	C	0.974649	0.623228	0.750052
C93	C	0.202025	-0.074497	0.000063
C94	C	0.452025	0.175503	0.250063
C95	C	0.702025	0.425503	0.500063
C96	C	0.952025	0.675503	0.750063
C97	C	0.156783	0.030062	0.000093
C98	C	0.406783	0.280062	0.250093
C99	C	0.656783	0.530062	0.500093
C100	C	0.906783	0.780062	0.750093
C101	C	0.216185	0.029345	0.000094
C102	C	0.466185	0.279345	0.250094
C103	C	0.716185	0.529345	0.500094
C104	C	0.966185	0.779345	0.750094
C105	C	0.238808	-0.022934	0.000082
C106	C	0.488808	0.227066	0.250082
C107	C	0.738808	0.477066	0.500082
C108	C	0.988808	0.727066	0.750082
C109	C	0.298194	-0.023643	0.000065
C110	C	0.548194	0.226357	0.250065
C111	C	0.798194	0.476357	0.500065
C112	C	1.048194	0.726357	0.750065
N113	N	0.320820	-0.075920	0.000059
N114	N	0.570820	0.174080	0.250059
N115	N	0.820820	0.424080	0.500059
N116	N	1.070820	0.674080	0.750059
C117	C	0.284048	-0.127484	0.000052
C118	C	0.534048	0.122516	0.250052
C119	C	0.784048	0.372516	0.500052
C120	C	1.034048	0.622516	0.750052
C121	C	-0.064135	-0.019302	0.000080
C122	C	0.185865	0.230698	0.250080
C123	C	0.435865	0.480698	0.500080
C124	C	0.685865	0.730698	0.750080
C125	C	-0.123533	-0.018589	0.000075
C126	C	0.126467	0.231411	0.250075
C127	C	0.376467	0.481411	0.500075
C128	C	0.626467	0.731411	0.750075
C129	C	-0.137680	-0.122434	0.000061
C130	C	0.112320	0.127566	0.250061
C131	C	0.362320	0.377566	0.500061
C132	C	0.612320	0.627566	0.750061
C133	C	-0.078281	-0.123146	0.000062
C134	C	0.171719	0.126854	0.250062
C135	C	0.421719	0.376854	0.500062
C136	C	0.671719	0.626854	0.750062
C137	C	-0.041509	-0.071578	0.000074
C138	C	0.208491	0.178422	0.250074
C139	C	0.458491	0.428422	0.500074
C140	C	0.708491	0.678422	0.750074
C141	C	0.408784	-0.128974	0.000042
C142	C	0.658784	0.121026	0.250042
C143	C	0.908784	0.371026	0.500042
C144	C	1.158784	0.621026	0.750042
C145	C	0.468186	-0.129680	0.000034
C146	C	0.718186	0.120320	0.250034
C147	C	0.968186	0.370320	0.500034
C148	C	1.218186	0.620320	0.750034
C149	C	0.482329	-0.025836	0.000051
C150	C	0.732329	0.224164	0.250051
C151	C	0.982329	0.474164	0.500051
C152	C	1.232329	0.724164	0.750051
C153	C	0.422932	-0.025129	0.000055
C154	C	0.672932	0.224871	0.250055
C155	C	0.922932	0.474871	0.500055
C156	C	1.172932	0.724871	0.750055
C157	C	0.386160	-0.076702	0.000052
C158	C	0.636160	0.173298	0.250052
C159	C	0.886160	0.423298	0.500052
C160	C	1.136160	0.673298	0.750052
O161	O	0.334974	0.020119	0.000052
O162	O	0.584974	0.270119	0.250052
O163	O	0.834974	0.520119	0.500052
O164	O	1.084974	0.770119	0.750052
O165	O	0.308755	-0.172007	0.000054
O166	O	0.558755	0.077993	0.250054
O167	O	0.808755	0.327993	0.500054
O168	O	1.058755	0.577993	0.750054
C169	C	0.677071	0.030013	0.000072
C170	C	0.927071	0.280013	0.250072
C171	C	1.177071	0.530013	0.500072
C172	C	1.427071	0.780013	0.750072
C173	C	0.676305	0.093230	0.000076
C174	C	0.926305	0.343230	0.250076
C175	C	1.176305	0.593230	0.500076
C176	C	1.426305	0.843230	0.750076
C177	C	0.776472	-0.069388	0.000069
C178	C	1.026472	0.180612	0.250069
C179	C	1.276472	0.430612	0.500069
C180	C	1.526472	0.680612	0.750069
C181	C	0.839689	-0.070154	0.000071
C182	C	1.089689	0.179846	0.250071
C183	C	1.339689	0.429846	0.500071
C184	C	1.589689	0.679846	0.750071
C185	C	0.667577	-0.178283	0.000045
C186	C	0.917577	0.071717	0.250045
C187	C	1.167577	0.321717	0.500045
C188	C	1.417577	0.571717	0.750045
C189	C	0.668343	-0.241500	0.000036
C190	C	0.918343	0.008500	0.250036
C191	C	1.168343	0.258500	0.500036
C192	C	1.418343	0.508500	0.750036
N193	N	0.672304	-0.074155	0.153314
N194	N	0.922304	0.175845	0.403314
N195	N	1.172304	0.425845	0.653314
N196	N	1.422304	0.675845	0.903314
C197	C	0.723539	0.492333	0.000049
C198	C	0.973539	0.742333	0.250049
C199	C	1.223539	0.992333	0.500049
C200	C	1.473539	1.242333	0.750049
C201	C	0.722827	0.551733	0.000044
C202	C	0.972827	0.801733	0.250044
C203	C	1.222827	1.051733	0.500044
C204	C	1.472827	1.301733	0.750044
O205	O	0.766613	0.588478	0.000027
O206	O	1.016613	0.838478	0.250027
O207	O	1.266613	1.088478	0.500027
O208	O	1.516613	1.338478	0.750027
N209	N	0.670551	0.574359	0.000039
N210	N	0.920551	0.824359	0.250039
N211	N	1.170551	1.074359	0.500039
N212	N	1.420551	1.324359	0.750039
C213	C	0.618983	0.537582	0.000032
C214	C	0.868983	0.787582	0.250032
C215	C	1.118983	1.037582	0.500032
C216	C	1.368983	1.287582	0.750032
O217	O	0.574452	0.562281	0.000027
O218	O	0.824452	0.812281	0.250027
O219	O	1.074452	1.062281	0.500027
O220	O	1.324452	1.312281	0.750027
C221	C	0.619695	0.478182	0.000033
C222	C	0.869695	0.728182	0.250033
C223	C	1.119695	0.978182	0.500033
C224	C	1.369695	1.228182	0.750033
C225	C	0.671974	0.455560	0.000044
C226	C	0.921974	0.705560	0.250044
C227	C	1.171974	0.955560	0.500044
C228	C	1.421974	1.205560	0.750044
C229	C	0.775814	0.469710	0.000060
C230	C	1.025814	0.719710	0.250060
C231	C	1.275814	0.969710	0.500060
C232	C	1.525814	1.219710	0.750060
C233	C	0.776525	0.410313	0.000065
C234	C	1.026525	0.660313	0.250065
C235	C	1.276525	0.910313	0.500065
C236	C	1.526525	1.160313	0.750065
C237	C	0.724961	0.373540	0.000060
C238	C	0.974961	0.623540	0.250060
C239	C	1.224961	0.873540	0.500060
C240	C	1.474961	1.123540	0.750060
C241	C	0.672685	0.396164	0.000050
C242	C	0.922685	0.646164	0.250050
C243	C	1.172685	0.896164	0.500050
C244	C	1.422685	1.146164	0.750050
C245	C	0.568127	0.441406	0.000022
C246	C	0.818127	0.691406	0.250022
C247	C	1.068127	0.941406	0.500022
C248	C	1.318127	1.191406	0.750022
C249	C	0.568844	0.382004	0.000021
C250	C	0.818844	0.632004	0.250021
C251	C	1.068844	0.882004	0.500021
C252	C	1.318844	1.132004	0.750021
C253	C	0.621123	0.359381	0.000033
C254	C	0.871123	0.609381	0.250033
C255	C	1.121123	0.859381	0.500033
C256	C	1.371123	1.109381	0.750033
C257	C	0.621832	0.299995	0.000050
C258	C	0.871832	0.549995	0.250050
C259	C	1.121832	0.799995	0.500050
C260	C	1.371832	1.049995	0.750050
N261	N	0.674109	0.277368	0.000056
N262	N	0.924109	0.527368	0.250056
N263	N	1.174109	0.777368	0.500056
N264	N	1.424109	1.027368	0.750056
C265	C	0.725673	0.314141	0.000061
C266	C	0.975673	0.564141	0.250061
C267	C	1.225673	0.814141	0.500061
C268	C	1.475673	1.064141	0.750061
C269	C	0.617491	0.662324	0.000031
C270	C	0.867491	0.912324	0.250031
C271	C	1.117491	1.162324	0.500031
C272	C	1.367491	1.412324	0.750031
C273	C	0.616778	0.721722	0.000034
C274	C	0.866778	0.971722	0.250034
C275	C	1.116778	1.221722	0.500034
C276	C	1.366778	1.471722	0.750034
C277	C	0.720623	0.735869	0.000045
C278	C	0.970623	0.985869	0.250045
C279	C	1.220623	1.235869	0.500045
C280	C	1.470623	1.485869	0.750045
C281	C	0.721335	0.676470	0.000046
C282	C	0.971335	0.926470	0.250046
C283	C	1.221335	1.176470	0.500046
C284	C	1.471335	1.426470	0.750046
C285	C	0.669767	0.639698	0.000036
C286	C	0.919767	0.889698	0.250036
C287	C	1.169767	1.139698	0.500036
C288	C	1.419767	1.389698	0.750036
C289	C	0.727163	0.189405	0.000073
C290	C	0.977163	0.439405	0.250073
C291	C	1.227163	0.689405	0.500073
C292	C	1.477163	0.939405	0.750073
C293	C	0.727869	0.130003	0.000081
C294	C	0.977869	0.380003	0.250081
C295	C	1.227869	0.630003	0.500081
C296	C	1.477869	0.880003	0.750081
C297	C	0.624025	0.115860	0.000067
C298	C	0.874025	0.365860	0.250067
C299	C	1.124025	0.615860	0.500067
C300	C	1.374025	0.865860	0.750067
C301	C	0.623318	0.175257	0.000062
C302	C	0.873318	0.425257	0.250062
C303	C	1.123318	0.675257	0.500062
C304	C	1.373318	0.925257	0.750062
C305	C	0.674891	0.212029	0.000063
C306	C	0.924891	0.462029	0.250063
C307	C	1.174891	0.712029	0.500063
C308	C	1.424891	0.962029	0.750063
O309	O	0.578070	0.263215	0.000065
O310	O	0.828070	0.513215	0.250065
O311	O	1.078070	0.763215	0.500065
O312	O	1.328070	1.013215	0.750065
O313	O	0.770196	0.289433	0.000058
O314	O	1.020196	0.539433	0.250058
O315	O	1.270196	0.789433	0.500058
O316	O	1.520196	1.039433	0.750058
N317	N	0.672349	-0.074111	-0.153196
N318	N	0.922349	0.175889	0.096804
N319	N	1.172349	0.425889	0.346804
N320	N	1.422349	0.675889	0.596804
C321	C	0.711273	-0.035196	0.561965
C322	C	0.961273	0.214804	0.811965
C323	C	1.211273	0.464804	1.061965
C324	C	1.461273	0.714804	1.311965
C325	C	0.711276	-0.035192	0.623884
C326	C	0.961276	0.214808	0.873884
C327	C	1.211276	0.464808	1.123884
C328	C	1.461276	0.714808	1.373884
O329	O	0.744384	-0.002076	0.655911
O330	O	0.994384	0.247924	0.905911
O331	O	1.244384	0.497924	1.155911
O332	O	1.494384	0.747924	1.405911
N333	N	0.672334	-0.074115	0.654851
N334	N	0.922334	0.175885	0.904851
N335	N	1.172334	0.425885	1.154851
N336	N	1.422334	0.675885	1.404851
C337	C	0.633383	-0.113041	0.623895
C338	C	0.883383	0.136959	0.873895
C339	C	1.133383	0.386959	1.123895
C340	C	1.383383	0.636959	1.373895
O341	O	0.600259	-0.146147	0.655920
O342	O	0.850259	0.103853	0.905920
O343	O	1.100259	0.353853	1.155920
O344	O	1.350259	0.603853	1.405920
C345	C	0.633377	-0.113042	0.561976
C346	C	0.883377	0.136958	0.811976
C347	C	1.133377	0.386958	1.061976
C348	C	1.383377	0.636958	1.311976
C349	C	0.672326	-0.074120	0.531013
C350	C	0.922326	0.175880	0.781013
C351	C	1.172326	0.425880	1.031013
C352	C	1.422326	0.675880	1.281013
C353	C	0.750218	0.003724	0.531001
C354	C	1.000218	0.253724	0.781001
C355	C	1.250218	0.503724	1.031001
C356	C	1.500218	0.753724	1.281001
C357	C	0.750215	0.003719	0.469085
C358	C	1.000215	0.253719	0.719085
C359	C	1.250215	0.503719	0.969085
C360	C	1.500215	0.753719	1.219085
C361	C	0.711268	-0.035206	0.438133
C362	C	0.961268	0.214794	0.688133
C363	C	1.211268	0.464794	0.938133
C364	C	1.461268	0.714794	1.188133
C365	C	0.672323	-0.074125	0.469097
C366	C	0.922323	0.175875	0.719097
C367	C	1.172323	0.425875	0.969097
C368	C	1.422323	0.675875	1.219097
C369	C	0.594424	-0.151965	0.531021
C370	C	0.844424	0.098035	0.781021
C371	C	1.094424	0.348035	1.031021
C372	C	1.344424	0.598035	1.281021
C373	C	0.594422	-0.151962	0.469098
C374	C	0.844422	0.098038	0.719098
C375	C	1.094422	0.348038	0.969098
C376	C	1.344422	0.598038	1.219098
C377	C	0.633370	-0.113040	0.438134
C378	C	0.883370	0.136960	0.688134
C379	C	1.133370	0.386960	0.938134
C380	C	1.383370	0.636960	1.188134
C381	C	0.633374	-0.113054	0.376229
C382	C	0.883374	0.136946	0.626229
C383	C	1.133374	0.386946	0.876229
C384	C	1.383374	0.636946	1.126229
N385	N	0.672316	-0.074131	0.345262
N386	N	0.922316	0.175869	0.595262
N387	N	1.172316	0.425869	0.845262
N388	N	1.422316	0.675869	1.095262
C389	C	0.711263	-0.035207	0.376214
C390	C	0.961263	0.214793	0.626214
C391	C	1.211263	0.464793	0.876214
C392	C	1.461263	0.714793	1.126214
C393	C	0.633396	-0.113035	0.753928
C394	C	0.883396	0.136965	1.003928
C395	C	1.133396	0.386965	1.253928
C396	C	1.383396	0.636965	1.503928
C397	C	0.633403	-0.113037	0.815846
C398	C	0.883403	0.136963	1.065846
C399	C	1.133403	0.386963	1.315846
C400	C	1.383403	0.636963	1.565846
C401	C	0.711296	-0.035187	0.815831
C402	C	0.961296	0.214813	1.065831
C403	C	1.211296	0.464813	1.315831
C404	C	1.461296	0.714813	1.565831
C405	C	0.711291	-0.035188	0.753913
C406	C	0.961291	0.214812	1.003913
C407	C	1.211291	0.464812	1.253913
C408	C	1.461291	0.714812	1.503913
C409	C	0.672338	-0.074112	0.722962
C410	C	0.922338	0.175888	0.972962
C411	C	1.172338	0.425888	1.222962
C412	C	1.422338	0.675888	1.472962
C413	C	0.711255	-0.035220	0.246187
C414	C	0.961255	0.214780	0.496187
C415	C	1.211255	0.464780	0.746187
C416	C	1.461255	0.714780	0.996187
C417	C	0.711251	-0.035230	0.184266
C418	C	0.961251	0.214770	0.434266
C419	C	1.211251	0.464770	0.684266
C420	C	1.461251	0.714770	0.934266
C421	C	0.633357	-0.113078	0.184286
C422	C	0.883357	0.136922	0.434286
C423	C	1.133357	0.386922	0.684286
C424	C	1.383357	0.636922	0.934286
C425	C	0.633363	-0.113071	0.246202
C426	C	0.883363	0.136929	0.496202
C427	C	1.133363	0.386929	0.746202
C428	C	1.383363	0.636929	0.996202
C429	C	0.672314	-0.074137	0.277151
C430	C	0.922314	0.175863	0.527151
C431	C	1.172314	0.425863	0.777151
C432	C	1.422314	0.675863	1.027151
O433	O	0.600281	-0.146152	0.344163
O434	O	0.850281	0.103848	0.594163
O435	O	1.100281	0.353848	0.844163
O436	O	1.350281	0.603848	1.094163
O437	O	0.744376	-0.002101	0.344182
O438	O	0.994376	0.247899	0.594182
O439	O	1.244376	0.497899	0.844182
O440	O	1.494376	0.747899	1.094182
H441	H	-0.167632	-0.164421	0.000059
H442	H	0.082368	0.085579	0.250059
H443	H	0.332368	0.335579	0.500059
H444	H	0.582368	0.585579	0.750059
H445	H	-0.059867	-0.165717	0.000055
H446	H	0.190133	0.084283	0.250055
H447	H	0.440133	0.334283	0.500055
H448	H	0.690133	0.584283	0.750055
F449	F	0.591915	-0.154502	0.279154
F450	F	0.841915	0.095498	0.529154
F451	F	1.091915	0.345498	0.779154
F452	F	1.341915	0.595498	1.029154
H453	H	0.404512	0.017441	0.000056
H454	H	0.654512	0.267441	0.250056
H455	H	0.904512	0.517441	0.500056
H456	H	1.154512	0.767441	0.750056
F457	F	0.089351	-0.232512	0.000043
F458	F	0.339351	0.017488	0.250043
F459	F	0.589351	0.267488	0.500043
F460	F	0.839351	0.517488	0.750043
H461	H	0.580748	0.193677	0.000069
H462	H	0.830748	0.443677	0.250069
H463	H	1.080748	0.693677	0.500069
H464	H	1.330748	0.943677	0.750069
H465	H	0.206289	-0.220908	0.000035
H466	H	0.456289	0.029092	0.250035
H467	H	0.706289	0.279092	0.500035
H468	H	0.956289	0.529092	0.750035
H469	H	0.601694	-0.144737	0.841052
H470	H	0.851694	0.105263	1.091052
H471	H	1.101694	0.355263	1.341052
H472	H	1.351694	0.605263	1.591052
F473	F	0.552960	-0.193390	0.436162
F474	F	0.802960	0.056610	0.686162
F475	F	1.052960	0.306610	0.936162
F476	F	1.302960	0.556610	1.186162
H477	H	0.601677	-0.144736	0.728731
H478	H	0.851677	0.105264	0.978731
H479	H	1.101677	0.355264	1.228731
H480	H	1.351677	0.605264	1.478731
H481	H	0.743005	-0.003494	0.728706
H482	H	0.993005	0.246506	0.978706
H483	H	1.243005	0.496506	1.228706
H484	H	1.493005	0.746506	1.478706
F485	F	0.521475	0.029040	0.000059
F486	F	0.771475	0.279040	0.250059
F487	F	1.021475	0.529040	0.500059
F488	F	1.271475	0.779040	0.750059
F489	F	0.561135	0.745792	0.000033
F490	F	0.811135	0.995792	0.250033
F491	F	1.061135	1.245792	0.500033
F492	F	1.311135	1.495792	0.750033
H493	H	0.742973	-0.003516	0.271379
H494	H	0.992973	0.246484	0.521379
H495	H	1.242973	0.496484	0.771379
H496	H	1.492973	0.746484	1.021379
F497	F	0.832169	0.386245	0.000064
F498	F	1.082169	0.636245	0.250064
F499	F	1.332169	0.886245	0.500064
F500	F	1.582169	1.136245	0.750064
F501	F	0.783515	0.105930	0.000093
F502	F	1.033515	0.355930	0.250093
F503	F	1.283515	0.605930	0.500093
F504	F	1.533515	0.855930	0.750093
F505	F	0.255318	0.084233	0.000108
F506	F	0.505318	0.334233	0.250108
F507	F	0.755318	0.584233	0.500108
F508	F	1.005318	0.834233	0.750108
H509	H	-0.141947	0.023982	0.000076
H510	H	0.108053	0.273982	0.250076
H511	H	0.358053	0.523982	0.500076
H512	H	0.608053	0.773982	0.750076
F513	F	0.782053	0.228531	0.000074
F514	F	1.032053	0.478531	0.250074
F515	F	1.282053	0.728531	0.500074
F516	F	1.532053	0.978531	0.750074
H517	H	0.781933	0.035423	0.556197
H518	H	1.031933	0.285423	0.806197
H519	H	1.281933	0.535423	1.056197
H520	H	1.531933	0.785423	1.306197
H521	H	0.817806	0.499645	0.000061
H522	H	1.067806	0.749645	0.250061
H523	H	1.317806	0.999645	0.500061
H524	H	1.567806	1.249645	0.750061
H525	H	0.582043	0.085909	0.000065
H526	H	0.832043	0.335909	0.250065
H527	H	1.082043	0.585909	0.500065
H528	H	1.332043	0.835909	0.750065
H529	H	0.601648	-0.144772	0.159075
H530	H	0.851648	0.105228	0.409075
H531	H	1.101648	0.355228	0.659075
H532	H	1.351648	0.605228	0.909075
F533	F	0.132720	0.085706	0.000098
F534	F	0.382720	0.335706	0.250098
F535	F	0.632720	0.585706	0.500098
F536	F	0.882720	0.835706	0.750098
F537	F	0.492259	-0.185326	0.000019
F538	F	0.742259	0.064674	0.250019
F539	F	0.992259	0.314674	0.500019
F540	F	1.242259	0.564674	0.750019
H541	H	-0.034198	0.022693	0.000084
H542	H	0.215802	0.272693	0.250084
H543	H	0.465802	0.522693	0.500084
H544	H	0.715802	0.772693	0.750084
F545	F	0.776978	0.652399	0.000058
F546	F	1.026978	0.902399	0.250058
F547	F	1.276978	1.152399	0.500058
F548	F	1.526978	1.402399	0.750058
H549	H	0.743008	-0.003492	0.841044
H550	H	0.993008	0.246508	1.091044
H551	H	1.243008	0.496508	1.341044
H552	H	1.493008	0.746508	1.591044
H553	H	0.378851	-0.170970	0.000041
H554	H	0.628851	0.079030	0.250041
H555	H	0.878851	0.329030	0.500041
H556	H	1.128851	0.579030	0.750041
F557	F	0.562602	0.623192	0.000025
F558	F	0.812602	0.873192	0.250025
F559	F	1.062602	1.123192	0.500025
F560	F	1.312602	1.373192	0.750025
F561	F	0.775503	0.775016	0.000048
F562	F	1.025503	1.025016	0.250048
F563	F	1.275503	1.275016	0.500048
F564	F	1.525503	1.525016	0.750048
F565	F	0.512483	0.465469	0.000007
F566	F	0.762483	0.715469	0.250007
F567	F	1.012483	0.965469	0.500007
F568	F	1.262483	1.215469	0.750007
H569	H	0.526850	0.352066	0.000013
H570	H	0.776850	0.602066	0.250013
H571	H	1.026850	0.852066	0.500013
H572	H	1.276850	1.102066	0.750013
H573	H	0.742969	-0.003535	0.159057
H574	H	0.992969	0.246465	0.409057
H575	H	1.242969	0.496465	0.659057
H576	H	1.492969	0.746465	0.909057
F577	F	0.552969	-0.193390	0.563963
F578	F	0.802969	0.056610	0.813963
F579	F	1.052969	0.306610	1.063963
F580	F	1.302969	0.556610	1.313963
F581	F	0.791666	0.045147	0.436137
F582	F	1.041666	0.295147	0.686137
F583	F	1.291666	0.545147	0.936137
F584	F	1.541666	0.795147	1.186137
