data_functionalizedCrystal
_audit_creation_method	'MofGen! by Chris Wilmer'
_symmetry_space_group_name_H-M	'P1'
_symmetry_Int_Tables_number	1
_symmetry_cell_setting	triclinic
loop_
_symmetry_equiv_pos_as_xyz
  x,y,z
_cell_length_a	16.109301
_cell_length_b	17.699083
_cell_length_c	14.586319
_cell_angle_alpha	89.995320
_cell_angle_beta	89.999213
_cell_angle_gamma	83.372248
loop_
_atom_site_label
_atom_site_type_symbol
_atom_site_fract_x
_atom_site_fract_y
_atom_site_fract_z
O1	O	1.102963	0.097285	-0.076184
O2	O	1.602963	0.597285	0.423816
O3	O	0.860880	0.109391	-0.076199
O4	O	1.360880	0.609391	0.423801
O5	O	0.988761	-0.006841	-0.076183
O6	O	1.488761	0.493159	0.423817
O7	O	0.975082	0.213517	-0.076200
O8	O	1.475082	0.713517	0.423800
O9	O	0.988752	-0.006843	0.076298
O10	O	1.488752	0.493157	0.576298
O11	O	0.860872	0.109390	0.076282
O12	O	1.360872	0.609390	0.576282
O13	O	1.102954	0.097283	0.076297
O14	O	1.602954	0.597283	0.576297
Cu15	Cu	0.981912	0.103336	0.090212
Cu16	Cu	1.481912	0.603336	0.590212
Cu17	Cu	0.981923	0.103338	-0.090114
Cu18	Cu	1.481923	0.603338	0.409886
O19	O	0.975074	0.213516	0.076281
O20	O	1.475074	0.713516	0.576281
C21	C	0.829902	0.108900	0.000040
C22	C	1.329902	0.608900	0.500040
C23	C	0.737609	0.107430	0.000034
C24	C	1.237609	0.607430	0.500034
C25	C	0.515224	0.172981	0.000040
C26	C	1.015224	0.672981	0.500040
C27	C	0.428506	0.171594	0.000046
C28	C	0.928506	0.671594	0.500046
C29	C	0.448618	0.033688	0.000053
C30	C	0.948618	0.533688	0.500053
C31	C	0.535334	0.035076	0.000053
C32	C	1.035334	0.535076	0.500053
C33	C	0.568635	0.104725	0.000042
C34	C	1.068635	0.604725	0.500042
C35	C	0.395200	0.101949	0.000047
C36	C	0.895200	0.601949	0.500047
C37	C	0.301177	0.100445	0.000054
C38	C	0.801177	0.600445	0.500054
C39	C	0.662664	0.106230	0.000037
C40	C	1.162664	0.606230	0.500037
C41	C	0.988267	-0.035040	0.000057
C42	C	1.488267	0.464960	0.500057
C43	C	0.986796	-0.119060	0.000058
C44	C	1.486796	0.380940	0.500058
C45	C	1.061860	-0.167574	0.000064
C46	C	1.561860	0.332426	0.500064
C47	C	1.060473	-0.246519	0.000055
C48	C	1.560473	0.253481	0.500055
C49	C	0.984022	-0.276949	0.000048
C50	C	1.484022	0.223051	0.500048
C51	C	0.908953	-0.228429	0.000039
C52	C	1.408953	0.271571	0.500039
C53	C	0.910341	-0.149485	0.000041
C54	C	1.410341	0.350515	0.500041
C55	C	0.903356	-0.546800	0.000031
C56	C	1.403356	-0.046800	0.500031
C57	C	0.901974	-0.625750	0.000033
C58	C	1.401974	-0.125750	0.500033
C59	C	1.053488	-0.643834	0.000046
C60	C	1.553488	-0.143834	0.500046
C61	C	1.054876	-0.564890	0.000048
C62	C	1.554876	-0.064890	0.500048
C63	C	0.979807	-0.516377	0.000034
C64	C	1.479807	-0.016377	0.500034
C65	C	0.981312	-0.430776	0.000041
C66	C	1.481312	0.069224	0.500041
C67	C	0.982517	-0.362549	0.000047
C68	C	1.482517	0.137451	0.500047
C69	C	1.133933	0.097774	0.000056
C70	C	1.633933	0.597774	0.500056
C71	C	1.226226	0.099244	0.000055
C72	C	1.726226	0.599244	0.500055
C73	C	0.975568	0.241714	0.000038
C74	C	1.475568	0.741714	0.500038
C75	C	0.977039	0.325734	0.000032
C76	C	1.477039	0.825734	0.500032
N77	N	0.981911	0.103334	0.217044
N78	N	1.481911	0.603334	0.717044
N79	N	0.981931	0.103334	-0.216946
N80	N	1.481931	0.603334	0.283054
C81	C	1.038555	0.051884	0.452057
C82	C	1.538555	0.551884	0.952057
C83	C	1.038558	0.051882	0.548038
C84	C	1.538558	0.551882	1.048038
C85	C	0.925280	0.154787	0.548034
C86	C	1.425280	0.654787	1.048034
C87	C	0.925274	0.154785	0.452054
C88	C	1.425274	0.654785	0.952054
C89	C	0.981917	0.103334	0.404068
C90	C	1.481917	0.603334	0.904068
C91	C	0.981925	0.103334	0.596029
C92	C	1.481925	0.603334	1.096029
C93	C	0.981927	0.103333	0.700096
C94	C	1.481927	0.603333	1.200096
C95	C	0.981914	0.103334	0.299995
C96	C	1.481914	0.603334	0.799995
H97	H	0.421494	-0.023018	0.000067
H98	H	0.921494	0.476982	0.500067
O99	O	0.827726	-0.655347	0.000179
O100	O	1.327726	-0.155347	0.500179
C101	C	0.738240	-0.734026	0.079128
C102	C	1.238240	-0.234026	0.579128
C103	C	0.822339	-0.700544	0.079087
C104	C	1.322339	-0.200544	0.579087
H105	H	0.733864	-0.770588	0.142908
H106	H	1.233864	-0.270588	0.642908
H107	H	0.684790	-0.685823	0.079174
H108	H	1.184790	-0.185823	0.579174
H109	H	0.733830	-0.770500	0.015285
H110	H	1.233830	-0.270500	0.515285
H111	H	0.826830	-0.664079	0.142918
H112	H	1.326830	-0.164079	0.642918
H113	H	0.875748	-0.748783	0.078993
H114	H	1.375748	-0.248783	0.578993
H115	H	0.542334	0.229694	0.000038
H116	H	1.042334	0.729694	0.500038
O117	O	0.376540	0.237849	-0.000084
O118	O	0.876540	0.737849	0.499916
C119	C	0.267001	0.316341	-0.079116
C120	C	0.767001	0.816341	0.420884
C121	C	0.325791	0.241267	-0.079072
C122	C	0.825791	0.741267	0.420928
H123	H	0.225968	0.319136	-0.142980
H124	H	0.725968	0.819136	0.357020
H125	H	0.225843	0.319152	-0.015346
H126	H	0.725843	0.819152	0.484654
H127	H	0.305720	0.366342	-0.079079
H128	H	0.805720	0.866342	0.420921
H129	H	0.287138	0.191224	-0.079141
H130	H	0.787138	0.691224	0.420859
H131	H	0.366952	0.238523	-0.142837
H132	H	0.866952	0.738523	0.357163
H133	H	0.879165	0.196679	0.587113
H134	H	1.379165	0.696679	1.087113
H135	H	1.084675	0.009988	0.412989
H136	H	1.584675	0.509988	0.912989
H137	H	1.114613	-0.683343	0.000052
H138	H	1.614613	-0.183343	0.500052
H139	H	0.879149	0.196682	0.412979
H140	H	1.379149	0.696682	0.912979
H141	H	0.578824	-0.020510	0.000058
H142	H	1.078824	0.479490	0.500058
O143	O	1.136198	-0.138144	0.000028
O144	O	1.636198	0.361856	0.500028
C145	C	1.286338	-0.164423	0.000084
C146	C	1.786338	0.335577	0.500084
C147	C	1.202207	-0.197850	0.000108
C148	C	1.702207	0.302150	0.500108
H149	H	1.339728	-0.212679	0.000168
H150	H	1.839728	0.287321	0.500168
H151	H	1.290834	-0.127939	-0.063744
H152	H	1.790834	0.372061	0.436256
H153	H	1.290731	-0.127893	0.063882
H154	H	1.790731	0.372107	0.563882
H155	H	1.197758	-0.234413	-0.063647
H156	H	1.697758	0.265587	0.436353
H157	H	1.197747	-0.234290	0.063978
H158	H	1.697747	0.265710	0.563978
O159	O	0.830361	-0.499790	0.000071
O160	O	1.330361	0.000210	0.500071
C161	C	0.679928	-0.490190	0.000020
C162	C	1.179928	0.009810	0.500020
C163	C	0.762537	-0.543521	-0.000008
C164	C	1.262537	-0.043521	0.499992
H165	H	0.625071	-0.525526	-0.000064
H166	H	1.125071	-0.025526	0.499936
H167	H	0.676729	-0.452798	0.063849
H168	H	1.176729	0.047202	0.563849
H169	H	0.676831	-0.452758	-0.063777
H170	H	1.176831	0.047242	0.436223
H171	H	0.765689	-0.581001	0.063745
H172	H	1.265689	-0.081001	0.563745
H173	H	0.765701	-0.580861	-0.063880
H174	H	1.265701	-0.080861	0.436120
O175	O	1.133370	-0.293673	-0.000102
O176	O	1.633370	0.206327	0.499898
C177	C	1.219732	-0.393316	-0.079073
C178	C	1.719732	0.106684	0.420927
C179	C	1.137150	-0.339947	-0.079015
C180	C	1.637150	0.160053	0.420985
H181	H	1.222808	-0.430753	-0.142857
H182	H	1.722808	0.069247	0.357143
H183	H	1.274640	-0.358040	-0.079122
H184	H	1.774640	0.141960	0.420878
H185	H	1.222859	-0.430702	-0.015234
H186	H	1.722859	0.069298	0.484766
H187	H	1.133941	-0.302551	-0.142842
H188	H	1.633941	0.197449	0.357158
H189	H	1.082281	-0.375269	-0.078918
H190	H	1.582281	0.124731	0.421082
H191	H	1.084677	0.009985	0.587108
H192	H	1.584677	0.509985	1.087108
H193	H	1.117130	-0.540119	0.000058
H194	H	1.617130	-0.040119	0.500058
H195	H	0.846705	-0.253211	0.000027
H196	H	1.346705	0.246789	0.500027
O197	O	0.837347	-0.102464	0.000076
O198	O	1.337347	0.397536	0.500076
C199	C	0.686914	-0.092853	-0.000001
C200	C	1.186914	0.407147	0.499999
C201	C	0.769518	-0.146190	-0.000012
C202	C	1.269518	0.353810	0.499988
H203	H	0.632053	-0.128184	-0.000091
H204	H	1.132053	0.371816	0.499909
H205	H	0.683710	-0.055457	0.063825
H206	H	1.183710	0.444543	0.563825
H207	H	0.683830	-0.055425	-0.063801
H208	H	1.183830	0.444575	0.436199
H209	H	0.772658	-0.183666	0.063745
H210	H	1.272658	0.316334	0.563745
H211	H	0.772688	-0.183534	-0.063880
H212	H	1.272688	0.316466	0.436120
