data_functionalizedCrystal
_audit_creation_method	'MofGen! by Chris Wilmer'
_symmetry_space_group_name_H-M	'P1'
_symmetry_Int_Tables_number	1
_symmetry_cell_setting	triclinic
loop_
_symmetry_equiv_pos_as_xyz
  x,y,z
_cell_length_a	12.759401
_cell_length_b	21.295417
_cell_length_c	12.759393
_cell_angle_alpha	89.960830
_cell_angle_beta	89.981504
_cell_angle_gamma	90.030668
loop_
_atom_site_label
_atom_site_type_symbol
_atom_site_fract_x
_atom_site_fract_y
_atom_site_fract_z
Zn1	Zn	1.606140	-0.250569	-0.593926
Zn2	Zn	1.605986	-0.355853	-0.418223
Zn3	Zn	1.430442	-0.250602	-0.418265
Zn4	Zn	1.430382	-0.355805	-0.593864
O5	O	1.518237	-0.303208	-0.506069
O6	O	1.753141	-0.264542	-0.570626
O7	O	1.582660	-0.341926	-0.271207
O8	O	1.453838	-0.162509	-0.441611
O9	O	1.753027	-0.341894	-0.441538
O10	O	1.582923	-0.162484	-0.570668
O11	O	1.453689	-0.264598	-0.271238
O12	O	1.283413	-0.264551	-0.441551
O13	O	1.453736	-0.341811	-0.740893
O14	O	1.283369	-0.341843	-0.570562
O15	O	1.582865	-0.264495	-0.740939
O16	O	1.582602	-0.443936	-0.441478
O17	O	1.453587	-0.443901	-0.570521
C18	C	1.245270	-0.303196	-0.506055
C19	C	1.128493	-0.303206	-0.506074
C20	C	1.073636	-0.343516	-0.573139
C21	C	0.963912	-0.343524	-0.573151
C22	C	0.963912	-0.262910	-0.439022
C23	C	1.073635	-0.262899	-0.439017
C24	C	1.128495	-0.383823	-0.640196
C25	C	1.073637	-0.424137	-0.707266
C26	C	0.963913	-0.424145	-0.707277
C27	C	0.909047	-0.383839	-0.640219
C28	C	1.518100	-0.466759	-0.506011
C29	C	1.518137	-0.536727	-0.506021
C30	C	1.585375	-0.569592	-0.438898
C31	C	1.585424	-0.635334	-0.438921
C32	C	1.518217	-0.668210	-0.506058
C33	C	1.450974	-0.635338	-0.573195
C34	C	1.450934	-0.569596	-0.573177
N35	N	1.426309	-0.771475	-0.514062
N36	N	1.426350	-0.833927	-0.514073
C37	C	1.518334	-0.866284	-0.506118
N38	N	1.610278	-0.833832	-0.498130
N39	N	1.610236	-0.771375	-0.498114
C40	C	1.518253	-0.739495	-0.506085
C41	C	1.585631	-0.970434	-0.439016
C42	C	1.585682	-1.036178	-0.439047
C43	C	1.451223	-1.036180	-0.573315
C44	C	1.451181	-0.970438	-0.573289
C45	C	1.518384	-0.937569	-0.506134
C46	C	1.792271	-0.303220	-0.506084
C47	C	1.909047	-0.303225	-0.506091
C48	C	1.518311	-0.303144	-0.780103
C49	C	1.518342	-0.303117	-0.896880
C50	C	1.518404	-0.139017	-0.506151
C51	C	1.518475	-0.069049	-0.506185
C52	C	1.585589	-0.262855	-0.951767
C53	C	1.585614	-0.262832	-1.061491
C54	C	1.451143	-0.343339	-1.061431
C55	C	1.451113	-0.343358	-0.951709
C56	C	1.652818	-0.222613	-0.896938
C57	C	1.720071	-0.182348	-0.951825
C58	C	1.720096	-0.182325	-1.061549
C59	C	1.652868	-0.222568	-1.116386
C60	C	1.518225	-0.303225	-0.233102
C61	C	1.518397	-0.303075	-0.116326
H62	H	0.919251	-0.456967	-0.761896
H63	H	1.396339	-0.376134	-0.907018
C64	C	1.273303	-1.056487	-0.624349
C65	C	1.377348	-1.072309	-0.647117
H66	H	1.227699	-1.078792	-0.669920
H67	H	1.257979	-1.067310	-0.553758
H68	H	1.263667	-1.012629	-0.633945
H69	H	1.386986	-1.116167	-0.637514
H70	H	1.392677	-1.061490	-0.717725
H71	H	1.396425	-0.943678	-0.627944
C72	C	1.636897	-0.950259	-0.261149
C73	C	1.659504	-0.934299	-0.365209
H74	H	1.682507	-0.927953	-0.215586
H75	H	1.566316	-0.939531	-0.245717
H76	H	1.646553	-0.994117	-0.251570
H77	H	1.649841	-0.890441	-0.374790
H78	H	1.730102	-0.945022	-0.380647
C79	C	0.751948	-0.367839	-0.740250
C80	C	0.788436	-0.383822	-0.640247
H81	H	0.677490	-0.367827	-0.740268
H82	H	0.776839	-0.327239	-0.758525
H83	H	0.776759	-0.397621	-0.789775
H84	H	0.763631	-0.354037	-0.590722
H85	H	0.763534	-0.424428	-0.621959
C86	C	1.391495	-0.379062	-1.229603
C87	C	1.377262	-0.387578	-1.121706
H88	H	1.345889	-0.406379	-1.266811
H89	H	1.376161	-0.336769	-1.247608
H90	H	1.462086	-0.388274	-1.247567
H91	H	1.306672	-0.378362	-1.103741
H92	H	1.392588	-0.429881	-1.103694
H93	H	1.217838	-0.383822	-0.640192
H94	H	0.919231	-0.230095	-0.384426
H95	H	1.652807	-0.222629	-0.807595
C96	C	1.779741	-0.146634	-0.783655
C97	C	1.793959	-0.138112	-0.891553
H98	H	1.825362	-0.119325	-0.746449
H99	H	1.709164	-0.137421	-0.765679
H100	H	1.795073	-0.188935	-0.765659
H101	H	1.778620	-0.095812	-0.909550
H102	H	1.864553	-0.147321	-0.909536
C103	C	1.107362	-0.530764	-0.758114
C104	C	1.133939	-0.468438	-0.780980
H105	H	1.144584	-0.558112	-0.803630
H106	H	1.125315	-0.539922	-0.687504
H107	H	1.034162	-0.536529	-0.767720
H108	H	1.207138	-0.462672	-0.771367
H109	H	1.115992	-0.459277	-0.851608
C110	C	1.062622	-0.183230	-0.306414
C111	C	1.133942	-0.218598	-0.365285
H112	H	1.099857	-0.155884	-0.260889
H113	H	1.019866	-0.159183	-0.352261
H114	H	1.019788	-0.210640	-0.266152
H115	H	1.176772	-0.191188	-0.405553
H116	H	1.176716	-0.242647	-0.319432
C117	C	1.718292	-0.576198	-0.306190
C118	C	1.659258	-0.533463	-0.365097
H119	H	1.763910	-0.553891	-0.260636
H120	H	1.672554	-0.601880	-0.265966
H121	H	1.758461	-0.601799	-0.352019
H122	H	1.619083	-0.507865	-0.319267
H123	H	1.705002	-0.507770	-0.405323
H124	H	1.774848	-0.149535	-1.106236
C125	C	1.726771	-0.709221	-0.424415
C126	C	1.659308	-0.671477	-0.365115
H127	H	1.772378	-0.731531	-0.378844
H128	H	1.686752	-0.738196	-0.464412
H129	H	1.766948	-0.683530	-0.470196
H130	H	1.619124	-0.697168	-0.319340
H131	H	1.699331	-0.642498	-0.325101
H132	H	1.396255	-0.662109	-0.627859
C133	C	1.763644	-1.056267	-0.388063
C134	C	1.659648	-1.072270	-0.365261
H135	H	1.809320	-1.078537	-0.342506
H136	H	1.778974	-1.067009	-0.458659
H137	H	1.773170	-1.012401	-0.378472
H138	H	1.650120	-1.116135	-0.374861
H139	H	1.644313	-1.061532	-0.294649
C140	C	1.318033	-0.576203	-0.705896
C141	C	1.377014	-0.533468	-0.646958
H142	H	1.272393	-0.553897	-0.751439
H143	H	1.363803	-0.601796	-0.746131
H144	H	1.277889	-0.601894	-0.660085
H145	H	1.417165	-0.507781	-0.692769
H146	H	1.331239	-0.507865	-0.606720
H147	H	1.652881	-0.222539	-1.205731
