data_functionalizedCrystal
_audit_creation_method	'MofGen! by Chris Wilmer'
_symmetry_space_group_name_H-M	'P1'
_symmetry_Int_Tables_number	1
_symmetry_cell_setting	triclinic
loop_
_symmetry_equiv_pos_as_xyz
  x,y,z
_cell_length_a	10.540539
_cell_length_b	16.109318
_cell_length_c	15.186229
_cell_angle_alpha	90.000224
_cell_angle_beta	89.998389
_cell_angle_gamma	83.997027
loop_
_atom_site_label
_atom_site_type_symbol
_atom_site_fract_x
_atom_site_fract_y
_atom_site_fract_z
O1	O	0.163264	1.104120	-0.073151
O2	O	0.663264	1.604120	0.426849
O3	O	0.183546	0.862184	-0.073168
O4	O	0.683546	1.362184	0.426832
O5	O	-0.011380	0.988672	-0.073158
O6	O	0.488620	1.488672	0.426842
O7	O	0.358189	0.977632	-0.073161
O8	O	0.858189	1.477632	0.426839
O9	O	-0.011383	0.988663	0.073299
O10	O	0.488617	1.488663	0.573299
O11	O	0.183543	0.862175	0.073289
O12	O	0.683543	1.362175	0.573289
O13	O	0.163261	1.104111	0.073306
O14	O	0.663261	1.604111	0.573306
Zn15	Zn	0.173401	0.983142	0.096551
Zn16	Zn	0.673401	1.483142	0.596551
Zn17	Zn	0.173405	0.983153	-0.096413
Zn18	Zn	0.673405	1.483153	0.403587
O19	O	0.358186	0.977624	0.073296
O20	O	0.858186	1.477624	0.573296
C21	C	0.182719	0.831200	0.000058
C22	C	0.682719	1.331200	0.500058
C23	C	0.180244	0.738890	0.000051
C24	C	0.680244	1.238890	0.500051
C25	C	0.172253	0.439772	-0.079767
C26	C	0.672253	0.939772	0.420233
C27	C	0.174570	0.526508	-0.079772
C28	C	0.674570	1.026508	0.420228
C29	C	0.174549	0.526517	0.079903
C30	C	0.674549	1.026517	0.579903
C31	C	0.172224	0.439784	0.079908
C32	C	0.672224	0.939784	0.579908
C33	C	0.171082	0.396413	0.000070
C34	C	0.671082	0.896413	0.500070
C35	C	0.175724	0.569882	0.000060
C36	C	0.675724	1.069882	0.500060
C37	C	0.178236	0.663924	0.000055
C38	C	0.678236	1.163924	0.500055
C39	C	0.168567	0.302365	0.000075
C40	C	0.668567	0.802365	0.500075
C41	C	-0.058673	0.987839	0.000069
C42	C	0.441327	1.487839	0.500069
C43	C	-0.199586	0.985363	0.000064
C44	C	0.300414	1.485363	0.500064
C45	C	-0.381669	0.890454	-0.000272
C46	C	0.118331	1.390454	0.499728
C47	C	-0.235086	0.892964	0.000058
C48	C	0.264914	1.392964	0.500058
C49	C	-0.261875	1.029824	0.083701
C50	C	0.238125	1.529824	0.583701
C51	C	-0.408374	1.026671	0.083772
C52	C	0.091626	1.526671	0.583772
C53	C	-0.408916	1.028559	-0.082778
C54	C	0.091084	1.528559	0.417222
C55	C	-0.261946	1.029411	-0.083883
C56	C	0.238054	1.529411	0.416117
C57	C	0.405479	0.978456	0.000067
C58	C	0.905479	1.478456	0.500067
C59	C	0.546392	0.980933	0.000066
C60	C	1.046392	1.480933	0.500066
C61	C	0.164088	1.135095	0.000078
C62	C	0.664088	1.635095	0.500078
C63	C	0.166562	1.227405	0.000079
C64	C	0.666562	1.727405	0.500079
N65	N	0.173398	0.983141	0.228243
N66	N	0.673398	1.483141	0.728243
N67	N	0.173398	0.983161	-0.228106
N68	N	0.673398	1.483161	0.271894
C69	C	0.087114	1.039169	0.453971
C70	C	0.587114	1.539169	0.953971
C71	C	0.087111	1.039171	0.546160
C72	C	0.587111	1.539171	1.046160
C73	C	0.259686	0.927127	0.546161
C74	C	0.759686	1.427127	1.046161
C75	C	0.259682	0.927121	0.453973
C76	C	0.759682	1.427121	0.953973
C77	C	0.173398	0.983147	0.407880
C78	C	0.673398	1.483147	0.907880
C79	C	0.173399	0.983155	0.592258
C80	C	0.673399	1.483155	1.092258
C81	C	0.173396	0.983158	0.692214
C82	C	0.673396	1.483158	1.192214
C83	C	0.173398	0.983143	0.307918
C84	C	0.673398	1.483143	0.807918
H85	H	-0.191986	0.857980	-0.059897
H86	H	0.308014	1.357980	0.440103
C87	C	0.354592	0.865501	0.596871
C88	C	0.854592	1.365501	1.096871
N89	N	0.426076	0.819083	0.635065
N90	N	0.926076	1.319083	1.135065
H91	H	0.329945	0.881498	0.416443
H92	H	0.829945	1.381498	0.916443
C93	C	-0.230524	1.120423	-0.090697
C94	C	0.269476	1.620423	0.409303
N95	N	-0.206862	1.188977	-0.095821
N96	N	0.293138	1.688977	0.404179
H97	H	0.175522	0.561807	-0.144784
H98	H	0.675522	1.061807	0.355216
C99	C	0.170946	0.392086	0.167739
C100	C	0.670946	0.892086	0.667739
N101	N	0.169984	0.356159	0.233891
N102	N	0.669984	0.856159	0.733891
C103	C	0.175873	0.574228	0.167720
C104	C	0.675873	1.074228	0.667720
N105	N	0.176895	0.610160	0.233866
N106	N	0.676895	1.110160	0.733866
H107	H	0.016854	1.084787	0.416444
H108	H	0.516854	1.584787	0.916444
C109	C	0.170981	0.392069	-0.167591
C110	C	0.670981	0.892069	0.332409
N111	N	0.170017	0.356142	-0.233742
N112	N	0.670017	0.856142	0.266258
H113	H	-0.409751	0.853958	-0.060250
H114	H	0.090249	1.353958	0.439750
C115	C	-0.421743	0.841349	0.080314
C116	C	0.078257	1.341349	0.580314
N117	N	-0.451917	0.804369	0.141018
N118	N	0.048083	1.304369	0.641018
H119	H	-0.192832	0.857727	0.060108
H120	H	0.307168	1.357727	0.560108
H121	H	0.016850	1.084788	0.583685
H122	H	0.516850	1.584788	1.083685
H123	H	-0.436110	0.993804	0.146288
H124	H	0.063890	1.493804	0.646288
C125	C	-0.474452	1.116441	0.088917
C126	C	0.025548	1.616441	0.588917
N127	N	-0.524216	1.184055	0.092799
N128	N	-0.024216	1.684055	0.592799
H129	H	-0.457087	1.095298	-0.083335
H130	H	0.042913	1.595298	0.416665
H131	H	-0.240482	1.097679	0.086816
H132	H	0.259518	1.597679	0.586816
C133	C	-0.203746	0.988086	0.167781
C134	C	0.296254	1.488086	0.667781
N135	N	-0.159967	0.956643	0.231108
N136	N	0.340033	1.456643	0.731108
C137	C	-0.206052	0.985504	-0.167474
C138	C	0.293948	1.485504	0.332526
N139	N	-0.163956	0.952425	-0.230433
N140	N	0.336044	1.452425	0.269567
H141	H	-0.440044	0.998658	-0.146169
H142	H	0.059956	1.498658	0.353831
