data_functionalizedCrystal
_audit_creation_method	'MofGen! by Chris Wilmer'
_symmetry_space_group_name_H-M	'P1'
_symmetry_Int_Tables_number	1
_symmetry_cell_setting	triclinic
loop_
_symmetry_equiv_pos_as_xyz
  x,y,z
_cell_length_a	13.897449
_cell_length_b	16.120444
_cell_length_c	13.897441
_cell_angle_alpha	92.867240
_cell_angle_beta	89.981404
_cell_angle_gamma	92.927816
loop_
_atom_site_label
_atom_site_type_symbol
_atom_site_fract_x
_atom_site_fract_y
_atom_site_fract_z
Zn1	Zn	1.455154	-0.331861	-0.564829
Zn2	Zn	1.705154	-0.081861	-0.314829
Zn3	Zn	1.955154	0.168139	-0.064829
Zn4	Zn	2.205154	0.418139	0.185171
Zn5	Zn	1.446849	-0.471291	-0.411701
Zn6	Zn	1.696849	-0.221291	-0.161701
Zn7	Zn	1.946849	0.028709	0.088299
Zn8	Zn	2.196849	0.278709	0.338299
Zn9	Zn	1.293847	-0.331899	-0.403550
Zn10	Zn	1.543847	-0.081899	-0.153550
Zn11	Zn	1.793847	0.168101	0.096450
Zn12	Zn	2.043847	0.418101	0.346450
Zn13	Zn	1.285623	-0.471239	-0.572951
Zn14	Zn	1.535623	-0.221239	-0.322951
Zn15	Zn	1.785623	0.028761	-0.072951
Zn16	Zn	2.035623	0.278761	0.177049
O17	O	1.370368	-0.401573	-0.488258
O18	O	1.620368	-0.151573	-0.238258
O19	O	1.870368	0.098427	0.011742
O20	O	2.120368	0.348427	0.261742
O21	O	1.589033	-0.350363	-0.544529
O22	O	1.839033	-0.100363	-0.294529
O23	O	2.089033	0.149637	-0.044529
O24	O	2.339033	0.399637	0.205471
O25	O	1.426519	-0.452838	-0.275641
O26	O	1.676519	-0.202838	-0.025641
O27	O	1.926519	0.047162	0.224359
O28	O	2.176519	0.297162	0.474359
O29	O	1.322162	-0.215228	-0.418133
O30	O	1.572162	0.034772	-0.168133
O31	O	1.822162	0.284772	0.081867
O32	O	2.072162	0.534772	0.331867
O33	O	1.582932	-0.452802	-0.432027
O34	O	1.832932	-0.202802	-0.182027
O35	O	2.082932	0.047198	0.067973
O36	O	2.332932	0.297198	0.317973
O37	O	1.440673	-0.215200	-0.536624
O38	O	1.690673	0.034800	-0.286624
O39	O	1.940673	0.284800	-0.036624
O40	O	2.190673	0.534800	0.213376
O41	O	1.314109	-0.350427	-0.269651
O42	O	1.564109	-0.100427	-0.019651
O43	O	1.814109	0.149573	0.230349
O44	O	2.064109	0.399573	0.480349
O45	O	1.157774	-0.350376	-0.426009
O46	O	1.407774	-0.100376	-0.176009
O47	O	1.657774	0.149624	0.073991
O48	O	1.907774	0.399624	0.323991
O49	O	1.308145	-0.452713	-0.706853
O50	O	1.558145	-0.202713	-0.456853
O51	O	1.808145	0.047287	-0.206853
O52	O	2.058145	0.297287	0.043147
O53	O	1.151732	-0.452749	-0.550467
O54	O	1.401732	-0.202749	-0.300467
O55	O	1.651732	0.047251	-0.050467
O56	O	1.901732	0.297251	0.199533
O57	O	1.432699	-0.350313	-0.700886
O58	O	1.682699	-0.100313	-0.450886
O59	O	1.932699	0.149687	-0.200886
O60	O	2.182699	0.399687	0.049114
O61	O	1.418544	-0.587951	-0.439902
O62	O	1.668544	-0.337951	-0.189902
O63	O	1.918544	-0.087951	0.060098
O64	O	2.168544	0.162049	0.310098
O65	O	1.300092	-0.587912	-0.558371
O66	O	1.550092	-0.337912	-0.308371
O67	O	1.800092	-0.087912	-0.058371
O68	O	2.050092	0.162088	0.191629
C69	C	1.119754	-0.401562	-0.488235
C70	C	1.369754	-0.151562	-0.238235
C71	C	1.619754	0.098438	0.011765
C72	C	1.869754	0.348438	0.261765
C73	C	1.012539	-0.401577	-0.488249
C74	C	1.262539	-0.151577	-0.238249
C75	C	1.512539	0.098423	0.011751
C76	C	1.762539	0.348423	0.261751
C77	C	0.816244	-0.401580	-0.488275
C78	C	1.066244	-0.151580	-0.238275
C79	C	1.316244	0.098420	0.011725
C80	C	1.566244	0.348420	0.261725
C81	C	0.925477	-0.401576	-0.488258
C82	C	1.175477	-0.151576	-0.238258
C83	C	1.425477	0.098424	0.011742
C84	C	1.675477	0.348424	0.261742
C85	C	1.357551	-0.618182	-0.500924
C86	C	1.607551	-0.368182	-0.250924
C87	C	1.857551	-0.118182	-0.000924
C88	C	2.107551	0.131818	0.249076
C89	C	1.352156	-0.710848	-0.506374
C90	C	1.602156	-0.460848	-0.256374
C91	C	1.852156	-0.210848	-0.006374
C92	C	2.102156	0.039152	0.243626
C93	C	1.398590	-0.921789	-0.460189
C94	C	1.648590	-0.671789	-0.210189
C95	C	1.898590	-0.421789	0.039811
C96	C	2.148590	-0.171789	0.289811
C97	C	1.342324	-0.880505	-0.516336
C98	C	1.592324	-0.630505	-0.266336
C99	C	1.842324	-0.380505	-0.016336
C100	C	2.092324	-0.130505	0.233664
C101	C	1.347796	-0.786099	-0.510792
C102	C	1.597796	-0.536099	-0.260792
C103	C	1.847796	-0.286099	-0.010792
C104	C	2.097796	-0.036099	0.239208
C105	C	1.393119	-1.016204	-0.465732
C106	C	1.643119	-0.766204	-0.215732
C107	C	1.893119	-0.516204	0.034268
C108	C	2.143119	-0.266204	0.284268
C109	C	1.621960	-0.401584	-0.488281
C110	C	1.871960	-0.151584	-0.238281
C111	C	2.121960	0.098416	0.011719
C112	C	2.371960	0.348416	0.261719
C113	C	1.729174	-0.401589	-0.488291
C114	C	1.979174	-0.151589	-0.238291
C115	C	2.229174	0.098411	0.011709
C116	C	2.479174	0.348411	0.261709
C117	C	1.370431	-0.401503	-0.739847
C118	C	1.620431	-0.151503	-0.489847
C119	C	1.870431	0.098497	-0.239847
C120	C	2.120431	0.348497	0.010153
C121	C	1.370458	-0.401473	-0.847059
C122	C	1.620458	-0.151473	-0.597059
C123	C	1.870458	0.098527	-0.347059
C124	C	2.120458	0.348527	-0.097059
C125	C	1.383261	-0.184118	-0.475564
C126	C	1.633261	0.065882	-0.225564
C127	C	1.883261	0.315882	0.024436
C128	C	2.133261	0.565882	0.274436
C129	C	1.388755	-0.091452	-0.470154
C130	C	1.638755	0.158548	-0.220154
C131	C	1.888755	0.408548	0.029846
C132	C	2.138755	0.658548	0.279846
C133	C	1.370479	-0.401449	-0.934127
C134	C	1.620479	-0.151449	-0.684127
C135	C	1.870479	0.098551	-0.434127
C136	C	2.120479	0.348551	-0.184127
C137	C	1.370509	-0.401412	-1.043358
C138	C	1.620509	-0.151412	-0.793358
C139	C	1.870509	0.098588	-0.543358
C140	C	2.120509	0.348588	-0.293358
C141	C	1.370364	-0.401582	-0.237644
C142	C	1.620364	-0.151582	0.012356
C143	C	1.870364	0.098418	0.262356
C144	C	2.120364	0.348418	0.512356
C145	C	1.370538	-0.401377	-0.130419
C146	C	1.620538	-0.151377	0.119581
C147	C	1.870538	0.098623	0.369581
C148	C	2.120538	0.348623	0.619581
H149	H	1.450867	-0.886237	-0.407959
H150	H	1.700867	-0.636237	-0.157959
H151	H	1.950867	-0.386237	0.092041
H152	H	2.200867	-0.136237	0.342041
H153	H	1.290043	-0.916061	-0.568569
H154	H	1.540043	-0.666061	-0.318569
H155	H	1.790043	-0.416061	-0.068569
H156	H	2.040043	-0.166061	0.181431
