data_functionalizedCrystal
_audit_creation_method	'MofGen! by Chris Wilmer'
_symmetry_space_group_name_H-M	'P1'
_symmetry_Int_Tables_number	1
_symmetry_cell_setting	triclinic
loop_
_symmetry_equiv_pos_as_xyz
  x,y,z
_cell_length_a	18.215407
_cell_length_b	12.759400
_cell_length_c	18.215399
_cell_angle_alpha	89.973730
_cell_angle_beta	89.985640
_cell_angle_gamma	90.012088
loop_
_atom_site_label
_atom_site_type_symbol
_atom_site_fract_x
_atom_site_fract_y
_atom_site_fract_z
Zn1	Zn	1.125102	-0.418324	-0.416088
Zn2	Zn	1.125039	-0.594029	-0.293031
Zn3	Zn	1.002041	-0.418356	-0.293041
Zn4	Zn	1.002023	-0.593953	-0.416061
O5	O	1.063552	-0.506166	-0.354555
O6	O	1.228078	-0.441649	-0.399772
O7	O	1.108705	-0.570770	-0.190048
O8	O	1.018400	-0.271331	-0.309379
O9	O	1.228032	-0.570739	-0.309362
O10	O	1.108812	-0.271307	-0.399782
O11	O	1.018339	-0.441705	-0.190055
O12	O	0.899055	-0.441632	-0.309353
O13	O	1.018368	-0.570611	-0.519049
O14	O	0.899041	-0.570642	-0.399735
O15	O	1.108794	-0.441576	-0.519069
O16	O	1.108687	-0.741040	-0.309335
O17	O	1.018307	-0.740984	-0.399725
C18	C	0.872345	-0.506133	-0.354542
C19	C	0.790546	-0.506145	-0.354554
C20	C	1.063508	-0.779133	-0.354542
C21	C	1.063557	-0.895910	-0.354561
C22	C	0.602376	-0.439066	-0.401705
C23	C	0.525517	-0.439075	-0.401708
C24	C	0.525479	-0.573294	-0.307418
C25	C	0.602337	-0.573279	-0.307413
C26	C	0.640783	-0.506167	-0.354560
C27	C	0.487067	-0.506191	-0.354568
C28	C	0.403733	-0.506201	-0.354571
C29	C	0.724122	-0.506155	-0.354557
C30	C	1.110614	-0.950669	-0.401674
C31	C	1.110655	-1.060393	-0.401694
C32	C	1.016580	-1.060588	-0.307482
C33	C	1.016536	-0.950866	-0.307467
C34	C	1.136957	-1.210232	-0.488531
C35	C	1.184026	-1.264995	-0.535637
C36	C	1.255813	-1.229292	-0.546993
C37	C	1.280546	-1.138828	-0.511232
C38	C	1.233481	-1.084071	-0.464120
C39	C	1.161684	-1.119772	-0.452778
C40	C	0.990242	-0.801026	-0.220629
C41	C	0.943180	-0.746266	-0.173513
C42	C	0.871392	-0.781967	-0.162150
C43	C	0.846661	-0.872434	-0.197897
C44	C	0.893723	-0.927194	-0.245013
C45	C	0.965510	-0.891486	-0.256378
C46	C	1.255504	-0.506199	-0.354569
C47	C	1.337303	-0.506213	-0.354574
C48	C	1.063586	-0.506082	-0.546508
C49	C	1.063601	-0.506046	-0.628307
C50	C	1.063615	-0.232132	-0.354585
C51	C	1.063642	-0.115356	-0.354597
C52	C	1.016587	-0.438796	-0.816506
C53	C	1.016600	-0.438775	-0.893365
C54	C	1.110703	-0.573170	-0.893346
C55	C	1.110686	-0.573196	-0.816489
C56	C	1.063629	-0.506003	-0.778071
C57	C	1.063659	-0.505956	-0.931787
C58	C	1.063673	-0.505934	-1.015121
C59	C	1.063614	-0.506026	-0.694732
C60	C	1.063559	-0.506173	-0.163349
C61	C	1.063687	-0.505913	-0.081551
H62	H	0.633676	-0.384415	-0.440093
H63	H	0.978298	-1.105347	-0.269138
C64	C	0.483272	-0.365262	-0.453573
N65	N	0.451454	-0.309663	-0.492640
C66	C	1.162301	-0.647308	-0.935613
N67	N	1.201107	-0.703234	-0.967448
C68	C	0.964854	-0.364836	-0.935640
N69	N	0.925878	-0.309140	-0.967481
H70	H	1.294136	-1.273889	-0.585348
H71	H	0.494167	-0.627936	-0.269033
C72	C	0.644587	-0.647099	-0.255547
N73	N	0.676410	-0.702695	-0.216482
C74	C	0.819625	-0.721727	-0.110316
N75	N	0.780634	-0.676356	-0.071279
C76	C	1.162452	-0.647113	-0.774208
N77	N	1.201444	-0.702780	-0.742361
H78	H	0.873581	-1.000858	-0.274121
C79	C	1.162334	-0.890221	-0.453484
N80	N	1.201289	-0.844694	-0.492511
H81	H	1.163881	-1.338651	-0.564753
C82	C	1.260681	-0.984561	-0.424789
N83	N	1.281170	-0.909604	-0.395169
H84	H	1.078500	-1.239303	-0.479296
C85	C	1.359540	-1.099617	-0.523673
N86	N	1.419047	-1.070098	-0.533029
C87	C	0.767689	-0.911707	-0.185399
N88	N	0.708207	-0.941286	-0.175982
C89	C	0.970389	-0.646753	-0.134185
N90	N	0.990882	-0.571801	-0.104563
H91	H	1.048694	-0.771939	-0.229888
H92	H	0.978271	-0.384083	-0.785228
