data_functionalizedCrystal
_audit_creation_method	'MofGen! by Chris Wilmer'
_symmetry_space_group_name_H-M	'P1'
_symmetry_Int_Tables_number	1
_symmetry_cell_setting	triclinic
loop_
_symmetry_equiv_pos_as_xyz
  x,y,z
_cell_length_a	16.956995
_cell_length_b	16.992695
_cell_length_c	16.053948
_cell_angle_alpha	92.712453
_cell_angle_beta	93.030629
_cell_angle_gamma	83.361347
loop_
_atom_site_label
_atom_site_type_symbol
_atom_site_fract_x
_atom_site_fract_y
_atom_site_fract_z
O1	O	1.056931	0.029617	-0.069485
O2	O	0.826521	0.057031	-0.069475
O3	O	0.940802	-0.070759	-0.069473
O4	O	0.942649	0.157406	-0.069487
O5	O	0.947124	-0.065273	0.069382
O6	O	0.832842	0.062517	0.069380
O7	O	1.063252	0.035103	0.069370
Zn8	Zn	0.949051	0.049681	0.091421
Zn9	Zn	0.940722	0.042453	-0.091526
O10	O	0.948970	0.162892	0.069368
C11	C	0.800063	0.061177	-0.000046
C12	C	0.711809	0.065350	-0.000042
C13	C	0.214496	0.096567	-0.000074
C14	C	0.297421	0.092640	-0.000074
C15	C	0.343813	0.018928	-0.000063
C16	C	0.307275	-0.050862	-0.000062
C17	C	0.224351	-0.046935	-0.000069
C18	C	0.592347	-0.000512	-0.000047
C19	C	0.675276	-0.004434	-0.000038
C20	C	0.665417	0.139069	-0.000051
C21	C	0.582492	0.142990	-0.000053
C22	C	0.545961	0.073200	-0.000056
N23	N	0.428576	0.014912	-0.000059
N24	N	0.461200	0.077216	-0.000066
C25	C	0.941587	-0.097074	-0.000046
C26	C	0.934496	-0.183659	-0.000046
C27	C	1.002911	-0.238334	-0.000048
C28	C	0.996243	-0.319688	-0.000056
C29	C	0.921161	-0.346367	-0.000055
C30	C	0.852741	-0.291686	-0.000055
C31	C	0.859409	-0.210333	-0.000054
C32	C	0.893525	-0.588174	-0.000065
C33	C	0.886862	-0.669533	-0.000064
C34	C	1.030365	-0.697531	-0.000066
C35	C	1.037027	-0.616175	-0.000060
C36	C	0.968606	-0.561501	-0.000064
N37	N	0.914344	-0.429524	-0.000060
N38	N	0.975424	-0.478346	-0.000065
C39	C	1.089710	0.030956	-0.000061
C40	C	1.177964	0.026783	-0.000071
C41	C	0.948186	0.189208	-0.000061
C42	C	0.955277	0.275792	-0.000067
N43	N	0.954740	0.054613	0.216278
N44	N	0.935038	0.037514	-0.216383
C45	C	0.905567	0.012072	0.260001
C46	C	0.909568	0.015530	0.347406
C47	C	0.962746	0.061525	0.391086
C48	C	1.011921	0.104071	0.347356
C49	C	1.007916	0.100617	0.259954
C50	C	0.980208	0.076606	0.652485
C51	C	0.984211	0.080055	0.739894
C52	C	0.881857	-0.008485	0.739937
C53	C	0.877860	-0.011939	0.652533
C54	C	0.927032	0.030610	0.608811
N55	N	0.966838	0.065059	0.480427
N56	N	0.922935	0.027080	0.519471
H57	H	0.562614	-0.057340	-0.000047
H58	H	1.020251	0.111249	0.616897
F59	F	1.040816	0.129008	0.786379
F60	F	0.165130	0.175023	-0.000079
F61	F	1.068512	0.153029	0.393846
H62	H	1.051954	-0.364202	-0.000056
F63	F	0.356650	-0.129313	-0.000053
H64	H	0.841822	-0.043125	0.775545
H65	H	0.713047	-0.064463	-0.000033
H66	H	0.834559	-0.049395	0.616974
H67	H	0.194608	-0.103761	-0.000067
H68	H	0.791606	-0.313414	-0.000060
H69	H	1.047956	0.135261	0.224355
F70	F	0.820705	-0.529996	-0.000072
F71	F	0.848974	-0.036890	0.213522
F72	F	0.336298	0.166915	-0.000082
H73	H	0.544725	0.203014	-0.000064
H74	H	1.064051	-0.216619	-0.000043
F75	F	0.704302	0.213339	-0.000053
F76	F	0.786592	-0.152144	-0.000054
H77	H	1.086069	-0.742054	-0.000064
F78	F	1.116939	-0.587789	-0.000081
H79	H	0.825718	-0.691250	-0.000050
H80	H	0.869526	-0.019112	0.383001
