data_functionalizedCrystal
_audit_creation_method	'MofGen! by Chris Wilmer'
_symmetry_space_group_name_H-M	'P1'
_symmetry_Int_Tables_number	1
_symmetry_cell_setting	triclinic
loop_
_symmetry_equiv_pos_as_xyz
  x,y,z
_cell_length_a	17.019372
_cell_length_b	17.019294
_cell_length_c	15.455313
_cell_angle_alpha	88.788101
_cell_angle_beta	91.193254
_cell_angle_gamma	83.656821
loop_
_atom_site_label
_atom_site_type_symbol
_atom_site_fract_x
_atom_site_fract_y
_atom_site_fract_z
O1	O	1.046626	0.100398	-0.001519
O2	O	0.817812	0.112359	-0.019490
O3	O	0.938194	-0.008031	-0.001509
O4	O	0.926244	0.220788	-0.019500
O5	O	0.931310	-0.001175	0.141727
O6	O	0.810928	0.119215	0.123746
O7	O	1.039742	0.107254	0.141717
Cu8	Cu	0.924706	0.113861	0.145810
Cu9	Cu	0.932848	0.105753	-0.023583
O10	O	0.919359	0.227644	0.123736
C11	C	0.785084	0.115199	0.049986
C12	C	0.697823	0.113439	0.043605
C13	C	0.204485	0.103264	0.003541
C14	C	0.286476	0.104919	0.009548
C15	C	0.323710	0.109490	0.090630
C16	C	0.278950	0.112397	0.165710
C17	C	0.196962	0.110737	0.159702
C18	C	0.571075	0.114686	0.112677
C19	C	0.653069	0.116348	0.118679
C20	C	0.660589	0.108869	-0.037484
C21	C	0.578598	0.107213	-0.043485
C22	C	0.533846	0.110117	0.031595
C23	C	0.407517	0.111184	0.096773
C24	C	0.450041	0.108417	0.025452
C25	C	0.934164	-0.033889	0.072252
C26	C	0.932400	-0.121152	0.078636
C27	C	0.935325	-0.165881	0.003557
C28	C	0.933662	-0.247873	0.009558
C29	C	0.929080	-0.285135	0.090638
C30	C	0.926152	-0.240400	0.165721
C31	C	0.927809	-0.158409	0.159720
C32	C	0.923884	-0.532509	0.112665
C33	C	0.922229	-0.614506	0.118662
C34	C	0.929739	-0.621974	-0.037503
C35	C	0.931400	-0.539981	-0.043497
C36	C	0.928468	-0.495252	0.031586
C37	C	0.927383	-0.368945	0.096774
C38	C	0.930159	-0.411444	0.025449
C39	C	1.072470	0.104414	0.072239
C40	C	1.159731	0.106174	0.078615
C41	C	0.923390	0.253502	0.049973
C42	C	0.925155	0.340765	0.043584
N43	N	0.918986	0.119563	0.264952
N44	N	0.938574	0.100044	-0.142725
C45	C	0.970147	0.068436	0.317986
C46	C	0.965828	0.072756	0.408148
C47	C	0.910352	0.128206	0.445276
C48	C	0.859186	0.179336	0.392236
C49	C	0.863501	0.175012	0.302075
C50	C	0.891724	0.146849	0.714074
C51	C	0.887414	0.151171	0.804242
C52	C	0.994055	0.044589	0.820148
C53	C	0.998369	0.040273	0.729985
C54	C	0.947200	0.091400	0.676953
N55	N	0.905937	0.132625	0.537437
N56	N	0.951611	0.086977	0.584794
H57	H	0.548289	0.103490	-0.109510
H58	H	0.174175	0.099548	-0.062486
O59	O	1.021007	0.017615	0.465355
H60	H	1.057309	0.052794	0.506800
H61	H	0.923654	-0.399293	0.162789
O62	O	0.921214	-0.280596	0.253169
H63	H	0.866206	-0.256203	0.284951
O64	O	0.319108	0.117328	0.253164
H65	H	0.294681	0.172324	0.284934
O66	O	0.924664	-0.110164	0.240699
H67	H	0.869028	-0.117238	0.274789
H68	H	1.015324	0.023285	0.287763
H69	H	0.821840	0.216644	0.258896
O70	O	0.917299	-0.654707	0.206115
H71	H	0.862852	-0.685024	0.208073
O72	O	1.058197	-0.019541	0.689939
H73	H	1.093043	-0.054374	0.741964
H74	H	0.933885	-0.381101	-0.040566
H75	H	1.035714	0.002964	0.863335
H76	H	0.437842	0.114907	0.162790
O77	O	0.522879	0.117728	0.193701
H78	H	0.492286	0.063584	0.199188
O79	O	0.827573	0.210975	0.844297
H80	H	0.767105	0.199935	0.823211
O81	O	0.334749	0.101785	-0.071424
H82	H	0.295083	0.098339	-0.128815
O83	O	0.940259	-0.125694	-0.083896
H84	H	0.995258	-0.150103	-0.115685
O85	O	0.708863	0.105731	-0.118456
H86	H	0.669196	0.102279	-0.175846
O87	O	0.693235	0.121267	0.206136
H88	H	0.648344	0.122997	0.257336
H89	H	0.850061	0.188480	0.670902
O90	O	0.799351	0.239149	0.432274
H91	H	0.804951	0.233574	0.503879
O92	O	0.148529	0.113977	0.240561
H93	H	0.169189	0.062610	0.283796
O94	O	0.409894	0.103484	-0.062003
H95	H	0.365846	0.156074	-0.072993
H96	H	0.936048	-0.284289	-0.051578
H97	H	0.932124	-0.658400	-0.098631
O98	O	0.936326	-0.499788	-0.130948
H99	H	0.938071	-0.544665	-0.182150
H100	H	0.921512	-0.496102	0.173805
