data_functionalizedCrystal
_audit_creation_method	'MofGen! by Chris Wilmer'
_symmetry_space_group_name_H-M	'P1'
_symmetry_Int_Tables_number	1
_symmetry_cell_setting	triclinic
loop_
_symmetry_equiv_pos_as_xyz
  x,y,z
_cell_length_a	6.817900
_cell_length_b	19.551136
_cell_length_c	16.255661
_cell_angle_alpha	95.887516
_cell_angle_beta	103.488922
_cell_angle_gamma	101.650842
loop_
_atom_site_label
_atom_site_type_symbol
_atom_site_fract_x
_atom_site_fract_y
_atom_site_fract_z
V1	V	-4.017595	-0.097242	-0.264290
O2	O	-4.014574	0.004092	-0.258830
O3	O	-3.960239	-0.192256	-0.262895
O4	O	-3.969274	-0.096001	-0.379368
O5	O	-4.005477	-0.092829	-0.141551
V6	V	-4.502374	-0.085091	-0.249560
O7	O	-4.276100	-0.123896	-0.296603
O8	O	-4.694066	-0.058437	-0.217247
O9	O	-4.336523	0.009923	-0.250955
O10	O	-4.622792	-0.186425	-0.255019
O11	O	-4.631889	-0.089504	-0.372299
O12	O	-4.327489	-0.086332	-0.134482
C13	C	-3.803059	-0.215410	-0.258832
C14	C	-3.837451	-0.293087	-0.258459
C15	C	-3.814338	-0.319411	-0.180727
C16	C	-3.846724	-0.392395	-0.180350
C17	C	-3.902184	-0.439051	-0.257708
C18	C	-3.925310	-0.412720	-0.335451
C19	C	-3.892944	-0.339738	-0.335826
C20	C	-3.866734	-0.560182	-0.313799
C21	C	-3.899086	-0.633162	-0.313421
C22	C	-4.002025	-0.664153	-0.256554
C23	C	-4.072574	-0.622152	-0.200052
C24	C	-4.040208	-0.549170	-0.200427
C25	C	-3.937286	-0.518189	-0.257310
C26	C	-4.014028	-0.769613	-0.178408
C27	C	-4.046429	-0.842599	-0.178035
C28	C	-4.124996	-0.862923	-0.333138
C29	C	-4.092615	-0.789939	-0.333510
C30	C	-4.037122	-0.743288	-0.256142
C31	C	-3.814582	-0.092627	-0.407404
C32	C	-3.856298	-0.092241	-0.501484
C33	C	-3.767287	-0.087631	-0.724282
C34	C	-3.918125	-0.147126	-0.794015
C35	C	-3.932750	-0.091517	-0.673729
C36	C	-3.856266	-0.031342	-0.771631
C37	C	-4.006584	-0.090815	-0.840110
C38	C	-4.083066	-0.151065	-0.742232
C39	C	-4.021150	-0.035228	-0.719832
C40	C	-4.172123	-0.094740	-0.789546
C41	C	-3.890211	-0.091922	-0.577882
C42	C	-4.049140	-0.090415	-0.935957
C43	C	-4.157045	0.033073	-0.255015
C44	C	-4.101891	0.110749	-0.255394
C45	C	-4.145522	-0.089709	-0.106441
C46	C	-4.083045	-0.090091	-0.012361
H47	H	-3.841632	-0.667354	-0.359427
H48	H	-3.970471	-0.450712	-0.398437
H49	H	-4.156378	-0.647381	-0.153740
Br50	Br	-3.697117	0.052990	-0.793906
H51	H	-3.968842	-0.731628	-0.115411
Br52	Br	-3.924316	-0.304010	-0.441328
Br53	Br	-3.739039	-0.256103	-0.075729
H54	H	-3.782910	-0.534957	-0.360111
H55	H	-4.064180	0.012082	-0.687520
H56	H	-3.827898	-0.413832	-0.117049
H57	H	-4.027617	-0.864029	-0.114734
H58	H	-4.097657	-0.514976	-0.154422
Br59	Br	-3.481479	-0.082747	-0.676787
Br60	Br	-4.200294	-0.926235	-0.438128
H61	H	-4.111422	-0.768506	-0.396807
H62	H	-3.875017	-0.194434	-0.826305
Br63	Br	-4.242197	-0.235488	-0.720157
H64	H	-4.343712	-0.097761	-0.817905
