data_functionalizedCrystal
_audit_creation_method	'MofGen! by Chris Wilmer'
_symmetry_space_group_name_H-M	'P1'
_symmetry_Int_Tables_number	1
_symmetry_cell_setting	triclinic
loop_
_symmetry_equiv_pos_as_xyz
  x,y,z
_cell_length_a	14.908571
_cell_length_b	21.295417
_cell_length_c	21.295420
_cell_angle_alpha	90.005898
_cell_angle_beta	93.308102
_cell_angle_gamma	86.725606
loop_
_atom_site_label
_atom_site_type_symbol
_atom_site_fract_x
_atom_site_fract_y
_atom_site_fract_z
Zn1	Zn	1.379120	-0.306413	0.411339
Zn2	Zn	1.879120	0.193587	0.911339
Zn3	Zn	1.379002	-0.411633	0.306062
Zn4	Zn	1.879002	0.088367	0.806062
Zn5	Zn	1.228264	-0.300300	0.300022
Zn6	Zn	1.728264	0.199700	0.800022
Zn7	Zn	1.228202	-0.405559	0.405233
Zn8	Zn	1.728202	0.094441	0.905233
O9	O	1.303647	-0.355976	0.355664
O10	O	1.803647	0.144024	0.855664
O11	O	1.505348	-0.325470	0.402457
O12	O	2.005348	0.174530	0.902457
O13	O	1.358983	-0.396848	0.217170
O14	O	1.858983	0.103152	0.717170
O15	O	1.248351	-0.213024	0.314816
O16	O	1.748351	0.286976	0.814816
O17	O	1.505261	-0.402775	0.325110
O18	O	2.005261	0.097225	0.825110
O19	O	1.359184	-0.217515	0.396600
O20	O	1.859184	0.282485	0.896600
O21	O	1.248236	-0.315052	0.212733
O22	O	1.748236	0.184948	0.712733
O23	O	1.102012	-0.309163	0.308895
O24	O	1.602012	0.190837	0.808895
O25	O	1.248245	-0.392424	0.494133
O26	O	1.748245	0.107576	0.994133
O27	O	1.101967	-0.386496	0.386194
O28	O	1.601967	0.113504	0.886194
O29	O	1.359124	-0.319581	0.498620
O30	O	1.859124	0.180419	0.998620
O31	O	1.358923	-0.498913	0.319190
O32	O	1.858923	0.001087	0.819190
O33	O	1.248131	-0.494451	0.392050
O34	O	1.748131	0.005549	0.892050
C35	C	1.069256	-0.346508	0.346227
C36	C	1.569256	0.153492	0.846227
C37	C	0.968983	-0.342472	0.342204
C38	C	1.468983	0.157528	0.842204
C39	C	1.303532	-0.519523	0.355627
C40	C	1.803532	-0.019523	0.855627
C41	C	1.303565	-0.589493	0.355636
C42	C	1.803565	-0.089493	0.855636
C43	C	0.780559	-0.415541	0.415028
C44	C	1.280559	0.084459	0.915028
C45	C	0.686343	-0.411751	0.411251
C46	C	1.186343	0.088249	0.911251
C47	C	0.686333	-0.331100	0.330876
C48	C	1.186333	0.168900	0.830876
C49	C	0.780549	-0.334890	0.334654
C50	C	1.280549	0.165110	0.834654
C51	C	0.827659	-0.377112	0.376730
C52	C	1.327659	0.122888	0.876730
C53	C	0.921876	-0.380905	0.380504
C54	C	1.421876	0.119095	0.880504
C55	C	0.921865	-0.300251	0.300133
C56	C	1.421865	0.199749	0.800133
C57	C	0.827649	-0.296461	0.296355
C58	C	1.327649	0.203539	0.796355
C59	C	1.361243	-0.624639	0.398249
C60	C	1.861243	-0.124639	0.898249
C61	C	1.361275	-0.690383	0.398266
C62	C	1.861275	-0.190383	0.898266
C63	C	1.303639	-0.720978	0.355659
C64	C	1.803639	-0.220978	0.855659
C65	C	1.245950	-0.685823	0.313043
C66	C	1.745950	-0.185823	0.813043
C67	C	1.245913	-0.620080	0.313032
C68	C	1.745913	-0.120080	0.813032
N69	N	1.296828	-0.823941	0.300294
N70	N	1.796828	-0.323941	0.800294
N71	N	1.296868	-0.886394	0.300307
N72	N	1.796868	-0.386394	0.800307
C73	C	1.303744	-0.919057	0.355692
C74	C	1.803744	-0.419057	0.855692
N75	N	1.310596	-0.886908	0.411065
N76	N	1.810596	-0.386908	0.911065
N77	N	1.310561	-0.824449	0.411051
N78	N	1.810561	-0.324449	0.911051
C79	C	1.303671	-0.792265	0.355667
C80	C	1.803671	-0.292265	0.855667
C81	C	1.361459	-1.025491	0.398326
C82	C	1.861459	-0.525491	0.898326
C83	C	1.361485	-1.091235	0.398344
C84	C	1.861485	-0.591235	0.898344
C85	C	1.246164	-1.086674	0.313116
C86	C	1.746164	-0.586674	0.813116
C87	C	1.246134	-1.020931	0.313104
C88	C	1.746134	-0.520931	0.813104
C89	C	1.303786	-0.990343	0.355708
C90	C	1.803786	-0.490343	0.855708
C91	C	1.538953	-0.365482	0.365138
C92	C	2.038953	0.134518	0.865138
C93	C	1.639227	-0.369533	0.369176
C94	C	2.139227	0.130467	0.869176
C95	C	1.303691	-0.356007	0.519856
C96	C	1.803691	0.143993	1.019856
C97	C	1.303709	-0.356020	0.589825
C98	C	1.803709	0.143980	1.089825
C99	C	1.303787	-0.191791	0.355715
C100	C	1.803787	0.308209	0.855715
C101	C	1.303847	-0.121826	0.355737
C102	C	1.803847	0.378174	0.855737
C103	C	1.361435	-0.318097	0.625028
C104	C	1.861435	0.181903	1.125028
C105	C	1.361421	-0.318086	0.690770
C106	C	1.861421	0.181914	1.190770
C107	C	1.303692	-0.356009	0.721307
C108	C	1.803692	0.143991	1.221307
C109	C	1.245955	-0.393935	0.686095
C110	C	1.745955	0.106065	1.186095
C111	C	1.245964	-0.393940	0.620354
C112	C	1.745964	0.106060	1.120354
N113	N	1.296713	-0.410822	0.824242
N114	N	1.796713	0.089178	1.324242
N115	N	1.296710	-0.410816	0.886694
N116	N	1.796710	0.089184	1.386694
C117	C	1.303660	-0.355995	0.919380
C118	C	1.803660	0.144005	1.419380
N119	N	1.310631	-0.301181	0.887256
N120	N	1.810631	0.198819	1.387256
N121	N	1.310639	-0.301188	0.824800
N122	N	1.810639	0.198812	1.324800
C123	C	1.303675	-0.356008	0.792591
C124	C	1.803675	0.143992	1.292591
C125	C	1.361373	-0.318057	1.025868
C126	C	1.861373	0.181943	1.525868
C127	C	1.361353	-0.318045	1.091611
C128	C	1.861353	0.181955	1.591611
C129	C	1.245892	-0.393899	1.086935
C130	C	1.745892	0.106101	1.586935
C131	C	1.245907	-0.393906	1.021193
C132	C	1.745907	0.106094	1.521193
C133	C	1.303653	-0.355986	0.990664
C134	C	1.803653	0.144014	1.490664
C135	C	1.303608	-0.355965	1.192111
C136	C	1.803608	0.144035	1.692111
C137	C	1.303622	-0.355968	1.122143
C138	C	1.803622	0.144032	1.622143
H139	H	0.960232	-0.415286	0.414764
H140	H	1.460232	0.084714	0.914764
N141	N	1.183616	-0.434798	1.119861
N142	N	1.683616	0.065202	1.619861
H143	H	1.192367	-0.429040	1.166850
H144	H	1.692367	0.070960	1.666850
H145	H	1.197619	-0.480323	1.108937
H146	H	1.697619	0.019677	1.608937
H147	H	0.818917	-0.449924	0.449286
H148	H	1.318917	0.050076	0.949286
H149	H	0.789279	-0.262083	0.262099
H150	H	1.289279	0.237917	0.762099
N151	N	0.635511	-0.285565	0.285497
N152	N	1.135511	0.214435	0.785497
H153	H	0.679643	-0.261794	0.261806
H154	H	1.179643	0.238206	0.761806
H155	H	0.596455	-0.254906	0.309610
H156	H	1.096455	0.245094	0.809610
N157	N	1.183631	-0.434798	0.983219
N158	N	1.683631	0.065202	1.483219
H159	H	1.147050	-0.458817	1.012537
H160	H	1.647050	0.041183	1.512537
H161	H	1.220314	-0.465418	0.957418
H162	H	1.720314	0.034582	1.457418
N163	N	1.423611	-0.277128	1.129575
N164	N	1.923611	0.222872	1.629575
H165	H	1.488063	-0.289510	1.120745
H166	H	1.988063	0.210490	1.620745
H167	H	1.414768	-0.282886	1.175842
H168	H	1.914768	0.217114	1.675842
H169	H	1.408401	-1.000585	0.433019
H170	H	1.908401	-0.500585	0.933019
H171	H	1.408236	-0.719005	0.432973
H172	H	1.908236	-0.219005	0.932973
N173	N	1.423686	-1.129160	0.444303
N174	N	1.923686	-0.629160	0.944303
H175	H	1.387002	-1.154967	0.471978
H176	H	1.887002	-0.654967	0.971978
H177	H	1.460197	-1.099775	0.471253
H178	H	1.960197	-0.599775	0.971253
H179	H	1.199171	-0.992312	0.278402
H180	H	1.699171	-0.492312	0.778402
N181	N	0.635541	-0.453200	0.452557
N182	N	1.135541	0.046800	0.952557
H183	H	0.679684	-0.480522	0.479783
H184	H	1.179684	0.019478	0.979783
H185	H	0.596422	-0.480715	0.425311
H186	H	1.096422	0.019285	0.925311
N187	N	0.972667	-0.258789	0.258834
N188	N	1.472667	0.241211	0.758834
H189	H	0.928524	-0.231465	0.231609
H190	H	1.428524	0.268535	0.731609
H191	H	1.011730	-0.285929	0.231220
H192	H	1.511730	0.214071	0.731220
N193	N	1.423688	-0.277181	0.728746
N194	N	1.923688	0.222819	1.228746
H195	H	1.488137	-0.289568	0.719913
H196	H	1.988137	0.210432	1.219913
H197	H	1.414844	-0.282949	0.775011
H198	H	1.914844	0.217051	1.275011
H199	H	1.199230	-1.111584	0.278428
H200	H	1.699230	-0.611584	0.778428
H201	H	1.199020	-0.710738	0.278354
H202	H	1.699020	-0.210738	0.778354
N203	N	1.183687	-0.434843	0.719020
N204	N	1.683687	0.065157	1.219020
H205	H	1.119241	-0.422460	0.704970
H206	H	1.619241	0.077540	1.204970
H207	H	1.192513	-0.429074	0.766002
H208	H	1.692513	0.070926	1.266002
H209	H	1.408185	-0.599737	0.432941
H210	H	1.908185	-0.099737	0.932941
H211	H	1.198952	-0.424820	0.591692
H212	H	1.698952	0.075180	1.091692
N213	N	1.183703	-0.582167	0.267068
N214	N	1.683703	-0.082167	0.767068
H215	H	1.147192	-0.611522	0.240079
H216	H	1.647192	-0.111522	0.740079
H217	H	1.220440	-0.556360	0.239432
H218	H	1.720440	-0.056360	0.739432
H219	H	1.408388	-0.287177	1.001010
H220	H	1.908388	0.212823	1.501010
N221	N	1.423713	-0.277198	0.592100
N222	N	1.923713	0.222802	1.092100
H223	H	1.460280	-0.253172	0.624381
H224	H	1.960280	0.246828	1.124381
H225	H	1.387021	-0.246584	0.563340
H226	H	1.887021	0.253416	1.063340
