data_functionalizedCrystal
_audit_creation_method	'MofGen! by Chris Wilmer'
_symmetry_space_group_name_H-M	'P1'
_symmetry_Int_Tables_number	1
_symmetry_cell_setting	triclinic
loop_
_symmetry_equiv_pos_as_xyz
  x,y,z
_cell_length_a	10.268362
_cell_length_b	17.699083
_cell_length_c	17.699083
_cell_angle_alpha	83.283015
_cell_angle_beta	89.993826
_cell_angle_gamma	90.001444
loop_
_atom_site_label
_atom_site_type_symbol
_atom_site_fract_x
_atom_site_fract_y
_atom_site_fract_z
O1	O	0.108120	-1.004076	-0.095712
O2	O	0.441454	-0.670743	0.237622
O3	O	0.774787	-0.337409	0.570955
O4	O	0.108163	-0.783697	-0.108164
O5	O	0.441497	-0.450364	0.225169
O6	O	0.774830	-0.117031	0.558502
O7	O	0.108129	-0.900113	0.008251
O8	O	0.441462	-0.566780	0.341585
O9	O	0.774796	-0.233446	0.674918
O10	O	0.108154	-0.887660	-0.212127
O11	O	0.441488	-0.554327	0.121206
O12	O	0.774821	-0.220994	0.454539
O13	O	-0.108472	-0.900103	0.008256
O14	O	0.224862	-0.566769	0.341589
O15	O	0.558195	-0.233436	0.674923
O16	O	-0.108437	-0.783687	-0.108160
O17	O	0.224896	-0.450354	0.225174
O18	O	0.558229	-0.117021	0.558507
O19	O	-0.108480	-1.004066	-0.095707
O20	O	0.224853	-0.670732	0.237626
O21	O	0.558186	-0.337399	0.570960
Cu22	Cu	-0.128236	-0.893876	-0.101933
Cu23	Cu	0.205097	-0.560542	0.231400
Cu24	Cu	0.538430	-0.227209	0.564734
Cu25	Cu	0.127919	-0.893888	-0.101938
Cu26	Cu	0.461252	-0.560554	0.231395
Cu27	Cu	0.794586	-0.227221	0.564728
O28	O	-0.108446	-0.887650	-0.212122
O29	O	0.224887	-0.554317	0.121211
O30	O	0.558220	-0.220984	0.454544
C31	C	-0.000132	-0.755495	-0.107716
C32	C	0.333202	-0.422162	0.225618
C33	C	0.666535	-0.088829	0.558951
C34	C	-0.000116	-0.671477	-0.106377
C35	C	0.333218	-0.338144	0.226956
C36	C	0.666551	-0.004811	0.560290
N37	N	-0.308402	-0.893873	-0.101928
N38	N	0.024931	-0.560539	0.231405
N39	N	0.358265	-0.227206	0.564738
C40	C	-0.000171	-0.899662	0.036451
C41	C	0.333162	-0.566328	0.369784
C42	C	0.666495	-0.232995	0.703117
C43	C	-0.000172	-0.898323	0.120469
C44	C	0.333162	-0.564990	0.453802
C45	C	0.666495	-0.231656	0.787135
C46	C	-0.574073	-0.893884	-0.101937
C47	C	-0.240739	-0.560550	0.231396
C48	C	0.092594	-0.227217	0.564730
C49	C	-0.426235	-0.893875	-0.101934
C50	C	-0.092901	-0.560542	0.231399
C51	C	0.240432	-0.227209	0.564732
N52	N	0.308085	-0.893896	-0.101937
N53	N	0.641418	-0.560563	0.231396
N54	N	0.974752	-0.227230	0.564730
C55	C	-0.000183	-1.032268	-0.096156
C56	C	0.333151	-0.698934	0.237178
C57	C	0.666484	-0.365601	0.570511
C58	C	-0.000190	-1.116286	-0.097494
C59	C	0.333143	-0.782953	0.235839
C60	C	0.666477	-0.449619	0.569172
C61	C	-0.000108	-0.622856	-0.174710
C62	C	0.333225	-0.289523	0.158623
C63	C	0.666559	0.043810	0.491956
C64	C	-0.000125	-0.543913	-0.173448
C65	C	0.333208	-0.210580	0.159885
C66	C	0.666542	0.122754	0.493218
C67	C	-0.000140	-0.513592	-0.103852
C68	C	0.333193	-0.180259	0.229482
C69	C	0.666526	0.153074	0.562815
C70	C	-0.000152	-0.562219	-0.035513
C71	C	0.333182	-0.228886	0.297820
C72	C	0.666515	0.104447	0.631154
C73	C	-0.000144	-0.641161	-0.036776
C74	C	0.333189	-0.307828	0.296557
C75	C	0.666523	0.025505	0.629891
C76	C	-0.000184	-0.243856	-0.030418
C77	C	0.333149	0.089477	0.302915
C78	C	0.666482	0.422810	0.636249
C79	C	-0.000188	-0.164908	-0.029160
C80	C	0.333145	0.168425	0.304173
C81	C	0.666478	0.501758	0.637507
C82	C	-0.000166	-0.146608	-0.167090
C83	C	0.333168	0.186725	0.166243
C84	C	0.666501	0.520058	0.499577
C85	C	-0.000158	-0.225550	-0.168353
C86	C	0.333175	0.107783	0.164980
C87	C	0.666509	0.441117	0.498314
C88	C	-0.000176	-0.274170	-0.100015
C89	C	0.333157	0.059163	0.233319
C90	C	0.666490	0.392496	0.566652
C91	C	-0.000160	-0.359769	-0.101384
C92	C	0.333173	-0.026436	0.231949
C93	C	0.666506	0.306897	0.565282
C94	C	-0.000147	-0.427995	-0.102481
C95	C	0.333186	-0.094661	0.230852
C96	C	0.666520	0.238672	0.564185
C97	C	-0.000143	-0.888102	-0.240322
C98	C	0.333190	-0.554768	0.093011
C99	C	0.666524	-0.221435	0.426345
C100	C	-0.000134	-0.889440	-0.324340
C101	C	0.333199	-0.556107	0.008993
C102	C	0.666533	-0.222773	0.342327
C103	C	-0.000187	-0.966656	0.169090
C104	C	0.333147	-0.633323	0.502423
C105	C	0.666480	-0.299990	0.835756
C106	C	-0.000175	-0.965394	0.248033
C107	C	0.333158	-0.632061	0.581366
C108	C	0.666492	-0.298727	0.914700
C109	C	-0.000157	-0.895798	0.278354
C110	C	0.333176	-0.562464	0.611687
C111	C	0.666509	-0.229131	0.945020
C112	C	-0.000138	-0.827459	0.229727
C113	C	0.333195	-0.494126	0.563060
C114	C	0.666528	-0.160792	0.896393
C115	C	-0.000141	-0.828722	0.150785
C116	C	0.333193	-0.495389	0.484118
C117	C	0.666526	-0.162055	0.817451
C118	C	-0.000127	-0.822364	0.548090
C119	C	0.333207	-0.489030	0.881423
C120	C	0.666540	-0.155697	1.214756
C121	C	-0.000128	-0.821106	0.627038
C122	C	0.333205	-0.487773	0.960371
C123	C	0.666538	-0.154439	1.293704
C124	C	-0.000161	-0.959036	0.645338
C125	C	0.333172	-0.625703	0.978671
C126	C	0.666506	-0.292369	1.312004
C127	C	-0.000163	-0.960299	0.566396
C128	C	0.333170	-0.626966	0.899729
C129	C	0.666503	-0.293632	1.233063
C130	C	-0.000138	-0.891961	0.517776
C131	C	0.333196	-0.558627	0.851109
C132	C	0.666529	-0.225294	1.184442
C133	C	-0.000148	-0.893330	0.432177
C134	C	0.333186	-0.559997	0.765510
C135	C	0.666519	-0.226664	1.098843
C136	C	-0.000156	-0.894427	0.363951
C137	C	0.333177	-0.561094	0.697285
C138	C	0.666510	-0.227761	1.030618
H139	H	-0.000095	-0.647537	-0.231384
H140	H	0.333239	-0.314204	0.101949
H141	H	0.666572	0.019130	0.435283
C142	C	-0.000196	-0.297328	0.044751
C143	C	0.333138	0.036005	0.378084
C144	C	0.666471	0.369338	0.711418
H145	H	-0.000192	-0.267962	0.086379
H146	H	0.333141	0.065372	0.419712
H147	H	0.666475	0.398705	0.753045
H148	H	-0.075728	-0.328507	0.047130
H149	H	0.257606	0.004827	0.380463
H150	H	0.590939	0.338160	0.713796
H151	H	0.075349	-0.328501	0.047126
H152	H	0.408682	0.004832	0.380459
H153	H	0.742015	0.338166	0.713793
C154	C	-0.000168	-1.034208	0.698822
C155	C	0.333165	-0.700874	1.032155
C156	C	0.666498	-0.367541	1.365489
H157	H	-0.000148	-1.023492	0.750180
H158	H	0.333185	-0.690159	1.083513
H159	H	0.666518	-0.356825	1.416847
H160	H	-0.075708	-1.062749	0.689652
H161	H	0.257625	-0.729415	1.022985
H162	H	0.590959	-0.396082	1.356318
H163	H	0.075368	-1.062753	0.689636
H164	H	0.408702	-0.729420	1.022969
H165	H	0.742035	-0.396086	1.356302
H166	H	-0.000116	-0.764429	0.651721
H167	H	0.333217	-0.431096	0.985054
H168	H	0.666550	-0.097762	1.318388
H169	H	-0.000183	-0.537526	0.021154
H170	H	0.333151	-0.204193	0.354487
H171	H	0.666484	0.129141	0.687820
H172	H	-0.000202	-0.140225	0.027517
H173	H	0.333131	0.193108	0.360850
H174	H	0.666464	0.526442	0.694184
C175	C	-0.000139	-0.694644	0.038390
C176	C	0.333194	-0.361311	0.371724
C177	C	0.666527	-0.027978	0.705057
H178	H	-0.000135	-0.665282	0.080021
H179	H	0.333198	-0.331948	0.413354
H180	H	0.666532	0.001385	0.746688
H181	H	-0.075668	-0.725826	0.040769
H182	H	0.257666	-0.392492	0.374102
H183	H	0.590999	-0.059159	0.707436
H184	H	0.075409	-0.725813	0.040760
H185	H	0.408742	-0.392480	0.374093
H186	H	0.742075	-0.059147	0.707427
H187	H	-0.000106	-0.766718	0.508512
H188	H	0.333227	-0.433385	0.841845
H189	H	0.666561	-0.100052	1.175179
H190	H	-0.000128	-0.773078	0.111198
H191	H	0.333205	-0.439745	0.444531
H192	H	0.666539	-0.106411	0.777864
C193	C	-0.000154	-0.093127	-0.242264
C194	C	0.333179	0.240206	0.091069
C195	C	0.666512	0.573539	0.424403
H196	H	-0.000127	-0.122493	-0.283892
H197	H	0.333206	0.210840	0.049441
H198	H	0.666539	0.544174	0.382774
H199	H	-0.075689	-0.061954	-0.244644
H200	H	0.257645	0.271380	0.088689
H201	H	0.590978	0.604713	0.422023
H202	H	0.075388	-0.061950	-0.244636
H203	H	0.408721	0.271383	0.088697
H204	H	0.742054	0.604717	0.422031
C205	C	-0.000206	-1.043214	0.135744
C206	C	0.333127	-0.709880	0.469077
C207	C	0.666461	-0.376547	0.802410
H208	H	-0.000201	-1.083729	0.176010
H209	H	0.333132	-0.750396	0.509343
H210	H	0.666465	-0.417062	0.842676
H211	H	-0.075740	-1.046572	0.105334
H212	H	0.257593	-0.713239	0.438667
H213	H	0.590927	-0.379906	0.772000
H214	H	0.075336	-1.046576	0.105325
H215	H	0.408670	-0.713243	0.438659
H216	H	0.742003	-0.379909	0.771992
H217	H	-0.000116	-0.770792	0.254420
H218	H	0.333218	-0.437459	0.587753
H219	H	0.666551	-0.104126	0.921087
H220	H	-0.000184	-1.016971	0.541714
H221	H	0.333149	-0.683638	0.875047
H222	H	0.666482	-0.350305	1.208380
C223	C	-0.000113	-0.490433	-0.248615
C224	C	0.333221	-0.157100	0.084718
C225	C	0.666554	0.176234	0.418052
H226	H	-0.000086	-0.519797	-0.290244
H227	H	0.333247	-0.186464	0.043089
H228	H	0.666580	0.146869	0.376422
H229	H	-0.075650	-0.459262	-0.250992
H230	H	0.257684	-0.125928	0.082341
H231	H	0.591017	0.207405	0.415674
H232	H	0.075427	-0.459254	-0.250988
H233	H	0.408760	-0.125920	0.082345
H234	H	0.742093	0.207413	0.415679
C235	C	-0.000147	-0.258899	-0.244909
C236	C	0.333186	0.074434	0.088425
C237	C	0.666520	0.407768	0.421758
H238	H	-0.000158	-0.218635	-0.285426
H239	H	0.333176	0.114698	0.047907
H240	H	0.666509	0.448032	0.381241
H241	H	0.075387	-0.289312	-0.248272
H242	H	0.408720	0.044021	0.085061
H243	H	0.742053	0.377355	0.418394
H244	H	-0.075690	-0.289315	-0.248262
H245	H	0.257644	0.044018	0.085071
H246	H	0.590977	0.377352	0.418405
C247	C	-0.000205	-1.040561	0.301513
C248	C	0.333128	-0.707228	0.634846
C249	C	0.666462	-0.373894	0.968180
H250	H	-0.000235	-1.082190	0.272149
H251	H	0.333098	-0.748857	0.605482
H252	H	0.666432	-0.415524	0.938815
H253	H	0.075327	-1.042947	0.332685
H254	H	0.408660	-0.709613	0.666019
H255	H	0.741994	-0.376280	0.999352
H256	H	-0.075749	-1.042926	0.332691
H257	H	0.257584	-0.709592	0.666025
H258	H	0.590917	-0.376259	0.999358
