data_functionalizedCrystal
_audit_creation_method	'MofGen! by Chris Wilmer'
_symmetry_space_group_name_H-M	'P1'
_symmetry_Int_Tables_number	1
_symmetry_cell_setting	triclinic
loop_
_symmetry_equiv_pos_as_xyz
  x,y,z
_cell_length_a	23.204063
_cell_length_b	23.204065
_cell_length_c	23.204116
_cell_angle_alpha	59.997987
_cell_angle_beta	89.998953
_cell_angle_gamma	60.000253
loop_
_atom_site_label
_atom_site_type_symbol
_atom_site_fract_x
_atom_site_fract_y
_atom_site_fract_z
O1	O	-0.491197	-0.412484	0.017135
O2	O	-0.407392	-0.294473	-0.017070
O3	O	-0.407389	-0.412483	0.100940
O4	O	-0.491200	-0.294474	-0.100875
O5	O	-0.311538	-0.508333	0.100940
O6	O	-0.311541	-0.390323	-0.017071
O7	O	-0.395346	-0.508335	0.017135
Zn8	Zn	-0.338225	-0.464547	0.000032
Zn9	Zn	-0.464513	-0.338260	0.000033
O10	O	-0.395349	-0.390324	-0.100876
C11	C	-0.310652	-0.181456	-0.024838
C12	C	-0.346214	-0.110333	-0.019942
C13	C	-0.241294	-0.215971	-0.025323
C14	C	-0.310655	-0.285810	-0.024846
C15	C	-0.346219	-0.326263	-0.019957
C16	C	-0.241297	-0.320167	-0.025331
C17	C	-0.206293	-0.285815	-0.024838
C18	C	-0.130274	-0.326273	-0.019941
C19	C	-0.345497	-0.215967	-0.025331
C20	C	-0.658540	-0.590043	0.035860
C21	C	-0.734559	-0.549588	0.030967
C22	C	-0.623539	-0.659889	0.036349
C23	C	-0.554183	-0.590040	0.035855
C24	C	-0.518621	-0.549582	0.030958
C25	C	-0.519339	-0.659886	0.036344
C26	C	-0.554182	-0.694402	0.035859
C27	C	-0.518619	-0.765527	0.030967
C28	C	-0.623539	-0.555686	0.036345
C29	C	-0.489889	-0.822989	0.027012
C30	C	-0.795974	-0.516903	0.027013
C31	C	-0.489891	-0.516895	0.027000
C32	C	-0.453845	-0.895077	0.022052
C33	C	-0.873022	-0.475899	0.022054
C34	C	-0.453848	-0.475888	0.022036
C35	C	-0.554187	-0.212776	-0.445775
C36	C	-0.518624	-0.253233	-0.481336
C37	C	-0.623545	-0.142931	-0.480619
C38	C	-0.554188	-0.212775	-0.341416
C39	C	-0.518626	-0.253231	-0.265397
C40	C	-0.623546	-0.142930	-0.376419
C41	C	-0.658547	-0.108416	-0.445777
C42	C	-0.734566	-0.037291	-0.481340
C43	C	-0.519344	-0.247131	-0.376417
C44	C	-0.795982	0.020169	-0.510072
C45	C	-0.489893	-0.285920	-0.510065
C46	C	-0.489896	-0.285917	-0.203980
C47	C	-0.873032	0.092257	-0.546117
C48	C	-0.453848	-0.326925	-0.546108
C49	C	-0.453852	-0.326922	-0.126930
O50	O	0.100922	-0.508345	0.017151
O51	O	-0.100892	-0.390333	-0.017055
O52	O	0.017109	-0.508348	0.100956
O53	O	-0.017080	-0.390330	-0.100860
O54	O	0.017112	-0.412502	0.100963
O55	O	-0.100890	-0.294486	-0.017048
O56	O	0.100924	-0.412499	0.017158
Zn57	Zn	0.000018	-0.338275	0.000056
Zn58	Zn	0.000014	-0.464556	0.000047
O59	O	-0.017077	-0.294483	-0.100853
O60	O	-0.395342	0.083766	0.017156
O61	O	-0.311534	-0.083842	-0.017048
O62	O	-0.311538	-0.083852	0.100962
O63	O	-0.395338	0.083777	-0.100854
O64	O	-0.407391	-0.083849	0.100954
O65	O	-0.407387	-0.083839	-0.017056
O66	O	-0.491195	0.083770	0.017149
Zn67	Zn	-0.464510	-0.000034	0.000045
Zn68	Zn	-0.338219	-0.000039	0.000055
O69	O	-0.491191	0.083780	-0.100861
O70	O	-1.100901	0.281028	-0.592582
O71	O	-0.899087	0.113413	-0.508770
O72	O	-1.017091	0.113409	-0.508767
O73	O	-0.982897	0.281032	-0.592584
O74	O	-1.017088	0.113407	-0.604617
O75	O	-0.899085	0.113411	-0.604619
O76	O	-1.100898	0.281026	-0.688432
Zn77	Zn	-0.999991	0.197218	-0.661744
Zn78	Zn	-0.999994	0.197221	-0.535458
O79	O	-0.982895	0.281030	-0.688434
O80	O	-0.407389	-0.412483	-0.688416
O81	O	-0.491197	-0.294477	-0.604610
O82	O	-0.491195	-0.412486	-0.604605
O83	O	-0.407390	-0.294474	-0.688421
O84	O	-0.395343	-0.508338	-0.508754
O85	O	-0.395345	-0.390329	-0.508759
O86	O	-0.311537	-0.508334	-0.592565
Zn87	Zn	-0.338222	-0.464550	-0.535443
Zn88	Zn	-0.464511	-0.338262	-0.661732
O89	O	-0.311539	-0.390326	-0.592570
C90	C	-0.206294	-0.621360	0.310702
C91	C	-0.130275	-0.692485	0.346265
C92	C	-0.241296	-0.586846	0.345545
C93	C	-0.310654	-0.517001	0.206342
C94	C	-0.346216	-0.476544	0.130323
C95	C	-0.345497	-0.482645	0.241343
C96	C	-0.310653	-0.517001	0.310701
C97	C	-0.346216	-0.476544	0.346263
C98	C	-0.241296	-0.586846	0.241345
C99	C	0.024887	-0.517030	0.310724
C100	C	0.019993	-0.476577	0.346290
C101	C	0.025371	-0.586874	0.345565
C102	C	0.024889	-0.517022	0.206362
C103	C	0.019998	-0.476562	0.130342
C104	C	0.025374	-0.586867	0.241361
C105	C	0.024884	-0.621384	0.310718
C106	C	0.019987	-0.692509	0.346278
C107	C	0.025377	-0.482671	0.241366
C108	C	-0.310656	-0.285855	0.310709
C109	C	-0.346220	-0.326314	0.346266
C110	C	-0.241298	-0.320218	0.345555
C111	C	-0.310655	-0.181484	0.206357
C112	C	-0.346217	-0.110348	0.130340
C113	C	-0.241296	-0.216005	0.241362
C114	C	-0.206295	-0.285860	0.310717
C115	C	-0.130275	-0.326323	0.346282
C116	C	-0.345499	-0.216001	0.241354
C117	C	-0.035774	-0.108410	-0.445754
C118	C	-0.030877	-0.037285	-0.481314
C119	C	-0.036262	-0.142920	-0.480600
C120	C	-0.035780	-0.212771	-0.341397
C121	C	-0.030889	-0.253231	-0.265377
C122	C	-0.036268	-0.247124	-0.376401
C123	C	-0.035777	-0.212765	-0.445759
C124	C	-0.030883	-0.253218	-0.481324
C125	C	-0.036265	-0.142927	-0.376396
C126	C	-0.026928	-0.285901	-0.510056
C127	C	-0.026920	0.020175	-0.510042
C128	C	-0.026936	-0.285920	-0.203961
C129	C	-0.021967	-0.326903	-0.546103
C130	C	-0.021955	0.092262	-0.546083
C131	C	-0.021978	-0.326928	-0.126911
O132	O	-0.017120	-0.390358	0.491266
O133	O	0.017098	-0.508368	0.407461
O134	O	-0.100916	-0.390357	0.407446
O135	O	0.100893	-0.508369	0.491281
O136	O	-0.100904	-0.294507	0.311599
O137	O	0.017110	-0.412518	0.311614
O138	O	-0.017109	-0.294509	0.395420
Zn139	Zn	0.000002	-0.338295	0.338299
Zn140	Zn	-0.000013	-0.464581	0.464581
O141	O	0.100905	-0.412519	0.395435
C142	C	-0.658539	0.410016	-0.445751
C143	C	-0.734559	0.450479	-0.481316
C144	C	-0.623536	0.444375	-0.480590
C145	C	-0.554179	0.305641	-0.341392
C146	C	-0.518616	0.234505	-0.265374
C147	C	-0.519335	0.340158	-0.376388
C148	C	-0.554178	0.410013	-0.445743
C149	C	-0.518614	0.450471	-0.481300
C150	C	-0.623537	0.340162	-0.376396
C151	C	-0.489883	0.483159	-0.510025
C152	C	-0.795975	0.483170	-0.510049
C153	C	-0.489886	0.177036	-0.203959
C154	C	-0.453838	0.524167	-0.546063
C155	C	-0.873025	0.524182	-0.546095
C156	C	-0.453842	0.104937	-0.126912
H157	H	-0.213196	-0.187082	-0.026109
H158	H	-0.037054	-0.303326	-0.348299
O159	O	0.026433	-0.621383	0.207853
C160	C	0.088598	-0.683748	0.150269
C161	C	0.087497	-0.644691	0.188212
H162	H	0.137955	-0.702588	0.134366
H163	H	0.088909	-0.739738	0.187215
H164	H	0.039708	-0.637773	0.101089
H165	H	0.136377	-0.690604	0.237390
H166	H	0.087149	-0.588686	0.151218
O167	O	-0.207839	-0.181434	0.207863
C168	C	-0.207644	-0.061679	0.150301
C169	C	-0.245597	-0.100733	0.188234
H170	H	-0.238164	0.003579	0.134407
H171	H	-0.151967	-0.098316	0.187249
H172	H	-0.204726	-0.061375	0.101115
H173	H	-0.248568	-0.101045	0.237418
H174	H	-0.301253	-0.064085	0.151238
H175	H	-0.037046	-0.114028	-0.537588
O176	O	-0.451324	-0.694491	0.037376
C177	C	-0.331373	-0.814233	0.099605
C178	C	-0.408370	-0.775144	0.098514
H179	H	-0.296620	-0.879441	0.149038
H180	H	-0.328098	-0.814653	0.050781
H181	H	-0.312392	-0.777512	0.099824
H182	H	-0.427400	-0.811833	0.098319
H183	H	-0.411601	-0.774712	0.147335
H184	H	-0.651642	-0.688773	0.037135
O185	O	-0.656959	-0.488700	0.037373
C186	C	-0.657199	-0.430958	0.099591
C187	C	-0.619272	-0.506869	0.098507
H188	H	-0.626753	-0.445626	0.149020
H189	H	-0.660060	-0.378853	0.050763
H190	H	-0.712897	-0.412211	0.099812
H191	H	-0.563557	-0.525690	0.098310
H192	H	-0.616467	-0.558927	0.147331
O193	O	-0.207732	-0.387149	-0.026365
C194	C	-0.150230	-0.444877	-0.088592
C195	C	-0.188214	-0.368972	-0.087500
H196	H	-0.134452	-0.430203	-0.138023
H197	H	-0.100988	-0.496985	-0.039766
H198	H	-0.187181	-0.463624	-0.088817
H199	H	-0.151319	-0.350152	-0.087300
H200	H	-0.237465	-0.316912	-0.136323
H201	H	-0.651638	-0.114039	-0.537611
H202	H	-0.036993	-0.114078	-0.348277
O203	O	-0.451341	0.305574	-0.342770
C204	C	-0.350927	0.197359	-0.235891
C205	C	-0.427918	0.236425	-0.273883
H206	H	-0.331971	0.141456	-0.180184
H207	H	-0.316114	0.178379	-0.266307
H208	H	-0.347715	0.243366	-0.233045
H209	H	-0.431198	0.190462	-0.276738
H210	H	-0.462696	0.255424	-0.243453
O211	O	-0.451321	-0.314099	-0.342950
C212	C	-0.331365	-0.371898	-0.342729
C213	C	-0.408364	-0.295994	-0.380700
H214	H	-0.296615	-0.357293	-0.373242
H215	H	-0.312330	-0.390621	-0.287054
H216	H	-0.328158	-0.423997	-0.339805
H217	H	-0.411630	-0.243844	-0.383676
H218	H	-0.427366	-0.277341	-0.436354
O219	O	-0.656959	-0.108548	-0.342807
C220	C	-0.649171	-0.115005	-0.235932
C221	C	-0.611242	-0.154014	-0.273916
H222	H	-0.612230	-0.151757	-0.180223
H223	H	-0.664994	-0.049779	-0.266350
H224	H	-0.698395	-0.114629	-0.233092
H225	H	-0.561994	-0.154448	-0.276765
H226	H	-0.595472	-0.219219	-0.243485
O227	O	0.026411	-0.415687	0.207804
C228	C	0.088639	-0.357952	0.150309
C229	C	0.087547	-0.433860	0.188290
H230	H	0.138070	-0.372623	0.134534
H231	H	0.039815	-0.305845	0.101063
H232	H	0.088858	-0.339206	0.187260
H233	H	0.087352	-0.452679	0.151394
H234	H	0.136367	-0.485919	0.237544
O235	O	-0.207875	-0.387209	0.413569
C236	C	-0.207634	-0.444968	0.533533
C237	C	-0.245566	-0.369053	0.456537
H238	H	-0.238083	-0.430311	0.568297
H239	H	-0.204759	-0.497077	0.536809
H240	H	-0.151940	-0.463704	0.552502
H241	H	-0.301276	-0.350244	0.437520
H242	H	-0.248384	-0.316992	0.453306
H243	H	-0.213192	-0.615736	0.402533
H244	H	-0.402486	-0.187114	0.213252
H245	H	-0.651638	0.500582	-0.537577
O246	O	-0.657154	0.305783	-0.342986
C247	C	-0.764038	0.312258	-0.350777
C248	C	-0.726046	0.351260	-0.388704
H249	H	-0.819748	0.349018	-0.387718
H250	H	-0.733630	0.247034	-0.334957
H251	H	-0.766872	0.311875	-0.301549
H252	H	-0.723203	0.351701	-0.437956
H253	H	-0.756468	0.416462	-0.404470
O254	O	-0.413513	-0.181522	-0.026365
C255	C	-0.533466	-0.119072	-0.088597
C256	C	-0.456469	-0.158075	-0.087505
H257	H	-0.568220	-0.100088	-0.138030
H258	H	-0.536744	-0.165043	-0.039774
H259	H	-0.552444	-0.063152	-0.088815
H260	H	-0.437442	-0.213987	-0.087311
H261	H	-0.453235	-0.112051	-0.136324
O262	O	-0.413444	-0.415517	0.207720
C263	C	-0.494307	-0.275141	0.108932
C264	C	-0.417342	-0.351115	0.146923
H265	H	-0.497482	-0.223048	0.059778
H266	H	-0.529134	-0.289654	0.093004
H267	H	-0.513279	-0.256462	0.145922
H268	H	-0.398305	-0.369834	0.109972
H269	H	-0.382562	-0.336560	0.162862
H270	H	-0.213184	-0.615720	0.213239
H271	H	0.026144	-0.615754	0.402549
