data_functionalizedCrystal
_audit_creation_method	'MofGen! by Chris Wilmer'
_symmetry_space_group_name_H-M	'P1'
_symmetry_Int_Tables_number	1
_symmetry_cell_setting	triclinic
loop_
_symmetry_equiv_pos_as_xyz
  x,y,z
_cell_length_a	12.759395
_cell_length_b	29.839131
_cell_length_c	12.759387
_cell_angle_alpha	89.962744
_cell_angle_beta	89.979491
_cell_angle_gamma	90.042957
loop_
_atom_site_label
_atom_site_type_symbol
_atom_site_fract_x
_atom_site_fract_y
_atom_site_fract_z
Zn1	Zn	1.606074	-0.178811	-0.593958
Zn2	Zn	1.605882	-0.253949	-0.418259
Zn3	Zn	1.430372	-0.178836	-0.418295
Zn4	Zn	1.430282	-0.253917	-0.593898
O5	O	1.518153	-0.216378	-0.506102
O6	O	1.753069	-0.188782	-0.570661
O7	O	1.582558	-0.244009	-0.271242
O8	O	1.453797	-0.115965	-0.441637
O9	O	1.752929	-0.243985	-0.441575
O10	O	1.582884	-0.115947	-0.570696
O11	O	1.453611	-0.188823	-0.271269
O12	O	1.283339	-0.188792	-0.441579
O13	O	1.453644	-0.243930	-0.740927
O14	O	1.283273	-0.243954	-0.570593
O15	O	1.582797	-0.188751	-0.740971
O16	O	1.582471	-0.316812	-0.441517
O17	O	1.453458	-0.316788	-0.570558
C18	C	1.245185	-0.216373	-0.506084
C19	C	1.128408	-0.216381	-0.506101
C20	C	1.517963	-0.333101	-0.506050
C21	C	1.517978	-0.383035	-0.506063
C22	C	1.128378	-0.273914	-0.640227
C23	C	1.073502	-0.302684	-0.707293
C24	C	0.963781	-0.302690	-0.707306
C25	C	0.908933	-0.273921	-0.640248
C26	C	0.963808	-0.245151	-0.573182
C27	C	1.073532	-0.245150	-0.573174
C28	C	0.963838	-0.187617	-0.439063
C29	C	1.073560	-0.187613	-0.439043
C30	C	0.908990	-0.158848	-0.372005
C31	C	0.963866	-0.130079	-0.304933
C32	C	1.073594	-0.130076	-0.304922
C33	C	1.128436	-0.158843	-0.371978
C34	C	1.585452	-0.692678	-0.439009
C35	C	1.585581	-0.880351	-0.439049
O36	O	1.642799	-0.904616	-0.381997
N37	N	1.518370	-0.903820	-0.506181
C38	C	1.451127	-0.880368	-0.573313
O39	O	1.393971	-0.904636	-0.630421
C40	C	1.451004	-0.692696	-0.573277
C41	C	1.518211	-0.669229	-0.506133
C42	C	1.652655	-0.669211	-0.371871
C43	C	1.652617	-0.622296	-0.371857
C44	C	1.585377	-0.598847	-0.438981
C45	C	1.518174	-0.622314	-0.506119
C46	C	1.383766	-0.669245	-0.640413
C47	C	1.383743	-0.622324	-0.640400
C48	C	1.450951	-0.598857	-0.573256
C49	C	1.450897	-0.551950	-0.573230
N50	N	1.518108	-0.528481	-0.506098
C51	C	1.585348	-0.551929	-0.438974
C52	C	1.451195	-0.978899	-0.573326
C53	C	1.451225	-1.025817	-0.573334
C54	C	1.585680	-1.025796	-0.439071
C55	C	1.585645	-0.978878	-0.439059
C56	C	1.518406	-0.955430	-0.506194
C57	C	1.585264	-0.453404	-0.438949
C58	C	1.585218	-0.406484	-0.438939
C59	C	1.450767	-0.406508	-0.573205
C60	C	1.450808	-0.453424	-0.573212
C61	C	1.518066	-0.476870	-0.506081
O62	O	1.393717	-0.527656	-0.630260
O63	O	1.642512	-0.527653	-0.381890
C64	C	1.585489	-0.739594	-0.439022
C65	C	1.518286	-0.763060	-0.506160
C66	C	1.451045	-0.739611	-0.573284
C67	C	1.518315	-0.809978	-0.506168
C68	C	1.585555	-0.833427	-0.439044
C69	C	1.652766	-0.809958	-0.371912
C70	C	1.652729	-0.763042	-0.371898
C71	C	1.383835	-0.763081	-0.640416
C72	C	1.383876	-0.809996	-0.640423
C73	C	1.451117	-0.833445	-0.573299
C74	C	1.792186	-0.216384	-0.506121
C75	C	1.908963	-0.216387	-0.506129
C76	C	1.518232	-0.216334	-0.780136
C77	C	1.518266	-0.216315	-0.896913
C78	C	1.518372	-0.099200	-0.506177
C79	C	1.518465	-0.049265	-0.506210
C80	C	1.652762	-0.158860	-0.896978
C81	C	1.720025	-0.130126	-0.951872
C82	C	1.720050	-0.130110	-1.061594
C83	C	1.652804	-0.158830	-1.116424
C84	C	1.585541	-0.187564	-1.061531
C85	C	1.585525	-0.187578	-0.951806
C86	C	1.451041	-0.245016	-1.061465
C87	C	1.451019	-0.245035	-0.951743
C88	C	1.383794	-0.273736	-1.116295
C89	C	1.316535	-0.302473	-1.061401
C90	C	1.316513	-0.302489	-0.951673
C91	C	1.383756	-0.273770	-0.896849
C92	C	1.518134	-0.216390	-0.233135
C93	C	1.518304	-0.216282	-0.116359
H94	H	1.118172	-0.326106	-0.761892
O95	O	1.383822	-0.273804	-1.222878
C96	C	1.410743	-0.316855	-1.259502
H97	H	1.392722	-0.342738	-1.196248
H98	H	1.497920	-0.317812	-1.278980
C99	C	1.368867	-0.295835	-1.436334
C100	C	1.346725	-0.327626	-1.358647
H101	H	1.329382	-0.302479	-1.497494
H102	H	1.350733	-0.266830	-1.411661
H103	H	1.441516	-0.296635	-1.452553
H104	H	1.274080	-0.326821	-1.342420
H105	H	1.364845	-0.356631	-1.383320
H106	H	1.707415	-0.688299	-0.317210
O107	O	1.318596	-0.692011	-0.705795
C108	C	1.341497	-0.680486	-0.810514
H109	H	1.425422	-0.667554	-0.815870
H110	H	1.285149	-0.653262	-0.837915
C111	C	1.226180	-0.738023	-0.874075
C112	C	1.329262	-0.722143	-0.880655
H113	H	1.218629	-0.763719	-0.917343
H114	H	1.210748	-0.745787	-0.803524
H115	H	1.179236	-0.715333	-0.896907
H116	H	1.376204	-0.744831	-0.857810
H117	H	1.344702	-0.714384	-0.951204
H118	H	1.652758	-0.158875	-0.807637
O119	O	0.802407	-0.158781	-0.372110
C120	C	0.765821	-0.115739	-0.399264
H121	H	0.829097	-0.097188	-0.445148
H122	H	0.746350	-0.096236	-0.324972
C123	C	0.588969	-0.142911	-0.410942
C124	C	0.666682	-0.120128	-0.467306
H125	H	0.527813	-0.145618	-0.452910
H126	H	0.613616	-0.171910	-0.392644
H127	H	0.572755	-0.126656	-0.349035
H128	H	0.682904	-0.136387	-0.529204
H129	H	0.642035	-0.091133	-0.485616
O130	O	1.127060	-0.102142	-0.239871
C131	C	1.235665	-0.108314	-0.254211
H132	H	1.250672	-0.123072	-0.335221
H133	H	1.266733	-0.132202	-0.191779
C134	C	1.273632	-0.044725	-0.145284
C135	C	1.292063	-0.062847	-0.244785
H136	H	1.308423	-0.016680	-0.139465
H137	H	1.200463	-0.040568	-0.135619
H138	H	1.299522	-0.064636	-0.093268
H139	H	1.266162	-0.042939	-0.296799
H140	H	1.365230	-0.067000	-0.254459
O141	O	1.251270	-0.330431	-1.114546
C142	C	1.274153	-0.375213	-1.087737
H143	H	1.314524	-0.376162	-1.008078
H144	H	1.328148	-0.390336	-1.149492
C145	C	1.122089	-0.401257	-1.180474
C146	C	1.171666	-0.402422	-1.082631
H147	H	1.058872	-0.418042	-1.177329
H148	H	1.106674	-0.371087	-1.198540
H149	H	1.167096	-0.413859	-1.231926
H150	H	1.126664	-0.389816	-1.031183
H151	H	1.187071	-0.432591	-1.064556
O152	O	0.910582	-0.330612	-0.772601
C153	C	0.937430	-0.320840	-0.877356
H154	H	1.017128	-0.303572	-0.879607
H155	H	0.875732	-0.297760	-0.912842
C156	C	0.844556	-0.385877	-0.938043
C157	C	0.942447	-0.364672	-0.940808
H158	H	0.847646	-0.412914	-0.977185
H159	H	0.826464	-0.392460	-0.867468
H160	H	0.793151	-0.366639	-0.967613
H161	H	0.993846	-0.383908	-0.911227
H162	H	0.960547	-0.358093	-1.011380
O163	O	1.650987	-0.956035	-0.373986
C164	C	1.718821	-0.928858	-0.433853
H165	H	1.681724	-0.921816	-0.513438
H166	H	1.796680	-0.946906	-0.445470
C167	C	1.783422	-0.892951	-0.278301
C168	C	1.737854	-0.884300	-0.376046
H169	H	1.795167	-0.865467	-0.242642
H170	H	1.737723	-0.911262	-0.237967
H171	H	1.848299	-0.907992	-0.287996
H172	H	1.672972	-0.869264	-0.366350
H173	H	1.783542	-0.865985	-0.416377
O174	O	0.802350	-0.273995	-0.640362
C175	C	0.765676	-0.305547	-0.713959
H176	H	0.828872	-0.331800	-0.728549
H177	H	0.746273	-0.287774	-0.790648
C178	C	0.588843	-0.296310	-0.653128
C179	C	0.666458	-0.328557	-0.671041
H180	H	0.527638	-0.310503	-0.626658
H181	H	0.613549	-0.275052	-0.603547
H182	H	0.572686	-0.281502	-0.717040
H183	H	0.682623	-0.343361	-0.607128
H184	H	0.641752	-0.349818	-0.720611
O185	O	1.785495	-0.102252	-0.898728
C186	C	1.890191	-0.112082	-0.925533
H187	H	1.892343	-0.129342	-1.005185
H188	H	1.925517	-0.135190	-0.863769
C189	C	1.951285	-0.047091	-0.832821
C190	C	1.953928	-0.068286	-0.930656
H191	H	1.990603	-0.020077	-0.835977
H192	H	1.880750	-0.040469	-0.814758
H193	H	1.980722	-0.066352	-0.781361
H194	H	1.924480	-0.049027	-0.982111
H195	H	2.024460	-0.074905	-0.948728
O196	O	1.651177	-1.048516	-0.373923
C197	C	1.755850	-1.036989	-0.397040
H198	H	1.757934	-1.002912	-0.437436
H199	H	1.791227	-1.063360	-0.451098
C200	C	1.817023	-1.076662	-0.245087
C201	C	1.819584	-1.034806	-0.294693
H202	H	1.856340	-1.075317	-0.181956
H203	H	1.746504	-1.084429	-0.229514
H204	H	1.846503	-1.098633	-0.290146
H205	H	1.790094	-1.012837	-0.249640
H206	H	1.890101	-1.027035	-0.310256
H207	H	0.919200	-0.106656	-0.250344
O208	O	1.251322	-0.330424	-0.898232
C209	C	1.311068	-0.359461	-0.834777
H210	H	1.390719	-0.343624	-0.818368
H211	H	1.322548	-0.392748	-0.877043
C212	C	1.155402	-0.387059	-0.750689
C213	C	1.253227	-0.367606	-0.730527
H214	H	1.119723	-0.392085	-0.686384
H215	H	1.115149	-0.367498	-0.793442
H216	H	1.164982	-0.414796	-0.785913
H217	H	1.243646	-0.339867	-0.695316
H218	H	1.293478	-0.387163	-0.687765
O219	O	1.650608	-0.383759	-0.373680
C220	C	1.709945	-0.414520	-0.314424
H221	H	1.713582	-0.447948	-0.357474
H222	H	1.671516	-0.419555	-0.234599
C223	C	1.817290	-0.355108	-0.246497
C224	C	1.821765	-0.396164	-0.299377
H225	H	1.886265	-0.343785	-0.237211
H226	H	1.777312	-0.334383	-0.286416
H227	H	1.785262	-0.359309	-0.179982
H228	H	1.853781	-0.391961	-0.365895
H229	H	1.861752	-0.416887	-0.259469
H230	H	1.328991	-0.603235	-0.695072
H231	H	1.217719	-0.273916	-0.640215
H232	H	1.217777	-0.158843	-0.371972
H233	H	1.640034	-0.472488	-0.384287
H234	H	1.707347	-0.603192	-0.317186
O235	O	1.385897	-1.048540	-0.638648
C236	C	1.326531	-1.017777	-0.697870
H237	H	1.369547	-0.984313	-0.701531
H238	H	1.246756	-1.012833	-0.659325
C239	C	1.258510	-1.077155	-0.805185
C240	C	1.311346	-1.036055	-0.809689
H241	H	1.249138	-1.088430	-0.874159
H242	H	1.298502	-1.097881	-0.765284
H243	H	1.192035	-1.073030	-0.773060
H244	H	1.377824	-1.040182	-0.841801
H245	H	1.271364	-1.015330	-0.849598
H246	H	1.396439	-0.959811	-0.627997
H247	H	1.396086	-0.472531	-0.627889
O248	O	1.718119	-0.740320	-0.306645
C249	C	1.777448	-0.771085	-0.247393
H250	H	1.781075	-0.804512	-0.290446
H251	H	1.739019	-0.776119	-0.167568
C252	C	1.884812	-0.711680	-0.179463
C253	C	1.889274	-0.752735	-0.232346
H254	H	1.953790	-0.700360	-0.170176
H255	H	1.844838	-0.690952	-0.219379
H256	H	1.852783	-0.715881	-0.112948
H257	H	1.921290	-0.748532	-0.298864
H258	H	1.929255	-0.773461	-0.192440
O259	O	1.318551	-0.832719	-0.705750
C260	C	1.259183	-0.801956	-0.764970
H261	H	1.302192	-0.768491	-0.768621
H262	H	1.179403	-0.797017	-0.726432
C263	C	1.191182	-0.861333	-0.872304
C264	C	1.244011	-0.820231	-0.876795
H265	H	1.181818	-0.872606	-0.941281
H266	H	1.231176	-0.882059	-0.832404
H267	H	1.124705	-0.857211	-0.840183
H268	H	1.310492	-0.824354	-0.908902
H269	H	1.204028	-0.799506	-0.916703
H270	H	1.396017	-0.387409	-0.627853
H271	H	1.707513	-0.829058	-0.317254
H272	H	1.329081	-0.743992	-0.695078
H273	H	1.774815	-0.106709	-1.106288
H274	H	1.652822	-0.158810	-1.205766
H275	H	1.383749	-0.273781	-0.807508
