data_functionalizedCrystal
_audit_creation_method	'MofGen! by Chris Wilmer'
_symmetry_space_group_name_H-M	'P1'
_symmetry_Int_Tables_number	1
_symmetry_cell_setting	triclinic
loop_
_symmetry_equiv_pos_as_xyz
  x,y,z
_cell_length_a	21.395364
_cell_length_b	21.395361
_cell_length_c	21.395355
_cell_angle_alpha	90.021511
_cell_angle_beta	90.025298
_cell_angle_gamma	90.047409
loop_
_atom_site_label
_atom_site_type_symbol
_atom_site_fract_x
_atom_site_fract_y
_atom_site_fract_z
Zn1	Zn	-0.957859	0.249232	-0.354261
Zn2	Zn	-0.624526	0.582565	-0.020928
Zn3	Zn	-0.291193	0.915899	0.312406
Zn4	Zn	-0.957762	0.353992	-0.249478
Zn5	Zn	-0.624428	0.687325	0.083855
Zn6	Zn	-0.291095	1.020658	0.417189
Zn7	Zn	-0.853074	0.249263	-0.249496
Zn8	Zn	-0.519741	0.582596	0.083837
Zn9	Zn	-0.186408	0.915929	0.417170
Zn10	Zn	-0.853043	0.354006	-0.354217
Zn11	Zn	-0.519710	0.687339	-0.020883
Zn12	Zn	-0.186377	1.020673	0.312450
O13	O	-0.905435	0.301623	-0.301863
O14	O	-0.572101	0.634956	0.031470
O15	O	-0.238768	0.968290	0.364804
O16	O	-1.045524	0.263110	-0.340372
O17	O	-0.712191	0.596443	-0.007039
O18	O	-0.378858	0.929776	0.326295
O19	O	-0.943847	0.340106	-0.161802
O20	O	-0.610513	0.673439	0.171531
O21	O	-0.277180	1.006773	0.504864
O22	O	-0.867028	0.161581	-0.263420
O23	O	-0.533695	0.494914	0.069914
O24	O	-0.200361	0.828247	0.403247
O25	O	-1.045453	0.340076	-0.263388
O26	O	-0.712119	0.673410	0.069945
O27	O	-0.378786	1.006743	0.403278
O28	O	-0.944013	0.161558	-0.340390
O29	O	-0.610680	0.494891	-0.007056
O30	O	-0.277346	0.828225	0.326277
O31	O	-0.866933	0.263162	-0.161816
O32	O	-0.533600	0.596495	0.171517
O33	O	-0.200267	0.929829	0.504851
O34	O	-0.765392	0.263176	-0.263377
O35	O	-0.432059	0.596509	0.069956
O36	O	-0.098726	0.929843	0.403290
O37	O	-0.866975	0.340101	-0.441901
O38	O	-0.533642	0.673434	-0.108567
O39	O	-0.200309	1.006767	0.224766
O40	O	-0.765370	0.340131	-0.340315
O41	O	-0.432036	0.673464	-0.006981
O42	O	-0.098703	1.006797	0.326352
O43	O	-0.943983	0.263124	-0.441933
O44	O	-0.610650	0.596457	-0.108600
O45	O	-0.277316	0.929790	0.224734
O46	O	-0.943817	0.441672	-0.263346
O47	O	-0.610484	0.775005	0.069988
O48	O	-0.277150	1.108338	0.403321
O49	O	-0.866881	0.441682	-0.340297
O50	O	-0.533547	0.775015	-0.006963
O51	O	-0.200214	1.108349	0.326370
C52	C	-0.742647	0.301659	-0.301843
C53	C	-0.409314	0.634992	0.031490
C54	C	-0.075980	0.968325	0.364823
C55	C	-0.673006	0.301689	-0.301850
C56	C	-0.339672	0.635022	0.031484
C57	C	-0.006339	0.968355	0.364817
C58	C	-0.640352	0.261679	-0.341997
C59	C	-0.307019	0.595012	-0.008663
C60	C	0.026314	0.928346	0.324670
C61	C	-0.574917	0.261664	-0.341998
C62	C	-0.241584	0.594998	-0.008665
C63	C	0.091750	0.928331	0.324669
C64	C	-0.542137	0.301671	-0.301859
C65	C	-0.208804	0.635004	0.031474
C66	C	0.124529	0.968337	0.364807
C67	C	-0.574799	0.341683	-0.261705
C68	C	-0.241465	0.675017	0.071629
C69	C	0.091868	1.008350	0.404962
C70	C	-0.640233	0.341692	-0.261700
C71	C	-0.306900	0.675026	0.071633
C72	C	0.026434	1.008359	0.404967
C73	C	-0.438413	0.358099	-0.296818
C74	C	-0.105080	0.691432	0.036516
C75	C	0.228254	1.024765	0.369849
C76	C	-0.372980	0.358090	-0.296827
C77	C	-0.039647	0.691424	0.036507
C78	C	0.293687	1.024757	0.369840
C79	C	-0.340317	0.301642	-0.301871
C80	C	-0.006983	0.634976	0.031463
C81	C	0.326350	0.968309	0.364796
C82	C	-0.373094	0.245200	-0.306919
C83	C	-0.039761	0.578534	0.026415
C84	C	0.293572	0.911867	0.359748
C85	C	-0.438528	0.245210	-0.306914
C86	C	-0.105195	0.578543	0.026420
C87	C	0.228138	0.911876	0.359753
C88	C	-0.471185	0.301665	-0.301860
C89	C	-0.137852	0.634998	0.031473
C90	C	0.195482	0.968332	0.364807
C91	C	-0.236711	0.261613	-0.342021
C92	C	0.096623	0.594946	-0.008688
C93	C	0.429956	0.928280	0.324645
C94	C	-0.171274	0.261597	-0.342019
C95	C	0.162059	0.594931	-0.008685
C96	C	0.495393	0.928264	0.324648
C97	C	-0.171157	0.341622	-0.261728
C98	C	0.162176	0.674955	0.071605
C99	C	0.495509	1.008289	0.404938
C100	C	-0.236593	0.341632	-0.261728
C101	C	0.096741	0.674966	0.071605
C102	C	0.430074	1.008299	0.404939
C103	C	-0.269365	0.301629	-0.301878
C104	C	0.063968	0.634962	0.031455
C105	C	0.397301	0.968295	0.364789
C106	C	-0.905352	0.464411	-0.301828
C107	C	-0.572019	0.797744	0.031505
C108	C	-0.238685	1.131077	0.364839
C109	C	-0.905374	0.534052	-0.301834
C110	C	-0.572041	0.867385	0.031499
C111	C	-0.238707	1.200719	0.364833
C112	C	-0.905487	0.301610	-0.465286
C113	C	-0.572153	0.634944	-0.131953
C114	C	-0.238820	0.968277	0.201380
C115	C	-0.905509	0.301605	-0.534928
C116	C	-0.572175	0.634938	-0.201594
C117	C	-0.238842	0.968272	0.131739
C118	C	-0.068858	0.301596	-0.301880
C119	C	0.264475	0.634929	0.031453
C120	C	0.597809	0.968262	0.364787
C121	C	-0.138499	0.301604	-0.301879
C122	C	0.194834	0.634937	0.031455
C123	C	0.528167	0.968270	0.364788
C124	C	-0.905535	0.138200	-0.301912
C125	C	-0.572201	0.471533	0.031422
C126	C	-0.238868	0.804866	0.364755
C127	C	-0.905577	0.068558	-0.301932
C128	C	-0.572244	0.401892	0.031401
C129	C	-0.238911	0.735225	0.364734
C130	C	-0.945470	0.566739	-0.261807
C131	C	-0.612137	0.900072	0.071527
C132	C	-0.278803	1.233405	0.404860
C133	C	-0.945499	0.632174	-0.261821
C134	C	-0.612166	0.965508	0.071513
C135	C	-0.278832	1.298841	0.404846
C136	C	-0.905421	0.664920	-0.301856
C137	C	-0.572088	0.998254	0.031478
C138	C	-0.238754	1.331587	0.364811
C139	C	-0.865322	0.632226	-0.341891
C140	C	-0.531989	0.965559	-0.008558
C141	C	-0.198655	1.298892	0.324776
C142	C	-0.865298	0.566791	-0.341880
C143	C	-0.531965	0.900125	-0.008547
C144	C	-0.198632	1.233458	0.324787
C145	C	-0.849006	0.768652	-0.306765
C146	C	-0.515673	1.101985	0.026569
C147	C	-0.182340	1.435319	0.359902
C148	C	-0.849029	0.834085	-0.306771
C149	C	-0.515695	1.167418	0.026562
C150	C	-0.182362	1.500752	0.359896
C151	C	-0.905494	0.866741	-0.301892
C152	C	-0.572161	1.200074	0.031441
C153	C	-0.238827	1.533408	0.364774
C154	C	-0.961938	0.833956	-0.296994
C155	C	-0.628605	1.167289	0.036339
C156	C	-0.295272	1.500623	0.369673
C157	C	-0.961915	0.768522	-0.296983
C158	C	-0.628581	1.101855	0.036350
C159	C	-0.295248	1.435189	0.369683
C160	C	-0.905442	0.735873	-0.301872
C161	C	-0.572109	1.069206	0.031461
C162	C	-0.238776	1.402539	0.364795
C163	C	-0.945625	0.970380	-0.261878
C164	C	-0.612292	1.303714	0.071455
C165	C	-0.278958	1.637047	0.404789
C166	C	-0.945655	1.035817	-0.261896
C167	C	-0.612322	1.369150	0.071437
C168	C	-0.278989	1.702484	0.404770
C169	C	-0.865473	1.035867	-0.341963
C170	C	-0.532139	1.369200	-0.008630
C171	C	-0.198806	1.702534	0.324703
C172	C	-0.865448	0.970432	-0.341948
C173	C	-0.532115	1.303765	-0.008615
C174	C	-0.198781	1.637098	0.324719
C175	C	-0.905523	0.937692	-0.301902
C176	C	-0.572190	1.271026	0.031431
C177	C	-0.238857	1.604359	0.364765
C178	C	-0.945605	0.261521	-0.567659
C179	C	-0.612272	0.594855	-0.234325
C180	C	-0.278938	0.928188	0.099008
C181	C	-0.945604	0.261494	-0.633094
C182	C	-0.612271	0.594828	-0.299761
C183	C	-0.278938	0.928161	0.033573
C184	C	-0.905514	0.301562	-0.665796
C185	C	-0.572180	0.634896	-0.332463
C186	C	-0.238847	0.968229	0.000871
C187	C	-0.865410	0.341649	-0.633057
C188	C	-0.532076	0.674982	-0.299724
C189	C	-0.198743	1.008315	0.033610
C190	C	-0.865407	0.341670	-0.567623
C191	C	-0.532074	0.675003	-0.234290
C192	C	-0.198741	1.008337	0.099044
C193	C	-0.900538	0.357979	-0.769459
C194	C	-0.567204	0.691312	-0.436125
C195	C	-0.233871	1.024646	-0.102792
C196	C	-0.900545	0.357959	-0.834892
C197	C	-0.567211	0.691292	-0.501558
C198	C	-0.233878	1.024625	-0.168225
C199	C	-0.905518	0.301496	-0.867617
C200	C	-0.572184	0.634829	-0.534284
C201	C	-0.238851	0.968163	-0.200950
C202	C	-0.910497	0.245052	-0.834901
C203	C	-0.577164	0.578385	-0.501568
C204	C	-0.243830	0.911719	-0.168235
C205	C	-0.910494	0.245073	-0.769467
C206	C	-0.577161	0.578407	-0.436134
C207	C	-0.243828	0.911740	-0.102800
C208	C	-0.905512	0.301543	-0.736748
C209	C	-0.572178	0.634877	-0.403415
C210	C	-0.238845	0.968210	-0.070082
C211	C	-0.945615	0.261380	-0.971300
C212	C	-0.612282	0.594713	-0.637967
C213	C	-0.278948	0.928046	-0.304634
C214	C	-0.945610	0.261352	-1.036737
C215	C	-0.612276	0.594685	-0.703404
C216	C	-0.278943	0.928018	-0.370070
C217	C	-0.865419	0.341512	-1.036699
C218	C	-0.532085	0.674845	-0.703366
C219	C	-0.198752	1.008179	-0.370032
C220	C	-0.865421	0.341534	-0.971263
C221	C	-0.532087	0.674868	-0.637930
C222	C	-0.198754	1.008201	-0.304597
C223	C	-0.905522	0.301469	-0.938568
C224	C	-0.572189	0.634802	-0.605235
C225	C	-0.238855	0.968136	-0.271902
C226	C	-0.905419	0.301591	-0.139075
C227	C	-0.572086	0.634924	0.194258
C228	C	-0.238752	0.968257	0.527591
C229	C	-0.905518	0.301419	-0.069435
C230	C	-0.572185	0.634753	0.263899
C231	C	-0.238851	0.968086	0.597232
H232	H	-0.666819	0.374274	-0.229006
H233	H	-0.333486	0.707608	0.104327
H234	H	-0.000152	1.040941	0.437660
H235	H	-0.978103	0.540084	-0.229201
H236	H	-0.644770	0.873418	0.104133
H237	H	-0.311437	1.206751	0.437466
C238	C	-0.821195	0.530835	-0.385923
C239	C	-0.487862	0.864168	-0.052590
C240	C	-0.154529	1.197502	0.280743
N241	N	-0.787979	0.503751	-0.419100
N242	N	-0.454645	0.837085	-0.085766
N243	N	-0.121312	1.170418	0.247567
C244	C	-0.336931	0.420177	-0.291267
C245	C	-0.003598	0.753510	0.042066
C246	C	0.329736	1.086843	0.375400
N247	N	-0.309780	0.466941	-0.287075
N248	N	0.023553	0.800275	0.046258
N249	N	0.356886	1.133608	0.379591
H250	H	-0.978152	0.658793	-0.229226
H251	H	-0.644819	0.992126	0.104108
H252	H	-0.311486	1.325460	0.437441
H253	H	-0.978258	0.228896	-0.541042
H254	H	-0.644925	0.562230	-0.207709
H255	H	-0.311591	0.895563	0.125624
H256	H	-0.548106	0.374256	-0.229023
H257	H	-0.214772	0.707590	0.104310
H258	H	0.118561	1.040923	0.437644
C259	C	-1.024002	0.732461	-0.291595
C260	C	-0.690669	1.065795	0.041738
C261	C	-0.357335	1.399128	0.375071
N262	N	-1.070767	0.705300	-0.287537
N263	N	-0.737434	1.038634	0.045796
N264	N	-0.404101	1.371967	0.379129
H265	H	-0.803022	0.742070	-0.310740
H266	H	-0.469689	1.075403	0.022593
H267	H	-0.136355	1.408736	0.355926
H268	H	-0.914547	0.199115	-0.742833
H269	H	-0.581214	0.532448	-0.409499
H270	H	-0.247880	0.865781	-0.076166
C271	C	-0.821314	0.385633	-0.935258
C272	C	-0.487980	0.718966	-0.601925
C273	C	-0.154647	1.052299	-0.268591
N274	N	-0.788088	0.418848	-0.908139
N275	N	-0.454755	0.752182	-0.574806
N276	N	-0.121422	1.085515	-0.241472
H277	H	-0.144469	0.374196	-0.229047
H278	H	0.188864	0.707529	0.104287
H279	H	0.522198	1.040863	0.437620
C280	C	-0.915966	0.182938	-0.870894
C281	C	-0.582633	0.516271	-0.537561
C282	C	-0.249300	0.849604	-0.204227
N283	N	-0.920086	0.136155	-0.898007
N284	N	-0.586753	0.469488	-0.564673
N285	N	-0.253420	0.802822	-0.231340
C286	C	-0.895067	0.420048	-0.870872
C287	C	-0.561734	0.753381	-0.537539
C288	C	-0.228400	1.086715	-0.204206
N289	N	-0.890939	0.466815	-0.897972
N290	N	-0.557606	0.800149	-0.564639
N291	N	-0.224273	1.133482	-0.231305
H292	H	-0.978265	0.228753	-0.944679
H293	H	-0.644931	0.562086	-0.611345
H294	H	-0.311598	0.895420	-0.278012
C295	C	-0.989719	0.217401	-0.669105
C296	C	-0.656385	0.550735	-0.335772
C297	C	-0.323052	0.884068	-0.002439
N298	N	-1.022948	0.184192	-0.696227
N299	N	-0.689614	0.517525	-0.362894
N300	N	-0.356281	0.850858	-0.029561
C301	C	-1.024056	0.869873	-0.291632
C302	C	-0.690722	1.203206	0.041701
C303	C	-0.357389	1.536540	0.375034
N304	N	-1.070841	0.896928	-0.287594
N305	N	-0.737508	1.230262	0.045739
N306	N	-0.404174	1.563595	0.379072
C307	C	-0.272513	0.385652	-0.217568
C308	C	0.060821	0.718985	0.115766
C309	C	0.394154	1.052319	0.449099
N310	N	-0.299568	0.418809	-0.184303
N311	N	0.033766	0.752142	0.149030
N312	N	0.367099	1.085476	0.482363
H313	H	-0.832691	0.658892	-0.374489
H314	H	-0.499358	0.992225	-0.041155
H315	H	-0.166025	1.325558	0.292178
H316	H	-0.978260	0.228707	-1.063386
H317	H	-0.644927	0.562040	-0.730052
H318	H	-0.311593	0.895374	-0.396719
H319	H	-0.978310	1.062429	-0.229303
H320	H	-0.644977	1.395763	0.104031
H321	H	-0.311644	1.729096	0.437364
C322	C	-0.989718	0.934365	-0.217836
C323	C	-0.656384	1.267698	0.115497
C324	C	-0.323051	1.601031	0.448830
N325	N	-1.022931	0.907239	-0.184666
N326	N	-0.689597	1.240573	0.148667
N327	N	-0.356264	1.573906	0.482001
H328	H	-0.465213	0.199253	-0.311022
H329	H	-0.131880	0.532586	0.022312
H330	H	0.201453	0.865919	0.355645
H331	H	-0.346501	0.199235	-0.311026
H332	H	-0.013168	0.532568	0.022307
H333	H	0.320165	0.865902	0.355641
C334	C	-0.895079	0.420098	-0.733467
C335	C	-0.561746	0.753431	-0.400134
C336	C	-0.228412	1.086764	-0.066801
N337	N	-0.890972	0.466884	-0.706359
N338	N	-0.557638	0.800218	-0.373026
N339	N	-0.224305	1.133551	-0.039693
C340	C	-0.821319	0.385588	-1.072667
C341	C	-0.487985	0.718921	-0.739334
C342	C	-0.154652	1.052255	-0.406001
N343	N	-0.788101	0.418787	-1.099762
N344	N	-0.454768	0.752120	-0.766428
N345	N	-0.121435	1.085453	-0.433095
C346	C	-0.821387	1.071884	-0.386004
C347	C	-0.488054	1.405217	-0.052670
C348	C	-0.154720	1.738551	0.280663
N349	N	-0.788182	1.099015	-0.419177
N350	N	-0.454848	1.432348	-0.085844
N351	N	-0.121515	1.765682	0.247490
C352	C	-0.272763	0.217603	-0.386181
C353	C	0.060570	0.550936	-0.052847
C354	C	0.393904	0.884270	0.280486
N355	N	-0.299916	0.184453	-0.419441
N356	N	0.033418	0.517787	-0.086108
N357	N	0.366751	0.851120	0.247225
H358	H	-0.832766	0.374270	-0.659687
H359	H	-0.499432	0.707604	-0.326354
H360	H	-0.166099	1.040937	0.006979
H361	H	-0.803068	0.860773	-0.310753
H362	H	-0.469735	1.194107	0.022580
H363	H	-0.136401	1.527440	0.355913
H364	H	-0.832753	0.374310	-0.540974
H365	H	-0.499420	0.707644	-0.207640
H366	H	-0.166087	1.040977	0.125693
C367	C	-0.821351	0.934475	-0.385995
C368	C	-0.488018	1.267808	-0.052661
C369	C	-0.154684	1.601141	0.280672
N370	N	-0.788143	0.907392	-0.419180
N371	N	-0.454809	1.240726	-0.085847
N372	N	-0.121476	1.574059	0.247487
H373	H	-0.465002	0.404069	-0.292710
H374	H	-0.131669	0.737402	0.040624
H375	H	0.201664	1.070735	0.373957
C376	C	-0.676399	0.217666	-0.386155
C377	C	-0.343065	0.550999	-0.052821
C378	C	-0.009732	0.884332	0.280512
N379	N	-0.703550	0.184512	-0.419413
N380	N	-0.370216	0.517845	-0.086079
N381	N	-0.036883	0.851178	0.247254
H382	H	-0.144689	0.229013	-0.374710
H383	H	0.188645	0.562346	-0.041377
H384	H	0.521978	0.895679	0.291957
H385	H	-0.548325	0.229080	-0.374689
H386	H	-0.214992	0.562414	-0.041356
H387	H	0.118341	0.895747	0.291977
