data_functionalizedCrystal
_audit_creation_method	'MofGen! by Chris Wilmer'
_symmetry_space_group_name_H-M	'P1'
_symmetry_Int_Tables_number	1
_symmetry_cell_setting	triclinic
loop_
_symmetry_equiv_pos_as_xyz
  x,y,z
_cell_length_a	19.805407
_cell_length_b	19.805405
_cell_length_c	11.169409
_cell_angle_alpha	89.961958
_cell_angle_beta	90.024117
_cell_angle_gamma	89.972273
loop_
_atom_site_label
_atom_site_type_symbol
_atom_site_fract_x
_atom_site_fract_y
_atom_site_fract_z
Zn1	Zn	1.034760	0.269408	0.678633
Zn2	Zn	1.034663	0.382618	0.477929
Zn3	Zn	0.921566	0.269448	0.477952
Zn4	Zn	0.921535	0.382561	0.678559
O5	O	0.978131	0.326009	0.578268
O6	O	1.129464	0.284433	0.652030
O7	O	1.019633	0.367646	0.309983
O8	O	0.936634	0.174726	0.504613
O9	O	1.129393	0.367607	0.504574
O10	O	1.019797	0.174697	0.652052
O11	O	0.936540	0.284500	0.309999
O12	O	0.826845	0.284445	0.504542
O13	O	0.936583	0.367511	0.846519
O14	O	0.826823	0.367549	0.651927
O15	O	1.019768	0.284378	0.846573
O16	O	1.019603	0.477327	0.504503
O17	O	0.936489	0.477285	0.651905
C18	C	0.802275	0.325996	0.578230
C19	C	0.727043	0.326006	0.578241
C20	C	0.691705	0.369344	0.654861
C21	C	0.621017	0.369345	0.654878
C22	C	0.585667	0.326012	0.578268
C23	C	0.621010	0.282670	0.501646
C24	C	0.691697	0.282666	0.501636
C25	C	0.335937	0.282685	0.501685
C26	C	0.265245	0.282694	0.501699
C27	C	0.265256	0.369364	0.654927
C28	C	0.335943	0.369360	0.654917
C29	C	0.371280	0.326016	0.578300
C30	C	0.447928	0.326014	0.578284
C31	C	0.509020	0.326016	0.578277
C32	C	0.978051	0.501865	0.578220
C33	C	0.978078	0.577097	0.578240
C34	C	1.021397	0.612440	0.501570
C35	C	1.021424	0.683128	0.501600
C36	C	0.978129	0.718472	0.578296
C37	C	0.934808	0.683124	0.654974
C38	C	0.934785	0.612437	0.654948
C39	C	0.934901	0.968197	0.655079
C40	C	0.934926	1.038889	0.655096
C41	C	1.021541	1.038889	0.501731
C42	C	1.021518	0.968202	0.501705
C43	C	0.978200	0.932860	0.578387
C44	C	0.978172	0.856211	0.578355
C45	C	0.978153	0.795119	0.578323
C46	C	1.154674	0.326022	0.578308
C47	C	1.229906	0.326028	0.578325
C48	C	0.978183	0.325933	0.891311
C49	C	0.978205	0.325901	1.024711
C50	C	0.978224	1.149466	0.578357
C51	C	0.978249	1.074234	0.578431
C52	C	0.978118	0.326035	0.266444
C53	C	0.978227	0.325876	0.133044
H54	H	0.364700	0.247396	0.439289
O55	O	0.586706	0.240477	0.427355
C56	C	0.604029	0.173035	0.453779
H57	H	0.623486	0.169678	0.549669
H58	H	0.645051	0.155299	0.389488
C59	C	0.517354	0.131979	0.322186
C60	C	0.541247	0.127855	0.439963
H61	H	0.478629	0.104108	0.313659
H62	H	0.505685	0.177416	0.304379
H63	H	0.551546	0.117200	0.268623
H64	H	0.507059	0.142641	0.493522
H65	H	0.552909	0.082419	0.457779
H66	H	0.899559	0.711906	0.717425
O67	O	0.892739	0.578175	0.729593
C68	C	0.907518	0.595366	0.849240
H69	H	0.933550	0.646669	0.851785
H70	H	0.942297	0.555537	0.889703
C71	C	0.809545	0.535634	0.918716
C72	C	0.841512	0.598648	0.921842
H73	H	0.768830	0.537656	0.963503
H74	H	0.799589	0.524049	0.838108
H75	H	0.838534	0.502450	0.952433
H76	H	0.812526	0.631829	0.888113
H77	H	0.851461	0.610239	1.002447
H78	H	0.236476	0.404654	0.717318
H79	H	0.899629	0.939427	0.717514
O80	O	0.586768	0.411418	0.729463
C81	C	0.604070	0.396701	0.849131
H82	H	0.655403	0.370675	0.851698
H83	H	0.564310	0.361940	0.889687
C84	C	0.544291	0.494705	0.918443
C85	C	0.607341	0.462745	0.921596
H86	H	0.546306	0.535443	0.963145
H87	H	0.532631	0.504619	0.837821
H88	H	0.511164	0.465731	0.952238
H89	H	0.640465	0.491716	0.887788
H90	H	0.619006	0.452837	1.002214
O91	O	0.370176	0.411475	0.729449
C92	C	0.323827	0.449738	0.797062
H93	H	0.273451	0.422022	0.801312
H94	H	0.316276	0.501117	0.752952
C95	C	0.413320	0.493611	0.919542
C96	C	0.351449	0.459567	0.924770
H97	H	0.430360	0.499678	0.998317
H98	H	0.444547	0.467835	0.873988
H99	H	0.407020	0.536424	0.882779
H100	H	0.357752	0.416753	0.961519
H101	H	0.320224	0.485337	0.970334
H102	H	0.720481	0.404633	0.717241
O103	O	1.063726	1.073141	0.427308
C104	C	1.131169	1.055801	0.453669
H105	H	1.132530	1.004456	0.499799
H106	H	1.153968	1.095534	0.515421
C107	C	1.170531	1.115607	0.280079
C108	C	1.172203	1.052541	0.336727
H109	H	1.195844	1.113599	0.207946
H110	H	1.125093	1.127292	0.262321
H111	H	1.189529	1.148711	0.331551
H112	H	1.153197	1.019439	0.285262
H113	H	1.217638	1.040850	0.354475
H114	H	1.056651	0.583668	0.439111
O115	O	0.725998	0.240644	0.427030
C116	C	0.708674	0.255351	0.307369
H117	H	0.689215	0.309420	0.301142
H118	H	0.667651	0.219044	0.276115
C119	C	0.795349	0.181015	0.234938
C120	C	0.771455	0.247426	0.227288
H121	H	0.834074	0.176124	0.185538
H122	H	0.807019	0.171104	0.315556
H123	H	0.761158	0.150767	0.208895
H124	H	0.805643	0.277672	0.253345
H125	H	0.759792	0.257341	0.146672
O126	O	1.063524	0.717356	0.427006
C127	C	1.101741	0.671003	0.359323
H128	H	1.073999	0.620641	0.355107
H129	H	1.153132	0.663420	0.403350
C130	C	1.145611	0.760501	0.236792
C131	C	1.111535	0.698647	0.231605
H132	H	1.151656	0.777554	0.158011
H133	H	1.119865	0.791731	0.282394
H134	H	1.188433	0.754174	0.273486
H135	H	1.068711	0.704977	0.194926
H136	H	1.137274	0.667419	0.185994
H137	H	0.236466	0.247402	0.439314
H138	H	1.056771	0.939427	0.439249
H139	H	0.899671	1.067664	0.717559
