data_functionalizedCrystal
_audit_creation_method	'MofGen! by Chris Wilmer'
_symmetry_space_group_name_H-M	'P1'
_symmetry_Int_Tables_number	1
_symmetry_cell_setting	triclinic
loop_
_symmetry_equiv_pos_as_xyz
  x,y,z
_cell_length_a	10.723024
_cell_length_b	10.654541
_cell_length_c	9.198806
_cell_angle_alpha	90.003218
_cell_angle_beta	90.003661
_cell_angle_gamma	84.475899
loop_
_atom_site_label
_atom_site_type_symbol
_atom_site_fract_x
_atom_site_fract_y
_atom_site_fract_z
O1	O	1.657212	0.176148	0.120882
O2	O	1.294062	0.193008	0.120887
O3	O	1.483988	0.001837	0.120876
O4	O	1.467286	0.367319	0.120894
O5	O	1.483973	0.001836	-0.120909
O6	O	1.294047	0.193007	-0.120898
O7	O	1.657197	0.176146	-0.120903
Cu8	Cu	1.475621	0.184576	-0.142977
Cu9	Cu	1.475639	0.184578	0.142962
O10	O	1.467271	0.367317	-0.120891
C11	C	1.247555	0.191781	-0.000005
C12	C	1.109000	0.188109	-0.000003
C13	C	1.034033	0.295079	0.000003
C14	C	0.890829	0.291287	0.000005
C15	C	1.482755	-0.044961	-0.000016
C16	C	1.479088	-0.184404	-0.000013
C17	C	1.706196	-0.212409	-0.000035
C18	C	1.818022	-0.291921	-0.000048
C19	C	1.814569	-0.422938	-0.000044
C20	C	1.699277	-0.474446	-0.000021
C21	C	1.587451	-0.394935	-0.000008
C22	C	1.590917	-0.263916	-0.000017
C23	C	1.360346	-0.366930	0.000024
C24	C	1.363796	-0.235912	0.000009
C25	C	1.245054	-0.418438	0.000047
C26	C	1.133225	-0.338927	0.000050
C27	C	1.136683	-0.207902	0.000044
C28	C	1.251970	-0.156401	0.000023
C29	C	1.703705	0.177374	-0.000008
C30	C	1.842259	0.181045	0.000000
C31	C	1.468504	0.414116	0.000004
C32	C	1.472172	0.553559	0.000011
N33	N	1.475617	0.184574	-0.344091
C34	C	1.548392	0.257400	-0.416286
C35	C	1.548412	0.257398	-0.583699
N36	N	1.475652	0.184570	0.344076
H37	H	1.075868	0.389466	-0.000000
H38	H	0.826409	0.382861	0.000016
O39	O	0.919222	0.071870	0.000189
C40	C	0.995337	0.067109	0.125431
H41	H	1.002658	0.166874	0.167185
H42	H	1.092805	0.021284	0.097267
H43	H	0.952099	0.009319	0.213113
O44	O	1.241533	-0.545687	-0.000137
C45	C	1.178093	-0.581787	-0.125365
H46	H	1.113777	-0.498108	-0.167107
H47	H	1.119954	-0.662550	-0.097188
H48	H	1.249244	-0.613894	-0.213061
H49	H	1.413338	0.122225	-0.593847
H50	H	1.413330	0.122222	-0.406222
O51	O	1.255492	-0.029152	-0.000177
C52	C	1.318887	0.006934	-0.125430
H53	H	1.383187	-0.076750	-0.167190
H54	H	1.377036	0.087699	-0.097278
H55	H	1.247703	0.039033	-0.213102
O56	O	1.695760	-0.601695	-0.000194
C57	C	1.632329	-0.637812	-0.125421
H58	H	1.568013	-0.554141	-0.167180
H59	H	1.574192	-0.718575	-0.097236
H60	H	1.703487	-0.669927	-0.213107
O61	O	1.709394	-0.085121	0.000144
C62	C	1.648314	-0.033656	0.125391
H63	H	1.580023	-0.100976	0.167163
H64	H	1.594799	0.060877	0.097228
H65	H	1.720728	-0.019251	0.213060
H66	H	1.039364	-0.380876	0.000078
H67	H	1.067165	0.093722	0.000030
H68	H	1.911891	-0.249968	-0.000080
H69	H	1.610689	0.319744	-0.354155
O70	O	1.923111	-0.500309	-0.000250
C71	C	1.927898	-0.576917	-0.125489
H72	H	1.828780	-0.584382	-0.167226
H73	H	1.973522	-0.674976	-0.097329
H74	H	1.985260	-0.533342	-0.213183
H75	H	1.045620	-0.143170	0.000061
H76	H	1.610710	0.319753	-0.645785
