data_functionalizedCrystal
_audit_creation_method	'MofGen! by Chris Wilmer'
_symmetry_space_group_name_H-M	'P1'
_symmetry_Int_Tables_number	1
_symmetry_cell_setting	triclinic
loop_
_symmetry_equiv_pos_as_xyz
  x,y,z
_cell_length_a	10.654550
_cell_length_b	9.730223
_cell_length_c	10.654551
_cell_angle_alpha	89.997199
_cell_angle_beta	84.485132
_cell_angle_gamma	90.006378
loop_
_atom_site_label
_atom_site_type_symbol
_atom_site_fract_x
_atom_site_fract_y
_atom_site_fract_z
O1	O	1.667840	0.114394	0.176390
O2	O	1.302361	0.114371	0.193196
O3	O	1.493503	0.114383	0.002054
O4	O	1.476698	0.114381	0.367532
O5	O	1.493491	-0.114197	0.002065
O6	O	1.302349	-0.114209	0.193207
O7	O	1.667827	-0.114186	0.176401
Zn8	Zn	1.485086	-0.150490	0.184806
Zn9	Zn	1.485102	0.150674	0.184792
O10	O	1.476686	-0.114199	0.367543
C11	C	1.255557	0.000078	0.191968
C12	C	1.116114	0.000069	0.188276
N13	N	1.485084	-0.356026	0.184814
C14	C	1.036629	0.000089	0.300817
C15	C	0.905608	0.000113	0.297341
C16	C	0.933570	0.000104	0.068771
C17	C	1.064589	0.000070	0.072249
C18	C	1.088154	0.000088	0.416844
C19	C	1.008667	0.000109	0.529395
C20	C	0.877647	0.000133	0.525918
C21	C	0.826112	0.000136	0.409891
C22	C	1.561914	-0.427961	0.261689
C23	C	1.561933	-0.571844	0.261665
C24	C	1.408281	-0.571845	0.107889
C25	C	1.408270	-0.427964	0.107907
C26	C	1.638729	-0.356023	0.338596
C27	C	1.715564	-0.427958	0.415478
C28	C	1.715582	-0.571840	0.415454
C29	C	1.638766	-0.643789	0.338549
C30	C	1.714632	0.000109	0.177629
C31	C	1.854075	0.000127	0.181321
C32	C	1.492263	0.000096	-0.044739
C33	C	1.488570	0.000105	-0.184182
N34	N	1.485114	0.356211	0.184773
C35	C	1.486845	0.124702	-0.249699
C36	C	1.483364	0.124695	-0.380720
C37	C	1.483341	-0.124515	-0.380694
C38	C	1.486812	-0.124507	-0.249675
C39	C	1.488603	0.249314	-0.184207
C40	C	1.486879	0.373921	-0.249725
C41	C	1.483399	0.373914	-0.380745
C42	C	1.481642	0.249301	-0.446247
C43	C	1.477926	0.000091	0.414336
C44	C	1.481619	0.000091	0.553779
H45	H	1.194836	0.000075	0.419687
C46	C	1.601345	0.181482	-0.009699
C47	C	1.492424	0.249324	-0.040188
H48	H	1.603706	0.181494	0.079212
H49	H	1.600535	0.089450	-0.039325
H50	H	1.673665	0.227509	-0.048292
H51	H	1.420103	0.203290	-0.001602
H52	H	1.493223	0.341372	-0.010547
H53	H	1.345739	-0.630436	0.045279
H54	H	1.488297	0.475376	-0.196383
C55	C	0.974365	0.000094	-0.156811
C56	C	0.876927	0.000121	-0.058760
H57	H	0.939394	0.000100	-0.235543
H58	H	1.024909	0.079785	-0.150705
H59	H	1.024859	-0.079638	-0.150690
H60	H	0.826438	0.079858	-0.064875
H61	H	0.826361	-0.079579	-0.064869
H62	H	1.050636	0.000095	0.623860
H63	H	1.481982	0.475375	-0.434085
H64	H	0.812931	0.000136	0.617562
H65	H	0.719425	0.000134	0.407069
H66	H	1.638719	-0.238866	0.338627
H67	H	1.638799	-0.760948	0.338524
C68	C	1.256378	-0.442406	-0.044082
C69	C	1.323811	-0.348883	0.023413
H70	H	1.204234	-0.393581	-0.096242
H71	H	1.313731	-0.498500	-0.095015
H72	H	1.205421	-0.498549	0.013243
H73	H	1.374776	-0.292746	-0.033912
H74	H	1.266452	-0.292766	0.074351
H75	H	1.778112	-0.369368	0.478084
H76	H	1.478790	0.249306	-0.552931
C77	C	1.478015	-0.235176	-0.581529
C78	C	1.481421	-0.261483	-0.452693
H79	H	1.476839	-0.319738	-0.625976
H80	H	1.404346	-0.183992	-0.594058
H81	H	1.550564	-0.183976	-0.611932
H82	H	1.408866	-0.312675	-0.422288
H83	H	1.555097	-0.312688	-0.440156
C84	C	1.380063	-0.336893	-0.196119
C85	C	1.488688	-0.261458	-0.177634
H86	H	1.381217	-0.421442	-0.151644
H87	H	1.307548	-0.285675	-0.165728
H88	H	1.377768	-0.354739	-0.283525
H89	H	1.490978	-0.243602	-0.090229
H90	H	1.561222	-0.312686	-0.208020
H91	H	1.778154	-0.630406	0.478046
C92	C	1.228204	0.117534	-0.056429
C93	C	1.151976	0.000054	-0.051453
H94	H	1.282159	0.117513	-0.132796
H95	H	1.176538	0.197244	-0.053054
H96	H	1.277629	0.117505	0.013178
H97	H	1.102544	0.000088	-0.121055
H98	H	1.203648	-0.079677	-0.054841
