data_functionalizedCrystal
_audit_creation_method	'MofGen! by Chris Wilmer'
_symmetry_space_group_name_H-M	'P1'
_symmetry_Int_Tables_number	1
_symmetry_cell_setting	triclinic
loop_
_symmetry_equiv_pos_as_xyz
  x,y,z
_cell_length_a	14.044191
_cell_length_b	17.019370
_cell_length_c	12.503572
_cell_angle_alpha	97.387854
_cell_angle_beta	86.162165
_cell_angle_gamma	88.281856
loop_
_atom_site_label
_atom_site_type_symbol
_atom_site_fract_x
_atom_site_fract_y
_atom_site_fract_z
O1	O	1.261861	0.186817	-0.071996
O2	O	1.761861	0.686817	0.428004
O3	O	0.985940	0.179918	-0.072647
O4	O	1.485940	0.679918	0.427353
O5	O	1.132249	0.068582	-0.082927
O6	O	1.632249	0.568582	0.417073
O7	O	1.115552	0.298153	-0.061716
O8	O	1.615552	0.798153	0.438284
O9	O	1.121246	0.076971	0.096490
O10	O	1.621246	0.576971	0.596490
O11	O	0.974937	0.188307	0.106769
O12	O	1.474937	0.688307	0.606769
O13	O	1.250857	0.195205	0.107421
O14	O	1.750857	0.695205	0.607421
Cu15	Cu	1.111892	0.192522	0.123477
Cu16	Cu	1.611892	0.692522	0.623477
Cu17	Cu	1.124905	0.182602	-0.088703
Cu18	Cu	1.624905	0.682602	0.411297
O19	O	1.104549	0.306541	0.117700
O20	O	1.604549	0.806541	0.617700
C21	C	0.945145	0.181095	0.016780
C22	C	1.445145	0.681095	0.516780
C23	C	0.839983	0.172094	0.015943
C24	C	1.339983	0.672094	0.515943
C25	C	0.589364	0.219474	0.020332
C26	C	1.089364	0.719474	0.520332
C27	C	0.647440	0.155652	0.014433
C28	C	1.147440	0.655652	0.514433
C29	C	0.754581	0.164803	0.015274
C30	C	1.254581	0.664803	0.515274
C31	C	0.482213	0.210325	0.019491
C32	C	0.982213	0.710325	0.519491
C33	C	1.126331	0.043219	0.004048
C34	C	1.626331	0.543219	0.504048
C35	C	1.125079	-0.044854	-0.004096
C36	C	1.625079	0.455146	0.495904
C37	C	1.118491	-0.081666	0.089872
C38	C	1.618491	0.418334	0.589872
C39	C	1.117321	-0.164421	0.082210
C40	C	1.617321	0.335579	0.582210
C41	C	1.122733	-0.210363	-0.019422
C42	C	1.622733	0.289637	0.480578
C43	C	1.129324	-0.173545	-0.113397
C44	C	1.629324	0.326455	0.386603
C45	C	1.130501	-0.090792	-0.105734
C46	C	1.630501	0.409208	0.394266
C47	C	1.119487	-0.460452	-0.047452
C48	C	1.619487	0.039548	0.452548
C49	C	1.118307	-0.543211	-0.055108
C50	C	1.618307	-0.043211	0.444892
C51	C	1.106306	-0.534081	0.140500
C52	C	1.606306	-0.034081	0.640500
C53	C	1.107477	-0.451327	0.148155
C54	C	1.607477	0.048673	0.648155
C55	C	1.114074	-0.414517	0.054179
C56	C	1.614074	0.085483	0.554179
C57	C	1.121534	-0.294951	-0.027256
C58	C	1.621534	0.205049	0.472744
C59	C	1.115279	-0.329930	0.062014
C60	C	1.615279	0.170070	0.562014
C61	C	1.291652	0.194028	0.017991
C62	C	1.791652	0.694028	0.517991
C63	C	1.396815	0.203029	0.018821
C64	C	1.896815	0.703029	0.518821
C65	C	1.110467	0.331904	0.030723
C66	C	1.610467	0.831904	0.530723
C67	C	1.111719	0.419977	0.038861
C68	C	1.611719	0.919977	0.538861
N69	N	1.102747	0.199499	0.272714
N70	N	1.602747	0.699499	0.772714
N71	N	1.134058	0.175619	-0.237941
N72	N	1.634058	0.675619	0.262059
C73	C	1.089293	0.209770	0.492777
C74	C	1.589293	0.709770	0.992777
C75	C	1.147509	0.165350	0.542003
C76	C	1.647509	0.665350	1.042003
C77	C	1.140023	0.171065	0.664454
C78	C	1.640023	0.671065	1.164454
C79	C	1.096778	0.204056	0.370315
C80	C	1.596778	0.704056	0.870315
H81	H	0.616701	0.094137	0.008674
H82	H	1.116701	0.594137	0.508674
C83	C	0.630897	0.302568	0.027998
C84	C	1.130897	0.802568	0.527998
N85	N	0.662191	0.365154	0.033768
N86	N	1.162191	0.865154	0.533768
H87	H	1.135866	-0.060821	-0.182254
H88	H	1.635866	0.439179	0.317746
H89	H	1.114068	-0.044266	0.172632
H90	H	1.614068	0.455734	0.672632
H91	H	1.110878	-0.292521	0.144762
H92	H	1.610878	0.207479	0.644762
H93	H	1.033836	0.252087	0.542592
H94	H	1.533836	0.752087	1.042592
H95	H	1.111961	-0.194390	0.158730
H96	H	1.611961	0.305610	0.658730
H97	H	1.202971	0.123031	0.492183
H98	H	1.702971	0.623031	0.992183
C99	C	1.099056	-0.574579	0.243867
C100	C	1.599056	-0.074579	0.743867
N101	N	1.093598	-0.605083	0.321726
N102	N	1.593598	-0.105083	0.821726
C103	C	1.101522	-0.400797	0.259958
C104	C	1.601522	0.099203	0.759958
N105	N	1.097032	-0.362738	0.344169
N106	N	1.597032	0.137262	0.844169
C107	C	1.124224	-0.593744	-0.166916
C108	C	1.624224	-0.093744	0.333084
N109	N	1.128664	-0.631804	-0.251125
N110	N	1.628664	-0.131804	0.248875
H111	H	1.124857	-0.430492	-0.123974
H112	H	1.624857	0.069508	0.376026
C113	C	1.135277	-0.224084	-0.225194
C114	C	1.635277	0.275916	0.274806
N115	N	1.139756	-0.262148	-0.309401
N116	N	1.639756	0.237852	0.190599
C117	C	1.127478	-0.345494	-0.139049
C118	C	1.627478	0.154506	0.360951
N119	N	1.131954	-0.383566	-0.223251
N120	N	1.631954	0.116434	0.276749
