data_functionalizedCrystal
_audit_creation_method	'MofGen! by Chris Wilmer'
_symmetry_space_group_name_H-M	'P1'
_symmetry_Int_Tables_number	1
_symmetry_cell_setting	triclinic
loop_
_symmetry_equiv_pos_as_xyz
  x,y,z
_cell_length_a	11.792254
_cell_length_b	11.792254
_cell_length_c	14.048226
_cell_angle_alpha	89.993407
_cell_angle_beta	89.993605
_cell_angle_gamma	84.198598
loop_
_atom_site_label
_atom_site_type_symbol
_atom_site_fract_x
_atom_site_fract_y
_atom_site_fract_z
O1	O	1.506910	0.155638	-0.079160
O2	O	1.840244	0.488971	0.254173
O3	O	2.173577	0.822305	0.587506
O4	O	1.176572	0.171656	-0.079162
O5	O	1.509905	0.504989	0.254171
O6	O	1.843238	0.838322	0.587504
O7	O	1.349750	-0.001522	-0.079155
O8	O	1.683083	0.331811	0.254179
O9	O	2.016417	0.665144	0.587512
O10	O	1.333732	0.328816	-0.079168
O11	O	1.667065	0.662149	0.254165
O12	O	2.000399	0.995483	0.587499
O13	O	1.349729	-0.001533	0.079167
O14	O	1.683062	0.331801	0.412500
O15	O	2.016396	0.665134	0.745833
O16	O	1.176551	0.171645	0.079159
O17	O	1.509884	0.504979	0.412492
O18	O	1.843217	0.838312	0.745826
O19	O	1.506889	0.155628	0.079161
O20	O	1.840223	0.488961	0.412494
O21	O	2.173556	0.822294	0.745828
Zn22	Zn	1.341717	0.163635	0.104297
Zn23	Zn	1.675050	0.496968	0.437630
Zn24	Zn	2.008383	0.830301	0.770964
Zn25	Zn	1.341744	0.163648	-0.104298
Zn26	Zn	1.675078	0.496982	0.229035
Zn27	Zn	2.008411	0.830315	0.562368
O28	O	1.333711	0.328806	0.079153
O29	O	1.667044	0.662139	0.412487
O30	O	2.000378	0.995472	0.745820
C31	C	1.134271	0.170642	-0.000002
C32	C	1.467604	0.503975	0.333331
C33	C	1.800937	0.837308	0.666665
C34	C	1.008257	0.167621	-0.000003
C35	C	1.341591	0.500955	0.333331
C36	C	1.674924	0.834288	0.666664
C37	C	1.348730	-0.043818	0.000006
C38	C	1.682064	0.289515	0.333339
C39	C	2.015397	0.622848	0.666672
C40	C	1.345710	-0.169832	0.000005
C41	C	1.679044	0.163502	0.333338
C42	C	2.012377	0.496835	0.666672
C43	C	0.905921	0.165168	-0.000007
C44	C	1.239254	0.498501	0.333327
C45	C	1.572587	0.831834	0.666660
C46	C	0.777534	0.162099	-0.000007
C47	C	1.110867	0.495432	0.333326
C48	C	1.444201	0.828766	0.666660
C49	C	1.343256	-0.272168	0.000002
C50	C	1.676590	0.061165	0.333335
C51	C	2.009923	0.394498	0.666668
C52	C	1.340188	-0.400555	-0.000007
C53	C	1.673521	-0.067222	0.333326
C54	C	2.006855	0.266112	0.666659
C55	C	1.549190	0.156642	-0.000001
C56	C	1.882524	0.489975	0.333332
C57	C	2.215857	0.823308	0.666665
C58	C	1.675204	0.159662	-0.000007
C59	C	2.008537	0.492995	0.333326
C60	C	2.341870	0.826329	0.666660
C61	C	1.334731	0.371102	-0.000009
C62	C	1.668064	0.704435	0.333324
C63	C	2.001397	1.037768	0.666657
C64	C	1.337751	0.497115	-0.000015
C65	C	1.671084	0.830448	0.333319
C66	C	2.004417	1.163781	0.666652
N67	N	1.341706	0.163625	0.246658
N68	N	1.675039	0.496958	0.579991
N69	N	2.008373	0.830291	0.913324
N70	N	1.341764	0.163649	-0.246659
N71	N	1.675097	0.496983	0.086674
N72	N	2.008431	0.830316	0.420008
C73	C	1.418414	0.086973	0.296479
C74	C	1.751747	0.420307	0.629812
C75	C	2.085080	0.753640	0.963146
C76	C	1.418421	0.086973	0.396137
C77	C	1.751755	0.420306	0.729470
C78	C	2.085088	0.753640	1.062803
C79	C	1.341726	0.163630	0.445971
C80	C	1.675059	0.496963	0.779304
C81	C	2.008393	0.830297	1.112638
C82	C	1.265010	0.240285	0.396143
C83	C	1.598343	0.573618	0.729476
C84	C	1.931677	0.906951	1.062809
C85	C	1.264998	0.240279	0.296487
C86	C	1.598331	0.573612	0.629820
C87	C	1.931664	0.906946	0.963153
C88	C	1.265043	0.240293	0.603857
C89	C	1.598376	0.573627	0.937190
C90	C	1.931710	0.906960	1.270523
C91	C	1.265056	0.240301	0.703520
C92	C	1.598390	0.573634	1.036853
C93	C	1.931723	0.906967	1.370186
C94	C	1.418466	0.086987	0.703507
C95	C	1.751800	0.420320	1.036840
C96	C	2.085133	0.753654	1.370174
C97	C	1.418454	0.086981	0.603851
C98	C	1.751788	0.420315	0.937184
C99	C	2.085121	0.753648	1.270518
C100	C	1.341739	0.163638	0.554029
C101	C	1.675073	0.496971	0.887363
C102	C	2.008406	0.830305	1.220696
H103	H	1.480873	0.024555	0.255911
H104	H	1.814206	0.357889	0.589244
H105	H	2.147539	0.691222	0.922577
Cl106	Cl	1.514854	-0.009392	0.458771
Cl107	Cl	1.848188	0.323942	0.792105
Cl108	Cl	2.181521	0.657275	1.125438
H109	H	1.480930	0.024571	0.744077
H110	H	1.814263	0.357904	1.077411
H111	H	2.147596	0.691237	1.410744
H112	H	1.480911	0.024567	0.563276
H113	H	1.814244	0.357900	0.896609
H114	H	2.147577	0.691234	1.229943
Cl115	Cl	1.168632	0.336672	0.766161
Cl116	Cl	1.501965	0.670005	1.099494
Cl117	Cl	1.835298	1.003338	1.432828
Cl118	Cl	1.168596	0.336662	0.541228
Cl119	Cl	1.501929	0.669995	0.874561
Cl120	Cl	1.835262	1.003328	1.207894
H121	H	1.202557	0.302697	0.436723
H122	H	1.535891	0.636030	0.770057
H123	H	1.869224	0.969363	1.103390
Cl124	Cl	1.168556	0.336641	0.233855
Cl125	Cl	1.501890	0.669975	0.567188
Cl126	Cl	1.835223	1.003308	0.900521
