data_functionalizedCrystal
_audit_creation_method	'MofGen! by Chris Wilmer'
_symmetry_space_group_name_H-M	'P1'
_symmetry_Int_Tables_number	1
_symmetry_cell_setting	triclinic
loop_
_symmetry_equiv_pos_as_xyz
  x,y,z
_cell_length_a	18.050590
_cell_length_b	18.050589
_cell_length_c	18.050583
_cell_angle_alpha	90.031709
_cell_angle_beta	89.999666
_cell_angle_gamma	89.976137
loop_
_atom_site_label
_atom_site_type_symbol
_atom_site_fract_x
_atom_site_fract_y
_atom_site_fract_z
Zn1	Zn	1.135267	0.295821	-0.419625
Zn2	Zn	1.635267	0.795821	0.080375
Zn3	Zn	1.135161	0.420034	-0.295445
Zn4	Zn	1.635161	0.920034	0.204555
Zn5	Zn	1.011084	0.295839	-0.295483
Zn6	Zn	1.511084	0.795839	0.204517
Zn7	Zn	1.011020	0.419950	-0.419628
Zn8	Zn	1.511020	0.919950	0.080372
O9	O	1.073133	0.357911	-0.357545
O10	O	1.573133	0.857911	0.142455
O11	O	1.239178	0.312326	-0.403135
O12	O	1.739178	0.812326	0.096865
O13	O	1.118685	0.403602	-0.191526
O14	O	1.618685	0.903602	0.308474
O15	O	1.027628	0.191912	-0.311966
O16	O	1.527628	0.691912	0.188034
O17	O	1.239100	0.403585	-0.311901
O18	O	1.739100	0.903585	0.188099
O19	O	1.118865	0.191899	-0.403173
O20	O	1.618865	0.691899	0.096827
O21	O	1.027525	0.312356	-0.191554
O22	O	1.527525	0.812356	0.308446
O23	O	0.907151	0.312275	-0.311968
O24	O	1.407151	0.812275	0.188032
O25	O	1.027519	0.403442	-0.523552
O26	O	1.527519	0.903442	-0.023552
O27	O	0.907104	0.403459	-0.403177
O28	O	1.407104	0.903459	0.096823
O29	O	1.118803	0.312245	-0.523550
O30	O	1.618803	0.812245	-0.023550
O31	O	1.118623	0.523948	-0.311903
O32	O	1.618623	1.023948	0.188097
O33	O	1.027417	0.523886	-0.403140
O34	O	1.527417	1.023886	0.096860
C35	C	0.880181	0.357860	-0.357577
C36	C	1.380181	0.857860	0.142423
C37	C	0.797635	0.357857	-0.357609
C38	C	1.297635	0.857857	0.142391
C39	C	0.598181	0.407584	-0.407090
C40	C	1.098181	0.907584	0.092910
C41	C	0.548796	0.339865	-0.425360
C42	C	1.048796	0.839865	0.074640
C43	C	0.646505	0.357898	-0.357572
C44	C	1.146505	0.857898	0.142428
C45	C	0.548808	0.425656	-0.339302
C46	C	1.048808	0.925656	0.160698
C47	C	0.500520	0.357944	-0.357539
C48	C	1.000520	0.857944	0.142461
C49	C	0.598207	0.290143	-0.375878
C50	C	1.098207	0.790143	0.124122
C51	C	0.598224	0.375979	-0.289788
C52	C	1.098224	0.875979	0.210212
C53	C	0.548861	0.308213	-0.308032
C54	C	1.048861	0.808213	0.191968
C55	C	0.730603	0.357872	-0.357594
C56	C	1.230603	0.857872	0.142406
C57	C	0.416423	0.357962	-0.357517
C58	C	0.916423	0.857962	0.142483
C59	C	1.073022	0.550863	-0.357534
C60	C	1.573022	1.050863	0.142466
C61	C	1.073042	0.633409	-0.357554
C62	C	1.573042	1.133409	0.142446
C63	C	1.023470	0.832853	-0.407151
C64	C	1.523470	1.332853	0.092849
C65	C	1.005366	0.882300	-0.339389
C66	C	1.505366	1.382300	0.160611
C67	C	1.073098	0.784539	-0.357564
C68	C	1.573098	1.284539	0.142436
C69	C	1.091222	0.882174	-0.425334
C70	C	1.591222	1.382174	0.074666
C71	C	1.073150	0.930524	-0.357580
C72	C	1.573150	1.430524	0.142420
C73	C	1.054958	0.832899	-0.289766
C74	C	1.554958	1.332899	0.210234
C75	C	1.140846	0.832769	-0.375757
C76	C	1.640846	1.332769	0.124243
C77	C	1.122767	0.882193	-0.307948
C78	C	1.622767	1.382193	0.192052
C79	C	1.073066	0.700441	-0.357556
C80	C	1.573066	1.200441	0.142444
C81	C	1.073183	1.014621	-0.357580
C82	C	1.573183	1.514621	0.142420
C83	C	1.266839	0.357963	-0.357514
C84	C	1.766839	0.857963	0.142486
C85	C	1.349384	0.357984	-0.357500
C86	C	1.849384	0.857984	0.142500
C87	C	1.073166	0.357832	-0.551251
C88	C	1.573166	0.857832	-0.051251
C89	C	1.073180	0.357798	-0.633797
C90	C	1.573180	0.857798	-0.133797
C91	C	1.073237	1.164205	-0.357574
C92	C	1.573237	1.664205	0.142426
C93	C	1.073209	1.081660	-0.357589
C94	C	1.573209	1.581660	0.142411
C95	C	1.122870	0.308181	-0.833247
C96	C	1.622870	0.808181	-0.333247
C97	C	1.055138	0.289992	-0.882659
C98	C	1.555138	0.789992	-0.382659
C99	C	1.073210	0.357785	-0.784927
C100	C	1.573210	0.857785	-0.284927
C101	C	1.140969	0.375927	-0.882597
C102	C	1.640969	0.875927	-0.382597
C103	C	1.073244	0.357772	-0.930912
C104	C	1.573244	0.857772	-0.430912
C105	C	1.005442	0.339561	-0.833252
C106	C	1.505442	0.839561	-0.333252
C107	C	1.091318	0.425528	-0.833186
C108	C	1.591318	0.925528	-0.333186
C109	C	1.023540	0.407365	-0.882576
C110	C	1.523540	0.907365	-0.382576
C111	C	1.073191	0.357791	-0.700829
C112	C	1.573191	0.857791	-0.200829
C113	C	1.073256	0.357766	-1.015009
C114	C	1.573256	0.857766	-0.515009
C115	C	1.073143	0.357936	-0.164593
C116	C	1.573143	0.857936	0.335407
C117	C	1.073273	0.357761	-0.082048
C118	C	1.573273	0.857761	0.417952
H119	H	0.527342	0.266166	-0.266143
H120	H	1.027342	0.766166	0.233857
H121	H	0.619952	0.391278	-0.232495
H122	H	1.119952	0.891278	0.267505
H123	H	1.106532	0.903819	-0.482641
H124	H	1.606532	1.403819	0.017359
H125	H	0.527106	0.482939	-0.323865
H126	H	1.027106	0.982939	0.176135
O127	O	1.209126	0.806824	-0.394263
O128	O	1.709126	1.306824	0.105737
C129	C	1.228002	0.831899	-0.465773
C130	C	1.728002	1.331899	0.034227
H131	H	1.175360	0.845791	-0.497781
H132	H	1.675360	1.345791	0.002219
H133	H	1.259857	0.786646	-0.496250
H134	H	1.759857	1.286646	0.003750
H135	H	1.264053	0.883536	-0.461115
H136	H	1.764053	1.383536	0.038885
H137	H	0.981447	0.811188	-0.449026
H138	H	1.481447	1.311188	0.050974
O139	O	0.936999	0.908224	-0.321154
O140	O	1.436999	1.408224	0.178846
C141	C	0.884812	0.883074	-0.373552
C142	C	1.384812	1.383074	0.126448
H143	H	0.914306	0.869157	-0.427647
H144	H	1.414306	1.369157	0.072353
H145	H	0.841951	0.928293	-0.383940
H146	H	1.341951	1.428293	0.116060
H147	H	0.855980	0.831438	-0.351441
H148	H	1.355980	1.331438	0.148559
O149	O	1.036869	0.221696	-0.908721
O150	O	1.536869	0.721696	-0.408721
C151	C	1.036513	0.222825	-0.986821
C152	C	1.536513	0.722825	-0.486821
H153	H	1.027818	0.282046	-1.006944
H154	H	1.527818	0.782046	-0.506944
H155	H	0.989691	0.186244	-1.008214
H156	H	1.489691	0.686244	-0.508214
H157	H	1.091742	0.201097	-1.008460
H158	H	1.591742	0.701097	-0.508460
O159	O	0.623935	0.457717	-0.457052
O160	O	1.123935	0.957717	0.042948
C161	C	0.597702	0.528905	-0.438387
C162	C	1.097702	1.028905	0.061613
H163	H	0.545355	0.523595	-0.403464
H164	H	1.045355	1.023595	0.096536
H165	H	0.584606	0.561004	-0.491164
H166	H	1.084606	1.061004	0.008836
H167	H	0.641933	0.559683	-0.405443
H168	H	1.141933	1.059683	0.094557
O169	O	1.172806	0.258009	-0.807433
O170	O	1.672806	0.758009	-0.307433
C171	C	1.153458	0.186655	-0.832659
C172	C	1.653458	0.686655	-0.332659
H173	H	1.091861	0.185237	-0.846529
H174	H	1.591861	0.685237	-0.346529
H175	H	1.165861	0.144296	-0.787505
H176	H	1.665861	0.644296	-0.287505
H177	H	1.187005	0.172732	-0.884340
H178	H	1.687005	0.672732	-0.384340
O179	O	1.036591	0.807066	-0.221432
O180	O	1.536591	1.307066	0.278568
C181	C	1.036772	0.728959	-0.222252
C182	C	1.536772	1.228959	0.277748
H183	H	1.028468	0.708482	-0.281425
H184	H	1.528468	1.208482	0.218575
H185	H	0.989941	0.707452	-0.185766
H186	H	1.489941	1.207452	0.314234
H187	H	1.092053	0.707785	-0.200228
H188	H	1.592053	1.207785	0.299772
O189	O	0.624014	0.221831	-0.394503
O190	O	1.124014	0.721831	0.105497
C191	C	0.667473	0.227116	-0.459187
C192	C	1.167473	0.727116	0.040813
H193	H	0.651043	0.278901	-0.491370
H194	H	1.151043	0.778901	0.008630
H195	H	0.658016	0.176071	-0.495178
H196	H	1.158016	0.676071	0.004822
H197	H	0.728503	0.230647	-0.443321
H198	H	1.228503	0.730647	0.056679
H199	H	1.164758	0.903721	-0.265971
H200	H	1.664758	1.403721	0.234029
H201	H	1.198257	0.391276	-0.904276
H202	H	1.698257	0.891276	-0.404276
H203	H	0.948138	0.324144	-0.811667
H204	H	1.448138	0.824144	-0.311667
H205	H	0.527084	0.324587	-0.482669
H206	H	1.027084	0.824587	0.017331
H207	H	0.981511	0.449308	-0.904099
H208	H	1.481511	0.949308	-0.404099
H209	H	1.106645	0.482806	-0.811441
H210	H	1.606645	0.982806	-0.311441
