data_functionalizedCrystal
_audit_creation_method	'MofGen! by Chris Wilmer'
_symmetry_space_group_name_H-M	'P1'
_symmetry_Int_Tables_number	1
_symmetry_cell_setting	triclinic
loop_
_symmetry_equiv_pos_as_xyz
  x,y,z
_cell_length_a	14.908571
_cell_length_b	13.897448
_cell_length_c	13.897441
_cell_angle_alpha	89.971988
_cell_angle_beta	93.314722
_cell_angle_gamma	93.284087
loop_
_atom_site_label
_atom_site_type_symbol
_atom_site_fract_x
_atom_site_fract_y
_atom_site_fract_z
Zn1	Zn	1.379248	0.469208	0.630374
Zn2	Zn	1.712582	0.802541	0.963708
Zn3	Zn	2.045915	1.135874	1.297041
Zn4	Zn	1.379144	0.630523	0.469077
Zn5	Zn	1.712477	0.963856	0.802410
Zn6	Zn	2.045811	1.297189	1.135743
Zn7	Zn	1.228377	0.459928	0.459798
Zn8	Zn	1.561711	0.793261	0.793131
Zn9	Zn	1.895044	1.126594	1.126464
Zn10	Zn	1.228355	0.621139	0.621039
Zn11	Zn	1.561689	0.954472	0.954372
Zn12	Zn	1.895022	1.287805	1.287706
O13	O	1.303781	0.545199	0.545072
O14	O	1.637115	0.878532	0.878405
O15	O	1.970448	1.211866	1.211739
O16	O	1.505480	0.498417	0.616768
O17	O	1.838813	0.831751	0.950101
O18	O	2.172147	1.165084	1.283435
O19	O	1.359110	0.607937	0.332862
O20	O	1.692444	0.941270	0.666195
O21	O	2.025777	1.274603	0.999529
O22	O	1.248444	0.326180	0.482448
O23	O	1.581777	0.659514	0.815782
O24	O	1.915110	0.992847	1.149115
O25	O	1.505404	0.616935	0.498263
O26	O	1.838737	0.950268	0.831597
O27	O	2.172070	1.283602	1.164930
O28	O	1.359288	0.332998	0.607770
O29	O	1.692621	0.666332	0.941104
O30	O	2.025954	0.999665	1.274437
O31	O	1.248343	0.482601	0.326045
O32	O	1.581676	0.815934	0.659378
O33	O	1.915009	1.149268	0.992711
O34	O	1.102129	0.473502	0.473396
O35	O	1.435462	0.806835	0.806730
O36	O	1.768796	1.140168	1.140063
O37	O	1.248406	0.600941	0.757261
O38	O	1.581739	0.934274	1.090595
O39	O	1.915073	1.267608	1.423928
O40	O	1.102113	0.591943	0.591860
O41	O	1.435446	0.925276	0.925193
O42	O	1.768779	1.258609	1.258527
O43	O	1.359266	0.489318	0.764120
O44	O	1.692600	0.822651	1.097453
O45	O	2.025933	1.155985	1.430786
O46	O	1.359089	0.764256	0.489211
O47	O	1.692422	1.097590	0.822545
O48	O	2.025756	1.430923	1.155878
O49	O	1.248305	0.757362	0.600857
O50	O	1.581638	1.090695	0.934191
O51	O	1.914972	1.424029	1.267524
C52	C	1.069387	0.530698	0.530609
C53	C	1.402720	0.864031	0.863942
C54	C	1.736053	1.197364	1.197275
C55	C	0.969112	0.524517	0.524444
C56	C	1.302445	0.857850	0.857778
C57	C	1.635778	1.191184	1.191111
C58	C	0.780716	0.636427	0.636051
C59	C	1.114049	0.969760	0.969384
C60	C	1.447382	1.303094	1.302717
C61	C	0.686498	0.630623	0.630262
C62	C	1.019832	0.963956	0.963595
C63	C	1.353165	1.297289	1.296929
C64	C	0.686458	0.507100	0.507084
C65	C	1.019791	0.840433	0.840417
C66	C	1.353125	1.173767	1.173750
C67	C	0.780675	0.512904	0.512872
C68	C	1.114009	0.846237	0.846206
C69	C	1.447342	1.179571	1.179539
C70	C	0.827801	0.577571	0.577357
C71	C	1.161134	0.910904	0.910690
C72	C	1.494468	1.244237	1.244024
C73	C	0.922020	0.583379	0.583140
C74	C	1.255353	0.916713	0.916474
C75	C	1.588687	1.250046	1.249807
C76	C	0.921978	0.459852	0.459967
C77	C	1.255311	0.793186	0.793301
C78	C	1.588644	1.126519	1.126634
C79	C	0.827760	0.454048	0.454179
C80	C	1.161094	0.787381	0.787512
C81	C	1.494427	1.120715	1.120845
C82	C	1.303708	0.795809	0.545051
C83	C	1.637041	1.129142	0.878384
C84	C	1.970374	1.462476	1.211717
C85	C	1.303759	0.903026	0.545079
C86	C	1.637092	1.236359	0.878412
C87	C	1.970426	1.569693	1.211746
C88	C	1.303848	1.099327	0.545154
C89	C	1.637181	1.432660	0.878487
C90	C	1.970514	1.765993	1.211821
C91	C	1.303796	0.990091	0.545115
C92	C	1.637129	1.323424	0.878448
C93	C	1.970462	1.656758	1.211782
C94	C	1.539091	0.559758	0.559592
C95	C	1.872424	0.893091	0.892925
C96	C	2.205758	1.226425	1.226259
C97	C	1.639366	0.565962	0.565780
C98	C	1.972700	0.899296	0.899113
C99	C	2.306033	1.232629	1.232446
C100	C	1.303845	0.545118	0.796669
C101	C	1.637179	0.878451	1.130002
C102	C	1.970512	1.211785	1.463336
C103	C	1.303873	0.545083	0.903885
C104	C	1.637206	0.878417	1.237218
C105	C	1.970539	1.211750	1.570551
C106	C	1.303872	1.293612	0.545127
C107	C	1.637205	1.626945	0.878460
C108	C	1.970539	1.960278	1.211793
C109	C	1.303891	1.186399	0.545178
C110	C	1.637224	1.519732	0.878511
C111	C	1.970558	1.853066	1.211844
C112	C	1.303769	0.545214	0.294457
C113	C	1.637103	0.878547	0.627790
C114	C	1.970436	1.211880	0.961123
C115	C	1.303917	0.544987	0.187252
C116	C	1.637250	0.878321	0.520586
C117	C	1.970584	1.211654	0.853919
C118	C	1.303897	0.545019	1.100181
C119	C	1.637230	0.878353	1.433515
C120	C	1.970564	1.211686	1.766848
C121	C	1.303881	0.545057	0.990948
C122	C	1.637214	0.878391	1.324281
C123	C	1.970547	1.211724	1.657614
H124	H	0.648072	0.454445	0.454590
H125	H	0.981405	0.787779	0.787923
H126	H	1.314739	1.121112	1.121256
H127	H	0.648165	0.678547	0.678058
H128	H	0.981499	1.011881	1.011392
H129	H	1.314832	1.345214	1.344725
H130	H	0.960388	0.636036	0.635646
H131	H	1.293722	0.969369	0.968979
H132	H	1.627055	1.302702	1.302312
H133	H	0.819086	0.689086	0.688552
H134	H	1.152419	1.022420	1.021885
H135	H	1.485753	1.355753	1.355218
Br136	Br	0.763796	0.366284	0.366675
Br137	Br	1.097130	0.699618	0.700008
Br138	Br	1.430463	1.032951	1.033341
H139	H	0.960324	0.411929	0.412172
H140	H	1.293658	0.745263	0.745506
H141	H	1.626991	1.078596	1.078839
