data_functionalizedCrystal
_audit_creation_method	'MofGen! by Chris Wilmer'
_symmetry_space_group_name_H-M	'P1'
_symmetry_Int_Tables_number	1
_symmetry_cell_setting	triclinic
loop_
_symmetry_equiv_pos_as_xyz
  x,y,z
_cell_length_a	12.759401
_cell_length_b	16.120444
_cell_length_c	12.759393
_cell_angle_alpha	87.135249
_cell_angle_beta	90.020938
_cell_angle_gamma	92.928028
loop_
_atom_site_label
_atom_site_type_symbol
_atom_site_fract_x
_atom_site_fract_y
_atom_site_fract_z
Zn1	Zn	1.584977	-0.331834	0.615188
Zn2	Zn	1.575922	-0.471270	0.448403
Zn3	Zn	1.409273	-0.331878	0.439526
Zn4	Zn	1.400325	-0.471211	0.624037
O5	O	1.492624	-0.401548	0.531788
O6	O	1.730796	-0.350336	0.593076
O7	O	1.553771	-0.452822	0.300207
O8	O	1.440114	-0.215206	0.455410
O9	O	1.724144	-0.452779	0.470539
O10	O	1.569203	-0.215173	0.584468
O11	O	1.431334	-0.350411	0.293685
O12	O	1.261065	-0.350355	0.463990
O13	O	1.424865	-0.452680	0.769881
O14	O	1.254492	-0.452723	0.599549
O15	O	1.560527	-0.350279	0.763380
O16	O	1.545095	-0.587928	0.479119
O17	O	1.416085	-0.587885	0.608156
C18	C	1.219658	-0.401538	0.531767
C19	C	1.102880	-0.401554	0.531784
C20	C	1.478665	-0.618157	0.545584
C21	C	1.472789	-0.710823	0.551521
C22	C	1.044617	-0.454938	0.602269
C23	C	0.934893	-0.454941	0.602290
C24	C	0.941704	-0.348174	0.461332
C25	C	1.051426	-0.348167	0.461317
C26	C	0.783078	-0.484856	0.728059
C27	C	0.724811	-0.538253	0.798535
C28	C	0.755189	-0.619614	0.819673
C29	C	0.843831	-0.647595	0.770320
C30	C	0.902092	-0.594203	0.699836
C31	C	0.871716	-0.512830	0.678718
C32	C	1.203243	-0.318261	0.335547
C33	C	1.261506	-0.264872	0.265057
C34	C	1.231130	-0.183509	0.243908
C35	C	1.142485	-0.155530	0.293243
C36	C	1.084222	-0.208919	0.363733
C37	C	1.114605	-0.290282	0.384883
C38	C	1.523362	-0.921766	0.501216
C39	C	1.462081	-0.880479	0.562372
C40	C	1.468041	-0.786073	0.556333
C41	C	1.517404	-1.016180	0.507254
C42	C	1.766657	-0.401559	0.531811
C43	C	1.883433	-0.401564	0.531820
C44	C	1.492708	-0.401468	0.805817
C45	C	1.492744	-0.401434	0.922591
C46	C	1.506667	-0.184094	0.517962
C47	C	1.512651	-0.091428	0.512070
C48	C	1.492605	-0.401568	0.258822
C49	C	1.492788	-0.401367	0.142033
C50	C	1.563389	-0.348106	0.974069
C51	C	1.563409	-0.348070	1.083791
C52	C	1.422135	-0.454698	1.090548
C53	C	1.422111	-0.454729	0.980828
C54	C	1.607332	-0.249706	1.227495
C55	C	1.677993	-0.196385	1.278977
C56	C	1.781326	-0.183601	1.242570
C57	C	1.814018	-0.224150	1.154683
C58	C	1.743362	-0.277477	1.103207
C59	C	1.640015	-0.290245	1.139611
C60	C	1.378199	-0.553093	0.837122
C61	C	1.307548	-0.606425	0.785644
C62	C	1.204212	-0.619218	0.822050
C63	C	1.171523	-0.578684	0.909941
C64	C	1.242175	-0.525352	0.961419
C65	C	1.345509	-0.512558	0.925006
H66	H	1.086508	-0.498406	0.659650
H67	H	1.580298	-0.886216	0.444326
H68	H	1.146691	-0.662653	0.780132
N69	N	0.997688	-0.624372	0.646600
H70	H	1.008091	-0.684020	0.670679
H71	H	1.061488	-0.588529	0.665441
N72	N	1.293960	-0.125918	0.167876
H73	H	1.294323	-0.150596	0.096669
H74	H	1.368359	-0.118460	0.194136
N75	N	1.386637	-0.927569	0.637716
H76	H	1.346564	-0.886860	0.677684
H77	H	1.427132	-0.963640	0.688642
N78	N	1.345970	-0.512176	1.153379
H79	H	1.358429	-0.571752	1.138079
H80	H	1.271768	-0.499157	1.133429
H81	H	0.652639	-0.515462	0.838719
N82	N	0.692343	-0.677200	0.895692
H83	H	0.738704	-0.695454	0.955826
H84	H	0.664643	-0.727556	0.858357
H85	H	1.462341	-0.542675	0.807467
H86	H	1.620900	-0.304707	0.926656
H87	H	1.215551	-0.492347	1.032985
H88	H	1.117740	-0.089283	0.276006
H89	H	1.087380	-0.589103	0.939586
H90	H	1.769981	-0.310494	1.031655
H91	H	0.868550	-0.713852	0.787528
N92	N	1.342799	-0.650134	0.690836
H93	H	1.282362	-0.685860	0.663750
H94	H	1.402633	-0.686290	0.711159
N95	N	0.750313	-0.397098	0.705261
H96	H	0.751180	-0.366415	0.772385
H97	H	0.677141	-0.398641	0.674966
H98	H	1.012047	-0.186130	0.403910
H99	H	1.838858	-0.140185	1.284495
N100	N	0.886206	-0.290617	0.385305
H101	H	0.807855	-0.298729	0.395998
H102	H	0.904531	-0.303541	0.311074
H103	H	1.898166	-0.213742	1.125054
H104	H	1.651365	-0.163370	1.350535
N105	N	1.495876	-0.263492	1.266766
H106	H	1.456072	-0.303422	1.220818
H107	H	1.460756	-0.208688	1.264423
N108	N	1.357119	-0.295047	0.211847
H109	H	1.389415	-0.248881	0.163981
H110	H	1.335894	-0.344333	0.169322
H111	H	1.227990	-0.384511	0.352771
