data_functionalizedCrystal
_audit_creation_method	'MofGen! by Chris Wilmer'
_symmetry_space_group_name_H-M	'P1'
_symmetry_Int_Tables_number	1
_symmetry_cell_setting	triclinic
loop_
_symmetry_equiv_pos_as_xyz
  x,y,z
_cell_length_a	21.295411
_cell_length_b	21.295418
_cell_length_c	16.959454
_cell_angle_alpha	90.035890
_cell_angle_beta	89.986811
_cell_angle_gamma	89.956262
loop_
_atom_site_label
_atom_site_type_symbol
_atom_site_fract_x
_atom_site_fract_y
_atom_site_fract_z
Zn1	Zn	-0.356271	0.962401	-0.314438
Zn2	Zn	-0.022937	1.295735	0.018895
Zn3	Zn	0.310396	1.629068	0.352229
Zn4	Zn	-0.251012	0.962323	-0.446599
Zn5	Zn	0.082322	1.295656	-0.113266
Zn6	Zn	0.415655	1.628990	0.220068
Zn7	Zn	-0.250980	0.857125	-0.314475
Zn8	Zn	0.082353	1.190458	0.018858
Zn9	Zn	0.415686	1.523791	0.352192
Zn10	Zn	-0.356208	0.857113	-0.446615
Zn11	Zn	-0.022875	1.190446	-0.113281
Zn12	Zn	0.310459	1.523780	0.220052
O13	O	-0.303618	0.909741	-0.380532
O14	O	0.029716	1.243074	-0.047198
O15	O	0.363049	1.576407	0.286135
O16	O	-0.342347	1.050480	-0.331947
O17	O	-0.009014	1.383814	0.001386
O18	O	0.324320	1.717147	0.334719
O19	O	-0.162918	0.948340	-0.429082
O20	O	0.170415	1.281673	-0.095748
O21	O	0.503749	1.615007	0.237585
O22	O	-0.264961	0.871127	-0.203859
O23	O	0.068373	1.204461	0.129474
O24	O	0.401706	1.537794	0.462807
O25	O	-0.265014	1.050423	-0.429046
O26	O	0.068320	1.383756	-0.095712
O27	O	0.401653	1.717089	0.237621
O28	O	-0.342317	0.948474	-0.203832
O29	O	-0.008983	1.281807	0.129501
O30	O	0.324350	1.615140	0.462835
O31	O	-0.162895	0.871051	-0.332011
O32	O	0.170438	1.204385	0.001323
O33	O	0.503772	1.537718	0.334656
O34	O	-0.264900	0.769034	-0.332026
O35	O	0.068433	1.102367	0.001308
O36	O	0.401767	1.435700	0.334641
O37	O	-0.444306	0.871108	-0.429072
O38	O	-0.110972	1.204441	-0.095739
O39	O	0.222361	1.537775	0.237594
O40	O	-0.342210	0.769025	-0.429108
O41	O	-0.008877	1.102359	-0.095775
O42	O	0.324457	1.435692	0.237558
O43	O	-0.444352	0.948463	-0.331963
O44	O	-0.111018	1.281796	0.001371
O45	O	0.222315	1.615129	0.334704
O46	O	-0.264953	0.948329	-0.557212
O47	O	0.068380	1.281662	-0.223879
O48	O	0.401714	1.614996	0.109455
O49	O	-0.342240	0.871032	-0.557224
O50	O	-0.008907	1.204365	-0.223890
O51	O	0.324426	1.537699	0.109443
C52	C	-0.303545	0.746189	-0.380573
C53	C	0.029788	1.079522	-0.047240
C54	C	0.363121	1.412856	0.286093
C55	C	-0.303529	0.676221	-0.380610
C56	C	0.029804	1.009554	-0.047277
C57	C	0.363138	1.342887	0.286057
C58	C	-0.343724	0.643366	-0.431228
C59	C	-0.010391	0.976700	-0.097895
C60	C	0.322942	1.310033	0.235439
C61	C	-0.343753	0.577624	-0.431208
C62	C	-0.010419	0.910957	-0.097875
C63	C	0.322914	1.244290	0.235458
C64	C	-0.303574	0.544738	-0.380579
C65	C	0.029759	0.878072	-0.047246
C66	C	0.363092	1.211405	0.286087
C67	C	-0.263376	0.577601	-0.329952
C68	C	0.069957	0.910934	0.003381
C69	C	0.403290	1.244267	0.336715
C70	C	-0.263354	0.643342	-0.329967
C71	C	0.069980	0.976675	0.003366
C72	C	0.403313	1.310009	0.336699
N73	N	-0.248516	0.441461	-0.374393
N74	N	0.084817	0.774795	-0.041059
N75	N	0.418151	1.108128	0.292274
N76	N	-0.248539	0.379010	-0.374383
N77	N	0.084794	0.712343	-0.041049
N78	N	0.418127	1.045677	0.292284
C79	C	-0.303641	0.346664	-0.380529
C80	C	0.029692	0.679997	-0.047196
C81	C	0.363026	1.013330	0.286138
N82	N	-0.358720	0.379128	-0.386701
N83	N	-0.025387	0.712461	-0.053368
N84	N	0.307947	1.045795	0.279966
N85	N	-0.358696	0.441585	-0.386715
N86	N	-0.025363	0.774918	-0.053382
N87	N	0.307971	1.108252	0.279952
C88	C	-0.303595	0.473453	-0.380557
C89	C	0.029739	0.806786	-0.047224
C90	C	0.363072	1.140120	0.286110
C91	C	-0.343871	0.242524	-0.431128
C92	C	-0.010537	0.575857	-0.097795
C93	C	0.322796	0.909190	0.235538
C94	C	-0.343900	0.176780	-0.431103
C95	C	-0.010566	0.510113	-0.097770
C96	C	0.322767	0.843447	0.235563
C97	C	-0.263518	0.176758	-0.329851
C98	C	0.069816	0.510091	0.003482
C99	C	0.403149	0.843425	0.336816
C100	C	-0.263494	0.242501	-0.329872
C101	C	0.069839	0.575834	0.003461
C102	C	0.403173	0.909167	0.336795
C103	C	-0.303670	0.275379	-0.380515
C104	C	0.029664	0.608713	-0.047181
C105	C	0.362997	0.942046	0.286152
C106	C	-0.467808	0.909793	-0.380515
C107	C	-0.134475	1.243126	-0.047182
C108	C	0.198859	1.576459	0.286152
C109	C	-0.537776	0.909815	-0.380508
C110	C	-0.204443	1.243148	-0.047175
C111	C	0.128891	1.576482	0.286159
C112	C	-0.570668	0.950092	-0.329941
C113	C	-0.237334	1.283425	0.003393
C114	C	0.095999	1.616759	0.336726
C115	C	-0.636410	0.950091	-0.329906
C116	C	-0.303077	1.283424	0.003427
C117	C	0.030256	1.616758	0.336760
C118	C	-0.669259	0.909820	-0.380453
C119	C	-0.335925	1.243153	-0.047120
C120	C	-0.002592	1.576487	0.286213
C121	C	-0.636359	0.869535	-0.431024
C122	C	-0.303026	1.202868	-0.097691
C123	C	0.030308	1.536202	0.235642
C124	C	-0.570618	0.869533	-0.431052
C125	C	-0.237285	1.202866	-0.097718
C126	C	0.096049	1.536199	0.235615
N127	N	-0.772481	0.904973	-0.449602
N128	N	-0.439147	1.238307	-0.116269
N129	N	-0.105814	1.571640	0.217065
N130	N	-0.834932	0.904979	-0.449574
N131	N	-0.501599	1.238313	-0.116240
N132	N	-0.168265	1.571646	0.217093
C133	C	-0.867334	0.909824	-0.380373
C134	C	-0.534000	1.243157	-0.047040
C135	C	-0.200667	1.576491	0.286293
N136	N	-0.834924	0.914675	-0.311201
N137	N	-0.501591	1.248008	0.022133
N138	N	-0.168258	1.581341	0.355466
N139	N	-0.772467	0.914672	-0.311230
N140	N	-0.439134	1.248005	0.022104
N141	N	-0.105800	1.581339	0.355437
C142	C	-0.740544	0.909818	-0.380429
C143	C	-0.407211	1.243151	-0.047096
C144	C	-0.073877	1.576484	0.286237
C145	C	-0.971511	0.950102	-0.329765
C146	C	-0.638177	1.283435	0.003569
C147	C	-0.304844	1.616769	0.336902
C148	C	-1.037254	0.950097	-0.329729
C149	C	-0.703921	1.283430	0.003604
C150	C	-0.370588	1.616763	0.336938
C151	C	-1.037202	0.869544	-0.430854
C152	C	-0.703869	1.202877	-0.097521
C153	C	-0.370535	1.536211	0.235813
C154	C	-0.971460	0.869546	-0.430883
C155	C	-0.638126	1.202879	-0.097549
C156	C	-0.304793	1.536213	0.235784
C157	C	-0.938618	0.909828	-0.380339
C158	C	-0.605285	1.243162	-0.047006
C159	C	-0.271951	1.576495	0.286328
C160	C	-0.140066	0.909725	-0.380491
C161	C	0.193267	1.243058	-0.047158
C162	C	0.526601	1.576391	0.286175
C163	C	-0.070098	0.909824	-0.380276
C164	C	0.263235	1.243158	-0.046942
C165	C	0.596568	1.576491	0.286391
C166	C	-0.303607	0.909688	-0.585898
C167	C	0.029726	1.243021	-0.252565
C168	C	0.363060	1.576354	0.080769
C169	C	-0.303623	0.909723	-0.673755
C170	C	0.029710	1.243056	-0.340421
C171	C	0.363043	1.576389	-0.007088
C172	C	-0.303691	1.073931	-0.380491
C173	C	0.029643	1.407264	-0.047157
C174	C	0.362976	1.740597	0.286176
C175	C	-0.303722	1.143899	-0.380473
C176	C	0.029611	1.477232	-0.047140
C177	C	0.362945	1.810566	0.286194
C178	C	-0.343857	0.869550	-1.045266
C179	C	-0.010524	1.202884	-0.711933
C180	C	0.322810	1.536217	-0.378599
C181	C	-0.263443	0.950106	-1.045194
C182	C	0.069891	1.283439	-0.711861
C183	C	0.403224	1.616773	-0.378527
C184	C	-0.263437	0.950084	-0.962648
C185	C	0.069897	1.283417	-0.629315
C186	C	0.403230	1.616751	-0.295982
C187	C	-0.303641	0.909794	-0.921407
C188	C	0.029692	1.243127	-0.588074
C189	C	0.363026	1.576461	-0.254741
C190	C	-0.343851	0.869526	-0.962713
C191	C	-0.010518	1.202859	-0.629379
C192	C	0.322816	1.536192	-0.296046
C193	C	-0.223223	0.990347	-0.921337
C194	C	0.110110	1.323680	-0.588004
C195	C	0.443444	1.657014	-0.254670
C196	C	-0.223215	0.990326	-0.838786
C197	C	0.110118	1.323660	-0.505453
C198	C	0.443452	1.656993	-0.172119
C199	C	-0.263423	0.950039	-0.797544
C200	C	0.069910	1.283372	-0.464210
C201	C	0.403244	1.616705	-0.130877
C202	C	-0.303635	0.909769	-0.838854
C203	C	0.029698	1.243103	-0.505521
C204	C	0.363032	1.576436	-0.172187
C205	C	-0.343839	0.869479	-0.797613
C206	C	-0.010506	1.202812	-0.464280
C207	C	0.322827	1.536146	-0.130947
C208	C	-0.384055	0.829213	-0.838922
C209	C	-0.050722	1.162546	-0.505589
C210	C	0.282612	1.495879	-0.172255
C211	C	-0.384059	0.829238	-0.921470
C212	C	-0.050726	1.162572	-0.588137
C213	C	0.282608	1.495905	-0.254804
C214	C	-0.263419	0.950013	-0.714995
C215	C	0.069914	1.283346	-0.381662
C216	C	0.403248	1.616680	-0.048329
C217	C	-0.343833	0.869455	-0.715060
C218	C	-0.010500	1.202788	-0.381726
C219	C	0.322833	1.536121	-0.048393
C220	C	-0.303642	0.909811	-0.174363
C221	C	0.029691	1.243144	0.158970
C222	C	0.363024	1.576477	0.492303
C223	C	-0.303653	0.909840	-0.086507
C224	C	0.029681	1.243174	0.246826
C225	C	0.363014	1.576507	0.580160
H226	H	-0.376587	0.269295	-0.472361
H227	H	-0.043254	0.602628	-0.139028
H228	H	0.290080	0.935962	0.194306
H229	H	-0.230673	0.982795	-0.681366
H230	H	0.102660	1.316128	-0.348032
H231	H	0.435994	1.649461	-0.014699
H232	H	-0.663109	0.836744	-0.472178
H233	H	-0.329775	1.170077	-0.138844
H234	H	0.003558	1.503411	0.194489
Cl235	Cl	-0.394234	0.684696	-0.494890
Cl236	Cl	-0.060900	1.018029	-0.161556
Cl237	Cl	0.272433	1.351363	0.171777
H238	H	-0.376636	0.150031	-0.472321
H239	H	-0.043302	0.483364	-0.138988
H240	H	0.290031	0.816697	0.194346
H241	H	-0.230622	0.670092	-0.288746
H242	H	0.102712	1.003425	0.044588
H243	H	0.436045	1.336758	0.377921
Cl244	Cl	-0.529384	1.000729	-0.266395
Cl245	Cl	-0.196051	1.334062	0.066938
Cl246	Cl	0.137282	1.667396	0.400271
H247	H	-0.190470	1.023114	-0.805158
H248	H	0.142863	1.356447	-0.471824
H249	H	0.476197	1.689780	-0.138491
Cl250	Cl	-0.172688	1.040998	-0.973185
Cl251	Cl	0.160645	1.374331	-0.639852
Cl252	Cl	0.493979	1.707665	-0.306519
Cl253	Cl	-0.529266	0.818895	-0.494628
Cl254	Cl	-0.195933	1.152228	-0.161295
Cl255	Cl	0.137400	1.485562	0.172039
Cl256	Cl	-0.394288	0.536312	-0.494848
Cl257	Cl	-0.060954	0.869645	-0.161514
Cl258	Cl	0.272379	1.202979	0.171819
Cl259	Cl	-0.394382	0.818804	-0.663221
Cl260	Cl	-0.061049	1.152138	-0.329887
Cl261	Cl	0.272284	1.485471	0.003446
H262	H	-1.064034	0.982894	-0.288546
H263	H	-0.730700	1.316227	0.044787
H264	H	-0.397367	1.649561	0.378120
Cl265	Cl	-0.930221	1.000738	-0.266221
Cl266	Cl	-0.596888	1.334071	0.067112
Cl267	Cl	-0.263554	1.667405	0.400445
H268	H	-0.230664	0.550821	-0.288728
H269	H	0.102669	0.884155	0.044605
H270	H	0.436003	1.217488	0.377939
H271	H	-0.230807	0.149984	-0.288624
H272	H	0.102527	0.483317	0.044709
H273	H	0.435860	0.816650	0.378042
H274	H	-0.230760	0.269251	-0.288657
H275	H	0.102574	0.602584	0.044676
H276	H	0.435907	0.935918	0.378009
Cl277	Cl	-1.078491	0.818911	-0.494393
Cl278	Cl	-0.745158	1.152244	-0.161060
Cl279	Cl	-0.411824	1.485578	0.172274
H280	H	-0.944679	0.836752	-0.472065
H281	H	-0.611346	1.170085	-0.138732
H282	H	-0.278012	1.503419	0.194602
H283	H	-0.416787	0.796405	-0.805334
H284	H	-0.083454	1.129738	-0.472001
H285	H	0.249880	1.463072	-0.138667
H286	H	-0.416800	0.796455	-0.955111
H287	H	-0.083466	1.129788	-0.621778
H288	H	0.249867	1.463121	-0.288444
H289	H	-0.663196	0.982888	-0.288724
H290	H	-0.329863	1.316221	0.044609
H291	H	0.003471	1.649555	0.377943
H292	H	-0.230706	0.982905	-1.078777
H293	H	0.102627	1.316238	-0.745444
H294	H	0.435960	1.649571	-0.412111
Cl295	Cl	-0.394414	0.818935	-1.097194
Cl296	Cl	-0.061081	1.152268	-0.763861
Cl297	Cl	0.272253	1.485602	-0.430527
