data_functionalizedCrystal
_audit_creation_method	'MofGen! by Chris Wilmer'
_symmetry_space_group_name_H-M	'P1'
_symmetry_Int_Tables_number	1
_symmetry_cell_setting	triclinic
loop_
_symmetry_equiv_pos_as_xyz
  x,y,z
_cell_length_a	19.077236
_cell_length_b	18.101397
_cell_length_c	19.076919
_cell_angle_alpha	87.731459
_cell_angle_beta	90.112677
_cell_angle_gamma	92.313125
loop_
_atom_site_label
_atom_site_type_symbol
_atom_site_fract_x
_atom_site_fract_y
_atom_site_fract_z
Zn1	Zn	1.058310	-0.268826	0.440528
Zn2	Zn	1.062958	-0.387506	0.323016
Zn3	Zn	0.945525	-0.268438	0.318308
Zn4	Zn	0.940778	-0.397386	0.435753
O5	O	1.001893	-0.330539	0.379401
O6	O	1.157260	-0.280597	0.428908
O7	O	1.051312	-0.367414	0.224061
O8	O	0.960528	-0.164856	0.334549
O9	O	1.160675	-0.367791	0.342572
O10	O	1.043390	-0.165141	0.424344
O11	O	0.965035	-0.279935	0.220602
O12	O	0.846562	-0.289515	0.329919
O13	O	0.952437	-0.384630	0.534717
O14	O	0.843074	-0.384253	0.416206
O15	O	1.038787	-0.290177	0.538225
O16	O	1.046709	-0.492450	0.337942
O17	O	0.956944	-0.499709	0.420770
C18	C	0.819321	-0.337915	0.372034
C19	C	0.741216	-0.341089	0.368899
C20	C	0.702742	-0.297261	0.412445
C21	C	0.629353	-0.300239	0.409493
C22	C	0.594441	-0.347050	0.362998
C23	C	0.632920	-0.390879	0.319447
C24	C	0.706307	-0.387896	0.322396
C25	C	0.375148	-0.360827	0.349348
C26	C	0.301756	-0.363808	0.346404
C27	C	0.298194	-0.273166	0.436449
C28	C	0.371583	-0.270191	0.439397
C29	C	0.410056	-0.314017	0.395843
N30	N	0.519426	-0.350097	0.359981
N31	N	0.485069	-0.310966	0.398857
C32	C	1.001834	-0.522950	0.379365
C33	C	1.001872	-0.605263	0.379375
C34	C	1.001959	-0.904353	0.379443
C35	C	1.058291	-0.868430	0.327179
C36	C	1.058473	-0.782810	0.327327
C37	C	1.001916	-0.755971	0.379409
C38	C	1.019012	-0.789424	0.454283
C39	C	1.019443	-0.875039	0.454003
C40	C	0.928361	-0.875038	0.357469
C41	C	0.928795	-0.789301	0.355830
C42	C	1.001890	-0.672112	0.379394
C43	C	1.001987	-0.988213	0.379463
C44	C	1.185177	-0.323135	0.386798
C45	C	1.263282	-0.319980	0.389950
C46	C	0.994564	-0.338549	0.562680
C47	C	0.991440	-0.341962	0.640783
C48	C	1.001970	-0.137376	0.379454
C49	C	1.002003	-0.055061	0.379477
C50	C	1.009234	-0.322505	0.196837
C51	C	1.012493	-0.318878	0.118741
C52	C	1.034929	-0.294391	0.679303
C53	C	1.031986	-0.297596	0.752688
C54	C	0.985557	-0.348375	0.787552
C55	C	0.942064	-0.395948	0.749027
C56	C	0.945004	-0.392739	0.675642
C57	C	0.971940	-0.363242	1.006831
C58	C	0.969005	-0.366448	1.080220
C59	C	1.058926	-0.268095	1.083877
C60	C	1.061864	-0.264894	1.010491
C61	C	1.018369	-0.312464	0.971972
N62	N	0.982549	-0.351654	0.862564
N63	N	1.021374	-0.309181	0.896962
H64	H	1.048123	-0.759941	0.271903
C65	C	1.132208	-0.752787	0.347284
N66	N	1.187748	-0.730175	0.362315
C67	C	0.255868	-0.224947	0.484343
N68	N	0.223988	-0.188621	0.520413
C69	C	0.911300	-0.759512	0.281375
N70	N	0.898123	-0.737068	0.225297
C71	C	1.092003	-0.899933	0.478671
N72	N	1.146659	-0.918679	0.497249
C73	C	0.741139	-0.245764	0.463593
N74	N	0.770057	-0.206973	0.502117
H75	H	0.598031	-0.264551	0.444954
H76	H	1.048099	-0.887152	0.271596
C77	C	0.871708	-0.906982	0.408843
N78	N	0.829042	-0.931046	0.447540
H79	H	1.112574	-0.888227	0.341798
H80	H	0.931195	-0.407801	1.108604
H81	H	0.936533	-0.401987	0.975478
C82	C	1.106759	-0.215763	1.126254
N83	N	1.142785	-0.176340	1.158172
C84	C	1.086003	-0.238529	0.640960
N85	N	1.124472	-0.196449	0.612082
H86	H	0.980048	-0.899138	0.494448
H87	H	0.406464	-0.396514	0.313884
C88	C	0.965107	-0.766482	0.508482
N89	N	0.924506	-0.749199	0.549305
C90	C	0.890985	-0.451799	0.787379
N91	N	0.852511	-0.493867	0.816265
C92	C	0.409981	-0.218688	0.490539
N93	N	0.438903	-0.179895	0.529059
H94	H	0.273332	-0.401930	0.308541
H95	H	1.072101	-0.766460	0.472796
C96	C	0.594514	-0.442371	0.268301
N97	N	0.565586	-0.481157	0.229778
H98	H	0.737632	-0.423585	0.286935
C99	C	0.906576	-0.902138	0.284774
N100	N	0.890175	-0.922549	0.230017
H101	H	0.884806	-0.771253	0.390870
C102	C	0.897165	-0.445072	0.633270
N103	N	0.861129	-0.484490	0.601357
H104	H	1.067400	-0.258861	0.784049
C105	C	1.112932	-0.209025	0.972147
N106	N	1.151397	-0.166944	0.943265
