data_functionalizedCrystal
_audit_creation_method	'MofGen! by Chris Wilmer'
_symmetry_space_group_name_H-M	'P1'
_symmetry_Int_Tables_number	1
_symmetry_cell_setting	triclinic
loop_
_symmetry_equiv_pos_as_xyz
  x,y,z
_cell_length_a	12.759401
_cell_length_b	21.295417
_cell_length_c	12.759393
_cell_angle_alpha	89.960830
_cell_angle_beta	89.981433
_cell_angle_gamma	90.029551
loop_
_atom_site_label
_atom_site_type_symbol
_atom_site_fract_x
_atom_site_fract_y
_atom_site_fract_z
Zn1	Zn	1.606140	-0.250588	-0.593928
Zn2	Zn	2.106140	0.249412	-0.093928
Zn3	Zn	1.605986	-0.355872	-0.418225
Zn4	Zn	2.105986	0.144128	0.081775
Zn5	Zn	1.430442	-0.250619	-0.418267
Zn6	Zn	1.930442	0.249381	0.081733
Zn7	Zn	1.430382	-0.355822	-0.593866
Zn8	Zn	1.930382	0.144178	-0.093866
O9	O	1.518237	-0.303225	-0.506071
O10	O	2.018237	0.196775	-0.006071
O11	O	1.753141	-0.264563	-0.570629
O12	O	2.253141	0.235437	-0.070629
O13	O	1.582660	-0.341944	-0.271209
O14	O	2.082660	0.158056	0.228791
O15	O	1.453838	-0.162526	-0.441612
O16	O	1.953838	0.337474	0.058388
O17	O	1.753027	-0.341914	-0.441540
O18	O	2.253027	0.158086	0.058460
O19	O	1.582923	-0.162503	-0.570670
O20	O	2.082923	0.337497	-0.070670
O21	O	1.453689	-0.264615	-0.271240
O22	O	1.953689	0.235385	0.228760
O23	O	1.283413	-0.264566	-0.441552
O24	O	1.783413	0.235434	0.058448
O25	O	1.453736	-0.341828	-0.740895
O26	O	1.953736	0.158172	-0.240895
O27	O	1.283369	-0.341858	-0.570564
O28	O	1.783369	0.158142	-0.070564
O29	O	1.582865	-0.264514	-0.740941
O30	O	2.082865	0.235486	-0.240941
O31	O	1.582602	-0.443955	-0.441480
O32	O	2.082602	0.056045	0.058520
O33	O	1.453587	-0.443918	-0.570523
O34	O	1.953587	0.056082	-0.070523
C35	C	1.245270	-0.303210	-0.506057
C36	C	1.745270	0.196790	-0.006057
C37	C	1.128493	-0.303219	-0.506075
C38	C	1.628493	0.196781	-0.006075
C39	C	1.073683	-0.263018	-0.573396
C40	C	1.573683	0.236982	-0.073396
C41	C	0.963959	-0.263030	-0.573402
C42	C	1.463959	0.236970	-0.073402
C43	C	0.963865	-0.343450	-0.438765
C44	C	1.463865	0.156550	0.061235
C45	C	1.073587	-0.343434	-0.438754
C46	C	1.573587	0.156566	0.061246
C47	C	1.073737	-0.216591	-0.651131
C48	C	1.573737	0.283409	-0.151131
C49	C	0.964013	-0.216603	-0.651137
C50	C	1.464013	0.283397	-0.151137
C51	C	1.518100	-0.466777	-0.506013
C52	C	2.018100	0.033223	-0.006013
C53	C	1.518137	-0.536745	-0.506023
C54	C	2.018137	-0.036745	-0.006023
C55	C	1.585375	-0.569610	-0.438900
C56	C	2.085375	-0.069610	0.061100
C57	C	1.585424	-0.635353	-0.438923
C58	C	2.085424	-0.135353	0.061077
C59	C	1.518217	-0.668227	-0.506060
C60	C	2.018217	-0.168227	-0.006060
C61	C	1.450974	-0.635355	-0.573196
C62	C	1.950974	-0.135355	-0.073196
C63	C	1.450934	-0.569613	-0.573178
C64	C	1.950934	-0.069613	-0.073178
N65	N	1.426309	-0.771492	-0.514064
N66	N	1.926309	-0.271492	-0.014064
N67	N	1.426350	-0.833943	-0.514075
N68	N	1.926350	-0.333943	-0.014075
C69	C	1.518334	-0.866302	-0.506120
C70	C	2.018334	-0.366302	-0.006120
N71	N	1.610278	-0.833850	-0.498132
N72	N	2.110278	-0.333850	0.001868
N73	N	1.610236	-0.771393	-0.498116
N74	N	2.110236	-0.271393	0.001884
C75	C	1.518253	-0.739513	-0.506087
C76	C	2.018253	-0.239513	-0.006087
C77	C	1.585631	-0.970453	-0.439018
C78	C	2.085631	-0.470453	0.060982
C79	C	1.585682	-1.036196	-0.439049
C80	C	2.085682	-0.536196	0.060951
C81	C	1.451223	-1.036197	-0.573317
C82	C	1.951223	-0.536197	-0.073317
C83	C	1.451181	-0.970455	-0.573291
C84	C	1.951181	-0.470455	-0.073291
C85	C	1.518384	-0.937586	-0.506136
C86	C	2.018384	-0.437586	-0.006136
C87	C	1.792271	-0.303241	-0.506087
C88	C	2.292271	0.196759	-0.006087
C89	C	1.909047	-0.303247	-0.506093
C90	C	2.409047	0.196753	-0.006093
C91	C	1.518311	-0.303162	-0.780105
C92	C	2.018311	0.196838	-0.280105
C93	C	1.518342	-0.303135	-0.896881
C94	C	2.018342	0.196865	-0.396881
C95	C	1.518404	-0.139035	-0.506153
C96	C	2.018404	0.360965	-0.006153
C97	C	1.518475	-0.069067	-0.506187
C98	C	2.018475	0.430933	-0.006187
C99	C	1.585589	-0.262873	-0.951769
C100	C	2.085589	0.237127	-0.451769
C101	C	1.585614	-0.262850	-1.061493
C102	C	2.085614	0.237150	-0.561493
C103	C	1.451143	-0.343356	-1.061433
C104	C	1.951143	0.156644	-0.561433
C105	C	1.451113	-0.343375	-0.951711
C106	C	1.951113	0.156625	-0.451711
C107	C	1.663228	-0.216396	-0.951805
C108	C	2.163228	0.283604	-0.451805
C109	C	1.663253	-0.216373	-1.061529
C110	C	2.163253	0.283627	-0.561529
C111	C	1.518225	-0.303243	-0.233104
C112	C	2.018225	0.196757	0.266896
C113	C	1.518397	-0.303093	-0.116328
C114	C	2.018397	0.196907	0.383672
H115	H	0.919147	-0.376192	-0.383955
H116	H	1.419147	0.123808	0.116045
H117	H	1.640098	-0.542851	-0.384221
H118	H	2.140098	-0.042851	0.115779
Br119	Br	1.130512	-0.245786	-0.779854
Br120	Br	1.630512	0.254214	-0.279854
H121	H	1.634161	-0.170052	-1.095587
H122	H	2.134161	0.329948	-0.595587
Br123	Br	1.123398	-0.135300	-0.615066
Br124	Br	1.623398	0.364700	-0.115066
H125	H	1.396425	-0.943694	-0.627945
H126	H	1.896425	-0.443694	-0.127945
H127	H	0.929993	-0.170271	-0.622148
H128	H	1.429993	0.329729	-0.122148
Br129	Br	0.914415	-0.238468	-0.786691
Br130	Br	1.414415	0.261532	-0.286691
Br131	Br	1.626986	-0.135144	-0.902217
Br132	Br	2.126986	0.364856	-0.402217
H133	H	1.396255	-0.662125	-0.627861
H134	H	1.896255	-0.162125	-0.127861
H135	H	1.740492	-0.233873	-0.917765
H136	H	2.240492	0.266127	-0.417765
Br137	Br	1.676682	-0.679965	-0.347821
Br138	Br	2.176682	-0.179965	0.152179
Br139	Br	1.798865	-0.238125	-1.111167
Br140	Br	2.298865	0.261875	-0.611167
H141	H	1.396180	-0.542854	-0.627840
H142	H	1.896180	-0.042854	-0.127840
Br143	Br	1.676953	-1.080801	-0.347955
Br144	Br	2.176953	-0.580801	0.152045
Br145	Br	1.147970	-0.397973	-0.347351
Br146	Br	1.647970	0.102027	0.152649
H147	H	1.640355	-0.943690	-0.384340
H148	H	2.140355	-0.443690	0.115660
Br149	Br	1.360021	-1.080806	-0.664443
Br150	Br	1.860021	-0.580806	-0.164443
H151	H	1.396351	-0.376158	-0.907025
H152	H	1.896351	0.123842	-0.407025
H153	H	1.396405	-0.376117	-1.106088
H154	H	1.896405	0.123883	-0.606088
