data_functionalizedCrystal
_audit_creation_method	'MofGen! by Chris Wilmer'
_symmetry_space_group_name_H-M	'P1'
_symmetry_Int_Tables_number	1
_symmetry_cell_setting	triclinic
loop_
_symmetry_equiv_pos_as_xyz
  x,y,z
_cell_length_a	15.298206
_cell_length_b	15.296118
_cell_length_c	12.759393
_cell_angle_alpha	80.281079
_cell_angle_beta	99.668792
_cell_angle_gamma	91.653272
loop_
_atom_site_label
_atom_site_type_symbol
_atom_site_fract_x
_atom_site_fract_y
_atom_site_fract_z
Zn1	Zn	1.278653	-0.580332	-0.218764
Zn2	Zn	1.778653	-0.080332	0.281236
Zn3	Zn	1.253203	-0.726862	-0.018651
Zn4	Zn	1.753203	-0.226862	0.481349
Zn5	Zn	1.132179	-0.555049	-0.077772
Zn6	Zn	1.632179	-0.055049	0.422228
Zn7	Zn	1.106827	-0.701478	-0.228962
Zn8	Zn	1.606827	-0.201478	0.271038
O9	O	1.192715	-0.640930	-0.136037
O10	O	1.692715	-0.140930	0.363963
O11	O	1.397836	-0.620974	-0.163208
O12	O	1.897836	-0.120974	0.336792
O13	O	1.237108	-0.704112	0.120528
O14	O	1.737108	-0.204112	0.620528
O15	O	1.172870	-0.435798	-0.116949
O16	O	1.672870	0.064202	0.383051
O17	O	1.379138	-0.728628	-0.016186
O18	O	1.879138	-0.228628	0.483814
O19	O	1.280484	-0.454373	-0.220535
O20	O	1.780484	0.045627	0.279465
O21	O	1.148192	-0.577882	0.077092
O22	O	1.648192	-0.077882	0.577092
O23	O	1.006257	-0.553269	-0.126838
O24	O	1.506257	-0.053269	0.373162
O25	O	1.129661	-0.685366	-0.374630
O26	O	1.629661	-0.185366	0.125370
O27	O	0.987631	-0.660850	-0.237917
O28	O	1.487631	-0.160850	0.262083
O29	O	1.255901	-0.596361	-0.367138
O30	O	1.755901	-0.096361	0.132862
O31	O	1.212525	-0.846099	-0.026075
O32	O	1.712525	-0.346099	0.473925
O33	O	1.104983	-0.827450	-0.180590
O34	O	1.604983	-0.327450	0.319410
C35	C	0.965166	-0.601562	-0.189900
C36	C	1.465166	-0.101562	0.310100
C37	C	0.867816	-0.584741	-0.212964
C38	C	1.367816	-0.084741	0.287036
C39	C	0.831807	-0.520875	-0.300442
C40	C	1.331807	-0.020875	0.199558
C41	C	0.740343	-0.505063	-0.322115
C42	C	1.240343	-0.005063	0.177885
C43	C	0.684878	-0.553120	-0.256319
C44	C	1.184878	-0.053120	0.243681
C45	C	0.720886	-0.616991	-0.168845
C46	C	1.220886	-0.116991	0.331155
C47	C	0.812359	-0.632800	-0.147164
C48	C	1.312359	-0.132800	0.352836
C49	C	0.665430	-0.665045	-0.103041
C50	C	1.165430	-0.165045	0.396959
C51	C	0.701438	-0.728916	-0.015567
C52	C	1.201438	-0.228916	0.484433
C53	C	0.792903	-0.744723	0.006110
C54	C	1.292903	-0.244723	0.506110
C55	C	0.848368	-0.696666	-0.059687
C56	C	1.348368	-0.196666	0.440313
C57	C	0.573956	-0.649236	-0.124723
C58	C	1.073956	-0.149236	0.375277
C59	C	0.554508	-0.761161	0.028555
C60	C	1.054508	-0.261161	0.528555
C61	C	0.645972	-0.776973	0.050229
C62	C	1.145972	-0.276973	0.550229
C63	C	1.153265	-0.868569	-0.098041
C64	C	1.653265	-0.368569	0.401959
C65	C	1.136468	-0.965967	-0.081802
C66	C	1.636468	-0.465967	0.418198
C67	C	1.072577	-1.002140	-0.020170
C68	C	1.572577	-0.502140	0.479830
C69	C	1.056799	-1.093651	-0.004917
C70	C	1.556799	-0.593651	0.495083
C71	C	1.104905	-1.148998	-0.051302
C72	C	1.604905	-0.648998	0.448698
C73	C	1.168793	-1.112826	-0.112942
C74	C	1.668793	-0.612826	0.387058
C75	C	1.184578	-1.021306	-0.128189
C76	C	1.684578	-0.521306	0.371811
C77	C	1.216906	-1.168165	-0.159322
C78	C	1.716906	-0.668165	0.340678
C79	C	1.280794	-1.131993	-0.220962
C80	C	1.780794	-0.631993	0.279038
C81	C	1.296575	-1.040482	-0.236207
C82	C	1.796575	-0.540482	0.263793
C83	C	1.248469	-0.985134	-0.189822
C84	C	1.748469	-0.485134	0.310178
C85	C	1.201121	-1.259685	-0.144074
C86	C	1.701121	-0.759685	0.355926
C87	C	1.313122	-1.278852	-0.252094
C88	C	1.813122	-0.778852	0.247906
C89	C	1.328900	-1.187340	-0.267347
C90	C	1.828900	-0.687340	0.232653
C91	C	1.421153	-0.680453	-0.081964
C92	C	1.921153	-0.180453	0.418036
C93	C	1.518500	-0.697295	-0.058922
C94	C	2.018500	-0.197295	0.441078
C95	C	1.192792	-0.640852	-0.410071
C96	C	1.692792	-0.140852	0.089929
C97	C	1.192825	-0.640819	-0.526848
C98	C	1.692825	-0.140819	-0.026848
C99	C	1.232344	-0.412407	-0.174199
C100	C	1.732344	0.087593	0.325801
C101	C	1.249231	-0.315024	-0.190462
C102	C	1.749231	0.184976	0.309538
C103	C	1.258566	-0.594470	-0.577809
C104	C	1.758566	-0.094470	-0.077809
C105	C	1.258593	-0.594442	-0.687534
C106	C	1.758593	-0.094442	-0.187534
C107	C	1.127132	-0.687120	-0.695325
C108	C	1.627132	-0.187120	-0.195325
C109	C	1.127103	-0.687142	-0.585604
C110	C	1.627103	-0.187142	-0.085604
C111	C	1.334467	-0.540966	-0.573310
C112	C	1.834467	-0.040966	-0.073310
C113	C	1.334493	-0.540938	-0.683035
C114	C	1.834493	-0.040938	-0.183035
C115	C	1.192700	-0.640953	0.136932
C116	C	1.692700	-0.140953	0.636932
C117	C	1.192880	-0.640769	0.253707
C118	C	1.692880	-0.140769	0.753707
H119	H	0.822218	-0.796724	0.077345
H120	H	1.322218	-0.296724	0.577345
Cl121	Cl	1.120807	-1.305148	-0.066588
Cl122	Cl	1.620807	-0.805148	0.433412
Cl123	Cl	1.409212	-1.141855	-0.344837
Cl124	Cl	1.909212	-0.641855	0.155163
H125	H	1.328063	-0.469972	-0.559174
H126	H	1.828063	0.030028	-0.059174
H127	H	1.352296	-1.323916	-0.289863
H128	H	1.852296	-0.823916	0.210137
H129	H	0.675303	-0.828978	0.121452
H130	H	1.175303	-0.328978	0.621452
H131	H	1.033419	-0.957071	0.017598
H132	H	1.533419	-0.457071	0.517598
H133	H	0.922844	-0.709548	-0.042056
H134	H	1.422844	-0.209548	0.457944
Cl135	Cl	1.044441	-0.745395	-0.521548
Cl136	Cl	1.544441	-0.245395	-0.021548
Cl137	Cl	1.085260	-1.264076	-0.031852
Cl138	Cl	1.585260	-0.764076	0.468148
H139	H	0.509348	-0.800293	0.082131
H140	H	1.009348	-0.300293	0.582131
Cl141	Cl	1.044515	-0.745351	-0.769198
Cl142	Cl	1.544515	-0.245351	-0.269198
Cl143	Cl	0.569893	-0.533243	-0.283571
Cl144	Cl	1.069893	-0.033243	0.216429
Cl145	Cl	1.267983	-0.870032	-0.209451
Cl146	Cl	1.767983	-0.370032	0.290549
H147	H	1.394672	-0.576432	-0.519965
H148	H	1.894672	-0.076432	-0.019965
Cl149	Cl	0.976486	-1.139119	0.072568
Cl150	Cl	1.476486	-0.639119	0.572568
Cl151	Cl	1.376900	-0.995011	-0.313684
Cl152	Cl	1.876900	-0.495011	0.186316
H153	H	1.321381	-0.472267	-0.733587
H154	H	1.821381	0.027733	-0.233587
H155	H	0.544648	-0.597229	-0.195944
H156	H	1.044648	-0.097229	0.304056
Cl157	Cl	0.901538	-0.460465	-0.383141
Cl158	Cl	1.401538	0.039535	0.116859
Cl159	Cl	0.695082	-0.424774	-0.432081
Cl160	Cl	1.195082	0.075226	0.067919
Cl161	Cl	1.434366	-0.587096	-0.699544
Cl162	Cl	1.934366	-0.087096	-0.199544
