data_functionalizedCrystal
_audit_creation_method	'MofGen! by Chris Wilmer'
_symmetry_space_group_name_H-M	'P1'
_symmetry_Int_Tables_number	1
_symmetry_cell_setting	triclinic
loop_
_symmetry_equiv_pos_as_xyz
  x,y,z
_cell_length_a	10.723024
_cell_length_b	10.723024
_cell_length_c	16.053802
_cell_angle_alpha	92.591250
_cell_angle_beta	87.394595
_cell_angle_gamma	84.467869
loop_
_atom_site_label
_atom_site_type_symbol
_atom_site_fract_x
_atom_site_fract_y
_atom_site_fract_z
O1	O	1.662408	0.169819	-0.069422
O2	O	1.299255	0.186572	-0.069424
O3	O	1.489208	-0.003381	-0.069420
O4	O	1.472455	0.359771	-0.069426
O5	O	1.478752	0.007031	0.069439
O6	O	1.288800	0.196984	0.069434
O7	O	1.651952	0.180231	0.069437
Zn8	Zn	1.468716	0.190261	0.091483
Zn9	Zn	1.482492	0.176542	-0.091470
O10	O	1.461999	0.370183	0.069433
C11	C	1.247528	0.190559	0.000005
C12	C	1.108974	0.186911	0.000004
C13	C	1.033991	0.293198	0.000001
C14	C	0.890788	0.289431	0.000000
C15	C	1.482761	-0.044674	0.000009
C16	C	1.479113	-0.183229	0.000006
C17	C	1.585401	-0.258211	0.000005
C18	C	1.581634	-0.401415	0.000002
C19	C	1.703679	0.176244	0.000006
C20	C	1.842234	0.179891	0.000002
C21	C	1.468446	0.411477	0.000002
C22	C	1.472094	0.550031	-0.000000
N23	N	1.459323	0.199622	0.216343
N24	N	1.491894	0.167171	-0.216330
C25	C	1.540178	0.118826	0.260038
C26	C	1.533619	0.125387	0.347445
C27	C	1.446211	0.212750	0.391154
C28	C	1.365347	0.293550	0.347452
C29	C	1.371901	0.286982	0.260047
C30	C	1.417584	0.241403	0.652563
C31	C	1.411039	0.247966	0.739974
C32	C	1.579310	0.079801	0.739961
C33	C	1.585861	0.073247	0.652554
C34	C	1.504993	0.154042	0.608860
N35	N	1.439507	0.219461	0.480498
N36	N	1.511691	0.147324	0.519518
H37	H	0.906659	0.088895	-0.000001
H38	H	1.075813	0.386985	0.000005
H39	H	1.679186	-0.216389	0.000011
H40	H	1.294171	0.364679	0.383045
H41	H	0.826356	0.380421	-0.000005
H42	H	1.381098	-0.385544	0.000006
H43	H	1.385328	-0.225051	-0.000001
C44	C	1.053166	0.061873	-0.000168
C45	C	0.984625	0.047999	-0.071619
C46	C	0.933215	-0.067180	-0.071811
H47	H	0.999216	0.059381	0.048198
H48	H	1.118748	-0.004363	-0.000212
H49	H	0.919051	0.114218	-0.071566
H50	H	1.038547	0.050468	-0.119996
H51	H	0.998798	-0.133416	-0.071856
H52	H	0.879271	-0.069661	-0.023442
H53	H	0.886714	-0.076614	-0.120293
C54	C	1.703076	-0.487180	-0.000129
C55	C	1.777848	-0.469318	-0.071558
C56	C	1.889739	-0.548294	-0.071703
H57	H	1.684599	-0.572055	-0.000174
H58	H	1.746747	-0.467974	0.048269
H59	H	1.734185	-0.488533	-0.119944
H60	H	1.796359	-0.384460	-0.071529
H61	H	1.933411	-0.529087	-0.023304
H62	H	1.871250	-0.633164	-0.071745
H63	H	1.940491	-0.536177	-0.120162
C64	C	1.635124	0.023844	0.212738
C65	C	1.704505	-0.045532	0.269717
C66	C	1.791968	-0.133056	0.226178
H67	H	1.690128	0.066500	0.178626
H68	H	1.592378	-0.031144	0.178671
H69	H	1.747249	0.009448	0.303770
H70	H	1.649535	-0.088215	0.303831
H71	H	1.749222	-0.188044	0.192111
H72	H	1.846963	-0.090390	0.192067
H73	H	1.839046	-0.180146	0.264831
H74	H	1.599457	0.059596	0.383022
H75	H	1.645148	0.014021	0.775545
C76	C	1.680802	-0.021739	0.605252
C77	C	1.750188	-0.091117	0.662228
C78	C	1.837651	-0.178638	0.618684
H79	H	1.735803	0.020921	0.571140
H80	H	1.638055	-0.076726	0.571185
H81	H	1.792933	-0.036139	0.696281
H82	H	1.695222	-0.133804	0.696342
H83	H	1.794904	-0.233625	0.584617
H84	H	1.892643	-0.135967	0.584573
H85	H	1.884732	-0.225729	0.657335
C86	C	1.315989	0.342852	0.787281
C87	C	1.246541	0.412176	0.730309
C88	C	1.158962	0.499575	0.773858
H89	H	1.358607	0.397897	0.821371
H90	H	1.261051	0.300059	0.821371
H91	H	1.301471	0.454966	0.696234
H92	H	1.203896	0.357165	0.696217
H93	H	1.104024	0.456782	0.807947
H94	H	1.201591	0.554611	0.807946
H95	H	1.111824	0.546614	0.735209
C96	C	1.329667	0.328930	0.605082
C97	C	1.256444	0.258002	0.554933
C98	C	1.175434	0.338598	0.511183
H99	H	1.377424	0.378747	0.570907
H100	H	1.276607	0.381889	0.643603
H101	H	1.309499	0.205065	0.516416
H102	H	1.208661	0.208189	0.589087
H103	H	1.122373	0.391557	0.549705
H104	H	1.223201	0.388410	0.477013
H105	H	1.125735	0.290486	0.477158
C106	C	1.284052	0.374859	0.212754
C107	C	1.206123	0.452798	0.269738
C108	C	1.125186	0.533775	0.226203
H109	H	1.234164	0.327074	0.178666
H110	H	1.331907	0.424725	0.178662
H111	H	1.158272	0.402937	0.303814
H112	H	1.255976	0.500610	0.303827
H113	H	1.173041	0.583641	0.192111
H114	H	1.075307	0.485980	0.192117
H115	H	1.072310	0.586674	0.264859
