data_functionalizedCrystal
_audit_creation_method	'MofGen! by Chris Wilmer'
_symmetry_space_group_name_H-M	'P1'
_symmetry_Int_Tables_number	1
_symmetry_cell_setting	triclinic
loop_
_symmetry_equiv_pos_as_xyz
  x,y,z
_cell_length_a	18.101398
_cell_length_b	12.594516
_cell_length_c	18.101389
_cell_angle_alpha	89.983534
_cell_angle_beta	89.977624
_cell_angle_gamma	90.011320
loop_
_atom_site_label
_atom_site_type_symbol
_atom_site_fract_x
_atom_site_fract_y
_atom_site_fract_z
Zn1	Zn	1.132184	-0.423947	-0.418869
Zn2	Zn	1.132117	-0.601927	-0.295040
Zn3	Zn	1.008347	-0.423948	-0.295030
Zn4	Zn	1.008326	-0.601869	-0.418829
O5	O	1.070244	-0.512922	-0.356942
O6	O	1.235808	-0.447580	-0.402464
O7	O	1.115679	-0.578342	-0.191406
O8	O	1.024812	-0.275002	-0.311470
O9	O	1.235759	-0.578341	-0.311488
O10	O	1.115794	-0.275001	-0.402454
O11	O	1.024746	-0.447582	-0.191399
O12	O	0.904712	-0.447526	-0.311431
O13	O	1.024776	-0.578242	-0.522467
O14	O	0.904696	-0.578244	-0.402386
O15	O	1.115774	-0.447524	-0.522497
O16	O	1.115659	-0.750865	-0.311449
O17	O	1.024711	-0.750822	-0.402395
C18	C	0.877833	-0.512879	-0.356904
C19	C	0.795519	-0.512886	-0.356905
C20	C	0.496428	-0.512953	-0.356967
C21	C	0.527738	-0.430298	-0.300020
C22	C	0.613356	-0.430519	-0.299777
C23	C	0.644811	-0.512919	-0.356936
C24	C	0.613714	-0.625038	-0.335619
C25	C	0.528069	-0.624578	-0.335223
C26	C	0.528035	-0.484464	-0.435364
C27	C	0.613685	-0.481967	-0.434936
C28	C	0.728670	-0.512907	-0.356920
C29	C	0.412569	-0.512973	-0.356981
C30	C	1.070195	-0.789463	-0.356935
C31	C	1.070242	-0.907769	-0.356957
C32	C	1.020771	-0.977038	-0.406388
C33	C	1.002731	-1.047884	-0.338810
C34	C	1.088349	-1.047721	-0.424546
C35	C	1.052167	-0.977057	-0.289343
C36	C	1.137816	-0.976888	-0.375124
C37	C	1.119803	-1.047703	-0.307500
C38	C	1.263406	-0.512967	-0.356981
C39	C	1.345720	-0.512985	-0.356998
C40	C	1.070280	-0.512876	-0.550104
C41	C	1.070295	-0.512857	-0.632418
C42	C	1.070313	-0.235302	-0.356966
C43	C	1.070342	-0.116996	-0.356976
C44	C	1.070323	-0.512774	-0.783127
C45	C	1.013079	-0.595002	-0.814462
C46	C	1.012871	-0.594713	-0.900080
C47	C	1.070350	-0.512694	-0.931509
C48	C	1.049443	-0.400450	-0.900417
C49	C	1.049012	-0.400972	-0.814772
C50	C	1.148625	-0.541792	-0.814704
C51	C	1.148221	-0.544220	-0.900354
C52	C	1.070367	-0.512642	-1.015369
C53	C	1.070305	-0.512818	-0.699267
C54	C	1.070250	-0.512892	-0.164532
C55	C	1.070378	-0.512611	-0.082218
H56	H	0.634014	-0.399461	-0.451010
N57	N	1.172548	-0.642754	-0.787605
N58	N	1.132172	-0.694552	-0.744684
H59	H	1.149061	-0.765859	-0.725542
N60	N	0.500945	-0.383691	-0.459676
N61	N	0.458008	-0.331640	-0.419511
H62	H	0.438873	-0.260466	-0.436673
H63	H	1.194903	-0.945682	-0.390507
H64	H	1.163990	-0.626827	-0.920674
H65	H	1.161682	-1.078535	-0.265658
N66	N	0.968187	-0.938101	-0.458740
N67	N	0.916203	-0.880162	-0.437750
H68	H	0.879063	-0.852661	-0.474720
N69	N	1.107500	-1.086664	-0.496243
N70	N	1.068153	-1.064009	-0.550744
H71	H	1.081673	-1.091510	-0.601382
N72	N	1.204570	-0.474579	-0.927204
N73	N	1.188181	-0.400243	-0.969925
H74	H	1.227976	-0.351052	-0.988891
N75	N	1.029212	-0.699125	-0.926446
N76	N	1.040850	-0.772719	-0.881594
H77	H	1.052375	-0.846471	-0.900211
H78	H	0.506194	-0.448917	-0.242266
N79	N	1.029255	-0.699749	-0.788621
N80	N	1.029335	-0.719008	-0.720876
H81	H	1.040763	-0.792988	-0.702620
N82	N	0.640500	-0.552049	-0.491001
N83	N	0.683177	-0.626281	-0.474308
H84	H	0.702095	-0.675808	-0.513899
H85	H	0.508063	-0.648740	-0.277911
H86	H	1.191272	-0.481898	-0.794445
N87	N	0.640563	-0.655889	-0.264494
N88	N	0.621989	-0.743240	-0.237449
H89	H	0.640949	-0.765025	-0.187214
N90	N	0.502635	-0.559963	-0.488608
N91	N	0.521634	-0.551439	-0.554741
H92	H	0.503691	-0.604761	-0.592341
H93	H	0.945632	-1.079093	-0.323460
N94	N	0.940711	-0.571164	-0.787444
N95	N	0.931112	-0.493878	-0.745212
H96	H	0.880003	-0.477041	-0.726127
N97	N	0.502092	-0.704457	-0.384984
N98	N	0.547218	-0.760371	-0.419890
H99	H	0.528876	-0.816790	-0.455030
H100	H	1.036827	-0.946146	-0.232176
H101	H	0.954858	-0.575456	-0.920561
N102	N	0.977219	-0.370169	-0.789709
N103	N	0.927780	-0.348438	-0.835469
H104	H	0.877073	-0.326683	-0.817773
H105	H	1.088907	-0.337594	-0.794043
N106	N	1.100152	-0.321469	-0.925972
N107	N	1.107371	-0.304886	-0.993678
H108	H	1.143185	-0.249109	-1.011731
H109	H	0.992851	-0.375454	-0.921860
H110	H	0.634381	-0.347378	-0.313138
H111	H	0.507152	-0.346903	-0.313233
H112	H	0.634088	-0.688271	-0.375799
N113	N	0.639017	-0.454146	-0.226899
N114	N	0.593672	-0.470531	-0.176059
H115	H	0.611794	-0.487221	-0.124586
