data_functionalizedCrystal
_audit_creation_method	'MofGen! by Chris Wilmer'
_symmetry_space_group_name_H-M	'P1'
_symmetry_Int_Tables_number	1
_symmetry_cell_setting	triclinic
loop_
_symmetry_equiv_pos_as_xyz
  x,y,z
_cell_length_a	17.699097
_cell_length_b	15.944493
_cell_length_c	16.776229
_cell_angle_alpha	89.999222
_cell_angle_beta	89.989262
_cell_angle_gamma	83.381738
loop_
_atom_site_label
_atom_site_type_symbol
_atom_site_fract_x
_atom_site_fract_y
_atom_site_fract_z
O1	O	1.004234	0.106278	-0.066344
O2	O	1.504234	0.606278	0.433656
O3	O	0.783878	0.120086	-0.066330
O4	O	1.283878	0.620086	0.433670
O5	O	0.900096	-0.009109	-0.066344
O6	O	1.400096	0.490891	0.433656
O7	O	0.888015	0.235473	-0.066330
O8	O	1.388015	0.735473	0.433670
O9	O	0.900081	-0.009116	0.066233
O10	O	1.400081	0.490884	0.566233
O11	O	0.783862	0.120078	0.066247
O12	O	1.283862	0.620078	0.566247
O13	O	1.004218	0.106270	0.066232
O14	O	1.504218	0.606270	0.566232
Zn15	Zn	0.894038	0.113173	0.087289
Zn16	Zn	1.394038	0.613173	0.587289
Zn17	Zn	0.894058	0.113183	-0.087386
Zn18	Zn	1.394058	0.613183	0.412614
O19	O	0.888000	0.235465	0.066247
O20	O	1.388000	0.735465	0.566247
C21	C	0.755672	0.119586	-0.000040
C22	C	1.255672	0.619586	0.499960
C23	C	0.671653	0.118096	-0.000035
C24	C	1.171653	0.618096	0.499965
C25	C	0.155929	0.108967	-0.072335
C26	C	0.655929	0.608967	0.427665
C27	C	0.234875	0.110361	-0.072331
C28	C	0.734875	0.610361	0.427669
C29	C	0.274334	0.111055	-0.000060
C30	C	0.774334	0.611055	0.499940
C31	C	0.234843	0.110346	0.072211
C32	C	0.734843	0.610346	0.572211
C33	C	0.155899	0.108946	0.072206
C34	C	0.655899	0.608946	0.572206
C35	C	0.553216	0.115993	0.072232
C36	C	1.053216	0.615993	0.572232
C37	C	0.632165	0.117395	0.072232
C38	C	1.132165	0.617395	0.572232
C39	C	0.632192	0.117407	-0.072305
C40	C	1.132192	0.617407	0.427695
C41	C	0.553248	0.116007	-0.072310
C42	C	1.053248	0.616007	0.427690
C43	C	0.513764	0.115294	-0.000039
C44	C	1.013764	0.615294	0.499961
C45	C	0.428162	0.113781	-0.000044
C46	C	0.928162	0.613781	0.499956
C47	C	0.359934	0.112575	-0.000054
C48	C	0.859934	0.612575	0.499946
C49	C	0.899595	-0.040406	-0.000059
C50	C	1.399595	0.459594	0.499941
C51	C	0.898114	-0.133652	-0.000069
C52	C	1.398114	0.366348	0.499931
C53	C	0.966523	-0.369552	-0.000058
C54	C	1.466523	0.130448	0.499942
C55	C	0.929640	-0.420040	-0.065423
C56	C	1.429640	0.079960	0.434577
C57	C	0.895371	-0.304367	-0.000059
C58	C	1.395371	0.195633	0.499941
C59	C	0.929609	-0.420024	0.065287
C60	C	1.429609	0.079976	0.565287
C61	C	0.892727	-0.469271	-0.000046
C62	C	1.392727	0.030729	0.499954
C63	C	0.858508	-0.353628	-0.065477
C64	C	1.358508	0.146372	0.434523
C65	C	0.858486	-0.353608	0.065291
C66	C	1.358486	0.146392	0.565291
C67	C	0.821552	-0.404064	-0.000089
C68	C	1.321552	0.095936	0.499911
C69	C	0.896897	-0.209370	-0.000067
C70	C	1.396897	0.290630	0.499933
C71	C	0.891196	-0.564265	-0.000044
C72	C	1.391196	-0.064265	0.499956
C73	C	1.032424	0.106771	-0.000059
C74	C	1.532424	0.606771	0.499941
C75	C	1.116443	0.108261	-0.000069
C76	C	1.616443	0.608261	0.499931
C77	C	0.888501	0.266762	-0.000040
C78	C	1.388501	0.766762	0.499960
C79	C	0.889982	0.360008	-0.000035
C80	C	1.389982	0.860008	0.499965
N81	N	0.894029	0.113165	0.206500
N82	N	1.394029	0.613165	0.706500
N83	N	0.894073	0.113184	-0.206598
N84	N	1.394073	0.613184	0.293402
C85	C	0.945507	0.055981	0.248211
C86	C	1.445507	0.555981	0.748211
C87	C	0.945511	0.055981	0.331663
C88	C	1.445511	0.555981	0.831663
C89	C	0.894041	0.113168	0.373403
C90	C	1.394041	0.613168	0.873403
C91	C	0.842558	0.170355	0.331686
C92	C	1.342558	0.670355	0.831686
C93	C	0.842551	0.170351	0.248236
C94	C	1.342551	0.670351	0.748236
C95	C	0.842586	0.170372	0.668234
C96	C	1.342586	0.670372	1.168234
C97	C	0.842598	0.170373	0.751690
C98	C	1.342598	0.670373	1.251690
C99	C	0.945545	0.056001	0.751661
C100	C	1.445545	0.556001	1.251661
C101	C	0.945538	0.055997	0.668210
C102	C	1.445538	0.555997	1.168210
C103	C	0.894053	0.113180	0.626501
C104	C	1.394053	0.613180	1.126501
C105	C	0.894048	0.113179	0.536013
C106	C	1.394048	0.613179	1.036013
C107	C	0.894049	0.113174	0.463890
C108	C	1.394049	0.613174	0.963890
H109	H	0.123750	0.108380	0.131052
H110	H	0.623750	0.608380	0.631052
Cl111	Cl	0.284448	0.111218	0.163066
Cl112	Cl	0.784448	0.611218	0.663066
Cl113	Cl	1.061145	-0.345613	-0.000163
Cl114	Cl	1.561145	0.154387	0.499837
Cl115	Cl	0.503647	0.115138	-0.163168
Cl116	Cl	1.003647	0.615138	0.336832
Cl117	Cl	0.106331	0.108100	-0.163195
Cl118	Cl	0.606331	0.608100	0.336805
Cl119	Cl	1.010247	-0.015896	0.615741
Cl120	Cl	1.510247	0.484104	1.115741
Cl121	Cl	0.777887	0.242271	0.804162
Cl122	Cl	1.277887	0.742271	1.304162
Cl123	Cl	0.726856	-0.427753	-0.000135
Cl124	Cl	1.226856	0.072247	0.499865
Cl125	Cl	1.010268	-0.015892	0.804100
Cl126	Cl	1.510268	0.484108	1.304100
Cl127	Cl	0.681834	0.118298	-0.163162
Cl128	Cl	1.181834	0.618298	0.336838
H129	H	0.987427	0.009416	0.365624
H130	H	1.487427	0.509416	0.865624
H131	H	0.267021	0.110931	-0.131177
H132	H	0.767021	0.610931	0.368823
H133	H	0.800647	0.216916	0.365676
H134	H	1.300647	0.716916	0.865676
Cl135	Cl	0.777867	0.242260	0.615805
Cl136	Cl	1.277867	0.742260	1.115805
H137	H	0.800632	0.216915	0.214276
H138	H	1.300632	0.716915	0.714276
Cl139	Cl	0.681769	0.118267	0.163094
Cl140	Cl	1.181769	0.618267	0.663094
Cl141	Cl	0.812140	-0.308782	0.150621
Cl142	Cl	1.312140	0.191218	0.650621
Cl143	Cl	0.976041	-0.464824	-0.150747
Cl144	Cl	1.476041	0.035176	0.349253
Cl145	Cl	0.503587	0.115119	0.163088
Cl146	Cl	1.003587	0.615119	0.663088
H147	H	0.828483	-0.324743	-0.120797
H148	H	1.328483	0.175257	0.379203
Cl149	Cl	1.010219	-0.015913	0.195747
Cl150	Cl	1.510219	0.484087	0.695747
Cl151	Cl	0.976011	-0.464790	0.150601
Cl152	Cl	1.476011	0.035210	0.650601
