data_functionalizedCrystal
_audit_creation_method	'MofGen! by Chris Wilmer'
_symmetry_space_group_name_H-M	'P1'
_symmetry_Int_Tables_number	1
_symmetry_cell_setting	triclinic
loop_
_symmetry_equiv_pos_as_xyz
  x,y,z
_cell_length_a	23.532355
_cell_length_b	27.731996
_cell_length_c	22.610064
_cell_angle_alpha	89.998076
_cell_angle_beta	89.997644
_cell_angle_gamma	82.724443
loop_
_atom_site_label
_atom_site_type_symbol
_atom_site_fract_x
_atom_site_fract_y
_atom_site_fract_z
O1	O	0.755145	0.058554	-0.049112
O2	O	1.255145	0.558554	0.450888
O3	O	0.589257	0.067071	-0.049132
O4	O	1.089257	0.567071	0.450868
O5	O	0.677368	-0.007579	-0.049108
O6	O	1.177368	0.492421	0.450892
O7	O	0.667033	0.133204	-0.049135
O8	O	1.167033	0.633204	0.450865
O9	O	0.677353	-0.007568	0.049261
O10	O	1.177353	0.492432	0.549261
O11	O	0.589242	0.067082	0.049238
O12	O	1.089242	0.567082	0.549238
O13	O	0.755129	0.058565	0.049257
O14	O	1.255129	0.558565	0.549257
Zn15	Zn	0.672183	0.062825	0.064866
Zn16	Zn	1.172183	0.562825	0.564866
Zn17	Zn	0.672203	0.062811	-0.064740
Zn18	Zn	1.172203	0.562811	0.435260
O19	O	0.667018	0.133215	0.049234
O20	O	1.167018	0.633215	0.549234
C21	C	0.568033	0.066863	0.000051
C22	C	1.068033	0.566863	0.500051
C23	C	0.504816	0.066223	0.000044
C24	C	1.004816	0.566223	0.500044
C25	C	0.112803	0.062208	0.053690
C26	C	0.612803	0.562208	0.553690
C27	C	0.053405	0.061599	0.053693
C28	C	0.553405	0.561599	0.553693
O29	O	0.022680	0.061272	0.099295
O30	O	0.522680	0.561272	0.599295
N31	N	0.023706	0.061291	0.000072
N32	N	0.523706	0.561291	0.500072
C33	C	0.053409	0.061587	-0.053555
C34	C	0.553409	0.561587	0.446445
O35	O	0.022693	0.061269	-0.099163
O36	O	0.522693	0.561269	0.400837
C37	C	0.112806	0.062193	-0.053557
C38	C	0.612806	0.562193	0.446443
C39	C	0.142501	0.062505	0.000068
C40	C	0.642501	0.562505	0.500068
C41	C	0.142499	0.062520	0.107310
C42	C	0.642499	0.562520	0.607310
C43	C	0.201893	0.063130	0.107307
C44	C	0.701893	0.563130	0.607307
C45	C	0.231591	0.063427	0.053685
C46	C	0.731591	0.563427	0.553685
C47	C	0.201895	0.063115	0.000065
C48	C	0.701895	0.563115	0.500065
C49	C	0.142508	0.062485	-0.107183
C50	C	0.642508	0.562485	0.392817
C51	C	0.201910	0.063090	-0.107180
C52	C	0.701910	0.563090	0.392820
C53	C	0.231605	0.063403	-0.053556
C54	C	0.731605	0.563403	0.446444
C55	C	0.290987	0.064023	-0.053560
C56	C	0.790987	0.564023	0.446440
N57	N	0.320686	0.064330	0.000061
N58	N	0.820686	0.564330	0.500061
C59	C	0.290988	0.064033	0.053683
C60	C	0.790988	0.564033	0.553683
C61	C	-0.071330	0.060315	-0.053547
C62	C	0.428670	0.560315	0.446453
C63	C	-0.130727	0.059713	-0.053546
C64	C	0.369273	0.559713	0.446454
C65	C	-0.130726	0.059724	0.053702
C66	C	0.369274	0.559724	0.553702
C67	C	-0.071328	0.060329	0.053700
C68	C	0.428672	0.560329	0.553700
C69	C	-0.041631	0.060623	0.000074
C70	C	0.458369	0.560623	0.500074
C71	C	0.415719	0.065314	0.053674
C72	C	0.915719	0.565314	0.553674
C73	C	0.475118	0.065926	0.053666
C74	C	0.975118	0.565926	0.553666
C75	C	0.475112	0.065912	-0.053581
C76	C	0.975112	0.565912	0.446419
C77	C	0.415718	0.065303	-0.053574
C78	C	0.915718	0.565303	0.446426
C79	C	0.386024	0.065002	0.000058
C80	C	0.886024	0.565002	0.500058
O81	O	0.321750	0.064347	-0.099139
O82	O	0.821750	0.564347	0.400861
O83	O	0.321712	0.064345	0.099284
O84	O	0.821712	0.564345	0.599284
C85	C	0.677148	-0.025581	0.000078
C86	C	1.177148	0.474419	0.500078
C87	C	0.676509	-0.079238	0.000084
C88	C	1.176509	0.420762	0.500084
C89	C	0.672494	-0.411966	-0.053566
C90	C	1.172494	0.088034	0.446434
C91	C	0.670066	-0.613628	-0.053577
C92	C	1.170066	-0.113628	0.446423
O93	O	0.669735	-0.639704	-0.099180
O94	O	1.169735	-0.139704	0.400820
N95	N	0.669756	-0.638839	0.000044
N96	N	1.169756	-0.138839	0.500044
C97	C	0.670049	-0.613632	0.053671
C98	C	1.170049	-0.113632	0.553671
O99	O	0.669724	-0.639703	0.099278
O100	O	1.169724	-0.139703	0.599278
C101	C	0.672473	-0.411971	0.053681
C102	C	1.172473	0.088029	0.553681
C103	C	0.672789	-0.386762	0.000057
C104	C	1.172789	0.113238	0.500057
C105	C	0.672809	-0.386758	-0.107186
C106	C	1.172809	0.113242	0.392814
C107	C	0.673419	-0.336346	-0.107183
C108	C	1.173419	0.163654	0.392817
C109	C	0.673714	-0.311142	-0.053560
C110	C	1.173714	0.188858	0.446440
C111	C	0.673399	-0.336350	0.000060
C112	C	1.173399	0.163650	0.500060
C113	C	0.672762	-0.386764	0.107307
C114	C	1.172762	0.113236	0.607307
C115	C	0.673367	-0.336345	0.107305
C116	C	1.173367	0.163655	0.607305
C117	C	0.673683	-0.311137	0.053681
C118	C	1.173683	0.188863	0.553681
C119	C	0.674304	-0.260735	0.053686
C120	C	1.174304	0.239265	0.553686
N121	N	0.674614	-0.235523	0.000066
N122	N	1.174614	0.264477	0.500066
C123	C	0.674319	-0.260727	-0.053557
C124	C	1.174319	0.239273	0.446443
C125	C	0.668777	-0.719507	0.053662
C126	C	1.168777	-0.219507	0.553662
C127	C	0.668172	-0.769922	0.053659
C128	C	1.168172	-0.269922	0.553659
C129	C	0.668188	-0.769914	-0.053589
C130	C	1.168188	-0.269914	0.446411
C131	C	0.668797	-0.719499	-0.053586
C132	C	1.168797	-0.219499	0.446414
C133	C	0.669087	-0.694295	0.000041
C134	C	1.169087	-0.194295	0.500041
C135	C	0.675601	-0.154858	-0.053547
C136	C	1.175601	0.345142	0.446453
C137	C	0.676214	-0.104442	-0.053539
C138	C	1.176214	0.395558	0.446461
C139	C	0.676195	-0.104454	0.053709
C140	C	1.176195	0.395546	0.553709
C141	C	0.675586	-0.154866	0.053701
C142	C	1.175586	0.345134	0.553701
C143	C	0.675287	-0.180067	0.000069
C144	C	1.175287	0.319933	0.500069
O145	O	0.674630	-0.234627	0.099265
O146	O	1.174630	0.265373	0.599265
O147	O	0.674632	-0.234646	-0.099158
O148	O	1.174632	0.265354	0.400842
C149	C	0.671884	-0.462378	-0.053569
C150	C	1.171884	0.037622	0.446431
C151	C	0.671569	-0.487587	0.000050
C152	C	1.171569	0.012413	0.500050
C153	C	0.671864	-0.462383	0.053673
C154	C	1.171864	0.037617	0.553673
C155	C	0.670964	-0.538002	0.000048
C156	C	1.170964	-0.038002	0.500048
C157	C	0.670669	-0.563205	-0.053575
C158	C	1.170669	-0.063205	0.446425
C159	C	0.670979	-0.537994	-0.107195
C160	C	1.170979	-0.037994	0.392805
C161	C	0.671589	-0.487582	-0.107192
C162	C	1.171589	0.012418	0.392808
C163	C	0.671554	-0.487595	0.107294
C164	C	1.171554	0.012405	0.607294
C165	C	0.670944	-0.538007	0.107286
C166	C	1.170944	-0.038007	0.607286
C167	C	0.670649	-0.563210	0.053663
C168	C	1.170649	-0.063210	0.553663
C169	C	0.776353	0.058772	0.000074
C170	C	1.276353	0.558772	0.500074
C171	C	0.839570	0.059412	0.000077
C172	C	1.339570	0.559412	0.500077
C173	C	0.667238	0.151217	0.000046
C174	C	1.167238	0.651217	0.500046
C175	C	0.667877	0.204874	0.000036
C176	C	1.167877	0.704874	0.500036
N177	N	0.672173	0.062835	0.153318
N178	N	1.172173	0.562835	0.653318
N179	N	0.672218	0.062797	-0.153192
N180	N	1.172218	0.562797	0.346808
C181	C	0.711221	0.029761	0.561970
C182	C	1.211221	0.529761	1.061970
C183	C	0.711224	0.029757	0.623890
C184	C	1.211224	0.529757	1.123890
O185	O	0.744399	0.001644	0.655917
O186	O	1.244399	0.501644	1.155917
N187	N	0.672203	0.062801	0.654855
N188	N	1.172203	0.562801	1.154855
C189	C	0.633173	0.095847	0.623898
C190	C	1.133173	0.595847	1.123898
O191	O	0.599983	0.123952	0.655922
O192	O	1.099983	0.623952	1.155922
C193	C	0.633168	0.095847	0.561979
C194	C	1.133168	0.595847	1.061979
C195	C	0.672195	0.062805	0.531017
C196	C	1.172195	0.562805	1.031017
C197	C	0.750244	-0.003279	0.531008
C198	C	1.250244	0.496721	1.031008
C199	C	0.750242	-0.003275	0.469092
C200	C	1.250242	0.496725	0.969092
C201	C	0.711216	0.029769	0.438139
C202	C	1.211216	0.529769	0.938139
C203	C	0.672193	0.062809	0.469101
C204	C	1.172193	0.562809	0.969101
C205	C	0.594135	0.128890	0.531022
C206	C	1.094135	0.628890	1.031022
C207	C	0.594133	0.128888	0.469099
C208	C	1.094133	0.628888	0.969099
C209	C	0.633160	0.095846	0.438137
C210	C	1.133160	0.595846	0.938137
C211	C	0.633164	0.095858	0.376232
C212	C	1.133164	0.595858	0.876232
N213	N	0.672185	0.062814	0.345267
N214	N	1.172185	0.562814	0.845267
C215	C	0.711211	0.029770	0.376220
C216	C	1.211211	0.529770	0.876220
C217	C	0.633186	0.095842	0.753931
C218	C	1.133186	0.595842	1.253931
C219	C	0.633194	0.095844	0.815849
C220	C	1.133194	0.595844	1.315849
C221	C	0.711244	0.029754	0.815837
C222	C	1.211244	0.529754	1.315837
C223	C	0.711239	0.029754	0.753918
C224	C	1.211239	0.529754	1.253918
C225	C	0.672207	0.062798	0.722966
C226	C	1.172207	0.562798	1.222966
C227	C	0.711203	0.029782	0.246193
C228	C	1.211203	0.529782	0.746193
C229	C	0.711199	0.029790	0.184271
C230	C	1.211199	0.529790	0.684271
C231	C	0.633147	0.095878	0.184289
C232	C	1.133147	0.595878	0.684289
C233	C	0.633153	0.095872	0.246205
C234	C	1.133153	0.595872	0.746205
C235	C	0.672183	0.062820	0.277155
C236	C	1.172183	0.562820	0.777155
O237	O	0.600004	0.123955	0.344165
O238	O	1.100004	0.623955	0.844165
O239	O	0.744391	0.001665	0.344188
O240	O	1.244391	0.501665	0.844188
H241	H	0.676472	-0.083920	-0.097208
H242	H	1.176472	0.416080	0.402792
O243	O	-0.162753	0.059367	-0.111383
O244	O	0.337247	0.559367	0.388617
H245	H	-0.132115	0.059668	-0.148667
H246	H	0.367885	0.559668	0.351333
O247	O	0.753306	-0.005864	0.279564
O248	O	1.253306	0.494136	0.779564
H249	H	0.729557	-0.029263	0.307773
H250	H	1.229557	0.470737	0.807773
H251	H	-0.047154	0.060558	-0.097219
H252	H	0.452846	0.560558	0.402781
O253	O	0.792328	-0.038920	0.435700
O254	O	1.292328	0.461080	0.935700
H255	H	0.819456	-0.061899	0.467634
H256	H	1.319456	0.438101	0.967634
O257	O	0.507147	0.066233	-0.111417
O258	O	1.007147	0.566233	0.388583
H259	H	0.501121	0.033161	-0.137120
H260	H	1.001121	0.533161	0.362880
O261	O	0.792348	-0.038916	0.564389
O262	O	1.292348	0.461084	1.064389
H263	H	0.819482	-0.061883	0.532446
H264	H	1.319482	0.438117	1.032446
O265	O	0.233935	0.063406	-0.165025
O266	O	0.733935	0.563406	0.334975
H267	H	0.266369	0.030728	-0.167586
H268	H	0.766369	0.530728	0.332414
O269	O	0.675281	-0.182035	-0.111392
O270	O	1.175281	0.317965	0.388608
H271	H	0.636168	-0.200494	-0.113969
H272	H	1.136168	0.299506	0.386031
O273	O	0.675253	-0.182065	0.111533
O274	O	1.175253	0.317935	0.611533
H275	H	0.636532	-0.167888	0.137241
H276	H	1.136532	0.332112	0.637241
O277	O	0.233909	0.063476	0.165150
O278	O	0.733909	0.563476	0.665150
H279	H	0.227886	0.030412	0.190873
H280	H	0.727886	0.530412	0.690873
O281	O	0.753326	-0.005888	0.720523
O282	O	1.253326	0.494112	1.220523
H283	H	0.780459	-0.028866	0.752456
H284	H	1.280459	0.471134	1.252456
H285	H	0.391538	0.065056	-0.097239
H286	H	0.891538	0.565056	0.402761
O287	O	0.753339	-0.005886	0.849232
O288	O	1.253339	0.494114	1.349232
H289	H	0.780480	-0.028861	0.817303
H290	H	1.280480	0.471139	1.317303
O291	O	0.507141	0.066268	0.111510
O292	O	1.007141	0.566268	0.611510
H293	H	0.539586	0.033598	0.114087
H294	H	1.039586	0.533598	0.614087
O295	O	0.591119	0.131497	0.849242
O296	O	1.091119	0.631497	1.349242
H297	H	0.563987	0.154476	0.817310
H298	H	1.063987	0.654476	1.317310
O299	O	0.591086	0.131483	0.720546
O300	O	1.091086	0.631483	1.220546
H301	H	0.614839	0.154871	0.692326
H302	H	1.114839	0.654871	1.192326
H303	H	0.601379	0.122782	0.271415
H304	H	1.101379	0.622782	0.771415
H305	H	0.562356	0.155796	0.556223
H306	H	1.062356	0.655796	1.056223
O307	O	0.552037	0.164532	0.435714
O308	O	1.052037	0.664532	0.935714
H309	H	0.524907	0.187508	0.467651
H310	H	1.024907	0.687508	0.967651
O311	O	0.672485	-0.413930	-0.165032
O312	O	1.172485	0.086070	0.334968
H313	H	0.711040	-0.441404	-0.167603
H314	H	1.211040	0.058596	0.332397
O315	O	0.673745	-0.309157	-0.165020
O316	O	1.173745	0.190843	0.334980
H317	H	0.673429	-0.335158	-0.202302
H318	H	1.173429	0.164842	0.297698
H319	H	0.391548	0.065073	0.097346
H320	H	0.891548	0.565073	0.597346
H321	H	0.667948	-0.790444	-0.097250
H322	H	1.167948	-0.290444	0.402750
O323	O	0.110470	0.062204	0.165150
O324	O	0.610470	0.562204	0.665150
H325	H	0.141107	0.062528	0.202429
H326	H	0.641107	0.562528	0.702429
O327	O	-0.039301	0.060669	0.111536
O328	O	0.460699	0.560669	0.611536
H329	H	-0.069937	0.060360	0.148820
H330	H	0.430063	0.560360	0.648820
H331	H	0.601374	0.122784	0.159077
H332	H	1.101374	0.622784	0.659077
O333	O	0.673686	-0.309166	0.165149
O334	O	1.173686	0.190834	0.665149
H335	H	0.635129	-0.281694	0.167716
H336	H	1.135129	0.218306	0.667716
H337	H	0.669054	-0.698977	-0.097251
H338	H	1.169054	-0.198977	0.402749
H339	H	-0.154917	0.059480	0.097364
H340	H	0.345083	0.559480	0.597364
H341	H	0.118340	0.062230	-0.150850
H342	H	0.618340	0.562230	0.349150
O343	O	0.667837	-0.797111	0.111496
O344	O	1.167837	-0.297111	0.611496
H345	H	0.668137	-0.771109	0.148780
H346	H	1.168137	-0.271109	0.648780
H347	H	0.669016	-0.698992	0.097333
H348	H	1.169016	-0.198992	0.597333
H349	H	0.671846	-0.467061	-0.150858
H350	H	1.171846	0.032939	0.349142
H351	H	0.670741	-0.558524	-0.150857
H352	H	1.170741	-0.058524	0.349143
O353	O	0.670602	-0.565194	0.165127
O354	O	1.170602	-0.065194	0.665127
H355	H	0.670903	-0.539193	0.202411
H356	H	1.170903	-0.039193	0.702411
O357	O	0.672416	-0.413945	0.165145
O358	O	1.172416	0.086055	0.665145
H359	H	0.672714	-0.387941	0.202426
H360	H	1.172714	0.112059	0.702426
O361	O	0.676512	-0.077266	0.111544
O362	O	1.176512	0.422734	0.611544
H363	H	0.676983	-0.037974	0.102532
H364	H	1.176983	0.462026	0.602532
H365	H	0.671795	-0.467079	0.150961
H366	H	1.171795	0.032921	0.650961
H367	H	0.742982	0.002883	0.159064
H368	H	1.242982	0.502883	0.659064
