data_functionalizedCrystal
_audit_creation_method	'MofGen! by Chris Wilmer'
_symmetry_space_group_name_H-M	'P1'
_symmetry_Int_Tables_number	1
_symmetry_cell_setting	triclinic
loop_
_symmetry_equiv_pos_as_xyz
  x,y,z
_cell_length_a	18.215407
_cell_length_b	13.034595
_cell_length_c	18.215399
_cell_angle_alpha	82.837891
_cell_angle_beta	90.017368
_cell_angle_gamma	82.837389
loop_
_atom_site_label
_atom_site_type_symbol
_atom_site_fract_x
_atom_site_fract_y
_atom_site_fract_z
Zn1	Zn	1.162317	-0.416037	0.453339
Zn2	Zn	1.495651	-0.082703	0.786672
Zn3	Zn	1.828984	0.250630	1.120006
Zn4	Zn	1.177868	-0.590763	0.345926
Zn5	Zn	1.511201	-0.257430	0.679259
Zn6	Zn	1.844535	0.075904	1.012593
Zn7	Zn	1.039252	-0.416062	0.330294
Zn8	Zn	1.372585	-0.082728	0.663627
Zn9	Zn	1.705919	0.250605	0.996961
Zn10	Zn	1.054852	-0.590696	0.468950
Zn11	Zn	1.388185	-0.257363	0.802284
Zn12	Zn	1.721519	0.075971	1.135617
O13	O	1.108572	-0.503389	0.399627
O14	O	1.441906	-0.170056	0.732961
O15	O	1.775239	0.163277	1.066294
O16	O	1.267366	-0.439232	0.439099
O17	O	1.600699	-0.105899	0.772433
O18	O	1.934033	0.227434	1.105766
O19	O	1.159460	-0.567627	0.240872
O20	O	1.492793	-0.234294	0.574205
O21	O	1.826126	0.099039	0.907538
O22	O	1.042540	-0.269850	0.333541
O23	O	1.375874	0.063483	0.666874
O24	O	1.709207	0.396817	1.000207
O25	O	1.278791	-0.567603	0.360183
O26	O	1.612124	-0.234270	0.693517
O27	O	1.945458	0.099064	1.026850
O28	O	1.132956	-0.269832	0.423941
O29	O	1.466289	0.063502	0.757275
O30	O	1.799623	0.396835	1.090608
O31	O	1.057619	-0.439275	0.229387
O32	O	1.390953	-0.105942	0.562720
O33	O	1.724286	0.227392	0.896053
O34	O	0.938336	-0.439210	0.348678
O35	O	1.271669	-0.105876	0.682012
O36	O	1.605002	0.227457	1.015345
O37	O	1.069128	-0.567488	0.569860
O38	O	1.402461	-0.234155	0.903194
O39	O	1.735795	0.099178	1.236527
O40	O	0.949797	-0.567513	0.450548
O41	O	1.283130	-0.234179	0.783882
O42	O	1.616464	0.099154	1.117215
O43	O	1.148082	-0.439167	0.558391
O44	O	1.481416	-0.105834	0.891724
O45	O	1.814749	0.227500	1.225057
O46	O	1.174586	-0.736963	0.375321
O47	O	1.507920	-0.403629	0.708654
O48	O	1.841253	-0.070296	1.041988
O49	O	1.084207	-0.736913	0.465706
O50	O	1.417540	-0.403580	0.799040
O51	O	1.750874	-0.070247	1.132373
C52	C	0.917363	-0.503357	0.399612
C53	C	1.250697	-0.170024	0.732945
C54	C	1.584030	0.163309	1.066278
C55	C	0.835565	-0.503369	0.399625
C56	C	1.168899	-0.170035	0.732958
C57	C	1.502232	0.163298	1.066291
C58	C	0.641434	-0.436664	0.440803
C59	C	0.974767	-0.103330	0.774136
C60	C	1.308100	0.230003	1.107469
C61	C	0.564576	-0.436673	0.440806
C62	C	0.897909	-0.103339	0.774139
C63	C	1.231242	0.229994	1.107473
C64	C	0.576466	-0.570144	0.358467
C65	C	0.909799	-0.236811	0.691801
C66	C	1.243132	0.096522	1.025134
C67	C	0.653322	-0.570129	0.358461
C68	C	0.986655	-0.236796	0.691794
C69	C	1.319988	0.096537	1.025127
C70	C	0.685804	-0.503391	0.399632
C71	C	1.019137	-0.170057	0.732966
C72	C	1.352471	0.163276	1.066299
C73	C	0.532090	-0.503415	0.399643
C74	C	0.865423	-0.170081	0.732976
C75	C	1.198757	0.163252	1.066309
C76	C	0.448757	-0.503425	0.399646
C77	C	0.782091	-0.170091	0.732979
C78	C	1.115424	0.163242	1.066313
C79	C	0.769142	-0.503379	0.399628
C80	C	1.102475	-0.170045	0.732962
C81	C	1.435808	0.163288	1.066295
C82	C	1.132797	-0.774848	0.423920
C83	C	1.466130	-0.441515	0.757253
C84	C	1.799464	-0.108182	1.090587
C85	C	1.143228	-0.890980	0.434337
C86	C	1.476561	-0.557646	0.767670
C87	C	1.809894	-0.224313	1.101004
C88	C	1.103186	-0.942847	0.394224
C89	C	1.436519	-0.609514	0.727557
C90	C	1.769853	-0.276180	1.060890
C91	C	1.113966	-1.062875	0.404989
C92	C	1.447299	-0.729541	0.738323
C93	C	1.780632	-0.396208	1.071656
C94	C	1.300528	-0.503422	0.399644
C95	C	1.633862	-0.170089	0.732977
C96	C	1.967195	0.163244	1.066310
C97	C	1.382328	-0.503436	0.399651
C98	C	1.715662	-0.170103	0.732984
C99	C	2.048995	0.163230	1.066317
C100	C	1.108611	-0.503317	0.591574
C101	C	1.441944	-0.169984	0.924907
C102	C	1.775277	0.163349	1.258241
C103	C	1.108627	-0.503287	0.673370
C104	C	1.441960	-0.169953	1.006703
C105	C	1.775294	0.163380	1.340037
C106	C	1.084273	-0.230871	0.375256
C107	C	1.417607	0.102463	0.708589
C108	C	1.750940	0.435796	1.041923
C109	C	1.073919	-0.114739	0.364870
C110	C	1.407252	0.218594	0.698204
C111	C	1.740585	0.551927	1.031537
C112	C	1.108570	-0.503386	0.208421
C113	C	1.441903	-0.170052	0.541754
C114	C	1.775236	0.163281	0.875087
C115	C	1.108670	-0.503122	0.126599
C116	C	1.442003	-0.169789	0.459932
C117	C	1.775336	0.163545	0.793265
C118	C	1.149750	-0.436407	0.855588
C119	C	1.483083	-0.103074	1.188921
C120	C	1.816417	0.230259	1.522254
C121	C	1.149756	-0.436377	0.932444
C122	C	1.483089	-0.103044	1.265777
C123	C	1.816423	0.230290	1.599110
C124	C	1.067542	-0.570004	0.944376
C125	C	1.400875	-0.236671	1.277709
C126	C	1.734209	0.096662	1.611043
C127	C	1.067532	-0.570029	0.867521
C128	C	1.400865	-0.236696	1.200854
C129	C	1.734199	0.096638	1.534188
C130	C	1.108641	-0.503232	0.823129
C131	C	1.441974	-0.169899	1.156462
C132	C	1.775307	0.163435	1.489795
C133	C	1.108656	-0.503177	0.976840
C134	C	1.441990	-0.169844	1.310173
C135	C	1.775323	0.163490	1.643507
C136	C	1.108663	-0.503144	1.060171
C137	C	1.441996	-0.169811	1.393504
C138	C	1.775329	0.163522	1.726837
C139	C	1.108633	-0.503263	0.739792
C140	C	1.441967	-0.169929	1.073126
C141	C	1.775300	0.163404	1.406459
H142	H	0.550009	-0.624482	0.324948
H143	H	0.883343	-0.291148	0.658281
H144	H	1.216676	0.042185	0.991614
H145	H	1.183230	-0.381960	0.958867
H146	H	1.516564	-0.048627	1.292201
H147	H	1.849897	0.284707	1.625534
F148	F	1.023797	-0.641094	0.991628
F149	F	1.357130	-0.307761	1.324961
F150	F	1.690464	0.025572	1.658294
H151	H	1.034051	-0.624445	0.841093
H152	H	1.367384	-0.291111	1.174426
H153	H	1.700717	0.042222	1.507759
H154	H	0.667878	-0.382317	0.474325
H155	H	1.001211	-0.048984	0.807658
H156	H	1.334544	0.284349	1.140992
F157	F	0.517357	-0.365651	0.484624
F158	F	0.850690	-0.032318	0.817957
F159	F	1.184023	0.301016	1.151291
H160	H	0.689449	-0.624468	0.324931
H161	H	1.022783	-0.291134	0.658264
H162	H	1.356116	0.042199	0.991598
F163	F	1.018679	-1.056646	0.309556
F164	F	1.352013	-0.723312	0.642889
F165	F	1.685346	-0.389979	0.976223
F166	F	1.047949	-0.884747	0.338914
F167	F	1.381282	-0.551414	0.672247
F168	F	1.714616	-0.218081	1.005580
H169	H	1.156233	-1.107325	0.447302
H170	H	1.489566	-0.773992	0.780635
H171	H	1.822899	-0.440658	1.113969
H172	H	1.185492	-0.935434	0.476647
H173	H	1.518825	-0.602101	0.809980
H174	H	1.852158	-0.268767	1.143313
H175	H	1.183221	-0.382014	0.819445
H176	H	1.516554	-0.048681	1.152778
H177	H	1.849887	0.284653	1.486112
