data_functionalizedCrystal
_audit_creation_method	'MofGen! by Chris Wilmer'
_symmetry_space_group_name_H-M	'P1'
_symmetry_Int_Tables_number	1
_symmetry_cell_setting	triclinic
loop_
_symmetry_equiv_pos_as_xyz
  x,y,z
_cell_length_a	18.215407
_cell_length_b	17.637651
_cell_length_c	18.215399
_cell_angle_alpha	101.243683
_cell_angle_beta	90.016899
_cell_angle_gamma	101.216814
loop_
_atom_site_label
_atom_site_type_symbol
_atom_site_fract_x
_atom_site_fract_y
_atom_site_fract_z
Zn1	Zn	1.065871	-0.314821	0.356746
Zn2	Zn	1.565871	0.185179	0.856746
Zn3	Zn	1.040917	-0.447038	0.208770
Zn4	Zn	1.540917	0.052962	0.708770
Zn5	Zn	0.942800	-0.314840	0.233696
Zn6	Zn	1.442800	0.185160	0.733696
Zn7	Zn	0.917917	-0.446988	0.331811
Zn8	Zn	1.417917	0.053012	0.831811
O9	O	0.991876	-0.380922	0.282756
O10	O	1.491876	0.119078	0.782756
O11	O	1.165543	-0.332373	0.337121
O12	O	1.665543	0.167627	0.837121
O13	O	1.027872	-0.429531	0.109087
O14	O	1.527872	0.070469	0.609087
O15	O	0.979984	-0.204199	0.270886
O16	O	1.479984	0.295801	0.770886
O17	O	1.147209	-0.429513	0.228403
O18	O	1.647209	0.070487	0.728403
O19	O	1.070403	-0.204185	0.361291
O20	O	1.570403	0.295815	0.861291
O21	O	0.955786	-0.332405	0.127400
O22	O	1.455786	0.167595	0.627400
O23	O	0.836518	-0.332356	0.246708
O24	O	1.336518	0.167644	0.746708
O25	O	0.937573	-0.429426	0.438109
O26	O	1.437573	0.070574	0.938109
O27	O	0.818236	-0.429445	0.318792
O28	O	1.318236	0.070555	0.818792
O29	O	1.046275	-0.332324	0.456428
O30	O	1.546275	0.167676	0.956428
O31	O	1.003743	-0.557670	0.204225
O32	O	1.503743	-0.057670	0.704225
O33	O	0.913375	-0.557632	0.294622
O34	O	1.413375	-0.057632	0.794622
C35	C	0.800675	-0.380897	0.282749
C36	C	1.300675	0.119103	0.782749
C37	C	0.718874	-0.380906	0.282760
C38	C	1.218874	0.119094	0.782760
C39	C	0.444298	-0.431559	0.320210
C40	C	0.944298	0.068441	0.820210
C41	C	0.521158	-0.431552	0.320208
C42	C	1.021158	0.068448	0.820208
C43	C	0.540193	-0.330302	0.245311
C44	C	1.040193	0.169698	0.745311
C45	C	0.463333	-0.330314	0.245310
C46	C	0.963333	0.169686	0.745310
C47	C	0.415388	-0.380941	0.282763
C48	C	0.915388	0.119059	0.782763
C49	C	0.569108	-0.380923	0.282763
C50	C	1.069108	0.119077	0.782763
C51	C	0.652443	-0.380915	0.282760
C52	C	1.152443	0.119085	0.782760
C53	C	0.332047	-0.380950	0.282765
C54	C	0.832047	0.119050	0.782765
C55	C	0.953171	-0.586338	0.244029
C56	C	1.453171	-0.086338	0.744029
C57	C	0.936680	-0.674216	0.227486
C58	C	1.436680	-0.174216	0.727486
C59	C	1.117635	-0.962906	0.408663
C60	C	1.617635	-0.462906	0.908663
C61	C	1.102115	-1.045481	0.393106
C62	C	1.602115	-0.545481	0.893106
C63	C	1.008024	-1.045603	0.298877
C64	C	1.508024	-0.545603	0.798877
C65	C	1.023538	-0.963026	0.314424
C66	C	1.523538	-0.463026	0.814424
C67	C	1.078343	-0.921684	0.369318
C68	C	1.578343	-0.421684	0.869318
C69	C	0.984247	-0.921804	0.275079
C70	C	1.484247	-0.421804	0.775079
C71	C	0.999757	-0.839235	0.290628
C72	C	1.499757	-0.339235	0.790628
C73	C	1.054558	-0.797887	0.345521
C74	C	1.554558	-0.297887	0.845521
C75	C	1.093853	-0.839115	0.384867
C76	C	1.593853	-0.339115	0.884867
C77	C	0.929438	-0.963148	0.220188
C78	C	1.429438	-0.463148	0.720188
C79	C	0.890146	-0.921926	0.180844
C80	C	1.390146	-0.421926	0.680844
C81	C	0.905660	-0.839355	0.196388
C82	C	1.405660	-0.339355	0.696388
C83	C	0.960461	-0.798008	0.251282
C84	C	1.460461	-0.298008	0.751282
C85	C	0.866365	-0.798128	0.157043
C86	C	1.366365	-0.298128	0.657043
C87	C	0.881875	-0.715558	0.172591
C88	C	1.381875	-0.215558	0.672591
C89	C	0.975971	-0.715438	0.266831
C90	C	1.475971	-0.215438	0.766831
C91	C	1.183825	-0.380946	0.282763
C92	C	1.683825	0.119054	0.782763
C93	C	1.265621	-0.380957	0.282766
C94	C	1.765621	0.119043	0.782766
C95	C	0.991931	-0.380867	0.474719
C96	C	1.491931	0.119133	0.974719
C97	C	0.991955	-0.380844	0.556523
C98	C	1.491955	0.119156	1.056523
C99	C	1.030753	-0.174703	0.321650
C100	C	1.530753	0.325297	0.821650
C101	C	1.047320	-0.086824	0.338225
C102	C	1.547320	0.413176	0.838225
C103	C	0.991875	-0.380919	0.091550
C104	C	1.491875	0.119081	0.591550
C105	C	0.992036	-0.380719	0.009789
C106	C	1.492036	0.119281	0.509789
C107	C	1.048582	-0.330235	0.754266
C108	C	1.548582	0.169765	1.254266
C109	C	1.048595	-0.330212	0.831129
C110	C	1.548595	0.169788	1.331129
C111	C	0.935403	-0.431330	0.812040
C112	C	1.435403	0.068670	1.312040
C113	C	0.935388	-0.431349	0.735179
C114	C	1.435388	0.068651	1.235179
C115	C	0.991981	-0.380802	0.706294
C116	C	1.491981	0.119198	1.206294
C117	C	0.992010	-0.380761	0.860018
C118	C	1.492010	0.119239	1.360018
C119	C	0.992023	-0.380736	0.943356
C120	C	1.492023	0.119264	1.443356
C121	C	0.991967	-0.380826	0.622951
C122	C	1.491967	0.119174	1.122951
H123	H	1.020605	-0.681776	0.311526
H124	H	1.520605	-0.181776	0.811526
Cl125	Cl	0.384026	-0.495207	0.367291
Cl126	Cl	0.884026	0.004793	0.867291
Cl127	Cl	1.151522	-1.097300	0.442570
Cl128	Cl	1.651522	-0.597300	0.942570
H129	H	0.544692	-0.472771	0.350700
H130	H	1.044692	0.027229	0.850700
H131	H	0.963400	-1.079275	0.254183
H132	H	1.463400	-0.579275	0.754183
H133	H	0.579239	-0.289082	0.214819
H134	H	1.079239	0.210918	0.714819
Cl135	Cl	1.162762	-0.787136	0.453870
Cl136	Cl	1.662762	-0.287136	0.953870
H137	H	0.889328	-0.472485	0.835568
H138	H	1.389328	0.027515	1.335568
Cl139	Cl	0.426986	-0.266677	0.198227
Cl140	Cl	0.926986	0.233323	0.698227
H141	H	1.067186	-0.730654	0.358180
H142	H	1.567186	-0.230654	0.858180
H143	H	0.889291	-0.472526	0.696119
H144	H	1.389291	0.027474	1.196119
H145	H	0.916804	-1.030381	0.207538
H146	H	1.416804	-0.530381	0.707538
Cl147	Cl	1.186543	-0.910927	0.477666
Cl148	Cl	1.686543	-0.410927	0.977666
H149	H	0.845522	-0.955598	0.136150
H150	H	1.345522	-0.455598	0.636150
H151	H	0.821737	-0.831801	0.112353
H152	H	1.321737	-0.331801	0.612353
H153	H	0.849879	-0.681995	0.140553
H154	H	1.349879	-0.181995	0.640553
H155	H	1.094684	-0.289034	0.870185
H156	H	1.594684	0.210966	1.370185
Cl157	Cl	1.119725	-0.266688	0.717956
Cl158	Cl	1.619725	0.233312	1.217956
