data_functionalizedCrystal
_audit_creation_method	'MofGen! by Chris Wilmer'
_symmetry_space_group_name_H-M	'P1'
_symmetry_Int_Tables_number	1
_symmetry_cell_setting	triclinic
loop_
_symmetry_equiv_pos_as_xyz
  x,y,z
_cell_length_a	33.428889
_cell_length_b	33.428139
_cell_length_c	33.424847
_cell_angle_alpha	60.004234
_cell_angle_beta	60.008465
_cell_angle_gamma	59.994972
loop_
_atom_site_label
_atom_site_type_symbol
_atom_site_fract_x
_atom_site_fract_y
_atom_site_fract_z
O1	O	0.055565	-0.584504	0.488714
O2	O	0.555565	-0.084504	0.988714
O3	O	0.020982	-0.455083	0.393778
O4	O	0.520982	0.044917	0.893778
O5	O	0.102943	-0.536959	0.393689
O6	O	0.602943	-0.036959	0.893689
O7	O	-0.026396	-0.502628	0.488803
O8	O	0.473604	-0.002628	0.988803
O9	O	0.130140	-0.509767	0.420792
O10	O	0.630140	-0.009767	0.920792
O11	O	0.048179	-0.427891	0.420881
O12	O	0.548179	0.072109	0.920881
O13	O	0.082762	-0.557312	0.515817
O14	O	0.582762	-0.057312	1.015817
Cu15	Cu	0.067954	-0.490119	0.470823
Cu16	Cu	0.567954	0.009881	0.970823
Cu17	Cu	0.035790	-0.522276	0.438771
Cu18	Cu	0.535790	-0.022276	0.938771
O19	O	0.000801	-0.475436	0.515906
O20	O	0.500801	0.024564	1.015906
N21	N	0.090577	-0.467504	0.493370
N22	N	0.590577	0.032496	0.993370
N23	N	0.013171	-0.544895	0.416225
N24	N	0.513171	-0.044895	0.916225
C25	C	0.143377	-0.280390	0.546067
C26	C	0.643377	0.219610	1.046067
C27	C	0.143515	-0.414755	0.680369
C28	C	0.643515	0.085245	1.180369
C29	C	0.143392	-0.414735	0.546069
C30	C	0.643392	0.085265	1.046069
C31	C	0.277766	-0.414702	0.545966
C32	C	0.777766	0.085298	1.045966
C33	C	0.158177	-0.324719	0.560828
C34	C	0.658177	0.175281	1.060828
C35	C	0.158255	-0.399967	0.636038
C36	C	0.658255	0.100033	1.136038
C37	C	0.233434	-0.399936	0.560773
C38	C	0.733434	0.100064	1.060773
C39	C	0.158186	-0.399955	0.560829
C40	C	0.658186	0.100045	1.060829
C41	C	0.124540	-0.223964	0.527278
C42	C	0.624540	0.276036	1.027278
C43	C	0.124565	-0.433545	0.527281
C44	C	0.624565	0.066455	1.027281
C45	C	0.177014	-0.381145	0.579617
C46	C	0.677014	0.118855	1.079617
C47	C	0.359814	-0.400540	0.502735
C48	C	0.859814	0.099460	1.002735
C49	C	0.411105	-0.417624	0.485606
C50	C	0.911105	0.082376	0.985606
C51	C	0.411136	-0.500620	0.517255
C52	C	0.911136	-0.000620	1.017255
C53	C	0.359845	-0.483534	0.534385
C54	C	0.859845	0.016466	1.034385
C55	C	0.136887	-0.198305	0.476855
C56	C	0.636887	0.301695	0.976855
C57	C	0.119761	-0.147011	0.459777
C58	C	0.619761	0.352989	0.959777
C59	C	0.077945	-0.147038	0.543547
C60	C	0.577945	0.352962	1.043547
C61	C	0.095072	-0.198332	0.560625
C62	C	0.595072	0.301668	1.060625
C63	C	0.074134	-0.421169	0.539710
C64	C	0.574134	0.078831	1.039710
C65	C	0.057023	-0.438269	0.522625
C66	C	0.557023	0.061731	1.022625
C67	C	0.140770	-0.480120	0.480694
C68	C	0.640770	0.019880	0.980694
C69	C	0.157883	-0.463020	0.497773
C70	C	0.657883	0.036980	0.997773
C71	C	0.074339	-0.421208	0.762475
C72	C	0.574339	0.078792	1.262475
C73	C	0.057288	-0.438323	0.813768
C74	C	0.557288	0.061677	1.313768
C75	C	0.141075	-0.480183	0.813699
C76	C	0.641075	0.019817	1.313699
C77	C	0.158125	-0.463069	0.762404
C78	C	0.658125	0.036931	1.262404
C79	C	0.124756	-0.433580	0.736794
C80	C	0.624756	0.066420	1.236794
C81	C	0.334186	-0.433494	0.527123
C82	C	0.834186	0.066506	1.027123
C83	C	-0.173769	-0.597444	0.363037
C84	C	0.326231	-0.097444	0.863037
C85	C	-0.039302	-0.597595	0.228856
C86	C	0.460698	-0.097595	0.728856
C87	C	-0.039496	-0.597587	0.363300
C88	C	0.460504	-0.097587	0.863300
C89	C	-0.039512	-0.731889	0.363237
C90	C	0.460488	-0.231889	0.863237
C91	C	-0.129442	-0.612265	0.348329
C92	C	0.370558	-0.112265	0.848329
C93	C	-0.054138	-0.612351	0.273187
C94	C	0.445862	-0.112351	0.773187
C95	C	-0.054257	-0.687554	0.348440
C96	C	0.445743	-0.187554	0.848440
C97	C	-0.054247	-0.612346	0.348477
C98	C	0.445753	-0.112346	0.848477
C99	C	-0.230191	-0.578579	0.381758
C100	C	0.269809	-0.078579	0.881758
C101	C	-0.020722	-0.578803	0.382168
C102	C	0.479278	-0.078803	0.882168
C103	C	-0.073020	-0.631130	0.329609
C104	C	0.426980	-0.131130	0.829609
C105	C	-0.053713	-0.813916	0.406386
C106	C	0.446287	-0.313916	0.906386
C107	C	-0.036654	-0.865210	0.423504
C108	C	0.463346	-0.365210	0.923504
C109	C	0.046338	-0.865293	0.391984
C110	C	0.546338	-0.365293	0.891984
C111	C	0.029278	-0.813999	0.374865
C112	C	0.529278	-0.313999	0.874865
C113	C	-0.255900	-0.590938	0.432169
C114	C	0.244100	-0.090938	0.932169
C115	C	-0.307191	-0.573786	0.449185
C116	C	0.192809	-0.073786	0.949185
C117	C	-0.307060	-0.531922	0.365377
C118	C	0.192940	-0.031922	0.865377
C119	C	-0.255769	-0.549074	0.348360
C120	C	0.244231	-0.049074	0.848360
C121	C	-0.033081	-0.528377	0.369764
C122	C	0.466919	-0.028377	0.869764
C123	C	-0.016014	-0.511306	0.386922
C124	C	0.483986	-0.011306	0.886922
C125	C	0.025770	-0.595083	0.428877
C126	C	0.525770	-0.095083	0.928877
C127	C	0.008703	-0.612156	0.411725
C128	C	0.508703	-0.112156	0.911725
C129	C	-0.032755	-0.528393	0.146761
C130	C	0.467245	-0.028393	0.646761
C131	C	-0.015585	-0.511324	0.095468
C132	C	0.484415	-0.011324	0.595468
C133	C	0.026262	-0.595106	0.095516
C134	C	0.526262	-0.095106	0.595516
C135	C	0.009094	-0.612174	0.146811
C136	C	0.509094	-0.112174	0.646811
C137	C	-0.020417	-0.578816	0.172432
C138	C	0.479583	-0.078816	0.672432
C139	C	-0.020748	-0.788312	0.382068
C140	C	0.479252	-0.288312	0.882068
N141	N	0.436037	-0.467415	0.493101
N142	N	0.936037	0.032585	0.993101
O143	O	0.592642	-0.471896	0.376066
O144	O	1.092642	0.028104	0.876066
O145	O	0.592838	-0.567146	0.505347
O146	O	1.092838	-0.067146	1.005347
O147	O	0.592754	-0.566928	0.423360
O148	O	1.092754	-0.066928	0.923360
O149	O	0.592727	-0.472113	0.458053
O150	O	1.092727	0.027887	0.958053
O151	O	0.511269	-0.539835	0.450606
O152	O	1.011269	-0.039835	0.950606
O153	O	0.511353	-0.540052	0.532594
O154	O	1.011353	-0.040052	1.032594
O155	O	0.511157	-0.444802	0.403312
O156	O	1.011157	0.055198	0.903312
Cu157	Cu	0.503815	-0.489954	0.470441
Cu158	Cu	1.003815	0.010046	0.970441
Cu159	Cu	0.600180	-0.521995	0.438219
Cu160	Cu	1.100180	-0.021995	0.938219
O161	O	0.511242	-0.445020	0.485300
O162	O	1.011242	0.054980	0.985300
N163	N	0.667959	-0.544533	0.415554
N164	N	1.167959	-0.044533	0.915554
N165	N	0.090544	-0.122107	0.493359
N166	N	0.590544	0.377893	0.993359
O167	O	-0.026406	0.034587	0.488773
O168	O	0.473594	0.534587	0.988773
O169	O	0.102877	0.034627	0.393499
O170	O	0.602877	0.534627	0.893499
O171	O	0.020848	0.034591	0.393771
O172	O	0.520848	0.534591	0.893771
O173	O	0.055623	0.034623	0.488500
O174	O	0.555623	0.534623	0.988500
O175	O	0.048051	-0.046899	0.420925
O176	O	0.548051	0.453101	0.920925
O177	O	0.130080	-0.046864	0.420653
O178	O	0.630080	0.453136	0.920653
O179	O	0.000796	-0.046903	0.515927
O180	O	0.500796	0.453097	1.015927
Cu181	Cu	0.067922	-0.054324	0.470769
Cu182	Cu	0.567922	0.445676	0.970769
Cu183	Cu	0.035752	0.042048	0.438656
Cu184	Cu	0.535752	0.542048	0.938656
O185	O	0.082825	-0.046867	0.515655
O186	O	0.582825	0.453133	1.015655
N187	N	0.013123	0.109830	0.416068
N188	N	0.513123	0.609830	0.916068
N189	N	0.090892	-0.467554	0.838649
N190	N	0.590892	0.032446	1.338649
O191	O	0.086330	-0.584488	0.995334
O192	O	0.586330	-0.084488	1.495334
O193	O	-0.008902	-0.455160	0.995379
O194	O	0.491098	0.044840	1.495379
O195	O	-0.008679	-0.537172	0.995355
O196	O	0.491321	-0.037172	1.495355
O197	O	0.086107	-0.502475	0.995358
O198	O	0.586107	-0.002475	1.495358
O199	O	0.018452	-0.509990	0.913868
O200	O	0.518452	-0.009990	1.413868
O201	O	0.018230	-0.427978	0.913891
O202	O	0.518230	0.072022	1.413891
O203	O	0.113461	-0.557306	0.913847
O204	O	0.613461	-0.057306	1.413847
Cu205	Cu	0.068323	-0.490160	0.906429
Cu206	Cu	0.568323	0.009840	1.406429
Cu207	Cu	0.036237	-0.522306	1.002797
Cu208	Cu	0.536237	-0.022306	1.502797
O209	O	0.113239	-0.475293	0.913870
O210	O	0.613239	0.024707	1.413870
N211	N	0.013667	-0.544916	1.070577
N212	N	0.513667	-0.044916	1.570577
C213	C	0.031339	-0.425179	0.394250
C214	C	0.531339	0.074821	0.894250
C215	C	0.132837	-0.526572	0.394139
C216	C	0.632837	-0.026572	0.894139
C217	C	0.072405	-0.587216	0.515344
C218	C	0.572405	-0.087216	1.015344
C219	C	-0.029093	-0.485823	0.515455
C220	C	0.470907	0.014177	1.015455
C221	C	0.552119	-0.566716	0.535258
C222	C	1.052119	-0.066716	1.035258
C223	C	0.552016	-0.566447	0.433726
C224	C	1.052016	-0.066447	0.933726
C225	C	0.551873	-0.445232	0.373402
C226	C	1.051873	0.054768	0.873402
C227	C	0.551980	-0.445502	0.474933
C228	C	1.051980	0.054498	0.974933
C229	C	0.132731	-0.006013	0.393923
C230	C	0.632731	0.493987	0.893923
C231	C	0.031182	-0.006158	0.394293
C232	C	0.531182	0.493842	0.894293
C233	C	-0.029092	-0.006163	0.515469
C234	C	0.470908	0.493837	1.015469
C235	C	0.072491	-0.006119	0.515133
C236	C	0.572491	0.493881	1.015133
C237	C	-0.008451	-0.425276	0.954641
C238	C	0.491549	0.074724	1.454641
C239	C	-0.008170	-0.526833	0.954596
C240	C	0.491830	-0.026833	1.454596
C241	C	0.113010	-0.587190	0.954585
C242	C	0.613010	-0.087190	1.454585
C243	C	0.112735	-0.485627	0.954611
C244	C	0.612735	0.014373	1.454611
H245	H	0.016234	-0.428240	0.834672
H246	H	0.516234	0.071760	1.334672
H247	H	-0.066242	-0.478508	0.545321
H248	H	0.433758	0.021492	1.045321
O249	O	0.436115	-0.549225	0.524335
O250	O	0.936115	-0.049225	1.024335
C251	C	0.465809	-0.566998	0.552212
C252	C	0.965809	-0.066998	1.052212
H253	H	0.473489	-0.535329	0.548187
H254	H	0.973489	-0.035329	1.048187
H255	H	0.501877	-0.595359	0.538580
H256	H	1.001877	-0.095359	1.038580
H257	H	0.446074	-0.584677	0.592412
H258	H	0.946074	-0.084677	1.092412
O259	O	0.552251	-0.602452	0.579511
O260	O	1.052251	-0.102452	1.079511
C261	C	0.594485	-0.643707	0.573013
C262	C	1.094485	-0.143707	1.073013
H263	H	0.608518	-0.643143	0.533915
H264	H	1.108518	-0.143143	1.033915
H265	H	0.585043	-0.678527	0.599859
H266	H	1.085043	-0.178527	1.099859
H267	H	0.624046	-0.642811	0.580009
H268	H	1.124046	-0.142811	1.080009
O269	O	-0.061353	-0.495967	0.171624
O270	O	0.438647	0.004033	0.671624
C271	C	-0.035452	-0.466336	0.159133
C272	C	0.464548	0.033664	0.659133
H273	H	0.005584	-0.486179	0.145098
H274	H	0.505584	0.013821	0.645098
H275	H	-0.044678	-0.458567	0.192875
H276	H	0.455322	0.041433	0.692875
H277	H	-0.046319	-0.430303	0.129326
H278	H	0.453681	0.069697	0.629326
O279	O	0.148726	-0.631462	0.954482
O280	O	0.648726	-0.131462	1.454482
C281	C	0.190002	-0.624994	0.912281
C282	C	0.690002	-0.124994	1.412281
H283	H	0.178180	-0.589113	0.882793
H284	H	0.678180	-0.089113	1.382793
H285	H	0.207542	-0.656774	0.898103
H286	H	0.707542	-0.156774	1.398103
H287	H	0.217660	-0.623865	0.921822
H288	H	0.717660	-0.123865	1.421822
O289	O	0.552007	-0.601922	0.424800
O290	O	1.052007	-0.101922	0.924800
C291	C	0.551959	-0.584075	0.376648
C292	C	1.051959	-0.084075	0.876648
H293	H	0.536491	-0.542340	0.363776
H294	H	1.036491	-0.042340	0.863776
H295	H	0.528307	-0.599016	0.375964
H296	H	1.028307	-0.099016	0.875964
H297	H	0.591038	-0.596436	0.351267
H298	H	1.091038	-0.096436	0.851267
H299	H	0.023733	-0.006162	0.364531
H300	H	0.523733	0.493838	0.864531
O301	O	0.148311	-0.476860	0.954625
O302	O	0.648311	0.023140	1.454625
C303	C	0.190603	-0.518929	0.954594
C304	C	0.690603	-0.018929	1.454594
H305	H	0.179912	-0.552617	0.970018
H306	H	0.679912	-0.052617	1.470018
H307	H	0.208863	-0.523220	0.978245
H308	H	0.708863	-0.023220	1.478245
H309	H	0.217232	-0.514967	0.915495
H310	H	0.717232	-0.014967	1.415495
O311	O	0.041903	-0.392633	0.737621
O312	O	0.541903	0.107367	1.237621
C313	C	0.012244	-0.418537	0.750187
C314	C	0.512244	0.081463	1.250187
H315	H	0.032071	-0.459574	0.764266
H316	H	0.532071	0.040426	1.264266
H317	H	0.004452	-0.409354	0.716472
H318	H	0.504452	0.090646	1.216472
H319	H	-0.023774	-0.407630	0.779984
H320	H	0.476226	0.092370	1.279984
H321	H	-0.038348	-0.388133	0.954654
H322	H	0.461652	0.111867	1.454654
H323	H	-0.066220	-0.006175	0.545378
H324	H	0.433780	0.493825	1.045378
H325	H	0.129813	-0.126117	0.418717
H326	H	0.629813	0.373883	0.918717
O327	O	0.081464	-0.006140	0.550596
O328	O	0.581464	0.493860	1.050596
C329	C	0.129621	-0.006114	0.532722
C330	C	0.629621	0.493886	1.032722
H331	H	0.152782	-0.021531	0.501264
H332	H	0.652782	0.478469	1.001264
H333	H	0.146135	-0.029774	0.563392
H334	H	0.646135	0.470226	1.063392
H335	H	0.128888	0.032985	0.519057
H336	H	0.628888	0.532985	1.019057
O337	O	0.081137	-0.631571	0.550935
O338	O	0.581137	-0.131571	1.050935
C339	C	0.047530	-0.653346	0.564134
C340	C	0.547530	-0.153346	1.064134
H341	H	0.013591	-0.623676	0.554329
H342	H	0.513591	-0.123676	1.054329
H343	H	0.036547	-0.673945	0.605246
H344	H	0.536547	-0.173945	1.105246
H345	H	0.065275	-0.680025	0.543501
H346	H	0.565275	-0.180025	1.043501
H347	H	-0.037935	-0.534246	0.954563
H348	H	0.462065	-0.034246	1.454563
O349	O	0.551821	-0.409614	0.329076
O350	O	1.051821	0.090386	0.829076
C351	C	0.551786	-0.427251	0.298597
C352	C	1.051786	0.072749	0.798597
H353	H	0.567259	-0.468986	0.311841
H354	H	1.067259	0.031014	0.811841
H355	H	0.575392	-0.412199	0.259335
H356	H	1.075392	0.087801	0.759335
H357	H	0.512681	-0.414830	0.299967
H358	H	1.012681	0.085170	0.799967
H359	H	0.551974	-0.415718	0.482355
H360	H	1.051974	0.084282	0.982355
H361	H	0.168250	-0.504186	0.834549
H362	H	0.668250	-0.004186	1.334549
H363	H	0.199181	-0.473148	0.741498
H364	H	0.699181	0.026852	1.241498
O365	O	0.176957	-0.005821	0.358167
O366	O	0.676957	0.494179	0.858167
C367	C	0.198804	-0.047929	0.344817
C368	C	0.698804	0.452071	0.844817
H369	H	0.182808	-0.077591	0.376234
H370	H	0.682808	0.422409	0.876234
H371	H	0.240042	-0.061902	0.336590
H372	H	0.740042	0.438098	0.836590
H373	H	0.191228	-0.038346	0.310832
H374	H	0.691228	0.461654	0.810832
O375	O	-0.028033	-0.462306	0.374800
O376	O	0.471967	0.037694	0.874800
C377	C	-0.057664	-0.436527	0.345033
C378	C	0.442336	0.063473	0.845033
H379	H	-0.051105	-0.460997	0.326384
H380	H	0.448895	0.039003	0.826384
H381	H	-0.047989	-0.402331	0.316016
H382	H	0.452011	0.097669	0.816016
H383	H	-0.097857	-0.425407	0.368630
H384	H	0.402143	0.074593	0.868630
O385	O	0.041703	-0.392521	0.568347
O386	O	0.541703	0.107479	1.068347
C387	C	-0.006478	-0.385273	0.575657
C388	C	0.493522	0.114727	1.075657
H389	H	-0.006412	-0.390999	0.544741
H390	H	0.493588	0.109001	1.044741
H391	H	-0.030837	-0.346374	0.575942
H392	H	0.469163	0.153626	1.075942
H393	H	-0.021143	-0.412583	0.612199
H394	H	0.478857	0.087417	1.112199
H395	H	0.167905	-0.504126	0.456671
H396	H	0.667905	-0.004126	0.956671
O397	O	0.008047	-0.426338	0.534715
O398	O	0.508047	0.073662	1.034715
C399	C	-0.004319	-0.469448	0.560542
C400	C	0.495681	0.030552	1.060542
H401	H	0.029490	-0.501665	0.551262
H402	H	0.529490	-0.001665	1.051262
H403	H	-0.034079	-0.464867	0.549652
H404	H	0.465921	0.035133	1.049652
H405	H	-0.018365	-0.476671	0.601596
H406	H	0.481635	0.023329	1.101596
H407	H	0.338981	-0.510371	0.554246
H408	H	0.838981	-0.010371	1.054246
O409	O	0.206888	-0.475097	0.485667
O410	O	0.706888	0.024903	0.985667
C411	C	0.232625	-0.504765	0.455945
C412	C	0.732625	-0.004765	0.955945
H413	H	0.208168	-0.523428	0.462513
H414	H	0.708168	-0.023428	0.962513
H415	H	0.266882	-0.533774	0.465518
H416	H	0.766882	-0.033774	0.965518
H417	H	0.243636	-0.481084	0.415771
H418	H	0.743636	0.018916	0.915771
O419	O	0.435981	-0.385582	0.461839
O420	O	0.935981	0.114418	0.961839
C421	C	0.423395	-0.350755	0.419575
C422	C	0.923395	0.149245	0.919575
H423	H	0.409278	-0.366563	0.407806
H424	H	0.909278	0.133437	0.907806
H425	H	0.457108	-0.341357	0.388767
H426	H	0.957108	0.158643	0.888767
H427	H	0.393623	-0.316182	0.427975
H428	H	0.893623	0.183818	0.927975
O429	O	0.334865	-0.351923	0.495619
O430	O	0.834865	0.148077	0.995619
C431	C	0.305155	-0.334155	0.467759
C432	C	0.805155	0.165845	0.967759
H433	H	0.320598	-0.359077	0.445835
H434	H	0.820598	0.140923	0.945835
H435	H	0.304550	-0.295446	0.441595
H436	H	0.804550	0.204554	0.941595
H437	H	0.266293	-0.333575	0.493318
H438	H	0.766293	0.166425	0.993318
H439	H	0.023949	-0.388000	0.364433
H440	H	0.523949	0.112000	0.864433
H441	H	0.160882	-0.219171	0.449698
H442	H	0.660882	0.280829	0.949698
H443	H	0.085016	-0.219221	0.601683
H444	H	0.585016	0.280779	1.101683
O445	O	0.049311	-0.122213	0.576006
O446	O	0.549311	0.377787	1.076006
C447	C	0.042104	-0.155861	0.624174
C448	C	0.542104	0.344139	1.124174
H449	H	0.047840	-0.192427	0.624082
H450	H	0.547840	0.307573	1.124082
H451	H	0.003215	-0.141058	0.648553
H452	H	0.503215	0.358942	1.148553
H453	H	0.069427	-0.161309	0.638839
H454	H	0.569427	0.338691	1.138839
H455	H	0.050281	-0.622271	0.074658
H456	H	0.550281	-0.122271	0.574658
O457	O	-0.027603	-0.462352	0.070482
O458	O	0.472397	0.037648	0.570482
C459	C	-0.053376	-0.449938	0.040753
C460	C	0.446624	0.050062	0.540753
H461	H	-0.044113	-0.483740	0.033064
H462	H	0.455887	0.016260	0.533064
H463	H	-0.042418	-0.420211	0.004691
H464	H	0.457582	0.079789	0.504691
H465	H	-0.094436	-0.435826	0.060464
H466	H	0.405564	0.064174	0.560464
O467	O	0.021021	-0.661163	0.171725
O468	O	0.521021	-0.161163	0.671725
C469	C	0.003510	-0.682437	0.159127
C470	C	0.503510	-0.182437	0.659127
H471	H	-0.028085	-0.653206	0.144964
H472	H	0.471915	-0.153206	0.644964
H473	H	-0.009853	-0.712650	0.192846
H474	H	0.490147	-0.212650	0.692846
H475	H	0.034308	-0.698658	0.129384
H476	H	0.534308	-0.198658	0.629384
O477	O	-0.061662	-0.496045	0.341043
O478	O	0.438338	0.003955	0.841043
C479	C	-0.074089	-0.521926	0.328572
C480	C	0.425911	-0.021926	0.828572
H481	H	-0.045849	-0.560268	0.331664
H482	H	0.454151	-0.060268	0.831664
H483	H	-0.074596	-0.501677	0.289366
H484	H	0.425404	-0.001677	0.789366
H485	H	-0.111869	-0.524759	0.354602
H486	H	0.388131	-0.024759	0.854602
O487	O	0.054337	-0.627552	0.457597
O488	O	0.554337	-0.127552	0.957597
C489	C	0.061597	-0.675720	0.464851
C490	C	0.561597	-0.175720	0.964851
H491	H	0.030696	-0.675597	0.459056
H492	H	0.530696	-0.175597	0.959056
H493	H	0.061808	-0.700064	0.503772
H494	H	0.561808	-0.200064	1.003772
H495	H	0.098157	-0.690448	0.437591
H496	H	0.598157	-0.190448	0.937591
H497	H	0.056124	-0.793157	0.355062
H498	H	0.556124	-0.293157	0.855062
O499	O	0.020649	-0.661125	0.423738
O500	O	0.520649	-0.161125	0.923738
C501	C	-0.000710	-0.669042	0.402245
C502	C	0.499290	-0.169042	0.902245
H503	H	-0.033609	-0.635363	0.394460
H504	H	0.466391	-0.135363	0.894460
H505	H	-0.013183	-0.702267	0.428412
H506	H	0.486817	-0.202267	0.928412
H507	H	0.027389	-0.675901	0.366486
H508	H	0.527389	-0.175901	0.866486
O509	O	0.094951	-0.890170	0.384930
O510	O	0.594951	-0.390170	0.884930
C511	C	0.120389	-0.856572	0.359806
C512	C	0.620389	-0.356572	0.859806
H513	H	0.098055	-0.819997	0.338749
H514	H	0.598055	-0.319997	0.838749
H515	H	0.157393	-0.871427	0.333069
H516	H	0.657393	-0.371427	0.833069
H517	H	0.126287	-0.851124	0.387283
H518	H	0.626287	-0.351124	0.887283
H519	H	-0.063498	-0.886058	0.443304
H520	H	0.436502	-0.386058	0.943304
O521	O	-0.102300	-0.788978	0.413302
O522	O	0.397700	-0.288978	0.913302
C523	C	-0.117917	-0.801504	0.390214
C524	C	0.382083	-0.301504	0.890214
H525	H	-0.085131	-0.815643	0.359947
H526	H	0.414869	-0.315643	0.859947
H527	H	-0.146119	-0.767753	0.373718
H528	H	0.353881	-0.267753	0.873718
H529	H	-0.135129	-0.831244	0.418307
H530	H	0.364871	-0.331244	0.918307
O531	O	-0.231110	-0.619648	0.464659
O532	O	0.268890	-0.119648	0.964659
C533	C	-0.243683	-0.662642	0.494289
C534	C	0.256317	-0.162642	0.994289
H535	H	-0.280907	-0.655723	0.494724
H536	H	0.219093	-0.155723	0.994724
H537	H	-0.245497	-0.673454	0.533210
H538	H	0.254503	-0.173454	1.033210
H539	H	-0.214812	-0.693517	0.478895
H540	H	0.285188	-0.193517	0.978895
O541	O	-0.332225	-0.585810	0.498144
O542	O	0.167775	-0.085810	0.998144
C543	C	-0.361896	-0.611597	0.510476
C544	C	0.138104	-0.111597	1.010476
H545	H	-0.369521	-0.602339	0.476634
H546	H	0.130479	-0.102339	0.976634
H547	H	-0.397992	-0.600647	0.540178
H548	H	0.102008	-0.100647	1.040178
H549	H	-0.342169	-0.652658	0.524587
H550	H	0.157831	-0.152658	1.024587
H551	H	-0.327887	-0.507903	0.338181
H552	H	0.172113	-0.007903	0.838181
H553	H	-0.234840	-0.539009	0.307312
H554	H	0.265160	-0.039009	0.807312
H555	H	0.169984	-0.533889	0.364272
H556	H	0.669984	-0.033889	0.864272
