data_functionalizedCrystal
_audit_creation_method	'MofGen! by Chris Wilmer'
_symmetry_space_group_name_H-M	'P1'
_symmetry_Int_Tables_number	1
_symmetry_cell_setting	triclinic
loop_
_symmetry_equiv_pos_as_xyz
  x,y,z
_cell_length_a	10.654550
_cell_length_b	14.853559
_cell_length_c	9.130313
_cell_angle_alpha	90.000938
_cell_angle_beta	89.996220
_cell_angle_gamma	84.058178
loop_
_atom_site_label
_atom_site_type_symbol
_atom_site_fract_x
_atom_site_fract_y
_atom_site_fract_z
O1	O	1.666513	0.126622	-0.121912
O2	O	1.300909	0.138687	-0.121888
O3	O	1.493482	0.001476	-0.121899
O4	O	1.473940	0.263832	-0.121901
O5	O	1.493480	0.001480	0.121700
O6	O	1.300907	0.138690	0.121711
O7	O	1.666511	0.126626	0.121687
Cu8	Cu	1.483708	0.132658	0.143941
Cu9	Cu	1.483711	0.132654	-0.144142
O10	O	1.473937	0.263836	0.121698
C11	C	1.254119	0.137803	-0.000085
C12	C	1.114703	0.135152	-0.000076
C13	C	1.034375	0.215939	-0.000098
C14	C	0.903380	0.213444	-0.000123
C15	C	0.933055	0.049367	-0.000111
C16	C	1.064047	0.051864	-0.000075
C17	C	1.017241	0.310668	-0.000112
C18	C	0.886246	0.308172	-0.000137
C19	C	1.492598	-0.032115	-0.000102
C20	C	1.489950	-0.132213	-0.000110
C21	C	1.478718	-0.555451	-0.132895
C22	C	1.478716	-0.555441	0.132685
C23	C	1.481214	-0.461395	0.132687
C24	C	1.482463	-0.414372	-0.000105
C25	C	1.481213	-0.461395	-0.132898
C26	C	1.482451	-0.414363	0.265477
C27	C	1.484948	-0.320311	0.265484
C28	C	1.486205	-0.273286	0.132690
C29	C	1.484957	-0.320316	-0.000108
C30	C	1.486206	-0.273293	-0.132900
C31	C	1.484967	-0.320321	-0.265700
C32	C	1.482471	-0.414371	-0.265692
C33	C	1.488701	-0.179237	0.132682
C34	C	1.488700	-0.179237	-0.132903
C35	C	1.713301	0.127510	-0.000119
C36	C	1.852716	0.130160	-0.000137
C37	C	1.474822	0.297428	-0.000102
C38	C	1.477470	0.397526	-0.000104
N39	N	1.483716	0.132661	0.346564
N40	N	1.483714	0.132644	-0.346765
C41	C	1.569009	0.071925	0.423211
C42	C	1.569006	0.071914	0.576548
C43	C	1.398412	0.193383	0.576577
C44	C	1.398410	0.193389	0.423243
C45	C	1.667504	0.001799	0.423195
C46	C	1.667500	0.001788	0.576532
H47	H	0.891795	-0.018444	-0.000133
H48	H	1.477714	-0.593746	-0.241018
H49	H	1.477691	-0.593733	0.240798
H50	H	1.646784	-0.067496	0.381577
O51	O	1.481323	-0.460186	0.394331
C52	C	1.477492	-0.605079	0.512025
C53	C	1.478771	-0.553292	0.365988
H54	H	1.475402	-0.680362	0.489161
H55	H	1.565831	-0.594346	0.577490
H56	H	1.390198	-0.578851	0.577549
H57	H	1.566007	-0.579488	0.300346
H58	H	1.390374	-0.564025	0.300634
H59	H	1.328947	0.242837	0.360839
H60	H	1.485961	-0.282028	0.373617
O61	O	1.489932	-0.133696	0.261797
C62	C	1.489518	-0.143604	0.525221
C63	C	1.488163	-0.195293	0.379096
H64	H	1.488061	-0.193380	0.620095
H65	H	1.578515	-0.107295	0.531987
H66	H	1.402881	-0.091850	0.531750
H67	H	1.574739	-0.247090	0.372468
H68	H	1.399109	-0.231540	0.372390
O69	O	1.315380	0.252282	0.651003
C70	C	1.097108	0.303675	0.697871
C71	C	1.191004	0.236907	0.613524
H72	H	0.996530	0.291281	0.667577
H73	H	1.111647	0.293236	0.820647
H74	H	1.113648	0.375991	0.667756
H75	H	1.174521	0.164565	0.643516
H76	H	1.176442	0.247425	0.490769
H77	H	1.758459	0.023756	0.375631
H78	H	1.637671	-0.063695	0.624082
O79	O	1.782496	0.020260	0.625940
C80	C	1.992078	0.053804	0.561906
C81	C	1.861901	0.032919	0.505755
H82	H	2.056322	0.064026	0.464766
H83	H	1.980792	0.117967	0.631236
H84	H	2.035519	-0.005189	0.631306
H85	H	1.818388	0.091856	0.436296
H86	H	1.873269	-0.031274	0.436505
H87	H	0.840275	0.336802	0.105031
H88	H	1.129447	-0.013921	-0.000036
H89	H	1.046185	0.347718	0.101840
H90	H	1.052583	0.340829	-0.105284
H91	H	0.844143	0.343863	-0.102091
H92	H	1.489723	-0.140958	-0.241040
H93	H	1.485974	-0.282022	-0.373819
H94	H	1.481461	-0.452670	-0.373810
