data_functionalizedCrystal
_audit_creation_method	'MofGen! by Chris Wilmer'
_symmetry_space_group_name_H-M	'P1'
_symmetry_Int_Tables_number	1
_symmetry_cell_setting	triclinic
loop_
_symmetry_equiv_pos_as_xyz
  x,y,z
_cell_length_a	13.897449
_cell_length_b	16.625539
_cell_length_c	13.897447
_cell_angle_alpha	89.973723
_cell_angle_beta	90.020810
_cell_angle_gamma	89.980569
loop_
_atom_site_label
_atom_site_type_symbol
_atom_site_fract_x
_atom_site_fract_y
_atom_site_fract_z
Zn1	Zn	1.474678	-0.455896	-0.383980
Zn2	Zn	1.974678	0.044104	0.116020
Zn3	Zn	1.474570	-0.321068	-0.545293
Zn4	Zn	1.974570	0.178932	-0.045293
Zn5	Zn	1.313371	-0.321079	-0.384018
Zn6	Zn	1.813371	0.178921	0.115982
Zn7	Zn	1.313344	-0.455861	-0.545239
Zn8	Zn	1.813344	0.044139	-0.045239
O9	O	1.393991	-0.388476	-0.464632
O10	O	1.893991	0.111524	0.035368
O11	O	1.609645	-0.438021	-0.405386
O12	O	2.109645	0.061979	0.094614
O13	O	1.453153	-0.208237	-0.523938
O14	O	1.953153	0.291763	-0.023938
O15	O	1.334825	-0.338983	-0.249031
O16	O	1.834825	0.161017	0.250969
O17	O	1.609566	-0.338964	-0.523902
O18	O	2.109566	0.161036	-0.023902
O19	O	1.453336	-0.438032	-0.249004
O20	O	1.953336	0.061968	0.250996
O21	O	1.334721	-0.208246	-0.405450
O22	O	1.834721	0.291754	0.094550
O23	O	1.178385	-0.338948	-0.405397
O24	O	1.678385	0.161052	0.094603
O25	O	1.334779	-0.568698	-0.523809
O26	O	1.834779	-0.068698	-0.023809
O27	O	1.178366	-0.437972	-0.523845
O28	O	1.678366	0.062028	-0.023845
O29	O	1.453310	-0.568724	-0.405333
O30	O	1.953310	-0.068724	0.094667
O31	O	1.453127	-0.338929	-0.680268
O32	O	1.953127	0.161071	-0.180268
O33	O	1.334674	-0.437961	-0.680227
O34	O	1.834674	0.062039	-0.180227
C35	C	1.143376	-0.388458	-0.464620
C36	C	1.643376	0.111542	0.035380
C37	C	1.036162	-0.388469	-0.464637
C38	C	1.536162	0.111531	0.035363
C39	C	0.839867	-0.388490	-0.464641
C40	C	1.339867	0.111510	0.035359
C41	C	0.949100	-0.388476	-0.464636
C42	C	1.449100	0.111524	0.035364
C43	C	1.394053	-0.598785	-0.464561
C44	C	1.894053	-0.098785	0.035439
C45	C	1.394080	-0.688406	-0.464530
C46	C	1.894080	-0.188406	0.035470
C47	C	1.394125	-1.016582	-0.464422
C48	C	1.894125	-0.516582	0.035578
C49	C	1.394109	-0.925274	-0.464455
C50	C	1.894109	-0.425274	0.035545
C51	C	1.394103	-0.852497	-0.464477
C52	C	1.894103	-0.352497	0.035523
C53	C	1.394087	-0.761183	-0.464508
C54	C	1.894087	-0.261183	0.035492
C55	C	1.645584	-0.388495	-0.464646
C56	C	2.145584	0.111505	0.035354
C57	C	1.752797	-0.388503	-0.464652
C58	C	2.252797	0.111497	0.035348
C59	C	1.393912	-0.388458	-0.715247
C60	C	1.893912	0.111542	-0.215247
C61	C	1.393967	-0.388476	-0.822461
C62	C	1.893967	0.111524	-0.322461
C63	C	1.393984	-0.178985	-0.464634
C64	C	1.893984	0.321015	0.035366
C65	C	1.394144	-0.089365	-0.464393
C66	C	1.894144	0.410635	0.035607
C67	C	1.394014	-0.388495	-0.909530
C68	C	1.894014	0.111505	-0.409530
C69	C	1.394081	-0.388516	-1.018763
C70	C	1.894081	0.111484	-0.518763
C71	C	1.394096	-0.388513	-0.213039
C72	C	1.894096	0.111487	0.286961
C73	C	1.394140	-0.388528	-0.105825
C74	C	1.894140	0.111472	0.394175
