data_functionalizedCrystal
_audit_creation_method	'MofGen! by Chris Wilmer'
_symmetry_space_group_name_H-M	'P1'
_symmetry_Int_Tables_number	1
_symmetry_cell_setting	triclinic
loop_
_symmetry_equiv_pos_as_xyz
  x,y,z
_cell_length_a	21.295417
_cell_length_b	12.759401
_cell_length_c	12.759393
_cell_angle_alpha	89.980198
_cell_angle_beta	89.961905
_cell_angle_gamma	90.029593
loop_
_atom_site_label
_atom_site_type_symbol
_atom_site_fract_x
_atom_site_fract_y
_atom_site_fract_z
Zn1	Zn	-0.250594	1.606151	-0.593933
Zn2	Zn	-0.355876	1.605994	-0.418230
Zn3	Zn	-0.250623	1.430450	-0.418271
Zn4	Zn	-0.355828	1.430393	-0.593870
O5	O	-0.303230	1.518247	-0.506076
O6	O	-0.264568	1.753151	-0.570634
O7	O	-0.341947	1.582665	-0.271214
O8	O	-0.162530	1.453846	-0.441617
O9	O	-0.341918	1.753035	-0.441546
O10	O	-0.162509	1.582933	-0.570675
O11	O	-0.264618	1.453694	-0.271245
O12	O	-0.264571	1.283421	-0.441556
O13	O	-0.341836	1.453750	-0.740900
O14	O	-0.341864	1.283380	-0.570568
O15	O	-0.264521	1.582878	-0.740946
O16	O	-0.443959	1.582610	-0.441485
O17	O	-0.443924	1.453597	-0.570527
C18	C	-0.303216	1.245279	-0.506061
C19	C	-0.303225	1.128503	-0.506079
C20	C	-0.466782	1.518109	-0.506018
C21	C	-0.536750	1.518146	-0.506028
C22	C	-0.263036	0.963965	-0.573406
C23	C	-0.263023	1.073689	-0.573399
C24	C	-0.343445	1.073587	-0.438769
C25	C	-0.343460	0.963865	-0.438782
C26	C	-0.569614	1.585383	-0.438904
C27	C	-0.635357	1.585432	-0.438928
C28	C	-0.668233	1.518226	-0.506064
C29	C	-0.635360	1.450985	-0.573201
C30	C	-0.569619	1.450945	-0.573183
N31	N	-0.771497	1.426319	-0.514068
N32	N	-0.833948	1.426360	-0.514080
C33	C	-0.866307	1.518344	-0.506124
N34	N	-0.833855	1.610287	-0.498137
N35	N	-0.771398	1.610245	-0.498121
C36	C	-0.739518	1.518262	-0.506092
C37	C	-0.970457	1.585639	-0.439023
C38	C	-1.036201	1.585690	-0.439054
C39	C	-1.036203	1.451233	-0.573321
C40	C	-0.970460	1.451192	-0.573296
C41	C	-0.937591	1.518393	-0.506141
C42	C	-0.139040	1.518414	-0.506157
C43	C	-0.069072	1.518485	-0.506192
C44	C	-0.303170	1.518325	-0.780109
C45	C	-0.303144	1.518359	-0.896886
C46	C	-0.303245	1.792280	-0.506092
C47	C	-0.303252	1.909057	-0.506099
C48	C	-0.262880	1.585601	-0.951774
C49	C	-0.262853	1.585619	-1.061498
C50	C	-0.343359	1.451149	-1.061437
C51	C	-0.343383	1.451127	-0.951715
C52	C	-0.303245	1.518229	-0.233109
C53	C	-0.303093	1.518399	-0.116332
H54	H	-0.230295	0.919343	-0.628220
H55	H	-0.376180	1.118226	-0.383959
H56	H	-0.376213	0.919158	-0.383971
C57	C	-0.428081	1.436416	-0.828265
C58	C	-0.387645	1.377211	-0.891370
H59	H	-0.455400	1.390782	-0.791007
H60	H	-0.452155	1.482161	-0.871063
H61	H	-0.404110	1.476445	-0.779916
H62	H	-0.411616	1.337188	-0.939725
H63	H	-0.363568	1.331448	-0.848569
H64	H	-0.542854	1.640105	-0.384226
C65	C	-0.709245	1.726779	-0.424423
C66	C	-0.671499	1.659315	-0.365122
H67	H	-0.731555	1.772385	-0.378851
H68	H	-0.738220	1.686760	-0.464419
H69	H	-0.683555	1.766957	-0.470203
H70	H	-0.697190	1.619130	-0.319347
H71	H	-0.642521	1.699337	-0.325108
C72	C	-0.736139	1.391335	-0.632832
C73	C	-0.671495	1.377107	-0.646996
H74	H	-0.758445	1.345721	-0.678391
H75	H	-0.746866	1.461915	-0.648274
H76	H	-0.746948	1.375999	-0.562228
H77	H	-0.660685	1.392450	-0.717599
H78	H	-0.660764	1.306511	-0.631561
C79	C	-0.428009	1.436490	-1.184778
C80	C	-0.387594	1.377259	-1.121708
H81	H	-0.455321	1.390871	-1.221980
H82	H	-0.404026	1.476530	-1.233168
H83	H	-0.452097	1.482226	-1.141955
H84	H	-0.363502	1.331528	-1.164532
H85	H	-0.411580	1.337201	-1.073313
H86	H	-0.542860	1.396192	-0.627844
C87	C	-0.227295	1.241926	-0.633169
C88	C	-0.218816	1.134045	-0.647385
H89	H	-0.200005	1.279185	-0.678853
H90	H	-0.218029	1.259879	-0.562614
H91	H	-0.269601	1.259881	-0.648415
H92	H	-0.176512	1.116089	-0.632131
H93	H	-0.228078	1.116085	-0.717956
C94	C	-0.977056	1.718549	-0.306311
C95	C	-0.934322	1.659512	-0.365216
H96	H	-0.954747	1.764158	-0.260750
H97	H	-1.002743	1.672813	-0.266096
H98	H	-1.002651	1.758730	-0.352141
H99	H	-0.908730	1.619325	-0.319385
H100	H	-0.908624	1.705254	-0.405434
H101	H	-0.230113	1.640343	-0.907135
H102	H	-0.230065	1.640373	-1.106183
C103	C	-1.136974	1.645614	-0.379626
C104	C	-1.072329	1.659713	-0.365376
H105	H	-1.159277	1.691350	-0.334175
H106	H	-1.147825	1.575083	-0.364094
H107	H	-1.147661	1.660866	-0.450272
H108	H	-1.061640	1.644453	-0.294731
H109	H	-1.061473	1.730260	-0.380901
C110	C	-1.136977	1.391595	-0.632968
C111	C	-1.072332	1.377360	-0.647123
H112	H	-1.159282	1.345985	-0.678531
H113	H	-1.147700	1.462176	-0.648408
H114	H	-1.147789	1.376258	-0.562365
H115	H	-1.061519	1.392705	-0.717724
H116	H	-1.061605	1.306763	-0.631689
H117	H	-0.943701	1.396437	-0.627950
