data_functionalizedCrystal
_audit_creation_method	'MofGen! by Chris Wilmer'
_symmetry_space_group_name_H-M	'P1'
_symmetry_Int_Tables_number	1
_symmetry_cell_setting	triclinic
loop_
_symmetry_equiv_pos_as_xyz
  x,y,z
_cell_length_a	10.967819
_cell_length_b	15.995292
_cell_length_c	9.482900
_cell_angle_alpha	99.335510
_cell_angle_beta	68.706355
_cell_angle_gamma	84.104272
loop_
_atom_site_label
_atom_site_type_symbol
_atom_site_fract_x
_atom_site_fract_y
_atom_site_fract_z
O1	O	1.745504	0.057446	-0.558195
O2	O	1.366937	0.078879	-0.463352
O3	O	1.566609	-0.053951	-0.513378
O4	O	1.545832	0.190276	-0.508169
O5	O	1.526051	-0.026866	-0.261424
O6	O	1.326379	0.105965	-0.211398
O7	O	1.704946	0.084531	-0.306241
Cu8	Cu	1.511959	0.097721	-0.235814
Cu9	Cu	1.559924	0.065689	-0.533779
O10	O	1.505274	0.217362	-0.256215
C11	C	1.298215	0.092908	-0.325239
C12	C	1.153872	0.094347	-0.289077
C13	C	0.961352	0.082450	-0.366128
C14	C	1.110539	0.080958	-0.403495
C15	C	1.545485	-0.071586	-0.387193
C16	C	1.542952	-0.164486	-0.386570
C17	C	1.533630	-0.502024	-0.384221
C18	C	1.677657	-0.481737	-0.419764
C19	C	1.680488	-0.385181	-0.421023
C20	C	1.538255	-0.334567	-0.385385
C21	C	1.489363	-0.377592	-0.511208
C22	C	1.487647	-0.474358	-0.510888
C23	C	1.438582	-0.443351	-0.223632
C24	C	1.443617	-0.346769	-0.223074
C25	C	1.540862	-0.239928	-0.386047
C26	C	1.531020	-0.596664	-0.383569
C27	C	1.773668	0.070502	-0.444357
C28	C	1.918014	0.069062	-0.480529
C29	C	1.526399	0.234996	-0.382403
C30	C	1.528934	0.327895	-0.383037
N31	N	1.478233	0.120250	-0.026244
N32	N	1.593660	0.043154	-0.743351
C33	C	1.549967	0.072330	0.027983
C34	C	1.521916	0.091081	0.202428
H35	H	1.720316	-0.356277	-0.332029
F36	F	1.414485	0.162850	0.310541
H37	H	1.632144	0.017419	-0.054734
F38	F	1.353687	-0.333760	-0.483932
H39	H	1.675842	-0.011761	0.173934
F40	F	0.865492	0.098882	-0.201948
H41	H	1.183878	0.068396	-0.529109
H42	H	1.080532	0.106919	-0.163462
F43	F	1.013872	0.052643	-0.644709
F44	F	1.728560	-0.505386	-0.303093
H45	H	1.749414	-0.522967	-0.536202
H46	H	1.753881	-0.379099	-0.538558
F47	F	1.575505	-0.525921	-0.667802
H48	H	1.396047	0.175155	0.056477
F49	F	1.350909	-0.491340	-0.484826
F50	F	1.577291	-0.367822	-0.667547
H51	H	1.466412	-0.460687	-0.125947
F52	F	1.489788	-0.309009	-0.101128
F53	F	1.306091	-0.299550	-0.177714
H54	H	1.332344	-0.454965	-0.196083
