data_functionalizedCrystal
_audit_creation_method	'MofGen! by Chris Wilmer'
_symmetry_space_group_name_H-M	'P1'
_symmetry_Int_Tables_number	1
_symmetry_cell_setting	triclinic
loop_
_symmetry_equiv_pos_as_xyz
  x,y,z
_cell_length_a	19.805407
_cell_length_b	19.077068
_cell_length_c	19.805399
_cell_angle_alpha	87.730571
_cell_angle_beta	90.019573
_cell_angle_gamma	92.327086
loop_
_atom_site_label
_atom_site_type_symbol
_atom_site_fract_x
_atom_site_fract_y
_atom_site_fract_z
Zn1	Zn	1.023904	-0.280218	0.393534
Zn2	Zn	1.273904	-0.030218	0.643534
Zn3	Zn	1.523904	0.219782	0.893534
Zn4	Zn	1.773904	0.469782	1.143534
Zn5	Zn	1.019269	-0.397917	0.284888
Zn6	Zn	1.269269	-0.147917	0.534888
Zn7	Zn	1.519269	0.102083	0.784888
Zn8	Zn	1.769269	0.352083	1.034888
Zn9	Zn	0.910718	-0.280237	0.280359
Zn10	Zn	1.160718	-0.030237	0.530359
Zn11	Zn	1.410718	0.219763	0.780359
Zn12	Zn	1.660718	0.469763	1.030359
Zn13	Zn	0.906134	-0.397880	0.398033
Zn14	Zn	1.156134	-0.147880	0.648033
Zn15	Zn	1.406134	0.102120	0.898033
Zn16	Zn	1.656134	0.352120	1.148033
O17	O	0.965006	-0.339063	0.339204
O18	O	1.215006	-0.089063	0.589204
O19	O	1.465006	0.160937	0.839204
O20	O	1.715006	0.410937	1.089204
O21	O	1.118005	-0.295839	0.379134
O22	O	1.368005	-0.045839	0.629134
O23	O	1.618005	0.204161	0.879134
O24	O	1.868005	0.454161	1.129134
O25	O	1.004848	-0.382330	0.189571
O26	O	1.254848	-0.132330	0.439571
O27	O	1.504848	0.117670	0.689571
O28	O	1.754848	0.367670	0.939571
O29	O	0.929590	-0.181744	0.291594
O30	O	1.179590	0.068256	0.541594
O31	O	1.429590	0.318256	0.791594
O32	O	1.679590	0.568256	1.041594
O33	O	1.114600	-0.382312	0.299312
O34	O	1.364600	-0.132312	0.549312
O35	O	1.614600	0.117688	0.799312
O36	O	1.864600	0.367688	1.049312
O37	O	1.012748	-0.181729	0.374743
O38	O	1.262748	0.068271	0.624743
O39	O	1.512748	0.318271	0.874743
O40	O	1.762748	0.568271	1.124743
O41	O	0.925096	-0.295872	0.186244
O42	O	1.175096	-0.045872	0.436244
O43	O	1.425096	0.204128	0.686244
O44	O	1.675096	0.454128	0.936244
O45	O	0.815394	-0.295835	0.295957
O46	O	1.065394	-0.045835	0.545957
O47	O	1.315394	0.204165	0.795957
O48	O	1.565394	0.454165	1.045957
O49	O	0.921778	-0.382248	0.492152
O50	O	1.171778	-0.132248	0.742152
O51	O	1.421778	0.117752	0.992152
O52	O	1.671778	0.367752	1.242152
O53	O	0.812026	-0.382267	0.382411
O54	O	1.062026	-0.132267	0.632411
O55	O	1.312026	0.117733	0.882411
O56	O	1.562026	0.367733	1.132411
O57	O	1.008303	-0.295802	0.488846
O58	O	1.258303	-0.045802	0.738846
O59	O	1.508303	0.204198	0.988846
O60	O	1.758303	0.454198	1.238846
O61	O	1.000404	-0.496403	0.303675
O62	O	1.250404	-0.246403	0.553675
O63	O	1.500404	0.003597	0.803675
O64	O	1.750404	0.253597	1.053675
O65	O	0.917284	-0.496376	0.386802
O66	O	1.167284	-0.246376	0.636802
O67	O	1.417284	0.003624	0.886802
O68	O	1.667284	0.253624	1.136802
C69	C	0.789151	-0.339050	0.339181
C70	C	1.039151	-0.089050	0.589181
C71	C	1.289151	0.160950	0.839181
C72	C	1.539151	0.410950	1.089181
C73	C	0.713918	-0.339061	0.339188
C74	C	0.963918	-0.089061	0.589188
C75	C	1.213918	0.160939	0.839188
C76	C	1.463918	0.410939	1.089188
C77	C	0.676836	-0.384133	0.384138
C78	C	0.926836	-0.134133	0.634138
C79	C	1.176836	0.115867	0.884138
C80	C	1.426836	0.365867	1.134138
C81	C	0.606147	-0.384135	0.384147
C82	C	0.856147	-0.134135	0.634147
C83	C	1.106147	0.115865	0.884147
C84	C	1.356147	0.365865	1.134147
C85	C	0.572543	-0.339066	0.339204
C86	C	0.822543	-0.089066	0.589204
C87	C	1.072543	0.160934	0.839204
C88	C	1.322543	0.410934	1.089204
C89	C	0.609630	-0.293989	0.294252
C90	C	0.859630	-0.043989	0.544252
C91	C	1.109630	0.206011	0.794252
C92	C	1.359630	0.456011	1.044252
C93	C	0.680318	-0.293985	0.294246
C94	C	0.930318	-0.043985	0.544246
C95	C	1.180318	0.206015	0.794246
C96	C	1.430318	0.456015	1.044246
C97	C	0.324556	-0.294004	0.294275
C98	C	0.574556	-0.044004	0.544275
C99	C	0.824556	0.205996	0.794275
C100	C	1.074556	0.455996	1.044275
C101	C	0.253864	-0.294014	0.294283
C102	C	0.503864	-0.044014	0.544283
C103	C	0.753864	0.205986	0.794283
C104	C	1.003864	0.455986	1.044283
C105	C	0.250386	-0.384154	0.384176
C106	C	0.500386	-0.134154	0.634176
C107	C	0.750386	0.115846	0.884176
C108	C	1.000386	0.365846	1.134176
C109	C	0.321073	-0.384150	0.384170
C110	C	0.571073	-0.134150	0.634170
C111	C	0.821073	0.115850	0.884170
C112	C	1.071073	0.365850	1.134170
C113	C	0.358155	-0.339070	0.339221
C114	C	0.608155	-0.089070	0.589221
C115	C	0.858155	0.160930	0.839221
C116	C	1.108155	0.410930	1.089221
C117	C	0.434804	-0.339069	0.339212
C118	C	0.684804	-0.089069	0.589212
C119	C	0.934804	0.160931	0.839212
C120	C	1.184804	0.410931	1.089212
C121	C	0.495895	-0.339071	0.339209
C122	C	0.745895	-0.089071	0.589209
C123	C	0.995895	0.160929	0.839209
C124	C	1.245895	0.410929	1.089209
C125	C	0.957862	-0.521927	0.346233
C126	C	1.207862	-0.271927	0.596233
C127	C	1.457862	-0.021927	0.846233
C128	C	1.707862	0.228073	1.096233
C129	C	0.954867	-0.600157	0.349263
C130	C	1.204867	-0.350157	0.599263
C131	C	1.454867	-0.100157	0.849263
C132	C	1.704867	0.149843	1.099263
C133	C	0.996770	-0.636901	0.307443
C134	C	1.246770	-0.386901	0.557443
C135	C	1.496770	-0.136901	0.807443
C136	C	1.746770	0.113099	1.057443
C137	C	0.993957	-0.710406	0.310296
C138	C	1.243957	-0.460406	0.560296
C139	C	1.493957	-0.210406	0.810296
C140	C	1.743957	0.039594	1.060296
C141	C	0.949238	-0.747167	0.354968
C142	C	1.199238	-0.497167	0.604968
C143	C	1.449238	-0.247167	0.854968
C144	C	1.699238	0.002833	1.104968
C145	C	0.907333	-0.710418	0.396793
C146	C	1.157333	-0.460418	0.646793
C147	C	1.407333	-0.210418	0.896793
C148	C	1.657333	0.039582	1.146793
C149	C	0.910150	-0.636914	0.393942
C150	C	1.160150	-0.386914	0.643942
C151	C	1.410150	-0.136914	0.893942
C152	C	1.660150	0.113086	1.143942
C153	C	0.936174	-0.967002	0.368135
C154	C	1.186174	-0.717002	0.618135
C155	C	1.436174	-0.467002	0.868135
C156	C	1.686174	-0.217002	1.118135
C157	C	0.933359	-1.040511	0.370981
C158	C	1.183359	-0.790511	0.620981
C159	C	1.433359	-0.540511	0.870981
C160	C	1.683359	-0.290511	1.120981
C161	C	1.019984	-1.040494	0.284485
C162	C	1.269984	-0.790494	0.534485
C163	C	1.519984	-0.540494	0.784485
C164	C	1.769984	-0.290494	1.034485
C165	C	1.022794	-0.966989	0.281635
C166	C	1.272794	-0.716989	0.531635
C167	C	1.522794	-0.466989	0.781635
C168	C	1.772794	-0.216989	1.031635
C169	C	0.980892	-0.930246	0.323463
C170	C	1.230892	-0.680246	0.573463
C171	C	1.480892	-0.430246	0.823463
C172	C	1.730892	-0.180246	1.073463
N173	N	0.946361	-0.822301	0.357884
N174	N	1.196361	-0.572301	0.607884
N175	N	1.446361	-0.322301	0.857884
N176	N	1.696361	-0.072301	1.107884
N177	N	0.983773	-0.855113	0.320549
N178	N	1.233773	-0.605113	0.570549
N179	N	1.483773	-0.355113	0.820549
N180	N	1.733773	-0.105113	1.070549
C181	C	1.141548	-0.339077	0.339226
C182	C	1.391548	-0.089077	0.589226
C183	C	1.641548	0.160923	0.839226
C184	C	1.891548	0.410923	1.089226
C185	C	1.216780	-0.339083	0.339236
C186	C	1.466780	-0.089083	0.589236
C187	C	1.716780	0.160917	0.839236
C188	C	1.966780	0.410917	1.089236
C189	C	0.965046	-0.339019	0.515745
C190	C	1.215046	-0.089019	0.765745
C191	C	1.465046	0.160981	1.015745
C192	C	1.715046	0.410981	1.265745
C193	C	0.965063	-0.339000	0.590976
C194	C	1.215063	-0.089000	0.840976
C195	C	1.465063	0.161000	1.090976
C196	C	1.715063	0.411000	1.340976
C197	C	0.972197	-0.155485	0.332161
C198	C	1.222197	0.094515	0.582161
C199	C	1.472197	0.344515	0.832161
C200	C	1.722197	0.594515	1.082161
C201	C	0.975262	-0.077255	0.329160
C202	C	1.225262	0.172745	0.579160
C203	C	1.475262	0.422745	0.829160
C204	C	1.725262	0.672745	1.079160
C205	C	0.965008	-0.339056	0.163347
C206	C	1.215008	-0.089056	0.413347
C207	C	1.465008	0.160944	0.663347
C208	C	1.715008	0.410944	0.913347
C209	C	0.965130	-0.338877	0.088109
C210	C	1.215130	-0.088877	0.338109
C211	C	1.465130	0.161123	0.588109
C212	C	1.715130	0.411123	0.838109
C213	C	1.010118	-0.293985	0.624600
C214	C	1.260118	-0.043985	0.874600
C215	C	1.510118	0.206015	1.124600
C216	C	1.760118	0.456015	1.374600
C217	C	1.010125	-0.293965	0.695288
C218	C	1.260125	-0.043965	0.945288
C219	C	1.510125	0.206035	1.195288
C220	C	1.760125	0.456035	1.445288
C221	C	0.965081	-0.338963	0.732350
C222	C	1.215081	-0.088963	0.982350
C223	C	1.465081	0.161037	1.232350
C224	C	1.715081	0.411037	1.482350
C225	C	0.920022	-0.383980	0.698721
C226	C	1.170022	-0.133980	0.948721
C227	C	1.420022	0.116020	1.198721
C228	C	1.670022	0.366020	1.448721
C229	C	0.920011	-0.383996	0.628035
C230	C	1.170011	-0.133996	0.878035
C231	C	1.420011	0.116004	1.128035
C232	C	1.670011	0.366004	1.378035
C233	C	0.920062	-0.383914	0.983792
C234	C	1.170062	-0.133914	1.233792
C235	C	1.420062	0.116086	1.483792
C236	C	1.670062	0.366086	1.733792
C237	C	0.920078	-0.383896	1.054484
C238	C	1.170078	-0.133896	1.304484
C239	C	1.420078	0.116104	1.554484
C240	C	1.670078	0.366104	1.804484
C241	C	1.010177	-0.293883	1.051045
C242	C	1.260177	-0.043883	1.301045
C243	C	1.510177	0.206117	1.551045
C244	C	1.760177	0.456117	1.801045
C245	C	1.010166	-0.293899	0.980358
C246	C	1.260166	-0.043899	1.230358
C247	C	1.510166	0.206101	1.480358
C248	C	1.760166	0.456101	1.730358
C249	C	0.965104	-0.338913	0.946736
C250	C	1.215104	-0.088913	1.196736
C251	C	1.465104	0.161087	1.446736
C252	C	1.715104	0.411087	1.696736
C253	C	0.965096	-0.338934	0.870088
C254	C	1.215096	-0.088934	1.120088
C255	C	1.465096	0.161066	1.370088
C256	C	1.715096	0.411066	1.620088
C257	C	0.965093	-0.338947	0.808997
C258	C	1.215093	-0.088947	1.058997
C259	C	1.465093	0.161053	1.308997
C260	C	1.715093	0.411053	1.558997
H261	H	0.704191	-0.420836	0.420734
H262	H	0.954191	-0.170836	0.670734
H263	H	1.204191	0.079164	0.920734
H264	H	1.454191	0.329164	1.170734
H265	H	0.226505	-0.257309	0.257684
H266	H	0.476505	-0.007309	0.507684
H267	H	0.726505	0.242691	0.757684
H268	H	0.976505	0.492691	1.007684
F269	F	1.058110	-0.246009	0.940917
F270	F	1.308110	0.003991	1.190917
F271	F	1.558110	0.253991	1.440917
F272	F	1.808110	0.503991	1.690917
H273	H	1.033182	-0.606975	0.271063
H274	H	1.283182	-0.356975	0.521063
H275	H	1.533182	-0.106975	0.771063
H276	H	1.783182	0.143025	1.021063
F277	F	0.566684	-0.432107	0.431989
F278	F	0.816684	-0.182107	0.681989
F279	F	1.066684	0.067893	0.931989
F280	F	1.316684	0.317893	1.181989
F281	F	0.859743	-0.749543	0.444340
F282	F	1.109743	-0.499543	0.694340
F283	F	1.359743	-0.249543	0.944340
F284	F	1.609743	0.000457	1.194340
F285	F	0.356834	-0.432120	0.432003
F286	F	0.606834	-0.182120	0.682003
F287	F	0.856834	0.067880	0.932003
F288	F	1.106834	0.317880	1.182003
F289	F	0.719784	-0.246011	0.246406
F290	F	0.969784	0.003989	0.496406
F291	F	1.219784	0.253989	0.746406
F292	F	1.469784	0.503989	0.996406
F293	F	0.885753	-1.079633	0.418521
F294	F	1.135753	-0.829633	0.668521
F295	F	1.385753	-0.579633	0.918521
F296	F	1.635753	-0.329633	1.168521
F297	F	1.058064	-0.246095	0.585161
F298	F	1.308064	0.003905	0.835161
F299	F	1.558064	0.253905	1.085161
F300	F	1.808064	0.503905	1.335161
H301	H	0.883380	-0.420577	0.956426
H302	H	1.133380	-0.170577	1.206426
H303	H	1.383380	0.079423	1.456426
H304	H	1.633380	0.329423	1.706426
F305	F	0.364013	-0.246025	0.246438
F306	F	0.614013	0.003975	0.496438
F307	F	0.864013	0.253975	0.746438
F308	F	1.114013	0.503975	0.996438
H309	H	0.883343	-0.420615	0.728903
H310	H	1.133343	-0.170615	0.978903
H311	H	1.383343	0.079385	1.228903
H312	H	1.633343	0.329385	1.478903
H313	H	0.876029	-0.606998	0.427998
H314	H	1.126029	-0.356998	0.677998
H315	H	1.376029	-0.106998	0.927998
H316	H	1.626029	0.143002	1.177998
F317	F	1.070397	-0.927871	0.234097
F318	F	1.320397	-0.677871	0.484097
F319	F	1.570397	-0.427871	0.734097
F320	F	1.820397	-0.177871	0.984097
F321	F	1.058134	-0.245973	1.086834
F322	F	1.308134	0.004027	1.336834
F323	F	1.558134	0.254027	1.586834
F324	F	1.808134	0.504027	1.836834
F325	F	0.210915	-0.432132	0.432016
F326	F	0.460915	-0.182132	0.682016
F327	F	0.710915	0.067868	0.932016
F328	F	0.960915	0.317868	1.182016
H329	H	0.582264	-0.257290	0.257661
H330	H	0.832264	-0.007290	0.507661
H331	H	1.082264	0.242710	0.757661
H332	H	1.332264	0.492710	1.007661
H333	H	1.028079	-0.740320	0.276241
H334	H	1.278079	-0.490320	0.526241
H335	H	1.528079	-0.240320	0.776241
H336	H	1.778079	0.009680	1.026241
H337	H	1.054099	-1.070418	0.250432
H338	H	1.304099	-0.820418	0.500432
H339	H	1.554099	-0.570418	0.750432
H340	H	1.804099	-0.320418	1.000432
F341	F	0.891577	-0.927907	0.412651
F342	F	1.141577	-0.677907	0.662651
F343	F	1.391577	-0.427907	0.912651
F344	F	1.641577	-0.177907	1.162651
H345	H	1.046815	-0.257311	0.722661
H346	H	1.296815	-0.007311	0.972661
H347	H	1.546815	0.242689	1.222661
H348	H	1.796815	0.492689	1.472661
F349	F	0.872133	-0.431791	1.093927
F350	F	1.122133	-0.181791	1.343927
F351	F	1.372133	0.068209	1.593927
F352	F	1.622133	0.318209	1.843927
F353	F	0.872056	-0.431905	0.592250
F354	F	1.122056	-0.181905	0.842250
F355	F	1.372056	0.068095	1.092250
F356	F	1.622056	0.318095	1.342250
