data_functionalizedCrystal
_audit_creation_method	'MofGen! by Chris Wilmer'
_symmetry_space_group_name_H-M	'P1'
_symmetry_Int_Tables_number	1
_symmetry_cell_setting	triclinic
loop_
_symmetry_equiv_pos_as_xyz
  x,y,z
_cell_length_a	17.038272
_cell_length_b	15.500227
_cell_length_c	10.654550
_cell_angle_alpha	92.855794
_cell_angle_beta	92.201757
_cell_angle_gamma	93.043705
loop_
_atom_site_label
_atom_site_type_symbol
_atom_site_fract_x
_atom_site_fract_y
_atom_site_fract_z
O1	O	1.042493	0.071835	-0.267428
O2	O	0.814839	0.071861	-0.263094
O3	O	0.933900	0.071842	-0.083008
O4	O	0.923432	0.071854	-0.447514
O5	O	0.926675	-0.072046	-0.093890
O6	O	0.807614	-0.072027	-0.273976
O7	O	1.035268	-0.072052	-0.278311
Cu8	Cu	0.920781	-0.085178	-0.277137
Cu9	Cu	0.929326	0.084986	-0.264267
O10	O	0.916207	-0.072034	-0.458396
C11	C	0.782077	-0.000080	-0.264594
C12	C	0.695218	-0.000070	-0.252836
N13	N	0.914777	-0.204862	-0.286188
C14	C	0.645707	-0.000067	-0.360780
C15	C	0.564094	-0.000080	-0.349726
C16	C	0.531995	-0.000089	-0.230727
C17	C	0.581512	-0.000094	-0.122775
C18	C	0.663123	-0.000088	-0.133831
C19	C	0.286017	-0.000113	-0.191671
C20	C	0.204400	-0.000117	-0.180624
C21	C	0.186988	-0.000104	-0.407576
C22	C	0.268602	-0.000092	-0.418621
C23	C	0.318112	-0.000102	-0.310669
C24	C	0.448573	-0.000099	-0.219426
C25	C	0.401531	-0.000099	-0.321972
C26	C	0.965245	-0.250146	-0.209912
C27	C	0.960712	-0.340718	-0.216770
C28	C	0.905713	-0.386004	-0.299911
C29	C	0.855240	-0.340713	-0.376191
C30	C	0.859770	-0.250143	-0.369326
C31	C	0.889393	-0.659469	-0.324621
C32	C	0.884868	-0.750045	-0.331483
C33	C	0.990339	-0.750044	-0.172060
C34	C	0.994868	-0.659472	-0.165207
C35	C	0.944392	-0.614189	-0.241482
C36	C	0.901080	-0.478584	-0.306926
C37	C	0.949022	-0.521611	-0.234460
C38	C	1.068030	-0.000110	-0.276810
C39	C	1.154889	-0.000114	-0.288568
C40	C	0.929519	-0.000101	-0.041580
C41	C	0.927219	-0.000100	0.098077
N42	N	0.935336	0.204670	-0.255207
C43	C	0.920588	-0.000088	-0.499824
C44	C	0.922888	-0.000084	-0.639481
C45	C	0.997320	-0.000107	0.171053
C46	C	0.995155	-0.000096	0.302275
C47	C	0.852782	-0.000074	0.287534
C48	C	0.854948	-0.000079	0.156314
H49	H	0.671836	-0.000059	-0.457682
H50	H	0.793941	-0.000059	0.334967
F51	F	0.780333	-0.000065	0.078644
F52	F	0.134291	-0.000095	-0.522457
F53	F	0.511404	-0.000073	-0.464616
H54	H	0.422427	-0.000130	-0.122538
H55	H	1.031434	-0.786922	-0.109959
H56	H	0.703435	-0.000090	-0.045931
H57	H	0.818673	-0.213273	-0.431436
H58	H	0.840079	-0.786913	-0.399192
H59	H	1.039652	-0.622602	-0.097507
F60	F	1.014424	-0.388914	-0.135586
F61	F	1.069767	-0.000103	0.379937
H62	H	0.294731	-0.000075	-0.515521
H63	H	1.056168	-0.000122	0.123640
F64	F	1.023786	-0.201958	-0.121426
F65	F	0.170239	-0.000141	-0.053964
H66	H	0.326319	-0.000122	-0.103769
H67	H	0.993799	-0.484737	-0.166761
H68	H	0.848295	-0.622606	-0.386730
F69	F	0.842548	-0.526785	-0.395413
F70	F	0.435696	-0.000093	-0.448616
F71	F	0.547346	-0.000109	0.003873
F72	F	0.796702	-0.388911	-0.464671
