data_functionalizedCrystal
_audit_creation_method	'MofGen! by Chris Wilmer'
_symmetry_space_group_name_H-M	'P1'
_symmetry_Int_Tables_number	1
_symmetry_cell_setting	triclinic
loop_
_symmetry_equiv_pos_as_xyz
  x,y,z
_cell_length_a	12.759401
_cell_length_b	13.897448
_cell_length_c	12.759401
_cell_angle_alpha	90.009629
_cell_angle_beta	90.003006
_cell_angle_gamma	90.017853
loop_
_atom_site_label
_atom_site_type_symbol
_atom_site_fract_x
_atom_site_fract_y
_atom_site_fract_z
Zn1	Zn	1.606073	-0.384180	0.593968
Zn2	Zn	1.606006	-0.545442	0.418283
Zn3	Zn	1.430422	-0.384163	0.418307
Zn4	Zn	1.430354	-0.545435	0.593924
O5	O	1.518214	-0.464805	0.506120
O6	O	1.753085	-0.405581	0.570671
O7	O	1.582714	-0.524045	0.271265
O8	O	1.453779	-0.249184	0.441638
O9	O	1.753035	-0.524060	0.441596
O10	O	1.582829	-0.249196	0.570695
O11	O	1.453714	-0.405554	0.271283
O12	O	1.283392	-0.405546	0.441595
O13	O	1.453663	-0.524048	0.740951
O14	O	1.283342	-0.524032	0.570620
O15	O	1.582763	-0.405574	0.740983
O16	O	1.582648	-0.680423	0.441553
O17	O	1.453598	-0.680417	0.570596
C18	C	1.245246	-0.464787	0.506106
C19	C	1.128470	-0.464803	0.506125
C20	C	1.073609	-0.526597	0.573197
C21	C	0.963885	-0.526609	0.573208
C22	C	0.963892	-0.403031	0.439067
C23	C	1.073614	-0.403014	0.439061
C24	C	1.128465	-0.588386	0.640261
C25	C	1.073604	-0.650185	0.707337
C26	C	0.963880	-0.650198	0.707349
C27	C	0.909017	-0.588410	0.640283
C28	C	1.518137	-0.715419	0.506090
C29	C	1.518200	-0.822633	0.506112
C30	C	1.518311	-1.018928	0.506178
C31	C	1.518246	-0.909696	0.506145
C32	C	1.792247	-0.464824	0.506135
C33	C	1.909024	-0.464831	0.506142
C34	C	1.518213	-0.464812	0.780154
C35	C	1.518213	-0.464815	0.896930
C36	C	1.518319	-0.213212	0.506174
C37	C	1.518364	-0.105998	0.506197
C38	C	1.585372	-0.526509	0.951780
C39	C	1.585374	-0.526508	1.061504
C40	C	1.451050	-0.403115	1.061519
C41	C	1.451053	-0.403112	0.951797
C42	C	1.652532	-0.588212	0.896914
C43	C	1.719695	-0.649913	0.951764
C44	C	1.719698	-0.649911	1.061488
C45	C	1.652536	-0.588209	1.116362
C46	C	1.518208	-0.464820	1.233153
C47	C	1.518212	-0.464816	1.116376
H48	H	1.217808	-0.588384	0.640257
H49	H	0.919213	-0.352727	0.384465
O50	O	0.802430	-0.588427	0.640124
C51	C	0.765724	-0.613082	0.539406
H52	H	0.828929	-0.596503	0.478896
H53	H	0.692316	-0.569561	0.520844
H54	H	0.746245	-0.693118	0.537035
O55	O	1.126870	-0.343100	0.373752
C56	C	1.100028	-0.364020	0.269002
H57	H	1.069843	-0.441072	0.263555
H58	H	1.172187	-0.355636	0.217114
H59	H	1.036354	-0.312269	0.241634
H60	H	1.652534	-0.588223	0.807571
H61	H	1.774393	-0.700144	1.106144
H62	H	1.118281	-0.700484	0.761946
O63	O	0.910750	-0.710313	0.772540
C64	C	0.982700	-0.764823	0.831747
H65	H	1.060907	-0.768088	0.788699
H66	H	0.950986	-0.840843	0.842807
H67	H	0.994388	-0.729619	0.911608
H68	H	1.774382	-0.700142	0.907078
O69	O	1.652649	-0.588348	1.222948
C70	C	1.726356	-0.656007	1.259598
H71	H	1.741037	-0.712373	1.196365
H72	H	1.694648	-0.692598	1.333005
H73	H	1.802983	-0.617762	1.279061
H74	H	1.396369	-0.352881	1.106206
H75	H	1.396370	-0.352872	0.907137
