data_functionalizedCrystal
_audit_creation_method	'MofGen! by Chris Wilmer'
_symmetry_space_group_name_H-M	'P1'
_symmetry_Int_Tables_number	1
_symmetry_cell_setting	triclinic
loop_
_symmetry_equiv_pos_as_xyz
  x,y,z
_cell_length_a	16.992694
_cell_length_b	10.654550
_cell_length_c	16.053802
_cell_angle_alpha	92.591674
_cell_angle_beta	87.249047
_cell_angle_gamma	87.576563
loop_
_atom_site_label
_atom_site_type_symbol
_atom_site_fract_x
_atom_site_fract_y
_atom_site_fract_z
O1	O	1.045116	0.261481	-0.069321
O2	O	0.816816	0.258556	-0.069346
O3	O	0.936215	0.077733	-0.069330
O4	O	0.925717	0.442304	-0.069337
O5	O	0.929643	0.087643	0.069528
O6	O	0.810244	0.268466	0.069512
O7	O	1.038544	0.271390	0.069537
Zn8	Zn	0.923350	0.271501	0.091571
Zn9	Zn	0.932009	0.258446	-0.091380
O10	O	0.919145	0.452213	0.069521
C11	C	0.784297	0.259751	0.000080
C12	C	0.697192	0.248531	0.000071
C13	C	0.647540	0.356781	0.000069
C14	C	0.565696	0.346233	0.000081
C15	C	0.533505	0.227432	0.000088
C16	C	0.583163	0.119174	0.000092
C17	C	0.665006	0.129724	0.000087
C18	C	0.289668	0.183707	0.000112
C19	C	0.207819	0.173165	0.000115
C20	C	0.190358	0.400225	0.000105
C21	C	0.272203	0.410765	0.000094
C22	C	0.321854	0.302506	0.000103
N23	N	0.449847	0.216647	0.000098
N24	N	0.405510	0.313293	0.000099
C25	C	0.932158	0.035823	0.000098
C26	C	0.929852	-0.103819	0.000095
C27	C	1.000152	-0.177229	0.000105
C28	C	0.997981	-0.308438	0.000099
C29	C	0.855203	-0.292815	0.000076
C30	C	0.857375	-0.161609	0.000077
C31	C	1.072629	-0.119440	0.000124
C32	C	1.142935	-0.192850	0.000135
C33	C	1.140763	-0.324059	0.000129
C34	C	1.068286	-0.381858	0.000112
C35	C	1.071063	0.270196	0.000109
C36	C	1.158168	0.281416	0.000113
C37	C	0.923202	0.494123	0.000091
C38	C	0.925508	0.633766	0.000089
N39	N	0.917446	0.280411	0.216431
N40	N	0.937920	0.249526	-0.216239
C41	C	0.968269	0.203502	0.260132
C42	C	0.964147	0.209747	0.347538
C43	C	0.909204	0.292909	0.391242
C44	C	0.858376	0.369822	0.347535
C45	C	0.862495	0.363569	0.260130
C46	C	0.891210	0.320186	0.652649
C47	C	0.887096	0.326435	0.740060
C48	C	0.992867	0.166359	0.740057
C49	C	0.996985	0.160119	0.652650
C50	C	0.946153	0.237026	0.608951
N51	N	0.904991	0.299298	0.480585
N52	N	0.950364	0.230631	0.519610
H53	H	0.149924	0.488363	0.000100
H54	H	0.330085	0.095555	0.000119
C55	C	1.065895	-0.526185	0.000100
H56	H	1.012663	-0.550089	0.000086
H57	H	1.089477	-0.555306	0.048523
H58	H	1.094059	-0.562196	-0.048329
C59	C	1.020050	0.125148	0.395609
H60	H	1.009723	0.140767	0.453923
H61	H	1.073156	0.143073	0.381280
H62	H	1.011747	0.039397	0.381290
H63	H	0.796195	-0.339885	0.000064
C64	C	0.719626	0.010652	0.000087
H65	H	0.772978	0.033949	0.000092
H66	H	0.712089	-0.041185	-0.048331
H67	H	0.707515	-0.034260	0.048520
C68	C	1.057417	0.068633	0.604582
H69	H	1.087091	0.023713	0.643128
H70	H	1.091924	0.114699	0.570475
H71	H	1.030513	0.011026	0.570497
C72	C	0.511082	0.465309	0.000077
H73	H	0.541976	0.537571	0.000061
H74	H	0.476509	0.469377	0.048502
H75	H	0.481077	0.462452	-0.048349
H76	H	0.556946	0.022444	0.000110
H77	H	1.074405	-0.012604	0.000131
H78	H	1.034251	0.103743	0.775645
H79	H	1.013013	0.135788	0.224554
C80	C	0.826615	0.417847	0.788133
H81	H	0.796914	0.462727	0.749590
H82	H	0.853470	0.475475	0.822242
H83	H	0.792127	0.371700	0.822217
H84	H	0.800130	-0.101836	0.000069
H85	H	0.849823	0.382810	0.617076
C86	C	0.797941	0.461300	0.395607
H87	H	0.802772	0.454021	0.453921
H88	H	0.746185	0.441330	0.381293
H89	H	0.807596	0.545002	0.381270
H90	H	0.821108	0.426195	0.224550
H91	H	1.201944	-0.145783	0.000128
C92	C	0.682943	0.487463	0.000061
H93	H	0.641647	0.550421	0.000069
H94	H	0.716792	0.492845	-0.048364
H95	H	0.712221	0.499754	0.048488
H96	H	1.198010	-0.383827	0.000129
C97	C	0.307607	0.541446	0.000098
H98	H	0.266313	0.604408	0.000108
H99	H	0.341458	0.546832	-0.048324
H100	H	0.336883	0.553728	0.048528
C101	C	0.172411	0.042479	0.000125
H102	H	0.213702	-0.020485	0.000135
H103	H	0.143134	0.030188	-0.048298
H104	H	0.138560	0.037110	0.048554
