data_functionalizedCrystal
_audit_creation_method	'MofGen! by Chris Wilmer'
_symmetry_space_group_name_H-M	'P1'
_symmetry_Int_Tables_number	1
_symmetry_cell_setting	triclinic
loop_
_symmetry_equiv_pos_as_xyz
  x,y,z
_cell_length_a	21.295418
_cell_length_b	12.594516
_cell_length_c	21.295411
_cell_angle_alpha	90.011599
_cell_angle_beta	89.956262
_cell_angle_gamma	89.968131
loop_
_atom_site_label
_atom_site_type_symbol
_atom_site_fract_x
_atom_site_fract_y
_atom_site_fract_z
Zn1	Zn	0.962419	0.423414	-0.356278
Zn2	Zn	0.962348	0.601379	-0.251021
Zn3	Zn	0.857142	0.423464	-0.250987
Zn4	Zn	0.857138	0.601400	-0.356218
O5	O	0.909762	0.512414	-0.303626
O6	O	1.050499	0.446992	-0.342354
O7	O	0.948364	0.577790	-0.162927
O8	O	0.871139	0.274512	-0.264965
O9	O	1.050447	0.577742	-0.265023
O10	O	0.948485	0.274475	-0.342321
O11	O	0.871070	0.447077	-0.162902
O12	O	0.769052	0.447097	-0.264907
O13	O	0.871132	0.577778	-0.444315
O14	O	0.769049	0.577826	-0.342220
O15	O	0.948481	0.447012	-0.444359
O16	O	0.948360	0.750328	-0.264965
O17	O	0.871063	0.750343	-0.342253
C18	C	0.746210	0.512470	-0.303554
C19	C	0.676242	0.512520	-0.303538
C20	C	0.909721	0.788955	-0.303620
C21	C	0.909760	0.907261	-0.303638
C22	C	0.909814	0.512392	-0.467816
C23	C	0.909836	0.512382	-0.537785
C24	C	0.643390	0.580680	-0.343734
C25	C	0.577648	0.580654	-0.343762
C26	C	0.544760	0.512479	-0.303583
C27	C	0.577619	0.444305	-0.263384
C28	C	0.643360	0.444325	-0.263361
N29	N	0.441482	0.504148	-0.248524
N30	N	0.379031	0.504134	-0.248548
C31	C	0.346685	0.512411	-0.303650
N32	N	0.379150	0.520722	-0.358729
N33	N	0.441607	0.520741	-0.358705
C34	C	0.473474	0.512448	-0.303603
C35	C	0.242548	0.580547	-0.343880
C36	C	0.176804	0.580513	-0.343909
C37	C	0.176777	0.444169	-0.263525
C38	C	0.242519	0.444197	-0.263501
C39	C	0.275401	0.512391	-0.303678
C40	C	1.073952	0.512359	-0.303699
C41	C	1.143920	0.512335	-0.303730
C42	C	0.909820	0.234793	-0.303646
C43	C	0.909845	0.116488	-0.303655
C44	C	0.867714	0.976561	-0.345645
C45	C	0.852373	1.047409	-0.288200
C46	C	0.925159	1.047212	-0.361094
C47	C	0.894389	0.976550	-0.246162
C48	C	0.967201	0.976347	-0.319095
C49	C	0.951882	1.047163	-0.261610
C50	C	0.950110	0.444290	-0.570675
C51	C	0.950110	0.444243	-0.636418
C52	C	0.909841	0.512309	-0.669267
C53	C	0.869559	0.580406	-0.636369
C54	C	0.869557	0.580443	-0.570627
N55	N	0.904998	0.605422	-0.772491
N56	N	0.905004	0.605385	-0.834942
C57	C	0.909845	0.512201	-0.867342
N58	N	0.914692	0.419055	-0.834931
N59	N	0.914689	0.419094	-0.772474
C60	C	0.909839	0.512276	-0.740553
C61	C	0.950120	0.444053	-0.971518
C62	C	0.950115	0.444005	-1.037262
C63	C	0.869568	0.580177	-1.037212
C64	C	0.869570	0.580216	-0.971469
C65	C	0.909850	0.512155	-0.938626
C66	C	0.909746	0.512360	-0.140074
C67	C	0.909846	0.512070	-0.070107
H68	H	0.670158	0.636208	-0.376450
H69	H	0.836775	0.635587	-1.063957
H70	H	0.836778	0.635670	-0.944689
H71	H	0.836758	0.635891	-0.543848
H72	H	0.150057	0.636015	-0.376646
O73	O	0.830475	0.646676	-0.668206
C74	C	0.844218	0.752764	-0.652169
H75	H	0.868414	0.754986	-0.604453
H76	H	0.798777	0.800506	-0.649890
H77	H	0.876577	0.788585	-0.689193
O78	O	0.144740	0.378068	-0.224499
C79	C	0.079669	0.392656	-0.233142
H80	H	0.070681	0.474831	-0.253702
H81	H	0.054643	0.385355	-0.186000
H82	H	0.061066	0.329578	-0.266713
H83	H	0.269267	0.388698	-0.230766
H84	H	0.550895	0.636158	-0.376497
H85	H	0.982908	0.388868	-0.543938
H86	H	0.803836	1.078645	-0.275140
O87	O	0.545648	0.378235	-0.224282
C88	C	0.507541	0.438724	-0.183587
H89	H	0.527313	0.522550	-0.179612
H90	H	0.506762	0.400111	-0.135179
H91	H	0.457736	0.442424	-0.203059
H92	H	0.982915	0.388627	-0.944776
H93	H	1.015727	0.945114	-0.332183
O94	O	0.675178	0.378082	-0.224250
C95	C	0.632057	0.317878	-0.188804
H96	H	0.585171	0.361448	-0.186599
H97	H	0.651001	0.306409	-0.139211
H98	H	0.625131	0.237094	-0.211938
O99	O	0.274396	0.646810	-0.382971
C100	C	0.231299	0.706977	-0.418451
H101	H	0.184458	0.663369	-0.420690
H102	H	0.250345	0.718455	-0.468031
H103	H	0.224245	0.787757	-0.395326
H104	H	0.832094	0.945558	-0.381118
H105	H	0.881343	0.945640	-0.197566
O106	O	0.994274	1.083875	-0.219107
C107	C	0.977859	1.047654	-0.158644
H108	H	0.925625	1.028002	-0.157379
H109	H	0.988468	1.112241	-0.122676
H110	H	1.006210	0.973433	-0.146982
H111	H	0.938149	1.078251	-0.409677
H112	H	0.982904	0.388788	-0.663202
O113	O	0.989299	0.377821	-1.069116
C114	C	1.024836	0.317743	-1.026028
H115	H	1.027004	0.361369	-0.979171
H116	H	1.074436	0.306369	-1.045059
H117	H	1.001806	0.236914	-1.019010
