data_functionalizedCrystal
_audit_creation_method	'MofGen! by Chris Wilmer'
_symmetry_space_group_name_H-M	'P1'
_symmetry_Int_Tables_number	1
_symmetry_cell_setting	triclinic
loop_
_symmetry_equiv_pos_as_xyz
  x,y,z
_cell_length_a	18.101395
_cell_length_b	18.101398
_cell_length_c	19.805399
_cell_angle_alpha	90.026535
_cell_angle_beta	89.974882
_cell_angle_gamma	89.976925
loop_
_atom_site_label
_atom_site_type_symbol
_atom_site_fract_x
_atom_site_fract_y
_atom_site_fract_z
Zn1	Zn	-0.295005	-1.132118	-0.382857
Zn2	Zn	-0.418849	-1.132015	-0.269673
Zn3	Zn	-0.295008	-1.008278	-0.269668
Zn4	Zn	-0.418792	-1.008228	-0.382806
O5	O	-0.356914	-1.070160	-0.326251
O6	O	-0.311456	-1.235737	-0.367866
O7	O	-0.402446	-1.115579	-0.174956
O8	O	-0.191375	-1.024770	-0.284701
O9	O	-0.402443	-1.235662	-0.284711
O10	O	-0.191373	-1.115755	-0.367861
O11	O	-0.311461	-1.024670	-0.174952
O12	O	-0.311406	-0.904638	-0.284652
O13	O	-0.402347	-1.024685	-0.477530
O14	O	-0.402350	-0.904602	-0.367775
O15	O	-0.311401	-1.115706	-0.477567
O16	O	-0.522474	-1.115530	-0.284662
O17	O	-0.522433	-1.024584	-0.367780
C18	C	-0.356873	-0.877749	-0.326208
C19	C	-0.356873	-0.795435	-0.326205
C20	C	-0.549324	-1.070061	-0.326231
C21	C	-0.631638	-1.070086	-0.326245
C22	C	-0.930729	-1.070249	-0.326282
C23	C	-0.899409	-1.013161	-0.378707
C24	C	-0.813791	-1.012889	-0.378543
C25	C	-0.782347	-1.070168	-0.326264
C26	C	-0.813492	-1.049039	-0.254927
C27	C	-0.899137	-1.048671	-0.255241
C28	C	-0.899085	-1.148590	-0.344565
C29	C	-0.813434	-1.148129	-0.346130
C30	C	-0.698487	-1.070124	-0.326250
C31	C	-1.014589	-1.070291	-0.326291
C32	C	-0.356902	-0.496344	-0.326250
C33	C	-0.299399	-0.527668	-0.274208
C34	C	-0.299558	-0.613286	-0.273989
C35	C	-0.356887	-0.644727	-0.326228
C36	C	-0.434896	-0.613609	-0.306739
C37	C	-0.434572	-0.527964	-0.306373
C38	C	-0.337076	-0.527958	-0.397905
C39	C	-0.335344	-0.613609	-0.397517
C40	C	-0.356883	-0.728586	-0.326217
C41	C	-0.356911	-0.412485	-0.326260
C42	C	-0.163752	-1.070279	-0.326286
C43	C	-0.081438	-1.070330	-0.326301
C44	C	-0.356867	-1.070201	-0.502794
C45	C	-0.356847	-1.070219	-0.578026
C46	C	-0.356941	-0.263322	-0.326285
C47	C	-0.356916	-0.345636	-0.326272
C48	C	-0.309489	-1.117615	-0.613391
C49	C	-0.309468	-1.117623	-0.684079
C50	C	-0.356809	-1.070237	-0.719402
C51	C	-0.404168	-1.022836	-0.684032
C52	C	-0.404186	-1.022825	-0.613345
C53	C	-0.404099	-1.022878	-0.969106
C54	C	-0.404080	-1.022894	-1.039798
C55	C	-0.309382	-1.117675	-1.039840
C56	C	-0.309399	-1.117665	-0.969152
C57	C	-0.356756	-1.070261	-0.933789
C58	C	-0.356777	-1.070252	-0.857141
C59	C	-0.356791	-1.070249	-0.796049
C60	C	-0.356907	-1.070161	-0.150395
C61	C	-0.356718	-1.070287	-0.075164
H62	H	-0.792731	-1.026108	-0.431439
C63	C	-0.456255	-0.970717	-0.722879
C64	C	-0.450209	-0.886529	-0.713140
C65	C	-0.502304	-0.834414	-0.751982
C66	C	-0.560447	-0.866486	-0.800565
C67	C	-0.566496	-0.950678	-0.810306
C68	C	-0.514400	-1.002794	-0.771464
H69	H	-0.407166	-0.862784	-0.677174
H70	H	-0.497826	-0.772089	-0.744770
H71	H	-0.599011	-0.827907	-0.829318
H72	H	-0.609539	-0.974424	-0.846272
H73	H	-0.518879	-1.065118	-0.778676
H74	H	-0.452004	-0.635024	-0.254923
C75	C	-0.456153	-0.970762	-1.078654
C76	C	-0.514294	-1.002820	-1.127246
C77	C	-0.566365	-0.950691	-1.166102
C78	C	-0.560295	-0.866504	-1.156366
C79	C	-0.502152	-0.834442	-1.107772
C80	C	-0.450081	-0.886571	-1.068916
H81	H	-0.518790	-1.065143	-1.134455
H82	H	-0.609406	-0.974426	-1.202075
H83	H	-0.598840	-0.827916	-1.185130
H84	H	-0.497656	-0.772118	-1.100563
H85	H	-0.407040	-0.862836	-1.032943
C86	C	-0.928194	-1.174618	-0.413644
C87	C	-1.011838	-1.183809	-0.425029
C88	C	-1.040948	-1.209827	-0.494110
C89	C	-0.986414	-1.226654	-0.551805
C90	C	-0.902765	-1.217463	-0.540422
C91	C	-0.873655	-1.191445	-0.471341
H92	H	-1.052211	-1.171353	-0.382318
H93	H	-1.102870	-1.216631	-0.502536
H94	H	-1.007963	-1.245914	-0.602943
H95	H	-0.862391	-1.229919	-0.583133
H96	H	-0.811733	-1.184641	-0.462915
H97	H	-0.442742	-0.984223	-0.584552
H98	H	-0.919960	-1.026248	-0.431774
H99	H	-0.919859	-1.088448	-0.214847
H100	H	-0.478867	-0.507241	-0.342626
C101	C	-0.494336	-0.641123	-0.356338
C102	C	-0.559948	-0.687125	-0.330259
C103	C	-0.619386	-0.714642	-0.379859
C104	C	-0.613212	-0.696157	-0.455538
C105	C	-0.547598	-0.650153	-0.481622
C106	C	-0.488159	-0.622636	-0.432022
H107	H	-0.564520	-0.700811	-0.274233
H108	H	-0.667958	-0.748698	-0.360549
H109	H	-0.657212	-0.716527	-0.492255
H110	H	-0.543025	-0.636467	-0.537648
H111	H	-0.439587	-0.588580	-0.451331
C112	C	-0.928557	-0.935188	-0.362558
C113	C	-0.980624	-0.923179	-0.302026
C114	C	-1.009776	-0.845208	-0.285877
C115	C	-0.986861	-0.779246	-0.330258
C116	C	-0.934791	-0.791253	-0.390794
C117	C	-0.905639	-0.869224	-0.406944
H118	H	-0.997590	-0.972010	-0.269169
H119	H	-1.048322	-0.836320	-0.241064
H120	H	-1.008441	-0.721527	-0.318303
H121	H	-0.917825	-0.742422	-0.423651
H122	H	-0.867093	-0.878112	-0.451756
C123	C	-0.261564	-0.498819	-0.421845
C124	C	-0.216937	-0.445934	-0.376629
C125	C	-0.141422	-0.416792	-0.400560
C126	C	-0.110536	-0.440536	-0.469707
C127	C	-0.155163	-0.493423	-0.514927
C128	C	-0.230678	-0.522565	-0.490996
H129	H	-0.239801	-0.428355	-0.325438
H130	H	-0.108386	-0.377641	-0.367085
H131	H	-0.054635	-0.418963	-0.487422
H132	H	-0.132300	-0.511002	-0.566118
H133	H	-0.263714	-0.561716	-0.524472
C134	C	-0.257789	-0.641088	-0.417369
C135	C	-0.242507	-0.724520	-0.423468
C136	C	-0.164952	-0.752002	-0.443315
C137	C	-0.102678	-0.696053	-0.457064
C138	C	-0.117959	-0.612616	-0.450966
C139	C	-0.195514	-0.585133	-0.431119
H140	H	-0.288607	-0.765941	-0.413290
H141	H	-0.153640	-0.813768	-0.447829
H142	H	-0.045267	-0.716398	-0.471756
H143	H	-0.071859	-0.571194	-0.461144
H144	H	-0.206825	-0.523367	-0.426604
H145	H	-0.792099	-0.992379	-0.239163
H146	H	-0.312666	-0.633740	-0.220896
C147	C	-0.457279	-0.500924	-0.235607
C148	C	-0.403964	-0.452814	-0.193944
C149	C	-0.426670	-0.425778	-0.123175
C150	C	-0.502692	-0.446853	-0.094070
C151	C	-0.556012	-0.494965	-0.135734
C152	C	-0.533306	-0.522001	-0.206503
H153	H	-0.347684	-0.437210	-0.215488
H154	H	-0.387199	-0.390162	-0.092333
H155	H	-0.519501	-0.426840	-0.041683
H156	H	-0.612293	-0.510568	-0.114190
H157	H	-0.572778	-0.557617	-0.237345
C158	C	-0.786181	-0.934445	-0.362179
C159	C	-0.842062	-0.871853	-0.349214
C160	C	-0.814453	-0.793405	-0.332847
C161	C	-0.730962	-0.777548	-0.329445
C162	C	-0.675075	-0.840141	-0.342409
C163	C	-0.702685	-0.918590	-0.358776
H164	H	-0.903872	-0.883589	-0.351733
H165	H	-0.855825	-0.747069	-0.323250
H166	H	-0.710524	-0.719476	-0.317329
H167	H	-0.613265	-0.828405	-0.339891
H168	H	-0.661313	-0.964925	-0.368373
H169	H	-0.919339	-1.191123	-0.306382
C170	C	-0.785980	-1.103438	-0.200713
C171	C	-0.734790	-1.167833	-0.220636
C172	C	-0.707276	-1.222233	-0.166423
C173	C	-0.730952	-1.212238	-0.092287
C174	C	-0.782145	-1.147840	-0.072362
C175	C	-0.809658	-1.093440	-0.126574
H176	H	-0.717261	-1.175235	-0.275518
H177	H	-0.669380	-1.269905	-0.181174
H178	H	-0.710585	-1.252508	-0.052156
H179	H	-0.799674	-1.140438	-0.017479
H180	H	-0.847555	-1.045768	-0.111824
C181	C	-0.785923	-1.169666	-0.417049
C182	C	-0.735469	-1.116734	-0.456757
C183	C	-0.707952	-1.138269	-0.527675
C184	C	-0.730889	-1.212736	-0.558886
C185	C	-0.781347	-1.265673	-0.519178
C186	C	-0.808864	-1.244138	-0.448259
H187	H	-0.718487	-1.061605	-0.433653
H188	H	-0.670600	-1.099082	-0.557070
H189	H	-0.710520	-1.228678	-0.611384
H190	H	-0.798329	-1.320802	-0.542282
H191	H	-0.846215	-1.283326	-0.418865
C192	C	-0.257281	-1.169815	-1.078741
C193	C	-0.289371	-1.227942	-1.127350
C194	C	-0.237274	-1.280082	-1.166250
C195	C	-0.153086	-1.274095	-1.156540
C196	C	-0.120992	-1.215966	-1.107929
C197	C	-0.173089	-1.163826	-1.069029
H198	H	-0.351695	-1.232377	-1.134540
H199	H	-0.261032	-1.323114	-1.202235
H200	H	-0.114521	-1.312692	-1.185336
H201	H	-0.058668	-1.211531	-1.100739
H202	H	-0.149330	-1.120794	-1.033044
C203	C	-0.387793	-0.642533	-0.452716
C204	C	-0.451390	-0.695147	-0.433940
C205	C	-0.503841	-0.724078	-0.489138
C206	C	-0.492695	-0.700395	-0.563113
C207	C	-0.429095	-0.647779	-0.581893
C208	C	-0.376644	-0.618848	-0.526695
H209	H	-0.459643	-0.712681	-0.379176
H210	H	-0.550922	-0.763028	-0.475236
H211	H	-0.531522	-0.721811	-0.603974
H212	H	-0.420842	-0.630245	-0.636657
H213	H	-0.329564	-0.579898	-0.540597
C214	C	-0.257372	-1.169761	-0.722977
C215	C	-0.263440	-1.253944	-0.713282
C216	C	-0.211338	-1.306083	-0.752178
C217	C	-0.153169	-1.274039	-0.800769
C218	C	-0.147099	-1.189851	-0.810466
C219	C	-0.199200	-1.137712	-0.771570
H220	H	-0.306502	-1.277669	-0.677310
H221	H	-0.215832	-1.368404	-0.744999
H222	H	-0.114601	-1.312635	-0.829562
H223	H	-0.104037	-1.166126	-0.846437
H224	H	-0.194707	-1.075391	-0.778748
C225	C	-0.316892	-0.498537	-0.202901
C226	C	-0.259197	-0.452311	-0.164457
C227	C	-0.276693	-0.423171	-0.093153
C228	C	-0.351884	-0.440256	-0.060294
C229	C	-0.409584	-0.486484	-0.098739
C230	C	-0.392088	-0.515624	-0.170042
H231	H	-0.203532	-0.439662	-0.188780
H232	H	-0.233979	-0.388950	-0.064694
H233	H	-0.364835	-0.418684	-0.007512
H234	H	-0.465249	-0.499133	-0.074415
H235	H	-0.434802	-0.549845	-0.198501
H236	H	-0.270852	-1.156253	-0.940396
H237	H	-0.919172	-0.991404	-0.239754
H238	H	-0.792026	-1.192913	-0.310729
H239	H	-0.241710	-0.634326	-0.286205
H240	H	-0.241372	-0.507097	-0.286288
H241	H	-0.378959	-0.507701	-0.436681
H242	H	-0.442671	-0.984290	-0.940321
H243	H	-0.270941	-1.156204	-0.584636
