data_functionalizedCrystal
_audit_creation_method	'MofGen! by Chris Wilmer'
_symmetry_space_group_name_H-M	'P1'
_symmetry_Int_Tables_number	1
_symmetry_cell_setting	triclinic
loop_
_symmetry_equiv_pos_as_xyz
  x,y,z
_cell_length_a	16.992694
_cell_length_b	26.809956
_cell_length_c	27.731996
_cell_angle_alpha	89.998344
_cell_angle_beta	93.355194
_cell_angle_gamma	90.003736
loop_
_atom_site_label
_atom_site_type_symbol
_atom_site_fract_x
_atom_site_fract_y
_atom_site_fract_z
O1	O	1.039125	0.041428	-0.102440
O2	O	1.539125	0.541428	0.397560
O3	O	0.810854	0.041443	-0.101316
O4	O	1.310854	0.541443	0.398684
O5	O	0.932100	0.041424	-0.031787
O6	O	1.432100	0.541424	0.468213
O7	O	0.917879	0.041447	-0.171969
O8	O	1.417879	0.541447	0.328031
O9	O	0.932078	-0.041535	-0.031797
O10	O	1.432078	0.458465	0.468203
O11	O	0.810831	-0.041516	-0.101326
O12	O	1.310831	0.458484	0.398674
O13	O	1.039102	-0.041531	-0.102450
O14	O	1.539102	0.458469	0.397550
Zn15	Zn	0.924963	-0.054695	-0.101890
Zn16	Zn	1.424963	0.445305	0.398110
Zn17	Zn	0.924993	0.054607	-0.101876
Zn18	Zn	1.424993	0.554607	0.398124
O19	O	0.917856	-0.041512	-0.171979
O20	O	1.417856	0.458488	0.328021
C21	C	0.781648	-0.000035	-0.099875
C22	C	1.281648	0.499965	0.400125
C23	C	0.694657	-0.000030	-0.095561
C24	C	1.194657	0.499970	0.404439
N25	N	0.924948	-0.129291	-0.101899
N26	N	1.424948	0.370709	0.398101
C27	C	0.643900	-0.000024	-0.137185
C28	C	1.143900	0.499976	0.362815
C29	C	0.562164	-0.000031	-0.133129
C30	C	1.062164	0.499969	0.366871
C31	C	0.531186	-0.000042	-0.087448
C32	C	1.031186	0.499958	0.412552
C33	C	0.581950	-0.000049	-0.045821
C34	C	1.081950	0.499951	0.454179
C35	C	0.663685	-0.000045	-0.049878
C36	C	1.163685	0.499955	0.450122
C37	C	0.287797	-0.000058	-0.070635
C38	C	0.787797	0.499942	0.429365
C39	C	0.206056	-0.000060	-0.066581
C40	C	0.706056	0.499940	0.433419
C41	C	0.186275	-0.000043	-0.153889
C42	C	0.686275	0.499957	0.346111
C43	C	0.268012	-0.000036	-0.157942
C44	C	0.768012	0.499964	0.342058
C45	C	0.318769	-0.000046	-0.116315
C46	C	0.818769	0.499954	0.383685
N47	N	0.447639	-0.000048	-0.083301
N48	N	0.947639	0.499952	0.416699
N49	N	0.402315	-0.000044	-0.120462
N50	N	0.902315	0.499956	0.379538
C51	C	0.978674	-0.473925	-0.071096
C52	C	1.478674	0.026075	0.428904
C53	C	0.978693	-0.682803	-0.071090
C54	C	1.478693	-0.182803	0.428910
O55	O	1.024341	-0.709814	-0.044902
O56	O	1.524341	-0.209814	0.455098
N57	N	0.924997	-0.708918	-0.101866
N58	N	1.424997	-0.208918	0.398134
C59	C	0.871290	-0.682811	-0.132643
C60	C	1.371290	-0.182811	0.367357
O61	O	0.825614	-0.709816	-0.158816
O62	O	1.325614	-0.209816	0.341184
C63	C	0.871269	-0.473934	-0.132647
C64	C	1.371269	0.026066	0.367353
C65	C	0.924973	-0.447822	-0.101873
C66	C	1.424973	0.052178	0.398127
C67	C	1.032373	-0.447813	-0.040324
C68	C	1.532373	0.052187	0.459676
C69	C	1.032371	-0.395597	-0.040328
C70	C	1.532371	0.104403	0.459672
C71	C	0.978669	-0.369493	-0.071104
C72	C	1.478669	0.130507	0.428896
C73	C	0.924970	-0.395605	-0.101876
C74	C	1.424970	0.104395	0.398124
C75	C	0.817558	-0.447828	-0.163421
C76	C	1.317558	0.052172	0.336579
C77	C	0.817556	-0.395605	-0.163419
C78	C	1.317556	0.104395	0.336581
C79	C	0.871260	-0.369493	-0.132644
C80	C	1.371260	0.130507	0.367356
C81	C	0.871266	-0.317285	-0.132656
C82	C	1.371266	0.182715	0.367344
N83	N	0.924962	-0.291170	-0.101880
N84	N	1.424962	0.208830	0.398120
C85	C	0.978663	-0.317274	-0.071104
C86	C	1.478663	0.182726	0.428896
C87	C	0.871306	-0.792474	-0.132640
C88	C	1.371306	-0.292474	0.367360
C89	C	0.871313	-0.844693	-0.132639
C90	C	1.371313	-0.344693	0.367361
C91	C	0.978715	-0.844682	-0.071085
C92	C	1.478715	-0.344682	0.428915
C93	C	0.978711	-0.792462	-0.071088
C94	C	1.478711	-0.292462	0.428912
C95	C	0.925002	-0.766359	-0.101864
C96	C	1.425002	-0.266359	0.398136
C97	C	0.978655	-0.207616	-0.071115
C98	C	1.478655	0.292384	0.428885
C99	C	0.978650	-0.155395	-0.071123
C100	C	1.478650	0.344605	0.428877
C101	C	0.871246	-0.155411	-0.132675
C102	C	1.371246	0.344589	0.367325
C103	C	0.871253	-0.207627	-0.132669
C104	C	1.371253	0.292373	0.367331
C105	C	0.924960	-0.233728	-0.101885
C106	C	1.424960	0.266272	0.398115
O107	O	0.825637	-0.290242	-0.158827
O108	O	1.325637	0.209758	0.341173
O109	O	1.024321	-0.290260	-0.044928
O110	O	1.524321	0.209740	0.455072
C111	C	0.978677	-0.526142	-0.071093
C112	C	1.478677	-0.026142	0.428907
C113	C	0.924977	-0.552254	-0.101865
C114	C	1.424977	-0.052254	0.398135
C115	C	0.871276	-0.526150	-0.132641
C116	C	1.371276	-0.026150	0.367359
C117	C	0.924984	-0.604473	-0.101865
C118	C	1.424984	-0.104473	0.398135
C119	C	0.978685	-0.630577	-0.071089
C120	C	1.478685	-0.130577	0.428911
C121	C	1.032380	-0.604462	-0.040313
C122	C	1.532380	-0.104462	0.459687
C123	C	1.032378	-0.552246	-0.040317
C124	C	1.532378	-0.052246	0.459683
C125	C	0.817581	-0.552266	-0.163417
C126	C	1.317581	-0.052266	0.336583
C127	C	0.817588	-0.604482	-0.163411
C128	C	1.317588	-0.104482	0.336589
C129	C	0.871289	-0.630586	-0.132635
C130	C	1.371289	-0.130586	0.367365
C131	C	1.068308	-0.000052	-0.103891
C132	C	1.568308	0.499948	0.396109
C133	C	1.155299	-0.000054	-0.108205
C134	C	1.655299	0.499946	0.391795
C135	C	0.931797	-0.000057	-0.013772
C136	C	1.431797	0.499943	0.486228
C137	C	0.930917	-0.000062	0.039922
C138	C	1.430917	0.499938	0.539922
N139	N	0.925014	0.129203	-0.101863
N140	N	1.425014	0.629203	0.398137
C141	C	0.918159	-0.000030	-0.189994
C142	C	1.418159	0.499970	0.310006
C143	C	0.919039	-0.000022	-0.243688
C144	C	1.419039	0.499978	0.256312
C145	C	0.925393	0.045184	0.372884
C146	C	1.425393	0.545184	0.872884
C147	C	0.922051	0.045193	0.574686
C148	C	1.422051	0.545193	1.074686
O149	O	0.921596	0.083652	0.600782
O150	O	1.421596	0.583652	1.100782
N151	N	0.921624	-0.000028	0.599916
N152	N	1.421624	0.499972	1.099916
C153	C	0.922027	-0.045254	0.574691
C154	C	1.422027	0.454746	1.074691
O155	O	0.921578	-0.083717	0.600781
O156	O	1.421578	0.416283	1.100781
C157	C	0.925363	-0.045262	0.372889
C158	C	1.425363	0.454738	0.872889
C159	C	0.925798	-0.000039	0.347663
C160	C	1.425798	0.499961	0.847663
C161	C	0.925828	0.090404	0.347657
C162	C	1.425828	0.590404	0.847657
C163	C	0.926667	0.090401	0.297210
C164	C	1.426667	0.590401	0.797210
C165	C	0.927072	0.045178	0.271989
C166	C	1.427072	0.545178	0.771989
C167	C	0.926638	-0.000042	0.297215
C168	C	1.426638	0.499958	0.797215
C169	C	0.925760	-0.090488	0.347665
C170	C	1.425760	0.409512	0.847665
C171	C	0.926592	-0.090486	0.297212
C172	C	1.426592	0.409514	0.797212
C173	C	0.927027	-0.045262	0.271985
C174	C	1.427027	0.454738	0.771985
C175	C	0.927882	-0.045267	0.221547
C176	C	1.427882	0.454733	0.721547
N177	N	0.928310	-0.000046	0.196318
N178	N	1.428310	0.499954	0.696318
C179	C	0.927905	0.045176	0.221538
C180	C	1.427905	0.545176	0.721538
C181	C	0.920277	-0.045246	0.680640
C182	C	1.420277	0.454754	1.180640
C183	C	0.919444	-0.045244	0.731091
C184	C	1.419444	0.454756	1.231091
C185	C	0.919468	0.045203	0.731082
C186	C	1.419468	0.545203	1.231082
C187	C	0.920306	0.045200	0.680631
C188	C	1.420306	0.545200	1.180631
C189	C	0.920704	-0.000026	0.655411
C190	C	1.420704	0.499974	1.155411
C191	C	0.929669	0.045167	0.115595
C192	C	1.429669	0.545167	0.615595
C193	C	0.930512	0.045161	0.065143
C194	C	1.430512	0.545161	0.565143
C195	C	0.930484	-0.045286	0.065156
C196	C	1.430484	0.454714	0.565156
C197	C	0.929646	-0.045280	0.115604
C198	C	1.429646	0.454720	0.615604
C199	C	0.929235	-0.000049	0.140822
C200	C	1.429235	0.499951	0.640822
O201	O	0.928329	-0.083706	0.195420
O202	O	1.428329	0.416294	0.695420
O203	O	0.928336	0.083633	0.195440
O204	O	1.428336	0.583633	0.695440
C205	C	0.924553	0.045186	0.423331
C206	C	1.424553	0.545186	0.923331
C207	C	0.924119	-0.000033	0.448558
C208	C	1.424119	0.499967	0.948558
C209	C	0.924524	-0.045256	0.423337
C210	C	1.424524	0.454744	0.923337
C211	C	0.923286	-0.000031	0.499008
C212	C	1.423286	0.499969	0.999008
C213	C	0.922881	0.045191	0.524229
C214	C	1.422881	0.545191	1.024229
C215	C	0.923309	0.090412	0.499000
C216	C	1.423309	0.590412	0.999000
C217	C	0.924148	0.090409	0.448552
C218	C	1.424148	0.590409	0.948552
C219	C	0.924096	-0.090477	0.448566
C220	C	1.424096	0.409523	0.948566
C221	C	0.923258	-0.090470	0.499014
C222	C	1.423258	0.409530	0.999014
C223	C	0.922853	-0.045248	0.524235
C224	C	1.422853	0.454752	1.024235
H225	H	0.669114	-0.000015	-0.174383
H226	H	1.169114	0.499985	0.325617
C227	C	0.089544	-0.000072	-0.021598
C228	C	0.589544	0.499928	0.478402
C229	C	0.172004	-0.000075	-0.016365
C230	C	0.672004	0.499925	0.483635
H231	H	0.068523	-0.000078	0.009401
H232	H	0.568523	0.499922	0.509401
H233	H	0.072089	-0.028996	-0.038874
H234	H	0.572089	0.471004	0.461126
H235	H	0.072098	0.028864	-0.038864
H236	H	0.572098	0.528864	0.461136
H237	H	0.189451	-0.029013	0.000898
H238	H	0.689451	0.470987	0.500898
H239	H	0.189466	0.028851	0.000918
H240	H	0.689466	0.528851	0.500918
C241	C	0.550821	-0.000007	-0.219835
C242	C	1.050821	0.499993	0.280165
C243	C	0.506371	-0.000022	-0.178883
C244	C	1.006371	0.499978	0.321117
H245	H	0.516375	0.000001	-0.248082
H246	H	1.016375	0.500001	0.251918
H247	H	0.583111	-0.028933	-0.219606
H248	H	1.083111	0.471067	0.280394
H249	H	0.583113	0.028927	-0.219591
H250	H	1.083113	0.528927	0.280409
H251	H	0.474082	-0.028958	-0.179125
H252	H	0.974082	0.471042	0.320875
H253	H	0.474067	0.028907	-0.179111
H254	H	0.974067	0.528907	0.320889
C255	C	0.921931	-0.130640	0.576348
C256	C	1.421931	0.369360	1.076348
C257	C	0.922763	-0.140185	0.526739
C258	C	1.422763	0.359815	1.026739
H259	H	0.921620	-0.161331	0.593462
H260	H	1.421620	0.338669	1.093462
H261	H	0.876090	-0.112050	0.582685
H262	H	1.376090	0.387950	1.082685
H263	H	0.967529	-0.112073	0.586542
H264	H	1.467529	0.387927	1.086542
H265	H	0.877162	-0.158749	0.516544
H266	H	1.377162	0.341251	1.016544
H267	H	0.968609	-0.158783	0.520399
H268	H	1.468609	0.341217	1.020399
H269	H	0.293227	-0.000022	-0.195139
H270	H	0.793227	0.499978	0.304861
C271	C	0.996530	-0.903406	-0.005995
C272	C	1.496530	-0.403406	0.494005
C273	C	1.037740	-0.873381	-0.037251
C274	C	1.537740	-0.373381	0.462749
H275	H	1.032967	-0.921122	0.014895
H276	H	1.532967	-0.421122	0.514895
H277	H	0.964559	-0.926426	-0.024328
H278	H	1.464559	-0.426426	0.475672
H279	H	0.964126	-0.883031	0.012652
H280	H	1.464126	-0.383031	0.512652
H281	H	1.070140	-0.893756	-0.055901
H282	H	1.570140	-0.393756	0.444099
H283	H	1.069725	-0.850358	-0.018916
H284	H	1.569725	-0.350358	0.481084
C285	C	0.710784	-0.493551	-0.169761
C286	C	1.210784	0.006449	0.330239
C287	C	0.758553	-0.523576	-0.197252
C288	C	1.258553	-0.023576	0.302748
H289	H	0.674342	-0.475843	-0.190654
H290	H	1.174342	0.024157	0.309346
H291	H	0.742759	-0.470524	-0.151439
H292	H	1.242759	0.029476	0.348561
H293	H	0.682846	-0.513926	-0.148551
H294	H	1.182846	-0.013926	0.351449
H295	H	0.786497	-0.503201	-0.218460
H296	H	1.286497	-0.003201	0.281540
H297	H	0.726575	-0.546606	-0.215582
H298	H	1.226575	-0.046606	0.284418
H299	H	0.930868	0.081989	0.044606
H300	H	1.430868	0.581989	0.544606
C301	C	0.918188	0.085358	0.808419
C302	C	1.418188	0.585358	1.308419
C303	C	0.919014	0.094913	0.758811
C304	C	1.419014	0.594913	1.258811
H305	H	0.917898	0.116046	0.825538
H306	H	1.417898	0.616046	1.325538
H307	H	0.963767	0.066782	0.818606
H308	H	1.463767	0.566782	1.318606
H309	H	0.872328	0.066774	0.814757
H310	H	1.372328	0.566774	1.314757
H311	H	0.964877	0.113494	0.752473
H312	H	1.464877	0.613494	1.252473
H313	H	0.873430	0.113497	0.748621
H314	H	1.373430	0.613497	1.248621
H315	H	0.919102	-0.082070	0.751626
H316	H	1.419102	0.417930	1.251626
H317	H	0.329114	-0.000066	-0.036739
H318	H	0.829114	0.499934	0.463261
H319	H	1.076104	-0.469062	-0.015260
H320	H	1.576104	0.030938	0.484740
C321	C	0.465442	-0.000058	-0.000836
C322	C	0.965442	0.499942	0.499164
C323	C	0.547902	-0.000060	0.004392
C324	C	1.047902	0.499940	0.504392
H325	H	0.444425	-0.000060	0.030165
H326	H	0.944425	0.499940	0.530165
H327	H	0.447985	-0.028984	-0.018108
H328	H	0.947985	0.471016	0.481892
H329	H	0.447992	0.028876	-0.018104
H330	H	0.947992	0.528876	0.481896
H331	H	0.565352	-0.028996	0.021658
H332	H	1.065352	0.471004	0.521658
H333	H	0.565366	0.028869	0.021671
H334	H	1.065366	0.528869	0.521671
C335	C	0.765147	-0.839446	-0.193478
C336	C	1.265147	-0.339446	0.306522
C337	C	0.812283	-0.873392	-0.166470
C338	C	1.312283	-0.373392	0.333530
H339	H	0.728699	-0.857164	-0.214361
H340	H	1.228699	-0.357164	0.285639
H341	H	0.797550	-0.819078	-0.212129
H342	H	1.297550	-0.319078	0.287871
H343	H	0.737215	-0.819080	-0.172261
H344	H	1.237215	-0.319080	0.327739
H345	H	0.840220	-0.893756	-0.187688
H346	H	1.340220	-0.393756	0.312312
H347	H	0.779876	-0.893769	-0.147818
H348	H	1.279876	-0.393769	0.352182
H349	H	0.827530	-0.228888	-0.157733
H350	H	1.327530	0.271112	0.342267
C351	C	0.765080	-0.160654	-0.193517
C352	C	1.265080	0.339346	0.306483
C353	C	0.812218	-0.126711	-0.166504
C354	C	1.312218	0.373289	0.333496
H355	H	0.728640	-0.142934	-0.214402
H356	H	1.228640	0.357066	0.285598
H357	H	0.737145	-0.181023	-0.172306
H358	H	1.237145	0.318977	0.327694
H359	H	0.797488	-0.181021	-0.212171
H360	H	1.297488	0.318979	0.287829
H361	H	0.779811	-0.106347	-0.147847
H362	H	1.279811	0.393653	0.352153
H363	H	0.840155	-0.106334	-0.187717
H364	H	1.340155	0.393666	0.312283
H365	H	0.930818	-0.082105	0.044612
H366	H	1.430818	0.417895	0.544612
C367	C	0.994904	-0.142978	0.243318
C368	C	1.494904	0.357022	0.743318
C369	C	0.927029	-0.140202	0.269492
C370	C	1.427029	0.359798	0.769492
H371	H	0.995170	-0.173669	0.226204
H372	H	1.495170	0.326331	0.726204
H373	H	1.040289	-0.141102	0.264922
H374	H	1.540289	0.358898	0.764922
H375	H	0.995276	-0.116047	0.221071
H376	H	1.495276	0.383953	0.721071
H377	H	0.926661	-0.167130	0.291741
H378	H	1.426661	0.332870	0.791741
H379	H	0.881632	-0.142082	0.247886
H380	H	1.381632	0.357918	0.747886
C381	C	0.920188	-0.134649	0.685728
C382	C	1.420188	0.365351	1.185728
C383	C	0.920731	-0.094963	0.652923
C384	C	1.420731	0.405037	1.152923
H385	H	0.920479	-0.165341	0.668617
H386	H	1.420479	0.334659	1.168617
H387	H	0.874144	-0.132765	0.703480
H388	H	1.374144	0.367235	1.203480
H389	H	0.965584	-0.132757	0.707330
H390	H	1.465584	0.367243	1.207330
H391	H	0.875333	-0.096853	0.631323
H392	H	1.375333	0.403147	1.131323
H393	H	0.966780	-0.096848	0.635163
H394	H	1.466780	0.403152	1.135163
C395	C	0.923394	0.179819	0.493937
C396	C	1.423394	0.679819	0.993937
C397	C	0.922846	0.140122	0.526728
C398	C	1.422846	0.640122	1.026728
H399	H	0.923105	0.210506	0.511057
H400	H	1.423105	0.710506	1.011057
H401	H	0.878010	0.177936	0.472333
H402	H	1.378010	0.677936	0.972333
H403	H	0.969449	0.177942	0.476186
H404	H	1.469449	0.677942	0.976186
H405	H	0.876788	0.141997	0.544476
H406	H	1.376788	0.641997	1.044476
H407	H	0.968235	0.142007	0.548340
H408	H	1.468235	0.642007	1.048340
H409	H	0.827568	-0.771225	-0.157702
H410	H	1.327568	-0.271225	0.342298
C411	C	0.052198	-0.000046	-0.186439
C412	C	0.552198	0.499954	0.313561
C413	C	0.130482	-0.000038	-0.199643
C414	C	0.630482	0.499962	0.300357
H415	H	0.017756	-0.000047	-0.214688
H416	H	0.517756	0.499953	0.285312
H417	H	0.042870	0.028879	-0.167839
H418	H	0.542870	0.528879	0.332161
H419	H	0.042876	-0.028981	-0.167840
H420	H	0.542876	0.471019	0.332160
H421	H	0.139806	0.028899	-0.218238
H422	H	0.639806	0.528899	0.281762
H423	H	0.139814	-0.028966	-0.218251
H424	H	0.639814	0.471034	0.281749
C425	C	0.924007	-0.179875	0.453653
C426	C	1.424007	0.320125	0.953653
C427	C	0.924555	-0.140190	0.420849
C428	C	1.424555	0.359810	0.920849
H429	H	0.924300	-0.210568	0.436542
H430	H	1.424300	0.289432	0.936542
H431	H	0.877960	-0.177992	0.471402
H432	H	1.377960	0.322008	0.971402
H433	H	0.969399	-0.177984	0.475258
H434	H	1.469399	0.322016	0.975258
H435	H	0.879159	-0.142079	0.399246
H436	H	1.379159	0.357921	0.899246
H437	H	0.970607	-0.142074	0.403092
H438	H	1.470607	0.357926	0.903092
H439	H	0.925406	-0.127314	0.368196
H440	H	1.425406	0.372686	0.868196
H441	H	0.705012	-0.000050	-0.015983
H442	H	1.205012	0.499950	0.484017
H443	H	1.022385	-0.134136	-0.046063
H444	H	1.522385	0.365864	0.453937
H445	H	1.022387	-0.228862	-0.046047
H446	H	1.522387	0.271138	0.453953
H447	H	1.076099	-0.374339	-0.015268
H448	H	1.576099	0.125661	0.484732
H449	H	0.924502	0.127235	0.428017
H450	H	1.424502	0.627235	0.928017
C451	C	0.929706	-0.134683	0.110542
C452	C	1.429706	0.365317	0.610542
C453	C	0.929171	-0.094989	0.143336
C454	C	1.429171	0.405011	0.643336
H455	H	0.929402	-0.165371	0.127660
H456	H	1.429402	0.334629	0.627660
H457	H	0.975754	-0.132806	0.092793
H458	H	1.475754	0.367194	0.592793
H459	H	0.884315	-0.132793	0.088936
H460	H	1.384315	0.367207	0.588936
H461	H	0.974565	-0.096876	0.164939
H462	H	1.474565	0.403124	0.664939
H463	H	0.883118	-0.096866	0.161093
H464	H	1.383118	0.403134	0.661093
C465	C	0.861337	0.097653	0.169484
C466	C	1.361337	0.597653	0.669484
C467	C	0.929217	0.094883	0.143314
C468	C	1.429217	0.594883	0.643314
H469	H	0.861060	0.128345	0.186595
H470	H	1.361060	0.628345	0.686595
H471	H	0.860965	0.070726	0.191728
H472	H	1.360965	0.570726	0.691728
H473	H	0.815951	0.095774	0.147874
H474	H	1.315951	0.595774	0.647874
H475	H	0.974604	0.096758	0.164925
H476	H	1.474604	0.596758	0.664925
H477	H	0.929596	0.121817	0.121068
H478	H	1.429596	0.621817	0.621068
C479	C	1.084871	-0.797708	-0.010246
C480	C	1.584871	-0.297708	0.489754
C481	C	1.037738	-0.763762	-0.037256
C482	C	1.537738	-0.263762	0.462744
H483	H	1.121308	-0.779991	0.010644
H484	H	1.621308	-0.279991	0.510644
H485	H	1.112809	-0.818069	-0.031458
H486	H	1.612809	-0.318069	0.468542
H487	H	1.052458	-0.818081	0.008402
H488	H	1.552458	-0.318081	0.508402
H489	H	1.070150	-0.743391	-0.055907
H490	H	1.570150	-0.243391	0.444093
H491	H	1.009798	-0.743392	-0.016041
H492	H	1.509798	-0.243392	0.483959
H493	H	0.773827	-0.469081	-0.188480
H494	H	1.273827	0.030919	0.311520
H495	H	1.076109	-0.625724	-0.015255
H496	H	1.576109	-0.125724	0.484745
C497	C	0.711391	-0.400866	-0.224261
C498	C	1.211391	0.099134	0.275739
C499	C	0.758519	-0.366914	-0.197252
C500	C	1.258519	0.133086	0.302748
H501	H	0.674950	-0.383152	-0.245150
H502	H	1.174950	0.116848	0.254850
H503	H	0.683457	-0.421232	-0.203048
H504	H	1.183457	0.078768	0.296952
H505	H	0.743805	-0.421233	-0.242909
H506	H	1.243805	0.078767	0.257091
H507	H	0.726105	-0.346548	-0.178601
H508	H	1.226105	0.153452	0.321399
H509	H	0.786455	-0.346539	-0.218468
H510	H	1.286455	0.153461	0.281532
C511	C	1.138533	-0.557496	0.020528
C512	C	1.638533	-0.057496	0.520528
C513	C	1.091406	-0.523547	-0.006484
C514	C	1.591406	-0.023547	0.493516
H515	H	1.174972	-0.539780	0.041418
H516	H	1.674972	-0.039780	0.541418
H517	H	1.166469	-0.577859	-0.000684
H518	H	1.666469	-0.077859	0.499316
H519	H	1.106117	-0.577867	0.039175
H520	H	1.606117	-0.077867	0.539175
H521	H	1.123822	-0.503179	-0.025134
H522	H	1.623822	-0.003179	0.474866
H523	H	1.063468	-0.503176	0.014730
H524	H	1.563468	-0.003176	0.514730
H525	H	0.925495	0.127231	0.368187
H526	H	1.425495	0.627231	0.868187
H527	H	0.773857	-0.625739	-0.188475
H528	H	1.273857	-0.125739	0.311525
C529	C	0.926593	0.179801	0.302284
C530	C	1.426593	0.679801	0.802284
C531	C	0.927132	0.140113	0.269485
C532	C	1.427132	0.640113	0.769485
H533	H	0.926872	0.210492	0.285169
H534	H	1.426872	0.710492	0.785169
H535	H	0.971986	0.177918	0.323881
H536	H	1.471986	0.677918	0.823881
H537	H	0.880546	0.177913	0.320041
H538	H	1.380546	0.677913	0.820041
H539	H	0.973182	0.141999	0.251730
H540	H	1.473182	0.641999	0.751730
H541	H	0.881735	0.141997	0.247879
H542	H	1.381735	0.641997	0.747879
H543	H	0.920659	0.082025	0.660095
H544	H	1.420659	0.582025	1.160095
