data_functionalizedCrystal
_audit_creation_method	'MofGen! by Chris Wilmer'
_symmetry_space_group_name_H-M	'P1'
_symmetry_Int_Tables_number	1
_symmetry_cell_setting	triclinic
loop_
_symmetry_equiv_pos_as_xyz
  x,y,z
_cell_length_a	10.908937
_cell_length_b	9.016244
_cell_length_c	11.026607
_cell_angle_alpha	90.000600
_cell_angle_beta	95.664014
_cell_angle_gamma	90.008636
loop_
_atom_site_label
_atom_site_type_symbol
_atom_site_fract_x
_atom_site_fract_y
_atom_site_fract_z
O1	O	1.662453	0.123386	0.179065
O2	O	1.309520	0.123378	0.088528
O3	O	1.456736	0.123376	0.304547
O4	O	1.515237	0.123388	-0.036954
O5	O	1.456709	-0.123305	0.304537
O6	O	1.309494	-0.123303	0.088518
O7	O	1.662426	-0.123295	0.179055
Cu8	Cu	1.485958	-0.145823	0.133786
Cu9	Cu	1.485989	0.145906	0.133797
O10	O	1.515211	-0.123293	-0.036964
C11	C	1.263622	0.000036	0.080062
C12	C	1.126895	0.000033	0.054865
N13	N	1.485944	-0.351009	0.133780
C14	C	0.915317	0.000057	0.120775
C15	C	1.056631	0.000038	0.146820
C16	C	1.406818	-0.586041	0.018477
C17	C	1.407117	-0.414150	0.018171
C18	C	1.620070	-0.413344	0.133189
C19	C	1.619672	-0.585288	0.132407
C20	C	1.432148	-0.585558	0.250251
C21	C	1.429386	-0.413604	0.248841
C22	C	1.708325	0.000050	0.187521
C23	C	1.845052	0.000062	0.212718
C24	C	1.445930	0.000037	0.347575
C25	C	1.413757	0.000041	0.475796
N26	N	1.486010	0.351092	0.133814
C27	C	1.526016	0.000049	-0.079992
C28	C	1.558189	0.000054	-0.208213
C29	C	1.502592	0.000045	0.567529
C30	C	1.469342	0.000050	0.700053
H31	H	1.101088	0.000037	0.244824
H32	H	1.443778	-0.629230	-0.068004
C33	C	1.748585	-0.479810	0.314412
C34	C	1.703093	-0.358125	0.245023
H35	H	1.799832	-0.445714	0.383457
H36	H	1.795057	-0.541511	0.266218
H37	H	1.681714	-0.534716	0.340638
H38	H	1.769964	-0.303224	0.218789
H39	H	1.656619	-0.296399	0.293226
H40	H	0.889514	0.000062	0.310715
H41	H	1.662863	-0.625374	0.048279
H42	H	1.082440	0.000047	-0.043139
H43	H	1.307779	-0.627437	0.014701
C44	C	1.219374	0.126856	0.451136
C45	C	1.277852	0.000047	0.502211
H46	H	1.135472	0.126861	0.467449
H47	H	1.223888	0.126838	0.365552
H48	H	1.259096	0.212870	0.485787
H49	H	1.238136	-0.085968	0.467553
H50	H	1.273331	0.000051	0.587811
C51	C	1.192850	-0.478050	0.010922
C52	C	1.273746	-0.357249	0.013479
H53	H	1.110509	-0.442923	0.008013
H54	H	1.211157	-0.536364	0.082144
H55	H	1.202011	-0.536775	-0.059139
H56	H	1.264592	-0.298529	0.083546
H57	H	1.255432	-0.298910	-0.057751
H58	H	1.444415	-0.372999	-0.068776
H59	H	0.870855	0.000076	0.022779
C60	C	1.294924	-0.203391	0.254051
C61	C	1.295999	-0.358614	0.250263
H62	H	1.212576	-0.169440	0.254931
H63	H	1.328634	-0.165181	0.184249
H64	H	1.342818	-0.170282	0.325556
H65	H	1.248111	-0.391722	0.178752
H66	H	1.262272	-0.396838	0.320072
H67	H	1.681927	-0.626871	0.214482
C68	C	1.752583	-0.126751	0.816465
C69	C	1.694103	0.000054	0.765386
H70	H	1.836490	-0.126743	0.800170
H71	H	1.712878	-0.212758	0.781814
H72	H	1.748056	-0.126733	0.902058
H73	H	1.698622	0.000032	0.679791
H74	H	1.733819	0.086084	0.800032
C75	C	1.709879	-0.475109	-0.050511
C76	C	1.678796	-0.355205	0.021127
H77	H	1.746136	-0.439217	-0.119691
H78	H	1.637742	-0.530050	-0.076502
H79	H	1.766858	-0.537365	-0.003924
H80	H	1.621809	-0.292955	-0.025457
H81	H	1.750943	-0.300240	0.047118
H82	H	1.334959	-0.629009	0.257235
H83	H	1.481162	-0.370629	0.336687
C84	C	1.559331	-0.518532	0.432195
C85	C	1.509655	-0.640443	0.365711
H86	H	1.607188	-0.552426	0.503464
H87	H	1.494447	-0.457320	0.454727
H88	H	1.610064	-0.463187	0.383485
H89	H	1.458914	-0.695783	0.414419
H90	H	1.574548	-0.701681	0.343181
C91	C	1.696986	-0.126747	0.592203
C92	C	1.638500	0.000054	0.541124
H93	H	1.780894	-0.126731	0.575912
H94	H	1.657287	-0.212757	0.557550
H95	H	1.692456	-0.126732	0.677796
H96	H	1.643021	0.000034	0.455530
H97	H	1.678210	0.086086	0.575773
H98	H	1.368665	0.000058	0.719623
