data_functionalizedCrystal
_audit_creation_method	'MofGen! by Chris Wilmer'
_symmetry_space_group_name_H-M	'P1'
_symmetry_Int_Tables_number	1
_symmetry_cell_setting	triclinic
loop_
_symmetry_equiv_pos_as_xyz
  x,y,z
_cell_length_a	10.654554
_cell_length_b	15.995292
_cell_length_c	9.130313
_cell_angle_alpha	90.001944
_cell_angle_beta	89.999583
_cell_angle_gamma	83.977730
loop_
_atom_site_label
_atom_site_type_symbol
_atom_site_fract_x
_atom_site_fract_y
_atom_site_fract_z
O1	O	1.666257	0.117621	-0.121794
O2	O	1.300630	0.128821	-0.121795
O3	O	1.493476	0.001388	-0.121797
O4	O	1.473411	0.245053	-0.121792
O5	O	1.493474	0.001392	0.121802
O6	O	1.300627	0.128825	0.121804
O7	O	1.666255	0.117624	0.121805
Cu8	Cu	1.483441	0.123225	0.144047
Cu9	Cu	1.483444	0.123221	-0.144037
O10	O	1.473408	0.245057	0.121807
C11	C	1.253842	0.128000	0.000005
C12	C	1.114432	0.125537	0.000004
C13	C	1.492658	-0.029810	-0.000001
C14	C	1.490210	-0.122778	-0.000012
C15	C	0.932935	0.045875	-0.000010
C16	C	1.063926	0.048188	0.000001
C17	C	1.033939	0.200576	0.000011
C18	C	0.902951	0.198262	0.000011
C19	C	0.882437	-0.031478	-0.000028
C20	C	0.962921	-0.106518	-0.000033
C21	C	1.093912	-0.104205	-0.000022
C22	C	1.144419	-0.026851	-0.000007
C23	C	1.481209	-0.460568	0.000001
C24	C	1.620401	-0.436446	0.000546
C25	C	1.623046	-0.339755	-0.000008
C26	C	1.485675	-0.292986	-0.000004
C27	C	1.416088	-0.322494	-0.139107
C28	C	1.414412	-0.419295	-0.139218
C29	C	1.411567	-0.419164	0.137800
C30	C	1.416725	-0.322642	0.139633
C31	C	1.488192	-0.198276	-0.000013
C32	C	1.478688	-0.555279	-0.000000
C33	C	1.713043	0.118445	0.000002
C34	C	1.852453	0.120908	-0.000007
C35	C	1.474226	0.276255	0.000008
C36	C	1.476675	0.369223	0.000009
N37	N	1.483448	0.123227	0.346670
N38	N	1.483446	0.123212	-0.346660
C39	C	1.568862	0.066819	0.423321
C40	C	1.568859	0.066809	0.576657
C41	C	1.398023	0.179622	0.576679
C42	C	1.398022	0.179627	0.423345
C43	C	1.654289	0.010418	0.346646
C44	C	1.739711	-0.045993	0.423297
C45	C	1.739707	-0.046003	0.576634
C46	C	1.654282	0.010398	0.653319
H47	H	0.775780	-0.033371	-0.000041
H48	H	1.075073	0.263554	0.000022
Br49	Br	1.855620	-0.122569	0.680660
Br50	Br	1.501167	-0.291198	0.311158
H51	H	1.316458	-0.290256	0.148037
H52	H	1.159439	-0.165306	-0.000012
Br53	Br	1.247603	-0.270360	-0.147737
Br54	Br	1.709830	-0.482584	0.166817
H55	H	0.921789	-0.169497	-0.000058
H56	H	1.251081	-0.024973	0.000016
H57	H	1.654278	0.010380	0.778177
Br58	Br	1.282091	0.256179	0.319314
Br59	Br	1.282098	0.256164	0.680750
Br60	Br	0.793716	0.300095	0.000035
H61	H	1.677545	-0.320412	0.099703
Br62	Br	1.240802	-0.443475	0.139370
Br63	Br	1.714418	-0.308542	-0.166499
Br64	Br	1.709336	-0.484294	-0.164784
H65	H	1.654301	0.010423	0.221791
H66	H	1.462608	-0.445832	-0.243203
H67	H	1.455400	-0.446996	0.243239
H68	H	1.464413	-0.302154	-0.242629
Br69	Br	1.244318	-0.444542	-0.149744
H70	H	1.809254	-0.091919	0.360852
