data_functionalizedCrystal
_audit_creation_method	'MofGen! by Chris Wilmer'
_symmetry_space_group_name_H-M	'P1'
_symmetry_Int_Tables_number	1
_symmetry_cell_setting	triclinic
loop_
_symmetry_equiv_pos_as_xyz
  x,y,z
_cell_length_a	6.817900
_cell_length_b	11.102188
_cell_length_c	16.305550
_cell_angle_alpha	93.872451
_cell_angle_beta	103.455250
_cell_angle_gamma	108.603875
loop_
_atom_site_label
_atom_site_type_symbol
_atom_site_fract_x
_atom_site_fract_y
_atom_site_fract_z
V1	V	-4.052576	-0.176911	-0.263031
O2	O	-4.012740	0.007398	-0.258024
O3	O	-4.029746	-0.349724	-0.261233
O4	O	-4.003649	-0.174674	-0.377748
O5	O	-4.039018	-0.168864	-0.140702
V6	V	-4.532958	-0.154809	-0.248400
O7	O	-4.320722	-0.225395	-0.295127
O8	O	-4.715009	-0.106325	-0.216304
O9	O	-4.332581	0.018004	-0.250199
O10	O	-4.690191	-0.339118	-0.253407
O11	O	-4.663912	-0.162856	-0.370729
O12	O	-4.358679	-0.157046	-0.133683
C13	C	-3.880985	-0.391837	-0.257083
C14	C	-3.943603	-0.533117	-0.256377
C15	C	-3.930165	-0.581026	-0.178790
C16	C	-3.989024	-0.713775	-0.178130
C17	C	-4.074749	-0.750694	-0.332650
C18	C	-4.015905	-0.617948	-0.333310
C19	C	-3.847693	-0.168542	-0.405710
C20	C	-3.889143	-0.167857	-0.499492
C21	C	-4.039835	-0.165200	-0.840237
C22	C	-3.802613	-0.157314	-0.799308
C23	C	-3.759604	-0.158553	-0.701814
C24	C	-3.965073	-0.166517	-0.671189
C25	C	-4.150787	-0.292033	-0.721816
C26	C	-4.192545	-0.291323	-0.819365
C27	C	-4.077232	-0.048574	-0.794394
C28	C	-4.029155	-0.047580	-0.696551
C29	C	-3.922835	-0.167266	-0.575651
C30	C	-4.082084	-0.164460	-0.935776
C31	C	-4.144685	0.060110	-0.254346
C32	C	-4.061306	0.201389	-0.255057
C33	C	-4.177977	-0.163182	-0.105717
C34	C	-4.115765	-0.163861	-0.011935
H35	H	-3.619675	-0.068308	-0.666790
H36	H	-3.978079	-0.752775	-0.114952
N37	N	-3.688323	-0.270830	-0.680244
H38	H	-3.792392	-0.329901	-0.652996
H39	H	-3.540015	-0.238022	-0.639210
N40	N	-4.152767	-0.842192	-0.415625
H41	H	-4.188014	-0.933557	-0.403436
H42	H	-4.036722	-0.822651	-0.446628
N43	N	-4.030406	-0.566264	-0.416997
H44	H	-4.085122	-0.640145	-0.465633
H45	H	-3.883359	-0.507579	-0.417773
H46	H	-4.249991	-0.053235	-0.821209
H47	H	-3.682980	-0.066643	-0.811672
H48	H	-3.769993	-0.241106	-0.830821
H49	H	-3.871294	-0.511958	-0.116147
H50	H	-4.169540	-0.379612	-0.849747
N51	N	-3.850505	0.075389	-0.651012
H52	H	-3.906277	0.125917	-0.614026
H53	H	-3.797027	0.128388	-0.694435
N54	N	-4.424968	-0.305894	-0.856451
H55	H	-4.499872	-0.312755	-0.809418
H56	H	-4.497556	-0.386182	-0.900390
N57	N	-4.355716	-0.305776	-0.696773
H58	H	-4.330078	-0.230593	-0.652261
H59	H	-4.402359	-0.388509	-0.672657
N60	N	-4.094796	-0.409022	-0.699549
H61	H	-3.949297	-0.380996	-0.656707
H62	H	-4.091030	-0.459128	-0.752864
H63	H	-3.971677	0.046528	-0.807761
H64	H	-4.176210	-0.046019	-0.675203
