data_functionalizedCrystal
_audit_creation_method	'MofGen! by Chris Wilmer'
_symmetry_space_group_name_H-M	'P1'
_symmetry_Int_Tables_number	1
_symmetry_cell_setting	triclinic
loop_
_symmetry_equiv_pos_as_xyz
  x,y,z
_cell_length_a	16.120484
_cell_length_b	16.625547
_cell_length_c	16.625548
_cell_angle_alpha	89.985274
_cell_angle_beta	87.115040
_cell_angle_gamma	87.074925
loop_
_atom_site_label
_atom_site_type_symbol
_atom_site_fract_x
_atom_site_fract_y
_atom_site_fract_z
Zn1	Zn	-0.332069	-1.216277	0.472313
Zn2	Zn	-0.471454	-1.209365	0.344308
Zn3	Zn	-0.332054	-1.081469	0.337478
Zn4	Zn	-0.471442	-1.074566	0.479082
O5	O	-0.401755	-1.145419	0.408295
O6	O	-0.350569	-1.328192	0.455359
O7	O	-0.452961	-1.192396	0.230569
O8	O	-0.215389	-1.105133	0.349673
O9	O	-0.452974	-1.323114	0.361314
O10	O	-0.215399	-1.204176	0.448736
O11	O	-0.350545	-1.098431	0.225552
O12	O	-0.350534	-0.967721	0.356236
O13	O	-0.452955	-1.093368	0.591016
O14	O	-0.452942	-0.962650	0.460272
O15	O	-0.350558	-1.197483	0.586044
O16	O	-0.588119	-1.185703	0.367877
O17	O	-0.588111	-1.086666	0.466895
C18	C	-0.401736	-0.935929	0.408248
C19	C	-0.401748	-0.846308	0.408248
C20	C	-0.401748	-0.773525	0.408255
C21	C	-0.401751	-0.682217	0.408272
C22	C	-0.401758	-0.609440	0.408290
C23	C	-0.401763	-0.518125	0.408306
C24	C	-0.618366	-1.134707	0.418879
C25	C	-0.711033	-1.130198	0.423433
C26	C	-0.880697	-1.121970	0.431766
C27	C	-0.921972	-1.169013	0.384838
C28	C	-1.016379	-1.164435	0.389474
C29	C	-0.786282	-1.126547	0.427131
C30	C	-0.184298	-1.156195	0.397688
C31	C	-0.091630	-1.160787	0.393168
C32	C	-0.401757	-1.145426	0.618604
C33	C	-0.401758	-1.145429	0.708225
C34	C	-0.401771	-0.355727	0.408333
C35	C	-0.401769	-0.445349	0.408324
C36	C	-0.401765	-1.145395	1.036401
C37	C	-0.401766	-1.145403	0.945093
C38	C	-0.401762	-1.145413	0.872316
C39	C	-0.401762	-1.145419	0.781002
C40	C	-0.401769	-1.145404	1.198805
C41	C	-0.401763	-1.145396	1.109184
H42	H	-0.886406	-1.212724	0.341180
H43	H	-0.916261	-1.078261	0.475419
