data_functionalizedCrystal
_audit_creation_method	'MofGen! by Chris Wilmer'
_symmetry_space_group_name_H-M	'P1'
_symmetry_Int_Tables_number	1
_symmetry_cell_setting	triclinic
loop_
_symmetry_equiv_pos_as_xyz
  x,y,z
_cell_length_a	14.519710
_cell_length_b	10.654550
_cell_length_c	9.730223
_cell_angle_alpha	90.000193
_cell_angle_beta	90.000734
_cell_angle_gamma	95.917476
loop_
_atom_site_label
_atom_site_type_symbol
_atom_site_fract_x
_atom_site_fract_y
_atom_site_fract_z
O1	O	1.224716	-0.164618	-0.114256
O2	O	1.724716	0.335382	0.385744
O3	O	0.956339	-0.184004	-0.114265
O4	O	1.456339	0.315996	0.385735
O5	O	1.096698	0.008488	-0.114255
O6	O	1.596698	0.508488	0.385745
O7	O	1.084357	-0.357109	-0.114266
O8	O	1.584357	0.142891	0.385734
O9	O	1.096696	0.008483	0.114325
O10	O	1.596696	0.508483	0.614325
O11	O	0.956338	-0.184009	0.114315
O12	O	1.456338	0.315991	0.614315
O13	O	1.224714	-0.164622	0.114324
O14	O	1.724714	0.335378	0.614324
Zn15	Zn	1.090526	-0.174316	0.150611
Zn16	Zn	1.590526	0.325684	0.650611
Zn17	Zn	1.090528	-0.174310	-0.150553
Zn18	Zn	1.590528	0.325690	0.349447
O19	O	1.084355	-0.357114	0.114314
O20	O	1.584355	0.142886	0.614314
C21	C	0.921974	-0.183103	0.000024
C22	C	1.421974	0.316897	0.500024
C23	C	0.819579	-0.180396	0.000020
C24	C	1.319579	0.319604	0.500020
C25	C	1.259079	-0.165524	0.000032
C26	C	1.759079	0.334476	0.500032
C27	C	1.361475	-0.168231	0.000026
C28	C	1.861475	0.331769	0.500026
C29	C	1.095791	0.055275	0.000033
C30	C	1.595791	0.555275	0.500033
C31	C	1.093080	0.194692	0.000028
C32	C	1.593080	0.694692	0.500028
C33	C	1.736422	-0.178198	0.000025
C34	C	2.236422	0.321802	0.500025
C35	C	1.632100	-0.175430	0.000025
C36	C	2.132100	0.324570	0.500025
C37	C	1.548952	-0.173215	0.000024
C38	C	2.048952	0.326785	0.500024
C39	C	1.444623	-0.170446	0.000027
C40	C	1.944623	0.329554	0.500027
C41	C	1.085262	-0.403901	0.000023
C42	C	1.585262	0.096099	0.500023
C43	C	1.087973	-0.543318	0.000018
C44	C	1.587973	-0.043318	0.500018
N45	N	1.090531	-0.174320	0.356148
N46	N	1.590531	0.325680	0.856148
C47	C	1.175721	0.274972	0.000035
C48	C	1.675721	0.774972	0.500035
C49	C	1.173168	0.405968	0.000025
C50	C	1.673168	0.905968	0.500025
C51	C	1.005326	0.376391	0.000007
C52	C	1.505326	0.876391	0.500007
C53	C	1.007880	0.245397	0.000007
C54	C	1.507880	0.745397	0.500007
C55	C	1.272623	0.292049	0.000051
C56	C	1.772623	0.792049	0.500051
C57	C	1.270070	0.423046	0.000041
C58	C	1.770070	0.923046	0.500041
N59	N	1.090530	-0.174297	-0.356089
N60	N	1.590530	0.325703	0.143911
C61	C	1.152698	-0.089113	0.428078
C62	C	1.652698	0.410887	0.928078
C63	C	1.152695	-0.089098	0.571961
C64	C	1.652695	0.410902	1.071961
C65	C	1.028356	-0.259507	0.571970
C66	C	1.528356	0.240493	1.071970
C67	C	1.028355	-0.259516	0.428090
C68	C	1.528355	0.240484	0.928090
C69	C	1.224487	0.009267	0.428074
C70	C	1.724487	0.509267	0.928074
C71	C	1.224485	0.009283	0.571957
C72	C	1.724485	0.509283	1.071957
H73	H	0.940586	0.180037	-0.000017
H74	H	1.440586	0.680037	0.499983
H75	H	0.977733	-0.328870	0.630562
H76	H	1.477733	0.171130	1.130562
H77	H	1.208741	0.105649	0.389022
H78	H	1.708741	0.605649	0.889022
H79	H	0.935959	0.417692	-0.000010
H80	H	1.435959	0.917692	0.499990
H81	H	1.310526	0.263058	-0.095601
H82	H	1.810526	0.763058	0.404399
C83	C	1.314309	0.244311	0.133385
C84	C	1.814309	0.744311	0.633385
N85	N	1.345706	0.208353	0.233814
N86	N	1.845706	0.708353	0.733814
H87	H	1.299356	0.468972	-0.098652
H88	H	1.799356	0.968972	0.401348
C89	C	0.960038	-0.353345	0.348972
C90	C	1.460038	0.146655	0.848972
N91	N	0.908607	-0.424060	0.289380
N92	N	1.408607	0.075940	0.789380
C93	C	1.319385	0.479937	0.129277
C94	C	1.819385	0.979937	0.629277
N95	N	1.356526	0.522787	0.226616
N96	N	1.856526	1.022787	0.726616
C97	C	1.314945	-0.031178	0.367781
C98	C	1.814945	0.468822	0.867781
N99	N	1.383079	-0.061641	0.322367
N100	N	1.883079	0.438359	0.822367
H101	H	1.202078	0.100290	0.616574
H102	H	1.702078	0.600290	1.116574
H103	H	1.295354	-0.011554	0.611009
H104	H	1.795354	0.488446	1.111009
