data_functionalizedCrystal
_audit_creation_method	'MofGen! by Chris Wilmer'
_symmetry_space_group_name_H-M	'P1'
_symmetry_Int_Tables_number	1
_symmetry_cell_setting	triclinic
loop_
_symmetry_equiv_pos_as_xyz
  x,y,z
_cell_length_a	14.971506
_cell_length_b	16.109304
_cell_length_c	14.048226
_cell_angle_alpha	89.996377
_cell_angle_beta	89.993237
_cell_angle_gamma	83.542513
loop_
_atom_site_label
_atom_site_type_symbol
_atom_site_fract_x
_atom_site_fract_y
_atom_site_fract_z
O1	O	1.186781	0.108428	-0.079161
O2	O	0.926364	0.121385	-0.079161
O3	O	1.063725	-0.006115	-0.079162
O4	O	1.049420	0.235928	-0.079161
O5	O	1.063709	-0.006123	0.079160
O6	O	0.926348	0.121377	0.079160
O7	O	1.186764	0.108420	0.079160
Zn8	Zn	1.056553	0.114898	0.104297
Zn9	Zn	1.056575	0.114907	-0.104298
O10	O	1.049403	0.235920	0.079161
C11	C	0.893033	0.120799	-0.000000
C12	C	0.793739	0.119053	-0.000000
C13	C	0.355359	0.187296	-0.000010
C14	C	0.448657	0.188929	-0.000014
C15	C	0.505984	0.114018	-0.000010
C16	C	0.470009	0.037468	-0.000012
C17	C	0.376713	0.035836	-0.000014
C18	C	0.664467	0.040877	-0.000004
C19	C	0.757770	0.042509	0.000001
C20	C	0.736411	0.193970	-0.000003
C21	C	0.643115	0.192338	-0.000006
C22	C	0.607146	0.115788	-0.000006
C23	C	1.063137	-0.037095	-0.000003
C24	C	1.061398	-0.129392	-0.000010
C25	C	1.057391	-0.341731	-0.086307
C26	C	1.055749	-0.428453	-0.086306
C27	C	1.055735	-0.428458	0.086305
C28	C	1.057371	-0.341737	0.086303
C29	C	1.058203	-0.298376	-0.000006
C30	C	1.054926	-0.471819	-0.000003
C31	C	1.053146	-0.565848	-0.000002
C32	C	1.059981	-0.204341	-0.000008
C33	C	1.220096	0.109006	-0.000003
C34	C	1.319390	0.110752	-0.000009
C35	C	1.049992	0.266900	0.000000
C36	C	1.051730	0.359197	0.000000
N37	N	1.056545	0.114890	0.246658
N38	N	1.056591	0.114908	-0.246659
C39	C	1.117387	0.058457	0.296476
C40	C	1.117394	0.058456	0.396133
C41	C	1.056561	0.114894	0.445971
C42	C	0.995712	0.171330	0.396147
C43	C	0.995702	0.171326	0.296491
C44	C	0.995738	0.171336	0.603861
C45	C	0.995748	0.171342	0.703524
C46	C	1.117429	0.058466	0.703503
C47	C	1.117419	0.058462	0.603848
C48	C	1.056571	0.114900	0.554030
H49	H	0.347429	-0.026494	-0.000015
C50	C	0.928787	0.233405	0.450972
N51	N	0.878377	0.280161	0.492266
H52	H	1.058066	-0.306428	-0.156585
H53	H	1.166973	0.012513	0.744071
H54	H	1.058027	-0.306435	0.156584
C55	C	0.533072	-0.044935	-0.000001
N56	N	0.580571	-0.107003	0.000013
C57	C	1.184304	-0.003645	0.450928
N58	N	1.234695	-0.050431	0.492199
H59	H	0.596441	0.253337	-0.000003
C60	C	0.488218	0.273134	-0.000002
N61	N	0.518014	0.336560	0.000011
C62	C	1.054890	-0.476144	-0.181244
N63	N	1.054256	-0.512065	-0.252756
C64	C	1.054823	-0.476164	0.181239
N65	N	1.054138	-0.512095	0.252745
C66	C	1.184309	-0.003631	0.241663
N67	N	1.234714	-0.050400	0.200381
C68	C	0.928824	0.233421	0.758344
N69	N	0.878414	0.280180	0.799634
C70	C	0.928778	0.233414	0.241692
N71	N	0.878369	0.280182	0.200418
H72	H	0.308688	0.248297	-0.000006
H73	H	1.166958	0.012510	0.563270
H74	H	0.765701	0.256300	-0.000003
H75	H	0.946186	0.217291	0.563302
H76	H	0.635186	-0.021458	-0.000008
C77	C	0.820828	-0.039897	-0.000008
N78	N	0.868324	-0.101966	-0.000018
