data_functionalizedCrystal
_audit_creation_method	'MofGen! by Chris Wilmer'
_symmetry_space_group_name_H-M	'P1'
_symmetry_Int_Tables_number	1
_symmetry_cell_setting	triclinic
loop_
_symmetry_equiv_pos_as_xyz
  x,y,z
_cell_length_a	15.995292
_cell_length_b	15.072220
_cell_length_c	12.837942
_cell_angle_alpha	89.999686
_cell_angle_beta	89.148778
_cell_angle_gamma	90.013670
loop_
_atom_site_label
_atom_site_type_symbol
_atom_site_fract_x
_atom_site_fract_y
_atom_site_fract_z
O1	O	1.121664	0.073806	0.133322
O2	O	0.879203	0.073803	0.149884
O3	O	0.995057	0.073799	-0.009298
O4	O	1.005810	0.073810	0.292504
O5	O	0.995026	-0.073766	-0.009289
O6	O	0.879172	-0.073762	0.149893
O7	O	1.121633	-0.073759	0.133331
Zn8	Zn	1.000398	-0.097190	0.141613
Zn9	Zn	1.000439	0.097234	0.141602
O10	O	1.005779	-0.073755	0.292513
C11	C	0.847938	0.000020	0.149215
C12	C	0.754824	0.000018	0.147194
N13	N	1.000376	-0.229878	0.141621
C14	C	0.416493	0.000028	0.139764
C15	C	0.448973	0.000362	0.254658
C16	C	0.545822	0.000025	0.256842
C17	C	0.584343	0.000024	0.143451
C18	C	0.550640	-0.084242	0.086014
C19	C	0.453739	-0.084309	0.084631
C20	C	0.453732	0.083500	0.082275
C21	C	0.550565	0.084610	0.086533
C22	C	0.679205	0.000018	0.145528
C23	C	0.321631	0.000028	0.137683
C24	C	1.000436	-0.589080	0.141598
C25	C	0.938192	-0.551471	0.226488
C26	C	0.938375	-0.448645	0.226797
C27	C	1.000406	-0.410876	0.141609
C28	C	1.089656	-0.448165	0.165210
C29	C	1.089317	-0.551023	0.165813
C30	C	0.974190	-0.551185	0.032855
C31	C	0.972243	-0.448321	0.033581
C32	C	1.000394	-0.310163	0.141613
C33	C	1.000455	-0.689793	0.141595
C34	C	1.152898	0.000026	0.134000
C35	C	1.246012	0.000033	0.136021
N36	N	1.000466	0.229923	0.141586
C37	C	0.991409	0.000017	-0.047914
C38	C	0.980576	0.000018	-0.162988
C39	C	1.110814	0.000039	-0.403980
C40	C	1.100639	0.000040	-0.512103
C41	C	0.950051	0.000029	-0.487360
C42	C	0.960226	0.000027	-0.379236
C43	C	1.040610	0.000031	-0.337551
C44	C	1.050785	0.000023	-0.229425
C45	C	0.900198	0.000018	-0.204684
C46	C	0.890022	0.000020	-0.312807
C47	C	1.009427	0.000029	0.331129
C48	C	1.020260	0.000034	0.446203
H49	H	0.568450	0.060433	0.301818
H50	H	1.116238	0.000023	-0.195487
H51	H	0.824576	0.000020	-0.346763
H52	H	1.013971	-0.422615	-0.032548
H53	H	0.424523	0.060793	0.298940
H54	H	1.176266	0.000033	-0.370039
O55	O	0.863360	0.000019	-0.532339
H56	H	0.855138	0.060162	-0.581013
H57	H	0.843032	0.000005	-0.150585
O58	O	0.415191	-0.079243	0.312994
H59	H	0.345827	-0.076884	0.314379
O60	O	0.574982	-0.080186	0.316665
H61	H	0.519883	-0.118885	0.344151
O62	O	0.422393	-0.167736	0.137342
H63	H	0.476451	-0.207652	0.163582
O64	O	1.176362	0.000043	-0.583749
H65	H	1.155785	0.000049	-0.665938
O66	O	0.585475	0.091353	-0.023107
H67	H	0.627631	0.034263	-0.038815
H68	H	1.137439	-0.423697	0.105024
O69	O	1.118947	-0.414035	0.269061
H70	H	1.130651	-0.470924	0.321770
H71	H	0.432467	-0.088138	0.000391
O72	O	0.850863	-0.415249	0.208202
H73	H	0.850905	-0.341607	0.208408
H74	H	0.575850	-0.087377	0.002574
O75	O	0.581396	-0.167315	0.138854
H76	H	0.620674	-0.148799	0.206013
O77	O	1.034128	-0.583437	-0.050864
H78	H	1.064684	-0.525622	-0.089109
H79	H	0.572484	0.146949	0.128352
O80	O	0.420135	0.168109	0.129942
H81	H	0.376515	0.151607	0.195148
H82	H	0.432991	0.084068	-0.002295
H83	H	0.955659	-0.577306	0.306730
O84	O	0.850427	-0.584281	0.208198
H85	H	0.850230	-0.627749	0.138412
H86	H	0.956033	-0.424028	0.307494
H87	H	1.111128	-0.575001	0.245118
O88	O	1.153107	-0.583986	0.087039
H89	H	1.184066	-0.526458	0.048688
H90	H	0.906546	-0.423951	0.015669
O91	O	0.889221	-0.585578	0.002790
H92	H	0.842099	-0.564969	0.062336
