data_functionalizedCrystal
_audit_creation_method	'MofGen! by Chris Wilmer'
_symmetry_space_group_name_H-M	'P1'
_symmetry_Int_Tables_number	1
_symmetry_cell_setting	triclinic
loop_
_symmetry_equiv_pos_as_xyz
  x,y,z
_cell_length_a	16.109296
_cell_length_b	15.072220
_cell_length_c	16.109301
_cell_angle_alpha	90.001893
_cell_angle_beta	83.460385
_cell_angle_gamma	89.996229
loop_
_atom_site_label
_atom_site_type_symbol
_atom_site_fract_x
_atom_site_fract_y
_atom_site_fract_z
O1	O	-1.103137	0.073743	-0.106836
O2	O	-0.853137	0.323743	0.143164
O3	O	-0.603137	0.573743	0.393164
O4	O	-0.353137	0.823743	0.643164
O5	O	-0.861075	0.073755	-0.120140
O6	O	-0.611075	0.323755	0.129860
O7	O	-0.361075	0.573755	0.379860
O8	O	-0.111075	0.823755	0.629860
O9	O	-0.988756	0.073740	0.007543
O10	O	-0.738756	0.323740	0.257543
O11	O	-0.488756	0.573740	0.507543
O12	O	-0.238756	0.823740	0.757543
O13	O	-0.975456	0.073759	-0.234519
O14	O	-0.725456	0.323759	0.015481
O15	O	-0.475456	0.573759	0.265481
O16	O	-0.225456	0.823759	0.515481
O17	O	-0.988739	-0.073825	0.007527
O18	O	-0.738739	0.176175	0.257527
O19	O	-0.488739	0.426175	0.507527
O20	O	-0.238739	0.676175	0.757527
O21	O	-0.861058	-0.073810	-0.120156
O22	O	-0.611058	0.176190	0.129844
O23	O	-0.361058	0.426190	0.379844
O24	O	-0.111058	0.676190	0.629844
O25	O	-1.103121	-0.073822	-0.106852
O26	O	-0.853121	0.176178	0.143148
O27	O	-0.603121	0.426178	0.393148
O28	O	-0.353121	0.676178	0.643148
Zn29	Zn	-0.982087	-0.097245	-0.113507
Zn30	Zn	-0.732087	0.152755	0.136493
Zn31	Zn	-0.482087	0.402755	0.386493
Zn32	Zn	-0.232087	0.652755	0.636493
Zn33	Zn	-0.982109	0.097178	-0.113485
Zn34	Zn	-0.732109	0.347178	0.136515
Zn35	Zn	-0.482109	0.597178	0.386515
Zn36	Zn	-0.232109	0.847178	0.636515
O37	O	-0.975440	-0.073807	-0.234535
O38	O	-0.725440	0.176193	0.015465
O39	O	-0.475440	0.426193	0.265465
O40	O	-0.225440	0.676193	0.515465
C41	C	-0.830092	-0.000026	-0.119610
C42	C	-0.580092	0.249974	0.130390
C43	C	-0.330092	0.499974	0.380390
C44	C	-0.080092	0.749974	0.630390
C45	C	-0.737796	-0.000022	-0.117996
C46	C	-0.487796	0.249978	0.132004
C47	C	-0.237796	0.499978	0.382004
C48	C	0.012204	0.749978	0.632004
N49	N	-0.982078	-0.229934	-0.113520
N50	N	-0.732078	0.020066	0.136480
N51	N	-0.482078	0.270066	0.386480
N52	N	-0.232078	0.520066	0.636480
C53	C	-0.428797	-0.000034	-0.188486
C54	C	-0.178797	0.249966	0.061514
C55	C	0.071203	0.499966	0.311514
C56	C	0.321203	0.749966	0.561514
C57	C	-0.515517	-0.000029	-0.190009
C58	C	-0.265517	0.249971	0.059991
C59	C	-0.015517	0.499971	0.309991
C60	C	0.234483	0.749971	0.559991
C61	C	-0.535391	-0.000028	-0.038520
C62	C	-0.285391	0.249972	0.211480
C63	C	-0.035391	0.499972	0.461480
C64	C	0.214609	0.749972	0.711480
C65	C	-0.448672	-0.000028	-0.036998
C66	C	-0.198672	0.249972	0.213002
C67	C	0.051328	0.499972	0.463002
C68	C	0.301328	0.749972	0.713002
C69	C	-0.395377	-0.000035	-0.111983
C70	C	-0.145377	0.249965	0.138017
C71	C	0.104623	0.499965	0.388017
C72	C	0.354623	0.749965	0.638017
C73	C	-0.568816	-0.000030	-0.115029
C74	C	-0.318816	0.249970	0.134971
C75	C	-0.068816	0.499970	0.384971
C76	C	0.181184	0.749970	0.634971
C77	C	-0.662842	-0.000024	-0.116681
C78	C	-0.412842	0.249976	0.133319
C79	C	-0.162842	0.499976	0.383319
C80	C	0.087158	0.749976	0.633319
C81	C	-0.301345	-0.000040	-0.110332
C82	C	-0.051345	0.249960	0.139668
C83	C	0.198655	0.499960	0.389668
C84	C	0.448655	0.749960	0.639668
C85	C	-0.982094	-0.410931	-0.113501
C86	C	-0.732094	-0.160931	0.136499
C87	C	-0.482094	0.089069	0.386499
C88	C	-0.232094	0.339069	0.636499
C89	C	-0.913763	-0.448592	-0.181797
C90	C	-0.663763	-0.198592	0.068203
C91	C	-0.413763	0.051408	0.318203
C92	C	-0.163763	0.301408	0.568203
C93	C	-0.913530	-0.551418	-0.181611
C94	C	-0.663530	-0.301418	0.068389
C95	C	-0.413530	-0.051418	0.318389
C96	C	-0.163530	0.198582	0.568389
C97	C	-0.982109	-0.589135	-0.113484
C98	C	-0.732109	-0.339135	0.136516
C99	C	-0.482109	-0.089135	0.386516
C100	C	-0.232109	0.160865	0.636516
C101	C	-0.963539	-0.551799	-0.026634
C102	C	-0.713539	-0.301799	0.223366
C103	C	-0.463539	-0.051799	0.473366
C104	C	-0.213539	0.198201	0.723366
C105	C	-0.963040	-0.448941	-0.027045
C106	C	-0.713040	-0.198941	0.222955
C107	C	-0.463040	0.051059	0.472955
C108	C	-0.213040	0.301059	0.722955
C109	C	-1.069204	-0.448822	-0.131271
C110	C	-0.819204	-0.198822	0.118729
C111	C	-0.569204	0.051178	0.368729
C112	C	-0.319204	0.301178	0.618729
C113	C	-1.068628	-0.551687	-0.133232
C114	C	-0.818628	-0.301687	0.116768
C115	C	-0.568628	-0.051687	0.366768
C116	C	-0.318628	0.198313	0.616768
C117	C	-0.982119	-0.689849	-0.113469
C118	C	-0.732119	-0.439849	0.136531
C119	C	-0.482119	-0.189849	0.386531
C120	C	-0.232119	0.060151	0.636531
C121	C	-0.982082	-0.310218	-0.113511
C122	C	-0.732082	-0.060218	0.136489
C123	C	-0.482082	0.189782	0.386489
C124	C	-0.232082	0.439782	0.636489
C125	C	-0.134103	-0.000040	-0.107387
C126	C	0.115897	0.249960	0.142613
C127	C	0.365897	0.499960	0.392613
C128	C	0.615897	0.749960	0.642613
C129	C	-0.226397	-0.000043	-0.109016
C130	C	0.023603	0.249957	0.140984
C131	C	0.273603	0.499957	0.390984
C132	C	0.523603	0.749957	0.640984
C133	C	-0.988209	-0.000043	0.038510
C134	C	-0.738209	0.249957	0.288510
C135	C	-0.488209	0.499957	0.538510
C136	C	-0.238209	0.749957	0.788510
C137	C	-0.986594	-0.000044	0.130805
C138	C	-0.736594	0.249956	0.380805
C139	C	-0.486594	0.499956	0.630805
C140	C	-0.236594	0.749956	0.880805
N141	N	-0.982124	0.229867	-0.113465
N142	N	-0.732124	0.479867	0.136535
N143	N	-0.482124	0.729867	0.386535
N144	N	-0.232124	0.979867	0.636535
C145	C	-0.975987	-0.000022	-0.265502
C146	C	-0.725987	0.249978	-0.015502
C147	C	-0.475987	0.499978	0.234498
C148	C	-0.225987	0.749978	0.484498
C149	C	-0.977602	-0.000015	-0.357797
C150	C	-0.727602	0.249985	-0.107797
C151	C	-0.477602	0.499985	0.142203
C152	C	-0.227602	0.749985	0.392203
C153	C	-1.058602	-0.000034	0.353079
C154	C	-0.808602	0.249966	0.603079
C155	C	-0.558602	0.499966	0.853079
C156	C	-0.308602	0.749966	1.103079
C157	C	-1.057078	-0.000026	0.439799
C158	C	-0.807078	0.249974	0.689799
C159	C	-0.557078	0.499974	0.939799
C160	C	-0.307078	0.749974	1.189799
C161	C	-0.905588	-0.000023	0.419922
C162	C	-0.655588	0.249977	0.669922
C163	C	-0.405588	0.499977	0.919922
C164	C	-0.155588	0.749977	1.169922
C165	C	-0.907113	-0.000024	0.333204
C166	C	-0.657113	0.249976	0.583204
C167	C	-0.407113	0.499976	0.833204
C168	C	-0.157113	0.749976	1.083204
C169	C	-0.983622	-0.000034	0.299785
C170	C	-0.733622	0.249966	0.549785
C171	C	-0.483622	0.499966	0.799785
C172	C	-0.233622	0.749966	1.049785
C173	C	-0.980573	-0.000025	0.473224
C174	C	-0.730573	0.249975	0.723224
C175	C	-0.480573	0.499975	0.973224
C176	C	-0.230573	0.749975	1.223224
C177	C	-0.978920	-0.000017	0.567250
C178	C	-0.728920	0.249983	0.817250
C179	C	-0.478920	0.499983	1.067250
C180	C	-0.228920	0.749983	1.317250
C181	C	-0.985276	-0.000040	0.205753
C182	C	-0.735276	0.249960	0.455753
C183	C	-0.485276	0.499960	0.705753
C184	C	-0.235276	0.749960	0.955753
H185	H	-0.385406	-0.000040	-0.249544
H186	H	-0.135406	0.249960	0.000456
H187	H	0.114594	0.499960	0.250456
H188	H	0.364594	0.749960	0.500456
H189	H	-1.120900	-0.000040	0.325873
H190	H	-0.870900	0.249960	0.575873
H191	H	-0.620900	0.499960	0.825873
H192	H	-0.370900	0.749960	1.075873
H193	H	-0.578794	-0.000024	0.022530
H194	H	-0.328794	0.249976	0.272530
H195	H	-0.078794	0.499976	0.522530
H196	H	0.171206	0.749976	0.772530
H197	H	-0.924578	-0.423864	-0.246565
H198	H	-0.674578	-0.173864	0.003435
H199	H	-0.424578	0.076136	0.253435
H200	H	-0.174578	0.326136	0.503435
H201	H	-1.118133	-0.000024	0.483189
H202	H	-0.868133	0.249976	0.733189
H203	H	-0.618133	0.499976	0.983189
H204	H	-0.368133	0.749976	1.233189
F205	F	-0.413102	-0.000019	0.044432
F206	F	-0.163102	0.249981	0.294432
F207	F	0.086898	0.499981	0.544432
F208	F	0.336898	0.749981	0.794432
F209	F	-1.135664	-0.416981	-0.066181
F210	F	-0.885664	-0.166981	0.183819
F211	F	-0.635664	0.083019	0.433819
F212	F	-0.385664	0.333019	0.683819
F213	F	-0.551081	-0.000024	-0.271434
F214	F	-0.301081	0.249976	-0.021434
F215	F	-0.051081	0.499976	0.228566
F216	F	0.198919	0.749976	0.478566
H217	H	-0.899522	-0.424965	-0.011434
H218	H	-0.649522	-0.174965	0.238566
H219	H	-0.399522	0.075035	0.488566
H220	H	-0.149522	0.325035	0.738566
H221	H	-0.924535	-0.576663	-0.246159
H222	H	-0.674535	-0.326663	0.003841
H223	H	-0.424535	-0.076663	0.253841
H224	H	-0.174535	0.173337	0.503841
H225	H	-0.849476	-0.422760	-0.170572
H226	H	-0.599476	-0.172760	0.079428
H227	H	-0.349476	0.077240	0.329428
H228	H	-0.099476	0.327240	0.579428
F229	F	-1.138179	-0.585243	-0.072456
F230	F	-0.888179	-0.335243	0.177544
F231	F	-0.638179	-0.085243	0.427544
F232	F	-0.388179	0.164757	0.677544
F233	F	-1.025640	-0.416372	0.041399
F234	F	-0.775640	-0.166372	0.291399
F235	F	-0.525640	0.083628	0.541399
F236	F	-0.275640	0.333628	0.791399
F237	F	-0.829034	-0.583604	-0.166721
F238	F	-0.579034	-0.333604	0.083279
F239	F	-0.329034	-0.083604	0.333279
F240	F	-0.079034	0.166396	0.583279
F241	F	-1.026887	-0.583728	0.041418
F242	F	-0.776887	-0.333728	0.291418
F243	F	-0.526887	-0.083728	0.541418
F244	F	-0.276887	0.166272	0.791418
F245	F	-0.881476	-0.585485	-0.005731
F246	F	-0.631476	-0.335485	0.244269
F247	F	-0.381476	-0.085485	0.494269
F248	F	-0.131476	0.164515	0.744269
H249	H	-1.087133	-0.422885	-0.193271
H250	H	-0.837133	-0.172885	0.056729
H251	H	-0.587133	0.077115	0.306729
H252	H	-0.337133	0.327115	0.556729
F253	F	-1.087058	-0.583579	-0.216744
F254	F	-0.837058	-0.333579	0.033256
F255	F	-0.587058	-0.083579	0.283256
F256	F	-0.337058	0.166421	0.533256
H257	H	-0.846052	-0.000021	0.289808
H258	H	-0.596052	0.249979	0.539808
H259	H	-0.346052	0.499979	0.789808
H260	H	-0.096052	0.749979	1.039808
H261	H	-0.843297	-0.000016	0.447143
H262	H	-0.593297	0.249984	0.697143
H263	H	-0.343297	0.499984	0.947143
H264	H	-0.093297	0.749984	1.197143
