data_functionalizedCrystal
_audit_creation_method	'MofGen! by Chris Wilmer'
_symmetry_space_group_name_H-M	'P1'
_symmetry_Int_Tables_number	1
_symmetry_cell_setting	triclinic
loop_
_symmetry_equiv_pos_as_xyz
  x,y,z
_cell_length_a	18.101398
_cell_length_b	25.639239
_cell_length_c	18.101389
_cell_angle_alpha	89.979551
_cell_angle_beta	89.975673
_cell_angle_gamma	90.033952
loop_
_atom_site_label
_atom_site_type_symbol
_atom_site_fract_x
_atom_site_fract_y
_atom_site_fract_z
Zn1	Zn	1.132082	-0.208272	-0.418828
Zn2	Zn	1.632082	0.291728	0.081172
Zn3	Zn	1.131961	-0.295693	-0.294982
Zn4	Zn	1.631961	0.204307	0.205018
Zn5	Zn	1.008241	-0.208266	-0.294989
Zn6	Zn	1.508241	0.291734	0.205011
Zn7	Zn	1.008175	-0.295671	-0.418771
Zn8	Zn	1.508175	0.204329	0.081229
O9	O	1.070115	-0.251975	-0.356893
O10	O	1.570115	0.248025	0.143107
O11	O	1.235699	-0.219880	-0.402421
O12	O	1.735699	0.280120	0.097579
O13	O	1.115527	-0.284103	-0.191350
O14	O	1.615527	0.215897	0.308650
O15	O	1.024747	-0.135102	-0.311444
O16	O	1.524747	0.364898	0.188556
O17	O	1.235610	-0.284108	-0.311432
O18	O	1.735610	0.215892	0.188568
O19	O	1.115732	-0.135106	-0.402428
O20	O	1.615732	0.364894	0.097572
O21	O	1.024630	-0.219871	-0.191356
O22	O	1.524630	0.280129	0.308644
O23	O	0.904599	-0.219849	-0.311388
O24	O	1.404599	0.280151	0.188612
O25	O	1.024635	-0.284070	-0.522411
O26	O	1.524635	0.215930	-0.022411
O27	O	0.904551	-0.284065	-0.402330
O28	O	1.404551	0.215935	0.097670
O29	O	1.115668	-0.219858	-0.522454
O30	O	1.615668	0.280142	-0.022454
O31	O	1.115463	-0.368855	-0.311376
O32	O	1.615463	0.131145	0.188624
O33	O	1.024518	-0.368839	-0.402323
O34	O	1.524518	0.131161	0.097677
C35	C	0.877704	-0.251954	-0.356854
C36	C	1.377704	0.248046	0.143146
C37	C	0.795390	-0.251958	-0.356855
C38	C	1.295390	0.248042	0.143145
C39	C	0.496299	-0.251990	-0.356917
C40	C	0.996299	0.248010	0.143083
C41	C	0.527630	-0.211386	-0.299978
C42	C	1.027630	0.288614	0.200022
C43	C	0.613248	-0.211495	-0.299735
C44	C	1.113248	0.288505	0.200265
C45	C	0.644682	-0.251974	-0.356886
C46	C	1.144682	0.248026	0.143114
C47	C	0.613553	-0.307048	-0.335559
C48	C	1.113553	0.192952	0.164441
C49	C	0.527908	-0.306822	-0.335163
C50	C	1.027908	0.193178	0.164837
C51	C	0.527917	-0.238000	-0.435317
C52	C	1.027917	0.262000	0.064683
C53	C	0.613568	-0.236773	-0.434890
C54	C	1.113568	0.263227	0.065110
C55	C	0.728541	-0.251968	-0.356870
C56	C	1.228541	0.248032	0.143130
C57	C	0.412440	-0.252000	-0.356932
C58	C	0.912440	0.248000	0.143068
C59	C	1.069990	-0.387818	-0.356859
C60	C	1.569990	0.112182	0.143141
C61	C	1.070005	-0.445932	-0.356869
C62	C	1.570005	0.054068	0.143131
C63	C	1.117594	-0.806291	-0.309617
C64	C	1.617594	-0.306291	0.190383
C65	C	1.117622	-0.860895	-0.309627
C66	C	1.617622	-0.360895	0.190373
O67	O	1.157955	-0.889129	-0.269415
O68	O	1.657955	-0.389129	0.230585
N69	N	1.070245	-0.888214	-0.356942
N70	N	1.570245	-0.388214	0.143058
C71	C	1.022841	-0.860926	-0.404255
C72	C	1.522841	-0.360926	0.095745
O73	O	0.982546	-0.889177	-0.444501
O74	O	1.482546	-0.389177	0.055499
C75	C	1.022817	-0.806323	-0.404248
C76	C	1.522817	-0.306323	0.095752
C77	C	1.070192	-0.779007	-0.356925
C78	C	1.570192	-0.279007	0.143075
C79	C	1.164965	-0.778975	-0.262299
C80	C	1.664965	-0.278975	0.237701
C81	C	1.164936	-0.724374	-0.262288
C82	C	1.664936	-0.224374	0.237712
C83	C	1.117534	-0.697090	-0.309596
C84	C	1.617534	-0.197090	0.190404
C85	C	1.070162	-0.724406	-0.356914
C86	C	1.570162	-0.224406	0.143086
C87	C	0.975417	-0.779036	-0.451564
C88	C	1.475417	-0.279036	0.048436
C89	C	0.975397	-0.724429	-0.451554
C90	C	1.475397	-0.224429	0.048446
C91	C	1.022773	-0.697113	-0.404231
C92	C	1.522773	-0.197113	0.095769
C93	C	1.022731	-0.642522	-0.404212
C94	C	1.522731	-0.142522	0.095788
N95	N	1.070108	-0.615202	-0.356897
N96	N	1.570108	-0.115202	0.143103
C97	C	1.117509	-0.642487	-0.309589
C98	C	1.617509	-0.142487	0.190411
C99	C	1.022897	-0.975597	-0.404266
C100	C	1.522897	-0.475597	0.095734
C101	C	1.022917	-1.030199	-0.404270
C102	C	1.522917	-0.530199	0.095730
C103	C	1.117699	-1.030164	-0.309643
C104	C	1.617699	-0.530164	0.190357
C105	C	1.117675	-0.975561	-0.309636
C106	C	1.617675	-0.475561	0.190364
C107	C	1.070274	-0.948278	-0.356952
C108	C	1.570274	-0.448278	0.143048
C109	C	1.117443	-0.527822	-0.309570
C110	C	1.617443	-0.027822	0.190430
C111	C	1.117406	-0.473216	-0.309561
C112	C	1.617406	0.026784	0.190439
C113	C	1.022627	-0.473256	-0.404190
C114	C	1.522627	0.026744	0.095810
C115	C	1.022661	-0.527856	-0.404197
C116	C	1.522661	-0.027856	0.095803
C117	C	1.070074	-0.555138	-0.356884
C118	C	1.570074	-0.055138	0.143116
O119	O	0.982421	-0.614254	-0.444405
O120	O	1.482421	-0.114254	0.055595
O121	O	1.157804	-0.614229	-0.269357
O122	O	1.657804	-0.114229	0.230643
C123	C	1.263277	-0.251997	-0.356932
C124	C	1.763277	0.248003	0.143068
C125	C	1.345591	-0.252006	-0.356949
C126	C	1.845591	0.247994	0.143051
C127	C	1.070158	-0.251962	-0.550055
C128	C	1.570158	0.248038	-0.050055
C129	C	1.070176	-0.251957	-0.632369
C130	C	1.570176	0.248043	-0.132369
C131	C	1.070260	-0.115602	-0.356943
C132	C	1.570260	0.384398	0.143057
C133	C	1.070322	-0.057488	-0.356964
C134	C	1.570322	0.442512	0.143036
C135	C	1.070219	-0.251859	-0.931460
C136	C	1.570219	0.248141	-0.431460
C137	C	1.012746	-0.292130	-0.900108
C138	C	1.512746	0.207870	-0.400108
C139	C	1.012901	-0.292317	-0.814490
C140	C	1.512901	0.207683	-0.314490
C141	C	1.070197	-0.251907	-0.783077
C142	C	1.570197	0.248093	-0.283077
C143	C	1.148220	-0.266868	-0.814182
C144	C	1.648220	0.233132	-0.314182
C145	C	1.147899	-0.267132	-0.899827
C146	C	1.647899	0.232868	-0.399827
C147	C	1.050348	-0.196537	-0.899887
C148	C	1.550348	0.303463	-0.399887
C149	C	1.048612	-0.196856	-0.814236
C150	C	1.548612	0.303144	-0.314236
C151	C	1.070189	-0.251934	-0.699218
C152	C	1.570189	0.248066	-0.199218
C153	C	1.070232	-0.251833	-1.015320
C154	C	1.570232	0.248167	-0.515320
C155	C	1.070115	-0.251951	-0.164482
C156	C	1.570115	0.248049	0.335518
C157	C	1.070240	-0.251809	-0.082169
C158	C	1.570240	0.248191	0.417831
H159	H	0.634297	-0.170655	-0.313104
H160	H	1.134297	0.329345	0.186896
H161	H	1.156299	-1.052389	-0.271125
H162	H	1.656299	-0.552389	0.228875
N163	N	1.165870	-0.555691	-0.261247
N164	N	1.665870	-0.055691	0.238753
N165	N	1.213068	-0.586119	-0.287345
N166	N	1.713068	-0.086119	0.212655
H167	H	1.247267	-0.605802	-0.253214
H168	H	1.747267	-0.105802	0.246786
H169	H	1.203570	-0.801184	-0.223775
H170	H	1.703570	-0.301184	0.276225
N171	N	1.029475	-0.343736	-0.788773
N172	N	1.529475	0.156264	-0.288773
N173	N	1.032510	-0.352804	-0.720989
N174	N	1.532510	0.147196	-0.220989
H175	H	1.044248	-0.389115	-0.702825
H176	H	1.544248	0.110885	-0.202825
H177	H	1.025734	-0.332886	-0.921632
H178	H	1.525734	0.167114	-0.421632
H179	H	1.164746	-0.307573	-0.919809
H180	H	1.664746	0.192427	-0.419809
H181	H	0.984292	-0.953386	-0.442794
H182	H	1.484292	-0.453386	0.057206
H183	H	1.192172	-0.239073	-0.920569
H184	H	1.692172	0.260927	-0.420569
N185	N	0.980206	-0.179444	-0.926946
N186	N	1.480206	0.320556	-0.426946
N187	N	0.928984	-0.169777	-0.882698
N188	N	1.428984	0.330223	-0.382698
H189	H	0.879442	-0.157711	-0.901808
H190	H	1.379442	0.342289	-0.401808
N191	N	0.974508	-1.058091	-0.452602
N192	N	1.474508	-0.558091	0.047398
N193	N	0.932188	-1.033717	-0.494832
N194	N	1.432188	-0.533717	0.005168
H195	H	0.897999	-1.053413	-0.528970
H196	H	1.397999	-0.553413	-0.028970
H197	H	0.984031	-0.451032	-0.442706
H198	H	1.484031	0.048968	0.057294
N199	N	0.500587	-0.222838	-0.227522
N200	N	1.000587	0.277162	0.272478
N201	N	0.463079	-0.189768	-0.193384
N202	N	0.963079	0.310232	0.306616
H203	H	0.443975	-0.197857	-0.142213
H204	H	0.943975	0.302143	0.357787
N205	N	0.926977	-0.696569	-0.499896
N206	N	1.426977	-0.196569	0.000104
N207	N	0.884687	-0.720969	-0.542143
N208	N	1.384687	-0.220969	-0.042143
H209	H	0.850490	-0.701295	-0.576285
H210	H	1.350490	-0.201295	-0.076285
H211	H	0.984086	-0.550098	-0.442733
H212	H	1.484086	-0.050098	0.057267
N213	N	0.940318	-0.280570	-0.788112
N214	N	1.440318	0.219430	-0.288112
N215	N	0.889192	-0.272176	-0.832955
N216	N	1.389192	0.227824	-0.332955
H217	H	0.837926	-0.263882	-0.814330
H218	H	1.337926	0.236118	-0.314330
H219	H	1.192191	-0.238457	-0.793838
H220	H	1.692191	0.261543	-0.293838
N221	N	1.169716	-0.317060	-0.787275
N222	N	1.669716	0.182940	-0.287275
N223	N	1.127709	-0.341900	-0.745199
N224	N	1.627709	0.158100	-0.245199
H225	H	1.142887	-0.377349	-0.726195
H226	H	1.642887	0.122651	-0.226195
N227	N	0.939947	-0.280499	-0.925931
N228	N	1.439947	0.219501	-0.425931
N229	N	0.929569	-0.242395	-0.967745
N230	N	1.429569	0.257605	-0.467745
H231	H	0.878153	-0.234180	-0.985989
H232	H	1.378153	0.265820	-0.485989
N233	N	0.976581	-0.182708	-0.788730
N234	N	1.476581	0.317292	-0.288730
N235	N	0.941232	-0.213027	-0.747754
N236	N	1.441232	0.286973	-0.247754
H237	H	0.890359	-0.203037	-0.729737
H238	H	1.390359	0.296963	-0.229737
H239	H	0.633700	-0.220743	-0.241642
H240	H	1.133700	0.279257	0.258358
H241	H	1.087419	-0.165258	-0.792854
H242	H	1.587419	0.334742	-0.292854
N243	N	0.639096	-0.346029	-0.385936
N244	N	1.139096	0.153971	0.114064
N245	N	0.619889	-0.392501	-0.377644
N246	N	1.119889	0.107499	0.122356
H247	H	0.637931	-0.420032	-0.413222
H248	H	1.137931	0.079968	0.086778
N249	N	0.640392	-0.322199	-0.264430
N250	N	1.140392	0.177801	0.235570
N251	N	0.621793	-0.365106	-0.237378
N252	N	1.121793	0.134894	0.262622
H253	H	0.640745	-0.375805	-0.187140
H254	H	1.140745	0.124195	0.312860
H255	H	0.507068	-0.170421	-0.313200
H256	H	1.007068	0.329579	0.186800
N257	N	0.500855	-0.188499	-0.459639
N258	N	1.000855	0.311501	0.040361
N259	N	0.457931	-0.162929	-0.419479
N260	N	0.957931	0.337071	0.080521
H261	H	0.438817	-0.127967	-0.436648
H262	H	0.938817	0.372033	0.063352
H263	H	0.633919	-0.196245	-0.450971
H264	H	1.133919	0.303755	0.049029
N265	N	0.502807	-0.321709	-0.263262
N266	N	1.002807	0.178291	0.236738
N267	N	0.548541	-0.332192	-0.213722
N268	N	1.048541	0.167808	0.286278
H269	H	0.530818	-0.342707	-0.162939
H270	H	1.030818	0.157293	0.337061
N271	N	0.501911	-0.346062	-0.384916
N272	N	1.001911	0.153938	0.115084
N273	N	0.547023	-0.373530	-0.419817
N274	N	1.047023	0.126470	0.080183
H275	H	0.528666	-0.401246	-0.454951
H276	H	1.028666	0.098754	0.045049
N277	N	1.102867	-0.158901	-0.925326
N278	N	1.602867	0.341099	-0.425326
N279	N	1.154726	-0.172690	-0.966528
N280	N	1.654726	0.327310	-0.466528
H281	H	1.191820	-0.146114	-0.984498
H282	H	1.691820	0.353886	-0.484498
H283	H	0.634968	-0.264193	-0.479587
H284	H	1.134968	0.235807	0.020413
H285	H	0.507654	-0.267575	-0.477742
H286	H	1.007654	0.232425	0.022258
H287	H	0.936836	-0.801268	-0.490096
H288	H	1.436836	-0.301268	0.009904
N289	N	1.165802	-0.445322	-0.261211
N290	N	1.665802	0.054678	0.238789
N291	N	1.208121	-0.469694	-0.218977
N292	N	1.708121	0.030306	0.281023
H293	H	1.242300	-0.449996	-0.184830
H294	H	1.742300	0.050004	0.315170
H295	H	1.156252	-0.953323	-0.271102
H296	H	1.656252	-0.453323	0.228898
H297	H	1.203514	-0.702136	-0.223756
H298	H	1.703514	-0.202136	0.276244
