data_functionalizedCrystal
_audit_creation_method	'MofGen! by Chris Wilmer'
_symmetry_space_group_name_H-M	'P1'
_symmetry_Int_Tables_number	1
_symmetry_cell_setting	triclinic
loop_
_symmetry_equiv_pos_as_xyz
  x,y,z
_cell_length_a	18.101398
_cell_length_b	25.639239
_cell_length_c	18.101390
_cell_angle_alpha	89.965056
_cell_angle_beta	89.975319
_cell_angle_gamma	90.033952
loop_
_atom_site_label
_atom_site_type_symbol
_atom_site_fract_x
_atom_site_fract_y
_atom_site_fract_z
Zn1	Zn	1.132085	-0.208197	-0.418828
Zn2	Zn	1.131963	-0.295640	-0.294982
Zn3	Zn	1.008243	-0.208214	-0.294989
Zn4	Zn	1.008178	-0.295596	-0.418771
O5	O	1.070117	-0.251912	-0.356893
O6	O	1.235701	-0.219808	-0.402421
O7	O	1.115528	-0.284069	-0.191350
O8	O	1.024749	-0.135046	-0.311444
O9	O	1.235612	-0.284052	-0.311432
O10	O	1.115735	-0.135034	-0.402428
O11	O	1.024631	-0.219836	-0.191356
O12	O	0.904601	-0.219793	-0.311388
O13	O	1.024638	-0.283977	-0.522411
O14	O	0.904554	-0.283993	-0.402330
O15	O	1.115672	-0.219765	-0.522454
O16	O	1.115465	-0.368800	-0.311376
O17	O	1.024520	-0.368767	-0.402323
C18	C	0.877707	-0.251890	-0.356854
C19	C	0.795393	-0.251894	-0.356855
C20	C	0.496302	-0.251927	-0.356917
C21	C	0.527632	-0.211332	-0.299978
C22	C	0.613250	-0.211441	-0.299735
C23	C	0.644684	-0.251910	-0.356886
C24	C	0.613555	-0.306988	-0.335559
C25	C	0.527910	-0.306762	-0.335163
C26	C	0.527919	-0.237922	-0.435317
C27	C	0.613570	-0.236696	-0.434890
C28	C	0.728544	-0.251904	-0.356870
C29	C	0.412442	-0.251936	-0.356932
C30	C	1.069993	-0.387754	-0.356859
C31	C	1.070007	-0.445868	-0.356869
C32	C	1.117596	-0.806236	-0.309617
C33	C	1.117624	-0.860840	-0.309627
O34	O	1.157957	-0.889081	-0.269415
N35	N	1.070247	-0.888151	-0.356942
C36	C	1.022844	-0.860854	-0.404255
O37	O	0.982549	-0.889098	-0.444501
C38	C	1.022819	-0.806251	-0.404248
C39	C	1.070194	-0.778943	-0.356925
C40	C	1.164967	-0.778928	-0.262299
C41	C	1.164937	-0.724327	-0.262288
C42	C	1.117536	-0.697035	-0.309596
C43	C	1.070164	-0.724343	-0.356914
C44	C	0.975420	-0.778955	-0.451564
C45	C	0.975400	-0.724348	-0.451554
C46	C	1.022775	-0.697041	-0.404231
C47	C	1.022733	-0.642449	-0.404212
N48	N	1.070110	-0.615139	-0.356897
C49	C	1.117511	-0.642431	-0.309589
C50	C	1.022900	-0.975525	-0.404266
C51	C	1.022920	-1.030127	-0.404270
C52	C	1.117701	-1.030109	-0.309643
C53	C	1.117677	-0.975506	-0.309636
C54	C	1.070277	-0.948214	-0.356952
C55	C	1.117445	-0.527766	-0.309570
C56	C	1.117408	-0.473161	-0.309561
C57	C	1.022630	-0.473184	-0.404190
C58	C	1.022663	-0.527784	-0.404197
C59	C	1.070076	-0.555074	-0.356884
O60	O	0.982424	-0.614174	-0.444406
O61	O	1.157806	-0.614181	-0.269357
C62	C	1.263279	-0.251933	-0.356932
C63	C	1.345593	-0.251943	-0.356949
C64	C	1.070161	-0.251864	-0.550055
C65	C	1.070180	-0.251844	-0.632369
C66	C	1.070262	-0.115539	-0.356943
C67	C	1.070324	-0.057425	-0.356964
C68	C	1.070220	-0.251811	-0.931460
C69	C	1.127684	-0.211553	-0.900161
C70	C	1.127505	-0.211403	-0.814543
C71	C	1.070201	-0.251827	-0.783077
C72	C	0.992187	-0.236853	-0.814145
C73	C	0.992531	-0.236551	-0.899790
C74	C	1.090082	-0.307147	-0.899871
C75	C	1.091794	-0.306865	-0.814221
C76	C	1.070185	-0.251837	-0.699218
C77	C	1.070230	-0.251800	-1.015320
C78	C	1.070116	-0.251921	-0.164482
C79	C	1.070241	-0.251794	-0.082169
H80	H	0.507069	-0.170365	-0.313200
O81	O	0.640520	-0.348131	-0.388766
H82	H	0.676483	-0.329716	-0.431074
H83	H	0.975691	-0.196101	-0.919782
H84	H	1.185355	-0.220781	-0.793540
O85	O	1.168831	-1.059555	-0.258621
H86	H	1.201770	-1.031396	-0.225709
H87	H	0.948260	-0.264597	-0.920492
O88	O	1.034641	-0.346878	-0.926681
H89	H	1.006520	-0.364911	-0.878513
O90	O	1.168518	-0.443708	-0.258528
H91	H	1.135390	-0.418874	-0.220803
O92	O	0.641141	-0.157339	-0.317419
H93	H	0.593456	-0.130861	-0.326220
O94	O	0.499110	-0.223461	-0.223467
H95	H	0.462715	-0.258276	-0.225816
H96	H	0.975041	-0.196852	-0.792707
O97	O	1.110090	-0.157105	-0.787415
H98	H	1.156721	-0.142510	-0.753400
H99	H	0.633922	-0.196165	-0.450971
O100	O	0.924266	-0.694918	-0.502587
H101	H	0.957373	-0.670001	-0.540301
H102	H	0.633702	-0.220699	-0.241642
O103	O	0.641917	-0.322990	-0.260459
H104	H	0.673859	-0.359752	-0.265584
H105	H	1.156055	-0.549979	-0.271045
H106	H	1.149206	-0.318156	-0.793916
O107	O	0.501389	-0.322485	-0.259244
H108	H	0.549735	-0.330175	-0.223157
H109	H	0.948210	-0.265272	-0.793760
H110	H	0.507183	-0.338032	-0.374826
O111	O	0.499365	-0.185646	-0.461007
H112	H	0.462315	-0.169062	-0.418176
O113	O	1.216045	-0.694876	-0.211258
H114	H	1.249014	-0.723035	-0.178375
O115	O	0.971809	-1.059575	-0.455301
H116	H	0.979781	-1.102130	-0.447361
O117	O	1.164146	-0.325190	-0.928486
H118	H	1.187628	-0.294914	-0.965546
H119	H	0.507657	-0.267490	-0.477742
O120	O	1.204561	-0.223812	-0.927475
H121	H	1.220464	-0.263551	-0.909070
O122	O	1.040383	-0.348737	-0.785858
H123	H	0.998446	-0.330893	-0.748961
O124	O	1.110476	-0.157553	-0.928673
H125	H	1.113326	-0.157494	-0.989927
O126	O	0.641898	-0.273019	-0.494090
H127	H	0.703120	-0.270979	-0.496042
O128	O	1.216095	-0.808364	-0.211272
H129	H	1.203414	-0.797920	-0.153137
H130	H	0.984294	-0.953306	-0.442794
O131	O	1.168784	-0.946051	-0.258609
H132	H	1.156130	-0.956568	-0.200473
O133	O	0.924328	-0.808401	-0.502611
H134	H	0.891375	-0.780241	-0.535508
H135	H	0.984089	-0.550019	-0.442733
O136	O	0.971508	-0.443742	-0.455218
H137	H	0.979459	-0.401186	-0.447263
