data_functionalizedCrystal
_audit_creation_method	'MofGen! by Chris Wilmer'
_symmetry_space_group_name_H-M	'P1'
_symmetry_Int_Tables_number	1
_symmetry_cell_setting	triclinic
loop_
_symmetry_equiv_pos_as_xyz
  x,y,z
_cell_length_a	11.295657
_cell_length_b	16.992694
_cell_length_c	12.811442
_cell_angle_alpha	92.656844
_cell_angle_beta	90.842240
_cell_angle_gamma	94.327904
loop_
_atom_site_label
_atom_site_type_symbol
_atom_site_fract_x
_atom_site_fract_y
_atom_site_fract_z
O1	O	0.122015	-1.035293	0.214354
O2	O	0.121788	-0.807011	0.211927
O3	O	0.105569	-0.927672	0.061937
O4	O	0.138234	-0.914632	0.364345
O5	O	-0.091039	-0.937056	0.075249
O6	O	-0.074820	-0.816395	0.225239
O7	O	-0.074594	-1.044677	0.227666
Cu8	Cu	-0.092659	-0.931393	0.227668
Cu9	Cu	0.139853	-0.920295	0.211925
O10	O	-0.058375	-0.924016	0.377657
C11	C	0.023151	-0.782496	0.215464
C12	C	0.022160	-0.695468	0.206157
C13	C	0.003069	-0.931920	0.029719
C14	C	-0.009434	-0.930586	-0.086114
N15	N	-0.256196	-0.939204	0.238741
C16	C	-0.518234	-0.856179	0.121075
C17	C	-0.641990	-0.862100	0.129450
C18	C	-0.627466	-0.956961	0.263871
C19	C	-0.503710	-0.951041	0.255496
C20	C	-0.449098	-0.900649	0.184094
C21	C	-0.325340	-0.894733	0.175714
C22	C	-0.310818	-0.989590	0.310140
C23	C	-0.434575	-0.995511	0.318515
N24	N	0.303389	-0.912490	0.200845
C25	C	0.024046	-1.069192	0.224129
C26	C	0.025045	-1.156219	0.233436
C27	C	0.031858	-0.645062	0.295949
C28	C	0.030896	-0.563292	0.287200
C29	C	0.020245	-0.531930	0.188656
C30	C	0.010543	-0.582343	0.098857
C31	C	0.011496	-0.664112	0.107608
C32	C	0.016296	-0.288401	0.152387
C33	C	0.015347	-0.206626	0.143643
C34	C	0.035698	-0.187581	0.331987
C35	C	0.036658	-0.269351	0.340729
C36	C	0.026949	-0.319757	0.250930
N37	N	0.019266	-0.448348	0.179711
N38	N	0.027920	-0.403338	0.259877
C39	C	-0.134226	-0.933826	-0.242121
C40	C	-0.122481	-0.935076	-0.133286
C41	C	0.091874	-0.924845	-0.147785
C42	C	0.080129	-0.923595	-0.256620
C43	C	-0.032925	-0.928087	-0.303785
C44	C	-0.044669	-0.926843	-0.412623
C45	C	0.169685	-0.916606	-0.427119
C46	C	0.181430	-0.917856	-0.318283
C47	C	0.044128	-0.919768	0.409874
C48	C	0.056639	-0.921101	0.525706
H49	H	-0.473769	-0.815152	0.062932
H50	H	-0.479056	-1.036537	0.376651
H51	H	0.040532	-0.670590	0.376194
O52	O	0.278952	-0.910384	-0.493630
H53	H	0.359533	-0.907465	-0.442544
H54	H	0.008389	-0.329432	0.079266
O55	O	0.001040	-0.718485	0.010762
H56	H	-0.006516	-0.682941	-0.059234
H57	H	0.001853	-0.556803	0.018622
H58	H	0.273475	-0.914196	-0.279867
O59	O	-0.166598	-0.931683	-0.463500
H60	H	-0.235065	-0.935874	-0.402332
H61	H	0.038795	-0.522254	0.360319
H62	H	-0.254515	-1.025802	0.361454
H63	H	0.045345	-0.294879	0.420973
O64	O	0.046145	-0.133218	0.428841
H65	H	0.043679	-0.071090	0.406207
O66	O	-0.256153	-0.938673	-0.293004
H67	H	-0.324624	-0.942871	-0.231839
O68	O	-0.266428	-0.840380	0.098713
H69	H	-0.335298	-0.810445	0.056309
O70	O	0.003847	-0.172795	0.037353
H71	H	-0.002756	-0.221583	-0.023620
O72	O	-0.686397	-1.011305	0.340873
H73	H	-0.653820	-0.992955	0.421142
O74	O	-0.231743	-0.941278	-0.066779
H75	H	-0.284870	-0.890079	-0.079359
O76	O	-0.716566	-0.814158	0.061455
H77	H	-0.657796	-0.778135	0.010388
O78	O	0.213804	-0.919989	-0.096907
H79	H	0.204946	-0.921821	-0.010867
