data_functionalizedCrystal
_audit_creation_method	'MofGen! by Chris Wilmer'
_symmetry_space_group_name_H-M	'P1'
_symmetry_Int_Tables_number	1
_symmetry_cell_setting	triclinic
loop_
_symmetry_equiv_pos_as_xyz
  x,y,z
_cell_length_a	12.759401
_cell_length_b	16.625545
_cell_length_c	12.759393
_cell_angle_alpha	89.967170
_cell_angle_beta	89.980404
_cell_angle_gamma	90.025835
loop_
_atom_site_label
_atom_site_type_symbol
_atom_site_fract_x
_atom_site_fract_y
_atom_site_fract_z
Zn1	Zn	1.606187	-0.320957	-0.593965
Zn2	Zn	1.606045	-0.455811	-0.418278
Zn3	Zn	1.430486	-0.320997	-0.418305
Zn4	Zn	1.430444	-0.455752	-0.593920
O5	O	1.518291	-0.388379	-0.506117
O6	O	1.753189	-0.338853	-0.570668
O7	O	1.582714	-0.437969	-0.271261
O8	O	1.453870	-0.208159	-0.441637
O9	O	1.753085	-0.437930	-0.441592
O10	O	1.582957	-0.208130	-0.570694
O11	O	1.453732	-0.338922	-0.271280
O12	O	1.283459	-0.338864	-0.441592
O13	O	1.453799	-0.437829	-0.740947
O14	O	1.283429	-0.437868	-0.570616
O15	O	1.582917	-0.338796	-0.740980
O16	O	1.582674	-0.568635	-0.441547
O17	O	1.453661	-0.568592	-0.570590
C18	C	1.245323	-0.388365	-0.506103
C19	C	1.128547	-0.388378	-0.506121
C20	C	1.518176	-0.597870	-0.506084
C21	C	1.518224	-0.687491	-0.506105
C22	C	0.963965	-0.440020	-0.573205
C23	C	1.073689	-0.440011	-0.573194
C24	C	1.073674	-0.336756	-0.439047
C25	C	0.963952	-0.336770	-0.439054
C26	C	1.518264	-0.760273	-0.506126
C27	C	1.518326	-0.851582	-0.506149
C28	C	1.518380	-0.924358	-0.506162
C29	C	1.518440	-1.015672	-0.506184
C30	C	1.792324	-0.388394	-0.506132
C31	C	1.909100	-0.388400	-0.506139
C32	C	1.518369	-0.388302	-0.780151
C33	C	1.518403	-0.388269	-0.896927
C34	C	1.518434	-0.178070	-0.506173
C35	C	1.518495	-0.088449	-0.506197
C36	C	1.585639	-0.336694	-0.951808
C37	C	1.585657	-0.336659	-1.061533
C38	C	1.451199	-0.439781	-1.061485
C39	C	1.451177	-0.439811	-0.951763
C40	C	1.518273	-0.388398	-0.233150
C41	C	1.518443	-0.388204	-0.116374
H42	H	1.118355	-0.482045	-0.627806
O43	O	0.910613	-0.286746	-0.373771
C44	C	0.847098	-0.332613	-0.305833
H45	H	0.880141	-0.396108	-0.299225
H46	H	0.845846	-0.303395	-0.225035
H47	H	0.763947	-0.335426	-0.338299
H48	H	1.396417	-0.481809	-0.907077
O49	O	0.910844	-0.490249	-0.638400
C50	C	0.982803	-0.535791	-0.697612
H51	H	1.060996	-0.538537	-0.654564
H52	H	0.951080	-0.599333	-0.708682
H53	H	0.994521	-0.506333	-0.777469
O54	O	1.127078	-0.286713	-0.373840
C55	C	1.190484	-0.332551	-0.305859
H56	H	1.206909	-0.393688	-0.342772
H57	H	1.267649	-0.299687	-0.291854
H58	H	1.148167	-0.341343	-0.227981
O59	O	1.651040	-0.286736	-0.898492
C60	C	1.718839	-0.332657	-0.834998
H61	H	1.725300	-0.396153	-0.868045
H62	H	1.799709	-0.303494	-0.833770
H63	H	1.686334	-0.335456	-0.751837
H64	H	1.640406	-0.294660	-1.106212
O65	O	1.386003	-0.489824	-1.114916
C66	C	1.400421	-0.478727	-1.223529
H67	H	1.481523	-0.452322	-1.238534
H68	H	1.393260	-0.539111	-1.265211
H69	H	1.338141	-0.435775	-1.254670
