data_functionalizedCrystal
_audit_creation_method	'MofGen! by Chris Wilmer'
_symmetry_space_group_name_H-M	'P1'
_symmetry_Int_Tables_number	1
_symmetry_cell_setting	triclinic
loop_
_symmetry_equiv_pos_as_xyz
  x,y,z
_cell_length_a	16.625548
_cell_length_b	21.295417
_cell_length_c	21.295396
_cell_angle_alpha	89.893877
_cell_angle_beta	89.929970
_cell_angle_gamma	90.031575
loop_
_atom_site_label
_atom_site_type_symbol
_atom_site_fract_x
_atom_site_fract_y
_atom_site_fract_z
Zn1	Zn	1.233029	-0.250138	-0.355912
Zn2	Zn	1.566363	0.083195	-0.022579
Zn3	Zn	1.899696	0.416529	0.310755
Zn4	Zn	1.232797	-0.355545	-0.250637
Zn5	Zn	1.566130	-0.022212	0.082696
Zn6	Zn	1.899464	0.311121	0.416030
Zn7	Zn	1.098075	-0.250296	-0.250657
Zn8	Zn	1.431408	0.083038	0.082677
Zn9	Zn	1.764741	0.416371	0.416010
Zn10	Zn	1.098143	-0.355375	-0.355869
Zn11	Zn	1.431476	-0.022042	-0.022536
Zn12	Zn	1.764809	0.311291	0.310798
O13	O	1.165511	-0.302839	-0.303269
O14	O	1.498844	0.030495	0.030065
O15	O	1.832178	0.363828	0.363398
O16	O	1.345831	-0.264126	-0.341957
O17	O	1.679164	0.069208	-0.008623
O18	O	2.012498	0.402541	0.324710
O19	O	1.214800	-0.341721	-0.162550
O20	O	1.548134	-0.008387	0.170783
O21	O	1.881467	0.324946	0.504117
O22	O	1.116045	-0.162185	-0.264645
O23	O	1.449379	0.171148	0.068688
O24	O	1.782712	0.504481	0.402022
O25	O	1.345660	-0.341568	-0.264612
O26	O	1.678994	-0.008234	0.068722
O27	O	2.012327	0.325099	0.402055
O28	O	1.215196	-0.162070	-0.341976
O29	O	1.548529	0.171264	-0.008642
O30	O	1.881863	0.504597	0.324691
O31	O	1.115820	-0.264394	-0.162564
O32	O	1.449154	0.068939	0.170769
O33	O	1.782487	0.402272	0.504102
O34	O	0.985251	-0.264230	-0.264604
O35	O	1.318585	0.069104	0.068730
O36	O	1.651918	0.402437	0.402063
O37	O	1.116161	-0.341278	-0.443964
O38	O	1.449495	-0.007945	-0.110631
O39	O	1.782828	0.325388	0.222702
O40	O	0.985301	-0.341431	-0.341903
O41	O	1.318634	-0.008098	-0.008569
O42	O	1.651968	0.325235	0.324764
O43	O	1.215262	-0.263961	-0.443996
O44	O	1.548595	0.069372	-0.110663
O45	O	1.881929	0.402706	0.222671
O46	O	1.214866	-0.443612	-0.264570
O47	O	1.548199	-0.110279	0.068763
O48	O	1.881533	0.223055	0.402097
O49	O	1.115936	-0.443487	-0.341884
O50	O	1.449269	-0.110154	-0.008550
O51	O	1.782603	0.223179	0.324783
C52	C	0.956020	-0.302830	-0.303251
C53	C	1.289353	0.030504	0.030082
C54	C	1.622687	0.363837	0.363416
C55	C	0.866399	-0.302841	-0.303258
C56	C	1.199732	0.030492	0.030075
C57	C	1.533066	0.363826	0.363408
C58	C	1.165405	-0.466390	-0.303234
C59	C	1.498738	-0.133057	0.030100
C60	C	1.832072	0.200276	0.363433
C61	C	1.165434	-0.536358	-0.303240
C62	C	1.498767	-0.203025	0.030093
C63	C	1.832100	0.130308	0.363427
C64	C	0.538223	-0.302845	-0.303285
C65	C	0.871557	0.030488	0.030048
C66	C	1.204890	0.363822	0.363381
C67	C	0.629532	-0.302842	-0.303276
C68	C	0.962865	0.030491	0.030058
C69	C	1.296198	0.363825	0.363391
C70	C	0.702308	-0.302843	-0.303271
C71	C	1.035642	0.030490	0.030062
C72	C	1.368975	0.363823	0.363395
C73	C	0.793622	-0.302840	-0.303263
C74	C	1.126956	0.030494	0.030070
C75	C	1.460289	0.363827	0.363404
C76	C	1.216992	-0.569269	-0.263024
C77	C	1.550326	-0.235936	0.070309
C78	C	1.883659	0.097398	0.403643
C79	C	1.217030	-0.635011	-0.263038
C80	C	1.550364	-0.301678	0.070295
C81	C	1.883697	0.031655	0.403629
C82	C	1.165495	-0.667841	-0.303262
C83	C	1.498828	-0.334507	0.030072
C84	C	1.832162	-0.001174	0.363405
C85	C	1.113933	-0.634922	-0.343485
C86	C	1.447266	-0.301589	-0.010152
C87	C	1.780599	0.031744	0.323181
C88	C	1.113902	-0.569181	-0.343474
C89	C	1.447235	-0.235848	-0.010141
C90	C	1.780569	0.097486	0.323192
N91	N	1.094965	-0.771101	-0.308055
N92	N	1.428299	-0.437768	0.025279
N93	N	1.761632	-0.104435	0.358612
N94	N	1.094997	-0.833553	-0.308061
N95	N	1.428330	-0.500219	0.025272
N96	N	1.761663	-0.166886	0.358605
C97	C	1.165585	-0.865915	-0.303298
C98	C	1.498919	-0.532582	0.030036
C99	C	1.832252	-0.199249	0.363369
N100	N	1.236143	-0.833467	-0.298515
N101	N	1.569476	-0.500134	0.034818
N102	N	1.902810	-0.166801	0.368152
N103	N	1.236111	-0.771010	-0.298505
N104	N	1.569444	-0.437677	0.034828
N105	N	1.902777	-0.104344	0.368162
C106	C	1.165523	-0.739126	-0.303278
C107	C	1.498856	-0.405793	0.030055
C108	C	1.832189	-0.072459	0.363389
C109	C	1.217189	-0.970112	-0.263095
C110	C	1.550523	-0.636778	0.070238
C111	C	1.883856	-0.303445	0.403572
C112	C	1.217229	-1.035855	-0.263114
C113	C	1.550562	-0.702522	0.070220
C114	C	1.883895	-0.369189	0.403553
C115	C	1.114124	-1.035765	-0.343557
C116	C	1.447457	-0.702431	-0.010224
C117	C	1.780790	-0.369098	0.323109
C118	C	1.114092	-0.970022	-0.343542
C119	C	1.447425	-0.636689	-0.010209
C120	C	1.780758	-0.303356	0.323124
C121	C	1.165623	-0.937200	-0.303308
C122	C	1.498957	-0.603866	0.030026
C123	C	1.832290	-0.270533	0.363359
C124	C	1.375820	-0.302848	-0.303287
C125	C	1.709153	0.030485	0.030047
C126	C	2.042486	0.363819	0.363380
C127	C	1.465441	-0.302852	-0.303294
C128	C	1.798774	0.030481	0.030039
C129	C	2.132108	0.363815	0.363372
C130	C	1.165745	-0.302583	-0.467459
C131	C	1.499078	0.030750	-0.134126
C132	C	1.832412	0.364084	0.199207
C133	C	1.165845	-0.302474	-0.537428
C134	C	1.499178	0.030859	-0.204094
C135	C	1.832511	0.364192	0.129239
C136	C	1.165639	-0.138648	-0.303317
C137	C	1.498972	0.194685	0.030016
C138	C	1.832306	0.528018	0.363349
C139	C	1.165694	-0.068680	-0.303338
C140	C	1.499027	0.264653	0.029995
C141	C	1.832360	0.597987	0.363329
C142	C	1.165324	-0.303048	-0.139717
C143	C	1.498657	0.030286	0.193617
C144	C	1.831991	0.363619	0.526950
C145	C	1.165381	-0.302979	-0.069749
C146	C	1.498714	0.030354	0.263585
C147	C	1.832047	0.363688	0.596918
C148	C	1.113918	-0.262536	0.429671
C149	C	1.447252	0.070798	0.763005
C150	C	1.780585	0.404131	1.096338
C151	C	1.113855	-0.262600	0.363929
C152	C	1.447189	0.070733	0.697262
C153	C	1.780522	0.404067	1.030596
C154	C	1.165733	-0.302596	0.331090
C155	C	1.499066	0.030737	0.664423
C156	C	1.832400	0.364070	0.997757
C157	C	1.217663	-0.342543	0.363999
C158	C	1.550997	-0.009210	0.697332
C159	C	1.884330	0.324124	1.030666
C160	C	1.217719	-0.342482	0.429740
C161	C	1.551052	-0.009148	0.763073
C162	C	1.884386	0.324185	1.096407
N163	N	1.236264	-0.307124	0.227779
N164	N	1.569598	0.026209	0.561112
N165	N	1.902931	0.359542	0.894445
N166	N	1.236209	-0.307179	0.165327
N167	N	1.569542	0.026155	0.498661
N168	N	1.902876	0.359488	0.831994
C169	C	1.165567	-0.302784	0.133016
C170	C	1.498900	0.030550	0.466349
C171	C	1.832233	0.363883	0.799682
N172	N	1.094980	-0.298320	0.165515
N173	N	1.428314	0.035013	0.498848
N174	N	1.761647	0.368347	0.832181
N175	N	1.095037	-0.298262	0.227972
N176	N	1.428370	0.035071	0.561305
N177	N	1.761703	0.368404	0.894638
C178	C	1.165678	-0.302667	0.259805
C179	C	1.499011	0.030666	0.593138
C180	C	1.832345	0.363999	0.926471
C181	C	1.113568	-0.262913	0.028829
C182	C	1.446901	0.070421	0.362163
C183	C	1.780234	0.403754	0.695496
C184	C	1.113503	-0.262982	-0.036914
C185	C	1.446837	0.070352	0.296419
C186	C	1.780170	0.403685	0.629752
C187	C	1.217318	-0.342921	-0.036843
C188	C	1.550652	-0.009588	0.296490
C189	C	1.883985	0.323746	0.629824
C190	C	1.217375	-0.342856	0.028899
C191	C	1.550709	-0.009522	0.362233
C192	C	1.884042	0.323811	0.695566
C193	C	1.165501	-0.302848	0.061732
C194	C	1.498835	0.030485	0.395065
C195	C	1.832168	0.363819	0.728398
H196	H	1.258955	-0.542547	-0.230264
H197	H	1.592288	-0.209213	0.103069
H198	H	1.925621	0.124120	0.436402
H199	H	1.071572	-0.230074	0.337136
H200	H	1.404905	0.103259	0.670469
H201	H	1.738239	0.436593	1.003802
O202	O	1.058337	-0.670325	-0.386864
O203	O	1.391670	-0.336992	-0.053531
O204	O	1.725004	-0.003658	0.279803
H205	H	1.067011	-0.721569	-0.380109
H206	H	1.400344	-0.388236	-0.046775
H207	H	1.733678	-0.054902	0.286558
O208	O	1.057497	-0.219901	-0.072406
O209	O	1.390831	0.113433	0.260928
O210	O	1.724164	0.446766	0.594261
H211	H	1.021445	-0.192068	-0.038528
H212	H	1.354778	0.141266	0.294805
H213	H	1.688111	0.474599	0.628139
H214	H	1.259662	-0.375376	0.055688
H215	H	1.592995	-0.042043	0.389021
H216	H	1.926328	0.291290	0.722354
O217	O	1.058533	-1.071166	-0.386939
O218	O	1.391867	-0.737833	-0.053605
O219	O	1.725200	-0.404499	0.279728
H220	H	1.094646	-1.101031	-0.418994
H221	H	1.427979	-0.767698	-0.085661
H222	H	1.761313	-0.434365	0.247673
H223	H	1.259018	-0.661813	-0.230290
H224	H	1.592352	-0.328479	0.103044
H225	H	1.925685	0.004854	0.436377
H226	H	1.260007	-0.375004	0.456528
H227	H	1.593341	-0.041671	0.789861
H228	H	1.926674	0.291663	1.123194
O229	O	1.057615	-0.219766	0.064244
O230	O	1.390949	0.113568	0.397577
O231	O	1.724282	0.446901	0.730910
H232	H	1.066387	-0.226425	0.115486
H233	H	1.399720	0.106908	0.448819
H234	H	1.733054	0.440242	0.782152
H235	H	1.259560	-0.375486	-0.063580
H236	H	1.592893	-0.042152	0.269754
H237	H	1.926226	0.291181	0.603087
H238	H	1.071916	-0.542385	-0.376224
H239	H	1.405249	-0.209051	-0.042891
H240	H	1.738583	0.124282	0.290443
H241	H	1.259152	-0.943386	-0.230335
H242	H	1.592486	-0.610053	0.102998
H243	H	1.925819	-0.276720	0.436331
H244	H	1.259219	-1.062650	-0.230366
H245	H	1.592552	-0.729317	0.102967
H246	H	1.925886	-0.395983	0.436301
H247	H	1.072104	-0.943225	-0.376287
H248	H	1.405438	-0.609891	-0.042954
H249	H	1.738771	-0.276558	0.290380
H250	H	1.259902	-0.375108	0.337257
H251	H	1.593236	-0.041775	0.670591
H252	H	1.926569	0.291558	1.003924
H253	H	1.071675	-0.229961	0.456399
H254	H	1.405008	0.103373	0.789732
H255	H	1.738342	0.436706	1.123066
