data_functionalizedCrystal
_audit_creation_method	'MofGen! by Chris Wilmer'
_symmetry_space_group_name_H-M	'P1'
_symmetry_Int_Tables_number	1
_symmetry_cell_setting	triclinic
loop_
_symmetry_equiv_pos_as_xyz
  x,y,z
_cell_length_a	18.050591
_cell_length_b	21.295417
_cell_length_c	21.295411
_cell_angle_alpha	89.978356
_cell_angle_beta	89.969449
_cell_angle_gamma	90.026512
loop_
_atom_site_label
_atom_site_type_symbol
_atom_site_fract_x
_atom_site_fract_y
_atom_site_fract_z
Zn1	Zn	1.135351	-0.250748	-0.356012
Zn2	Zn	1.468685	0.082585	-0.022679
Zn3	Zn	1.802018	0.415919	0.310655
Zn4	Zn	1.135236	-0.356000	-0.250737
Zn5	Zn	1.468569	-0.022666	0.082596
Zn6	Zn	1.801903	0.310667	0.415929
Zn7	Zn	1.011150	-0.250741	-0.250746
Zn8	Zn	1.344483	0.082592	0.082587
Zn9	Zn	1.677816	0.415926	0.415921
Zn10	Zn	1.011114	-0.355976	-0.355958
Zn11	Zn	1.344447	-0.022643	-0.022625
Zn12	Zn	1.677780	0.310691	0.310709
O13	O	1.073213	-0.303366	-0.303363
O14	O	1.406546	0.029967	0.029970
O15	O	1.739879	0.363300	0.363303
O16	O	1.239261	-0.264723	-0.342066
O17	O	1.572594	0.068611	-0.008733
O18	O	1.905927	0.401944	0.324601
O19	O	1.118743	-0.342044	-0.162649
O20	O	1.452076	-0.008711	0.170684
O21	O	1.785409	0.324623	0.504018
O22	O	1.027689	-0.162653	-0.264736
O23	O	1.361022	0.170681	0.068597
O24	O	1.694355	0.504014	0.401931
O25	O	1.239176	-0.342051	-0.264721
O26	O	1.572509	-0.008717	0.068612
O27	O	1.905843	0.324616	0.401945
O28	O	1.118939	-0.162658	-0.342074
O29	O	1.452272	0.170676	-0.008741
O30	O	1.785606	0.504009	0.324592
O31	O	1.027577	-0.264711	-0.162655
O32	O	1.360910	0.068622	0.170678
O33	O	1.694244	0.401956	0.504011
O34	O	0.907220	-0.264688	-0.264684
O35	O	1.240554	0.068645	0.068650
O36	O	1.573887	0.401979	0.401983
O37	O	1.027627	-0.342010	-0.444055
O38	O	1.360960	-0.008677	-0.110721
O39	O	1.694294	0.324657	0.222612
O40	O	0.907194	-0.342003	-0.341983
O41	O	1.240527	-0.008670	-0.008649
O42	O	1.573860	0.324663	0.324684
O43	O	1.118904	-0.264700	-0.444094
O44	O	1.452237	0.068634	-0.110761
O45	O	1.785571	0.401967	0.222572
O46	O	1.118708	-0.444086	-0.264669
O47	O	1.452041	-0.110753	0.068664
O48	O	1.785374	0.222581	0.401998
O49	O	1.027515	-0.444068	-0.341974
O50	O	1.360849	-0.110735	-0.008641
O51	O	1.694182	0.222598	0.324692
C52	C	0.880261	-0.303343	-0.303329
C53	C	1.213594	0.029991	0.030005
C54	C	1.546927	0.363324	0.363338
C55	C	0.797715	-0.303348	-0.303329
C56	C	1.131048	0.029985	0.030005
C57	C	1.464381	0.363319	0.363338
C58	C	0.598257	-0.261255	-0.261390
C59	C	0.931590	0.072078	0.071943
C60	C	1.264924	0.405412	0.405276
C61	C	0.548832	-0.318668	-0.245895
C62	C	0.882165	0.014665	0.087439
C63	C	1.215498	0.347998	0.420772
C64	C	0.646584	-0.303367	-0.303357
C65	C	0.979918	0.029966	0.029976
C66	C	1.313251	0.363300	0.363310
C67	C	0.548928	-0.245973	-0.318851
C68	C	0.882261	0.087360	0.014482
C69	C	1.215595	0.420693	0.347816
C70	C	0.500599	-0.303380	-0.303383
C71	C	0.833933	0.029953	0.029950
C72	C	1.167266	0.363286	0.363283
C73	C	0.598246	-0.360811	-0.287832
C74	C	0.931579	-0.027477	0.045502
C75	C	1.264913	0.305856	0.378835
C76	C	0.598347	-0.288077	-0.360814
C77	C	0.931680	0.045256	-0.027481
C78	C	1.265014	0.378590	0.305852
C79	C	0.548944	-0.345530	-0.345341
C80	C	0.882277	-0.012197	-0.012007
C81	C	1.215611	0.321137	0.321326
C82	C	0.730683	-0.303358	-0.303340
C83	C	1.064016	0.029975	0.029993
C84	C	1.397349	0.363308	0.363326
C85	C	0.416503	-0.303395	-0.303400
C86	C	0.749836	0.029938	0.029933
C87	C	1.083169	0.363271	0.363266
C88	C	1.073115	-0.466918	-0.303329
C89	C	1.406449	-0.133585	0.030005
C90	C	1.739782	0.199749	0.363338
C91	C	1.073142	-0.536886	-0.303335
C92	C	1.406475	-0.203553	0.029999
C93	C	1.739808	0.129781	0.363332
C94	C	1.120668	-0.569741	-0.263123
C95	C	1.454001	-0.236407	0.070210
C96	C	1.787334	0.096926	0.403544
C97	C	1.120702	-0.635483	-0.263137
C98	C	1.454036	-0.302150	0.070196
C99	C	1.787369	0.031183	0.403529
C100	C	1.073198	-0.668368	-0.303356
C101	C	1.406531	-0.335035	0.029977
C102	C	1.739865	-0.001702	0.363310
C103	C	1.025669	-0.635506	-0.343576
C104	C	1.359002	-0.302172	-0.010242
C105	C	1.692335	0.031161	0.323091
C106	C	1.025640	-0.569764	-0.343565
C107	C	1.358974	-0.236431	-0.010232
C108	C	1.692307	0.096902	0.323102
N109	N	1.008232	-0.771631	-0.308144
N110	N	1.341565	-0.438298	0.025190
N111	N	1.674899	-0.104965	0.358523
N112	N	1.008261	-0.834083	-0.308150
N113	N	1.341594	-0.500749	0.025183
N114	N	1.674927	-0.167416	0.358516
C115	C	1.073281	-0.866443	-0.303392
C116	C	1.406614	-0.533110	0.029941
C117	C	1.739948	-0.199776	0.363274
N118	N	1.138273	-0.833993	-0.298616
N119	N	1.471606	-0.500660	0.034718
N120	N	1.804940	-0.167326	0.368051
N121	N	1.138243	-0.771536	-0.298606
N122	N	1.471577	-0.438202	0.034728
N123	N	1.804910	-0.104869	0.368061
C124	C	1.073224	-0.739654	-0.303373
C125	C	1.406557	-0.406320	0.029960
C126	C	1.739890	-0.072987	0.363294
C127	C	1.120849	-0.970584	-0.263194
C128	C	1.454182	-0.637250	0.070139
C129	C	1.787516	-0.303917	0.403473
C130	C	1.120885	-1.036327	-0.263213
C131	C	1.454218	-0.702994	0.070121
C132	C	1.787552	-0.369661	0.403454
C133	C	1.025844	-1.036348	-0.343648
C134	C	1.359178	-0.703015	-0.010315
C135	C	1.692511	-0.369682	0.323019
C136	C	1.025815	-0.970606	-0.343633
C137	C	1.359148	-0.637272	-0.010299
C138	C	1.692482	-0.303939	0.323034
C139	C	1.073316	-0.937727	-0.303402
C140	C	1.406650	-0.604394	0.029931
C141	C	1.739983	-0.271061	0.363264
C142	C	1.266918	-0.303390	-0.303399
C143	C	1.600252	0.029943	0.029935
C144	C	1.933585	0.363276	0.363268
C145	C	1.349464	-0.303400	-0.303414
C146	C	1.682797	0.029933	0.029920
C147	C	2.016131	0.363266	0.363253
C148	C	1.073274	-0.303353	-0.467554
C149	C	1.406608	0.029980	-0.134220
C150	C	1.739941	0.363314	0.199113
C151	C	1.073301	-0.303347	-0.537522
C152	C	1.406634	0.029986	-0.204189
C153	C	1.739967	0.363319	0.129145
C154	C	1.073331	-0.139176	-0.303412
C155	C	1.406664	0.194157	0.029921
C156	C	1.739997	0.527491	0.363254
C157	C	1.073381	-0.069208	-0.303433
C158	C	1.406714	0.264126	0.029900
C159	C	1.740048	0.597459	0.363234
C160	C	1.120826	-0.263090	-0.570410
C161	C	1.454160	0.070243	-0.237077
C162	C	1.787493	0.403577	0.096257
C163	C	1.120825	-0.263063	-0.636153
C164	C	1.454159	0.070271	-0.302819
C165	C	1.787492	0.403604	0.030514
C166	C	1.073306	-0.303304	-0.669004
C167	C	1.406640	0.030029	-0.335671
C168	C	1.739973	0.363363	-0.002338
C169	C	1.025771	-0.343564	-0.636108
C170	C	1.359105	-0.010231	-0.302775
C171	C	1.692438	0.323103	0.030558
C172	C	1.025768	-0.343586	-0.570367
C173	C	1.359102	-0.010252	-0.237034
C174	C	1.692435	0.323081	0.096300
N175	N	1.067577	-0.358371	-0.772219
N176	N	1.400910	-0.025038	-0.438886
N177	N	1.734243	0.308295	-0.105553
N178	N	1.067584	-0.358349	-0.834671
N179	N	1.400917	-0.025016	-0.501337
N180	N	1.734250	0.308318	-0.168004
C181	C	1.073311	-0.303240	-0.867079
C182	C	1.406644	0.030093	-0.533746
C183	C	1.739978	0.363427	-0.200413
N184	N	1.079046	-0.248153	-0.834677
N185	N	1.412379	0.085180	-0.501344
N186	N	1.745712	0.418513	-0.168010
N187	N	1.079042	-0.248176	-0.772220
N188	N	1.412376	0.085157	-0.438886
N189	N	1.745709	0.418490	-0.105553
C190	C	1.073304	-0.303285	-0.740290
C191	C	1.406637	0.030049	-0.406957
C192	C	1.739970	0.363382	-0.073623
C193	C	1.120838	-0.262950	-0.971253
C194	C	1.454172	0.070384	-0.637920
C195	C	1.787505	0.403717	-0.304586
C196	C	1.120832	-0.262921	-1.036997
C197	C	1.454165	0.070412	-0.703664
C198	C	1.787499	0.403745	-0.370330
C199	C	1.025782	-0.343429	-1.036951
C200	C	1.359115	-0.010095	-0.703618
C201	C	1.692448	0.323238	-0.370284
C202	C	1.025784	-0.343451	-0.971209
C203	C	1.359117	-0.010118	-0.637875
C204	C	1.692451	0.323215	-0.304542
C205	C	1.073316	-0.303213	-0.938364
C206	C	1.406650	0.030121	-0.605030
C207	C	1.739983	0.363454	-0.271697
C208	C	1.073194	-0.303334	-0.139812
C209	C	1.406527	0.029999	0.193522
C210	C	1.739861	0.363333	0.526855
C211	C	1.073312	-0.303162	-0.069844
C212	C	1.406645	0.030171	0.263489
C213	C	1.739978	0.363504	0.596823
H214	H	0.619820	-0.409368	-0.274684
H215	H	0.953153	-0.076034	0.058649
H216	H	1.286486	0.257299	0.391983
H217	H	0.987169	-1.063123	-0.376398
H218	H	1.320502	-0.729789	-0.043065
H219	H	1.653835	-0.396456	0.290269
H220	H	0.619909	-0.225681	-0.225862
H221	H	0.953243	0.107653	0.107471
H222	H	1.286576	0.440986	0.440805
Cl223	Cl	0.966030	-0.394151	-0.677407
Cl224	Cl	1.299363	-0.060818	-0.344073
Cl225	Cl	1.632697	0.272516	-0.010740
Cl226	Cl	0.515721	-0.400583	-0.400152
Cl227	Cl	0.849054	-0.067249	-0.066819
Cl228	Cl	1.182387	0.266084	0.266514
Cl229	Cl	1.180563	-0.929248	-0.212620
Cl230	Cl	1.513896	-0.595914	0.120714
Cl231	Cl	1.847230	-0.262581	0.454047
Cl232	Cl	0.631952	-0.268069	-0.435797
Cl233	Cl	0.965285	0.065264	-0.102464
Cl234	Cl	1.298618	0.398597	0.230870
Cl235	Cl	0.515475	-0.171029	-0.339066
Cl236	Cl	0.848808	0.162304	-0.005732
Cl237	Cl	1.182141	0.495637	0.327601
H238	H	1.159348	-0.542973	-0.230367
H239	H	1.492681	-0.209640	0.102966
H240	H	1.826014	0.123694	0.436300
Cl241	Cl	1.180453	-0.676795	-0.212580
Cl242	Cl	1.513786	-0.343462	0.120753
Cl243	Cl	1.847119	-0.010129	0.454086
Cl244	Cl	0.966017	-0.394200	-0.529019
Cl245	Cl	1.299350	-0.060867	-0.195686
Cl246	Cl	1.632684	0.272467	0.137647
H247	H	0.986991	-0.662285	-0.376324
H248	H	1.320325	-0.328952	-0.042990
H249	H	1.653658	0.004382	0.290343
H250	H	1.159538	-0.230182	-0.944509
H251	H	1.492871	0.103152	-0.611176
H252	H	1.826204	0.436485	-0.277843
H253	H	0.987112	-0.943854	-0.376374
H254	H	1.320445	-0.610520	-0.043041
H255	H	1.653778	-0.277187	0.290293
Cl256	Cl	1.180577	-0.212501	-0.529123
Cl257	Cl	1.513910	0.120833	-0.195789
Cl258	Cl	1.847243	0.454166	0.137544
Cl259	Cl	1.180643	-1.077631	-0.212661
Cl260	Cl	1.513977	-0.744298	0.120673
Cl261	Cl	1.847310	-0.410965	0.454006
H262	H	0.986938	-0.543013	-0.376311
H263	H	1.320272	-0.209680	-0.042977
H264	H	1.653605	0.123653	0.290356
Cl265	Cl	1.180562	-0.212437	-0.677507
Cl266	Cl	1.513895	0.120897	-0.344173
Cl267	Cl	1.847229	0.454230	-0.010840
H268	H	1.159532	-0.230135	-1.063773
H269	H	1.492866	0.103198	-0.730440
H270	H	1.826199	0.436531	-0.397107
H271	H	0.987083	-0.376187	-1.063698
H272	H	1.320417	-0.042854	-0.730365
H273	H	1.653750	0.290479	-0.397032
Cl274	Cl	0.966037	-0.394066	-0.929861
Cl275	Cl	1.299370	-0.060733	-0.596528
Cl276	Cl	1.632703	0.272600	-0.263194
H277	H	0.527084	-0.331611	-0.197315
H278	H	0.860417	0.001722	0.136018
H279	H	1.193750	0.335056	0.469351
