data_functionalizedCrystal
_audit_creation_method	'MofGen! by Chris Wilmer'
_symmetry_space_group_name_H-M	'P1'
_symmetry_Int_Tables_number	1
_symmetry_cell_setting	triclinic
loop_
_symmetry_equiv_pos_as_xyz
  x,y,z
_cell_length_a	19.188933
_cell_length_b	27.732025
_cell_length_c	18.266242
_cell_angle_alpha	90.008162
_cell_angle_beta	89.992377
_cell_angle_gamma	82.889519
loop_
_atom_site_label
_atom_site_type_symbol
_atom_site_fract_x
_atom_site_fract_y
_atom_site_fract_z
O1	O	0.925756	0.060353	-0.060833
O2	O	1.425756	0.560353	0.439167
O3	O	0.722393	0.068476	-0.060837
O4	O	1.222393	0.568476	0.439163
O5	O	0.830399	-0.005964	-0.060857
O6	O	1.330399	0.494036	0.439143
O7	O	0.817750	0.134793	-0.060813
O8	O	1.317750	0.634793	0.439187
O9	O	0.830381	-0.005967	0.060905
O10	O	1.330381	0.494033	0.560905
O11	O	0.722374	0.068472	0.060925
O12	O	1.222374	0.568472	0.560925
O13	O	0.925738	0.060349	0.060929
O14	O	1.425738	0.560349	0.560929
Zn15	Zn	0.824053	0.064410	0.080259
Zn16	Zn	1.324053	0.564410	0.580259
Zn17	Zn	0.824077	0.064415	-0.080167
Zn18	Zn	1.324077	0.564415	0.419833
O19	O	0.817732	0.134789	0.060949
O20	O	1.317732	0.634789	0.560949
C21	C	0.696374	0.068211	0.000043
C22	C	1.196374	0.568211	0.500043
C23	C	0.618875	0.067421	0.000040
C24	C	1.118875	0.567421	0.500040
C25	C	0.065666	0.061784	-0.066326
C26	C	0.565666	0.561784	0.433674
C27	C	0.138485	0.062523	-0.066329
C28	C	0.638485	0.562523	0.433671
C29	C	0.174890	0.062893	0.000044
C30	C	0.674890	0.562893	0.500044
C31	C	0.138472	0.062511	0.066424
C32	C	0.638472	0.562511	0.566424
C33	C	0.065655	0.061767	0.066424
C34	C	0.565655	0.561767	0.566424
N35	N	0.283716	0.091566	0.049457
N36	N	0.783716	0.591566	0.549457
N37	N	0.352889	0.092275	0.049451
N38	N	0.852889	0.592275	0.549451
C39	C	0.394284	0.065135	0.000046
C40	C	0.894284	0.565135	0.500046
N41	N	0.363892	0.037266	-0.049366
N42	N	0.863892	0.537266	0.450634
N43	N	0.294712	0.036560	-0.049363
N44	N	0.794712	0.536560	0.450637
C45	C	0.253848	0.063700	0.000050
C46	C	0.753848	0.563700	0.500050
C47	C	0.509654	0.066315	-0.066333
C48	C	1.009654	0.566315	0.433667
C49	C	0.582475	0.067052	-0.066333
C50	C	1.082475	0.567052	0.433667
C51	C	0.582459	0.067044	0.066421
C52	C	1.082459	0.567044	0.566421
C53	C	0.509640	0.066303	0.066419
C54	C	1.009640	0.566303	0.566419
C55	C	0.473241	0.065941	0.000040
C56	C	0.973241	0.565941	0.500040
C57	C	0.830127	-0.023974	0.000016
C58	C	1.330127	0.476026	0.500016
C59	C	0.829334	-0.077631	-0.000005
C60	C	1.329334	0.422369	0.499995
C61	C	0.823716	-0.460812	-0.066335
C62	C	1.323716	0.039188	0.433665
C63	C	0.826680	-0.259144	-0.066359
C64	C	1.326680	0.240856	0.433641
O65	O	0.827100	-0.233073	-0.122808
O66	O	1.327100	0.266927	0.377192
N67	N	0.827041	-0.233923	0.000012
N68	N	1.327041	0.266077	0.500012
C69	C	0.826665	-0.259124	0.066393
C70	C	1.326665	0.240876	0.566393
O71	O	0.827047	-0.233046	0.122844
O72	O	1.327047	0.266954	0.622844
C73	C	0.823706	-0.460792	0.066416
C74	C	1.323706	0.039208	0.566416
C75	C	0.823338	-0.486009	0.000041
C76	C	1.323338	0.013991	0.500041
C77	C	0.823349	-0.486029	-0.132705
C78	C	1.323349	0.013971	0.367295
C79	C	0.822604	-0.536443	-0.132698
C80	C	1.322604	-0.036443	0.367302
C81	C	0.822226	-0.561640	-0.066322
C82	C	1.322226	-0.061640	0.433678
C83	C	0.822593	-0.536422	0.000047
C84	C	1.322593	-0.036422	0.500047
C85	C	0.823335	-0.485992	0.132796
C86	C	1.323335	0.014008	0.632796
C87	C	0.822597	-0.536412	0.132796
C88	C	1.322597	-0.036412	0.632796
C89	C	0.822229	-0.561629	0.066421
C90	C	1.322229	-0.061629	0.566421
C91	C	0.821470	-0.612033	0.066430
C92	C	1.321470	-0.112033	0.566430
N93	N	0.821109	-0.637253	0.000059
N94	N	1.321109	-0.137253	0.500059
C95	C	0.821487	-0.612056	-0.066317
C96	C	1.321487	-0.112056	0.433683
C97	C	0.828218	-0.153245	0.066376
C98	C	1.328218	0.346755	0.566376
C99	C	0.828956	-0.102828	0.066371
C100	C	1.328956	0.397172	0.566371
C101	C	0.828973	-0.102852	-0.066381
C102	C	1.328973	0.397148	0.433619
C103	C	0.828229	-0.153269	-0.066375
C104	C	1.328229	0.346731	0.433625
C105	C	0.827857	-0.178465	0.000006
C106	C	1.327857	0.321535	0.500006
C107	C	0.819922	-0.717929	-0.066298
C108	C	1.319922	-0.217929	0.433702
C109	C	0.819174	-0.768347	-0.066285
C110	C	1.319174	-0.268347	0.433715
C111	C	0.819162	-0.768319	0.066466
C112	C	1.319162	-0.268319	0.566466
C113	C	0.819906	-0.717905	0.066454
C114	C	1.319906	-0.217905	0.566454
C115	C	0.820288	-0.692712	0.000066
C116	C	1.320288	-0.192712	0.500066
O117	O	0.821058	-0.638135	0.122849
O118	O	1.321058	-0.138135	0.622849
O119	O	0.821121	-0.638145	-0.122760
O120	O	1.321121	-0.138145	0.377240
C121	C	0.824461	-0.410398	-0.066342
C122	C	1.324461	0.089602	0.433658
C123	C	0.824828	-0.385181	0.000028
C124	C	1.324828	0.114819	0.500028
C125	C	0.824450	-0.410378	0.066404
C126	C	1.324450	0.089622	0.566404
C127	C	0.825566	-0.334764	0.000022
C128	C	1.325566	0.165236	0.500022
C129	C	0.825944	-0.309568	-0.066354
C130	C	1.325944	0.190432	0.433646
C131	C	0.825584	-0.334788	-0.132724
C132	C	1.325584	0.165212	0.367276
C133	C	0.824839	-0.385202	-0.132718
C134	C	1.324839	0.114798	0.367282
C135	C	0.824811	-0.385158	0.132774
C136	C	1.324811	0.114842	0.632774
C137	C	0.825555	-0.334744	0.132762
C138	C	1.325555	0.165256	0.632762
C139	C	0.825933	-0.309547	0.066386
C140	C	1.325933	0.190453	0.566386
C141	C	0.951757	0.060614	0.000047
C142	C	1.451757	0.560614	0.500047
C143	C	1.029256	0.061404	0.000045
C144	C	1.529256	0.561404	0.500045
C145	C	0.818004	0.152799	0.000074
C146	C	1.318004	0.652799	0.500074
C147	C	0.818796	0.206457	0.000091
C148	C	1.318796	0.706457	0.500091
N149	N	0.824042	0.064406	0.189746
N150	N	1.324042	0.564406	0.689746
N151	N	0.824094	0.064415	-0.189654
N152	N	1.324094	0.564415	0.310346
C153	C	0.871883	0.031461	0.228046
C154	C	1.371883	0.531461	0.728046
C155	C	0.871887	0.031458	0.304691
C156	C	1.371887	0.531458	0.804691
C157	C	0.824058	0.064410	0.343033
C158	C	1.324058	0.564410	0.843033
C159	C	0.776208	0.097358	0.304724
C160	C	1.276208	0.597358	0.804724
C161	C	0.776200	0.097357	0.228080
C162	C	1.276200	0.597357	0.728080
N163	N	0.814704	0.107201	0.463379
N164	N	1.314704	0.607201	0.963379
N165	N	0.814716	0.107201	0.536187
N166	N	1.314716	0.607201	1.036187
C167	C	0.824077	0.064417	0.573955
C168	C	1.324077	0.564417	1.073955
N169	N	0.833440	0.021632	0.536165
N170	N	1.333440	0.521632	1.036165
N171	N	0.833432	0.021632	0.463351
N172	N	1.333432	0.521632	0.963351
C173	C	0.824061	0.064416	0.426140
C174	C	1.324061	0.564416	0.926140
C175	C	0.871925	0.031466	0.695362
C176	C	1.371925	0.531466	1.195362
C177	C	0.871925	0.031463	0.772009
C178	C	1.371925	0.531463	1.272009
C179	C	0.776249	0.097368	0.772040
C180	C	1.276249	0.597368	1.272040
C181	C	0.776246	0.097366	0.695395
C182	C	1.276246	0.597366	1.195395
C183	C	0.824088	0.064416	0.657061
C184	C	1.324088	0.564416	1.157061
H185	H	0.168136	0.062835	-0.120378
H186	H	0.668136	0.562835	0.379622
F187	F	0.725331	0.132434	0.654631
F188	F	1.225331	0.632434	1.154631
F189	F	0.922842	-0.003606	0.812772
F190	F	1.422842	0.496394	1.312772
F191	F	0.822219	-0.563275	-0.203344
F192	F	1.322219	-0.063275	0.296656
H193	H	0.612099	0.067344	0.120463
H194	H	1.112099	0.567344	0.620463
F195	F	0.825938	-0.307911	0.203413
F196	F	1.325938	0.192089	0.703413
F197	F	0.827839	-0.180102	-0.137019
F198	F	1.327839	0.319898	0.362981
F199	F	0.026932	0.061395	-0.136973
F200	F	0.526932	0.561395	0.363027
F201	F	0.725341	0.132434	0.812843
F202	F	1.225341	0.632434	1.312843
F203	F	0.922797	-0.003609	0.187249
F204	F	1.422797	0.496391	0.687249
H205	H	0.168117	0.062811	0.120464
H206	H	0.668117	0.562811	0.620464
H207	H	0.479994	0.065996	0.120466
H208	H	0.979994	0.565996	0.620466
F209	F	0.026903	0.061364	0.137069
F210	F	0.526903	0.561364	0.637069
F211	F	0.470913	0.065927	-0.136978
F212	F	0.970913	0.565927	0.363022
F213	F	0.824408	-0.411967	0.203425
F214	F	1.324408	0.088033	0.703425
H215	H	0.737242	0.124185	0.196896
H216	H	1.237242	0.624185	0.696896
F217	F	0.725302	0.132427	0.345531
F218	F	1.225302	0.632427	0.845531
H219	H	0.910879	0.004635	0.664149
H220	H	1.410879	0.504635	1.164149
F221	F	0.818781	-0.795182	-0.136934
F222	F	1.318781	-0.295182	0.363066
F223	F	0.621226	0.067451	-0.136978
F224	F	1.121226	0.567451	0.363022
F225	F	0.820329	-0.691123	-0.136955
F226	F	1.320329	-0.191123	0.363045
H227	H	0.823659	-0.465520	-0.186759
H228	H	1.323659	0.034480	0.313241
H229	H	0.824539	-0.405729	-0.186767
H230	H	1.324539	0.094271	0.313233
H231	H	0.829276	-0.082327	-0.120427
H232	H	1.329276	0.417673	0.379573
H233	H	0.829243	-0.082299	0.120420
H234	H	1.329243	0.417701	0.620420
H235	H	0.827915	-0.173755	0.120434
H236	H	1.327915	0.326245	0.620434
H237	H	0.823642	-0.465469	0.186846
H238	H	1.323642	0.034531	0.686846
H239	H	0.825886	-0.314264	-0.186770
H240	H	1.325886	0.185736	0.313230
F241	F	0.820294	-0.691066	0.137097
F242	F	1.320294	-0.191066	0.637097
F243	F	0.822203	-0.563225	0.203449
F244	F	1.322203	-0.063225	0.703449
F245	F	0.818754	-0.795144	0.137104
F246	F	1.318754	-0.295144	0.637104
F247	F	0.922808	-0.003609	0.345459
F248	F	1.422808	0.496391	0.845459
