data_functionalizedCrystal
_audit_creation_method	'MofGen! by Chris Wilmer'
_symmetry_space_group_name_H-M	'P1'
_symmetry_Int_Tables_number	1
_symmetry_cell_setting	triclinic
loop_
_symmetry_equiv_pos_as_xyz
  x,y,z
_cell_length_a	27.732011
_cell_length_b	11.792241
_cell_length_c	10.868271
_cell_angle_alpha	90.005281
_cell_angle_beta	90.015182
_cell_angle_gamma	96.589412
loop_
_atom_site_label
_atom_site_type_symbol
_atom_site_fract_x
_atom_site_fract_y
_atom_site_fract_z
O1	O	0.641721	-0.134843	-0.101764
O2	O	0.501044	-0.155420	-0.101889
O3	O	0.574797	0.020149	-0.101815
O4	O	0.567969	-0.310412	-0.101838
O5	O	0.574790	0.020156	0.102830
O6	O	0.501038	-0.155413	0.102755
O7	O	0.641715	-0.134837	0.102880
Zn8	Zn	0.571376	-0.145124	0.135310
Zn9	Zn	0.571384	-0.145133	-0.134318
O10	O	0.567963	-0.310406	0.102806
C11	C	0.574365	0.062430	0.000506
C12	C	0.573081	0.188402	0.000504
C13	C	0.659728	-0.135266	0.000571
C14	C	0.713391	-0.136547	0.000611
C15	C	0.483032	-0.154991	0.000417
C16	C	0.429368	-0.153710	0.000370
C17	C	1.096613	-0.145710	0.112048
C18	C	0.894926	-0.140882	0.112110
O19	O	0.868859	-0.140209	0.206987
N20	N	0.869697	-0.140282	0.000565
C21	C	0.894893	-0.140881	-0.111005
O22	O	0.868807	-0.140248	-0.205880
C23	C	1.096579	-0.145701	-0.111065
C24	C	1.121805	-0.146313	0.000488
C25	C	1.121839	-0.146321	0.223592
C26	C	1.172257	-0.147534	0.223576
C27	C	1.197450	-0.148137	0.112015
C28	C	1.172224	-0.147526	0.000471
C29	C	1.121775	-0.146293	-0.222633
C30	C	1.172200	-0.147495	-0.222638
C31	C	1.197426	-0.148107	-0.111085
C32	C	1.247834	-0.149342	-0.111106
N33	N	1.273064	-0.149943	0.000440
C34	C	1.247871	-0.149340	0.112000
C35	C	0.789005	-0.138353	-0.110965
C36	C	0.738583	-0.137150	-0.110950
C37	C	0.738620	-0.137148	0.112165
C38	C	0.789042	-0.138360	0.112149
C39	C	0.814234	-0.138953	0.000581
C40	C	1.353753	-0.151889	0.111957
C41	C	1.404176	-0.153107	0.111930
C42	C	1.404135	-0.153102	-0.111184
C43	C	1.353717	-0.151890	-0.111159
C44	C	1.328527	-0.151279	0.000422
O45	O	1.273934	-0.150003	-0.205933
O46	O	1.273967	-0.149948	0.206861
C47	C	1.046195	-0.144497	0.112065
C48	C	1.020969	-0.143887	0.000521
C49	C	1.046161	-0.144489	-0.111040
C50	C	0.970547	-0.142684	0.000536
C51	C	0.945355	-0.142081	0.112096
C52	C	0.970584	-0.142681	0.223642
C53	C	1.021002	-0.143894	0.223626
C54	C	1.020932	-0.143889	-0.222585
C55	C	0.970513	-0.142677	-0.222559
C56	C	0.945321	-0.142074	-0.110999
C57	C	0.568395	-0.352686	0.000482
C58	C	0.569678	-0.478658	0.000476
N59	N	0.571374	-0.145117	0.319324
C60	C	0.570720	0.419038	0.000481
C61	C	0.572032	0.290695	0.000494
N62	N	0.571389	-0.145130	-0.318333
C63	C	0.571381	-0.145130	0.570330
C64	C	0.571375	-0.145126	0.430652
H65	H	1.424712	-0.153609	0.202774
C66	C	1.358867	-0.152027	0.332496
C67	C	1.326070	-0.151229	0.234607
H68	H	1.341775	-0.151632	0.408212
H69	H	1.382044	-0.086295	0.327857
H70	H	1.375020	-0.218708	0.327815
H71	H	1.309919	-0.084542	0.239283
H72	H	1.302884	-0.216967	0.239248
H73	H	1.041439	-0.144377	-0.313433
H74	H	0.718100	-0.136660	0.203003
C75	C	1.167214	-0.147396	0.444109
C76	C	1.199982	-0.148189	0.346200
H77	H	1.184330	-0.147790	0.519815
H78	H	1.144037	-0.213130	0.439464
H79	H	1.151059	-0.080717	0.439459
H80	H	1.216135	-0.214873	0.350845
H81	H	1.223168	-0.082448	0.350847
H82	H	1.101333	-0.145827	0.314443
H83	H	0.809577	-0.138859	0.202986
C84	C	0.919081	-0.043711	0.353091
C85	C	0.942888	-0.142009	0.346275
H86	H	0.901984	-0.043290	0.428799
H87	H	0.896845	-0.043190	0.286661
H88	H	0.942270	0.022012	0.348456
H89	H	0.919698	-0.207733	0.350901
H90	H	0.965125	-0.142541	0.412723
H91	H	1.041537	-0.144392	0.314464
H92	H	0.949978	-0.142188	-0.313406
C93	C	0.717863	-0.234375	-0.301139
C94	C	0.710859	-0.136491	-0.233574
H95	H	0.700750	-0.233958	-0.376847
H96	H	0.706089	-0.300373	-0.255315
H97	H	0.751500	-0.235167	-0.317093
H98	H	0.677222	-0.135704	-0.217612
H99	H	0.722630	-0.070476	-0.279407
C100	C	0.840504	-0.237306	-0.240450
C101	C	0.816692	-0.139017	-0.233612
H102	H	0.857597	-0.237715	-0.316165
H103	H	0.817323	-0.303029	-0.235806
H104	H	0.862749	-0.237820	-0.174025
H105	H	0.794444	-0.138507	-0.300032
H106	H	0.839876	-0.073277	-0.238268
H107	H	1.101245	-0.145793	-0.313472
C108	C	1.182513	-0.245464	-0.412832
C109	C	1.199892	-0.148159	-0.345278
H110	H	1.199610	-0.245878	-0.488539
H111	H	1.148878	-0.244644	-0.428780
H112	H	1.187272	-0.311861	-0.366994
H113	H	1.195129	-0.081761	-0.391112
H114	H	1.233534	-0.148968	-0.329333
H115	H	1.333176	-0.151410	-0.201994
H116	H	1.424656	-0.153598	-0.202014
