data_functionalizedCrystal
_audit_creation_method	'MofGen! by Chris Wilmer'
_symmetry_space_group_name_H-M	'P1'
_symmetry_Int_Tables_number	1
_symmetry_cell_setting	triclinic
loop_
_symmetry_equiv_pos_as_xyz
  x,y,z
_cell_length_a	9.065218
_cell_length_b	13.930277
_cell_length_c	14.853567
_cell_angle_alpha	90.000757
_cell_angle_beta	95.674559
_cell_angle_gamma	89.990613
loop_
_atom_site_label
_atom_site_type_symbol
_atom_site_fract_x
_atom_site_fract_y
_atom_site_fract_z
O1	O	-1.957787	0.079871	0.132192
O2	O	-1.528288	0.079861	0.143035
O3	O	-1.754510	0.079869	0.006469
O4	O	-1.731565	0.079863	0.268759
O5	O	-1.754479	-0.079793	0.006466
O6	O	-1.528256	-0.079801	0.143032
O7	O	-1.957756	-0.079791	0.132189
Zn8	Zn	-1.743001	-0.105146	0.137610
Zn9	Zn	-1.743042	0.105216	0.137614
O10	O	-1.731533	-0.079799	0.268755
C11	C	-1.473306	0.000029	0.141992
C12	C	-1.309525	0.000026	0.138876
C13	C	-1.012737	0.000037	0.133233
C14	C	-1.176519	0.000029	0.136348
N15	N	-1.742983	-0.248712	0.137607
C16	C	-1.642867	-0.700985	0.198062
C17	C	-1.843258	-0.700947	0.077160
C18	C	-1.843241	-0.600451	0.077157
C19	C	-1.743036	-0.550217	0.137608
C20	C	-1.642849	-0.600480	0.198063
C21	C	-1.943436	-0.550182	0.016710
C22	C	-1.943423	-0.449680	0.016706
C23	C	-1.843211	-0.399444	0.077153
C24	C	-1.743019	-0.449712	0.137609
C25	C	-1.642814	-0.399479	0.198060
C26	C	-1.542614	-0.449745	0.258512
C27	C	-1.542637	-0.550244	0.258510
C28	C	-1.843188	-0.298945	0.077156
C29	C	-1.642797	-0.298974	0.198061
C30	C	-1.753455	0.000041	-0.027129
C31	C	-1.750339	0.000049	-0.127236
N32	N	-1.743072	0.248782	0.137611
C33	C	-1.602788	0.000028	-0.540862
C34	C	-1.871546	0.000034	-0.560154
C35	C	-1.874475	0.000039	-0.466098
C36	C	-1.741559	0.000038	-0.409420
C37	C	-1.605714	0.000030	-0.446797
C38	C	-2.010318	0.000037	-0.428714
C39	C	-2.013253	0.000042	-0.334653
C40	C	-1.880335	0.000047	-0.277973
C41	C	-1.744484	0.000041	-0.315356
C42	C	-1.611568	0.000039	-0.258677
C43	C	-1.475716	0.000040	-0.296058
C44	C	-1.472796	0.000036	-0.390117
C45	C	-1.883255	0.000051	-0.183914
C46	C	-1.614494	0.000042	-0.164613
C47	C	-1.732589	0.000031	0.302353
C48	C	-1.735704	0.000029	0.402460
H49	H	-1.461033	-0.408833	0.307736
H50	H	-1.492180	0.000032	-0.571301
H51	H	-1.506255	0.000045	-0.118471
H52	H	-2.118531	0.000029	-0.474867
H53	H	-1.993864	0.000044	-0.153483
H54	H	-1.561281	-0.741914	0.247279
O55	O	-2.000516	0.000073	-0.615336
C56	C	-1.968804	0.000039	-0.706370
H57	H	-1.852923	0.030263	-0.710926
H58	H	-1.974326	-0.076562	-0.733513
C59	C	-2.225567	0.025528	-0.757397
C60	C	-2.083244	0.062657	-0.762994
H61	H	-2.296162	0.064150	-0.792327
H62	H	-2.246934	0.025548	-0.696066
H63	H	-2.230147	-0.038305	-0.780014
H64	H	-2.078660	0.126484	-0.740366
H65	H	-2.061879	0.062649	-0.824323
H66	H	-1.561192	-0.258080	0.247285
H67	H	-1.367496	0.000032	-0.249899
H68	H	-1.924776	-0.258023	0.027940
O69	O	-2.040555	-0.599028	-0.042097
C70	C	-1.961428	-0.657188	-0.098370
H71	H	-1.845088	-0.626906	-0.100885
H72	H	-1.953740	-0.733352	-0.070212
C73	C	-2.185429	-0.695932	-0.191388
C74	C	-2.042541	-0.658734	-0.194483
H75	H	-2.235465	-0.696890	-0.250675
H76	H	-2.238740	-0.656751	-0.153475
H77	H	-2.179001	-0.759398	-0.167920
H78	H	-2.048971	-0.595265	-0.217941
H79	H	-1.989233	-0.697904	-0.232403
H80	H	-2.025010	-0.408759	-0.032518
H81	H	-2.123872	0.000043	-0.304226
O82	O	-1.940451	-0.749888	0.018476
C83	C	-1.919014	-0.849370	0.031458
H84	H	-1.801796	-0.863116	0.064156
H85	H	-2.002610	-0.877870	0.077388
C86	C	-2.084982	-0.884089	-0.100738
C87	C	-1.941009	-0.900972	-0.060584
H88	H	-2.098556	-0.915921	-0.157512
H89	H	-2.099430	-0.817066	-0.109483
H90	H	-2.154629	-0.907838	-0.062453
H91	H	-1.871365	-0.877212	-0.098864
H92	H	-1.926549	-0.967992	-0.051848
H93	H	-1.461059	-0.591177	0.307729
H94	H	-1.362192	0.000035	-0.420561
