data_functionalizedCrystal
_audit_creation_method	'MofGen! by Chris Wilmer'
_symmetry_space_group_name_H-M	'P1'
_symmetry_Int_Tables_number	1
_symmetry_cell_setting	triclinic
loop_
_symmetry_equiv_pos_as_xyz
  x,y,z
_cell_length_a	13.032831
_cell_length_b	21.295417
_cell_length_c	13.032268
_cell_angle_alpha	97.140648
_cell_angle_beta	90.886977
_cell_angle_gamma	82.834379
loop_
_atom_site_label
_atom_site_type_symbol
_atom_site_fract_x
_atom_site_fract_y
_atom_site_fract_z
Zn1	Zn	1.498336	-0.425102	-0.780728
Zn2	Zn	1.520047	-0.518887	-0.608724
Zn3	Zn	1.348204	-0.398806	-0.586976
Zn4	Zn	1.326296	-0.515483	-0.758850
O5	O	1.423221	-0.464570	-0.683820
O6	O	1.645133	-0.449972	-0.776169
O7	O	1.515506	-0.493377	-0.461925
O8	O	1.368201	-0.314216	-0.612731
O9	O	1.661084	-0.518875	-0.649799
O10	O	1.478503	-0.333535	-0.755080
O11	O	1.389253	-0.405155	-0.445946
O12	O	1.201381	-0.401855	-0.591517
O13	O	1.330864	-0.513075	-0.905667
O14	O	1.185286	-0.487577	-0.717793
O15	O	1.457261	-0.446672	-0.921740
O16	O	1.494263	-0.606514	-0.628585
O17	O	1.351916	-0.604014	-0.738882
C18	C	1.156018	-0.441494	-0.649922
C19	C	1.041704	-0.431638	-0.635445
C20	C	0.982815	-0.469713	-0.691375
C21	C	0.864665	-0.459528	-0.676414
C22	C	1.423093	-0.628106	-0.683746
C23	C	1.423128	-0.698078	-0.683760
C24	C	1.497299	-0.732235	-0.626403
C25	C	1.497344	-0.797983	-0.626433
C26	C	1.423202	-0.829569	-0.683806
C27	C	1.349025	-0.795405	-0.741175
C28	C	1.348989	-0.729659	-0.741152
N29	N	1.332239	-0.925592	-0.680232
N30	N	1.332278	-0.988048	-0.680248
C31	C	1.423310	-1.027658	-0.683879
N32	N	1.514306	-1.002451	-0.687474
N33	N	1.514267	-0.939990	-0.687452
C34	C	1.423234	-0.900860	-0.683837
C35	C	1.497535	-1.133107	-0.626551
C36	C	1.497581	-1.198857	-0.626588
C37	C	1.349254	-1.196276	-0.741323
C38	C	1.349216	-1.130528	-0.741293
C39	C	1.423356	-1.098947	-0.683901
C40	C	1.691467	-0.487736	-0.717850
C41	C	1.805778	-0.497609	-0.732352
C42	C	1.389197	-0.482427	-0.952062
C43	C	1.374697	-0.490036	-1.066371
C44	C	1.423374	-0.300399	-0.683920
C45	C	1.423439	-0.230439	-0.683963
C46	C	1.430772	-0.460574	-1.125287
C47	C	1.415788	-0.468438	-1.243431
C48	C	1.457172	-0.446742	-0.416628
C49	C	1.471870	-0.438972	-0.302345
H50	H	1.004651	-0.391498	-0.576488
H51	H	1.356676	-0.499481	-1.280452
H52	H	1.315590	-0.521077	-1.103397
H53	H	1.288816	-1.102715	-0.787994
O54	O	1.569535	-1.232131	-0.570890
C55	C	1.601268	-1.298438	-0.433974
C56	C	1.519649	-1.260767	-0.496930
H57	H	1.560968	-1.321589	-0.374149
H58	H	1.648950	-1.336970	-0.488112
H59	H	1.654325	-1.264601	-0.393008
H60	H	1.466524	-1.294555	-0.537904
H61	H	1.472042	-1.222228	-0.442742
O62	O	1.026836	-0.517611	-0.761796
C63	C	0.999202	-0.605337	-0.890588
C64	C	0.949216	-0.551108	-0.810887
H65	H	0.936471	-0.632443	-0.930285
H66	H	1.042658	-0.584411	-0.950842
H67	H	1.055503	-0.639333	-0.849581
H68	H	0.892870	-0.517093	-0.851804
H69	H	0.905825	-0.572079	-0.750638
H70	H	1.288890	-1.221993	-0.788043
O71	O	1.501272	-0.423584	-1.080963
C72	C	1.580416	-0.381970	-0.922789
C73	C	1.500552	-0.423892	-0.972848
H74	H	1.579845	-0.382194	-0.835369
H75	H	1.660712	-0.401578	-0.954289
H76	H	1.559761	-0.331061	-0.941651
H77	H	1.521110	-0.474810	-0.954006
H78	H	1.420279	-0.404231	-0.941345
O79	O	0.849898	-0.545436	-0.802842
C80	C	0.860754	-0.590652	-0.981837
C81	C	0.810730	-0.536445	-0.902122
H82	H	0.829090	-0.583409	-1.062119
H83	H	0.948169	-0.590342	-0.981466
H84	H	0.841984	-0.638369	-0.960917
H85	H	0.829419	-0.488701	-0.922986
H86	H	0.723327	-0.536811	-0.902507
H87	H	0.827617	-0.419386	-0.617453
H88	H	1.557670	-0.706524	-0.579675
O89	O	1.542353	-0.401964	-1.258024
C90	C	1.621451	-0.360314	-1.099847
C91	C	1.541625	-0.402263	-1.149909
H92	H	1.620873	-0.360530	-1.012427
H93	H	1.701759	-0.379904	-1.131335
H94	H	1.600764	-0.309410	-1.118724
H95	H	1.562215	-0.453175	-1.131052
H96	H	1.461339	-0.382620	-1.118419
O97	O	1.569438	-0.831071	-0.570616
C98	C	1.716575	-0.826701	-0.456843
C99	C	1.634976	-0.789153	-0.519990
H100	H	1.769597	-0.792829	-0.415913
H101	H	1.676291	-0.849849	-0.396999
H102	H	1.764291	-0.865240	-0.510936
H103	H	1.587235	-0.750584	-0.465979
H104	H	1.675323	-0.766051	-0.579846
O105	O	1.277094	-0.826075	-0.797067
C106	C	1.204821	-0.853462	-0.965611
C107	C	1.286346	-0.818714	-0.902433
H108	H	1.212259	-0.847511	-1.050809
H109	H	1.217578	-0.906333	-0.955862
H110	H	1.124213	-0.832226	-0.936911
H111	H	1.366987	-0.839897	-0.931091
H112	H	1.273498	-0.765845	-0.912184
O113	O	1.277033	-0.696383	-0.796845
C114	C	1.211200	-0.593946	-0.847599
C115	C	1.292764	-0.631558	-0.784503
H116	H	1.223877	-0.541526	-0.837625
H117	H	1.218679	-0.613865	-0.932851
H118	H	1.130604	-0.598602	-0.818973
H119	H	1.373397	-0.626917	-0.813040
H120	H	1.285194	-0.611629	-0.699261
O121	O	1.569655	-1.102529	-0.570788
C122	C	1.716733	-1.112019	-0.456935
C123	C	1.635134	-1.146728	-0.520062
H124	H	1.769681	-1.147736	-0.415889
H125	H	1.764533	-1.088994	-0.510955
H126	H	1.676340	-1.073613	-0.397167
H127	H	1.675443	-1.185161	-0.579834
H128	H	1.587340	-1.169708	-0.465978
