data_functionalizedCrystal
_audit_creation_method	'MofGen! by Chris Wilmer'
_symmetry_space_group_name_H-M	'P1'
_symmetry_Int_Tables_number	1
_symmetry_cell_setting	triclinic
loop_
_symmetry_equiv_pos_as_xyz
  x,y,z
_cell_length_a	12.759401
_cell_length_b	19.805405
_cell_length_c	12.759393
_cell_angle_alpha	89.962322
_cell_angle_beta	89.980163
_cell_angle_gamma	90.027935
loop_
_atom_site_label
_atom_site_type_symbol
_atom_site_fract_x
_atom_site_fract_y
_atom_site_fract_z
Zn1	Zn	1.606169	-0.269395	-0.593976
Zn2	Zn	1.606028	-0.382600	-0.418277
Zn3	Zn	1.430472	-0.269434	-0.418311
Zn4	Zn	1.430424	-0.382551	-0.593915
O5	O	1.518273	-0.325995	-0.506120
O6	O	1.753172	-0.284417	-0.570681
O7	O	1.582701	-0.367625	-0.271261
O8	O	1.453857	-0.174712	-0.441653
O9	O	1.753068	-0.367588	-0.441596
O10	O	1.582942	-0.174684	-0.570713
O11	O	1.453720	-0.284482	-0.271285
O12	O	1.283444	-0.284434	-0.441594
O13	O	1.453777	-0.367504	-0.740944
O14	O	1.283409	-0.367541	-0.570609
O15	O	1.582896	-0.284369	-0.740989
O16	O	1.582655	-0.477310	-0.441536
O17	O	1.453639	-0.477274	-0.570576
C18	C	1.245306	-0.325987	-0.506099
C19	C	1.128529	-0.326000	-0.506115
C20	C	1.518155	-0.501851	-0.506069
C21	C	1.518201	-0.577083	-0.506082
C22	C	1.073677	-0.369339	-0.573187
C23	C	0.963953	-0.369342	-0.573208
C24	C	0.963943	-0.282663	-0.439075
C25	C	1.073666	-0.282658	-0.439060
C26	C	1.585444	-0.612424	-0.438962
C27	C	1.585489	-0.683112	-0.438985
C28	C	1.518284	-0.718459	-0.506124
C29	C	1.451037	-0.683113	-0.573252
C30	C	1.450999	-0.612426	-0.573234
C31	C	1.451192	-0.968186	-0.573330
C32	C	1.451234	-1.038878	-0.573342
C33	C	1.585682	-1.038872	-0.439081
C34	C	1.585644	-0.968185	-0.439063
C35	C	1.518402	-0.932846	-0.506194
C36	C	1.518355	-0.856198	-0.506170
C37	C	1.518324	-0.795106	-0.506144
C38	C	1.792307	-0.326004	-0.506141
C39	C	1.909083	-0.326008	-0.506150
C40	C	1.518347	-0.325927	-0.780153
C41	C	1.518378	-0.325897	-0.896930
C42	C	1.518421	-0.149452	-0.506194
C43	C	1.518483	-0.074220	-0.506225
C44	C	1.451242	-0.282597	-0.951804
C45	C	1.451266	-0.282576	-1.061528
C46	C	1.585572	-0.369158	-1.061494
C47	C	1.585541	-0.369182	-0.951772
C48	C	1.518261	-0.326014	-0.233152
C49	C	1.518433	-0.325853	-0.116376
H50	H	1.118344	-0.404629	-0.627790
C51	C	1.636709	-0.590732	-0.261096
C52	C	1.659318	-0.573575	-0.365157
H53	H	1.682323	-0.566751	-0.215534
H54	H	1.566130	-0.579190	-0.245661
H55	H	1.646358	-0.637890	-0.251517
H56	H	1.649662	-0.526417	-0.374737
H57	H	1.729914	-0.585112	-0.380596
C58	C	1.318272	-0.975302	-0.706019
C59	C	1.377260	-0.929347	-0.647100
H60	H	1.272619	-0.951321	-0.751553
H61	H	1.364036	-1.002822	-0.746262
H62	H	1.278141	-1.002923	-0.660195
H63	H	1.417397	-0.901729	-0.692923
H64	H	1.331490	-0.901816	-0.606853
C65	C	1.763455	-0.402132	-1.095267
C66	C	1.659404	-0.416730	-1.121779
H67	H	1.809035	-0.431504	-1.132480
H68	H	1.778867	-0.356657	-1.113276
H69	H	1.773029	-0.408346	-1.022065
H70	H	1.649827	-0.410511	-1.194980
H71	H	1.643987	-0.462216	-1.103777
H72	H	1.396509	-1.067656	-0.628022
C73	C	1.763462	-0.704664	-0.388046
C74	C	1.659485	-0.721896	-0.365204
H75	H	1.809169	-0.728587	-0.342492
H76	H	1.778780	-0.716225	-0.458641
H77	H	1.772955	-0.657494	-0.378480
H78	H	1.649990	-0.769066	-0.374778
H79	H	1.644162	-0.710340	-0.294592
H80	H	1.640365	-0.939408	-0.384388
H81	H	1.640438	-1.067654	-0.384424
C82	C	1.391387	-0.791473	-0.632890
C83	C	1.377160	-0.721965	-0.647052
H84	H	1.345770	-0.815455	-0.678446
H85	H	1.461966	-0.803009	-0.648336
H86	H	1.376055	-0.803094	-0.562284
H87	H	1.392500	-0.710342	-0.717656
H88	H	1.306565	-0.710424	-0.631613
C89	C	1.318102	-0.619527	-0.705951
C90	C	1.377084	-0.573577	-0.647017
H91	H	1.272470	-0.595542	-0.751502
H92	H	1.363872	-0.647052	-0.746178
H93	H	1.277950	-0.647143	-0.660138
H94	H	1.417243	-0.545964	-0.692830
H95	H	1.331309	-0.546040	-0.606786
C96	C	1.318477	-0.197022	-0.962863
C97	C	1.377404	-0.235028	-0.891521
H98	H	1.272885	-0.167659	-0.925647
H99	H	1.364284	-0.171122	-1.005670
H100	H	1.278284	-0.226510	-1.005645
H101	H	1.417603	-0.205539	-0.848744
H102	H	1.331591	-0.260929	-0.848696
C103	C	1.309972	-0.273142	-1.184893
C104	C	1.377461	-0.234980	-1.121841
H105	H	1.264399	-0.243758	-1.222119
H106	H	1.349974	-0.298905	-1.233260
H107	H	1.269759	-0.302639	-1.142054
H108	H	1.417680	-0.205487	-1.164681
H109	H	1.337455	-0.209206	-1.073468
H110	H	1.640214	-0.404445	-0.907092
H111	H	0.919297	-0.404632	-0.627827
H112	H	1.118328	-0.247361	-0.384442
C113	C	0.795742	-0.244184	-0.379539
C114	C	0.903633	-0.235026	-0.365367
H115	H	0.758513	-0.214777	-0.334028
H116	H	0.777807	-0.234334	-0.450153
H117	H	0.777735	-0.289652	-0.364030
H118	H	0.921642	-0.189560	-0.380884
H119	H	0.921575	-0.244872	-0.294737
