data_functionalizedCrystal
_audit_creation_method	'MofGen! by Chris Wilmer'
_symmetry_space_group_name_H-M	'P1'
_symmetry_Int_Tables_number	1
_symmetry_cell_setting	triclinic
loop_
_symmetry_equiv_pos_as_xyz
  x,y,z
_cell_length_a	10.654549
_cell_length_b	10.654545
_cell_length_c	14.048226
_cell_angle_alpha	90.004065
_cell_angle_beta	90.007469
_cell_angle_gamma	84.486172
loop_
_atom_site_label
_atom_site_type_symbol
_atom_site_fract_x
_atom_site_fract_y
_atom_site_fract_z
O1	O	1.667843	0.176431	0.079178
O2	O	1.302365	0.193231	0.079175
O3	O	1.493506	0.002092	0.079176
O4	O	1.476701	0.367570	0.079177
O5	O	1.493483	0.002080	-0.079145
O6	O	1.302342	0.193219	-0.079147
O7	O	1.667819	0.176419	-0.079143
Zn8	Zn	1.485077	0.184817	-0.104282
Zn9	Zn	1.485107	0.184833	0.104314
O10	O	1.476678	0.367558	-0.079144
C11	C	1.255555	0.191990	0.000014
C12	C	1.116112	0.188296	0.000012
C13	C	0.826129	0.409919	0.000040
C14	C	0.877666	0.525937	0.000036
C15	C	1.008684	0.529413	0.000024
C16	C	1.088169	0.416857	0.000018
C17	C	1.036632	0.300839	0.000021
C18	C	0.905609	0.297376	0.000031
C19	C	1.064575	0.072277	0.000016
C20	C	0.933557	0.068799	0.000022
C21	C	1.144060	-0.040278	0.000010
C22	C	1.092523	-0.156300	0.000007
C23	C	0.961496	-0.159771	0.000018
C24	C	0.882019	-0.047220	0.000025
C25	C	1.492260	-0.044712	0.000017
C26	C	1.488568	-0.184155	0.000023
C27	C	1.488608	-0.184151	0.172629
C28	C	1.486898	-0.249659	0.258932
C29	C	1.483429	-0.380678	0.258934
C30	C	1.481666	-0.446192	0.172622
C31	C	1.483376	-0.380684	0.086319
C32	C	1.486849	-0.249662	0.086328
C33	C	1.483326	-0.380687	-0.086285
C34	C	1.486804	-0.249669	-0.086289
C35	C	1.481563	-0.446200	-0.172597
C36	C	1.483282	-0.380693	-0.258902
C37	C	1.486753	-0.249667	-0.258899
C38	C	1.488514	-0.184161	-0.172591
C39	C	1.714629	0.177660	0.000020
C40	C	1.854072	0.181354	0.000028
C41	C	1.477924	0.414362	0.000017
C42	C	1.481617	0.553805	0.000018
N43	N	1.485065	0.184806	-0.246642
C44	C	1.569729	0.100205	-0.296460
C45	C	1.569738	0.100205	-0.396117
C46	C	1.485087	0.184812	-0.445956
C47	C	1.400414	0.269417	-0.396131
C48	C	1.400400	0.269410	-0.296476
C49	C	1.400450	0.269426	-0.603846
C50	C	1.400465	0.269435	-0.703508
C51	C	1.569788	0.100221	-0.703488
C52	C	1.569774	0.100214	-0.603832
C53	C	1.485102	0.184821	-0.554014
N54	N	1.485129	0.184834	0.246674
H55	H	0.919544	-0.254247	0.000026
F56	F	1.492321	-0.044712	0.172635
F57	F	0.742576	-0.050904	0.000031
F58	F	1.488801	-0.179930	0.350786
H59	H	1.478826	-0.552872	0.172631
H60	H	1.638677	0.031316	-0.436678
H61	H	1.482025	-0.434013	0.329209
F62	F	1.659834	0.010159	-0.243428
H63	H	1.488126	-0.196336	-0.329178
H64	H	1.050645	0.623885	0.000020
H65	H	1.331456	0.338299	-0.255915
F66	F	1.310327	0.359472	-0.550830
F67	F	1.477860	-0.585641	-0.172593
H68	H	1.491346	-0.077479	-0.172581
H69	H	1.481838	-0.434044	-0.329169
H70	H	1.638709	0.031327	-0.563254
F71	F	1.659902	0.010178	-0.756511
H72	H	1.194850	0.419697	0.000019
H73	H	1.331532	0.338329	-0.744082
H74	H	1.250741	-0.037440	0.000004
H75	H	1.331483	0.338301	-0.436715
H76	H	0.719445	0.407100	0.000034
H77	H	0.812935	0.617577	0.000045
H78	H	1.157248	-0.247933	0.000008
