data_functionalizedCrystal
_audit_creation_method	'MofGen! by Chris Wilmer'
_symmetry_space_group_name_H-M	'P1'
_symmetry_Int_Tables_number	1
_symmetry_cell_setting	triclinic
loop_
_symmetry_equiv_pos_as_xyz
  x,y,z
_cell_length_a	6.817900
_cell_length_b	16.255748
_cell_length_c	16.255661
_cell_angle_alpha	95.347428
_cell_angle_beta	103.488922
_cell_angle_gamma	103.490428
loop_
_atom_site_label
_atom_site_type_symbol
_atom_site_fract_x
_atom_site_fract_y
_atom_site_fract_z
V1	V	-4.026718	-0.117775	-0.264162
O2	O	-4.014190	0.004956	-0.258836
O3	O	-3.978277	-0.232852	-0.262642
O4	O	-3.978280	-0.116272	-0.379242
O5	O	-4.014186	-0.112431	-0.141429
V6	V	-4.510357	-0.103059	-0.249447
O7	O	-4.287724	-0.150057	-0.296440
O8	O	-4.699549	-0.070777	-0.217170
O9	O	-4.335592	0.012018	-0.250968
O10	O	-4.640282	-0.225790	-0.254774
O11	O	-4.640286	-0.108403	-0.372181
O12	O	-4.335588	-0.104562	-0.134368
C13	C	-3.823268	-0.260896	-0.258548
C14	C	-3.864948	-0.354974	-0.258072
C15	C	-3.800462	-0.634058	-0.252241
C16	C	-3.906949	-0.591123	-0.324865
C17	C	-4.015121	-0.693616	-0.256396
C18	C	-3.834252	-0.568919	-0.184633
C19	C	-3.941325	-0.527229	-0.257218
C20	C	-4.122189	-0.651929	-0.329071
C21	C	-4.049434	-0.629719	-0.188775
C22	C	-4.156080	-0.586816	-0.261419
C23	C	-4.057627	-0.789466	-0.255923
C24	C	-3.898837	-0.431382	-0.257697
C25	C	-3.823272	-0.112186	-0.407282
C26	C	-3.864952	-0.111718	-0.501362
C27	C	-3.775508	-0.106135	-0.724167
C28	C	-3.931928	-0.178192	-0.793821
C29	C	-3.941336	-0.110842	-0.673609
C30	C	-3.859207	-0.037960	-0.771590
C31	C	-4.015104	-0.109991	-0.839990
C32	C	-4.097238	-0.182963	-0.742033
C33	C	-4.024455	-0.042667	-0.719786
C34	C	-4.181011	-0.114745	-0.789421
C35	C	-3.898835	-0.111332	-0.577760
C36	C	-4.057622	-0.109507	-0.935837
C37	C	-4.153942	0.040057	-0.255059
C38	C	-4.091501	0.134135	-0.255540
C39	C	-4.153938	-0.108651	-0.106323
C40	C	-4.091497	-0.109114	-0.012242
H41	H	-3.846340	-0.573883	-0.382412
H42	H	-4.306188	-0.566087	-0.265325
H43	H	-4.244217	-0.687853	-0.390177
H44	H	-4.109985	-0.646981	-0.131226
O45	O	-4.070176	0.025783	-0.681323
C46	C	-3.943776	0.102070	-0.695890
H47	H	-3.797183	0.089122	-0.710525
H48	H	-4.034667	0.126139	-0.752559
C49	C	-4.060994	0.186283	-0.597503
C50	C	-3.880937	0.170381	-0.615472
H51	H	-4.022238	0.228422	-0.547901
H52	H	-4.146158	0.134887	-0.587691
H53	H	-4.136720	0.206336	-0.644734
H54	H	-3.805229	0.150318	-0.568247
H55	H	-3.795758	0.221775	-0.625275
O56	O	-3.688492	-0.525817	-0.111880
C57	C	-3.652269	-0.436962	-0.112960
H58	H	-3.698134	-0.424836	-0.181917
H59	H	-3.749918	-0.409977	-0.074756
C60	C	-3.362502	-0.407629	0.012097
C61	C	-3.418819	-0.392735	-0.072598
H62	H	-3.218502	-0.380345	0.036997
H63	H	-3.386910	-0.467492	0.012827
H64	H	-3.443894	-0.385141	0.043922
H65	H	-3.337447	-0.415232	-0.104424
H66	H	-3.394392	-0.332874	-0.073332
H67	H	-3.603754	-0.102588	-0.695678
O68	O	-3.885433	-0.246475	-0.832220
C69	C	-3.672100	-0.241722	-0.798771
H70	H	-3.582631	-0.172462	-0.771044
H71	H	-3.654629	-0.283282	-0.746161
C72	C	-3.693413	-0.359017	-0.904810
C73	C	-3.583523	-0.273949	-0.870762
H74	H	-3.638774	-0.378899	-0.949215
H75	H	-3.837142	-0.362221	-0.927343
H76	H	-3.678845	-0.393639	-0.860960
H77	H	-3.598114	-0.239327	-0.914608
H78	H	-3.439794	-0.270739	-0.848237
H79	H	-4.197458	-0.244311	-0.728718
H80	H	-3.758969	0.023305	-0.785048
H81	H	-4.352884	-0.118404	-0.817776
O82	O	-3.621865	-0.659142	-0.247671
C83	C	-3.663539	-0.748102	-0.246549
H84	H	-3.808501	-0.770297	-0.222520
H85	H	-3.691633	-0.783101	-0.314068
C86	C	-3.297246	-0.740757	-0.216092
C87	C	-3.475282	-0.768016	-0.186572
H88	H	-3.181119	-0.753043	-0.179098
H89	H	-3.269169	-0.680824	-0.216851
H90	H	-3.320686	-0.769926	-0.272357
H91	H	-3.451849	-0.738840	-0.130312
H92	H	-3.503351	-0.827945	-0.185802
