data_functionalizedCrystal
_audit_creation_method	'MofGen! by Chris Wilmer'
_symmetry_space_group_name_H-M	'P1'
_symmetry_Int_Tables_number	1
_symmetry_cell_setting	triclinic
loop_
_symmetry_equiv_pos_as_xyz
  x,y,z
_cell_length_a	16.992694
_cell_length_b	16.974755
_cell_length_c	15.455313
_cell_angle_alpha	89.009783
_cell_angle_beta	87.142206
_cell_angle_gamma	87.020575
loop_
_atom_site_label
_atom_site_type_symbol
_atom_site_fract_x
_atom_site_fract_y
_atom_site_fract_z
O1	O	-1.044183	-0.163897	0.083532
O2	O	-0.544183	0.336103	0.583532
O3	O	-0.815895	-0.162063	0.083428
O4	O	-0.315895	0.337937	0.583428
O5	O	-0.936028	-0.048639	0.075444
O6	O	-0.436028	0.451361	0.575444
O7	O	-0.924050	-0.277322	0.091516
O8	O	-0.424050	0.222678	0.591516
O9	O	-0.929158	-0.055096	-0.068364
O10	O	-0.429158	0.444904	0.431636
O11	O	-0.809025	-0.168520	-0.060379
O12	O	-0.309025	0.331480	0.439621
O13	O	-1.037313	-0.170355	-0.060276
O14	O	-0.537313	0.329645	0.439724
Cu15	Cu	-0.922542	-0.170027	-0.073458
Cu16	Cu	-0.422542	0.329973	0.426542
Cu17	Cu	-0.930666	-0.162391	0.096611
Cu18	Cu	-0.430666	0.337609	0.596611
O19	O	-0.917181	-0.283779	-0.052292
O20	O	-0.417181	0.216221	0.447708
C21	C	-0.783243	-0.162933	0.011362
C22	C	-0.283243	0.337067	0.511362
C23	C	-0.696183	-0.155895	0.010877
C24	C	-0.196183	0.344105	0.510877
C25	C	-0.932012	-0.022471	0.001476
C26	C	-0.432012	0.477529	0.501476
C27	C	-0.930273	0.065122	-0.004674
C28	C	-0.430273	0.565122	0.495326
C29	C	-1.069966	-0.169485	0.011792
C30	C	-0.569966	0.330515	0.511792
C31	C	-1.157025	-0.176523	0.012282
C32	C	-0.657025	0.323477	0.512282
C33	C	-0.646092	-0.223797	0.015649
C34	C	-0.146092	0.276203	0.515649
C35	C	-0.564291	-0.217180	0.015172
C36	C	-0.064291	0.282820	0.515172
C37	C	-0.532582	-0.142661	0.009930
C38	C	-0.032582	0.357339	0.509930
C39	C	-0.582679	-0.074754	0.005155
C40	C	-0.082679	0.425246	0.505155
C41	C	-0.664479	-0.081371	0.005626
C42	C	-0.164479	0.418629	0.505626
C43	C	-0.288923	-0.115233	0.007979
C44	C	0.211077	0.384767	0.507979
C45	C	-0.207116	-0.108621	0.007511
C46	C	0.292884	0.391379	0.507511
C47	C	-0.188733	-0.251048	0.017526
C48	C	0.311267	0.248952	0.517526
C49	C	-0.270536	-0.257659	0.018002
C50	C	0.229464	0.242341	0.518002
C51	C	-0.320626	-0.189752	0.013223
C52	C	0.179374	0.310248	0.513223
N53	N	-0.448968	-0.135896	0.009445
N54	N	0.051032	0.364104	0.509445
N55	N	-0.404238	-0.196518	0.013702
N56	N	0.095762	0.303482	0.513702
C57	C	-0.921196	-0.309947	0.021678
C58	C	-0.421196	0.190053	0.521678
C59	C	-0.922936	-0.397540	0.027833
C60	C	-0.422936	0.102460	0.527833
C61	C	-0.920011	0.557799	-0.047670
C62	C	-0.420011	1.057799	0.452330
C63	C	-0.921653	0.475496	-0.041896
C64	C	-0.421653	0.975496	0.458104
C65	C	-0.926225	0.437857	0.039383
C66	C	-0.426225	0.937857	0.539383
C67	C	-0.929147	0.482524	0.114892
C68	C	-0.429147	0.982524	0.614892
C69	C	-0.927500	0.564825	0.109117
C70	C	-0.427500	1.064825	0.609117
C71	C	-0.931548	0.192090	0.065061
C72	C	-0.431548	0.692090	0.565061
C73	C	-0.933198	0.109783	0.070830
C74	C	-0.433198	0.609783	0.570830
C75	C	-0.925702	0.102761	-0.085959
C76	C	-0.425702	0.602761	0.414041
C77	C	-0.924060	0.185064	-0.091726
C78	C	-0.424060	0.685064	0.408274
C79	C	-0.926978	0.229724	-0.016217
C80	C	-0.426978	0.729724	0.483783
N81	N	-0.927905	0.353730	0.045287
N82	N	-0.427905	0.853730	0.545287
N83	N	-0.925292	0.313848	-0.022122
N84	N	-0.425292	0.813848	0.477878
N85	N	-0.916834	-0.175399	-0.193076
N86	N	-0.416834	0.324601	0.306924
C87	C	-0.967888	-0.127232	-0.241861
C88	C	-0.467888	0.372768	0.258139
C89	C	-0.963578	-0.131302	-0.332382
C90	C	-0.463578	0.368698	0.167618
C91	C	-0.908217	-0.183543	-0.374117
C92	C	-0.408217	0.316457	0.125883
C93	C	-0.857157	-0.231711	-0.325325
C94	C	-0.357157	0.268289	0.174675
C95	C	-0.861464	-0.227637	-0.234806
C96	C	-0.361464	0.272363	0.265194
C97	C	-0.889628	-0.201108	-0.644462
C98	C	-0.389628	0.298892	-0.144462
C99	C	-0.885327	-0.205180	-0.734988
C100	C	-0.385327	0.294820	-0.234988
C101	C	-0.991747	-0.104769	-0.742038
C102	C	-0.491747	0.395231	-0.242038
C103	C	-0.996052	-0.100703	-0.651516
C104	C	-0.496052	0.399297	-0.151516
C105	C	-0.944989	-0.148868	-0.602733
C106	C	-0.444989	0.351132	-0.102733
N107	N	-0.903812	-0.187706	-0.466644
N108	N	-0.403812	0.312294	0.033356
N109	N	-0.949391	-0.144701	-0.510208
N110	N	-0.449391	0.355299	-0.010208
N111	N	-0.936381	-0.157013	0.216228
N112	N	-0.436381	0.342987	0.716228
H113	H	-0.671903	-0.284479	0.019918
H114	H	-0.171903	0.215521	0.519918
H115	H	-0.819889	-0.266858	-0.195086
H116	H	-0.319889	0.233142	0.304914
H117	H	-0.923325	0.066391	-0.147434
H118	H	-0.423325	0.566391	0.352566
H119	H	-0.329697	-0.059939	0.004087
H120	H	0.170303	0.440061	0.504087
F121	F	-1.046086	-0.053510	-0.793962
F122	F	-0.546086	0.446490	-0.293962
F123	F	-1.026815	-0.071634	-0.197452
F124	F	-0.526815	0.428366	0.302548
H125	H	-0.812077	-0.274244	-0.359311
H126	H	-0.312077	0.225756	0.140689
F127	F	-0.919192	0.225117	-0.178234
F128	F	-0.419192	0.725117	0.321766
H129	H	-0.147942	-0.306334	0.021415
H130	H	0.352058	0.193666	0.521415
F131	F	-0.510983	-0.289451	0.020254
F132	F	-0.010983	0.210549	0.520254
F133	F	-0.304277	-0.336972	0.023586
F134	F	0.195723	0.163028	0.523586
H135	H	-0.919283	0.439137	-0.103379
H136	H	-0.419283	0.939137	0.396621
F137	F	-0.173372	-0.029304	0.001916
F138	F	0.326628	0.470696	0.501916
F139	F	-0.548930	0.004556	-0.000430
F140	F	-0.048930	0.504556	0.499570
F141	F	-0.717790	-0.009101	0.000545
F142	F	-0.217790	0.490899	0.500545
F143	F	-0.934025	0.442464	0.201395
F144	F	-0.434025	0.942464	0.701395
F145	F	-0.915152	0.597851	-0.134179
F146	F	-0.415152	1.097851	0.365821
F147	F	-0.938065	0.069727	0.157342
F148	F	-0.438065	0.569727	0.657342
H149	H	-0.933931	0.228443	0.126546
H150	H	-0.433931	0.728443	0.626546
H151	H	-0.929877	0.601187	0.170600
H152	H	-0.429877	1.101187	0.670600
H153	H	-1.005150	-0.092080	-0.372102
H154	H	-0.505150	0.407920	0.127898
F155	F	-1.054974	-0.045104	-0.607100
F156	F	-0.554974	0.454896	-0.107100
H157	H	-0.840243	-0.247724	-0.768963
H158	H	-0.340243	0.252276	-0.268963
H159	H	-0.848052	-0.240327	-0.604749
H160	H	-0.348052	0.259673	-0.104749
