data_functionalizedCrystal
_audit_creation_method	'MofGen! by Chris Wilmer'
_symmetry_space_group_name_H-M	'P1'
_symmetry_Int_Tables_number	1
_symmetry_cell_setting	triclinic
loop_
_symmetry_equiv_pos_as_xyz
  x,y,z
_cell_length_a	16.992694
_cell_length_b	19.288865
_cell_length_c	18.366186
_cell_angle_alpha	90.011479
_cell_angle_beta	90.003288
_cell_angle_gamma	86.902236
loop_
_atom_site_label
_atom_site_type_symbol
_atom_site_fract_x
_atom_site_fract_y
_atom_site_fract_z
O1	O	-1.039876	-0.147253	-0.060473
O2	O	-0.811597	-0.145638	-0.060494
O3	O	-0.932333	-0.045699	-0.060468
O4	O	-0.919140	-0.247191	-0.060498
O5	O	-0.932312	-0.045693	0.060631
O6	O	-0.811576	-0.145631	0.060605
O7	O	-1.039856	-0.147247	0.060627
Zn8	Zn	-0.925713	-0.146438	0.079843
Zn9	Zn	-0.925740	-0.146446	-0.079711
O10	O	-0.919120	-0.247185	0.060601
C11	C	-0.782381	-0.143556	0.000053
C12	C	-0.695359	-0.137355	0.000046
C13	C	-0.931898	-0.019795	0.000083
C14	C	-0.930624	0.057383	0.000090
C15	C	-1.069071	-0.149328	0.000078
C16	C	-1.156093	-0.155529	0.000081
C17	C	-0.644907	-0.197184	0.000037
C18	C	-0.563141	-0.191353	0.000048
C19	C	-0.531829	-0.125694	0.000062
C20	C	-0.582287	-0.065862	0.000073
C21	C	-0.664051	-0.071693	0.000067
C22	C	-0.288316	-0.101527	0.000085
C23	C	-0.206545	-0.095701	0.000089
C24	C	-0.187405	-0.221193	0.000066
C25	C	-0.269172	-0.227018	0.000056
C26	C	-0.319623	-0.167186	0.000070
N27	N	-0.448251	-0.119733	0.000071
N28	N	-0.403199	-0.173147	0.000066
C29	C	-0.919555	-0.273089	0.000048
C30	C	-0.920829	-0.350267	0.000036
N31	N	-0.925700	-0.146432	0.188734
C32	C	-1.001466	0.097950	0.000100
C33	C	-1.000269	0.170467	0.000088
C34	C	-0.928225	0.202413	0.000081
C35	C	-0.857374	0.161837	0.000067
C36	C	-0.858573	0.089321	0.000071
C37	C	-0.871584	0.314004	0.042494
C38	C	-0.870387	0.386518	0.042494
C39	C	-0.924524	0.426075	0.000064
C40	C	-0.979870	0.393109	-0.042356
C41	C	-0.981069	0.320594	-0.042352
C42	C	-0.926917	0.281044	0.000076
C43	C	-0.994073	0.545274	0.000061
C44	C	-0.992873	0.617792	0.000045
C45	C	-0.849976	0.609160	0.000031
C46	C	-0.851178	0.536643	0.000040
C47	C	-0.923229	0.504705	0.000058
N48	N	-0.925759	-0.146447	-0.188602
C49	C	-0.979179	-0.102204	0.226846
C50	C	-0.979184	-0.102201	0.303074
C51	C	-0.925717	-0.146439	0.341187
C52	C	-0.872228	-0.190670	0.303066
C53	C	-0.872219	-0.190667	0.226840
C54	C	-0.915223	-0.209115	0.461937
C55	C	-0.915237	-0.209120	0.538162
C56	C	-0.925740	-0.146449	0.576295
C57	C	-0.936245	-0.083772	0.538192
C58	C	-0.936236	-0.083768	0.461966
C59	C	-0.925721	-0.146447	0.423842
C60	C	-0.979227	-0.102214	0.697061
C61	C	-0.979227	-0.102209	0.773290
C62	C	-0.872274	-0.190685	0.773281
C63	C	-0.872271	-0.190683	0.697053
C64	C	-0.925752	-0.146448	0.658948
H65	H	-0.670395	-0.250650	0.000025
H66	H	-0.827497	0.281802	0.077050
H67	H	-1.022735	-0.066183	0.334110
H68	H	-1.026132	0.293756	-0.076894
F69	F	-0.815366	-0.237762	0.813840
H70	H	-0.556786	-0.012400	0.000095
H71	H	-0.705129	-0.022974	0.000074
H72	H	-0.906689	-0.260155	0.569179
F73	F	-1.078149	0.063963	0.000104
H74	H	-1.052741	0.519268	0.000073
F75	F	-0.509450	-0.255031	0.000036
F76	F	-0.342000	-0.037847	0.000101
F77	F	-0.947428	-0.017068	0.578769
H78	H	-0.181054	-0.042230	0.000100
F79	F	-1.075672	0.213651	0.000098
F80	F	-1.037490	0.435203	-0.087518
H81	H	-0.825318	0.413353	0.077032
F82	F	-0.783169	0.046145	0.000060
F83	F	-0.773301	0.643154	0.000019
H84	H	-1.050564	0.650821	0.000049
F85	F	-0.775777	0.493466	0.000032
H86	H	-0.828693	-0.226688	0.334102
H87	H	-0.798715	0.187852	0.000059
F88	F	-1.036094	-0.055123	0.186293
H89	H	-1.022772	-0.066193	0.666035
F90	F	-0.947409	-0.017064	0.421418
H91	H	-1.022774	-0.066190	0.804322
F92	F	-0.815354	-0.237760	0.656489
H93	H	-0.294660	-0.280485	0.000036
H94	H	-0.906657	-0.260152	0.430896
H95	H	-0.828669	-0.226684	0.195808
H96	H	-0.146320	-0.269905	0.000055
