data_functionalizedCrystal
_audit_creation_method	'MofGen! by Chris Wilmer'
_symmetry_space_group_name_H-M	'P1'
_symmetry_Int_Tables_number	1
_symmetry_cell_setting	triclinic
loop_
_symmetry_equiv_pos_as_xyz
  x,y,z
_cell_length_a	10.723022
_cell_length_b	10.723023
_cell_length_c	16.776229
_cell_angle_alpha	89.994384
_cell_angle_beta	89.993181
_cell_angle_gamma	84.467387
loop_
_atom_site_label
_atom_site_type_symbol
_atom_site_fract_x
_atom_site_fract_y
_atom_site_fract_z
O1	O	1.657194	0.175021	-0.066281
O2	O	1.294041	0.191776	-0.066284
O3	O	1.483994	0.001822	-0.066279
O4	O	1.467240	0.364975	-0.066286
O5	O	1.483969	0.001810	0.066297
O6	O	1.294015	0.191764	0.066293
O7	O	1.657168	0.175009	0.066295
Zn8	Zn	1.475588	0.183385	0.087343
Zn9	Zn	1.475621	0.183401	-0.087332
O10	O	1.467215	0.364963	0.066291
C11	C	1.247529	0.190551	0.000004
C12	C	1.108974	0.186904	0.000003
C13	C	1.482763	-0.044683	0.000008
C14	C	1.479115	-0.183238	0.000006
C15	C	0.890796	0.289421	-0.000000
C16	C	1.033998	0.293192	0.000001
C17	C	1.473706	-0.388218	0.068679
C18	C	1.477476	-0.245015	0.068683
C19	C	1.703681	0.176234	0.000006
C20	C	1.842235	0.179881	0.000001
C21	C	1.468446	0.411469	0.000002
C22	C	1.472094	0.550023	-0.000001
N23	N	1.475574	0.183373	0.206555
N24	N	1.475645	0.183402	-0.206543
C25	C	1.559711	0.099297	0.248274
C26	C	1.559718	0.099296	0.331726
C27	C	1.475593	0.183378	0.373458
C28	C	1.391446	0.267459	0.331733
C29	C	1.391434	0.267453	0.248282
C30	C	1.391491	0.267484	0.668280
C31	C	1.391512	0.267486	0.751736
C32	C	1.559776	0.099327	0.751724
C33	C	1.559764	0.099321	0.668273
C34	C	1.475613	0.183396	0.626556
C35	C	1.475605	0.183395	0.536067
C36	C	1.475606	0.183387	0.463944
H37	H	1.075810	0.386980	0.000004
H38	H	1.477735	-0.236342	-0.058797
H39	H	1.473494	-0.396833	-0.058797
H40	H	1.067171	0.093113	-0.000016
H41	H	0.826353	0.380409	-0.000007
C42	C	1.652332	0.006829	0.797612
H43	H	1.702439	-0.043237	0.760805
H44	H	1.607010	-0.045532	0.830176
H45	H	1.704667	0.052204	0.830155
H46	H	1.628229	0.030833	0.365693
H47	H	0.906677	0.088892	-0.000002
H48	H	1.628221	0.030832	0.214301
C49	C	1.298965	0.359992	0.622397
H50	H	1.310999	0.347951	0.566720
H51	H	1.313252	0.443394	0.636073
H52	H	1.215558	0.345695	0.636081
C53	C	1.471806	-0.459997	0.148110
H54	H	1.469532	-0.546831	0.137687
H55	H	1.399719	-0.429835	0.177826
H56	H	1.545017	-0.447623	0.177819
H57	H	1.478870	-0.191904	0.127482
H58	H	1.323003	0.335958	0.785713
H59	H	1.628271	0.030857	0.634298
H60	H	1.322919	0.335915	0.214315
C61	C	1.298912	0.359950	0.377635
H62	H	1.310977	0.347923	0.433311
H63	H	1.215512	0.345638	0.363974
H64	H	1.313180	0.443363	0.363946
