data_functionalizedCrystal
_audit_creation_method	'MofGen! by Chris Wilmer'
_symmetry_space_group_name_H-M	'P1'
_symmetry_Int_Tables_number	1
_symmetry_cell_setting	triclinic
loop_
_symmetry_equiv_pos_as_xyz
  x,y,z
_cell_length_a	18.101398
_cell_length_b	18.101395
_cell_length_c	12.759393
_cell_angle_alpha	89.967630
_cell_angle_beta	89.986513
_cell_angle_gamma	90.026661
loop_
_atom_site_label
_atom_site_type_symbol
_atom_site_fract_x
_atom_site_fract_y
_atom_site_fract_z
Zn1	Zn	1.132148	-0.294882	-0.593797
Zn2	Zn	1.132036	-0.418741	-0.418112
Zn3	Zn	1.008299	-0.294908	-0.418155
Zn4	Zn	1.008258	-0.418676	-0.593772
O5	O	1.070185	-0.356802	-0.505959
O6	O	1.235766	-0.311328	-0.570485
O7	O	1.115592	-0.402352	-0.271096
O8	O	1.024792	-0.191272	-0.441484
O9	O	1.235684	-0.402327	-0.441409
O10	O	1.115784	-0.191252	-0.570527
O11	O	1.024683	-0.311373	-0.271129
O12	O	0.904661	-0.311310	-0.441459
O13	O	1.024722	-0.402217	-0.740796
O14	O	0.904631	-0.402242	-0.570484
O15	O	1.115744	-0.311265	-0.740815
O16	O	1.115552	-0.522365	-0.441385
O17	O	1.024613	-0.522318	-0.570441
C18	C	0.877775	-0.356773	-0.505974
C19	C	0.795461	-0.356778	-0.506005
C20	C	0.496370	-0.356822	-0.505961
C21	C	0.527701	-0.414310	-0.586739
C22	C	0.613319	-0.414130	-0.587071
C23	C	0.644752	-0.356801	-0.505983
C24	C	0.613699	-0.278796	-0.536237
C25	C	0.528054	-0.279141	-0.536811
C26	C	0.527912	-0.376650	-0.394734
C27	C	0.613562	-0.378361	-0.395329
C28	C	0.728612	-0.356784	-0.505993
C29	C	0.412510	-0.356833	-0.505953
C30	C	1.070086	-0.549212	-0.505928
C31	C	1.070112	-0.631526	-0.505950
C32	C	1.070274	-0.930617	-0.506007
C33	C	1.013190	-0.899293	-0.587407
C34	C	1.012919	-0.813675	-0.587153
C35	C	1.070193	-0.782235	-0.505980
C36	C	1.049059	-0.813391	-0.395258
C37	C	1.048691	-0.899037	-0.395745
C38	C	1.148617	-0.898965	-0.534353
C39	C	1.148157	-0.813314	-0.536782
C40	C	1.070149	-0.698375	-0.505957
C41	C	1.070317	-1.014477	-0.506021
C42	C	1.263347	-0.356832	-0.505945
C43	C	1.345661	-0.356844	-0.505939
C44	C	1.070241	-0.356731	-0.779993
C45	C	1.070264	-0.356700	-0.896769
C46	C	1.070305	-0.163640	-0.506013
C47	C	1.070356	-0.081326	-0.506036
C48	C	1.117663	-0.309334	-0.951643
C49	C	1.117675	-0.309303	-1.061367
C50	C	1.022889	-0.404009	-1.061335
C51	C	1.022873	-0.404036	-0.951612
C52	C	1.070173	-0.356819	-0.232992
C53	C	1.070293	-0.356641	-0.116216
H54	H	0.634959	-0.339530	-0.331911
H55	H	1.088465	-0.919761	-0.333028
H56	H	1.156271	-0.270731	-1.106040
H57	H	0.954849	-0.793249	-0.568377
H58	H	0.984270	-0.442607	-0.906933
H59	H	0.634313	-0.471974	-0.568110
H60	H	0.507084	-0.472343	-0.567990
H61	H	0.984306	-0.442550	-1.106001
H62	H	1.089328	-0.793028	-0.332955
H63	H	0.992397	-0.792004	-0.370813
H64	H	0.635168	-0.261676	-0.616665
H65	H	1.156250	-0.270788	-0.906993
H66	H	1.191147	-0.919222	-0.475066
H67	H	0.506194	-0.401357	-0.668675
H68	H	0.508097	-0.262325	-0.618123
H69	H	0.633825	-0.401010	-0.669483
H70	H	0.955474	-0.920876	-0.568868
H71	H	0.507330	-0.234773	-0.480674
H72	H	0.506297	-0.432558	-0.367240
H73	H	0.634061	-0.234802	-0.479237
H74	H	0.633865	-0.435761	-0.372511
H75	H	0.507651	-0.334775	-0.334547
H76	H	1.164094	-0.792947	-0.618267
H77	H	1.026142	-0.792607	-0.669252
H78	H	1.026282	-0.919837	-0.669773
H79	H	0.991423	-0.919077	-0.371730
H80	H	1.167885	-0.920510	-0.613715
H81	H	1.192937	-0.791909	-0.481814
