data_functionalizedCrystal
_audit_creation_method	'MofGen! by Chris Wilmer'
_symmetry_space_group_name_H-M	'P1'
_symmetry_Int_Tables_number	1
_symmetry_cell_setting	triclinic
loop_
_symmetry_equiv_pos_as_xyz
  x,y,z
_cell_length_a	21.295417
_cell_length_b	12.759395
_cell_length_c	21.295412
_cell_angle_alpha	90.021107
_cell_angle_beta	89.969332
_cell_angle_gamma	89.967956
loop_
_atom_site_label
_atom_site_type_symbol
_atom_site_fract_x
_atom_site_fract_y
_atom_site_fract_z
Zn1	Zn	-0.250599	-1.606159	-0.355871
Zn2	Zn	-0.355868	-1.606000	-0.250596
Zn3	Zn	-0.250619	-1.430456	-0.250620
Zn4	Zn	-0.355837	-1.430402	-0.355833
O5	O	-0.303231	-1.518254	-0.303230
O6	O	-0.264568	-1.753159	-0.341912
O7	O	-0.341927	-1.582669	-0.162510
O8	O	-0.162527	-1.453853	-0.264608
O9	O	-0.341908	-1.753042	-0.264567
O10	O	-0.162512	-1.582942	-0.341935
O11	O	-0.264601	-1.453698	-0.162528
O12	O	-0.264572	-1.283428	-0.264571
O13	O	-0.341856	-1.453760	-0.443927
O14	O	-0.341875	-1.283388	-0.341870
O15	O	-0.264538	-1.582889	-0.443955
O16	O	-0.443953	-1.582617	-0.264530
O17	O	-0.443931	-1.453605	-0.341847
C18	C	-0.303223	-1.245287	-0.303219
C19	C	-0.303235	-1.128510	-0.303230
C20	C	-0.466782	-1.518116	-0.303195
C21	C	-0.536750	-1.518154	-0.303201
C22	C	-0.303192	-1.518336	-0.467420
C23	C	-0.303175	-1.518371	-0.537389
C24	C	-0.569608	-1.585389	-0.262984
C25	C	-0.635350	-1.585439	-0.262998
C26	C	-0.668233	-1.518233	-0.303223
C27	C	-0.635368	-1.450993	-0.343448
C28	C	-0.569626	-1.450953	-0.343438
N29	N	-0.771500	-1.426326	-0.308018
N30	N	-0.833952	-1.426367	-0.308025
C31	C	-0.866308	-1.518351	-0.303259
N32	N	-0.833853	-1.610294	-0.298474
N33	N	-0.771396	-1.610252	-0.298464
C34	C	-0.739518	-1.518270	-0.303240
C35	C	-0.970450	-1.585646	-0.263055
C36	C	-1.036194	-1.585697	-0.263073
C37	C	-1.036210	-1.451242	-0.343520
C38	C	-0.970468	-1.451200	-0.343505
C39	C	-0.937592	-1.518401	-0.303269
C40	C	-0.139040	-1.518421	-0.303279
C41	C	-0.069072	-1.518492	-0.303300
C42	C	-0.303239	-1.792288	-0.303241
C43	C	-0.303242	-1.909064	-0.303246
C44	C	-0.383861	-1.128507	-0.383591
C45	C	-0.424179	-1.073645	-0.423773
C46	C	-0.424187	-0.963923	-0.423781
C47	C	-0.383871	-0.909061	-0.383603
C48	C	-0.343553	-0.963924	-0.343421
C49	C	-0.343551	-1.073648	-0.343416
C50	C	-0.262924	-0.963926	-0.263064
C51	C	-0.262919	-1.073648	-0.263052
C52	C	-0.222608	-0.909065	-0.222886
C53	C	-0.182292	-0.963927	-0.182700
C54	C	-0.182287	-1.073655	-0.182693
C55	C	-0.222601	-1.128510	-0.222870
C56	C	-0.262907	-1.451234	-0.570254
C57	C	-0.262895	-1.451230	-0.635997
C58	C	-0.303145	-1.518383	-0.668871
C59	C	-0.343421	-1.585525	-0.635997
C60	C	-0.343436	-1.585519	-0.570256
N61	N	-0.307951	-1.610352	-0.772107
N62	N	-0.307933	-1.610354	-0.834559
C63	C	-0.303103	-1.518402	-0.866946
N64	N	-0.298279	-1.426445	-0.834523
N65	N	-0.298294	-1.426444	-0.772065
C66	C	-0.303133	-1.518396	-0.740157
C67	C	-0.262820	-1.451255	-0.971097
C68	C	-0.262813	-1.451249	-1.036841
C69	C	-0.343335	-1.585553	-1.036840
C70	C	-0.343346	-1.585550	-0.971098
C71	C	-0.303085	-1.518402	-0.938230
C72	C	-0.303224	-1.518233	-0.139679
C73	C	-0.303064	-1.518401	-0.069711
H74	H	-0.662108	-1.640194	-0.230248
N75	N	-0.384443	-1.654162	-1.070411
N76	N	-0.380272	-1.751112	-1.063091
H77	H	-0.409307	-1.799567	-1.086803
H78	H	-0.222615	-0.819724	-0.222898
N79	N	-0.141111	-1.129708	-0.141646
N80	N	-0.141111	-1.227673	-0.141640
H81	H	-0.112030	-1.267260	-0.112649
H82	H	-0.149467	-0.919250	-0.149993
N83	N	-0.221679	-1.382649	-1.070406
N84	N	-0.185740	-1.322703	-1.041049
H85	H	-0.156689	-1.274252	-1.064753
H86	H	-0.662145	-1.396276	-0.376201
N87	N	-1.069790	-1.382576	-0.384601
N88	N	-1.062505	-1.285630	-0.380371
H89	H	-1.086223	-1.237133	-0.409386
N90	N	-0.536070	-1.382266	-0.384527
N91	N	-0.565433	-1.322272	-0.420444
H92	H	-0.541733	-1.273759	-0.449464
N93	N	-0.383858	-1.240584	-0.383566
N94	N	-0.396943	-1.289496	-0.334429
H95	H	-0.396942	-1.368653	-0.334410
N96	N	-0.465370	-1.129668	-0.464809
N97	N	-0.501367	-1.080671	-0.500680
H98	H	-0.530459	-1.120233	-0.529662
N99	N	-0.384482	-1.654138	-0.937532
N100	N	-0.420420	-1.714088	-0.966888
H101	H	-0.449477	-1.762530	-0.943183
H102	H	-0.376226	-1.640195	-0.543497
N103	N	-0.936873	-1.654293	-0.221953
N104	N	-0.966222	-1.714329	-0.186050
H105	H	-0.942510	-1.762812	-0.157021
H106	H	-0.943714	-1.396446	-0.376251
N107	N	-0.222600	-1.240588	-0.222879
N108	N	-0.209514	-1.289597	-0.272011
H109	H	-0.209514	-1.368754	-0.272023
H110	H	-0.230126	-1.396553	-0.543498
N111	N	-0.465369	-0.907893	-0.464833
N112	N	-0.501359	-0.956881	-0.500705
H113	H	-0.530444	-0.917311	-0.529699
H114	H	-1.062945	-1.640455	-0.230325
H115	H	-0.230101	-1.396560	-0.662762
H116	H	-0.383875	-0.819720	-0.383618
H117	H	-0.376192	-1.640201	-0.662768
H118	H	-0.230038	-1.396578	-0.944335
H119	H	-0.542842	-1.640111	-0.230223
