data_functionalizedCrystal
_audit_creation_method	'MofGen! by Chris Wilmer'
_symmetry_space_group_name_H-M	'P1'
_symmetry_Int_Tables_number	1
_symmetry_cell_setting	triclinic
loop_
_symmetry_equiv_pos_as_xyz
  x,y,z
_cell_length_a	13.897448
_cell_length_b	12.827893
_cell_length_c	12.827885
_cell_angle_alpha	89.980728
_cell_angle_beta	90.032466
_cell_angle_gamma	89.982337
loop_
_atom_site_label
_atom_site_type_symbol
_atom_site_fract_x
_atom_site_fract_y
_atom_site_fract_z
Zn1	Zn	-0.383967	-1.597653	0.590831
Zn2	Zn	-0.545294	-1.597540	0.416083
Zn3	Zn	-0.384015	-1.422894	0.416104
Zn4	Zn	-0.545222	-1.422873	0.590783
O5	O	-0.464624	-1.510240	0.503450
O6	O	-0.405378	-1.743874	0.567661
O7	O	-0.523950	-1.574335	0.269850
O8	O	-0.249027	-1.446133	0.439311
O9	O	-0.523904	-1.743791	0.439275
O10	O	-0.248992	-1.574527	0.567681
O11	O	-0.405459	-1.446023	0.269865
O12	O	-0.405389	-1.276655	0.439265
O13	O	-0.523781	-1.446096	0.737026
O14	O	-0.523827	-1.276639	0.567601
O15	O	-0.405308	-1.574506	0.737060
O16	O	-0.680266	-1.574314	0.439229
O17	O	-0.680213	-1.445986	0.567580
C18	C	-0.464606	-1.238730	0.503430
C19	C	-0.464621	-1.122577	0.503447
C20	C	-0.715239	-1.510164	0.503420
C21	C	-0.822453	-1.510227	0.503442
C22	C	-0.464531	-1.510311	0.776021
C23	C	-0.464491	-1.510341	0.892174
C24	C	-1.018748	-1.510336	0.503508
C25	C	-0.909515	-1.510272	0.503474
C26	C	-0.213031	-1.510345	0.503504
C27	C	-0.105817	-1.510390	0.503526
C28	C	-0.464644	-1.782810	0.503471
C29	C	-0.464652	-1.898963	0.503480
C30	C	-0.523320	-1.070812	0.566853
C31	C	-0.523337	-0.950762	0.566872
C32	C	-0.464648	-1.510229	0.231940
C33	C	-0.464416	-1.510401	0.115788
C34	C	-0.523101	-1.573841	0.943951
C35	C	-0.523061	-1.573874	1.064001
H36	H	-0.573557	-1.115371	0.621128
H37	H	-0.573304	-1.628185	0.899403
O38	O	-0.583380	-0.897824	0.631674
C39	C	-0.637921	-0.969303	0.690634
H40	H	-0.641272	-1.047113	0.647882
H41	H	-0.602686	-0.980919	0.770073
C42	C	-0.736450	-0.831017	0.757988
C43	C	-0.740573	-0.926582	0.705475
H44	H	-0.799770	-0.804664	0.767147
H45	H	-0.699703	-0.782859	0.718269
H46	H	-0.707084	-0.840710	0.824181
H47	H	-0.769928	-0.916886	0.639278
H48	H	-0.777328	-0.974738	0.745183
O49	O	-0.404561	-0.951940	0.438761
C50	C	-0.308428	-0.925395	0.461776
H51	H	-0.306415	-0.846142	0.501896
H52	H	-0.276040	-0.986836	0.515607
C53	C	-0.252360	-1.017798	0.310730
C54	C	-0.249887	-0.920454	0.359998
H55	H	-0.216247	-1.014754	0.247950
H56	H	-0.317126	-1.035685	0.295225
H57	H	-0.225372	-1.068989	0.355599
H58	H	-0.276886	-0.869268	0.315134
H59	H	-0.185124	-0.902558	0.375492
O60	O	-0.582786	-1.638849	1.117157
C61	C	-0.527798	-1.706308	1.180329
H62	H	-0.451865	-1.712809	1.147390
H63	H	-0.524380	-1.673949	1.263008
C64	C	-0.668184	-1.806942	1.222598
C65	C	-0.574924	-1.814933	1.182136
H66	H	-0.697254	-1.873946	1.223718
H67	H	-0.705231	-1.761491	1.180042
H68	H	-0.665323	-1.779972	1.291494
H69	H	-0.577787	-1.841890	1.113238
H70	H	-0.537878	-1.860391	1.224681
O71	O	-0.404683	-1.445487	1.062568
C72	C	-0.459672	-1.377990	0.999437
H73	H	-0.532793	-1.414826	0.983180
H74	H	-0.470214	-1.300517	1.041432
C75	C	-0.316913	-1.313912	0.915677
C76	C	-0.406719	-1.359159	0.895702
H77	H	-0.284248	-1.302292	0.851690
H78	H	-0.279865	-1.359383	0.958212
H79	H	-0.325711	-1.249357	0.950675
H80	H	-0.397919	-1.423719	0.860717
H81	H	-0.443764	-1.313699	0.853159
H82	H	-0.414280	-1.456006	0.936722
H83	H	-0.414376	-1.078018	0.449180
