data_functionalizedCrystal
_audit_creation_method	'MofGen! by Chris Wilmer'
_symmetry_space_group_name_H-M	'P1'
_symmetry_Int_Tables_number	1
_symmetry_cell_setting	triclinic
loop_
_symmetry_equiv_pos_as_xyz
  x,y,z
_cell_length_a	16.625546
_cell_length_b	19.077142
_cell_length_c	19.076919
_cell_angle_alpha	90.074357
_cell_angle_beta	87.730083
_cell_angle_gamma	92.282081
loop_
_atom_site_label
_atom_site_type_symbol
_atom_site_fract_x
_atom_site_fract_y
_atom_site_fract_z
Zn1	Zn	-0.390096	-1.058281	0.440442
Zn2	Zn	-0.140096	-0.808281	0.690442
Zn3	Zn	0.109904	-0.558281	0.940442
Zn4	Zn	0.359904	-0.308281	1.190442
Zn5	Zn	-0.519739	-1.062925	0.322932
Zn6	Zn	-0.269739	-0.812925	0.572932
Zn7	Zn	-0.019739	-0.562925	0.822932
Zn8	Zn	0.230261	-0.312925	1.072932
Zn9	Zn	-0.379293	-0.945499	0.318232
Zn10	Zn	-0.129293	-0.695499	0.568232
Zn11	Zn	0.120707	-0.445499	0.818232
Zn12	Zn	0.370707	-0.195499	1.068232
Zn13	Zn	-0.519251	-0.940747	0.435680
Zn14	Zn	-0.269251	-0.690747	0.685680
Zn15	Zn	-0.019251	-0.440747	0.935680
Zn16	Zn	0.230749	-0.190747	1.185680
O17	O	-0.452095	-1.001863	0.379321
O18	O	-0.202095	-0.751863	0.629321
O19	O	0.047905	-0.501863	0.879321
O20	O	0.297905	-0.251863	1.129321
O21	O	-0.412019	-1.157229	0.428814
O22	O	-0.162019	-0.907229	0.678814
O23	O	0.087981	-0.657229	0.928814
O24	O	0.337981	-0.407229	1.178814
O25	O	-0.496792	-1.051280	0.223977
O26	O	-0.246792	-0.801280	0.473977
O27	O	0.003208	-0.551280	0.723977
O28	O	0.253208	-0.301280	0.973977
O29	O	-0.267897	-0.960505	0.334469
O30	O	-0.017897	-0.710505	0.584469
O31	O	0.232103	-0.460505	0.834469
O32	O	0.482103	-0.210505	1.084469
O33	O	-0.507268	-1.160641	0.342479
O34	O	-0.257268	-0.910641	0.592479
O35	O	-0.007268	-0.660641	0.842479
O36	O	0.242732	-0.410641	1.092479
O37	O	-0.275834	-1.043365	0.424256
O38	O	-0.025834	-0.793365	0.674256
O39	O	0.224166	-0.543365	0.924256
O40	O	0.474166	-0.293365	1.174256
O41	O	-0.393606	-0.965008	0.220524
O42	O	-0.143606	-0.715008	0.470524
O43	O	0.106394	-0.465008	0.720524
O44	O	0.356394	-0.215008	0.970524
O45	O	-0.393133	-0.846537	0.329852
O46	O	-0.143133	-0.596537	0.579852
O47	O	0.106867	-0.346537	0.829852
O48	O	0.356867	-0.096537	1.079852
O49	O	-0.506435	-0.952406	0.534643
O50	O	-0.256435	-0.702406	0.784643
O51	O	-0.006435	-0.452406	1.034643
O52	O	0.243565	-0.202406	1.284643
O53	O	-0.495959	-0.843046	0.416141
O54	O	-0.245959	-0.593046	0.666141
O55	O	0.004041	-0.343046	0.916141
O56	O	0.254041	-0.093046	1.166141
O57	O	-0.411546	-1.038758	0.538141
O58	O	-0.161546	-0.788758	0.788141
O59	O	0.088454	-0.538758	1.038141
O60	O	0.338454	-0.288758	1.288141
O61	O	-0.632504	-1.046673	0.337862
O62	O	-0.382504	-0.796673	0.587862
O63	O	-0.132504	-0.546673	0.837862
O64	O	0.117496	-0.296673	1.087862
O65	O	-0.632145	-0.956909	0.420698
O66	O	-0.382145	-0.706909	0.670698
O67	O	-0.132145	-0.456909	0.920698
O68	O	0.117855	-0.206909	1.170698
C69	C	-0.443321	-0.819295	0.371970
C70	C	-0.193321	-0.569295	0.621970
C71	C	0.056679	-0.319295	0.871970
C72	C	0.306679	-0.069295	1.121970
C73	C	-0.439588	-0.741191	0.368842
C74	C	-0.189588	-0.491191	0.618842
C75	C	0.060412	-0.241191	0.868842
C76	C	0.310412	0.008809	1.118842
C77	C	-0.491445	-0.702701	0.412227
C78	C	-0.241445	-0.452701	0.662227
C79	C	0.008555	-0.202701	0.912227
C80	C	0.258555	0.047299	1.162227
C81	C	-0.487927	-0.629313	0.409291
C82	C	-0.237927	-0.379313	0.659291
C83	C	0.012073	-0.129313	0.909291
C84	C	0.262073	0.120687	1.159291
C85	C	-0.432555	-0.594417	0.362966
C86	C	-0.182555	-0.344417	0.612966
C87	C	0.067445	-0.094417	0.862966
C88	C	0.317445	0.155583	1.112966
C89	C	-0.380693	-0.632913	0.319578
C90	C	-0.130693	-0.382913	0.569578
C91	C	0.119307	-0.132913	0.819578
C92	C	0.369307	0.117087	1.069578
C93	C	-0.384207	-0.706298	0.322518
C94	C	-0.134207	-0.456298	0.572518
C95	C	0.115793	-0.206298	0.822518
C96	C	0.365793	0.043702	1.072518
C97	C	-0.416291	-0.375130	0.349366
C98	C	-0.166291	-0.125130	0.599366
C99	C	0.083709	0.124870	0.849366
C100	C	0.333709	0.374870	1.099366
C101	C	-0.412781	-0.301739	0.346428
C102	C	-0.162781	-0.051739	0.596428
C103	C	0.087219	0.198261	0.846428
C104	C	0.337219	0.448261	1.096428
C105	C	-0.520015	-0.298145	0.436142
C106	C	-0.270015	-0.048145	0.686142
C107	C	-0.020015	0.201855	0.936142
C108	C	0.229985	0.451855	1.186142
C109	C	-0.523528	-0.371532	0.439075
C110	C	-0.273528	-0.121532	0.689075
C111	C	-0.023528	0.128468	0.939075
C112	C	0.226472	0.378468	1.189075
C113	C	-0.471663	-0.410021	0.395691
C114	C	-0.221663	-0.160021	0.645691
C115	C	0.028337	0.089979	0.895691
C116	C	0.278337	0.339979	1.145691
N117	N	-0.428960	-0.519404	0.359962
N118	N	-0.178960	-0.269404	0.609962
N119	N	0.071040	-0.019404	0.859962
N120	N	0.321040	0.230596	1.109962
N121	N	-0.475255	-0.485033	0.398698
N122	N	-0.225255	-0.235033	0.648698
N123	N	0.024745	0.014967	0.898698
N124	N	0.274745	0.264967	1.148698
C125	C	-0.661581	-1.001798	0.379289
C126	C	-0.411581	-0.751798	0.629289
C127	C	-0.161581	-0.501798	0.879289
C128	C	0.088419	-0.251798	1.129289
C129	C	-0.751205	-1.001833	0.379302
C130	C	-0.501205	-0.751833	0.629302
C131	C	-0.251205	-0.501833	0.879302
C132	C	-0.001205	-0.251833	1.129302
C133	C	-1.079389	-1.001953	0.379380
C134	C	-0.829389	-0.751953	0.629380
C135	C	-0.579389	-0.501953	0.879380
C136	C	-0.329389	-0.251953	1.129380
C137	C	-0.988078	-1.001917	0.379360
C138	C	-0.738078	-0.751917	0.629360
C139	C	-0.488078	-0.501917	0.879360
C140	C	-0.238078	-0.251917	1.129360
C141	C	-0.915300	-1.001892	0.379340
C142	C	-0.665300	-0.751892	0.629340
C143	C	-0.415300	-0.501892	0.879340
C144	C	-0.165300	-0.251892	1.129340
C145	C	-0.823983	-1.001858	0.379321
C146	C	-0.573983	-0.751858	0.629321
C147	C	-0.323983	-0.501858	0.879321
C148	C	-0.073983	-0.251858	1.129321
C149	C	-0.241792	-1.001947	0.379370
C150	C	0.008208	-0.751947	0.629370
C151	C	0.258208	-0.501947	0.879370
C152	C	0.508208	-0.251947	1.129370
C153	C	-0.152173	-1.001983	0.379390
C154	C	0.097827	-0.751983	0.629390
C155	C	0.347827	-0.501983	0.879390
C156	C	0.597827	-0.251983	1.129390
C157	C	-0.460141	-0.994534	0.562601
C158	C	-0.210141	-0.744534	0.812601
C159	C	0.039859	-0.494534	1.062601
C160	C	0.289859	-0.244534	1.312601
C161	C	-0.463570	-0.991411	0.640704
C162	C	-0.213570	-0.741411	0.890704
C163	C	0.036430	-0.491411	1.140704
C164	C	0.286430	-0.241411	1.390704
C165	C	-0.460899	-0.185145	0.386693
C166	C	-0.210899	0.064855	0.636693
C167	C	0.039101	0.314855	0.886693
C168	C	0.289101	0.564855	1.136693
C169	C	-0.464638	-0.263249	0.389814
C170	C	-0.214638	-0.013249	0.639814
C171	C	0.035362	0.236751	0.889814
C172	C	0.285362	0.486751	1.139814
C173	C	-0.444024	-1.009204	0.196756
C174	C	-0.194024	-0.759204	0.446756
C175	C	0.055976	-0.509204	0.696756
C176	C	0.305976	-0.259204	0.946756
C177	C	-0.440374	-1.012464	0.118659
C178	C	-0.190374	-0.762464	0.368659
C179	C	0.059626	-0.512464	0.618659
C180	C	0.309626	-0.262464	0.868659
C181	C	-0.415779	-1.034900	0.679219
C182	C	-0.165779	-0.784900	0.929219
C183	C	0.084221	-0.534900	1.179219
C184	C	0.334221	-0.284900	1.429219
C185	C	-0.418997	-1.031957	0.752605
C186	C	-0.168997	-0.781957	1.002605
C187	C	0.081003	-0.531957	1.252605
C188	C	0.331003	-0.281957	1.502605
C189	C	-0.470011	-0.985527	0.787474
C190	C	-0.220011	-0.735527	1.037474
C191	C	0.029989	-0.485527	1.287474
C192	C	0.279989	-0.235527	1.537474
C193	C	-0.517804	-0.942033	0.748953
C194	C	-0.267804	-0.692033	0.998953
C195	C	-0.017804	-0.442033	1.248953
C196	C	0.232196	-0.192033	1.498953
C197	C	-0.514581	-0.944973	0.675569
C198	C	-0.264581	-0.694973	0.925569
C199	C	-0.014581	-0.444973	1.175569
C200	C	0.235419	-0.194973	1.425569
C201	C	-0.484944	-0.971910	1.006754
C202	C	-0.234944	-0.721910	1.256754
C203	C	0.015056	-0.471910	1.506754
C204	C	0.265056	-0.221910	1.756754
C205	C	-0.488165	-0.968974	1.080144
C206	C	-0.238165	-0.718974	1.330144
C207	C	0.011835	-0.468974	1.580144
C208	C	0.261835	-0.218974	1.830144
C209	C	-0.389357	-1.058897	1.083791
C210	C	-0.139357	-0.808897	1.333791
C211	C	0.110643	-0.558897	1.583791
C212	C	0.360643	-0.308897	1.833791
C213	C	-0.386142	-1.061836	1.010405
C214	C	-0.136142	-0.811836	1.260405
C215	C	0.113858	-0.561836	1.510405
C216	C	0.363858	-0.311836	1.760405
C217	C	-0.433932	-1.018340	0.971890
C218	C	-0.183932	-0.768340	1.221890
C219	C	0.066068	-0.518340	1.471890
C220	C	0.316068	-0.268340	1.721890
N221	N	-0.473304	-0.982519	0.862486
N222	N	-0.223304	-0.732519	1.112486
N223	N	0.026696	-0.482519	1.362486
N224	N	0.276696	-0.232519	1.612486
N225	N	-0.430634	-1.021344	0.896880
N226	N	-0.180634	-0.771344	1.146880
N227	N	0.069366	-0.521344	1.396880
N228	N	0.319366	-0.271344	1.646880
H229	H	-0.568620	-0.399939	0.476797
H230	H	-0.318620	-0.149939	0.726797
H231	H	-0.068620	0.100061	0.976797
H232	H	0.181380	0.350061	1.226797
H233	H	-0.530156	-0.597978	0.444620
H234	H	-0.280156	-0.347978	0.694620
H235	H	-0.030156	-0.097978	0.944620
H236	H	0.219844	0.152022	1.194620
H237	H	-0.374064	-0.406459	0.314034
H238	H	-0.124064	-0.156459	0.564034
H239	H	0.125936	0.093541	0.814034
H240	H	0.375936	0.343541	1.064034
H241	H	-0.341976	-0.737636	0.287193
H242	H	-0.091976	-0.487636	0.537193
H243	H	0.158024	-0.237636	0.787193
H244	H	0.408024	0.012364	1.037193
H245	H	-0.523870	-0.936502	0.975405
H246	H	-0.273870	-0.686502	1.225405
H247	H	-0.023870	-0.436502	1.475405
H248	H	0.226130	-0.186502	1.725405
H249	H	-0.562240	-0.266799	0.471465
H250	H	-0.312240	-0.016799	0.721465
H251	H	-0.062240	0.233201	0.971465
H252	H	0.187760	0.483201	1.221465
H253	H	-0.374241	-1.072710	0.650835
H254	H	-0.124241	-0.822710	0.900835
H255	H	0.125759	-0.572710	1.150835
H256	H	0.375759	-0.322710	1.400835
H257	H	-0.335604	-0.604494	0.281862
H258	H	-0.085604	-0.354494	0.531862
H259	H	0.164396	-0.104494	0.781862
H260	H	0.414396	0.145506	1.031862
H261	H	-0.380083	-1.067372	0.783961
H262	H	-0.130083	-0.817372	1.033961
H263	H	0.119917	-0.567372	1.283961
H264	H	0.369917	-0.317372	1.533961
H265	H	-0.367682	-0.273329	0.308708
H266	H	-0.117682	-0.023329	0.558708
H267	H	0.132318	0.226671	0.808708
H268	H	0.382318	0.476671	1.058708
H269	H	-0.344604	-1.099646	0.982020
H270	H	-0.094604	-0.849646	1.232020
H271	H	0.155396	-0.599646	1.482020
H272	H	0.405396	-0.349646	1.732020
H273	H	-0.553489	-0.909553	0.644210
H274	H	-0.303489	-0.659553	0.894210
H275	H	-0.053489	-0.409553	1.144210
H276	H	0.196511	-0.159553	1.394210
H277	H	-0.350449	-1.094308	1.115157
H278	H	-0.100449	-0.844308	1.365157
H279	H	0.149551	-0.594308	1.615157
H280	H	0.399551	-0.344308	1.865157
H281	H	-0.529708	-0.931164	1.108532
H282	H	-0.279708	-0.681164	1.358532
H283	H	-0.029708	-0.431164	1.608532
H284	H	0.220292	-0.181164	1.858532
H285	H	-0.536538	-0.731108	0.449948
H286	H	-0.286538	-0.481108	0.699948
H287	H	-0.036538	-0.231108	0.949948
H288	H	0.213462	0.018892	1.199948
H289	H	-0.559337	-0.904227	0.777349
H290	H	-0.309337	-0.654227	1.027349
H291	H	-0.059337	-0.404227	1.277349
H292	H	0.190663	-0.154227	1.527349
