data_functionalizedCrystal
_audit_creation_method	'MofGen! by Chris Wilmer'
_symmetry_space_group_name_H-M	'P1'
_symmetry_Int_Tables_number	1
_symmetry_cell_setting	triclinic
loop_
_symmetry_equiv_pos_as_xyz
  x,y,z
_cell_length_a	15.944545
_cell_length_b	15.944551
_cell_length_c	14.421503
_cell_angle_alpha	90.003340
_cell_angle_beta	89.995153
_cell_angle_gamma	83.497455
loop_
_atom_site_label
_atom_site_type_symbol
_atom_site_fract_x
_atom_site_fract_y
_atom_site_fract_z
O1	O	1.114533	0.108295	-0.077054
O2	O	0.869982	0.121657	-0.077069
O3	O	0.998936	-0.007299	-0.077053
O4	O	0.985579	0.237251	-0.077070
O5	O	0.998914	-0.007280	0.077171
O6	O	0.869961	0.121676	0.077154
O7	O	1.114511	0.108315	0.077170
Cu8	Cu	0.992234	0.114997	0.091244
Cu9	Cu	0.992259	0.114974	-0.091143
O10	O	0.985558	0.237270	0.077153
C11	C	0.838677	0.121113	0.000041
C12	C	0.745431	0.119453	0.000035
C13	C	0.474798	0.034559	0.000051
C14	C	0.525370	0.075497	0.076091
C15	C	0.409787	0.113532	0.000052
C16	C	0.525371	0.075500	-0.075961
C17	C	0.574701	0.116437	0.000042
C18	C	0.459130	0.154449	0.076154
C19	C	0.459128	0.154440	-0.075967
C20	C	0.509667	0.195436	0.000092
C21	C	0.314785	0.111856	0.000058
C22	C	0.669700	0.118119	0.000042
C23	C	0.998370	-0.038583	0.000059
C24	C	0.996708	-0.131829	0.000060
C25	C	0.912803	-0.346684	0.000042
C26	C	0.951755	-0.407693	0.076086
C27	C	0.993701	-0.302555	0.000052
C28	C	0.951796	-0.407695	-0.075967
C29	C	0.990790	-0.467468	0.000041
C30	C	1.032675	-0.362335	0.076159
C31	C	1.032704	-0.362331	-0.075961
C32	C	1.071715	-0.423322	0.000101
C33	C	0.995375	-0.207553	0.000060
C34	C	0.989122	-0.562469	0.000041
C35	C	1.145816	0.108859	0.000058
C36	C	1.239062	0.110519	0.000057
C37	C	0.986123	0.268555	0.000039
C38	C	0.987785	0.361801	0.000033
N39	N	0.992222	0.115013	0.219525
N40	N	0.992278	0.114952	-0.219424
C41	C	0.932584	0.174615	0.469171
C42	C	1.008484	0.190921	0.530977
C43	C	0.992243	0.114993	0.408687
C44	C	0.916362	0.098707	0.530974
C45	C	0.992256	0.114975	0.591408
C46	C	1.068181	0.131336	0.469132
C47	C	0.976010	0.039089	0.469124
C48	C	1.051965	0.055362	0.530902
C49	C	0.992234	0.115005	0.303426
C50	C	0.992273	0.114962	0.696667
H51	H	0.525158	0.263501	0.000131
H52	H	1.022227	0.255103	0.558146
H53	H	0.962243	-0.025073	0.441933
H54	H	0.852186	0.084940	0.558142
H55	H	0.917578	-0.427779	-0.140260
H56	H	1.102477	0.004931	0.557836
C57	C	0.822094	-0.301678	0.000133
C58	C	0.791581	-0.242439	-0.080327
C59	C	0.700874	-0.197433	-0.080231
C60	C	0.640681	-0.211665	0.000324
C61	C	0.671193	-0.270907	0.080789
C62	C	0.761900	-0.315913	0.080694
H63	H	0.836140	-0.231901	-0.139964
H64	H	0.678287	-0.153578	-0.139797
H65	H	0.573535	-0.178348	0.000395
H66	H	0.626634	-0.281445	0.140426
H67	H	0.784487	-0.359768	0.140260
H68	H	0.882184	0.225076	0.442067
C69	C	0.564449	0.030422	-0.162805
C70	C	0.631037	-0.046847	-0.152407
C71	C	0.670113	-0.091932	-0.239245
C72	C	0.642600	-0.059747	-0.336481
C73	C	0.576008	0.017525	-0.346883
C74	C	0.536932	0.062610	-0.260045
H75	H	0.651407	-0.070676	-0.080424
H76	H	0.719409	-0.149134	-0.231545
H77	H	0.671526	-0.093122	-0.400764
H78	H	0.555638	0.041354	-0.418867
H79	H	0.487636	0.119813	-0.267746
H80	H	1.066854	-0.342338	0.140519
H81	H	0.459145	-0.033453	0.000130
H82	H	0.430191	0.187755	-0.140259
H83	H	1.132372	0.145180	0.442081
H84	H	0.917530	-0.427792	0.140370
H85	H	0.430312	0.187785	0.140508
C86	C	0.564451	0.030455	0.162939
C87	C	0.554651	-0.063326	0.179650
C88	C	0.593731	-0.108374	0.266494
C89	C	0.642611	-0.059641	0.336627
C90	C	0.652413	0.034146	0.319919
C91	C	0.613333	0.079194	0.233075
H92	H	0.518465	-0.099407	0.127731
H93	H	0.586474	-0.177802	0.278862
H94	H	0.671540	-0.092988	0.400914
H95	H	0.688599	0.070226	0.371837
H96	H	0.620590	0.148622	0.220706
H97	H	1.138922	-0.456483	0.000148
C98	C	1.078900	-0.335139	-0.162808
C99	C	1.114398	-0.401706	-0.234226
C100	C	1.160587	-0.374511	-0.321081
C101	C	1.171277	-0.280748	-0.336519
C102	C	1.135778	-0.214176	-0.265099
C103	C	1.089590	-0.241371	-0.178244
H104	H	1.106485	-0.471120	-0.222800
H105	H	1.186865	-0.423793	-0.373951
H106	H	1.205469	-0.260617	-0.400815
H107	H	1.143691	-0.144762	-0.276525
H108	H	1.063312	-0.192089	-0.125374
