data_functionalizedCrystal
_audit_creation_method	'MofGen! by Chris Wilmer'
_symmetry_space_group_name_H-M	'P1'
_symmetry_Int_Tables_number	1
_symmetry_cell_setting	triclinic
loop_
_symmetry_equiv_pos_as_xyz
  x,y,z
_cell_length_a	24.447405
_cell_length_b	24.446649
_cell_length_c	24.443239
_cell_angle_alpha	60.006064
_cell_angle_beta	60.011844
_cell_angle_gamma	59.992812
loop_
_atom_site_label
_atom_site_type_symbol
_atom_site_fract_x
_atom_site_fract_y
_atom_site_fract_z
O1	O	0.075907	-0.799232	0.668277
O2	O	0.028634	-0.622262	0.538455
O3	O	0.140702	-0.734230	0.538349
O4	O	-0.036160	-0.687265	0.668384
O5	O	0.177886	-0.697056	0.575424
O6	O	0.065818	-0.585088	0.575530
O7	O	0.113091	-0.762059	0.705353
Cu8	Cu	0.092850	-0.670179	0.643827
Cu9	Cu	0.048876	-0.714142	0.599981
O10	O	0.001024	-0.650091	0.705459
N11	N	0.123780	-0.639263	0.674669
N12	N	0.017951	-0.745064	0.569139
C13	C	0.170236	-0.489965	0.721065
C14	C	0.170249	-0.592837	0.721058
C15	C	0.195989	-0.567121	0.746758
C16	C	0.308182	-0.547773	0.687664
C17	C	0.378316	-0.571143	0.664253
C18	C	0.378353	-0.684626	0.707525
C19	C	0.308220	-0.661254	0.730938
C20	C	0.187125	-0.454882	0.652117
C21	C	0.163710	-0.384741	0.628763
C22	C	0.106523	-0.384772	0.743308
C23	C	0.129938	-0.454913	0.766662
C24	C	0.101291	-0.575906	0.738041
C25	C	0.077897	-0.599283	0.714670
C26	C	0.192412	-0.656523	0.657348
C27	C	0.215809	-0.633146	0.680711
C28	C	0.101393	-0.575928	0.859014
C29	C	0.078071	-0.599328	0.929152
C30	C	0.192636	-0.656582	0.929078
C31	C	0.215955	-0.633184	0.858938
C32	C	0.170332	-0.592855	0.823908
C33	C	0.273137	-0.592827	0.721004
C34	C	-0.131205	-0.791294	0.522327
C35	C	-0.028388	-0.791420	0.522551
C36	C	-0.054056	-0.817099	0.496741
C37	C	-0.073479	-0.929255	0.555734
C38	C	-0.050156	-0.999396	0.579142
C39	C	0.063326	-0.999525	0.536064
C40	C	0.040001	-0.929386	0.512654
C41	C	-0.166365	-0.808188	0.591256
C42	C	-0.236499	-0.784726	0.614512
C43	C	-0.236309	-0.727482	0.499907
C44	C	-0.166175	-0.750944	0.476651
C45	C	-0.045285	-0.722468	0.505590
C46	C	-0.021951	-0.699130	0.529061
C47	C	0.035176	-0.813691	0.586439
C48	C	0.011842	-0.837031	0.562976
C49	C	-0.045097	-0.722476	0.384488
C50	C	-0.021613	-0.699140	0.314350
C51	C	0.035607	-0.813706	0.314419
C52	C	0.012124	-0.837041	0.384558
C53	C	-0.028229	-0.791425	0.419591
C54	C	-0.028402	-0.894253	0.522492
N55	N	0.412405	-0.639229	0.674505
O56	O	0.626552	-0.645384	0.514503
O57	O	0.626802	-0.775625	0.691288
O58	O	0.626698	-0.775326	0.579168
O59	O	0.626656	-0.645683	0.626623
O60	O	0.515277	-0.738265	0.616407
O61	O	0.515382	-0.738564	0.728527
O62	O	0.515131	-0.608323	0.551742
Cu63	Cu	0.505083	-0.670059	0.643535
Cu64	Cu	0.636850	-0.713889	0.599495
O65	O	0.515236	-0.608622	0.663862
N66	N	0.729529	-0.744719	0.568518
N67	N	0.123755	-0.350686	0.674680
O68	O	-0.036153	-0.136410	0.668391
O69	O	0.140633	-0.136380	0.538141
O70	O	0.028472	-0.136412	0.538488
O71	O	0.076007	-0.136377	0.668044
O72	O	0.065663	-0.247842	0.575621
O73	O	0.177823	-0.247810	0.575274
O74	O	0.001037	-0.247840	0.705524
Cu75	Cu	0.092826	-0.258000	0.643789
Cu76	Cu	0.048844	-0.126220	0.599875
O77	O	0.113198	-0.247808	0.705177
N78	N	0.017907	-0.033534	0.568986
N79	N	0.124013	-0.639306	0.963182
O80	O	0.117754	-0.799195	1.177439
O81	O	-0.012458	-0.622342	1.177485
O82	O	-0.012155	-0.734480	1.177444
O83	O	0.117450	-0.687057	1.177480
O84	O	0.024954	-0.697317	1.066020
O85	O	0.024650	-0.585179	1.066061
O86	O	0.154862	-0.762032	1.066014
Cu87	Cu	0.093145	-0.670212	1.055863
Cu88	Cu	0.049259	-0.714162	1.187636
O89	O	0.154559	-0.649894	1.066055
N90	N	0.018389	-0.745075	1.280318
C91	C	0.042795	-0.581375	0.539107
C92	C	0.181576	-0.720034	0.538975
C93	C	0.098930	-0.802946	0.704700
C94	C	-0.039851	-0.664287	0.704832
C95	C	0.571122	-0.775030	0.732180
C96	C	0.570995	-0.774660	0.593332
C97	C	0.570808	-0.608917	0.510851
C98	C	0.570939	-0.609288	0.649698
C99	C	0.181453	-0.191954	0.538725
C100	C	0.042602	-0.192131	0.539201
C101	C	-0.039829	-0.192128	0.704893
C102	C	0.099069	-0.192090	0.704464
C103	C	-0.011836	-0.581480	1.121779
C104	C	-0.011453	-0.720342	1.121706
C105	C	0.154240	-0.802894	1.121720
C106	C	0.153865	-0.664024	1.121769
H107	H	0.064236	-0.543084	0.830495
C108	C	-0.108415	-0.192137	0.760137
C109	C	-0.151549	-0.134273	0.788965
C110	C	-0.220135	-0.134282	0.844208
C111	C	-0.245588	-0.192155	0.870624
C112	C	-0.202454	-0.250024	0.841796
C113	C	-0.133867	-0.250015	0.786552
H114	H	-0.132708	-0.091427	0.769411
H115	H	-0.252065	-0.091443	0.865549
H116	H	-0.296359	-0.192162	0.911518
H117	H	-0.221295	-0.292870	0.861350
H118	H	-0.101937	-0.292854	0.765212
C119	C	0.028856	-0.192142	0.484211
C120	C	-0.039859	-0.192160	0.497951
C121	C	-0.053604	-0.192171	0.442962
C122	C	0.001364	-0.192166	0.374232
C123	C	0.070083	-0.192149	0.360488
C124	C	0.083829	-0.192137	0.415478
H125	H	-0.080554	-0.192164	0.548832
H126	H	-0.104475	-0.192184	0.453136
H127	H	-0.008811	-0.192174	0.333525
H128	H	0.110779	-0.192144	0.309607
H129	H	0.134700	-0.192124	0.405304
C130	C	0.570919	-0.554266	0.663410
C131	C	0.513094	-0.528123	0.720524
C132	C	0.513074	-0.473101	0.734236
C133	C	0.570880	-0.444222	0.690835
C134	C	0.628709	-0.470365	0.633718
C135	C	0.628729	-0.525387	0.620006
H136	H	0.470299	-0.549501	0.752655
H137	H	0.470265	-0.453749	0.776518
H138	H	0.570865	-0.403492	0.700986
H139	H	0.671504	-0.448987	0.601587
H140	H	0.671539	-0.544740	0.577724
C141	C	0.571215	-0.830270	0.800769
C142	C	0.513407	-0.859146	0.843940
C143	C	0.513500	-0.914387	0.912529
C144	C	0.571400	-0.940751	0.937949
C145	C	0.629212	-0.911876	0.894778
C146	C	0.629119	-0.856635	0.826188
H147	H	0.470542	-0.839629	0.825123
H148	H	0.470704	-0.935762	0.944487
H149	H	0.571469	-0.981644	0.988723
H150	H	0.672077	-0.931392	0.913594
H151	H	0.671915	-0.835260	0.794231
C152	C	0.112815	-0.192081	0.759455
C153	C	0.069456	-0.134220	0.788288
C154	C	0.083203	-0.134211	0.843278
C155	C	0.140309	-0.192064	0.869436
C156	C	0.183671	-0.249930	0.840603
C157	C	0.169925	-0.249938	0.785612
H158	H	0.027180	-0.091390	0.768925
H159	H	0.051103	-0.091375	0.864622
H160	H	0.150485	-0.192058	0.910143
H161	H	0.225948	-0.292760	0.859966
H162	H	0.202025	-0.292775	0.764268
C163	C	-0.127896	-0.852568	0.641496
C164	C	-0.166572	-0.871141	0.717319
C165	C	-0.128104	-0.915521	0.767562
C166	C	-0.050960	-0.941329	0.741982
C167	C	-0.012279	-0.922757	0.666156
C168	C	-0.050747	-0.878377	0.615913
H169	H	-0.223683	-0.852036	0.736258
H170	H	-0.156739	-0.929269	0.823694
H171	H	-0.022483	-0.974182	0.779175
H172	H	0.044832	-0.941862	0.647217
H173	H	-0.022112	-0.864629	0.559781
H174	H	0.570727	-0.568026	0.460082
C175	C	-0.040530	-0.623283	0.510410
C176	C	-0.020002	-0.579295	0.436334
C177	C	-0.038579	-0.503450	0.417684
C178	C	-0.077684	-0.471592	0.473109
C179	C	-0.098214	-0.515581	0.547189
C180	C	-0.079637	-0.591426	0.565839
H181	H	0.008948	-0.602878	0.395301
H182	H	-0.023381	-0.470887	0.362844
H183	H	-0.091436	-0.415447	0.459302
H184	H	-0.127164	-0.491998	0.588222
H185	H	-0.094835	-0.623989	0.620679
H186	H	-0.052716	-0.530687	1.121793
H187	H	0.229515	-0.689349	0.624505
H188	H	0.109031	-0.853782	0.745475
C189	C	0.209471	-0.871509	1.121703
C190	C	0.276853	-0.876067	1.063841
C191	C	0.332084	-0.944682	1.063823
C192	C	0.319932	-1.008740	1.121667
C193	C	0.252546	-1.004184	1.179533
C194	C	0.197316	-0.935569	1.179551
H195	H	0.285852	-0.828646	1.021017
H196	H	0.381967	-0.948054	1.020986
H197	H	0.360817	-1.059533	1.121653
H198	H	0.243548	-1.051605	1.222357
H199	H	0.147432	-0.932197	1.222388
C200	C	-0.066438	-0.734019	1.121626
C201	C	-0.135151	-0.678995	1.121604
C202	C	-0.190136	-0.692672	1.121524
C203	C	-0.176408	-0.761372	1.121467
C204	C	-0.107692	-0.816400	1.121490
C205	C	-0.052706	-0.802724	1.121570
H206	H	-0.145317	-0.628135	1.121646
H207	H	-0.241005	-0.651937	1.121507
H208	H	-0.217111	-0.771497	1.121409
H209	H	-0.097526	-0.867260	1.121448
H210	H	-0.001838	-0.843459	1.121587
H211	H	0.194582	-0.653876	1.121771
C212	C	0.571017	-0.829682	0.579619
C213	C	0.570943	-0.815964	0.510923
C214	C	0.570965	-0.870987	0.497210
C215	C	0.571060	-0.939728	0.552192
C216	C	0.571134	-0.953450	0.620893
C217	C	0.571112	-0.898427	0.634606
H218	H	0.570872	-0.765075	0.470218
H219	H	0.570910	-0.860829	0.446353
H220	H	0.571077	-0.980459	0.542041
H221	H	0.571205	-1.004339	0.661598
H222	H	0.571167	-0.908585	0.685463
C223	C	0.002232	-0.580694	0.967761
C224	C	-0.047947	-0.536330	0.929225
C225	C	-0.123785	-0.517696	0.967836
C226	C	-0.149444	-0.543426	1.044983
C227	C	-0.099264	-0.587792	1.083524
C228	C	-0.023426	-0.606426	1.044913
H229	H	-0.028953	-0.517280	0.872112
H230	H	-0.160931	-0.484853	0.939305
H231	H	-0.205583	-0.529632	1.073566
H232	H	-0.118257	-0.606842	1.140637
H233	H	0.013721	-0.639269	1.073444
H234	H	0.232372	-0.730046	0.498140
C235	C	0.242823	-0.700932	0.967606
C236	C	0.318656	-0.719546	0.928987
C237	C	0.368846	-0.763898	0.967515
C238	C	0.343203	-0.789638	1.044662
C239	C	0.267367	-0.771025	1.083286
C240	C	0.217177	-0.726672	1.044758
H241	H	0.337641	-0.700492	0.871874
H242	H	0.424985	-0.777677	0.938923
H243	H	0.380357	-0.822470	1.073183
H244	H	0.248381	-0.790078	1.140399
H245	H	0.161038	-0.712893	1.073350
H246	H	-0.078038	-0.685325	0.472673
H247	H	0.032695	-0.530537	0.498334
H248	H	0.232119	-0.191636	0.497733
C249	C	0.002045	-0.580661	0.733338
C250	C	-0.029742	-0.636115	0.772377
C251	C	-0.105593	-0.617491	0.791042
C252	C	-0.149657	-0.543413	0.770667
C253	C	-0.117871	-0.487953	0.731626
C254	C	-0.042020	-0.506577	0.712961
H255	H	0.002877	-0.690957	0.787462
H256	H	-0.129123	-0.658546	0.819942
H257	H	-0.205807	-0.529626	0.784483
H258	H	-0.150490	-0.433111	0.716541
H259	H	-0.018490	-0.465522	0.684060
C260	C	0.269668	-0.710816	0.767611
C261	C	0.221500	-0.717765	0.840155
C262	C	0.182947	-0.767326	0.876830
C263	C	0.192563	-0.809939	0.840962
C264	C	0.240732	-0.802992	0.768414
C265	C	0.279285	-0.753430	0.731738
H266	H	0.214380	-0.686219	0.866711
H267	H	0.147289	-0.772469	0.930535
H268	H	0.164024	-0.846628	0.868111
H269	H	0.247852	-0.834537	0.741858
H270	H	0.314943	-0.748287	0.678033
C271	C	0.416954	-0.759897	0.718441
C272	C	0.465219	-0.798977	0.758789
C273	C	0.503819	-0.874246	0.769705
C274	C	0.494155	-0.910434	0.740273
C275	C	0.445887	-0.871354	0.699922
C276	C	0.407287	-0.796085	0.689007
H277	H	0.472375	-0.772188	0.780579
H278	H	0.539550	-0.903176	0.799575
H279	H	0.522729	-0.966153	0.748353
H280	H	0.438731	-0.898142	0.678132
H281	H	0.371557	-0.767155	0.659136
C282	C	0.416866	-0.521581	0.627574
C283	C	0.407246	-0.478957	0.663434
C284	C	0.445796	-0.429393	0.626752
C285	C	0.493967	-0.422452	0.554210
C286	C	0.503589	-0.465077	0.518346
C287	C	0.465039	-0.514641	0.555028
H288	H	0.371585	-0.484094	0.717137
H289	H	0.438673	-0.397839	0.653301
H290	H	0.522504	-0.385761	0.527056
H291	H	0.539250	-0.459940	0.464642
H292	H	0.472162	-0.546195	0.528478
C293	C	0.269592	-0.472503	0.676739
C294	C	0.279181	-0.421499	0.605172
C295	C	0.240589	-0.346227	0.594246
C296	C	0.192408	-0.321960	0.654887
C297	C	0.182816	-0.372964	0.726458
C298	C	0.221408	-0.448236	0.737384
H299	H	0.314850	-0.439462	0.560278
H300	H	0.247689	-0.308470	0.541264
H301	H	0.163839	-0.266239	0.646799
H302	H	0.147147	-0.355001	0.771352
H303	H	0.214308	-0.485993	0.790366
C304	C	0.231451	-0.493442	0.601963
C305	C	0.250019	-0.454849	0.526119
C306	C	0.294347	-0.493408	0.475962
C307	C	0.320105	-0.570559	0.501649
C308	C	0.301537	-0.609156	0.577497
C309	C	0.257210	-0.570597	0.627654
H310	H	0.230951	-0.397733	0.507101
H311	H	0.308092	-0.464836	0.419815
H312	H	0.352919	-0.599103	0.464520
H313	H	0.320605	-0.666272	0.596515
H314	H	0.243464	-0.599170	0.683801
H315	H	0.272095	-0.646975	0.830359
C316	C	-0.108474	-0.650772	0.759999
C317	C	-0.121933	-0.705904	0.828658
C318	C	-0.190556	-0.692390	0.883825
C319	C	-0.245720	-0.623743	0.870332
C320	C	-0.232263	-0.568606	0.801670
C321	C	-0.163640	-0.582120	0.746503
H322	H	-0.081096	-0.756725	0.838649
H323	H	-0.200517	-0.733206	0.934653
H324	H	-0.296519	-0.613738	0.911169
H325	H	-0.273100	-0.517785	0.791679
H326	H	-0.153678	-0.541304	0.695675
H327	H	0.271959	-0.646925	0.666876
C328	C	0.062209	-0.346209	0.793463
C329	C	0.043649	-0.384799	0.869307
C330	C	-0.000664	-0.346237	0.919461
C331	C	-0.026417	-0.269086	0.893772
C332	C	-0.007858	-0.230492	0.817924
C333	C	0.036455	-0.269053	0.767769
H334	H	0.062713	-0.441915	0.888327
H335	H	-0.014403	-0.374808	0.975609
H336	H	-0.059220	-0.240540	0.930899
H337	H	-0.026922	-0.173376	0.798904
H338	H	0.050194	-0.240483	0.711622
H339	H	0.116177	-0.483478	0.822809
C340	C	-0.040180	-0.623291	0.275745
C341	C	0.015306	-0.591540	0.227622
C342	C	-0.003260	-0.515692	0.189016
C343	C	-0.077312	-0.471595	0.198532
C344	C	-0.132802	-0.503345	0.246657
C345	C	-0.114236	-0.579193	0.285263
H346	H	0.070127	-0.624184	0.220576
H347	H	0.037818	-0.492189	0.153390
H348	H	-0.091056	-0.415448	0.169953
H349	H	-0.187624	-0.470701	0.253703
H350	H	-0.155314	-0.602697	0.320888
C351	C	0.030681	-0.912890	0.423171
C352	C	0.104731	-0.956995	0.413657
C353	C	0.123288	-1.032842	0.452268
C354	C	0.067796	-1.064583	0.500393
C355	C	-0.006258	-1.020478	0.509910
C356	C	-0.024815	-0.944631	0.471299
H357	H	0.145814	-0.933498	0.378029
H358	H	0.178108	-1.065491	0.445223
H359	H	0.081533	-1.120730	0.528976
H360	H	-0.047341	-1.043974	0.545537
H361	H	-0.079636	-0.911981	0.478344
H362	H	0.064189	-0.543085	0.770891
H363	H	0.177459	-0.356175	0.572617
H364	H	0.068452	-0.850855	0.285902
C365	C	0.079437	-0.863875	0.630893
C366	C	0.147080	-0.914395	0.604137
C367	C	0.191344	-0.964586	0.648592
C368	C	0.167965	-0.964257	0.719802
C369	C	0.100318	-0.913734	0.746562
C370	C	0.056054	-0.863544	0.702108
H371	H	0.164390	-0.914641	0.551420
H372	H	0.241420	-1.001986	0.628782
H373	H	0.200731	-1.001411	0.752710
H374	H	0.083008	-0.913489	0.799280
H375	H	0.005978	-0.826144	0.721918
H376	H	-0.077958	-0.685325	0.413008
H377	H	0.076712	-0.900889	0.485585
C378	C	0.138571	-1.038179	0.525249
C379	C	0.162735	-1.086409	0.585955
C380	C	0.237979	-1.125062	0.575139
C381	C	0.289057	-1.115487	0.503616
C382	C	0.264893	-1.067255	0.442905
C383	C	0.189650	-1.028602	0.453721
H384	H	0.124923	-1.093499	0.638905
H385	H	0.255866	-1.160767	0.620082
H386	H	0.344756	-1.144101	0.495609
H387	H	0.302705	-1.060165	0.389955
H388	H	0.171763	-0.992897	0.408778
C389	C	-0.274787	-0.683105	0.449672
C390	C	-0.322991	-0.706337	0.449894
C391	C	-0.361469	-0.661958	0.399660
C392	C	-0.351743	-0.594347	0.349203
C393	C	-0.303537	-0.571111	0.348979
C394	C	-0.265058	-0.615490	0.399213
H395	H	-0.330193	-0.756390	0.487246
H396	H	-0.397155	-0.679159	0.399826
H397	H	-0.380227	-0.561496	0.312017
H398	H	-0.296335	-0.521059	0.311627
H399	H	-0.229372	-0.598289	0.399047
C400	C	-0.099734	-1.037911	0.615732
C401	C	-0.091839	-1.086136	0.587235
C402	C	-0.141416	-1.124658	0.623835
C403	C	-0.198888	-1.114955	0.688932
C404	C	-0.206785	-1.066728	0.717432
C405	C	-0.157208	-1.028206	0.680832
H406	H	-0.049293	-1.093321	0.539043
H407	H	-0.135570	-1.160359	0.602737
H408	H	-0.235587	-1.143472	0.716026
H409	H	-0.249331	-1.059543	0.765624
H410	H	-0.163054	-0.992505	0.701930
H411	H	0.025599	-0.893178	0.576787
H412	H	-0.129177	-0.900656	0.563750
H413	H	-0.265127	-0.798479	0.670643
H414	H	-0.137547	-0.737181	0.420520
