data_functionalizedCrystal
_audit_creation_method	'MofGen! by Chris Wilmer'
_symmetry_space_group_name_H-M	'P1'
_symmetry_Int_Tables_number	1
_symmetry_cell_setting	triclinic
loop_
_symmetry_equiv_pos_as_xyz
  x,y,z
_cell_length_a	15.297475
_cell_length_b	16.120484
_cell_length_c	15.296720
_cell_angle_alpha	101.986518
_cell_angle_beta	91.617114
_cell_angle_gamma	83.687474
loop_
_atom_site_label
_atom_site_type_symbol
_atom_site_fract_x
_atom_site_fract_y
_atom_site_fract_z
Zn1	Zn	1.212936	-0.646916	-0.755054
Zn2	Zn	1.230712	-0.766607	-0.613834
Zn3	Zn	1.094735	-0.600220	-0.581241
Zn4	Zn	1.059450	-0.758436	-0.734603
O5	O	1.149458	-0.693045	-0.671183
O6	O	1.336436	-0.685755	-0.758520
O7	O	1.234881	-0.728412	-0.486227
O8	O	1.117742	-0.490110	-0.599215
O9	O	1.349496	-0.773691	-0.654766
O10	O	1.204584	-0.524417	-0.726915
O11	O	1.134979	-0.606169	-0.462280
O12	O	0.968913	-0.598246	-0.579385
O13	O	1.057604	-0.759766	-0.860600
O14	O	0.942989	-0.714486	-0.692060
O15	O	1.170370	-0.677833	-0.875625
O16	O	1.200666	-0.881827	-0.634936
O17	O	1.074840	-0.875825	-0.723665
C18	C	0.924540	-0.650413	-0.629967
C19	C	0.828314	-0.632198	-0.612357
C20	C	0.503218	-0.823238	-0.797050
C21	C	0.593627	-0.840358	-0.813594
C22	C	0.652303	-0.788320	-0.763286
C23	C	0.620561	-0.719158	-0.696432
C24	C	0.530143	-0.702040	-0.679882
C25	C	0.679229	-0.667122	-0.646118
C26	C	0.647487	-0.597960	-0.579263
C27	C	0.557078	-0.580845	-0.562717
C28	C	0.498402	-0.632884	-0.613024
C29	C	0.769646	-0.684239	-0.662668
C30	C	0.796572	-0.563041	-0.545499
C31	C	0.706162	-0.545921	-0.528956
C32	C	1.135873	-0.908989	-0.680642
C33	C	1.130135	-1.001390	-0.684732
C34	C	1.119661	-1.170572	-0.692219
C35	C	1.179408	-1.214709	-0.650189
C36	C	1.173580	-1.308847	-0.654355
C37	C	1.125488	-1.076425	-0.688054
C38	C	1.375255	-0.735844	-0.712560
C39	C	1.471476	-0.754082	-0.730193
C40	C	1.108068	-0.723097	-0.900972
C41	C	1.090430	-0.735903	-0.998895
C42	C	1.163116	-0.476264	-0.661711
C43	C	1.168937	-0.383885	-0.657674
C44	C	1.275562	-0.601377	-1.306214
C45	C	1.292140	-0.589347	-1.214212
C46	C	1.241714	-0.625985	-1.160378
C47	C	1.174707	-0.674655	-1.198556
C48	C	1.158133	-0.686691	-1.290568
C49	C	1.124284	-0.711299	-1.144732
C50	C	1.057278	-0.759969	-1.182909
C51	C	1.040706	-0.772003	-1.274912
C52	C	1.091132	-0.735365	-1.328746
C53	C	1.140858	-0.699263	-1.052720
C54	C	1.023429	-0.784577	-1.037073
C55	C	1.006852	-0.796607	-1.129075
C56	C	1.190741	-0.663059	-0.442294
C57	C	1.208562	-0.650051	-0.344393
H58	H	0.619465	-0.896671	-0.868025
O59	O	0.675468	-0.478687	-0.464004
C60	C	0.746637	-0.436436	-0.423128
H61	H	0.804774	-0.450530	-0.470888
H62	H	0.726294	-0.364776	-0.406194
H63	H	0.766393	-0.459834	-0.359251
O64	O	0.975675	-0.819399	-1.311910
C65	C	0.993440	-0.902882	-1.296523
H66	H	1.038647	-0.902169	-1.235895
H67	H	0.929184	-0.927895	-1.283547
H68	H	1.026854	-0.946089	-1.357683
H69	H	0.455438	-0.865605	-0.837998
O70	O	0.410546	-0.616292	-0.597109
C71	C	0.366463	-0.600388	-0.675114
H72	H	0.408547	-0.631143	-0.736002
H73	H	0.300827	-0.628514	-0.681283
H74	H	0.354368	-0.528650	-0.671136
O75	O	0.526375	-0.513711	-0.497657
C76	C	0.563142	-0.524468	-0.414661
H77	H	0.627111	-0.568610	-0.426217
H78	H	0.577117	-0.459864	-0.373192
H79	H	0.514932	-0.553627	-0.377460
H80	H	1.234934	-1.181795	-0.611077
H81	H	1.346698	-0.549722	-1.183136
H82	H	1.064138	-1.203483	-0.731327
O83	O	0.941821	-0.843999	-1.166082
C84	C	0.959579	-0.927487	-1.150707
H85	H	1.004779	-0.926783	-1.090076
H86	H	0.895319	-0.952500	-1.137743
H87	H	0.992997	-0.970688	-1.211868
O88	O	0.853656	-0.512612	-0.496605
C89	C	0.913228	-0.562293	-0.451246
H90	H	0.917240	-0.631942	-0.487451
H91	H	0.981048	-0.538922	-0.449653
H92	H	0.889568	-0.556190	-0.379958
O93	O	1.205847	-0.651850	-1.015659
C94	C	1.188105	-0.568379	-1.031085
H95	H	1.114654	-0.554385	-1.043517
H96	H	1.209051	-0.520813	-0.970157
H97	H	1.226261	-0.562443	-1.092053
H98	H	1.316617	-0.571557	-1.350055
H99	H	1.077639	-0.745157	-1.403662
O100	O	1.257901	-0.614180	-1.071017
C101	C	1.327867	-0.563384	-1.048867
H102	H	1.333505	-0.524064	-1.101993
H103	H	1.314820	-0.518839	-0.981152
H104	H	1.391851	-0.606172	-1.045544
O105	O	0.974574	-0.820220	-0.984714
C106	C	1.030064	-0.876295	-0.942886
H107	H	1.099998	-0.857615	-0.939848
H108	H	1.005757	-0.872283	-0.872209
H109	H	1.029307	-0.944328	-0.982774
H110	H	0.795481	-0.740551	-0.717102
O111	O	0.740135	-0.804792	-0.779356
C112	C	0.771238	-0.733873	-0.804190
H113	H	0.724836	-0.674154	-0.777587
H114	H	0.839803	-0.725294	-0.774902
H115	H	0.774226	-0.744824	-0.880159
