data_functionalizedCrystal
_audit_creation_method	'MofGen! by Chris Wilmer'
_symmetry_space_group_name_H-M	'P1'
_symmetry_Int_Tables_number	1
_symmetry_cell_setting	triclinic
loop_
_symmetry_equiv_pos_as_xyz
  x,y,z
_cell_length_a	16.959454
_cell_length_b	12.759401
_cell_length_c	12.759393
_cell_angle_alpha	90.019559
_cell_angle_beta	89.969286
_cell_angle_gamma	89.981775
loop_
_atom_site_label
_atom_site_type_symbol
_atom_site_fract_x
_atom_site_fract_y
_atom_site_fract_z
Zn1	Zn	-0.314674	-1.606216	-0.594017
Zn2	Zn	-0.446876	-1.606094	-0.418340
Zn3	Zn	-0.314711	-1.430518	-0.418353
Zn4	Zn	-0.446810	-1.430490	-0.593978
O5	O	-0.380768	-1.518330	-0.506172
O6	O	-0.332223	-1.753221	-0.570724
O7	O	-0.429386	-1.582764	-0.271321
O8	O	-0.204095	-1.453888	-0.441678
O9	O	-0.429351	-1.753131	-0.441655
O10	O	-0.204068	-1.582972	-0.570737
O11	O	-0.332285	-1.453769	-0.271331
O12	O	-0.332222	-1.283493	-0.441640
O13	O	-0.429239	-1.453840	-0.741005
O14	O	-0.429275	-1.283473	-0.570670
O15	O	-0.332159	-1.582945	-0.741033
O16	O	-0.557478	-1.582737	-0.441617
O17	O	-0.557430	-1.453722	-0.570657
C18	C	-0.380746	-1.245362	-0.506153
C19	C	-0.380756	-1.128586	-0.506170
C20	C	-0.431370	-1.073740	-0.573244
C21	C	-0.431378	-0.964016	-0.573253
C22	C	-0.330153	-0.963992	-0.439105
C23	C	-0.330142	-1.073714	-0.439102
C24	C	-0.489814	-1.073753	-0.650690
C25	C	-0.489821	-0.964029	-0.650699
C26	C	-0.586134	-1.518242	-0.506154
C27	C	-0.673990	-1.518300	-0.506182
C28	C	-1.045471	-1.451249	-0.573356
C29	C	-1.045461	-1.585703	-0.439095
C30	C	-0.962915	-1.585666	-0.439085
C31	C	-0.921643	-1.518419	-0.506211
C32	C	-0.962917	-1.451208	-0.573347
C33	C	-0.921635	-1.652868	-0.371944
C34	C	-0.839084	-1.652834	-0.371930
C35	C	-0.797811	-1.585591	-0.439062
C36	C	-0.839090	-1.518378	-0.506201
C37	C	-0.797818	-1.451130	-0.573327
C38	C	-0.839096	-1.383922	-0.640472
C39	C	-0.921644	-1.383965	-0.640479
C40	C	-0.715262	-1.585548	-0.439056
C41	C	-0.715264	-1.451089	-0.573317
C42	C	-0.174599	-1.518447	-0.506213
C43	C	-0.086743	-1.518496	-0.506231
C44	C	-0.380688	-1.518403	-0.780206
C45	C	-0.380654	-1.518435	-0.896982
C46	C	-0.380783	-0.792363	-0.506188
C47	C	-0.380773	-0.909140	-0.506182
C48	C	-0.330100	-1.585669	-0.951861
C49	C	-0.330071	-1.585694	-1.061585
C50	C	-0.431158	-1.451247	-1.061542
C51	C	-0.431182	-1.451218	-0.951820
C52	C	-0.271740	-1.663294	-0.951887
C53	C	-0.271712	-1.663319	-1.061611
C54	C	-0.380790	-1.518317	-0.233205
C55	C	-0.380601	-1.518489	-0.116429
H56	H	-0.551024	-0.934226	-0.628768
H57	H	-0.681666	-1.396332	-0.627984
H58	H	-0.288944	-0.919303	-0.384502
O59	O	-0.485650	-1.378750	-1.120693
H60	H	-0.547695	-1.396715	-1.099615
O61	O	-0.485701	-1.378687	-0.892633
H62	H	-0.477225	-1.389948	-0.807123
H63	H	-0.473490	-1.103564	-0.732097
H64	H	-0.288921	-1.118365	-0.384491
H65	H	-0.805483	-1.329164	-0.695122
O66	O	-0.300796	-1.765649	-0.906795
H67	H	-0.362053	-1.780213	-0.933684
H68	H	-0.681658	-1.640263	-0.384383
H69	H	-0.547936	-1.107760	-0.621407
H70	H	-0.288109	-1.744687	-1.091391
H71	H	-1.079083	-1.396533	-0.628027
H72	H	-0.955260	-1.329246	-0.695143
O73	O	-0.794568	-1.725328	-0.299521
H74	H	-0.756910	-1.778731	-0.346595
O75	O	-1.089969	-1.658261	-0.366725
H76	H	-1.154305	-1.647012	-0.378025
O77	O	-0.460872	-0.918983	-0.753149
H78	H	-0.445524	-0.983834	-0.807462
H79	H	-0.955245	-1.707610	-0.317286
H80	H	-0.210525	-1.641533	-0.922129
H81	H	-0.213548	-1.634212	-1.095657
