data_functionalizedCrystal
_audit_creation_method	'MofGen! by Chris Wilmer'
_symmetry_space_group_name_H-M	'P1'
_symmetry_Int_Tables_number	1
_symmetry_cell_setting	triclinic
loop_
_symmetry_equiv_pos_as_xyz
  x,y,z
_cell_length_a	12.759401
_cell_length_b	12.594516
_cell_length_c	12.759393
_cell_angle_alpha	90.029993
_cell_angle_beta	90.018567
_cell_angle_gamma	90.017216
loop_
_atom_site_label
_atom_site_type_symbol
_atom_site_fract_x
_atom_site_fract_y
_atom_site_fract_z
Zn1	Zn	1.606230	-0.423707	0.593995
Zn2	Zn	1.606114	-0.601726	0.418320
Zn3	Zn	1.430532	-0.423759	0.418334
Zn4	Zn	1.430510	-0.601640	0.593961
O5	O	1.518346	-0.512708	0.506152
O6	O	1.753236	-0.447335	0.570699
O7	O	1.582783	-0.578176	0.271301
O8	O	1.453897	-0.274806	0.441656
O9	O	1.753150	-0.578125	0.441632
O10	O	1.582981	-0.274768	0.570713
O11	O	1.453784	-0.447424	0.271311
O12	O	1.283508	-0.447341	0.441623
O13	O	1.453859	-0.577980	0.740987
O14	O	1.283492	-0.578030	0.570655
O15	O	1.582960	-0.447252	0.741011
O16	O	1.582762	-0.750660	0.441599
O17	O	1.453746	-0.750598	0.570642
C18	C	1.245379	-0.512683	0.506138
C19	C	1.128602	-0.512698	0.506156
C20	C	1.073778	-0.444724	0.573466
C21	C	0.964054	-0.444744	0.573473
C22	C	0.963988	-0.580722	0.438857
C23	C	1.073711	-0.580695	0.438846
C24	C	1.073815	-0.366222	0.651189
C25	C	0.964091	-0.366242	0.651195
C26	C	1.518267	-0.789249	0.506138
C27	C	1.518330	-0.907554	0.506167
C28	C	1.448216	-1.047576	0.576318
C29	C	1.543997	-0.976665	0.602089
C30	C	1.422558	-0.976894	0.480442
C31	C	1.614333	-1.047429	0.532027
C32	C	1.492830	-1.047664	0.410336
C33	C	1.588677	-0.976785	0.436071
C34	C	1.792380	-0.512734	0.506168
C35	C	1.909156	-0.512745	0.506174
C36	C	1.518420	-0.512601	0.780186
C37	C	1.518451	-0.512555	0.896963
C38	C	1.518454	-0.235087	0.506190
C39	C	1.518500	-0.116782	0.506206
C40	C	1.518334	-0.512738	0.233185
C41	C	1.518506	-0.512484	0.116409
C42	C	1.585683	-0.444479	0.951839
C43	C	1.585708	-0.444440	1.061563
C44	C	1.451266	-0.580563	1.061525
C45	C	1.451237	-0.580595	0.951802
C46	C	1.663306	-0.365892	0.951863
C47	C	1.663331	-0.365854	1.061587
H48	H	0.930054	-0.287902	0.622194
H49	H	1.396540	-0.635957	1.106188
O50	O	1.711006	-1.084281	0.558299
C51	C	1.703614	-1.146530	0.649811
H52	H	1.630366	-1.123050	0.695397
H53	H	1.775847	-1.132858	0.700670
H54	H	1.698650	-1.234016	0.627367
H55	H	1.388924	-1.078655	0.635671
O56	O	1.466793	-1.084855	0.313695
C57	C	1.365634	-1.048963	0.286842
H58	H	1.320250	-1.029078	0.361249
H59	H	1.322619	-1.113839	0.241702
H60	H	1.372233	-0.974952	0.235863
H61	H	1.634222	-0.287532	1.095632
H62	H	1.341493	-0.945904	0.458669
O63	O	1.385810	-0.646561	0.898443
C64	C	1.317988	-0.585960	0.834968
H65	H	1.311553	-0.502121	0.868058
H66	H	1.237113	-0.624435	0.833704
H67	H	1.350455	-0.582321	0.751815
O68	O	1.637151	-0.267592	0.916402
C69	C	1.536539	-0.240402	0.953342
H70	H	1.491133	-0.315816	0.972820
H71	H	1.492895	-0.193992	0.890279
H72	H	1.544230	-0.189411	1.026795
H73	H	1.107878	-0.395837	0.728428
H74	H	1.740576	-0.395444	0.917828
H75	H	1.744700	-0.387933	1.091366
O76	O	1.569793	-0.939633	0.698861
C77	C	1.587098	-1.025976	0.766988
H78	H	1.544211	-1.098961	0.736033
H79	H	1.556413	-1.005445	0.848414
H80	H	1.674662	-1.043341	0.771608
O81	O	1.126805	-0.646816	0.373419
C82	C	1.054825	-0.706814	0.313996
H83	H	0.976630	-0.710579	0.357032
H84	H	1.086518	-0.790652	0.302629
H85	H	1.043121	-0.667731	0.234277
H86	H	0.934344	-0.388424	0.732532
O87	O	1.659718	-0.939977	0.365435
C88	C	1.760606	-0.976131	0.392953
H89	H	1.762571	-0.995829	0.480124
H90	H	1.820623	-0.911486	0.375361
H91	H	1.780207	-1.050311	0.345625
H92	H	0.919282	-0.636083	0.384055
H93	H	1.103587	-0.283753	0.629533
