data_functionalizedCrystal
_audit_creation_method	'MofGen! by Chris Wilmer'
_symmetry_space_group_name_H-M	'P1'
_symmetry_Int_Tables_number	1
_symmetry_cell_setting	triclinic
loop_
_symmetry_equiv_pos_as_xyz
  x,y,z
_cell_length_a	15.995300
_cell_length_b	23.532357
_cell_length_c	15.072220
_cell_angle_alpha	89.993295
_cell_angle_beta	89.985917
_cell_angle_gamma	83.150049
loop_
_atom_site_label
_atom_site_type_symbol
_atom_site_fract_x
_atom_site_fract_y
_atom_site_fract_z
O1	O	1.110393	0.073269	-0.073826
O2	O	1.610393	0.573269	0.426174
O3	O	0.866534	0.082364	-0.073822
O4	O	1.366534	0.582364	0.426178
O5	O	0.995839	-0.005090	-0.073806
O6	O	1.495839	0.494910	0.426194
O7	O	0.981089	0.160723	-0.073842
O8	O	1.481089	0.660723	0.426158
O9	O	0.995807	-0.005085	0.073759
O10	O	1.495807	0.494915	0.573759
O11	O	0.866503	0.082369	0.073743
O12	O	1.366503	0.582369	0.573743
O13	O	1.110362	0.073274	0.073739
O14	O	1.610362	0.573274	0.573739
Zn15	Zn	0.988427	0.077822	0.097170
Zn16	Zn	1.488427	0.577822	0.597170
Zn17	Zn	0.988469	0.077816	-0.097253
Zn18	Zn	1.488469	0.577816	0.402747
O19	O	0.981057	0.160728	0.073723
O20	O	1.481057	0.660728	0.573723
C21	C	0.835326	0.081996	-0.000039
C22	C	1.335326	0.581996	0.499961
C23	C	0.742383	0.080884	-0.000036
C24	C	1.242383	0.580884	0.499964
C25	C	0.572218	0.078830	-0.000043
C26	C	1.072218	0.578830	0.499957
C27	C	0.524217	0.141099	-0.000054
C28	C	1.024217	0.641099	0.499946
C29	C	0.427539	0.139963	-0.000391
C30	C	0.927539	0.639963	0.499609
C31	C	0.404678	0.076808	-0.000048
C32	C	0.904678	0.576808	0.499952
C33	C	0.446094	0.045912	-0.084142
C34	C	0.946094	0.545912	0.415858
C35	C	0.542714	0.047487	-0.084211
C36	C	1.042714	0.547487	0.415789
C37	C	0.542965	0.046571	0.083605
C38	C	1.042965	0.546571	0.583605
C39	C	0.446020	0.046577	0.084708
C40	C	0.946020	0.546577	0.584708
C41	C	0.309993	0.075663	-0.000054
C42	C	0.809993	0.575663	0.499946
C43	C	0.666903	0.079974	-0.000043
C44	C	1.166903	0.579974	0.499957
C45	C	0.995454	-0.026305	-0.000021
C46	C	1.495454	0.473695	0.499979
C47	C	0.994345	-0.089528	-0.000012
C48	C	1.494345	0.410472	0.499988
C49	C	0.987398	-0.481568	-0.080498
C50	C	1.487398	0.018432	0.419502
C51	C	0.986344	-0.540971	-0.080503
C52	C	1.486344	-0.040971	0.419497
O53	O	0.985785	-0.571692	-0.148912
O54	O	1.485785	-0.071692	0.351088
N55	N	0.985804	-0.570682	-0.000066
N56	N	1.485804	-0.070682	0.499934
C57	C	0.986309	-0.540985	0.080381
C58	C	1.486309	-0.040985	0.580381
O59	O	0.985752	-0.571711	0.148798
O60	O	1.485752	-0.071711	0.648798
C61	C	0.987358	-0.481582	0.080385
C62	C	1.487358	0.018418	0.580385
C63	C	0.987907	-0.451875	-0.000057
C64	C	1.487907	0.048125	0.499943
C65	C	0.987946	-0.451861	-0.160933
C66	C	1.487946	0.048139	0.339067
C67	C	0.989002	-0.392462	-0.160928
C68	C	1.489002	0.107538	0.339072
C69	C	0.989510	-0.362769	-0.080487
C70	C	1.489510	0.137231	0.419513
C71	C	0.988963	-0.392476	-0.000052
C72	C	1.488963	0.107524	0.499948
C73	C	0.987858	-0.451886	0.160831
C74	C	1.487858	0.048114	0.660831
C75	C	0.988905	-0.392479	0.160828
C76	C	1.488905	0.107521	0.660828
C77	C	0.989454	-0.362772	0.080386
C78	C	1.489454	0.137228	0.580386
C79	C	0.990527	-0.303385	0.080395
C80	C	1.490527	0.196615	0.580395
N81	N	0.991067	-0.273674	-0.000042
N82	N	1.491067	0.226326	0.499958
C83	C	0.990559	-0.303367	-0.080483
C84	C	1.490559	0.196633	0.419517
C85	C	0.984106	-0.665735	0.080366
C86	C	1.484106	-0.165735	0.580366
C87	C	0.983064	-0.725137	0.080363
C88	C	1.483064	-0.225137	0.580363
C89	C	0.983097	-0.725119	-0.080521
C90	C	1.483097	-0.225119	0.419479
C91	C	0.984145	-0.665716	-0.080517
C92	C	1.484145	-0.165716	0.419483
C93	C	0.984646	-0.636024	-0.000071
C94	C	1.484646	-0.136024	0.499929
C95	C	0.992777	-0.178624	-0.080465
C96	C	1.492777	0.321376	0.419535
C97	C	0.993837	-0.119220	-0.080453
C98	C	1.493837	0.380780	0.419547
C99	C	0.993799	-0.119243	0.080430
C100	C	1.493799	0.380757	0.580430
C101	C	0.992744	-0.178642	0.080418
C102	C	1.492744	0.321358	0.580418
C103	C	0.992230	-0.208331	-0.000037
C104	C	1.492230	0.291669	0.499963
O105	O	0.991083	-0.272626	0.148769
O106	O	1.491083	0.227374	0.648769
O107	O	0.991105	-0.272633	-0.148889
O108	O	1.491105	0.227367	0.351111
C109	C	1.141570	0.073642	-0.000046
C110	C	1.641570	0.573642	0.499954
C111	C	1.234513	0.074755	-0.000054
C112	C	1.734513	0.574755	0.499946
C113	C	0.981442	0.181943	-0.000064
C114	C	1.481442	0.681943	0.499936
C115	C	0.982551	0.245166	-0.000078
C116	C	1.482551	0.745166	0.499922
N117	N	0.988405	0.077826	0.229859
N118	N	1.488405	0.577826	0.729859
N119	N	0.988498	0.077807	-0.229942
N120	N	1.488498	0.577807	0.270058
C121	C	0.988467	0.077814	0.589061
C122	C	1.488467	0.577814	1.089061
C123	C	0.919049	0.124452	0.551445
C124	C	1.419049	0.624452	1.051445
C125	C	0.919206	0.124622	0.448619
C126	C	1.419206	0.624622	0.948619
C127	C	0.988435	0.077820	0.410857
C128	C	1.488435	0.577820	0.910857
C129	C	1.075691	0.090788	0.448143
C130	C	1.575691	0.590788	0.948143
C131	C	1.075301	0.091120	0.551001
C132	C	1.575301	0.591120	1.051001
C133	C	0.971410	0.018069	0.551174
C134	C	1.471410	0.518069	1.051174
C135	C	0.969402	0.018468	0.448311
C136	C	1.469402	0.518468	0.948311
C137	C	0.988423	0.077822	0.310143
C138	C	1.488423	0.577822	0.810143
C139	C	0.988485	0.077812	0.689774
C140	C	1.488485	0.577812	1.189774
H141	H	0.542481	0.166125	0.060240
H142	H	1.042481	0.666125	0.560240
H143	H	0.982630	-0.749320	0.145867
H144	H	1.482630	-0.249320	0.645867
H145	H	0.994217	-0.095057	0.145923
H146	H	1.494217	0.404943	0.645923
Br147	Br	0.987110	-0.492187	0.270009
Br148	Br	1.487110	0.007813	0.770009
H149	H	0.989301	-0.368306	0.226339
H150	H	1.489301	0.131694	0.726339
H151	H	1.091174	0.133862	0.422364
H152	H	1.591174	0.633862	0.922364
Br153	Br	0.862424	0.002061	0.407699
Br154	Br	1.362424	0.502061	0.907699
Br155	Br	0.556564	0.182186	-0.100431
Br156	Br	1.056564	0.682186	0.399569
Br157	Br	0.380793	0.180244	-0.101469
Br158	Br	0.880793	0.680244	0.398531
Br159	Br	0.421107	-0.030166	0.093613
Br160	Br	0.921107	0.469834	0.593613
H161	H	0.853963	0.116854	0.576210
H162	H	1.353963	0.616854	1.076210
H163	H	0.418474	0.069139	0.146922
H164	H	0.918474	0.569139	0.646922
Br165	Br	0.597165	-0.028721	-0.090176
Br166	Br	1.097165	0.471279	0.409824
Br167	Br	0.572957	0.084592	-0.189398
Br168	Br	1.072957	0.584592	0.310602
Br169	Br	0.423263	-0.031433	-0.088950
Br170	Br	0.923263	0.468567	0.411050
H171	H	0.575140	0.000661	0.084424
H172	H	1.075140	0.500661	0.584424
Br173	Br	0.936868	0.197935	0.594473
Br174	Br	1.436868	0.697935	1.094473
H175	H	0.930045	0.168957	0.423995
H176	H	1.430045	0.668957	0.923995
Br177	Br	0.867693	-0.002709	0.594468
Br178	Br	1.367693	0.497291	1.094468
Br179	Br	0.994587	-0.078908	-0.189631
Br180	Br	1.494587	0.421092	0.310369
H181	H	0.417541	0.067090	-0.146970
H182	H	0.917541	0.567090	0.353030
H183	H	0.992355	-0.202790	-0.145980
H184	H	1.492355	0.297210	0.354020
H185	H	0.563275	0.067074	0.147364
H186	H	1.063275	0.567074	0.647364
Br187	Br	0.989741	-0.352154	-0.270105
Br188	Br	1.489741	0.147846	0.229895
H189	H	0.982680	-0.749305	-0.146020
H190	H	1.482680	-0.249305	0.353980
Br191	Br	1.163854	0.036593	0.592476
Br192	Br	1.663854	0.536593	1.092476
H193	H	0.398855	0.164240	0.059877
H194	H	0.898855	0.664240	0.559877
Br195	Br	0.984889	-0.625406	-0.189692
Br196	Br	1.484889	-0.125406	0.310308
Br197	Br	0.987256	-0.492146	-0.270118
Br198	Br	1.487256	0.007854	0.229882
Br199	Br	0.984792	-0.625445	0.189554
Br200	Br	1.484792	-0.125445	0.689554
H201	H	0.992305	-0.202831	0.145921
H202	H	1.492305	0.297169	0.645921
H203	H	0.854331	0.116897	0.423412
H204	H	1.354331	0.616897	0.923412
Br205	Br	1.100484	0.163740	0.590960
Br206	Br	1.600484	0.663740	1.090960
Br207	Br	1.163814	0.035676	0.407379
Br208	Br	1.663814	0.535676	0.907379
Br209	Br	1.048272	-0.042088	0.405488
Br210	Br	1.548272	0.457912	0.905488
Br211	Br	1.055794	-0.039777	0.591715
Br212	Br	1.555794	0.460223	1.091715
