data_functionalizedCrystal
_audit_creation_method	'MofGen! by Chris Wilmer'
_symmetry_space_group_name_H-M	'P1'
_symmetry_Int_Tables_number	1
_symmetry_cell_setting	triclinic
loop_
_symmetry_equiv_pos_as_xyz
  x,y,z
_cell_length_a	15.297475
_cell_length_b	21.295417
_cell_length_c	21.295411
_cell_angle_alpha	90.028718
_cell_angle_beta	99.680691
_cell_angle_gamma	80.332118
loop_
_atom_site_label
_atom_site_type_symbol
_atom_site_fract_x
_atom_site_fract_y
_atom_site_fract_z
Zn1	Zn	1.379104	-0.417437	0.522140
Zn2	Zn	1.378985	-0.522687	0.416852
Zn3	Zn	1.228250	-0.399205	0.398703
Zn4	Zn	1.228185	-0.504419	0.503907
O5	O	1.303631	-0.460937	0.460400
O6	O	1.505331	-0.446674	0.523400
O7	O	1.358968	-0.506322	0.326352
O8	O	1.248338	-0.313543	0.415112
O9	O	1.505244	-0.524001	0.446045
O10	O	1.359170	-0.326938	0.505802
O11	O	1.248223	-0.415600	0.313018
O12	O	1.101999	-0.397886	0.397432
O13	O	1.248227	-0.492865	0.594418
O14	O	1.101951	-0.475186	0.474725
O15	O	1.359106	-0.428960	0.607814
O16	O	1.358904	-0.608344	0.428364
O17	O	1.248112	-0.594922	0.492323
C18	C	1.069241	-0.432576	0.432131
C19	C	0.968968	-0.420458	0.420052
C20	C	0.686315	-0.547549	0.546732
C21	C	0.780527	-0.558939	0.558079
C22	C	0.827642	-0.524320	0.523573
C23	C	0.780536	-0.478309	0.477718
C24	C	0.686315	-0.466921	0.466367
C25	C	0.827642	-0.443692	0.443208
C26	C	0.780536	-0.397680	0.397353
C27	C	0.686324	-0.386295	0.386004
C28	C	0.639209	-0.420914	0.420509
C29	C	0.921862	-0.455079	0.454560
C30	C	0.921862	-0.374451	0.374194
C31	C	0.827651	-0.363061	0.362847
C32	C	1.303513	-0.624474	0.460351
C33	C	1.303545	-0.694446	0.460361
C34	C	1.361286	-0.734287	0.427105
C35	C	1.361328	-0.800034	0.427124
C36	C	1.303613	-0.825937	0.460391
C37	C	1.245868	-0.786088	0.493655
C38	C	1.245834	-0.720342	0.493640
N39	N	1.224694	-0.919658	0.455672
N40	N	1.224729	-0.982113	0.455683
C41	C	1.303714	-1.024024	0.460439
N42	N	1.382665	-1.001119	0.465173
N43	N	1.382628	-0.938658	0.465159
C44	C	1.303644	-0.897226	0.460411
C45	C	1.361506	-1.135156	0.427203
C46	C	1.361550	-1.200905	0.427227
C47	C	1.246082	-1.186956	0.493752
C48	C	1.246046	-1.121209	0.493733
C49	C	1.303757	-1.095313	0.460454
C50	C	1.538936	-0.489409	0.488781
C51	C	1.639209	-0.501542	0.500875
C52	C	1.303673	-0.460908	0.624596
C53	C	1.303690	-0.460896	0.694566
C54	C	1.303774	-0.296764	0.460466
C55	C	1.303835	-0.226803	0.460495
C56	C	1.303642	-0.460926	0.296850
C57	C	1.303799	-0.460782	0.226901
C58	C	1.361456	-0.508017	1.200980
C59	C	1.361439	-0.508035	1.135235
C60	C	1.303776	-0.460808	1.095416
C61	C	1.246108	-0.413569	1.121344
C62	C	1.246119	-0.413556	1.187087
N63	N	1.296885	-0.404895	0.991380
N64	N	1.296879	-0.404910	0.928928
C65	C	1.303736	-0.460846	0.897336
N66	N	1.310616	-0.516769	0.930558
N67	N	1.310627	-0.516754	0.993017
C68	C	1.303756	-0.460818	1.024128
C69	C	1.361378	-0.508104	0.800128
C70	C	1.361356	-0.508122	0.734381
C71	C	1.246029	-0.413652	0.720491
C72	C	1.246047	-0.413639	0.786236
C73	C	1.303726	-0.460864	0.826051
H74	H	0.647946	-0.575735	0.574818
H75	H	0.789284	-0.325599	0.325512
C76	C	1.424897	-0.559971	1.244771
N77	N	1.472678	-0.599106	1.277756
C78	C	1.424810	-0.560074	0.705871
N79	N	1.472615	-0.599199	0.684399
H80	H	1.199167	-0.375091	1.208190
H81	H	1.199156	-0.375118	1.088918
H82	H	1.408342	-0.546559	0.832546
H83	H	1.198878	-0.807182	0.520742
C84	C	1.182597	-1.215445	0.530348
N85	N	1.134779	-1.236906	0.557914
H86	H	0.647973	-0.348836	0.348659
C87	C	0.973685	-0.336365	0.336237
N88	N	1.012723	-0.307682	0.307650
H89	H	1.408351	-0.832479	0.400044
C90	C	1.425072	-1.244731	0.390640
N91	N	1.472916	-1.277740	0.363080
C92	C	0.535570	-0.408378	0.408039
N93	N	0.457508	-0.398934	0.398652
H94	H	1.408279	-0.713205	0.400010
C95	C	1.182323	-0.676517	0.530235
N96	N	1.134489	-0.643507	0.557802
C97	C	1.425001	-1.106670	0.390607
N98	N	1.472830	-1.085216	0.363046
C99	C	1.182544	-1.077385	0.530333
N100	N	1.134722	-1.044377	0.557910
H101	H	1.199076	-0.375200	0.688071
C102	C	1.424867	-0.560000	1.106715
N103	N	1.472642	-0.599140	1.085236
C104	C	1.182631	-0.361669	0.814752
N105	N	1.134864	-0.322523	0.836229
H106	H	0.960207	-0.492541	0.491896
H107	H	0.904353	-0.533596	0.532815
H108	H	0.818873	-0.596403	0.595413
