data_functionalizedCrystal
_audit_creation_method	'MofGen! by Chris Wilmer'
_symmetry_space_group_name_H-M	'P1'
_symmetry_Int_Tables_number	1
_symmetry_cell_setting	triclinic
loop_
_symmetry_equiv_pos_as_xyz
  x,y,z
_cell_length_a	12.759401
_cell_length_b	10.685194
_cell_length_c	12.759393
_cell_angle_alpha	94.403421
_cell_angle_beta	90.018496
_cell_angle_gamma	94.377401
loop_
_atom_site_label
_atom_site_type_symbol
_atom_site_fract_x
_atom_site_fract_y
_atom_site_fract_z
Zn1	Zn	1.574245	-0.502334	0.561903
Zn2	Zn	1.560690	-0.713404	0.372744
Zn3	Zn	1.398543	-0.502400	0.386238
Zn4	Zn	1.385092	-0.713307	0.548392
O5	O	1.479643	-0.607861	0.467319
O6	O	1.719467	-0.530346	0.536818
O7	O	1.539137	-0.685482	0.227509
O8	O	1.433153	-0.325792	0.420842
O9	O	1.709508	-0.685418	0.397844
O10	O	1.562240	-0.325744	0.549902
O11	O	1.420008	-0.530458	0.237422
O12	O	1.249739	-0.530364	0.407741
O13	O	1.410228	-0.685253	0.697209
O14	O	1.239856	-0.685317	0.526875
O15	O	1.549198	-0.530252	0.707136
O16	O	1.526094	-0.889990	0.384743
O17	O	1.397083	-0.889919	0.513790
C18	C	1.206677	-0.607838	0.467306
C19	C	1.089899	-0.607859	0.467324
C20	C	1.029910	-0.688671	0.529237
C21	C	0.920185	-0.688687	0.529248
C22	C	0.930447	-0.527074	0.405422
C23	C	1.040170	-0.527053	0.405418
C24	C	1.023985	-0.781982	0.600724
C25	C	0.914259	-0.781998	0.600734
C26	C	1.458687	-0.935745	0.446359
C27	C	1.449818	-1.076015	0.437427
C28	C	1.753674	-0.607886	0.467332
C29	C	1.870450	-0.607896	0.467338
C30	C	1.479724	-0.607734	0.741361
C31	C	1.479759	-0.607680	0.858141
C32	C	1.500709	-0.278698	0.488384
C33	C	1.509686	-0.138428	0.497361
C34	C	1.479627	-0.607897	0.194349
C35	C	1.479819	-0.607596	0.077593
C36	C	1.552130	-0.526963	0.918174
C37	C	1.552158	-0.526917	1.027901
C38	C	1.407440	-0.688316	1.017552
C39	C	1.407408	-0.688354	0.907827
C40	C	1.635686	-0.433784	0.924150
C41	C	1.635714	-0.433739	1.033877
H42	H	1.055454	-0.755917	0.683795
F43	F	1.373935	-1.146438	0.361425
H44	H	1.567729	-1.084553	0.555511
F45	F	1.104012	-0.441021	0.339539
H46	H	1.348473	-0.754077	0.858952
F47	F	1.330442	-0.774171	1.070441
F48	F	0.877513	-0.441078	0.339543
F49	F	1.615372	-0.306043	0.893409
F50	F	1.060718	-0.903303	0.554778
F51	F	1.733767	-0.479574	0.876733
F52	F	1.605273	-0.312418	1.086133
H53	H	0.882485	-0.747110	0.680314
F54	F	0.867171	-0.909706	0.563885
F55	F	1.739892	-0.467939	1.070620
