data_functionalizedCrystal
_audit_creation_method	'MofGen! by Chris Wilmer'
_symmetry_space_group_name_H-M	'P1'
_symmetry_Int_Tables_number	1
_symmetry_cell_setting	triclinic
loop_
_symmetry_equiv_pos_as_xyz
  x,y,z
_cell_length_a	12.827893
_cell_length_b	25.639240
_cell_length_c	12.827885
_cell_angle_alpha	89.956835
_cell_angle_beta	89.980728
_cell_angle_gamma	90.032919
loop_
_atom_site_label
_atom_site_type_symbol
_atom_site_fract_x
_atom_site_fract_y
_atom_site_fract_z
Zn1	Zn	1.597543	-0.208123	-0.590751
Zn2	Zn	1.597385	-0.295568	-0.415971
Zn3	Zn	1.422785	-0.208149	-0.416025
Zn4	Zn	1.422717	-0.295530	-0.590671
O5	O	1.510108	-0.251843	-0.503355
O6	O	1.743758	-0.219728	-0.567578
O7	O	1.574185	-0.283999	-0.269742
O8	O	1.446062	-0.134980	-0.439259
O9	O	1.743642	-0.283974	-0.439167
O10	O	1.574456	-0.134961	-0.567630
O11	O	1.445908	-0.219772	-0.269782
O12	O	1.276540	-0.219735	-0.439181
O13	O	1.445946	-0.283908	-0.736918
O14	O	1.276490	-0.283933	-0.567493
O15	O	1.574391	-0.219691	-0.736977
O16	O	1.574120	-0.368728	-0.439089
O17	O	1.445792	-0.368700	-0.567440
C18	C	1.238598	-0.251833	-0.503335
C19	C	1.122445	-0.251841	-0.503351
C20	C	1.070717	-0.220107	-0.566992
C21	C	0.950667	-0.220115	-0.567010
C22	C	1.509960	-0.387685	-0.503273
C23	C	1.509992	-0.445799	-0.503273
C24	C	1.576996	-0.806114	-0.570318
C25	C	1.577027	-0.860718	-0.570339
O26	O	1.633820	-0.888914	-0.627259
N27	N	1.510253	-0.888082	-0.503456
C28	C	1.443436	-0.860838	-0.436554
O29	O	1.386642	-0.889127	-0.379667
C30	C	1.443401	-0.806235	-0.436539
C31	C	1.510186	-0.778874	-0.503419
C32	C	1.643775	-0.778753	-0.637194
C33	C	1.643746	-0.724153	-0.637171
C34	C	1.576936	-0.696913	-0.570272
C35	C	1.510157	-0.724273	-0.503396
C36	C	1.376579	-0.778992	-0.369643
C37	C	1.376549	-0.724385	-0.369634
C38	C	1.443335	-0.697024	-0.436515
C39	C	1.443318	-0.642433	-0.436475
N40	N	1.510092	-0.615070	-0.503358
C41	C	1.576901	-0.642310	-0.570257
C42	C	1.443514	-0.975508	-0.436592
C43	C	1.443554	-1.030111	-0.436601
C44	C	1.577143	-1.029987	-0.570388
C45	C	1.577108	-0.975384	-0.570373
C46	C	1.510288	-0.948145	-0.503476
C47	C	1.576834	-0.527644	-0.570203
C48	C	1.576802	-0.473039	-0.570171
C49	C	1.443209	-0.473167	-0.436389
C50	C	1.443245	-0.527768	-0.436417
C51	C	1.510061	-0.555005	-0.503332
O52	O	1.386551	-0.614203	-0.379587
O53	O	1.633676	-0.614014	-0.627144
C54	C	1.782678	-0.251853	-0.503375
C55	C	1.898831	-0.251857	-0.503384
C56	C	1.510179	-0.251792	-0.775925
C57	C	1.510209	-0.251771	-0.892078
C58	C	1.510284	-0.115470	-0.503460
C59	C	1.510360	-0.057355	-0.503504
C60	C	1.573774	-0.219988	-0.943892
C61	C	1.573807	-0.219965	-1.063943
C62	C	1.510097	-0.251855	-0.231845
C63	C	1.510269	-0.251729	-0.115692
H64	H	0.943308	-0.279030	-0.448902
H65	H	0.906183	-0.192948	-0.621498
H66	H	1.631235	-0.549815	-0.624699
H67	H	1.077853	-0.279015	-0.448877
H68	H	1.322195	-0.801260	-0.315182
H69	H	1.698125	-0.701879	-0.691633
H70	H	1.322133	-0.702209	-0.315160
H71	H	1.698179	-0.800926	-0.691677
H72	H	1.628231	-0.192756	-1.108501
H73	H	1.628166	-0.192793	-0.899375
H74	H	1.389181	-1.052383	-0.382130
H75	H	1.631490	-0.953110	-0.624833
H76	H	1.631541	-1.052176	-0.624863
H77	H	1.631190	-0.450764	-0.624633
H78	H	1.389104	-0.953333	-0.382108
H79	H	1.115308	-0.192930	-0.621459
H80	H	1.388816	-0.450980	-0.381918
H81	H	1.388870	-0.550046	-0.381949
H82	H	1.455850	-0.278943	-1.071140
H83	H	1.455806	-0.278961	-0.936595
