data_functionalizedCrystal
_audit_creation_method	'MofGen! by Chris Wilmer'
_symmetry_space_group_name_H-M	'P1'
_symmetry_Int_Tables_number	1
_symmetry_cell_setting	triclinic
loop_
_symmetry_equiv_pos_as_xyz
  x,y,z
_cell_length_a	19.077241
_cell_length_b	19.077579
_cell_length_c	21.295417
_cell_angle_alpha	87.672219
_cell_angle_beta	87.678549
_cell_angle_gamma	94.520309
loop_
_atom_site_label
_atom_site_type_symbol
_atom_site_fract_x
_atom_site_fract_y
_atom_site_fract_z
Zn1	Zn	-1.093718	-0.441989	-0.195538
Zn2	Zn	-1.088892	-0.324090	-0.305217
Zn3	Zn	-0.971099	-0.319367	-0.204357
Zn4	Zn	-0.975782	-0.437194	-0.305173
O5	O	-1.032373	-0.380660	-0.252571
O6	O	-1.191731	-0.430333	-0.206415
O7	O	-1.069287	-0.224812	-0.295547
O8	O	-0.987424	-0.335663	-0.115095
O9	O	-1.188186	-0.343713	-0.286995
O10	O	-1.077512	-0.425752	-0.108615
O11	O	-0.982744	-0.221341	-0.221446
O12	O	-0.873067	-0.331013	-0.221403
O13	O	-0.995406	-0.536482	-0.286920
O14	O	-0.876507	-0.417580	-0.295472
O15	O	-1.082054	-0.540005	-0.206372
O16	O	-1.073828	-0.339064	-0.393304
O17	O	-0.990727	-0.422160	-0.393271
C18	C	-0.849207	-0.373264	-0.259390
C19	C	-0.770849	-0.370117	-0.262322
C20	C	-0.735886	-0.413805	-0.221806
C21	C	-0.662259	-0.410842	-0.224558
C22	C	-0.623598	-0.364194	-0.267829
C23	C	-0.658566	-0.320500	-0.308346
C24	C	-0.732191	-0.323460	-0.305591
C25	C	-0.403205	-0.350494	-0.280558
C26	C	-0.329575	-0.347538	-0.283312
C27	C	-0.333273	-0.437880	-0.199523
C28	C	-0.406899	-0.440839	-0.196774
C29	C	-0.441861	-0.397143	-0.237289
N30	N	-0.548340	-0.361165	-0.270644
N31	N	-0.517117	-0.400168	-0.234470
C32	C	-1.032281	-0.380621	-0.416128
C33	C	-1.032308	-0.380630	-0.486094
C34	C	-1.039791	-0.564538	-0.245657
C35	C	-1.042952	-0.642896	-0.242711
C36	C	-0.216253	-0.388079	-0.245723
C37	C	-0.294612	-0.391227	-0.242796
C38	C	-1.065624	-1.084166	-0.221625
C39	C	-1.062650	-1.010540	-0.224396
C40	C	-1.016047	-0.971897	-0.267716
C41	C	-0.972420	-1.006882	-0.308271
C42	C	-0.975399	-1.080507	-0.305502
C43	C	-1.002304	-0.751506	-0.280497
C44	C	-0.999327	-0.677877	-0.283261
C45	C	-1.089558	-0.681539	-0.199388
C46	C	-1.092530	-0.755165	-0.196620
C47	C	-1.048906	-0.790145	-0.237177
N48	N	-1.013003	-0.896639	-0.270549
N49	N	-1.051953	-0.865401	-0.234347
C50	C	-1.025024	-0.197499	-0.259411
C51	C	-1.022000	-0.119147	-0.262175
C52	C	-1.079192	-0.427571	-0.515530
C53	C	-1.079218	-0.427589	-0.581271
C54	C	-1.032366	-0.380654	-0.617574
C55	C	-0.985473	-0.333710	-0.588131
C56	C	-0.985444	-0.333698	-0.522391
N57	N	-1.024566	-0.318744	-0.723340
N58	N	-1.024598	-0.318757	-0.785789
C59	C	-1.032450	-0.380690	-0.815644
N60	N	-1.040282	-0.442609	-0.780690
N61	N	-1.040254	-0.442595	-0.718234
C62	C	-1.032392	-0.380663	-0.688858
C63	C	-1.079364	-0.427654	-0.916363
C64	C	-1.079385	-0.427674	-0.982106
C65	C	-0.985643	-0.333788	-0.988965
C66	C	-0.985619	-0.333775	-0.923224
C67	C	-1.032483	-0.380707	-0.886927
C68	C	-1.032484	-0.380715	-0.088375
C69	C	-1.032532	-0.380739	-0.018404
H70	H	-0.298099	-0.309551	-0.318551
O71	O	-0.628258	-0.453182	-0.185144
C72	C	-0.545526	-0.459511	-0.102943
C73	C	-0.583998	-0.411477	-0.147535
H74	H	-0.509721	-0.425812	-0.072535
H75	H	-0.585770	-0.493353	-0.071501
H76	H	-0.512567	-0.494937	-0.131819
H77	H	-0.616956	-0.376008	-0.118710
H78	H	-0.543718	-0.377683	-0.178979
H79	H	-0.438373	-0.478827	-0.161541
O80	O	-1.131908	-0.647450	-0.160060
C81	C	-1.167283	-0.535650	-0.127126
C82	C	-1.119290	-0.574166	-0.171711
H83	H	-1.157088	-0.476393	-0.136520
H84	H	-1.224719	-0.552360	-0.135526
H85	H	-1.155536	-0.549689	-0.076286
H86	H	-1.130974	-0.560147	-0.222567
H87	H	-1.061869	-0.557453	-0.163255
O88	O	-0.437051	-0.308024	-0.319979
C89	C	-0.425605	-0.218075	-0.403350
C90	C	-0.387183	-0.266147	-0.358751
H91	H	-0.385303	-0.184194	-0.434699
H92	H	-0.461351	-0.251719	-0.433851
H93	H	-0.458612	-0.182687	-0.374478
H94	H	-0.354138	-0.301543	-0.387573
H95	H	-0.351479	-0.232460	-0.328248
H96	H	-0.966781	-0.779978	-0.313520
H97	H	-1.117564	-0.465902	-1.006070
O98	O	-1.104912	-0.976490	-0.184960
C99	C	-1.111054	-0.893845	-0.102682
C100	C	-1.063115	-0.932339	-0.147333
H101	H	-1.077281	-0.858151	-0.072239
H102	H	-1.146507	-0.860793	-0.131448
H103	H	-1.144872	-0.934138	-0.071271
H104	H	-1.029254	-0.892095	-0.178753
H105	H	-1.027710	-0.965403	-0.118528
H106	H	-0.947264	-0.295472	-0.498425
O107	O	-1.124682	-0.473099	-0.480178
C108	C	-1.166150	-0.514726	-0.375864
C109	C	-1.114610	-0.463116	-0.415825
H110	H	-1.158014	-0.506684	-0.323826
H111	H	-1.222531	-0.504692	-0.387042
H112	H	-1.156028	-0.571053	-0.387146
H113	H	-1.124668	-0.406770	-0.404565
H114	H	-1.058246	-0.473212	-0.404641
O115	O	-0.620984	-0.275285	-0.350444
C116	C	-0.537403	-0.262283	-0.438871
C117	C	-0.579933	-0.313567	-0.391241
H118	H	-0.504191	-0.293212	-0.471859
H119	H	-0.575009	-0.231575	-0.467402
H120	H	-0.501483	-0.224083	-0.412579
H121	H	-0.615856	-0.351809	-0.417482
H122	H	-0.542287	-0.344223	-0.362711
O123	O	-1.124664	-0.473258	-0.609907
C124	C	-1.137941	-0.568797	-0.680199
C125	C	-1.086397	-0.517132	-0.647798
H126	H	-1.107023	-0.604272	-0.710852
H127	H	-1.171422	-0.602394	-0.642997
H128	H	-1.173544	-0.537933	-0.710773
H129	H	-1.050749	-0.547939	-0.617227
H130	H	-1.052965	-0.483534	-0.685033
H131	H	-0.304799	-0.473453	-0.166537
O132	O	-0.766047	-0.280998	-0.345014
C133	C	-0.754612	-0.191053	-0.428389
C134	C	-0.716184	-0.239117	-0.383789
H135	H	-0.714315	-0.157169	-0.459740
H136	H	-0.790356	-0.224702	-0.458888
H137	H	-0.787623	-0.155667	-0.399518
H138	H	-0.683136	-0.274511	-0.412610
H139	H	-0.680482	-0.205425	-0.353287
O140	O	-1.110957	-1.121595	-0.179525
C141	C	-1.200111	-1.117448	-0.096603
C142	C	-1.148814	-1.074977	-0.144261
H143	H	-1.230722	-1.079774	-0.068071
H144	H	-1.238393	-1.153374	-0.122807
H145	H	-1.169154	-1.150643	-0.063619
H146	H	-1.179713	-1.041741	-0.177257
H147	H	-1.110532	-1.039094	-0.118016
O148	O	-1.137866	-0.792595	-0.154523
C149	C	-1.227022	-0.788455	-0.071602
C150	C	-1.175725	-0.745980	-0.119257
H151	H	-1.257634	-0.750784	-0.043068
H152	H	-1.265302	-0.824381	-0.097807
H153	H	-1.196063	-0.821651	-0.038619
H154	H	-1.206625	-0.712743	-0.152253
H155	H	-1.137444	-0.710098	-0.093011
H156	H	-0.961360	-0.646414	-0.318526
H157	H	-0.947324	-0.295497	-0.617693
H158	H	-0.934478	-0.975413	-0.343545
O159	O	-1.124901	-0.473319	-0.881194
C160	C	-1.217898	-0.566423	-0.881328
C161	C	-1.166357	-0.514755	-0.921229
H162	H	-1.251438	-0.599928	-0.913679
H163	H	-1.187003	-0.601989	-0.850400
H164	H	-1.253442	-0.535564	-0.850356
H165	H	-1.130800	-0.545557	-0.952237
H166	H	-1.197295	-0.479189	-0.952116
H167	H	-0.947444	-0.295548	-0.899256
H168	H	-0.947491	-0.295577	-1.018522
H169	H	-0.767359	-0.451794	-0.186572
O170	O	-0.933052	-1.114413	-0.344980
C171	C	-0.899696	-1.135558	-0.452488
C172	C	-0.947683	-1.097106	-0.407846
H173	H	-0.911518	-1.121591	-0.503324
H174	H	-0.842260	-1.118785	-0.444145
H175	H	-0.909819	-1.194813	-0.443038
H176	H	-0.937622	-1.037845	-0.417269
H177	H	-1.005103	-1.113938	-0.416199
