data_functionalizedCrystal
_audit_creation_method	'MofGen! by Chris Wilmer'
_symmetry_space_group_name_H-M	'P1'
_symmetry_Int_Tables_number	1
_symmetry_cell_setting	triclinic
loop_
_symmetry_equiv_pos_as_xyz
  x,y,z
_cell_length_a	17.639054
_cell_length_b	17.640280
_cell_length_c	21.395355
_cell_angle_alpha	101.215078
_cell_angle_beta	101.252753
_cell_angle_gamma	87.823438
loop_
_atom_site_label
_atom_site_type_symbol
_atom_site_fract_x
_atom_site_fract_y
_atom_site_fract_z
Zn1	Zn	1.222414	-0.067995	0.539688
Zn2	Zn	1.722414	0.432005	1.039688
Zn3	Zn	1.248008	-0.194977	0.418699
Zn4	Zn	1.748008	0.305023	0.918699
Zn5	Zn	1.095388	-0.093636	0.410422
Zn6	Zn	1.595388	0.406364	0.910422
Zn7	Zn	1.121057	-0.220582	0.498955
Zn8	Zn	1.621057	0.279418	0.998955
O9	O	1.171717	-0.144297	0.466941
O10	O	1.671717	0.355703	0.966941
O11	O	1.332100	-0.063393	0.544149
O12	O	1.832100	0.436607	1.044149
O13	O	1.227730	-0.181549	0.329915
O14	O	1.727730	0.318451	0.829915
O15	O	1.090784	0.016035	0.441152
O16	O	1.590784	0.516035	0.941152
O17	O	1.350903	-0.156686	0.455259
O18	O	1.850903	0.343314	0.955259
O19	O	1.184110	0.034873	0.536123
O20	O	1.684110	0.534873	1.036123
O21	O	1.115601	-0.107094	0.323834
O22	O	1.615601	0.392906	0.823834
O23	O	0.992502	-0.131922	0.401655
O24	O	1.492502	0.368078	0.901655
O25	O	1.134535	-0.200326	0.592043
O26	O	1.634535	0.299674	1.092043
O27	O	1.011362	-0.225189	0.466699
O28	O	1.511362	0.274811	0.966699
O29	O	1.209001	-0.088221	0.621970
O30	O	1.709001	0.411779	1.121970
O31	O	1.252621	-0.304643	0.415762
O32	O	1.752621	0.195357	0.915762
O33	O	1.159351	-0.323455	0.474726
O34	O	1.659351	0.176545	0.974726
C35	C	0.974372	-0.184117	0.428859
C36	C	1.474372	0.315883	0.928859
C37	C	0.889951	-0.201170	0.412580
C38	C	1.389951	0.298830	0.912580
C39	C	0.780736	-0.273699	0.343308
C40	C	1.280736	0.226301	0.843308
C41	C	0.860062	-0.257669	0.358610
C42	C	1.360062	0.242331	0.858610
C43	C	0.840521	-0.160681	0.451273
C44	C	1.340521	0.339319	0.951273
C45	C	0.761193	-0.176705	0.435980
C46	C	1.261193	0.323295	0.935980
C47	C	0.731307	-0.233214	0.381997
C48	C	1.231307	0.266786	0.881997
C49	C	0.711764	-0.136221	0.474670
C50	C	1.211764	0.363779	0.974670
C51	C	0.632443	-0.152241	0.459376
C52	C	1.132443	0.347759	0.959376
C53	C	0.602550	-0.208746	0.405394
C54	C	1.102550	0.291254	0.905394
C55	C	0.651986	-0.249235	0.366704
C56	C	1.151986	0.250765	0.866704
C57	C	0.741651	-0.079708	0.528650
C58	C	1.241651	0.420292	1.028650
C59	C	0.692222	-0.039223	0.567339
C60	C	1.192222	0.460777	1.067339
C61	C	0.612900	-0.055247	0.552049
C62	C	1.112900	0.444753	1.052049
C63	C	0.583007	-0.111752	0.498067
C64	C	1.083007	0.388248	0.998067
C65	C	0.563464	-0.014759	0.590739
C66	C	1.063464	0.485241	1.090739
C67	C	0.484143	-0.030779	0.575446
C68	C	0.984143	0.469221	1.075446
C69	C	0.503686	-0.127773	0.482774
C70	C	1.003686	0.372227	0.982774
C71	C	1.211569	-0.341599	0.441740
C72	C	1.711569	0.158401	0.941740
C73	C	1.228688	-0.425992	0.430993
C74	C	1.728688	0.074008	0.930993
C75	C	1.041980	-0.752699	0.548871
C76	C	1.541980	-0.252699	1.048871
C77	C	1.058067	-0.831998	0.538753
C78	C	1.558067	-0.331998	1.038753
C79	C	1.155249	-0.812332	0.477447
C80	C	1.655249	-0.312332	0.977447
C81	C	1.139173	-0.733029	0.487562
C82	C	1.639173	-0.233029	0.987562
C83	C	1.082537	-0.703219	0.523274
C84	C	1.582537	-0.203219	1.023274
C85	C	1.179730	-0.683549	0.461966
C86	C	1.679730	-0.183549	0.961966
C87	C	1.163651	-0.604253	0.472077
C88	C	1.663651	-0.104253	0.972077
C89	C	1.107017	-0.574437	0.507786
C90	C	1.607017	-0.074437	1.007786
C91	C	1.066459	-0.623923	0.533386
C92	C	1.566459	-0.123923	1.033386
C93	C	1.236361	-0.713361	0.426250
C94	C	1.736361	-0.213361	0.926250
C95	C	1.276918	-0.663881	0.400653
C96	C	1.776918	-0.163881	0.900653
C97	C	1.260844	-0.584583	0.410769
C98	C	1.760844	-0.084583	0.910769
C99	C	1.204209	-0.554767	0.446478
C100	C	1.704209	-0.054767	0.946478
C101	C	1.301402	-0.535097	0.385169
C102	C	1.801402	-0.035097	0.885169
C103	C	1.285324	-0.455802	0.395281
C104	C	1.785324	0.044198	0.895281
C105	C	1.188131	-0.475472	0.456589
C106	C	1.688131	0.024528	0.956589
C107	C	1.369832	-0.104323	0.505171
C108	C	1.869832	0.395677	1.005171
C109	C	1.454257	-0.087289	0.521463
C110	C	1.954257	0.412711	1.021463
C111	C	1.171777	-0.144269	0.630378
C112	C	1.671777	0.355731	1.130378
C113	C	1.171802	-0.144257	0.700025
C114	C	1.671802	0.355743	1.200025
C115	C	1.131729	0.053779	0.492258
C116	C	1.631729	0.553779	0.992258
C117	C	1.114689	0.138187	0.503047
C118	C	1.614689	0.638187	1.003047
C119	C	1.171690	-0.144262	0.304154
C120	C	1.671690	0.355738	0.804154
C121	C	1.171768	-0.144030	0.234563
C122	C	1.671768	0.355970	0.734563
C123	C	1.210574	-0.085883	0.748322
C124	C	1.710574	0.414117	1.248322
C125	C	1.210567	-0.085850	0.813761
C126	C	1.710567	0.414150	1.313761
C127	C	1.171798	-0.144204	0.830902
C128	C	1.671798	0.355796	1.330902
C129	C	1.133017	-0.202584	0.782595
C130	C	1.633017	0.297416	1.282595
C131	C	1.133019	-0.202611	0.717157
C132	C	1.633019	0.297389	1.217157
C133	C	1.179612	-0.213791	0.924686
C134	C	1.679612	0.286209	1.424686
C135	C	1.179615	-0.213765	0.990123
C136	C	1.679615	0.286235	1.490123
C137	C	1.171786	-0.144123	1.032734
C138	C	1.671786	0.355877	1.532734
C139	C	1.163970	-0.074502	1.009901
C140	C	1.663970	0.425498	1.509901
C141	C	1.163972	-0.074529	0.944463
C142	C	1.663972	0.425471	1.444463
C143	C	1.171790	-0.144182	0.901856
C144	C	1.671790	0.355818	1.401856
C145	C	1.210552	-0.085709	1.151988
C146	C	1.710552	0.414291	1.651988
C147	C	1.210539	-0.085676	1.217428
C148	C	1.710539	0.414324	1.717428
C149	C	1.132994	-0.202416	1.186260
C150	C	1.632994	0.297584	1.686260
C151	C	1.133002	-0.202443	1.120821
C152	C	1.633002	0.297557	1.620821
C153	C	1.171785	-0.144089	1.103690
C154	C	1.671785	0.355911	1.603690
H155	H	1.142018	-0.451199	0.485675
H156	H	1.642018	0.048801	0.985675
H157	H	1.101442	-0.250146	0.677831
H158	H	1.601442	0.249854	1.177831
H159	H	1.157605	-0.017841	0.925876
H160	H	1.657605	0.482159	1.425876
H161	H	0.716566	0.006788	0.611291
H162	H	1.216566	0.506788	1.111291
N163	N	0.748486	-0.334645	0.285082
N164	N	1.248486	0.165355	0.785082
H165	H	0.722711	-0.376521	0.299656
H166	H	1.222711	0.123479	0.799656
H167	H	0.791869	-0.357807	0.262913
H168	H	1.291869	0.142193	0.762913
N169	N	0.595704	0.046179	0.648968
N170	N	1.095704	0.546179	1.148968
H171	H	0.653455	0.050182	0.652786
H172	H	1.153455	0.550182	1.152786
H173	H	0.584274	0.031467	0.689506
H174	H	1.084274	0.531467	1.189506
H175	H	0.537959	-0.221778	0.392936
H176	H	1.037959	0.278222	0.892936
N177	N	1.155512	0.000616	1.055849
N178	N	1.655512	0.500616	1.555849
H179	H	1.150559	0.044713	1.031455
H180	H	1.650559	0.544713	1.531455
H181	H	1.202527	0.008983	1.091907
H182	H	1.702527	0.508983	1.591907
N183	N	1.252380	-0.022780	1.133497
N184	N	1.752380	0.477220	1.633497
H185	H	1.229634	0.029110	1.149521
H186	H	1.729634	0.529110	1.649521
H187	H	1.246488	-0.031739	1.084712
H188	H	1.746488	0.468261	1.584712
H189	H	0.900306	-0.290641	0.327100
H190	H	1.400306	0.209359	0.827100
H191	H	0.443895	0.002191	0.606948
H192	H	0.943895	0.502191	1.106948
H193	H	1.242110	-0.038136	1.256752
H194	H	1.742110	0.461864	1.756752
H195	H	1.101418	-0.249923	1.200214
H196	H	1.601418	0.250077	1.700214
N197	N	0.619744	-0.310193	0.308485
N198	N	1.119744	0.189807	0.808485
H199	H	0.663093	-0.333416	0.286296
H200	H	1.163093	0.166584	0.786296
H201	H	0.580556	-0.285883	0.277136
H202	H	1.080556	0.214117	0.777136
N203	N	1.014317	-0.885365	0.566363
N204	N	1.514317	-0.385365	1.066363
H205	H	1.023282	-0.869168	0.615171
H206	H	1.523282	-0.369168	1.115171
H207	H	1.033115	-0.940104	0.554491
H208	H	1.533115	-0.440104	1.054491
H209	H	0.806240	-0.066663	0.541098
H210	H	1.306240	0.433337	1.041098
N211	N	1.089669	-0.488912	0.518689
N212	N	1.589669	0.011088	1.018689
H213	H	1.137882	-0.459249	0.542738
H214	H	1.637882	0.040751	1.042738
H215	H	1.047615	-0.477606	0.545175
H216	H	1.547615	0.022394	1.045175
H217	H	1.242154	-0.038366	0.734379
H218	H	1.742154	0.461634	1.234379
N219	N	1.252395	-0.022888	0.865860
N220	N	1.752395	0.477112	1.365860
H221	H	1.293820	-0.046645	0.895869
H222	H	1.793820	0.453355	1.395869
H223	H	1.214375	0.006071	0.891493
H224	H	1.714375	0.506071	1.391493
H225	H	1.020345	-0.599651	0.562472
H226	H	1.520345	-0.099651	1.062472
H227	H	1.101435	-0.249981	1.081496
H228	H	1.601435	0.250019	1.581496
N229	N	1.091186	-0.265515	0.801076
N230	N	1.591186	0.234485	1.301076
H231	H	1.097066	-0.256639	0.849859
H232	H	1.597066	0.243361	1.349859
H233	H	1.113946	-0.317376	0.785001
H234	H	1.613946	0.182624	1.285001
H235	H	1.185781	-0.270529	0.889960
H236	H	1.685781	0.229471	1.389960
N237	N	0.471436	-0.188725	0.424553
N238	N	0.971436	0.311275	0.924553
H239	H	0.496210	-0.240213	0.429941
H240	H	0.996210	0.259787	0.929941
H241	H	0.482809	-0.174006	0.384000
H242	H	0.982809	0.325994	0.884000
N243	N	0.872761	-0.099749	0.509506
N244	N	1.372761	0.400251	1.009506
H245	H	0.930512	-0.095747	0.513328
H246	H	1.430512	0.404253	1.013328
H247	H	0.861327	-0.114468	0.550039
H248	H	1.361327	0.385532	1.050039
H249	H	0.995867	-0.728426	0.577957
H250	H	1.495867	-0.228426	1.077957
N251	N	1.216324	-0.844488	0.438922
N252	N	1.716324	-0.344488	0.938922
H253	H	1.220354	-0.902230	0.436397
H254	H	1.720354	-0.402230	0.936397
H255	H	1.267747	-0.819638	0.460950
H256	H	1.767747	-0.319638	0.960950
H257	H	1.249452	-0.777929	0.418020
H258	H	1.749452	-0.277929	0.918020
H259	H	1.323029	-0.688164	0.371575
H260	H	1.823029	-0.188164	0.871575
H261	H	1.347510	-0.559382	0.356087
H262	H	1.847510	-0.059382	0.856087
H263	H	1.318349	-0.415514	0.374437
H264	H	1.818349	0.084486	0.874437
N265	N	1.188051	-0.288851	1.014749
N266	N	1.688051	0.211149	1.514749
H267	H	1.193001	-0.332974	0.977826
H268	H	1.693001	0.167026	1.477826
H269	H	1.141029	-0.297186	1.032999
H270	H	1.641029	0.202814	1.532999
