data_functionalizedCrystal
_audit_creation_method	'MofGen! by Chris Wilmer'
_symmetry_space_group_name_H-M	'P1'
_symmetry_Int_Tables_number	1
_symmetry_cell_setting	triclinic
loop_
_symmetry_equiv_pos_as_xyz
  x,y,z
_cell_length_a	16.959455
_cell_length_b	21.295417
_cell_length_c	16.959447
_cell_angle_alpha	89.964807
_cell_angle_beta	89.985678
_cell_angle_gamma	90.027454
loop_
_atom_site_label
_atom_site_type_symbol
_atom_site_fract_x
_atom_site_fract_y
_atom_site_fract_z
Zn1	Zn	1.208326	-0.250648	-0.446882
Zn2	Zn	1.708326	0.249352	0.053118
Zn3	Zn	1.208225	-0.355925	-0.314692
Zn4	Zn	1.708225	0.144075	0.185308
Zn5	Zn	1.076155	-0.250668	-0.314719
Zn6	Zn	1.576155	0.249332	0.185281
Zn7	Zn	1.076096	-0.355878	-0.446831
Zn8	Zn	1.576096	0.144122	0.053169
O9	O	1.142200	-0.303280	-0.380781
O10	O	1.642200	0.196720	0.119219
O11	O	1.318924	-0.264625	-0.429357
O12	O	1.818924	0.235375	0.070643
O13	O	1.190688	-0.341990	-0.204085
O14	O	1.690688	0.158010	0.295915
O15	O	1.093755	-0.162576	-0.332284
O16	O	1.593755	0.337424	0.167716
O17	O	1.318849	-0.341971	-0.332237
O18	O	1.818849	0.158029	0.167763
O19	O	1.190861	-0.162561	-0.429383
O20	O	1.690861	0.337439	0.070617
O21	O	1.093657	-0.264658	-0.204105
O22	O	1.593657	0.235342	0.295895
O23	O	0.965536	-0.264613	-0.332234
O24	O	1.465536	0.235387	0.167766
O25	O	1.093654	-0.341891	-0.557448
O26	O	1.593654	0.158109	-0.057448
O27	O	0.965493	-0.341910	-0.429296
O28	O	1.465493	0.158090	0.070704
O29	O	1.190803	-0.264579	-0.557486
O30	O	1.690803	0.235421	-0.057486
O31	O	1.190630	-0.444008	-0.332188
O32	O	1.690630	0.055992	0.167812
O33	O	1.093555	-0.443973	-0.429269
O34	O	1.593555	0.056027	0.070731
C35	C	0.936834	-0.303259	-0.380763
C36	C	1.436834	0.196741	0.119237
C37	C	0.848978	-0.303265	-0.380774
C38	C	1.348978	0.196735	0.119226
C39	C	0.477500	-0.262998	-0.330347
C40	C	0.977500	0.237002	0.169653
C41	C	0.477504	-0.343613	-0.431261
C42	C	0.977504	0.156387	0.068739
C43	C	0.560050	-0.343604	-0.431256
C44	C	1.060050	0.156396	0.068744
C45	C	0.601325	-0.303292	-0.380795
C46	C	1.101325	0.196708	0.119205
C47	C	0.560054	-0.262989	-0.330339
C48	C	1.060054	0.237011	0.169661
C49	C	0.601327	-0.383911	-0.481705
C50	C	1.101327	0.116089	0.018295
C51	C	0.683877	-0.383904	-0.481702
C52	C	1.183877	0.116096	0.018298
C53	C	0.725154	-0.343588	-0.431244
C54	C	1.225154	0.156412	0.068756
C55	C	0.683878	-0.303283	-0.380787
C56	C	1.183878	0.196717	0.119213
C57	C	0.725153	-0.262971	-0.330326
C58	C	1.225153	0.237029	0.169674
C59	C	0.683879	-0.222662	-0.279871
C60	C	1.183879	0.277338	0.220129
C61	C	0.601330	-0.222673	-0.279881
C62	C	1.101330	0.277327	0.220119
C63	C	0.807702	-0.343577	-0.431235
C64	C	1.307702	0.156423	0.068765
C65	C	0.807707	-0.262962	-0.330318
C66	C	1.307707	0.237038	0.169682
C67	C	1.142097	-0.466831	-0.380737
C68	C	1.642097	0.033169	0.119263
C69	C	1.142125	-0.536799	-0.380745
C70	C	1.642125	-0.036799	0.119255
C71	C	1.192717	-0.569663	-0.330246
C72	C	1.692717	-0.069663	0.169754
C73	C	1.192754	-0.635406	-0.330264
C74	C	1.692754	-0.135406	0.169736
C75	C	1.142185	-0.668282	-0.380772
C76	C	1.642185	-0.168282	0.119228
C77	C	1.091589	-0.635410	-0.431281
C78	C	1.591589	-0.135410	0.068719
C79	C	1.091559	-0.569669	-0.431267
C80	C	1.591559	-0.069669	0.068733
N81	N	1.073038	-0.771544	-0.386792
N82	N	1.573038	-0.271544	0.113208
N83	N	1.073069	-0.833996	-0.386800
N84	N	1.573069	-0.333996	0.113200
C85	C	1.142273	-0.866357	-0.380818
C86	C	1.642273	-0.366357	0.119182
N87	N	1.211448	-0.833907	-0.374811
N88	N	1.711448	-0.333907	0.125189
N89	N	1.211416	-0.771449	-0.374798
N90	N	1.711416	-0.271449	0.125202
C91	C	1.142212	-0.739567	-0.380793
C92	C	1.642212	-0.239567	0.119207
C93	C	1.192910	-0.970506	-0.330335
C94	C	1.692910	-0.470506	0.169665
C95	C	1.192948	-1.036249	-0.330359
C96	C	1.692948	-0.536249	0.169641
C97	C	1.091777	-1.036253	-0.431371
C98	C	1.591777	-0.536253	0.068629
C99	C	1.091745	-0.970510	-0.431352
C100	C	1.591745	-0.470510	0.068648
C101	C	1.142311	-0.937641	-0.380830
C102	C	1.642311	-0.437641	0.119170
C103	C	1.348369	-0.303301	-0.380800
C104	C	1.848369	0.196699	0.119200
C105	C	1.436225	-0.303310	-0.380808
C106	C	1.936225	0.196690	0.119192
C107	C	1.142233	-0.303228	-0.586949
C108	C	1.642233	0.196772	-0.086949
C109	C	1.142247	-0.303205	-0.674806
C110	C	1.642247	0.196795	-0.174806
C111	C	1.142326	-0.139089	-0.380842
C112	C	1.642326	0.360911	0.119158
C113	C	1.142379	-0.069121	-0.380868
C114	C	1.642379	0.430879	0.119132
C115	C	1.091760	-0.343392	-1.046265
C116	C	1.591760	0.156608	-0.546265
C117	C	1.192923	-0.262886	-1.046299
C118	C	1.692923	0.237114	-0.546299
C119	C	1.192902	-0.262900	-0.963753
C120	C	1.692902	0.237100	-0.463753
C121	C	1.142310	-0.303160	-0.922459
C122	C	1.642310	0.196840	-0.422459
C123	C	1.091740	-0.343407	-0.963711
C124	C	1.591740	0.156593	-0.463711
C125	C	1.243478	-0.222658	-0.922495
C126	C	1.743478	0.277342	-0.422495
C127	C	1.243459	-0.222670	-0.839944
C128	C	1.743459	0.277330	-0.339944
C129	C	1.192863	-0.262928	-0.798648
C130	C	1.692863	0.237072	-0.298648
C131	C	1.142289	-0.303176	-0.839906
C132	C	1.642289	0.196824	-0.339906
C133	C	1.091698	-0.343437	-0.798612
C134	C	1.591698	0.156563	-0.298612
C135	C	1.041120	-0.383682	-0.839867
C136	C	1.541120	0.116318	-0.339867
C137	C	1.041143	-0.383665	-0.922416
C138	C	1.541143	0.116335	-0.422416
C139	C	1.192839	-0.262945	-0.716100
C140	C	1.692839	0.237055	-0.216100
C141	C	1.091677	-0.343453	-0.716058
C142	C	1.591677	0.156547	-0.216058
C143	C	1.142213	-0.303286	-0.175415
C144	C	1.642213	0.196714	0.324585
C145	C	1.142352	-0.303131	-0.087559
C146	C	1.642352	0.196869	0.412441
H147	H	0.567717	-0.189857	-0.238803
H148	H	1.067717	0.310143	0.261197
Br149	Br	1.261419	-0.680016	-0.261726
Br150	Br	1.761419	-0.180016	0.238274
H151	H	1.050417	-0.662182	-0.472406
H152	H	1.550417	-0.162182	0.027594
H153	H	0.567714	-0.416735	-0.522782
H154	H	1.067714	0.083265	-0.022782
H155	H	0.999931	-0.416465	-0.806235
H156	H	1.499931	0.083535	-0.306235
H157	H	1.050361	-0.542911	-0.472390
H158	H	1.550361	-0.042911	0.027610
Br159	Br	1.261351	-0.525057	-0.261692
Br160	Br	1.761351	-0.025057	0.238308
Br161	Br	0.972511	-0.438282	-0.978409
Br162	Br	1.472511	0.061718	-0.478409
Br163	Br	1.261588	-0.208256	-1.102341
Br164	Br	1.761588	0.291744	-0.602341
Br165	Br	1.261529	-0.925893	-0.261769
Br166	Br	1.761529	-0.425893	0.238231
Br167	Br	0.739886	-0.438607	-0.550175
Br168	Br	1.239886	0.061393	-0.050175
H169	H	0.443891	-0.230178	-0.289270
H170	H	0.943891	0.269822	0.210730
Br171	Br	1.023118	-0.398005	-1.102250
Br172	Br	1.523118	0.101995	-0.602250
H173	H	1.050471	-0.376232	-0.682442
H174	H	1.550471	0.123768	-0.182442
H175	H	1.284672	-0.189883	-0.956122
H176	H	1.784672	0.310117	-0.456122
Br177	Br	0.739905	-0.167961	-0.211384
Br178	Br	1.239905	0.332039	0.288616
H179	H	0.443893	-0.376437	-0.472339
H180	H	0.943893	0.123563	0.027661
H181	H	1.050606	-1.063020	-0.472499
H182	H	1.550606	-0.563020	0.027501
Br183	Br	1.312097	-0.168051	-0.783961
Br184	Br	1.812097	0.331949	-0.283961
H185	H	0.841304	-0.376398	-0.472312
H186	H	1.341304	0.123602	0.027688
Br187	Br	1.261623	-1.080852	-0.261827
Br188	Br	1.761623	-0.580852	0.238173
Br189	Br	1.261482	-0.208336	-0.660113
Br190	Br	1.761482	0.291664	-0.160113
Br191	Br	0.863717	-0.208244	-0.261838
Br192	Br	1.363717	0.291756	0.238162
Br193	Br	1.023079	-0.925906	-0.499888
Br194	Br	1.523079	-0.425906	0.000112
