data_functionalizedCrystal
_audit_creation_method	'MofGen! by Chris Wilmer'
_symmetry_space_group_name_H-M	'P1'
_symmetry_Int_Tables_number	1
_symmetry_cell_setting	triclinic
loop_
_symmetry_equiv_pos_as_xyz
  x,y,z
_cell_length_a	14.971506
_cell_length_b	16.053802
_cell_length_c	14.971486
_cell_angle_alpha	92.568439
_cell_angle_beta	96.381742
_cell_angle_gamma	92.584838
loop_
_atom_site_label
_atom_site_type_symbol
_atom_site_fract_x
_atom_site_fract_y
_atom_site_fract_z
O1	O	1.190703	0.069436	-0.112887
O2	O	0.930306	0.069436	-0.126827
O3	O	1.067483	0.069430	0.010343
O4	O	1.053525	0.069442	-0.250056
O5	O	1.059933	-0.069429	0.002823
O6	O	0.922755	-0.069423	-0.134346
O7	O	1.183153	-0.069423	-0.120406
Zn8	Zn	1.051755	-0.091470	-0.128570
Zn9	Zn	1.061703	0.091483	-0.118663
O10	O	1.045975	-0.069417	-0.257575
C11	C	0.893206	0.000007	-0.129960
C12	C	0.793910	0.000007	-0.128082
C13	C	0.355628	0.000019	-0.201499
C14	C	0.448928	0.000022	-0.203256
C15	C	0.506148	0.000015	-0.122664
C16	C	0.470063	0.000012	-0.040309
C17	C	0.376765	0.000015	-0.038553
C18	C	0.664526	0.000005	-0.043977
C19	C	0.757831	0.000002	-0.045733
C20	C	0.736689	0.000013	-0.208680
C21	C	0.643391	0.000015	-0.206924
C22	C	0.607313	0.000011	-0.124568
N23	N	1.044972	-0.216330	-0.135330
C24	C	1.103363	-0.260026	-0.076985
C25	C	1.098626	-0.347433	-0.081723
C26	C	1.035503	-0.391141	-0.144810
C27	C	0.977106	-0.347438	-0.203157
C28	C	0.981839	-0.260033	-0.198415
C29	C	1.014829	-0.652550	-0.165500
C30	C	1.010103	-0.739961	-0.170240
C31	C	1.131622	-0.739949	-0.048804
C32	C	1.136353	-0.652543	-0.044070
C33	C	1.077953	-0.608847	-0.102415
N34	N	1.030662	-0.480485	-0.149656
N35	N	1.082791	-0.519506	-0.097564
C36	C	1.220252	0.000008	-0.117273
C37	C	1.319549	0.000014	-0.119150
C38	C	1.063084	0.000001	0.039908
C39	C	1.061213	0.000001	0.139205
N40	N	1.068493	0.216343	-0.111895
C41	C	1.050374	0.000014	-0.287140
C42	C	1.052245	0.000019	-0.386437
C43	C	1.141802	0.000001	0.196424
C44	C	1.140039	0.000009	0.289725
C45	C	1.057687	0.000012	0.325803
C46	C	0.977092	0.000016	0.268576
C47	C	0.978856	0.000013	0.175278
C48	C	0.973421	0.000019	0.463039
C49	C	0.971657	0.000019	0.556343
C50	C	1.134604	0.000015	0.577485
C51	C	1.136368	0.000012	0.484187
C52	C	1.055773	0.000014	0.426967
H53	H	0.347391	0.000012	0.028504
H54	H	0.478299	0.000034	-0.270312
F55	F	0.884009	0.000022	0.594739
F56	F	0.952679	-0.606053	-0.227596
H57	H	0.913233	0.000014	0.128690
H58	H	0.907792	0.000022	0.416452
H59	H	0.309045	0.000018	-0.267127
F60	F	1.229453	-0.000011	0.158036
F61	F	0.889447	0.000028	0.306977
H62	H	1.154768	-0.224445	-0.025617
F63	F	1.224017	0.000011	0.445792
F64	F	0.582495	0.000019	-0.292699
F65	F	0.775087	0.000011	-0.296330
F66	F	1.203537	-0.606026	0.023073
H67	H	0.804418	0.000002	0.019892
F68	F	0.626131	-0.000002	0.043676
F69	F	1.193770	-0.786458	0.013288
F70	F	1.220380	0.000017	0.638384
H71	H	0.516659	0.000011	0.025310
H72	H	1.146172	-0.383010	-0.034213
F73	F	0.942915	-0.786473	-0.237392
F74	F	0.909920	-0.393957	-0.270297
H75	H	0.934290	-0.224457	-0.245924
F76	F	1.225812	0.000007	0.350618
