data_functionalizedCrystal
_audit_creation_method	'MofGen! by Chris Wilmer'
_symmetry_space_group_name_H-M	'P1'
_symmetry_Int_Tables_number	1
_symmetry_cell_setting	triclinic
loop_
_symmetry_equiv_pos_as_xyz
  x,y,z
_cell_length_a	15.297475
_cell_length_b	15.299816
_cell_length_c	19.077174
_cell_angle_alpha	101.521953
_cell_angle_beta	78.456872
_cell_angle_gamma	72.651123
loop_
_atom_site_label
_atom_site_type_symbol
_atom_site_fract_x
_atom_site_fract_y
_atom_site_fract_z
Zn1	Zn	1.529026	-0.659714	-0.693211
Zn2	Zn	2.029026	-0.159714	-0.193211
Zn3	Zn	1.549936	-0.809291	-0.598554
Zn4	Zn	2.049936	-0.309291	-0.098554
Zn5	Zn	1.364501	-0.623782	-0.548498
Zn6	Zn	1.864501	-0.123782	-0.048498
Zn7	Zn	1.400355	-0.788194	-0.693198
Zn8	Zn	1.900355	-0.288194	-0.193198
O9	O	1.460954	-0.720246	-0.633365
O10	O	1.960954	-0.220246	-0.133365
O11	O	1.663254	-0.703423	-0.701609
O12	O	2.163254	-0.203423	-0.201609
O13	O	1.519084	-0.778475	-0.491742
O14	O	2.019084	-0.278475	0.008258
O15	O	1.362570	-0.497143	-0.546751
O16	O	1.862570	0.002857	-0.046751
O17	O	1.678617	-0.813317	-0.632065
O18	O	2.178617	-0.313317	-0.132065
O19	O	1.483445	-0.523542	-0.653071
O20	O	1.983445	-0.023542	-0.153071
O21	O	1.382846	-0.642182	-0.454965
O22	O	1.882846	-0.142182	0.045035
O23	O	1.237802	-0.621725	-0.546738
O24	O	1.737802	-0.121725	-0.046738
O25	O	1.423677	-0.777360	-0.793372
O26	O	1.923677	-0.277360	-0.293372
O27	O	1.264144	-0.742518	-0.653049
O28	O	1.764144	-0.242518	-0.153049
O29	O	1.518211	-0.682966	-0.793382
O30	O	2.018211	-0.182966	-0.293382
O31	O	1.553850	-0.937898	-0.632052
O32	O	2.053850	-0.437898	-0.132052
O33	O	1.443953	-0.922398	-0.701587
O34	O	1.943953	-0.422398	-0.201587
C35	C	1.216889	-0.675934	-0.594461
C36	C	1.716889	-0.175934	-0.094461
C37	C	1.112481	-0.657001	-0.577838
C38	C	1.612481	-0.157001	-0.077838
C39	C	1.505087	-0.964226	-0.672270
C40	C	2.005087	-0.464226	-0.172270
C41	C	1.524055	-1.068619	-0.688951
C42	C	2.024055	-0.568619	-0.188951
C43	C	0.873188	-0.855571	-0.752173
C44	C	1.373188	-0.355571	-0.252173
C45	C	0.971284	-0.873366	-0.767790
C46	C	1.471284	-0.373366	-0.267790
C47	C	1.006589	-0.819276	-0.720304
C48	C	1.506589	-0.319276	-0.220304
C49	C	0.943786	-0.747388	-0.657197
C50	C	1.443786	-0.247388	-0.157197
C51	C	0.845680	-0.729596	-0.641576
C52	C	1.345680	-0.229596	-0.141576
C53	C	0.979081	-0.693301	-0.609706
C54	C	1.479081	-0.193301	-0.109706
C55	C	0.916278	-0.621413	-0.546600
C56	C	1.416278	-0.121413	-0.046600
C57	C	0.818183	-0.603623	-0.530981
C58	C	1.318183	-0.103623	-0.030981
C59	C	0.782878	-0.657713	-0.578468
C60	C	1.282878	-0.157713	-0.078468
C61	C	1.077187	-0.711093	-0.625328
C62	C	1.577187	-0.211093	-0.125328
C63	C	1.049680	-0.585118	-0.514730
C64	C	1.549680	-0.085118	-0.014730
C65	C	0.951583	-0.567323	-0.499113
C66	C	1.451583	-0.067323	0.000887
C67	C	1.326020	-1.308242	-0.514484
C68	C	1.826020	-0.808242	-0.014484
C69	C	1.308194	-1.210159	-0.498812
C70	C	1.808194	-0.710159	0.001188
C71	C	1.362158	-1.174769	-0.546345
C72	C	1.862158	-0.674769	-0.046345
C73	C	1.433951	-1.237472	-0.609553
C74	C	1.933951	-0.737472	-0.109553
C75	C	1.451773	-1.335564	-0.625230
C76	C	1.951773	-0.835564	-0.125230
C77	C	1.487911	-1.202091	-0.657091
C78	C	1.987911	-0.702091	-0.157091
C79	C	1.559704	-1.264794	-0.720299
C80	C	2.059704	-0.764794	-0.220299
C81	C	1.577523	-1.362876	-0.735972
C82	C	2.077523	-0.862876	-0.235972
C83	C	1.523560	-1.398266	-0.688439
C84	C	2.023560	-0.898266	-0.188439
C85	C	1.470089	-1.103999	-0.641415
C86	C	1.970089	-0.603999	-0.141415
C87	C	1.595841	-1.131321	-0.752160
C88	C	2.095841	-0.631321	-0.252160
C89	C	1.613667	-1.229404	-0.767832
C90	C	2.113667	-0.729404	-0.267832
C91	C	1.705973	-0.764731	-0.672422
C92	C	2.205973	-0.264731	-0.172422
C93	C	1.810386	-0.783688	-0.689065
C94	C	2.310386	-0.283688	-0.189065
C95	C	1.472611	-0.731818	-0.820077
C96	C	1.972611	-0.231818	-0.320077
C97	C	1.477578	-0.736749	-0.899642
C98	C	1.977578	-0.236749	-0.399642
C99	C	1.416676	-0.475318	-0.594329
C100	C	1.916676	0.024682	-0.094329
C101	C	1.397807	-0.370944	-0.577694
C102	C	1.897807	0.129056	-0.077694
C103	C	1.408982	-0.668107	-0.917874
C104	C	1.908982	-0.168107	-0.417874
C105	C	1.413648	-0.672747	-0.992635
C106	C	1.913648	-0.172747	-0.492635
C107	C	1.486913	-0.746027	-1.049162
C108	C	1.986913	-0.246027	-0.549162
C109	C	1.555512	-0.814676	-1.030926
C110	C	2.055512	-0.314676	-0.530926
C111	C	1.550842	-0.810038	-0.956166
C112	C	2.050842	-0.310038	-0.456166
C113	C	1.508481	-0.767509	-1.274804
C114	C	2.008481	-0.267509	-0.774804
C115	C	1.513148	-0.772140	-1.349567
C116	C	2.013148	-0.272140	-0.849567
C117	C	1.371281	-0.630212	-1.311271
C118	C	1.871281	-0.130212	-0.811271
C119	C	1.366622	-0.625578	-1.236512
C120	C	1.866622	-0.125578	-0.736512
C121	C	1.435218	-0.694229	-1.218282
C122	C	1.935218	-0.194229	-0.718282
N123	N	1.491685	-0.750770	-1.125580
N124	N	1.991685	-0.250770	-0.625580
N125	N	1.430441	-0.689489	-1.141865
N126	N	1.930441	-0.189489	-0.641865
C127	C	1.449385	-0.708661	-0.447378
C128	C	1.949385	-0.208661	0.052622
C129	C	1.444552	-0.703498	-0.367800
C130	C	1.944552	-0.203498	0.132200
H131	H	1.128312	-0.769625	-0.676710
H132	H	1.628312	-0.269625	-0.176710
Cl133	Cl	1.605266	-0.864263	-1.420631
Cl134	Cl	2.105266	-0.364263	-0.920631
H135	H	1.357787	-0.616855	-1.007475
H136	H	1.857787	-0.116855	-0.507475
Cl137	Cl	1.663684	-1.086838	-0.811921
Cl138	Cl	2.163684	-0.586838	-0.311921
H139	H	1.306959	-0.565908	-1.190491
H140	H	1.806959	-0.065908	-0.690491
H141	H	1.672121	-1.280470	-0.819297
H142	H	2.172121	-0.780470	-0.319297
H143	H	1.315434	-0.574321	-1.326123
H144	H	1.815434	-0.074321	-0.826123
Cl145	Cl	1.094055	-0.517120	-0.455027
Cl146	Cl	1.594055	-0.017120	0.044973
Cl147	Cl	1.050229	-0.963737	-0.847120
Cl148	Cl	1.550229	-0.463737	-0.347120
H149	H	1.411634	-1.052955	-0.589950
H150	H	1.911634	-0.552955	-0.089950
Cl151	Cl	1.217936	-1.131339	-0.419361
Cl152	Cl	1.717936	-0.631339	0.080639
Cl153	Cl	1.594723	-0.853809	-1.251896
Cl154	Cl	2.094723	-0.353809	-0.751896
H155	H	1.615162	-0.874345	-1.076956
H156	H	2.115162	-0.374345	-0.576956
H157	H	1.086464	-0.833769	-0.733023
H158	H	1.586464	-0.333769	-0.233023
Cl159	Cl	1.258176	-1.352736	-0.454745
Cl160	Cl	1.758176	-0.852736	0.045255
Cl161	Cl	0.828802	-0.923579	-0.811850
Cl162	Cl	1.328802	-0.423579	-0.311850
Cl163	Cl	0.659551	-0.635339	-0.558841
Cl164	Cl	1.159551	-0.135339	-0.058841
Cl165	Cl	1.316876	-0.575975	-0.846818
Cl166	Cl	1.816876	-0.075975	-0.346818
H167	H	1.635978	-1.413927	-0.787443
H168	H	2.135978	-0.913927	-0.287443
H169	H	1.606706	-0.865928	-0.941324
H170	H	2.106706	-0.365928	-0.441324
Cl171	Cl	0.739234	-0.513257	-0.451643
Cl172	Cl	1.239234	-0.013257	0.048357
H173	H	1.347641	-1.094905	-0.533581
H174	H	1.847641	-0.594905	-0.033581
Cl175	Cl	0.872621	-0.476952	-0.419782
Cl176	Cl	1.372621	0.023048	0.080218
H177	H	1.538073	-1.478133	-0.701194
H178	H	2.038073	-0.978133	-0.201194
