data_functionalizedCrystal
_audit_creation_method	'MofGen! by Chris Wilmer'
_symmetry_space_group_name_H-M	'P1'
_symmetry_Int_Tables_number	1
_symmetry_cell_setting	triclinic
loop_
_symmetry_equiv_pos_as_xyz
  x,y,z
_cell_length_a	6.817900
_cell_length_b	13.466082
_cell_length_c	17.329378
_cell_angle_alpha	90.178466
_cell_angle_beta	103.025558
_cell_angle_gamma	111.116375
loop_
_atom_site_label
_atom_site_type_symbol
_atom_site_fract_x
_atom_site_fract_y
_atom_site_fract_z
V1	V	-4.044391	-0.125601	-0.245640
O2	O	-3.990379	0.028439	-0.240226
O3	O	-4.035402	-0.270592	-0.244670
O4	O	-3.985606	-0.113839	-0.352449
O5	O	-4.040520	-0.129400	-0.131702
V6	V	-4.524258	-0.108338	-0.231926
O7	O	-4.313669	-0.163470	-0.275724
O8	O	-4.705177	-0.070469	-0.201843
O9	O	-4.310041	0.036654	-0.232896
O10	O	-4.695666	-0.262378	-0.237340
O11	O	-4.645526	-0.104539	-0.345865
O12	O	-4.359836	-0.120100	-0.125118
C13	C	-3.890326	-0.306245	-0.240978
C14	C	-3.964194	-0.424714	-0.240897
C15	C	-3.736499	-0.637178	-0.232835
C16	C	-3.805895	-0.748490	-0.232759
C17	C	-4.172378	-0.758651	-0.240661
C18	C	-4.102982	-0.647340	-0.240738
C19	C	-3.885038	-0.586607	-0.236826
C20	C	-3.815646	-0.475294	-0.236909
C21	C	-4.182126	-0.485456	-0.244805
C22	C	-4.251522	-0.596768	-0.244728
C23	C	-3.826805	-0.106289	-0.378459
C24	C	-3.860286	-0.097632	-0.465781
C25	C	-3.941678	-0.190111	-0.518497
C26	C	-3.973145	-0.181975	-0.600544
C27	C	-3.923204	-0.081358	-0.629873
C28	C	-3.841810	0.011128	-0.577151
C29	C	-3.810360	0.002990	-0.495105
C30	C	-4.014893	-0.051957	-0.877013
C31	C	-4.046345	-0.043826	-0.959065
C32	C	-4.177681	-0.236930	-0.982453
C33	C	-4.146211	-0.245059	-0.900404
C34	C	-4.064832	-0.152573	-0.847689
C35	C	-3.955360	-0.073039	-0.713739
C36	C	-4.032692	-0.160894	-0.763826
C37	C	-4.118460	0.072301	-0.236586
C38	C	-4.023830	0.190769	-0.236672
C39	C	-4.181980	-0.127653	-0.099103
C40	C	-4.127737	-0.136305	-0.011781
H41	H	-4.349827	-0.808119	-0.243847
H42	H	-3.684935	-0.789661	-0.229512
H43	H	-3.638190	-0.425847	-0.233728
H44	H	-4.428971	-0.646231	-0.247911
C45	C	-4.266466	-0.337312	-1.039735
C46	C	-4.461289	-0.342975	-1.091307
C47	C	-4.543167	-0.435444	-1.144079
H48	H	-4.164509	-0.335083	-1.069732
H49	H	-4.291849	-0.398433	-1.010548
H50	H	-4.435897	-0.281870	-1.120491
H51	H	-4.563295	-0.345221	-1.061332
H52	H	-4.568549	-0.496564	-1.114892
H53	H	-4.441194	-0.433206	-1.174070
H54	H	-4.675371	-0.439303	-1.179072
C55	C	-3.995842	-0.299447	-0.486809
C56	C	-4.073782	-0.378691	-0.550539
C57	C	-4.123603	-0.479424	-0.521379
H58	H	-3.869101	-0.303509	-0.452758
H59	H	-4.103553	-0.309969	-0.457858
H60	H	-3.966079	-0.368173	-0.579477
H61	H	-4.200539	-0.374664	-0.584596
H62	H	-4.231314	-0.489946	-0.492429
H63	H	-3.996853	-0.483474	-0.487328
H64	H	-4.176509	-0.533203	-0.564616
H65	H	-4.073362	-0.242816	-0.739943
H66	H	-3.914695	0.008884	-0.737627
H67	H	-4.303076	-0.444270	-0.248057
C68	C	-4.061180	-0.282282	-0.657866
C69	C	-3.910201	-0.278551	-0.701868
C70	C	-3.991243	-0.370931	-0.754689
H71	H	-4.086403	-0.343451	-0.628750
H72	H	-4.193342	-0.286299	-0.692978
H73	H	-3.778077	-0.274545	-0.666761
H74	H	-3.884962	-0.217402	-0.731001
H75	H	-4.123405	-0.374948	-0.789801
H76	H	-4.016464	-0.432093	-0.725566
H77	H	-3.888826	-0.368407	-0.784556
C78	C	-3.992136	0.065515	-0.990757
C79	C	-3.914207	0.144768	-0.927033
C80	C	-3.864291	0.245497	-0.956200
H81	H	-3.884409	0.076041	-1.019687
H82	H	-4.118892	0.069564	-1.024831
H83	H	-3.787467	0.140722	-0.892973
H84	H	-4.021901	0.134277	-0.898097
H85	H	-3.991047	0.249546	-0.990273
H86	H	-3.756570	0.256012	-0.985129
H87	H	-3.811430	0.299282	-0.912969
H88	H	-3.801162	0.093052	-0.601037
C89	C	-3.926977	0.048412	-0.819765
C90	C	-4.078030	0.044713	-0.775806
C91	C	-3.997137	0.137168	-0.723069
H92	H	-3.794822	0.052537	-0.784615
H93	H	-3.901828	0.109517	-0.848967
H94	H	-4.103151	-0.016375	-0.746606
H95	H	-4.210193	0.040604	-0.810936
H96	H	-3.971989	0.198273	-0.752271
H97	H	-3.864982	0.141286	-0.687924
H98	H	-4.099621	0.134676	-0.693242
C99	C	-3.721862	0.103526	-0.437993
C100	C	-3.684801	0.193386	-0.481235
C101	C	-3.603260	0.286020	-0.428651
H102	H	-3.823927	0.101341	-0.408057
H103	H	-3.589589	0.107601	-0.402931
H104	H	-3.817056	0.189312	-0.516283
H105	H	-3.582722	0.195606	-0.511169
H106	H	-3.470987	0.290095	-0.393589
H107	H	-3.705335	0.283825	-0.398718
H108	H	-3.578085	0.347002	-0.457982
H109	H	-3.559046	-0.587730	-0.229660
H110	H	-4.186890	-0.326992	-0.876532
