data_functionalizedCrystal
_audit_creation_method	'MofGen! by Chris Wilmer'
_symmetry_space_group_name_H-M	'P1'
_symmetry_Int_Tables_number	1
_symmetry_cell_setting	triclinic
loop_
_symmetry_equiv_pos_as_xyz
  x,y,z
_cell_length_a	11.169417
_cell_length_b	12.759400
_cell_length_c	11.169406
_cell_angle_alpha	89.950961
_cell_angle_beta	89.969044
_cell_angle_gamma	90.015523
loop_
_atom_site_label
_atom_site_type_symbol
_atom_site_fract_x
_atom_site_fract_y
_atom_site_fract_z
Zn1	Zn	1.835058	-0.417991	-0.678537
Zn2	Zn	1.834894	-0.593766	-0.477851
Zn3	Zn	1.634305	-0.418104	-0.477871
Zn4	Zn	1.634337	-0.593632	-0.678496
O5	O	1.734648	-0.505873	-0.578189
O6	O	2.002986	-0.441317	-0.651924
O7	O	1.808203	-0.570568	-0.309904
O8	O	1.660991	-0.271068	-0.504515
O9	O	2.002865	-0.570458	-0.504481
O10	O	1.808484	-0.270985	-0.651944
O11	O	1.660832	-0.441510	-0.309918
O12	O	1.466360	-0.441379	-0.504476
O13	O	1.661045	-0.570229	-0.846451
O14	O	1.466383	-0.570339	-0.651874
O15	O	1.808514	-0.441187	-0.846481
O16	O	1.808233	-0.740769	-0.504441
O17	O	1.660885	-0.740670	-0.651854
C18	C	1.422824	-0.505857	-0.578173
C19	C	1.289424	-0.505876	-0.578195
C20	C	1.734577	-0.778841	-0.578167
C21	C	1.734657	-0.895617	-0.578198
C22	C	1.811423	-0.950346	-0.655029
C23	C	1.811490	-1.060070	-0.655062
C24	C	1.658022	-1.060327	-0.501422
C25	C	1.657950	-0.950605	-0.501396
C26	C	1.854427	-1.209857	-0.796677
C27	C	1.931212	-1.264590	-0.873498
C28	C	2.048290	-1.228875	-0.892016
C29	C	2.088607	-1.138429	-0.833695
C30	C	2.011829	-1.083702	-0.756866
C31	C	1.894734	-1.119415	-0.738371
C32	C	1.615025	-0.800816	-0.359779
C33	C	1.538252	-0.746087	-0.282943
C34	C	1.421172	-0.781800	-0.264413
C35	C	1.380859	-0.872249	-0.322712
C36	C	1.457632	-0.926978	-0.399549
C37	C	1.574711	-0.891258	-0.418081
C38	C	2.047691	-0.505890	-0.578205
C39	C	2.181091	-0.505897	-0.578212
C40	C	1.734801	-0.505680	-0.891231
C41	C	1.734867	-0.505598	-1.024631
C42	C	1.734752	-0.231840	-0.578236
C43	C	1.734797	-0.115063	-0.578257
C44	C	1.734565	-0.505990	-0.266364
C45	C	1.734732	-0.505776	-0.132964
H46	H	1.873881	-0.905578	-0.717568
O47	O	1.577367	-0.658287	-0.226150
C48	C	1.570121	-0.673087	-0.101247
H49	H	1.571384	-0.760525	-0.080226
H50	H	1.649713	-0.633477	-0.056196
H51	H	1.483411	-0.637228	-0.066317
H52	H	2.183950	-1.109364	-0.848768
H53	H	1.285523	-0.901330	-0.307622
H54	H	1.424799	-1.000627	-0.447020
O55	O	1.583579	-1.113627	-0.426646
C56	C	1.609848	-1.086923	-0.307044
H57	H	1.655932	-1.007225	-0.304580
H58	H	1.523244	-1.083282	-0.253153
H59	H	1.671606	-1.148666	-0.266684
H60	H	1.358665	-0.737230	-0.201842
O61	O	1.728820	-0.766189	-0.377580
C62	C	1.790412	-0.764730	-0.267441
H63	H	1.745959	-0.821753	-0.202560
H64	H	1.887498	-0.789003	-0.282345
H65	H	1.787586	-0.682258	-0.228356
O66	O	2.051152	-0.995840	-0.700352
C67	C	2.170971	-0.976068	-0.733136
H68	H	2.190769	-1.015187	-0.822704
H69	H	2.185621	-0.887937	-0.741458
H70	H	2.233410	-1.009089	-0.661758
O71	O	2.122707	-1.282136	-0.966721
C72	C	2.062031	-1.369636	-1.014194
H73	H	1.961350	-1.355427	-1.010161
H74	H	2.090409	-1.381883	-1.111233
H75	H	2.085268	-1.442354	-0.959578
O76	O	1.891921	-1.352330	-0.930292
C77	C	1.792801	-1.327016	-1.002872
H78	H	1.795056	-1.239900	-1.025503
H79	H	1.796700	-1.374729	-1.089031
H80	H	1.706500	-1.345948	-0.952775
O81	O	1.740614	-1.244405	-0.778825
C82	C	1.659015	-1.166211	-0.814817
H83	H	1.704113	-1.111745	-0.882077
H84	H	1.577645	-1.204499	-0.858154
H85	H	1.629304	-1.119159	-0.733329
