data_functionalizedCrystal
_audit_creation_method	'MofGen! by Chris Wilmer'
_symmetry_space_group_name_H-M	'P1'
_symmetry_Int_Tables_number	1
_symmetry_cell_setting	triclinic
loop_
_symmetry_equiv_pos_as_xyz
  x,y,z
_cell_length_a	15.995350
_cell_length_b	15.995292
_cell_length_c	18.366186
_cell_angle_alpha	89.996953
_cell_angle_beta	89.994601
_cell_angle_gamma	83.480495
loop_
_atom_site_label
_atom_site_type_symbol
_atom_site_fract_x
_atom_site_fract_y
_atom_site_fract_z
O1	O	1.110968	0.107931	-0.060483
O2	O	1.610968	0.607931	0.439517
O3	O	0.867190	0.121259	-0.060497
O4	O	1.367190	0.621259	0.439503
O5	O	0.995769	-0.007296	-0.060491
O6	O	1.495769	0.492704	0.439509
O7	O	0.982390	0.236486	-0.060489
O8	O	1.482390	0.736486	0.439511
O9	O	0.995747	-0.007303	0.060609
O10	O	1.495747	0.492697	0.560609
O11	O	0.867168	0.121252	0.060602
O12	O	1.367168	0.621252	0.560602
O13	O	1.110947	0.107924	0.060617
O14	O	1.610947	0.607924	0.560617
Zn15	Zn	0.989054	0.114587	0.079837
Zn16	Zn	1.489054	0.614587	0.579837
Zn17	Zn	0.989083	0.114596	-0.079717
Zn18	Zn	1.489083	0.614596	0.420283
O19	O	0.982368	0.236479	0.060610
O20	O	1.482368	0.736479	0.560610
C21	C	0.835985	0.120704	0.000051
C22	C	1.335985	0.620704	0.500051
C23	C	0.743035	0.119053	0.000045
C24	C	1.243035	0.619053	0.500045
C25	C	0.405288	0.113120	0.000060
C26	C	0.905288	0.613120	0.500060
C27	C	0.452742	0.021566	0.000330
C28	C	0.952742	0.521566	0.500330
C29	C	0.549431	0.023218	0.000052
C30	C	1.049431	0.523218	0.500052
C31	C	0.572848	0.116063	0.000053
C32	C	1.072848	0.616063	0.500053
C33	C	0.531764	0.161224	-0.069097
C34	C	1.031764	0.661224	0.430903
C35	C	0.435129	0.158924	-0.069150
C36	C	0.935129	0.658924	0.430850
C37	C	0.434765	0.160809	0.068562
C38	C	0.934765	0.660809	0.568562
C39	C	0.531710	0.160787	0.069471
C40	C	1.031710	0.660787	0.569471
C41	C	0.667546	0.117731	0.000047
C42	C	1.167546	0.617731	0.500047
C43	C	0.310591	0.111455	0.000062
C44	C	0.810591	0.611455	0.500062
C45	C	0.995213	-0.038495	0.000057
C46	C	1.495213	0.461505	0.500057
C47	C	0.993581	-0.131448	0.000052
C48	C	1.493581	0.368552	0.500052
C49	C	0.987580	-0.469186	0.000058
C50	C	1.487580	0.030814	0.500058
C51	C	1.080384	-0.445874	0.000334
C52	C	1.580384	0.054126	0.500334
C53	C	1.082148	-0.349199	0.000059
C54	C	1.582148	0.150801	0.500059
C55	C	0.990557	-0.301631	0.000055
C56	C	1.490557	0.198369	0.500055
C57	C	0.944172	-0.330728	-0.069099
C58	C	1.444172	0.169272	0.430901
C59	C	0.943055	-0.427518	-0.069154
C60	C	1.443055	0.072482	0.430846
C61	C	0.941135	-0.427383	0.068558
C62	C	1.441135	0.072617	0.568558
C63	C	0.944574	-0.330890	0.069470
C64	C	1.444574	0.169110	0.569470
C65	C	0.992235	-0.206934	0.000051
C66	C	1.492235	0.293066	0.500051
C67	C	0.985899	-0.563882	0.000057
C68	C	1.485899	-0.063882	0.500057
C69	C	1.142152	0.108479	0.000067
C70	C	1.642152	0.608479	0.500067
C71	C	1.235102	0.110130	0.000068
C72	C	1.735102	0.610130	0.500068
C73	C	0.982924	0.267678	0.000061
C74	C	1.482924	0.767678	0.500061
C75	C	0.984556	0.360631	0.000062
C76	C	1.484556	0.860631	0.500062
N77	N	0.989040	0.114581	0.188728
N78	N	1.489040	0.614581	0.688728
N79	N	0.989103	0.114595	-0.188608
N80	N	1.489103	0.614595	0.311392
C81	C	1.045994	0.057685	0.226831
C82	C	1.545994	0.557685	0.726831
C83	C	1.045999	0.057681	0.303059
C84	C	1.545999	0.557681	0.803059
C85	C	0.989059	0.114588	0.341180
C86	C	1.489059	0.614588	0.841180
C87	C	0.932095	0.171488	0.303068
C88	C	1.432095	0.671488	0.803068
C89	C	0.932086	0.171485	0.226842
C90	C	1.432086	0.671485	0.726842
C91	C	0.978073	0.190847	0.461941
C92	C	1.478073	0.690847	0.961941
C93	C	0.978088	0.190851	0.538166
C94	C	1.478088	0.690851	1.038166
C95	C	0.989083	0.114599	0.576288
C96	C	1.489083	0.614599	1.076288
C97	C	1.000080	0.038338	0.538176
C98	C	1.500080	0.538338	1.038176
C99	C	1.000071	0.038334	0.461950
C100	C	1.500071	0.538334	0.961950
C101	C	0.989062	0.114598	0.423835
C102	C	1.489062	0.614598	0.923835
C103	C	1.046045	0.057694	0.697046
C104	C	1.546045	0.557694	1.197046
C105	C	1.046044	0.057689	0.773275
C106	C	1.546044	0.557689	1.273275
C107	C	0.932145	0.171503	0.773283
C108	C	1.432145	0.671503	1.273283
C109	C	0.932141	0.171501	0.697055
C110	C	1.432141	0.671501	1.197055
C111	C	0.989096	0.114597	0.658941
C112	C	1.489096	0.614597	1.158941
H113	H	0.402867	0.226142	-0.072288
H114	H	0.902867	0.726142	0.427712
N115	N	0.552032	0.250474	0.075008
N116	N	1.052032	0.750474	0.575008
H117	H	0.583232	0.258038	0.121928
H118	H	1.083232	0.758038	0.621928
H119	H	0.588326	0.263384	0.032371
H120	H	1.088326	0.763384	0.532371
H121	H	0.885768	0.217834	0.666030
H122	H	1.385768	0.717834	1.166030
H123	H	0.876774	-0.298860	-0.071672
H124	H	1.376774	0.201140	0.428328
H125	H	0.559024	0.127819	0.120629
H126	H	1.059024	0.627819	0.620629
N127	N	1.011929	-0.043911	0.420844
N128	N	1.511929	0.456089	0.920844
H129	H	1.010258	-0.032339	0.366772
H130	H	1.510258	0.467661	0.866772
H131	H	1.068075	-0.075606	0.434162
H132	H	1.568075	0.424394	0.934162
H133	H	1.092367	0.011349	0.195801
H134	H	1.592367	0.511349	0.695801
N135	N	1.107428	-0.003683	0.344174
N136	N	1.607428	0.496317	0.844174
H137	H	1.097809	-0.063122	0.330919
H138	H	1.597809	0.436878	0.830919
H139	H	1.166819	0.006074	0.330883
H140	H	1.666819	0.506074	0.830883
H141	H	0.969106	0.252945	0.430908
H142	H	1.469106	0.752945	0.930908
N143	N	0.392681	0.250224	0.069188
N144	N	0.892681	0.750224	0.569188
H145	H	0.354704	0.259831	0.025339
H146	H	0.854704	0.759831	0.525339
H147	H	0.358234	0.260222	0.115096
H148	H	0.858234	0.760222	0.615096
H149	H	0.433164	-0.014860	-0.048988
H150	H	0.933164	0.485140	0.451012
H151	H	0.545876	0.229435	-0.071668
H152	H	1.045876	0.729435	0.428332
H153	H	0.970351	-0.455474	0.120977
H154	H	1.470351	0.044526	0.620977
N155	N	1.130546	-0.324805	-0.065730
N156	N	1.630546	0.175195	0.434270
H157	H	1.131889	-0.261831	-0.066186
H158	H	1.631889	0.238169	0.433814
H159	H	1.189948	-0.353854	-0.063578
H160	H	1.689948	0.146146	0.436422
N161	N	0.870676	0.232863	0.344179
N162	N	1.370676	0.732863	0.844179
H163	H	0.879325	0.224234	0.398251
H164	H	1.379325	0.724234	0.898251
H165	H	0.880327	0.292270	0.330847
H166	H	1.380327	0.792270	0.830847
H167	H	0.560154	0.129862	-0.120562
H168	H	1.060154	0.629862	0.379438
H169	H	0.975197	-0.454332	-0.120846
H170	H	1.475197	0.045668	0.379154
N171	N	0.852929	-0.446802	-0.073325
N172	N	1.352929	0.053198	0.426675
H173	H	0.814100	-0.392447	-0.075122
H174	H	1.314100	0.107553	0.424878
H175	H	0.845009	-0.480769	-0.118653
H176	H	1.345009	0.019231	0.381347
H177	H	1.116146	-0.473874	0.049928
H178	H	1.616146	0.026126	0.549928
N179	N	0.870653	0.232851	0.185739
N180	N	1.370653	0.732851	0.685739
H181	H	0.834578	0.268900	0.221453
H182	H	1.334578	0.768900	0.721453
H183	H	0.902691	0.269889	0.154104
H184	H	1.402691	0.769889	0.654104
N185	N	1.011944	-0.043914	0.579281
N186	N	1.511944	0.456086	1.079281
H187	H	1.010278	-0.032344	0.633353
H188	H	1.510278	0.467656	1.133353
H189	H	0.965404	-0.078814	0.565964
H190	H	1.465404	0.421186	1.065964
H191	H	0.577859	-0.012281	0.049622
H192	H	1.077859	0.487719	0.549622
H193	H	0.434218	-0.015033	0.049920
H194	H	0.934218	0.484967	0.549920
H195	H	1.118476	-0.330176	0.049630
H196	H	1.618476	0.169824	0.549630
H197	H	0.577306	-0.012516	-0.049605
H198	H	1.077306	0.487484	0.450395
N199	N	0.410890	0.115306	-0.137619
N200	N	0.910890	0.615306	0.362381
H201	H	0.462956	0.097750	-0.167483
H202	H	0.962956	0.597750	0.332517
H203	H	0.382949	0.063914	-0.124156
H204	H	0.882949	0.563914	0.375844
H205	H	0.414226	0.130875	0.120977
H206	H	0.914226	0.630875	0.620977
H207	H	1.092418	0.011356	0.666013
H208	H	1.592418	0.511356	1.166013
N209	N	1.107489	-0.003667	0.814377
N210	N	1.607489	0.496333	1.314377
H211	H	1.143573	-0.039705	0.778662
H212	H	1.643573	0.460295	1.278662
H213	H	1.144485	0.028437	0.845987
H214	H	1.644485	0.528437	1.345987
H215	H	0.969139	0.252947	0.569191
H216	H	1.469139	0.752947	1.069191
H217	H	1.115965	-0.474889	-0.048977
H218	H	1.615965	0.025111	0.451023
H219	H	0.976401	-0.310665	-0.120560
H220	H	1.476401	0.189335	0.379440
H221	H	0.978349	-0.312328	0.120629
H222	H	1.478349	0.187672	0.620629
N223	N	0.856007	-0.287250	0.074990
N224	N	1.356007	0.212750	0.574990
H225	H	0.844384	-0.247715	0.032382
H226	H	1.344384	0.252285	0.532382
H227	H	0.814811	-0.330646	0.074390
H228	H	1.314811	0.169354	0.574390
H229	H	0.872824	-0.441373	0.069022
H230	H	1.372824	0.058627	0.569022
H231	H	0.885780	0.217835	0.804321
H232	H	1.385780	0.717835	1.304321
