data_functionalizedCrystal
_audit_creation_method	'MofGen! by Chris Wilmer'
_symmetry_space_group_name_H-M	'P1'
_symmetry_Int_Tables_number	1
_symmetry_cell_setting	triclinic
loop_
_symmetry_equiv_pos_as_xyz
  x,y,z
_cell_length_a	16.625547
_cell_length_b	16.625546
_cell_length_c	21.395355
_cell_angle_alpha	89.981524
_cell_angle_beta	89.971219
_cell_angle_gamma	90.022405
loop_
_atom_site_label
_atom_site_type_symbol
_atom_site_fract_x
_atom_site_fract_y
_atom_site_fract_z
Zn1	Zn	1.232712	-0.321096	-0.354332
Zn2	Zn	1.732712	0.178904	0.145668
Zn3	Zn	1.232606	-0.455911	-0.249555
Zn4	Zn	1.732606	0.044089	0.250445
Zn5	Zn	1.097864	-0.321096	-0.249561
Zn6	Zn	1.597864	0.178904	0.250439
Zn7	Zn	1.097844	-0.455891	-0.354287
Zn8	Zn	1.597844	0.044109	0.145713
O9	O	1.165257	-0.388499	-0.301934
O10	O	1.665257	0.111501	0.198066
O11	O	1.345530	-0.338989	-0.340449
O12	O	1.845530	0.161011	0.159551
O13	O	1.214696	-0.438037	-0.161878
O14	O	1.714696	0.061963	0.338122
O15	O	1.115805	-0.208264	-0.263481
O16	O	1.615805	0.291736	0.236519
O17	O	1.345452	-0.438037	-0.263470
O18	O	1.845452	0.061963	0.236530
O19	O	1.214877	-0.208264	-0.340456
O20	O	1.714877	0.291736	0.159544
O21	O	1.115702	-0.338989	-0.161883
O22	O	1.615702	0.161011	0.338117
O23	O	0.985029	-0.338968	-0.263437
O24	O	1.485029	0.161032	0.236563
O25	O	1.115771	-0.438001	-0.441971
O26	O	1.615771	0.061999	0.058029
O27	O	0.985015	-0.438001	-0.340379
O28	O	1.485015	0.061999	0.159621
O29	O	1.214857	-0.338968	-0.442004
O30	O	1.714857	0.161032	0.057996
O31	O	1.214677	-0.568741	-0.263426
O32	O	1.714677	-0.068741	0.236574
O33	O	1.115668	-0.568726	-0.340373
O34	O	1.615668	-0.068726	0.159627
C35	C	0.955766	-0.388483	-0.301904
C36	C	1.455766	0.111517	0.198096
C37	C	0.866145	-0.388496	-0.301907
C38	C	1.366145	0.111504	0.198093
C39	C	0.793362	-0.388497	-0.301914
C40	C	1.293362	0.111503	0.198086
C41	C	0.702054	-0.388502	-0.301930
C42	C	1.202054	0.111498	0.198070
C43	C	0.629277	-0.388509	-0.301946
C44	C	1.129277	0.111491	0.198054
C45	C	0.537963	-0.388515	-0.301961
C46	C	1.037963	0.111485	0.198039
C47	C	1.165180	-0.597990	-0.301908
C48	C	1.665180	-0.097990	0.198092
C49	C	1.165221	-0.687611	-0.301917
C50	C	1.665221	-0.187611	0.198083
C51	C	1.165362	-1.015786	-0.301983
C52	C	1.665362	-0.515786	0.198017
C53	C	1.165320	-0.924478	-0.301966
C54	C	1.665320	-0.424478	0.198034
C55	C	1.165291	-0.851701	-0.301950
C56	C	1.665291	-0.351701	0.198050
C57	C	1.165251	-0.760387	-0.301934
C58	C	1.665251	-0.260387	0.198066
C59	C	1.375566	-0.388515	-0.301964
C60	C	1.875566	0.111485	0.198036
C61	C	1.465187	-0.388522	-0.301977
C62	C	1.965187	0.111478	0.198023
C63	C	1.165324	-0.388482	-0.465357
C64	C	1.665324	0.111518	0.034643
C65	C	1.165352	-0.388475	-0.534999
C66	C	1.665352	0.111525	-0.034999
C67	C	1.165355	-0.178190	-0.301974
C68	C	1.665355	0.321810	0.198026
C69	C	1.165397	-0.088569	-0.301991
C70	C	1.665397	0.411431	0.198009
C71	C	1.216944	-0.336907	-0.567730
C72	C	1.716944	0.163093	-0.067730
C73	C	1.216943	-0.336872	-0.633165
C74	C	1.716943	0.163128	-0.133165
C75	C	1.165358	-0.388420	-0.665867
C76	C	1.665358	0.111580	-0.165867
C77	C	1.113756	-0.439993	-0.633128
C78	C	1.613756	0.060007	-0.133128
C79	C	1.113753	-0.440020	-0.567694
C80	C	1.613753	0.059980	-0.067694
C81	C	1.158965	-0.461021	-0.769532
C82	C	1.658965	0.038979	-0.269532
C83	C	1.158974	-0.460995	-0.834965
C84	C	1.658974	0.039005	-0.334965
C85	C	1.165363	-0.388335	-0.867688
C86	C	1.665363	0.111665	-0.367688
C87	C	1.171761	-0.315699	-0.834969
C88	C	1.671761	0.184301	-0.334969
C89	C	1.171758	-0.315727	-0.769535
C90	C	1.671758	0.184273	-0.269535
C91	C	1.165356	-0.388396	-0.736819
C92	C	1.665356	0.111604	-0.236819
C93	C	1.216957	-0.336725	-0.971372
C94	C	1.716957	0.163275	-0.471372
C95	C	1.216950	-0.336689	-1.036808
C96	C	1.716950	0.163311	-0.536808
C97	C	1.113767	-0.439816	-1.036770
C98	C	1.613767	0.060184	-0.536770
C99	C	1.113770	-0.439845	-0.971334
C100	C	1.613770	0.060155	-0.471334
C101	C	1.165369	-0.388300	-0.938639
C102	C	1.665369	0.111700	-0.438639
C103	C	1.165236	-0.388457	-0.139146
C104	C	1.665236	0.111543	0.360854
C105	C	1.165364	-0.388237	-0.069505
C106	C	1.665364	0.111763	0.430495
H107	H	1.258959	-0.294934	-0.541114
H108	H	1.758959	0.205066	-0.041114
H109	H	1.153770	-0.520140	-0.861599
H110	H	1.653770	-0.020140	-0.361599
H111	H	1.176964	-0.256584	-0.742899
H112	H	1.676964	0.243416	-0.242899
H113	H	1.071737	-0.482012	-0.541044
H114	H	1.571737	0.017988	-0.041044
H115	H	1.071763	-0.481843	-0.944684
H116	H	1.571763	0.018157	-0.444684
O117	O	1.063533	-0.489982	-0.664863
O118	O	1.563533	0.010018	-0.164863
C119	C	0.983179	-0.472374	-0.648836
C120	C	1.483179	0.027626	-0.148836
H121	H	0.979136	-0.407967	-0.630848
H122	H	1.479136	0.092033	-0.130848
H123	H	0.962078	-0.515617	-0.610847
H124	H	1.462078	-0.015617	-0.110847
C125	C	0.934334	-0.560837	-0.729039
C126	C	1.434334	-0.060837	-0.229039
C127	C	0.929368	-0.481728	-0.706951
C128	C	1.429368	0.018272	-0.206951
H129	H	0.901139	-0.566610	-0.764885
H130	H	1.401139	-0.066610	-0.264885
H131	H	0.988470	-0.572703	-0.739836
H132	H	1.488470	-0.072703	-0.239836
H133	H	0.916752	-0.596863	-0.697376
H134	H	1.416752	-0.096863	-0.197376
H135	H	0.946960	-0.445705	-0.738611
H136	H	1.446960	0.054295	-0.238611
H137	H	0.875233	-0.469857	-0.696161
H138	H	1.375233	0.030143	-0.196161
O139	O	1.152850	-0.531582	-0.737703
O140	O	1.652850	-0.031582	-0.237703
C141	C	1.221478	-0.542052	-0.699882
C142	C	1.721478	-0.042052	-0.199882
H143	H	1.250052	-0.481013	-0.690054
H144	H	1.750052	0.018987	-0.190054
H145	H	1.266651	-0.582117	-0.725129
H146	H	1.766651	-0.082117	-0.225129
C147	C	1.161731	-0.656788	-0.649814
C148	C	1.661731	-0.156788	-0.149814
C149	C	1.196822	-0.581819	-0.637738
C150	C	1.696822	-0.081819	-0.137738
H151	H	1.146524	-0.681322	-0.611481
H152	H	1.646524	-0.181322	-0.111481
H153	H	1.115496	-0.649737	-0.675295
H154	H	1.615496	-0.149737	-0.175295
H155	H	1.199381	-0.690166	-0.670853
H156	H	1.699381	-0.190166	-0.170853
H157	H	1.159169	-0.548440	-0.616706
H158	H	1.659169	-0.048440	-0.116706
H159	H	1.243050	-0.588865	-0.612251
H160	H	1.743050	-0.088865	-0.112251
H161	H	1.176965	-0.256533	-0.861611
H162	H	1.676965	0.243467	-0.361611
O163	O	1.267141	-0.286753	-0.664873
O164	O	1.767141	0.213247	-0.164873
C165	C	1.312665	-0.241249	-0.621984
C166	C	1.812665	0.258751	-0.121984
H167	H	1.315437	-0.274291	-0.575339
H168	H	1.815437	0.225709	-0.075339
H169	H	1.283174	-0.180008	-0.615017
H170	H	1.783174	0.319992	-0.115017
C171	C	1.395084	-0.189054	-0.704844
C172	C	1.895084	0.310946	-0.204844
C173	C	1.398494	-0.229640	-0.647556
C174	C	1.898494	0.270360	-0.147556
H175	H	1.448026	-0.181889	-0.720619
H176	H	1.948026	0.318111	-0.220619
H177	H	1.364412	-0.219709	-0.733740
H178	H	1.864412	0.280291	-0.233740
H179	H	1.370505	-0.138025	-0.699031
H180	H	1.870505	0.361975	-0.199031
H181	H	1.423063	-0.280672	-0.653371
H182	H	1.923063	0.219328	-0.153371
H183	H	1.429172	-0.198994	-0.618661
H184	H	1.929172	0.301006	-0.118661
H185	H	1.258968	-0.294750	-0.944750
H186	H	1.758968	0.205250	-0.444750
H187	H	1.258962	-0.294691	-1.063457
H188	H	1.758962	0.205309	-0.563457
H189	H	1.071758	-0.481780	-1.063395
H190	H	1.571758	0.018220	-0.563395
