data_functionalizedCrystal
_audit_creation_method	'MofGen! by Chris Wilmer'
_symmetry_space_group_name_H-M	'P1'
_symmetry_Int_Tables_number	1
_symmetry_cell_setting	triclinic
loop_
_symmetry_equiv_pos_as_xyz
  x,y,z
_cell_length_a	14.044220
_cell_length_b	19.288840
_cell_length_c	18.366186
_cell_angle_alpha	90.013590
_cell_angle_beta	90.002290
_cell_angle_gamma	88.157446
loop_
_atom_site_label
_atom_site_type_symbol
_atom_site_fract_x
_atom_site_fract_y
_atom_site_fract_z
O1	O	0.118094	0.928950	0.060674
O2	O	0.134066	0.727713	0.060649
O3	O	-0.011891	0.825311	0.060654
O4	O	0.264051	0.831352	0.060669
O5	O	-0.011886	0.825297	-0.060445
O6	O	0.134071	0.727699	-0.060450
O7	O	0.118099	0.928936	-0.060425
Zn8	Zn	0.126086	0.828315	-0.079665
Zn9	Zn	0.126079	0.828333	0.079889
O10	O	0.264057	0.831338	-0.060430
C11	C	0.133559	0.701796	0.000096
C12	C	0.132028	0.624594	0.000087
C13	C	-0.047191	0.822659	0.000104
C14	C	-0.152383	0.814772	0.000102
C15	C	0.131290	0.588350	0.066100
C16	C	0.129841	0.515810	0.066109
C17	C	0.129111	0.479517	0.000101
C18	C	0.129854	0.515769	-0.065921
C19	C	0.131313	0.588307	-0.065928
C20	C	0.071298	0.366469	-0.050464
C21	C	0.069833	0.293932	-0.050454
C22	C	0.124617	0.255785	0.000119
C23	C	0.180852	0.290183	0.050695
C24	C	0.182311	0.362721	0.050688
C25	C	0.127530	0.400861	0.000101
C26	C	0.122309	0.140885	0.066147
C27	C	0.120866	0.068343	0.066153
C28	C	0.120870	0.068304	-0.065879
C29	C	0.122323	0.140844	-0.065883
C30	C	0.123037	0.177130	0.000132
C31	C	-0.344981	0.800351	0.000111
C32	C	-0.402860	0.856295	0.000120
C33	C	-0.510028	0.848271	0.000125
C34	C	-0.237802	0.808374	0.000106
C35	C	0.299357	0.833989	0.000122
C36	C	0.404548	0.841877	0.000129
C37	C	0.118607	0.954852	0.000129
C38	C	0.120138	1.032055	0.000144
N39	N	0.126090	0.828308	-0.188556
C40	C	0.183382	0.874021	-0.773097
C41	C	0.183391	0.874014	-0.696869
C42	C	0.126069	0.828339	-0.658767
C43	C	0.068751	0.782655	-0.696900
C44	C	0.068751	0.782658	-0.773126
C45	C	0.040631	0.821123	-0.538006
C46	C	0.040630	0.821124	-0.461781
C47	C	0.126071	0.828325	-0.423660
C48	C	0.211516	0.835539	-0.461772
C49	C	0.211515	0.835543	-0.537999
C50	C	0.126063	0.828330	-0.576112
C51	C	0.183400	0.873996	-0.302881
C52	C	0.183411	0.873985	-0.226652
C53	C	0.068763	0.782629	-0.226684
C54	C	0.068761	0.782637	-0.302912
C55	C	0.126078	0.828324	-0.341006
N56	N	0.126068	0.828345	0.188780
H57	H	0.131872	0.617890	0.119854
H58	H	0.225466	0.259125	0.091875
C59	C	0.244219	0.400555	0.106288
N60	N	0.290869	0.429051	0.148155
C61	C	0.123112	0.180802	0.138763
N62	N	0.123721	0.210865	0.193459
H63	H	0.024038	0.265931	-0.091633
C64	C	-0.361071	0.929140	0.000119
N65	N	-0.329591	0.984005	0.000114
C66	C	-0.386770	0.727511	0.000092
N67	N	-0.418257	0.672648	0.000072
H68	H	0.120271	0.038835	0.119911
C69	C	0.246469	0.924254	-0.814995
N70	N	0.294000	0.962082	-0.846555
H71	H	0.230067	0.911209	-0.665823
C72	C	0.305504	0.843464	-0.579920
N73	N	0.376300	0.849425	-0.611494
C74	C	0.011024	0.408424	-0.106101
N75	N	-0.034373	0.440024	-0.148004
C76	C	0.120069	0.028386	-0.138489
N77	N	0.119467	-0.001684	-0.193181
C78	C	0.305510	0.843455	-0.419844
N79	N	0.376305	0.849415	-0.388261
C80	C	0.123121	0.180714	-0.138504
N81	N	0.123723	0.210743	-0.193205
C82	C	-0.053360	0.813189	-0.419865
N83	N	-0.124155	0.807210	-0.388295
C84	C	0.246453	0.924251	-0.344787
N85	N	0.293944	0.962103	-0.376349
C86	C	0.132117	0.628176	-0.138551
N87	N	0.132719	0.658207	-0.193252
C88	C	0.246464	0.924235	-0.184717
N89	N	0.293955	0.962086	-0.153130
H90	H	-0.028949	0.815252	-0.569039
H91	H	0.022078	0.745462	-0.804165
C92	C	0.005736	0.732366	-0.184777
N93	N	-0.041726	0.694499	-0.153209
C94	C	0.005704	0.732393	-0.344849
N95	N	-0.041790	0.694545	-0.376436
H96	H	0.022081	0.745464	-0.665872
H97	H	0.129262	0.486214	-0.119665
C98	C	0.129022	0.475934	0.138731
N99	N	0.128403	0.445902	0.193430
