data_functionalizedCrystal
_audit_creation_method	'MofGen! by Chris Wilmer'
_symmetry_space_group_name_H-M	'P1'
_symmetry_Int_Tables_number	1
_symmetry_cell_setting	triclinic
loop_
_symmetry_equiv_pos_as_xyz
  x,y,z
_cell_length_a	18.215407
_cell_length_b	21.295417
_cell_length_c	18.215399
_cell_angle_alpha	89.965438
_cell_angle_beta	89.983176
_cell_angle_gamma	90.030955
loop_
_atom_site_label
_atom_site_type_symbol
_atom_site_fract_x
_atom_site_fract_y
_atom_site_fract_z
Zn1	Zn	1.125021	-0.250593	-0.416094
Zn2	Zn	1.124924	-0.355869	-0.293019
Zn3	Zn	1.001960	-0.250618	-0.293042
Zn4	Zn	1.001908	-0.355829	-0.416044
O5	O	1.063453	-0.303227	-0.354550
O6	O	1.227993	-0.264564	-0.399780
O7	O	1.108594	-0.341934	-0.190038
O8	O	1.018347	-0.162525	-0.309396
O9	O	1.227921	-0.341910	-0.309357
O10	O	1.108760	-0.162507	-0.399802
O11	O	1.018253	-0.264607	-0.190054
O12	O	0.898969	-0.264569	-0.309347
O13	O	1.018258	-0.341843	-0.519035
O14	O	0.898930	-0.341867	-0.399716
O15	O	1.108709	-0.264526	-0.519072
O16	O	1.108543	-0.443953	-0.309308
O17	O	1.018163	-0.443924	-0.399694
C18	C	0.872247	-0.303217	-0.354529
C19	C	0.790448	-0.303227	-0.354537
C20	C	1.063357	-0.466779	-0.354509
C21	C	1.063383	-0.536747	-0.354516
C22	C	0.602253	-0.343540	-0.401533
C23	C	0.525395	-0.343542	-0.401542
C24	C	0.525405	-0.262927	-0.307582
C25	C	0.602263	-0.262922	-0.307577
C26	C	0.640685	-0.303232	-0.354552
C27	C	0.486969	-0.303239	-0.354566
C28	C	0.403635	-0.303240	-0.354575
C29	C	0.724024	-0.303229	-0.354543
C30	C	1.110485	-0.569608	-0.307500
C31	C	1.110520	-0.635350	-0.307517
C32	C	1.063439	-0.668230	-0.354542
C33	C	1.016333	-0.635361	-0.401566
C34	C	1.016305	-0.569620	-0.401554
N35	N	0.999060	-0.771496	-0.360145
N36	N	0.999088	-0.833947	-0.360153
C37	C	1.063521	-0.866304	-0.354584
N38	N	1.127926	-0.833851	-0.348993
N39	N	1.127896	-0.771394	-0.348981
C40	C	1.063464	-0.739515	-0.354561
C41	C	1.110665	-0.970451	-0.307584
C42	C	1.110701	-1.036194	-0.307605
C43	C	1.016507	-1.036203	-0.401651
C44	C	1.016478	-0.970461	-0.401633
C45	C	1.063556	-0.937589	-0.354595
C46	C	1.255406	-0.303239	-0.354571
C47	C	1.337205	-0.303243	-0.354581
C48	C	1.063488	-0.303177	-0.546503
C49	C	1.063503	-0.303156	-0.628302
C50	C	1.063570	-0.139037	-0.354607
C51	C	1.063620	-0.069069	-0.354631
C52	C	1.016502	-0.262864	-0.816505
C53	C	1.016515	-0.262852	-0.893364
C54	C	1.110592	-0.343372	-0.893336
C55	C	1.110575	-0.343387	-0.816479
C56	C	1.063531	-0.303130	-0.778065
C57	C	1.063561	-0.303102	-0.931781
C58	C	1.063575	-0.303088	-1.015115
C59	C	1.063516	-0.303144	-0.694726
C60	C	1.063461	-0.303232	-0.163344
C61	C	1.063589	-0.303076	-0.081545
H62	H	0.633534	-0.376361	-0.439785
H63	H	0.494107	-0.376363	-0.439801
H64	H	0.977948	-0.542864	-0.439840
H65	H	0.494113	-0.230108	-0.269336
H66	H	0.633554	-0.230095	-0.269319
O67	O	0.970695	-0.223833	-0.779222
C68	C	0.845526	-0.193259	-0.755746
C69	C	0.897322	-0.237510	-0.797999
H70	H	0.786194	-0.204293	-0.770923
H71	H	0.853527	-0.200188	-0.694202
H72	H	0.858521	-0.142501	-0.770871
H73	H	0.884360	-0.288285	-0.782935
H74	H	0.889312	-0.230527	-0.859533
H75	H	0.978219	-0.230064	-0.924659
H76	H	1.148821	-0.542845	-0.269202
H77	H	1.148879	-0.662111	-0.269231
H78	H	0.978001	-0.662135	-0.439855
O79	O	1.156466	-0.938611	-0.261873
C80	C	1.249859	-0.945539	-0.168561
C81	C	1.198041	-0.981673	-0.220303
H82	H	1.283475	-0.980338	-0.134927
H83	H	1.288354	-0.914721	-0.202338
H84	H	1.216066	-0.914799	-0.130073
H85	H	1.231775	-1.012446	-0.258801
H86	H	1.159545	-1.012451	-0.186480
H87	H	1.148894	-0.376148	-0.924622
O88	O	1.156598	-1.068117	-0.262071
C89	C	1.256072	-1.142205	-0.252381
C90	C	1.204112	-1.106098	-0.304012
H91	H	1.294490	-1.172931	-0.286269
H92	H	1.289762	-1.107410	-0.218818
H93	H	1.222388	-1.173037	-0.213822
H94	H	1.237738	-1.075265	-0.342615
H95	H	1.170419	-1.140927	-0.337523
H96	H	0.978176	-1.062973	-0.439942
O97	O	1.156226	-0.382591	-0.779214
C98	C	1.191839	-0.489676	-0.755615
C99	C	1.140112	-0.445350	-0.797876
H100	H	1.178819	-0.540427	-0.770675
H101	H	1.251204	-0.478674	-0.770747
H102	H	1.183755	-0.482740	-0.694089
H103	H	1.148130	-0.452261	-0.859411
H104	H	1.080765	-0.456363	-0.782683
O105	O	0.970645	-0.938634	-0.447321
C106	C	0.877251	-0.945583	-0.540628
C107	C	0.929108	-0.981705	-0.488909
H108	H	0.843665	-0.980389	-0.574277
H109	H	0.838730	-0.914875	-0.506832
H110	H	0.911011	-0.914734	-0.579103
H111	H	0.895407	-1.012587	-0.450424
H112	H	0.967631	-1.012373	-0.522751
