data_functionalizedCrystal
_audit_creation_method	'MofGen! by Chris Wilmer'
_symmetry_space_group_name_H-M	'P1'
_symmetry_Int_Tables_number	1
_symmetry_cell_setting	triclinic
loop_
_symmetry_equiv_pos_as_xyz
  x,y,z
_cell_length_a	6.817900
_cell_length_b	19.551823
_cell_length_c	17.982968
_cell_angle_alpha	96.138236
_cell_angle_beta	102.451960
_cell_angle_gamma	101.663376
loop_
_atom_site_label
_atom_site_type_symbol
_atom_site_fract_x
_atom_site_fract_y
_atom_site_fract_z
V1	V	-4.006028	-0.097330	-0.237907
O2	O	-4.003194	0.004004	-0.233012
O3	O	-3.948782	-0.192342	-0.236633
O4	O	-3.952647	-0.096129	-0.341506
O5	O	-3.999303	-0.092876	-0.127413
V6	V	-4.491447	-0.085175	-0.224648
O7	O	-4.263126	-0.123995	-0.266992
O8	O	-4.684546	-0.058510	-0.195564
O9	O	-4.325487	0.009837	-0.225923
O10	O	-4.611677	-0.186509	-0.229544
O11	O	-4.615569	-0.089629	-0.335143
O12	O	-4.321622	-0.086376	-0.121050
C13	C	-3.791792	-0.215495	-0.232970
C14	C	-3.826240	-0.293170	-0.232619
C15	C	-4.024006	-0.333225	-0.236264
C16	C	-4.056379	-0.406211	-0.235941
C17	C	-3.890965	-0.439135	-0.231958
C18	C	-3.693173	-0.399071	-0.228317
C19	C	-3.660811	-0.326088	-0.228648
C20	C	-3.780059	-0.545490	-0.183645
C21	C	-3.812426	-0.618470	-0.183311
C22	C	-3.990776	-0.664238	-0.230943
C23	C	-4.136784	-0.637015	-0.278900
C24	C	-4.104421	-0.564033	-0.279231
C25	C	-3.926037	-0.518272	-0.231600
C26	C	-4.223657	-0.783433	-0.234239
C27	C	-4.256025	-0.856420	-0.233921
C28	C	-3.892810	-0.849278	-0.226289
C29	C	-3.860452	-0.776293	-0.226615
C30	C	-4.025881	-0.743375	-0.230586
C31	C	-3.796721	-0.092764	-0.366746
C32	C	-3.834301	-0.092410	-0.451440
C33	C	-4.033551	-0.095746	-0.495124
C34	C	-4.068850	-0.095413	-0.574704
C35	C	-3.904899	-0.091750	-0.610599
C36	C	-3.705632	-0.088412	-0.566908
C37	C	-3.670333	-0.088740	-0.487330
C38	C	-3.847982	-0.087089	-0.887841
C39	C	-3.883298	-0.086763	-0.967426
C40	C	-4.246499	-0.093762	-0.975215
C41	C	-4.211200	-0.094089	-0.895636
C42	C	-4.011936	-0.090748	-0.851952
C43	C	-3.973662	-0.091108	-0.765663
C44	C	-3.943172	-0.091395	-0.696887
C45	C	-4.145818	0.032986	-0.229583
C46	C	-4.090608	0.110660	-0.229939
C47	C	-4.140889	-0.089743	-0.095806
C48	C	-4.082548	-0.090094	-0.011110
H49	H	-4.217429	-0.438830	-0.238909
H50	H	-3.558495	-0.425883	-0.225076
H51	H	-4.417076	-0.889034	-0.236894
H52	H	-3.634811	-0.508231	-0.144860
H53	H	-3.749777	-0.083779	-0.996648
C54	C	-3.379891	-0.230282	-0.158754
C55	C	-3.443406	-0.282052	-0.224633
H56	H	-3.245677	-0.203093	-0.156277
H57	H	-3.377116	-0.252401	-0.114135
H58	H	-3.473792	-0.200235	-0.161179
H59	H	-3.349513	-0.312102	-0.222205
H60	H	-3.446166	-0.259932	-0.269263
C61	C	-4.528688	-0.157824	-1.079715
C62	C	-4.465533	-0.097428	-1.023238
H63	H	-4.663900	-0.160085	-1.109365
H64	H	-4.528931	-0.198754	-1.055617
H65	H	-4.436075	-0.155584	-1.112474
H66	H	-4.558137	-0.099670	-0.990476
H67	H	-4.465305	-0.056487	-1.047338
H68	H	-3.685747	-0.084393	-0.852287
H69	H	-3.758129	-0.876084	-0.223051
H70	H	-3.508077	-0.086007	-0.451760
C71	C	-3.598468	-0.084810	-0.685438
C72	C	-3.525411	-0.084388	-0.606363
H73	H	-3.487204	-0.082332	-0.709794
H74	H	-3.657290	-0.045240	-0.692969
H75	H	-3.700437	-0.127152	-0.707181
H76	H	-3.423453	-0.042044	-0.584619
H77	H	-3.466557	-0.123961	-0.598826
H78	H	-3.693544	-0.640629	-0.144256
H79	H	-4.167066	-0.098733	-0.465906
C80	C	-4.428268	-0.589686	-0.373694
C81	C	-4.264886	-0.534109	-0.331951
H82	H	-4.527321	-0.571212	-0.406246
H83	H	-4.491251	-0.614248	-0.338939
H84	H	-4.377036	-0.621286	-0.404216
H85	H	-4.316116	-0.502512	-0.301424
H86	H	-4.201895	-0.509536	-0.366710
H87	H	-4.231093	-0.098125	-0.610268
C88	C	-4.541715	-0.160525	-0.888260
C89	C	-4.391425	-0.098115	-0.856184
H90	H	-4.652984	-0.163004	-0.863907
H91	H	-4.482876	-0.200089	-0.880720
H92	H	-4.591233	-0.160799	-0.941906
H93	H	-4.341896	-0.097843	-0.802538
H94	H	-4.450273	-0.058540	-0.863717
C95	C	-4.364137	-0.695911	-0.173195
C96	C	-4.405485	-0.747242	-0.238611
H97	H	-4.476397	-0.673572	-0.175893
H98	H	-4.241728	-0.661613	-0.171072
H99	H	-4.346278	-0.717740	-0.128256
H100	H	-4.423329	-0.725412	-0.283550
H101	H	-4.527929	-0.781545	-0.240742
H102	H	-4.158718	-0.306429	-0.239503
H103	H	-4.281827	-0.674290	-0.317792
H104	H	-3.699408	-0.743678	-0.223642
