data_functionalizedCrystal
_audit_creation_method	'MofGen! by Chris Wilmer'
_symmetry_space_group_name_H-M	'P1'
_symmetry_Int_Tables_number	1
_symmetry_cell_setting	triclinic
loop_
_symmetry_equiv_pos_as_xyz
  x,y,z
_cell_length_a	13.635800
_cell_length_b	13.563541
_cell_length_c	11.102300
_cell_angle_alpha	72.298915
_cell_angle_beta	108.605850
_cell_angle_gamma	75.295376
loop_
_atom_site_label
_atom_site_type_symbol
_atom_site_fract_x
_atom_site_fract_y
_atom_site_fract_z
V1	V	2.062867	-0.153615	0.450126
O2	O	2.034940	0.007382	0.386125
O3	O	2.058236	-0.304593	0.500361
O4	O	2.051148	-0.151252	0.622118
O5	O	2.042077	-0.147020	0.263524
V6	V	2.300528	-0.134358	0.421330
O7	O	2.202491	-0.195857	0.513291
O8	O	2.386003	-0.092116	0.358165
O9	O	2.193556	0.016620	0.371096
O10	O	2.387154	-0.295355	0.485332
O11	O	2.380017	-0.140952	0.607932
O12	O	2.200644	-0.136721	0.249338
V13	V	2.562867	-0.153615	0.450126
O14	O	2.534940	0.007382	0.386125
O15	O	2.558236	-0.304593	0.500361
O16	O	2.551148	-0.151252	0.622118
O17	O	2.542077	-0.147020	0.263524
V18	V	2.800528	-0.134358	0.421330
O19	O	2.702491	-0.195857	0.513291
O20	O	2.886003	-0.092116	0.358165
O21	O	2.693556	0.016620	0.371096
O22	O	2.887154	-0.295355	0.485332
O23	O	2.880017	-0.140952	0.607932
O24	O	2.700644	-0.136721	0.249338
C25	C	1.985093	-0.341398	0.507016
C26	C	2.022033	-0.464824	0.549236
C27	C	2.002874	-0.749316	0.180442
C28	C	1.968160	-0.633350	0.140772
C29	C	1.981627	-0.591213	0.242884
C30	C	2.029811	-0.665053	0.384674
C31	C	2.064521	-0.781030	0.424347
C32	C	2.043273	-0.622927	0.486790
C33	C	2.091457	-0.696767	0.628579
C34	C	2.126163	-0.812732	0.668246
C35	C	2.112697	-0.854869	0.566133
C36	C	2.008563	-0.506950	0.447116
C37	C	2.070209	-0.538664	0.691022
C38	C	2.104923	-0.654630	0.730692
C39	C	1.976051	-0.145795	0.662328
C40	C	2.007241	-0.144862	0.803283
C41	C	2.098371	0.053419	0.364439
C42	C	2.051051	0.176845	0.322228
C43	C	2.107412	-0.142181	0.209123
C44	C	2.065840	-0.143109	0.068165
C45	C	2.485093	-0.341398	0.507016
C46	C	2.522033	-0.464824	0.549236
C47	C	2.114156	-0.149969	0.877923
C48	C	2.143455	-0.149088	1.010363
C49	C	1.958915	-0.137998	0.993513
C50	C	1.929615	-0.138871	0.861072
C51	C	2.476051	-0.145795	0.662328
C52	C	2.507241	-0.144862	0.803283
C53	C	2.598371	0.053419	0.364439
C54	C	2.551051	0.176845	0.322228
C55	C	2.607412	-0.142181	0.209123
C56	C	2.565840	-0.143109	0.068165
C57	C	2.631659	-0.528448	0.577397
C58	C	2.666388	-0.644424	0.617088
C59	C	2.591485	-0.696772	0.628606
C60	C	2.481850	-0.633141	0.600444
C61	C	2.447126	-0.517168	0.560765
C62	C	2.613918	0.240468	0.294070
C63	C	2.569462	0.356442	0.254386
C64	C	2.462142	0.408791	0.242871
C65	C	2.399269	0.345160	0.271029
C66	C	2.443722	0.229189	0.310702
C67	C	2.614156	-0.149969	0.877923
C68	C	2.643455	-0.149088	1.010363
C69	C	2.458915	-0.137998	0.993513
C70	C	2.429615	-0.138871	0.861072
H71	H	1.969331	-0.446839	0.331670
H72	H	2.692662	-0.485841	0.568017
O73	O	2.382817	0.167247	0.338283
C74	C	2.441946	0.084789	0.477606
H75	H	2.535333	0.067282	0.514947
H76	H	2.428517	0.004240	0.482977
H77	H	2.409804	0.116164	0.547551
O78	O	2.172942	-0.884615	0.805911
C79	C	2.200715	-0.996009	0.819032
H80	H	2.146917	-0.996258	0.716756
H81	H	2.184453	-1.047201	0.907564
H82	H	2.293229	-1.034644	0.843386
O83	O	1.825717	-0.133759	0.788399
C84	C	1.770191	-0.037364	0.660128
H85	H	1.808226	0.027316	0.669072
H86	H	1.677149	-0.000090	0.633987
H87	H	1.780296	-0.061369	0.573603
H88	H	2.619775	-0.791205	0.660917
H89	H	2.342546	-0.134704	0.800293
H90	H	1.895719	-0.133123	1.040582
O91	O	2.408966	-0.683828	0.611612
C92	C	2.304740	-0.602809	0.578206
H93	H	2.317723	-0.527298	0.594731
H94	H	2.266649	-0.640828	0.648782
H95	H	2.245568	-0.574788	0.464097
O96	O	2.340609	-0.455228	0.533174
C97	C	2.285717	-0.372777	0.393847
H98	H	2.350865	-0.355270	0.356511
H99	H	2.228814	-0.292227	0.388463
H100	H	2.233086	-0.404161	0.323905
O101	O	2.772908	-0.706045	0.644316
C102	C	2.831565	-0.634965	0.625651
H103	H	2.769048	-0.545142	0.552578
H104	H	2.889708	-0.663968	0.577972
H105	H	2.883371	-0.638308	0.731307
H106	H	1.953355	-0.496787	0.210576
O107	O	2.718166	0.189817	0.305116
C108	C	2.764112	0.270856	0.271774
H109	H	2.693385	0.357371	0.203592
H110	H	2.814865	0.249753	0.212450
H111	H	2.821240	0.270975	0.372316
H112	H	2.620673	0.408235	0.231467
H113	H	2.425958	0.503223	0.210565
H114	H	2.677366	-0.154845	0.830875
H115	H	2.311884	0.387800	0.261645
O116	O	2.747379	-0.154110	1.082708
C117	C	2.809593	-0.159555	1.003280
H118	H	2.773735	-0.193867	0.925091
H119	H	2.901115	-0.217336	1.076096
H120	H	2.804238	-0.071868	0.944429
H121	H	2.395719	-0.133123	1.040582
H122	H	1.928932	-0.573237	0.025327
O123	O	2.151874	-0.726483	0.868389
C124	C	2.261468	-0.799865	0.906540
H125	H	2.269131	-0.805255	0.809233
H126	H	2.279204	-0.886921	0.984263
H127	H	2.324690	-0.766761	0.956975
O128	O	1.989993	-0.790317	0.081334
C129	C	2.095882	-0.861853	0.104911
H130	H	2.164191	-0.839653	0.167670
H131	H	2.098436	-0.850963	0.000157
H132	H	2.110646	-0.952785	0.165966
O133	O	2.083266	-0.497562	0.790051
C134	C	2.042281	-0.379369	0.724630
H135	H	2.043096	-0.351872	0.617296
H136	H	2.097920	-0.348431	0.791864
H137	H	1.952688	-0.342230	0.711831
O138	O	2.189584	-0.155976	0.821827
C139	C	2.211189	-0.253402	0.796810
H140	H	2.190760	-0.317516	0.867671
H141	H	2.303556	-0.290738	0.819917
H142	H	2.156724	-0.230735	0.682614
H143	H	2.230513	-0.153245	1.071129
H144	H	2.140968	-0.949298	0.598426
