data_functionalizedCrystal
_audit_creation_method	'MofGen! by Chris Wilmer'
_symmetry_space_group_name_H-M	'P1'
_symmetry_Int_Tables_number	1
_symmetry_cell_setting	triclinic
loop_
_symmetry_equiv_pos_as_xyz
  x,y,z
_cell_length_a	19.288864
_cell_length_b	12.837942
_cell_length_c	17.766277
_cell_angle_alpha	89.994736
_cell_angle_beta	89.976791
_cell_angle_gamma	88.982593
loop_
_atom_site_label
_atom_site_type_symbol
_atom_site_fract_x
_atom_site_fract_y
_atom_site_fract_z
O1	O	0.930181	0.129276	-0.062838
O2	O	1.430181	0.629276	0.437162
O3	O	0.729111	0.146715	-0.062786
O4	O	1.229111	0.646715	0.437214
O5	O	0.825187	-0.012886	-0.062806
O6	O	1.325187	0.487114	0.437194
O7	O	0.834104	0.288878	-0.062818
O8	O	1.334104	0.788878	0.437182
O9	O	0.825168	-0.012894	0.062382
O10	O	1.325168	0.487106	0.562382
O11	O	0.729091	0.146707	0.062402
O12	O	1.229091	0.646707	0.562402
O13	O	0.930161	0.129268	0.062351
O14	O	1.430161	0.629268	0.562351
Cu15	Cu	0.829625	0.137987	0.073807
Cu16	Cu	1.329625	0.637987	0.573807
Cu17	Cu	0.829647	0.137996	-0.074243
Cu18	Cu	1.329647	0.637996	0.425757
O19	O	0.834085	0.288870	0.062371
O20	O	1.334085	0.788870	0.562371
C21	C	0.703186	0.146150	-0.000185
C22	C	1.203186	0.646150	0.499815
C23	C	0.625968	0.144466	-0.000166
C24	C	1.125968	0.644466	0.499834
C25	C	0.587666	0.238113	-0.000181
C26	C	1.087666	0.738113	0.499819
C27	C	0.515111	0.236530	-0.000189
C28	C	1.015111	0.736530	0.499811
C29	C	0.480860	0.141295	-0.000197
C30	C	0.980860	0.641295	0.499803
C31	C	0.519171	0.047636	-0.000178
C32	C	1.019171	0.547636	0.499822
C33	C	0.591725	0.049221	-0.000162
C34	C	1.091725	0.549221	0.499838
C35	C	0.367493	0.066433	-0.044079
C36	C	0.867493	0.566433	0.455921
C37	C	0.294941	0.064852	-0.044099
C38	C	0.794941	0.564852	0.455901
C39	C	0.257081	0.136402	-0.000243
C40	C	0.757081	0.636402	0.499757
C41	C	0.291782	0.209552	0.043625
C42	C	0.791782	0.709552	0.543625
C43	C	0.364335	0.211137	0.043640
C44	C	0.864335	0.711137	0.543640
C45	C	0.402188	0.139566	-0.000214
C46	C	0.902188	0.639566	0.499786
C47	C	0.140106	0.228340	-0.000266
C48	C	0.640106	0.728340	0.499734
C49	C	0.067550	0.226753	-0.000270
C50	C	0.567550	0.726753	0.499730
C51	C	0.071611	0.037857	-0.000265
C52	C	0.571611	0.537857	0.499735
C53	C	0.144166	0.039446	-0.000254
C54	C	0.644166	0.539446	0.499746
C55	C	0.178409	0.134690	-0.000258
C56	C	0.678409	0.634690	0.499742
C57	C	0.822165	-0.051497	-0.000212
C58	C	1.322165	0.448503	0.499788
C59	C	0.813181	-0.166532	-0.000211
C60	C	1.313181	0.333468	0.499789
C61	C	0.921187	-0.407995	-0.000254
C62	C	1.421187	0.092005	0.499746
C63	C	0.912748	-0.516081	-0.000253
C64	C	1.412748	-0.016081	0.499747
C65	C	0.787867	-0.490793	-0.000213
C66	C	1.287867	0.009207	0.499787
C67	C	0.796305	-0.382707	-0.000214
C68	C	1.296305	0.117293	0.499786
C69	C	0.862967	-0.341312	-0.000233
C70	C	1.362967	0.158688	0.499767
C71	C	0.871405	-0.233223	-0.000229
C72	C	1.371405	0.266777	0.499771
C73	C	0.746524	-0.207938	-0.000195
C74	C	1.246524	0.292062	0.499805
C75	C	0.738086	-0.316024	-0.000194
C76	C	1.238086	0.183976	0.499806
C77	C	0.956086	0.129833	-0.000252
C78	C	1.456086	0.629833	0.499748
C79	C	1.033304	0.131518	-0.000276
C80	C	1.533304	0.631518	0.499724
C81	C	0.837107	0.327480	-0.000225
C82	C	1.337107	0.827480	0.499775
C83	C	0.846091	0.442515	-0.000231
C84	C	1.346091	0.942515	0.499769
N85	N	0.829614	0.137979	0.177938
N86	N	1.329614	0.637979	0.677938
N87	N	0.829663	0.137996	-0.178373
N88	N	1.329663	0.637996	0.321627
C89	C	0.872174	0.067342	0.217316
C90	C	1.372174	0.567342	0.717316
C91	C	0.872178	0.067338	0.296118
C92	C	1.372178	0.567338	0.796118
C93	C	0.829629	0.137988	0.335538
C94	C	1.329629	0.637988	0.835538
C95	C	0.787060	0.208630	0.296151
C96	C	1.287060	0.708630	0.796151
C97	C	0.787052	0.208626	0.217350
C98	C	1.287052	0.708626	0.717350
C99	C	0.826778	0.232410	0.460374
C100	C	1.326778	0.732410	0.960374
C101	C	0.826790	0.232416	0.539173
C102	C	1.326790	0.732416	1.039173
C103	C	0.829648	0.138000	0.578584
C104	C	1.329648	0.638000	1.078584
C105	C	0.832508	0.043575	0.539188
C106	C	1.332508	0.543575	1.039188
C107	C	0.832501	0.043571	0.460387
C108	C	1.332501	0.543571	0.960387
C109	C	0.829632	0.138000	0.420984
C110	C	1.329632	0.638000	0.920984
C111	C	0.872215	0.067352	0.703409
C112	C	1.372215	0.567352	1.203409
C113	C	0.872213	0.067346	0.782212
C114	C	1.372213	0.567346	1.282212
C115	C	0.787100	0.208647	0.782243
C116	C	1.287100	0.708647	1.282243
C117	C	0.787097	0.208645	0.703442
C118	C	1.287097	0.708645	1.203442
C119	C	0.829658	0.137998	0.664029
C120	C	1.329658	0.637998	1.164029
H121	H	0.260958	0.267814	0.079337
H122	H	0.760958	0.767814	0.579337
N123	N	0.918102	-0.008876	0.660908
N124	N	1.418102	0.491124	1.160908
H125	H	0.888522	-0.054657	0.628239
H126	H	1.388522	0.445343	1.128239
H127	H	0.951468	0.030655	0.628231
H128	H	1.451468	0.530655	1.128231
H129	H	0.834835	-0.033307	0.571275
H130	H	1.334835	0.466693	1.071275
N131	N	0.918133	-0.008828	0.824688
N132	N	1.418133	0.491172	1.324688
H133	H	0.945098	-0.053570	0.787760
H134	H	1.445098	0.446430	1.287760
H135	H	0.951448	0.030761	0.857354
H136	H	1.451448	0.530761	1.357354
N137	N	0.666191	-0.360679	-0.000163
N138	N	1.166191	0.139321	0.499837
H139	H	0.630590	-0.302031	-0.000148
H140	H	1.130590	0.197969	0.499852
H141	H	0.659971	-0.404966	-0.046571
H142	H	1.159971	0.095034	0.453429
H143	H	0.975465	-0.374291	-0.000262
H144	H	1.475465	0.125709	0.499738
H145	H	0.925684	-0.199522	-0.000242
H146	H	1.425684	0.300478	0.499758
N147	N	0.715973	-0.535451	-0.000196
N148	N	1.215973	-0.035451	0.499804
H149	H	0.690151	-0.511105	-0.046596
H150	H	1.190151	-0.011105	0.453404
H151	H	0.719525	-0.614034	-0.000174
H152	H	1.219525	-0.114034	0.499826
H153	H	0.167988	0.305893	-0.000258
H154	H	0.667988	0.805893	0.499742
H155	H	0.699118	-0.153632	-0.000172
H156	H	1.199118	0.346368	0.499828
N157	N	0.741148	0.284827	0.174880
N158	N	1.241148	0.784827	0.674880
H159	H	0.770715	0.330611	0.142168
H160	H	1.270715	0.830611	0.642168
H161	H	0.707788	0.245268	0.142250
H162	H	1.207788	0.745268	0.642250
N163	N	0.823701	0.334253	0.581662
N164	N	1.323701	0.834253	1.081662
H165	H	0.821878	0.394063	0.544740
H166	H	1.321878	0.894063	1.044740
H167	H	0.780870	0.336570	0.614378
H168	H	1.280870	0.836570	1.114378
N169	N	0.918074	-0.008855	0.174806
N170	N	1.418074	0.491145	0.674806
H171	H	0.945036	-0.053605	0.211715
H172	H	1.445036	0.446395	0.711715
H173	H	0.888458	-0.054573	0.142134
H174	H	1.388458	0.445427	0.642134
N175	N	0.741166	0.284825	0.338667
N176	N	1.241166	0.784825	0.838667
H177	H	0.770737	0.330615	0.371340
H178	H	1.270737	0.830615	0.871340
H179	H	0.714208	0.329504	0.301715
H180	H	1.214208	0.829504	0.801715
H181	H	0.483920	0.312791	-0.000200
H182	H	0.983920	0.812791	0.499800
H183	H	0.906836	0.009814	0.328185
H184	H	1.406836	0.509814	0.828185
H185	H	0.834828	-0.033313	0.428314
H186	H	1.334828	0.466687	0.928314
N187	N	0.624600	0.340836	-0.000191
N188	N	1.124600	0.840836	0.499809
H189	H	0.589322	0.399921	-0.000204
H190	H	1.089322	0.899921	0.499796
H191	H	0.654590	0.345616	0.046223
H192	H	1.154590	0.845616	0.546223
N193	N	0.401765	0.290021	0.090953
N194	N	0.901765	0.790021	0.590953
H195	H	0.366777	0.335111	0.118736
H196	H	0.866777	0.835111	0.618736
H197	H	0.432665	0.252537	0.128421
H198	H	0.932665	0.752537	0.628421
N199	N	0.741201	0.284843	0.824749
N200	N	1.241201	0.784843	1.324749
H201	H	0.747661	0.274126	0.880645
H202	H	1.247661	0.774126	1.380645
H203	H	0.754082	0.358331	0.810964
H204	H	1.254082	0.858331	1.310964
H205	H	0.824438	0.309300	0.428291
H206	H	1.324438	0.809300	0.928291
H207	H	0.036366	0.303015	-0.000278
H208	H	0.536366	0.803015	0.499722
N209	N	0.034681	-0.064864	-0.000265
N210	N	0.534681	0.435136	0.499735
H211	H	-0.017095	-0.051660	-0.000275
H212	H	0.482905	0.448340	0.499725
H213	H	0.048273	-0.105829	-0.046670
H214	H	0.548273	0.394171	0.453330
H215	H	0.266693	0.005293	-0.079822
H216	H	0.766693	0.505293	0.420178
N217	N	0.185483	-0.061560	-0.000238
N218	N	0.685483	0.438440	0.499762
H219	H	0.152778	-0.122133	-0.000243
H220	H	0.652778	0.377867	0.499757
H221	H	0.215702	-0.065017	-0.046638
H222	H	0.715702	0.434983	0.453362
N223	N	0.408325	-0.010747	-0.091382
N224	N	0.908325	0.489253	0.408618
H225	H	0.375334	-0.057319	-0.119178
H226	H	0.875334	0.442681	0.380822
H227	H	0.437629	0.028049	-0.128838
H228	H	0.937629	0.528049	0.371162
H229	H	0.752444	0.266168	0.671378
H230	H	1.252444	0.766168	1.171378
N231	N	0.482235	-0.055083	-0.000177
N232	N	0.982235	0.444917	0.499823
H233	H	0.430460	-0.041878	-0.000190
H234	H	0.930460	0.458122	0.499810
H235	H	0.495829	-0.096052	-0.046579
H236	H	0.995829	0.403948	0.453421
H237	H	0.622910	-0.027040	-0.000150
H238	H	1.122910	0.472960	0.499850
H239	H	0.960157	-0.570371	-0.000272
H240	H	1.460157	-0.070371	0.499728
