data_functionalizedCrystal
_audit_creation_method	'MofGen! by Chris Wilmer'
_symmetry_space_group_name_H-M	'P1'
_symmetry_Int_Tables_number	1
_symmetry_cell_setting	triclinic
loop_
_symmetry_equiv_pos_as_xyz
  x,y,z
_cell_length_a	11.792254
_cell_length_b	12.837942
_cell_length_c	11.295483
_cell_angle_alpha	85.469583
_cell_angle_beta	85.866602
_cell_angle_gamma	90.486231
loop_
_atom_site_label
_atom_site_type_symbol
_atom_site_fract_x
_atom_site_fract_y
_atom_site_fract_z
O1	O	1.528219	-0.135290	-0.099017
O2	O	1.199364	-0.149928	-0.099021
O3	O	1.356499	0.008335	-0.099012
O4	O	1.371084	-0.293552	-0.099027
O5	O	1.342695	-0.005544	0.099038
O6	O	1.185560	-0.163807	0.099029
O7	O	1.514415	-0.149169	0.099033
Cu8	Cu	1.348727	-0.157755	0.117114
Cu9	Cu	1.365052	-0.141342	-0.117103
O10	O	1.357280	-0.307431	0.099023
C11	C	1.344670	0.040044	0.000012
C12	C	1.329977	0.155204	0.000010
C13	C	1.150078	-0.155945	0.000003
C14	C	1.023785	-0.153185	0.000002
C15	C	1.563701	-0.143151	0.000005
C16	C	1.689994	-0.145911	-0.000001
C17	C	1.792559	-0.148153	-0.000003
C18	C	1.921229	-0.150958	-0.000001
C19	C	1.369109	-0.339140	-0.000003
C20	C	1.383803	-0.454300	-0.000009
N21	N	1.337254	-0.169299	0.281850
C22	C	1.506624	0.395164	-0.000013
C23	C	1.492823	0.503368	-0.000015
C24	C	1.288576	0.479819	-0.000005
C25	C	1.302377	0.371615	-0.000003
C26	C	1.411404	0.329292	-0.000005
C27	C	1.425203	0.221085	0.000006
C28	C	1.220958	0.197539	0.000007
C29	C	1.207157	0.305743	0.000005
N30	N	1.376533	-0.129790	-0.281838
C31	C	1.459121	-0.046633	0.531146
C32	C	1.450459	-0.055364	0.655810
C33	C	1.311263	-0.195487	0.655842
C34	C	1.319924	-0.186756	0.531178
C35	C	1.393857	-0.112327	0.468835
C36	C	1.402524	-0.103602	0.344170
C37	C	1.263323	-0.243719	0.344204
C38	C	1.254661	-0.252450	0.468867
H39	H	1.513978	0.186627	0.000009
H40	H	1.519328	0.013962	0.480386
H41	H	1.570362	0.556999	-0.000025
O42	O	1.192918	-0.314573	0.276993
H43	H	1.250124	-0.361296	0.220179
H44	H	1.595397	0.360703	-0.000003
H45	H	1.503602	-0.001868	0.706540
H46	H	1.199812	0.514299	-0.000016
H47	H	1.251060	-0.256078	0.706618
H48	H	1.118391	0.340218	0.000002
H49	H	1.194463	-0.313046	0.519641
O50	O	1.482254	-0.023324	0.276920
H51	H	1.526169	0.020898	0.341198
H52	H	1.143422	0.143892	0.000023
