data_functionalizedCrystal
_audit_creation_method	'MofGen! by Chris Wilmer'
_symmetry_space_group_name_H-M	'P1'
_symmetry_Int_Tables_number	1
_symmetry_cell_setting	triclinic
loop_
_symmetry_equiv_pos_as_xyz
  x,y,z
_cell_length_a	21.295420
_cell_length_b	21.295417
_cell_length_c	21.295411
_cell_angle_alpha	89.978356
_cell_angle_beta	90.024592
_cell_angle_gamma	89.973711
loop_
_atom_site_label
_atom_site_type_symbol
_atom_site_fract_x
_atom_site_fract_y
_atom_site_fract_z
Zn1	Zn	0.962355	0.250752	0.355912
Zn2	Zn	0.962258	0.356004	0.250637
Zn3	Zn	0.857079	0.250744	0.250657
Zn4	Zn	0.857048	0.355979	0.355869
O5	O	0.909685	0.303370	0.303269
O6	O	1.050432	0.264727	0.341957
O7	O	0.948277	0.342048	0.162550
O8	O	0.871097	0.162656	0.264645
O9	O	1.050360	0.342055	0.264612
O10	O	0.948444	0.162661	0.341976
O11	O	0.871003	0.264714	0.162565
O12	O	0.768985	0.264691	0.264604
O13	O	0.871045	0.342014	0.443964
O14	O	0.768963	0.342006	0.341903
O15	O	0.948414	0.264703	0.443996
O16	O	0.948248	0.444090	0.264570
O17	O	0.870951	0.444072	0.341884
C18	C	0.746133	0.303346	0.303251
C19	C	0.676165	0.303351	0.303258
C20	C	0.176744	0.263200	0.343617
C21	C	0.242486	0.263195	0.343617
C22	C	0.275326	0.303389	0.303283
C23	C	0.242417	0.343602	0.262958
C24	C	0.176676	0.343610	0.262964
N25	N	0.378516	0.308125	0.248164
N26	N	0.440967	0.308113	0.248160
C27	C	0.473400	0.303368	0.303265
N28	N	0.441023	0.298623	0.358375
N29	N	0.378566	0.298631	0.358377
C30	C	0.346611	0.303385	0.303273
C31	C	0.577587	0.263156	0.343591
C32	C	0.643330	0.263156	0.343592
C33	C	0.643260	0.343559	0.262927
C34	C	0.577517	0.343562	0.262932
C35	C	0.544685	0.303358	0.303263
C36	C	0.909602	0.466921	0.303234
C37	C	0.909625	0.536890	0.303240
C38	C	0.909737	0.303357	0.467459
C39	C	0.909759	0.303351	0.537427
C40	C	1.073875	0.303394	0.303287
C41	C	1.143843	0.303405	0.303295
C42	C	0.909785	0.139180	0.303318
C43	C	0.909827	0.069211	0.303338
C44	C	0.949909	0.569745	0.263024
C45	C	0.949939	0.635487	0.263038
C46	C	0.909672	0.668372	0.303262
C47	C	0.869385	0.635509	0.343485
C48	C	0.869361	0.569768	0.343474
N49	N	0.854605	0.771635	0.308055
N50	N	0.854630	0.834086	0.308061
C51	C	0.909743	0.866447	0.303298
N52	N	0.964832	0.833997	0.298515
N53	N	0.964807	0.771540	0.298505
C54	C	0.909694	0.739657	0.303278
C55	C	0.950063	0.970587	0.263095
C56	C	0.950093	1.036331	0.263114
C57	C	0.869534	1.036352	0.343557
C58	C	0.869509	0.970609	0.343542
C59	C	0.909773	0.937731	0.303308
C60	C	0.909669	0.303338	0.139717
C61	C	0.909769	0.303166	0.069749
C62	C	0.950044	0.263094	0.570311
C63	C	0.950043	0.263066	0.636054
C64	C	0.909764	0.303308	0.668910
C65	C	0.869472	0.343568	0.636018
C66	C	0.869470	0.343589	0.570276
N67	N	0.904908	0.358375	0.772125
N68	N	0.904914	0.358353	0.834577
C69	C	0.909768	0.303244	0.866985
N70	N	0.914629	0.248157	0.834582
N71	N	0.914626	0.248180	0.772125
C72	C	0.909762	0.303288	0.740195
C73	C	0.950054	0.262953	0.971154
C74	C	0.950048	0.262925	1.036898
C75	C	0.869481	0.343432	1.036861
C76	C	0.869483	0.343455	0.971118
C77	C	0.909773	0.303216	0.938269
H78	H	0.550853	0.230419	0.376430
H79	H	0.836675	0.376330	0.662773
H80	H	0.550729	0.376299	0.230094
H81	H	0.836752	1.063126	0.376311
Cl82	Cl	1.000535	0.528415	0.212453
H83	H	0.982902	1.063080	0.230367
H84	H	0.836703	0.943857	0.376287
Cl85	Cl	1.000690	0.212505	0.529019
Cl86	Cl	0.684692	0.212613	0.394293
Cl87	Cl	0.818840	0.394070	0.929776
Cl88	Cl	0.818823	0.394203	0.528934
Cl89	Cl	1.000699	0.212366	0.929855
H90	H	0.669997	0.376290	0.230092
Cl91	Cl	1.000677	0.212441	0.677403
H92	H	0.150016	0.230465	0.376460
H93	H	0.836601	0.662288	0.376237
H94	H	0.982745	0.662243	0.230290
H95	H	0.982852	0.230139	1.063671
H96	H	0.836679	0.376191	1.063611
H97	H	0.269279	0.230453	0.376452
H98	H	0.836556	0.543017	0.376224
H99	H	0.982850	0.943817	0.230336
H100	H	0.269159	0.376329	0.230120
H101	H	0.149888	0.376351	0.230128
