data_functionalizedCrystal
_audit_creation_method	'MofGen! by Chris Wilmer'
_symmetry_space_group_name_H-M	'P1'
_symmetry_Int_Tables_number	1
_symmetry_cell_setting	triclinic
loop_
_symmetry_equiv_pos_as_xyz
  x,y,z
_cell_length_a	11.792241
_cell_length_b	19.188924
_cell_length_c	10.268362
_cell_angle_alpha	89.992651
_cell_angle_beta	89.999626
_cell_angle_gamma	83.667690
loop_
_atom_site_label
_atom_site_type_symbol
_atom_site_fract_x
_atom_site_fract_y
_atom_site_fract_z
O1	O	1.505473	0.095696	-0.108180
O2	O	2.005473	0.595696	0.391820
O3	O	1.174984	0.105558	-0.108211
O4	O	1.674984	0.605558	0.391789
O5	O	1.349769	-0.000975	-0.108180
O6	O	1.849769	0.499025	0.391820
O7	O	1.330687	0.202229	-0.108212
O8	O	1.830687	0.702229	0.391788
O9	O	1.349754	-0.000980	0.108421
O10	O	1.849754	0.499020	0.608421
O11	O	1.174968	0.105553	0.108389
O12	O	1.674968	0.605553	0.608389
O13	O	1.505457	0.095691	0.108420
O14	O	2.005457	0.595691	0.608420
Cu15	Cu	1.340212	0.100622	0.128182
Cu16	Cu	1.840212	0.600622	0.628182
Cu17	Cu	1.340229	0.100627	-0.127973
Cu18	Cu	1.840229	0.600627	0.372027
O19	O	1.330672	0.202224	0.108389
O20	O	1.830672	0.702224	0.608389
C21	C	1.132694	0.104936	0.000085
C22	C	1.632694	0.604936	0.500085
C23	C	1.006708	0.103082	0.000074
C24	C	1.506708	0.603082	0.500074
C25	C	0.776047	0.099672	0.000112
C26	C	1.276047	0.599672	0.500112
C27	C	0.904404	0.101567	0.000091
C28	C	1.404404	0.601567	0.500091
C29	C	1.349145	-0.026992	0.000122
C30	C	1.849145	0.473008	0.500122
C31	C	1.347294	-0.104507	0.000125
C32	C	1.847294	0.395493	0.500125
C33	C	1.346438	-0.140909	-0.117944
C34	C	1.846438	0.359091	0.382056
C35	C	1.344683	-0.213741	-0.117954
C36	C	1.844683	0.286259	0.382046
C37	C	1.343806	-0.250172	0.000112
C38	C	1.843806	0.249828	0.500112
C39	C	1.344655	-0.213761	0.118197
C40	C	1.844655	0.286239	0.618197
C41	C	1.346399	-0.140929	0.118203
C42	C	1.846399	0.359071	0.618203
N43	N	1.405648	-0.369486	0.087991
N44	N	1.905648	0.130514	0.587991
N45	N	1.403993	-0.438674	0.087977
N46	N	1.903993	0.061326	0.587977
C47	C	1.338549	-0.469610	0.000099
C48	C	1.838549	0.030390	0.500099
N49	N	1.274836	-0.428747	-0.087784
N50	N	1.774836	0.071253	0.412216
N51	N	1.276495	-0.359553	-0.087774
N52	N	1.776495	0.140447	0.412226
C53	C	1.341914	-0.329146	0.000118
C54	C	1.841914	0.170854	0.500118
C55	C	1.335788	-0.584985	-0.117990
C56	C	1.835788	-0.084985	0.382010
C57	C	1.334026	-0.657819	-0.117995
C58	C	1.834026	-0.157819	0.382005
C59	C	1.334010	-0.657838	0.118160
C60	C	1.834010	-0.157838	0.618160
C61	C	1.335761	-0.585005	0.118161
C62	C	1.835761	-0.085005	0.618161
C63	C	1.336655	-0.548583	0.000083
C64	C	1.836655	-0.048583	0.500083
C65	C	1.547747	0.096313	0.000121
C66	C	2.047747	0.596313	0.500121
C67	C	1.673733	0.098167	0.000124
C68	C	2.173733	0.598167	0.500124
C69	C	1.331296	0.228241	0.000084
C70	C	1.831296	0.728241	0.500084
C71	C	1.333147	0.305756	0.000072
C72	C	1.833147	0.805756	0.500072
N73	N	1.340207	0.100618	0.308348
N74	N	1.840207	0.600618	0.808348
N75	N	1.340243	0.100626	-0.308139
N76	N	1.840243	0.600626	0.191861
C77	C	1.340224	0.100626	0.574019
C78	C	1.840224	0.600626	1.074019
C79	C	1.340211	0.100623	0.426181
C80	C	1.840211	0.600623	0.926181
H81	H	1.343979	-0.243385	-0.214104
H82	H	1.843979	0.256615	0.285896
H83	H	1.347091	-0.111291	0.214353
H84	H	1.847091	0.388709	0.714353
C85	C	1.336721	-0.544963	0.248039
C86	C	1.836721	-0.044963	0.748039
H87	H	1.335958	-0.577089	0.318356
H88	H	1.835958	-0.077089	0.818356
H89	H	1.271235	-0.511474	0.252949
H90	H	1.771235	-0.011474	0.752949
H91	H	1.403582	-0.521630	0.252951
H92	H	1.903582	-0.021630	0.752951
H93	H	1.347163	-0.111259	-0.214093
H94	H	1.847163	0.388741	0.285907
H95	H	1.336510	-0.555329	-0.214136
H96	H	1.836510	-0.055329	0.285864
C97	C	1.343694	-0.253831	0.248066
C98	C	1.843694	0.246169	0.748066
H99	H	1.342544	-0.302422	0.231152
H100	H	1.842544	0.197578	0.731152
H101	H	1.277806	-0.236826	0.296575
H102	H	1.777806	0.263174	0.796575
H103	H	1.410153	-0.246973	0.296586
H104	H	1.910153	0.253027	0.796586
H105	H	1.333323	-0.687455	-0.214145
H106	H	1.833323	-0.187455	0.285855
H107	H	1.333287	-0.687498	0.214291
H108	H	1.833287	-0.187498	0.714291
