data_functionalizedCrystal
_audit_creation_method	'MofGen! by Chris Wilmer'
_symmetry_space_group_name_H-M	'P1'
_symmetry_Int_Tables_number	1
_symmetry_cell_setting	triclinic
loop_
_symmetry_equiv_pos_as_xyz
  x,y,z
_cell_length_a	14.044220
_cell_length_b	14.044190
_cell_length_c	15.455313
_cell_angle_alpha	92.904485
_cell_angle_beta	87.080121
_cell_angle_gamma	93.190328
loop_
_atom_site_label
_atom_site_type_symbol
_atom_site_fract_x
_atom_site_fract_y
_atom_site_fract_z
O1	O	1.281001	0.226350	-0.072056
O2	O	1.614335	0.559684	0.261278
O3	O	1.947668	0.893017	0.594611
O4	O	1.004331	0.218043	-0.072077
O5	O	1.337664	0.551377	0.261256
O6	O	1.670997	0.884710	0.594590
O7	O	1.138509	0.083861	-0.072049
O8	O	1.471842	0.417195	0.261284
O9	O	1.805175	0.750528	0.594617
O10	O	1.146823	0.360532	-0.072083
O11	O	1.480157	0.693865	0.261250
O12	O	1.813490	1.027199	0.594584
O13	O	1.130833	0.091500	0.072211
O14	O	1.464166	0.424833	0.405544
O15	O	1.797500	0.758167	0.738878
O16	O	0.996655	0.225682	0.072184
O17	O	1.329988	0.559015	0.405517
O18	O	1.663322	0.892349	0.738850
O19	O	1.273325	0.233989	0.072205
O20	O	1.606659	0.567322	0.405538
O21	O	1.939992	0.900655	0.738872
Cu22	Cu	1.134289	0.230533	0.085366
Cu23	Cu	1.467623	0.563866	0.418700
Cu24	Cu	1.800956	0.897200	0.752033
Cu25	Cu	1.143367	0.221499	-0.085238
Cu26	Cu	1.476700	0.554833	0.248095
Cu27	Cu	1.810033	0.888166	0.581428
O28	O	1.139147	0.368171	0.072178
O29	O	1.472481	0.701504	0.405511
O30	O	1.805814	1.034837	0.738844
C31	C	0.964871	0.218227	0.000051
C32	C	1.298204	0.551560	0.333384
C33	C	1.631538	0.884894	0.666718
C34	C	0.858728	0.207382	0.000043
C35	C	1.192062	0.540715	0.333377
C36	C	1.525395	0.874048	0.666710
C37	C	1.131034	0.052059	0.000083
C38	C	1.464367	0.385392	0.333416
C39	C	1.797701	0.718726	0.666750
C40	C	1.120186	-0.054084	0.000090
C41	C	1.453520	0.279249	0.333423
C42	C	1.786853	0.612583	0.666756
C43	C	0.664389	0.187557	0.000063
C44	C	0.997722	0.520890	0.333396
C45	C	1.331056	0.854223	0.666730
C46	C	0.613261	0.264471	0.000057
C47	C	0.946595	0.597804	0.333391
C48	C	1.279928	0.931138	0.666724
C49	C	0.505124	0.253440	0.000068
C50	C	0.838458	0.586773	0.333402
C51	C	1.171791	0.920107	0.666735
C52	C	0.772536	0.198586	0.000052
C53	C	1.105869	0.531919	0.333385
C54	C	1.439203	0.865253	0.666719
C55	C	1.177288	-0.299544	0.000060
C56	C	1.510622	0.033789	0.333394
C57	C	1.843955	0.367123	0.666727
C58	C	1.100372	-0.248418	0.000060
C59	C	1.433706	0.084915	0.333394
C60	C	1.767039	0.418248	0.666727
C61	C	1.111400	-0.140281	0.000077
C62	C	1.444733	0.193053	0.333410
C63	C	1.778066	0.526386	0.666743
C64	C	1.166263	-0.407692	0.000044
C65	C	1.499596	-0.074358	0.333377
C66	C	1.832929	0.258975	0.666710
C67	C	1.312785	0.233805	0.000075
C68	C	1.646119	0.567139	0.333409
C69	C	1.979452	0.900472	0.666742
C70	C	1.418928	0.244650	0.000077
C71	C	1.752261	0.577983	0.333410
C72	C	2.085595	0.911317	0.666744
C73	C	1.146622	0.399973	0.000043
C74	C	1.479955	0.733306	0.333376
C75	C	1.813289	1.066640	0.666710
C76	C	1.157470	0.506116	0.000031
C77	C	1.490803	0.839449	0.333364
C78	C	1.824137	1.172782	0.666697
N79	N	1.127912	0.236887	0.205361
N80	N	1.461245	0.570220	0.538694
N81	N	1.794578	0.903553	0.872027
N82	N	1.149751	0.215139	-0.205233
N83	N	1.483085	0.548472	0.128101
N84	N	1.816418	0.881805	0.461434
C85	C	1.184939	0.179906	0.250766
C86	C	1.518272	0.513239	0.584100
C87	C	1.851605	0.846573	0.917433
C88	C	1.180125	0.184721	0.341573
C89	C	1.513458	0.518054	0.674907
C90	C	1.846792	0.851387	1.008240
C91	C	1.118288	0.246521	0.386973
C92	C	1.451622	0.579855	0.720306
C93	C	1.784955	0.913188	1.053639
C94	C	1.061255	0.303504	0.341561
C95	C	1.394588	0.636837	0.674894
C96	C	1.727922	0.970171	1.008227
C97	C	1.066064	0.298684	0.250755
C98	C	1.399398	0.632017	0.584089
C99	C	1.732731	0.965350	0.917422
C100	C	1.097527	0.267301	0.658550
C101	C	1.430861	0.600635	0.991883
C102	C	1.764194	0.933968	1.325217
C103	C	1.092724	0.272119	0.749362
C104	C	1.426058	0.605452	1.082695
C105	C	1.759391	0.938786	1.416028
C106	C	1.211594	0.153334	0.749368
C107	C	1.544927	0.486667	1.082701
C108	C	1.878260	0.820001	1.416035
C109	C	1.216402	0.148523	0.658561
C110	C	1.549735	0.481857	0.991894
C111	C	1.883068	0.815190	1.325228
C112	C	1.159365	0.205502	0.613157
C113	C	1.492698	0.538836	0.946490
C114	C	1.826031	0.872169	1.279824
N115	N	1.113369	0.251446	0.479792
N116	N	1.446702	0.584780	0.813125
N117	N	1.780035	0.918113	1.146459
N118	N	1.164280	0.200572	0.520339
N119	N	1.497613	0.533905	0.853673
N120	N	1.830947	0.867239	1.187006
H121	H	0.650703	0.338604	0.000044
H122	H	0.984037	0.671937	0.333378
H123	H	1.317370	1.005271	0.666711
H124	H	1.251414	-0.262102	0.000075
H125	H	1.584748	0.071231	0.333408
H126	H	1.918081	0.404565	0.666742
Br127	Br	0.601987	0.064003	0.000082
Br128	Br	0.935320	0.397336	0.333416
Br129	Br	1.268654	0.730669	0.666749
H130	H	1.026240	-0.285862	0.000050
H131	H	1.359574	0.047471	0.333383
H132	H	1.692907	0.380804	0.666716
Br133	Br	1.268872	0.096037	0.189162
Br134	Br	1.602205	0.429370	0.522496
Br135	Br	1.935538	0.762703	0.855829
H136	H	1.226560	0.138322	0.378542
H137	H	1.559894	0.471655	0.711876
H138	H	1.893227	0.804989	1.045209
H139	H	1.010901	0.353820	0.378530
H140	H	1.344235	0.687153	0.711864
H141	H	1.677568	1.020487	1.045197
H142	H	1.051087	0.313698	0.621589
H143	H	1.384421	0.647031	0.954922
H144	H	1.717754	0.980364	1.288256
H145	H	1.266754	0.098201	0.621599
H146	H	1.600087	0.431534	0.954932
H147	H	1.933420	0.764867	1.288265
H148	H	1.258029	0.106943	0.786344
H149	H	1.591363	0.440277	1.119678
H150	H	1.924696	0.773610	1.453011
H151	H	1.042367	0.322448	0.786322
H152	H	1.375700	0.655782	1.119655
H153	H	1.709034	0.989115	1.452988
Br154	Br	0.988660	0.376011	0.189133
Br155	Br	1.321993	0.709345	0.522467
Br156	Br	1.655327	1.042678	0.855800
