data_functionalizedCrystal
_audit_creation_method	'MofGen! by Chris Wilmer'
_symmetry_space_group_name_H-M	'P1'
_symmetry_Int_Tables_number	1
_symmetry_cell_setting	triclinic
loop_
_symmetry_equiv_pos_as_xyz
  x,y,z
_cell_length_a	9.065218
_cell_length_b	10.654550
_cell_length_c	9.730223
_cell_angle_alpha	90.004253
_cell_angle_beta	89.996641
_cell_angle_gamma	95.249592
loop_
_atom_site_label
_atom_site_type_symbol
_atom_site_fract_x
_atom_site_fract_y
_atom_site_fract_z
O1	O	1.959392	-0.184159	-0.114293
O2	O	2.459392	0.315841	0.385707
O3	O	1.530025	-0.199265	-0.114295
O4	O	2.030025	0.300735	0.385705
O5	O	1.754581	-0.009012	-0.114285
O6	O	2.254581	0.490988	0.385715
O7	O	1.734837	-0.374412	-0.114303
O8	O	2.234837	0.125588	0.385697
O9	O	1.754566	-0.009006	0.114294
O10	O	2.254566	0.490994	0.614294
O11	O	1.530010	-0.199259	0.114285
O12	O	2.030010	0.300741	0.614285
O13	O	1.959378	-0.184154	0.114287
O14	O	2.459378	0.315846	0.614287
Zn15	Zn	1.744692	-0.191706	0.150578
Zn16	Zn	2.244692	0.308294	0.650578
Zn17	Zn	1.744711	-0.191713	-0.150586
Zn18	Zn	2.244711	0.308287	0.349414
O19	O	1.734822	-0.374407	0.114277
O20	O	2.234822	0.125593	0.614277
C21	C	1.475039	-0.197810	-0.000005
C22	C	1.975039	0.302190	0.499995
C23	C	1.311220	-0.193469	-0.000006
C24	C	1.811220	0.306531	0.499994
N25	N	1.744689	-0.191700	0.356114
N26	N	2.244689	0.308300	0.856114
C27	C	1.753124	0.037795	0.000004
C28	C	2.253124	0.537795	0.500004
C29	C	1.748786	0.177255	0.000002
C30	C	2.248786	0.677255	0.500002
C31	C	2.014364	-0.185608	-0.000006
C32	C	2.514364	0.314392	0.499994
C33	C	2.178183	-0.189949	-0.000015
C34	C	2.678183	0.310051	0.499985
C35	C	1.736279	-0.421213	-0.000015
C36	C	2.236279	0.078787	0.499985
C37	C	1.740616	-0.560673	-0.000022
C38	C	2.240616	-0.060673	0.499978
C39	C	1.881001	0.256217	0.000002
C40	C	2.381001	0.756217	0.500002
C41	C	1.876917	0.387254	-0.000015
C42	C	2.376917	0.887254	0.499985
C43	C	1.608391	0.360354	-0.000026
C44	C	2.108391	0.860354	0.499974
C45	C	1.612477	0.229320	-0.000019
C46	C	2.112477	0.729320	0.499981
N47	N	1.744725	-0.191708	-0.356123
N48	N	2.244725	0.308292	0.143877
C49	C	1.844157	-0.107492	0.428044
C50	C	2.344157	0.392508	0.928044
C51	C	1.844172	-0.107493	0.571927
C52	C	2.344172	0.392507	1.071927
C53	C	1.645247	-0.275920	0.571937
C54	C	2.145247	0.224080	1.071937
C55	C	1.645226	-0.275912	0.428057
C56	C	2.145226	0.224088	0.928057
H57	H	1.991993	0.213831	0.000016
H58	H	2.491993	0.713831	0.500016
Cl59	Cl	1.520165	-0.381776	0.337621
Cl60	Cl	2.020165	0.118224	0.837621
Cl61	Cl	1.969191	-0.001620	0.337608
Cl62	Cl	2.469191	0.498380	0.837608
H63	H	1.504805	0.165025	-0.000023
H64	H	2.004805	0.665025	0.499977
H65	H	1.925165	-0.038922	0.630489
H66	H	2.425165	0.461078	1.130489
H67	H	1.497413	0.402762	-0.000041
H68	H	1.997413	0.902762	0.499959
Cl69	Cl	1.520218	-0.381787	0.662386
Cl70	Cl	2.020218	0.118213	1.162386
Cl71	Cl	2.043138	0.486516	-0.000018
Cl72	Cl	2.543138	0.986516	0.499982
