data_functionalizedCrystal
_audit_creation_method	'MofGen! by Chris Wilmer'
_symmetry_space_group_name_H-M	'P1'
_symmetry_Int_Tables_number	1
_symmetry_cell_setting	triclinic
loop_
_symmetry_equiv_pos_as_xyz
  x,y,z
_cell_length_a	15.995350
_cell_length_b	15.995350
_cell_length_c	15.072220
_cell_angle_alpha	90.001101
_cell_angle_beta	89.991149
_cell_angle_gamma	83.492375
loop_
_atom_site_label
_atom_site_type_symbol
_atom_site_fract_x
_atom_site_fract_y
_atom_site_fract_z
O1	O	1.110996	0.107921	-0.073703
O2	O	0.867221	0.121249	-0.073721
O3	O	0.995772	-0.007303	-0.073710
O4	O	0.982444	0.236472	-0.073713
O5	O	0.995740	-0.007296	0.073855
O6	O	0.867189	0.121256	0.073844
O7	O	1.110964	0.107928	0.073862
Zn8	Zn	0.989071	0.114593	0.097283
Zn9	Zn	0.989113	0.114584	-0.097141
O10	O	0.982413	0.236480	0.073852
C11	C	0.836010	0.120701	0.000060
C12	C	0.743060	0.119049	0.000053
C13	C	0.405312	0.113117	0.000071
C14	C	0.452746	0.021565	0.000401
C15	C	0.549436	0.023217	0.000063
C16	C	0.572873	0.116060	0.000063
C17	C	0.531804	0.161212	-0.084201
C18	C	0.435168	0.158912	-0.084266
C19	C	0.434793	0.160812	0.083543
C20	C	0.531738	0.160790	0.084651
C21	C	0.667570	0.117727	0.000055
C22	C	0.310614	0.111452	0.000073
C23	C	0.995205	-0.038494	0.000070
C24	C	0.993553	-0.131444	0.000065
C25	C	0.987621	-0.469192	0.000068
C26	C	0.896069	-0.421758	-0.000270
C27	C	0.897721	-0.325068	0.000063
C28	C	0.990564	-0.301631	0.000066
C29	C	1.035702	-0.342705	0.084335
C30	C	1.033402	-0.439341	0.084405
C31	C	1.035330	-0.439707	-0.083404
C32	C	1.035308	-0.342761	-0.084518
C33	C	0.992231	-0.206934	0.000068
C34	C	0.985956	-0.563890	0.000072
C35	C	1.142175	0.108476	0.000080
C36	C	1.235125	0.110127	0.000081
C37	C	0.982980	0.267671	0.000069
C38	C	0.984631	0.360621	0.000069
N39	N	0.989049	0.114599	0.229971
N40	N	0.989142	0.114571	-0.229830
C41	C	0.989112	0.114580	0.589173
C42	C	0.920095	0.183135	0.551560
C43	C	0.920254	0.183385	0.448735
C44	C	0.989080	0.114590	0.410969
C45	C	1.076445	0.133671	0.448266
C46	C	1.076058	0.134159	0.551124
C47	C	0.971542	0.026741	0.551272
C48	C	0.969537	0.027327	0.448409
C49	C	0.989067	0.114593	0.310255
C50	C	0.989130	0.114579	0.689886
H51	H	0.559041	0.127829	0.146989
O52	O	1.146134	0.070545	0.584088
H53	H	1.136072	0.007072	0.559422
O54	O	0.587074	-0.023796	0.080077
H55	H	0.632503	-0.077322	0.057869
H56	H	0.414244	0.130885	0.147414
H57	H	0.905271	0.012846	0.424032
H58	H	1.092297	0.197002	0.422498
H59	H	1.129029	0.085068	0.423801
H60	H	0.547102	0.228494	0.089741
O61	O	1.096565	0.219011	0.582903
H62	H	1.106660	0.259312	0.524806
H63	H	0.416873	0.125979	-0.147255
H64	H	0.403031	0.228312	0.084113
H65	H	1.000460	-0.457639	0.147395
H66	H	0.862238	-0.296649	-0.060344
H67	H	0.859490	-0.440293	-0.060701
O68	O	0.392454	0.247946	-0.089340
H69	H	0.352140	0.261389	-0.029940
H70	H	1.005411	-0.460250	-0.147274
H71	H	0.909219	0.008392	0.577258
H72	H	0.545929	0.229421	-0.087335
O73	O	0.847791	-0.447689	0.079330
H74	H	0.888719	-0.494214	0.119133
H75	H	0.861974	-0.297200	0.060568
O76	O	1.122430	-0.482067	0.089494
H77	H	1.166934	-0.433680	0.091901
H78	H	1.103014	-0.327400	-0.089603
O79	O	1.126050	-0.323990	0.088507
H80	H	1.139770	-0.285119	0.030426
H81	H	1.004325	-0.314320	0.147042
O82	O	0.991662	-0.306606	-0.167103
H83	H	0.938325	-0.259534	-0.147998
H84	H	1.021872	-0.024275	0.575595
H85	H	1.016540	-0.026078	0.422704
H86	H	1.102831	-0.471468	-0.083968
O87	O	0.834232	0.168344	0.415322
H88	H	0.792142	0.160828	0.472631
H89	H	0.854945	0.171953	0.576317
O90	O	0.934742	0.268999	0.585777
H91	H	0.997781	0.283795	0.564254
O92	O	0.428196	-0.026913	0.080444
H93	H	0.381919	0.013721	0.120846
O94	O	0.426807	-0.026705	-0.079190
H95	H	0.380281	0.014228	-0.118985
H96	H	0.931473	0.248570	0.424121
H97	H	0.560191	0.129845	-0.146912
H98	H	0.577307	-0.012521	-0.060446
