data_functionalizedCrystal
_audit_creation_method	'MofGen! by Chris Wilmer'
_symmetry_space_group_name_H-M	'P1'
_symmetry_Int_Tables_number	1
_symmetry_cell_setting	triclinic
loop_
_symmetry_equiv_pos_as_xyz
  x,y,z
_cell_length_a	21.395362
_cell_length_b	19.077068
_cell_length_c	19.076919
_cell_angle_alpha	94.470751
_cell_angle_beta	92.260951
_cell_angle_gamma	92.343691
loop_
_atom_site_label
_atom_site_type_symbol
_atom_site_fract_x
_atom_site_fract_y
_atom_site_fract_z
Zn1	Zn	0.932554	-0.296406	-0.410194
Zn2	Zn	1.432554	0.203594	0.089806
Zn3	Zn	0.932476	-0.409560	-0.297039
Zn4	Zn	1.432476	0.090440	0.202961
Zn5	Zn	0.832167	-0.291720	-0.292287
Zn6	Zn	1.332167	0.208280	0.207713
Zn7	Zn	0.823361	-0.414289	-0.414842
Zn8	Zn	1.323361	0.085711	0.085158
O9	O	0.880139	-0.352994	-0.353590
O10	O	1.380139	0.147006	0.146410
O11	O	1.020220	-0.311398	-0.395227
O12	O	1.520220	0.188602	0.104773
O13	O	0.922823	-0.389988	-0.197763
O14	O	1.422823	0.110012	0.302237
O15	O	0.849202	-0.193691	-0.303994
O16	O	1.349202	0.306309	0.196006
O17	O	1.020163	-0.394532	-0.312092
O18	O	1.520163	0.105468	0.187908
O19	O	0.922955	-0.197134	-0.390620
O20	O	1.422955	0.302866	0.109380
O21	O	0.849126	-0.303412	-0.194272
O22	O	1.349126	0.196588	0.305728
O23	O	0.743322	-0.307997	-0.308501
O24	O	1.243322	0.192003	0.191499
O25	O	0.834193	-0.402592	-0.512871
O26	O	1.334193	0.097408	-0.012871
O27	O	0.736852	-0.398048	-0.398541
O28	O	1.236852	0.101952	0.101459
O29	O	0.914416	-0.315984	-0.509456
O30	O	1.414416	0.184016	-0.009456
O31	O	0.914284	-0.508837	-0.316599
O32	O	1.414284	-0.008837	0.183401
O33	O	0.834118	-0.512312	-0.403149
O34	O	1.334118	-0.012312	0.096851
C35	C	0.717353	-0.353028	-0.353510
C36	C	1.217353	0.146972	0.146490
C37	C	0.647712	-0.353060	-0.353493
C38	C	1.147712	0.146940	0.146507
C39	C	0.611646	-0.400006	-0.400312
C40	C	1.111646	0.099994	0.099688
C41	C	0.546210	-0.399990	-0.400343
C42	C	1.046210	0.100010	0.099657
C43	C	0.516842	-0.353035	-0.353542
C44	C	1.016842	0.146965	0.146458
C45	C	0.552916	-0.306080	-0.306720
C46	C	1.052916	0.193920	0.193280
C47	C	0.618351	-0.306092	-0.306695
C48	C	1.118351	0.193908	0.193305
C49	C	0.415697	-0.344816	-0.289853
C50	C	0.915697	0.155184	0.210147
C51	C	0.350263	-0.344808	-0.289877
C52	C	0.850263	0.155192	0.210123
C53	C	0.315021	-0.352992	-0.353618
C54	C	0.815021	0.147008	0.146382
C55	C	0.345219	-0.361198	-0.417339
C56	C	0.845219	0.138802	0.082661
C57	C	0.410653	-0.361211	-0.417314
C58	C	0.910653	0.138789	0.082686
C59	C	0.445890	-0.353016	-0.353564
C60	C	0.945890	0.146984	0.146436
C61	C	0.208002	-0.399923	-0.400475
C62	C	0.708002	0.100077	0.099525
C63	C	0.142565	-0.399902	-0.400506
C64	C	0.642565	0.100098	0.099494
C65	C	0.149272	-0.305995	-0.306877
C66	C	0.649272	0.194005	0.193123
C67	C	0.214708	-0.306013	-0.306851
C68	C	0.714708	0.193987	0.193149
C69	C	0.244069	-0.352981	-0.353649
C70	C	0.744069	0.147019	0.146351
C71	C	0.873253	-0.536154	-0.360909
C72	C	1.373253	-0.036154	0.139091
C73	C	0.870364	-0.614512	-0.364064
C74	C	1.370364	-0.114512	0.135936
C75	C	0.910774	-0.649494	-0.320522
C76	C	1.410774	-0.149494	0.179478
C77	C	0.908060	-0.723119	-0.323493
C78	C	1.408060	-0.223119	0.176507
C79	C	0.864932	-0.761762	-0.370004
C80	C	1.364932	-0.261762	0.129996
C81	C	0.824519	-0.726775	-0.413551
C82	C	1.324519	-0.226775	0.086449
C83	C	0.827237	-0.653151	-0.410582
C84	C	1.327237	-0.153151	0.089418
C85	C	0.852328	-0.982151	-0.383712
C86	C	1.352328	-0.482151	0.116288
C87	C	0.849612	-1.055780	-0.386676
C88	C	1.349612	-0.555780	0.113324
C89	C	0.933153	-1.052120	-0.296619
C90	C	1.433153	-0.552120	0.203381
C91	C	0.935865	-0.978494	-0.293652
C92	C	1.435865	-0.478494	0.206348
C93	C	0.895455	-0.943514	-0.337201
C94	C	1.395455	-0.443514	0.162799
N95	N	0.862155	-0.837019	-0.373040
N96	N	1.362155	-0.337019	0.126960
N97	N	0.898235	-0.868258	-0.334168
N98	N	1.398235	-0.368258	0.165832
C99	C	1.043561	-0.352960	-0.353671
C100	C	1.543561	0.147040	0.146329
C101	C	1.113202	-0.352946	-0.353706
C102	C	1.613202	0.147054	0.146294
C103	C	0.873331	-0.360338	-0.537457
C104	C	1.373331	0.139662	-0.037457
C105	C	0.870429	-0.363468	-0.615809
C106	C	1.370429	0.136532	-0.115809
C107	C	0.887069	-0.169119	-0.346258
C108	C	1.387069	0.330881	0.153742
C109	C	0.890022	-0.090762	-0.343134
C110	C	1.390022	0.409238	0.156866
C111	C	0.910832	-0.319848	-0.650843
C112	C	1.410832	0.180152	-0.150843
C113	C	0.908098	-0.322786	-0.724464
C114	C	1.408098	0.177214	-0.224464
C115	C	0.864964	-0.369348	-0.763050
C116	C	1.364964	0.130652	-0.263050
C117	C	0.824557	-0.412969	-0.728011
C118	C	1.324557	0.087031	-0.228011
C119	C	0.827288	-0.410027	-0.654391
C120	C	1.327288	0.089973	-0.154391
C121	C	0.852314	-0.382978	-0.983419
C122	C	1.352314	0.117022	-0.483419
C123	C	0.849587	-0.385918	-1.057044
C124	C	1.349587	0.114082	-0.557044
C125	C	0.933128	-0.295734	-1.053491
C126	C	1.433128	0.204266	-0.553491
C127	C	0.935858	-0.292799	-0.979871
C128	C	1.435858	0.207201	-0.479871
C129	C	0.895449	-0.336418	-0.944838
C130	C	1.395449	0.163582	-0.444838
N131	N	0.862170	-0.372353	-0.838302
N132	N	1.362170	0.127647	-0.338302
N133	N	0.898240	-0.333408	-0.869587
N134	N	1.398240	0.166592	-0.369587
C135	C	0.886960	-0.345627	-0.170437
C136	C	1.386960	0.154373	0.329563
C137	C	0.889990	-0.342299	-0.092077
C138	C	1.389990	0.157701	0.407923
H139	H	0.325681	-0.338130	-0.237992
H140	H	0.825681	0.161870	0.262008
O141	O	0.239678	-0.450569	-0.450955
O142	O	0.739678	0.049431	0.049045
H143	H	0.203603	-0.483203	-0.483526
H144	H	0.703603	0.016797	0.016474
O145	O	0.808735	-0.430010	-0.945620
O146	O	1.308735	0.069990	-0.445620
H147	H	0.779300	-0.397102	-0.910814
H148	H	1.279300	0.102898	-0.410814
O149	O	0.453708	-0.335990	-0.221100
O150	O	0.953708	0.164010	0.278900
H151	H	0.421718	-0.330294	-0.176797
H152	H	0.921718	0.169706	0.323203
O153	O	0.803098	-1.097464	-0.436848
O154	O	1.303098	-0.597464	0.063152
H155	H	0.775459	-1.060772	-0.466638
H156	H	1.275459	-0.560772	0.033362
H157	H	0.819423	-0.953676	-0.419171
H158	H	1.319423	-0.453676	0.080829
O159	O	0.643312	-0.450654	-0.450796
O160	O	1.143312	0.049346	0.049204
H161	H	0.629088	-0.505475	-0.440835
H162	H	1.129088	-0.005475	0.059165
H163	H	0.941000	-0.287268	-0.752985
H164	H	1.441000	0.212732	-0.252985
H165	H	0.789435	-0.450878	-0.759433
H166	H	1.289435	0.049122	-0.259433
H167	H	0.789406	-0.758244	-0.451424
H168	H	1.289406	-0.258244	0.048576
H169	H	0.529001	-0.267847	-0.268616
H170	H	1.029001	0.232153	0.231384
O171	O	0.783704	-0.457071	-0.616608
O172	O	1.283704	0.042929	-0.116608
H173	H	0.811630	-0.491593	-0.584504
H174	H	1.311630	0.008407	-0.084504
H175	H	0.435238	-0.367891	-0.469198
H176	H	0.935238	0.132109	0.030802
O177	O	0.507299	-0.450653	-0.450816
O178	O	1.007299	0.049347	0.049184
H179	H	0.538709	-0.483325	-0.483341
H180	H	1.038709	0.016675	0.016659
O181	O	0.982384	-0.936826	-0.243481
O182	O	1.482384	-0.436826	0.256519
H183	H	0.956929	-0.901908	-0.206222
H184	H	1.456929	-0.401908	0.293778
H185	H	0.647715	-0.267861	-0.268569
H186	H	1.147715	0.232139	0.231431
O187	O	0.307219	-0.370020	-0.486097
O188	O	0.807219	0.129980	0.013903
H189	H	0.256645	-0.368623	-0.475413
H190	H	0.756645	0.131377	0.024587
H191	H	0.125361	-0.267760	-0.268774
H192	H	0.625361	0.232240	0.231226
O193	O	0.103661	-0.450629	-0.450916
O194	O	0.603661	0.049371	0.049084
H195	H	0.135073	-0.483325	-0.483414
H196	H	0.635073	0.016675	0.016586
O197	O	0.253613	-0.255395	-0.256336
O198	O	0.753613	0.244605	0.243664
H199	H	0.222201	-0.222748	-0.223788
H200	H	0.722201	0.277252	0.276212
H201	H	0.966054	-1.080609	-0.261164
H202	H	1.466054	-0.580609	0.238836
H203	H	0.945891	-0.618035	-0.282645
H204	H	1.445891	-0.118035	0.217355
O205	O	0.803054	-0.436137	-1.098659
O206	O	1.303054	0.063863	-0.598659
H207	H	0.771132	-0.405923	-1.130927
H208	H	1.271132	0.094077	-0.630927
O209	O	0.982381	-0.242576	-0.938258
O210	O	1.482381	0.257424	-0.438258
H211	H	0.977497	-0.247864	-0.881180
H212	H	1.477497	0.252136	-0.381180
H213	H	0.940966	-0.751598	-0.288036
H214	H	1.440966	-0.251598	0.211964
H215	H	0.794332	-0.624669	-0.446040
H216	H	1.294332	-0.124669	0.053960
H217	H	0.945958	-0.281935	-0.619432
H218	H	1.445958	0.218065	-0.119432
H219	H	0.966026	-0.260221	-1.082023
H220	H	1.466026	0.239779	-0.582023
