data_functionalizedCrystal
_audit_creation_method	'MofGen! by Chris Wilmer'
_symmetry_space_group_name_H-M	'P1'
_symmetry_Int_Tables_number	1
_symmetry_cell_setting	triclinic
loop_
_symmetry_equiv_pos_as_xyz
  x,y,z
_cell_length_a	23.532355
_cell_length_b	22.010155
_cell_length_c	15.944551
_cell_angle_alpha	89.990023
_cell_angle_beta	83.163118
_cell_angle_gamma	89.995928
loop_
_atom_site_label
_atom_site_type_symbol
_atom_site_fract_x
_atom_site_fract_y
_atom_site_fract_z
O1	O	0.755672	0.050444	0.101738
O2	O	1.005672	0.300444	0.351738
O3	O	1.255672	0.550444	0.601738
O4	O	1.505672	0.800444	0.851738
O5	O	0.589862	0.050463	0.116537
O6	O	0.839862	0.300463	0.366537
O7	O	1.089862	0.550463	0.616537
O8	O	1.339862	0.800463	0.866537
O9	O	0.677295	0.050448	-0.013177
O10	O	0.927295	0.300448	0.236823
O11	O	1.177295	0.550448	0.486823
O12	O	1.427295	0.800448	0.736823
O13	O	0.668239	0.050460	0.231452
O14	O	0.918239	0.300460	0.481452
O15	O	1.168239	0.550460	0.731452
O16	O	1.418239	0.800460	0.981452
O17	O	0.677289	-0.050603	-0.013143
O18	O	0.927289	0.199397	0.236857
O19	O	1.177289	0.449397	0.486857
O20	O	1.427289	0.699397	0.736857
O21	O	0.589856	-0.050587	0.116571
O22	O	0.839856	0.199413	0.366571
O23	O	1.089856	0.449413	0.616571
O24	O	1.339856	0.699413	0.866571
O25	O	0.755666	-0.050606	0.101772
O26	O	1.005666	0.199394	0.351772
O27	O	1.255666	0.449394	0.601772
O28	O	1.505666	0.699394	0.851772
Cu29	Cu	0.672760	-0.059823	0.109174
Cu30	Cu	0.922760	0.190177	0.359174
Cu31	Cu	1.172760	0.440177	0.609174
Cu32	Cu	1.422760	0.690177	0.859174
Cu33	Cu	0.672768	0.059680	0.109134
Cu34	Cu	0.922768	0.309680	0.359134
Cu35	Cu	1.172768	0.559680	0.609134
Cu36	Cu	1.422768	0.809680	0.859134
O37	O	0.668233	-0.050591	0.231486
O38	O	0.918233	0.199409	0.481486
O39	O	1.168233	0.449409	0.731486
O40	O	1.418233	0.699409	0.981486
C41	C	0.568641	-0.000059	0.116184
C42	C	0.818641	0.249941	0.366184
C43	C	1.068641	0.499941	0.616184
C44	C	1.318641	0.749941	0.866184
C45	C	0.505418	-0.000052	0.115072
C46	C	0.755418	0.249948	0.365072
C47	C	1.005418	0.499948	0.615072
C48	C	1.255418	0.749948	0.865072
C49	C	0.113374	-0.055160	0.108102
C50	C	0.363374	0.194840	0.358102
C51	C	0.613374	0.444840	0.608102
C52	C	0.863374	0.694840	0.858102
C53	C	0.053970	-0.055163	0.107044
C54	C	0.303970	0.194837	0.357044
C55	C	0.553970	0.444837	0.607044
C56	C	0.803970	0.694837	0.857044
O57	O	0.023247	-0.102008	0.106484
O58	O	0.273247	0.147992	0.356484
O59	O	0.523247	0.397992	0.606484
O60	O	0.773247	0.647992	0.856484
N61	N	0.024263	-0.000081	0.106501
N62	N	0.274263	0.249919	0.356501
N63	N	0.524263	0.499919	0.606501
N64	N	0.774263	0.749919	0.856501
C65	C	0.053963	0.055008	0.107007
C66	C	0.303963	0.305008	0.357007
C67	C	0.553963	0.555008	0.607007
C68	C	0.803963	0.805008	0.857007
O69	O	0.023240	0.101859	0.106447
O70	O	0.273240	0.351859	0.356447
O71	O	0.523240	0.601859	0.606447
O72	O	0.773240	0.851859	0.856447
C73	C	0.113366	0.055010	0.108059
C74	C	0.363366	0.305010	0.358059
C75	C	0.613366	0.555010	0.608059
C76	C	0.863366	0.805010	0.858059
C77	C	0.143069	-0.000076	0.108611
C78	C	0.393069	0.249924	0.358611
C79	C	0.643069	0.499924	0.608611
C80	C	0.893069	0.749924	0.858611
C81	C	0.143077	-0.110242	0.108653
C82	C	0.393077	0.139758	0.358653
C83	C	0.643077	0.389758	0.608653
C84	C	0.893077	0.639758	0.858653
C85	C	0.202476	-0.110239	0.109713
C86	C	0.452476	0.139761	0.359713
C87	C	0.702476	0.389761	0.609713
C88	C	0.952476	0.639761	0.859713
C89	C	0.232172	-0.055155	0.110222
C90	C	0.482172	0.194845	0.360222
C91	C	0.732172	0.444845	0.610222
C92	C	0.982172	0.694845	0.860222
C93	C	0.202469	-0.000074	0.109671
C94	C	0.452469	0.249926	0.359671
C95	C	0.702469	0.499926	0.609671
C96	C	0.952469	0.749926	0.859671
C97	C	0.143066	0.110097	0.108560
C98	C	0.393066	0.360097	0.358560
C99	C	0.643066	0.610097	0.608560
C100	C	0.893066	0.860097	0.858560
C101	C	0.202473	0.110094	0.109611
C102	C	0.452473	0.360094	0.359611
C103	C	0.702473	0.610094	0.609611
C104	C	0.952473	0.860094	0.859611
C105	C	0.232176	0.055008	0.110163
C106	C	0.482176	0.305008	0.360163
C107	C	0.732176	0.555008	0.610163
C108	C	0.982176	0.805008	0.860163
C109	C	0.291564	0.055013	0.111239
C110	C	0.541564	0.305013	0.361239
C111	C	0.791564	0.555013	0.611239
C112	C	1.041564	0.805013	0.861239
N113	N	0.321271	-0.000069	0.111782
N114	N	0.571271	0.249931	0.361782
N115	N	0.821271	0.499931	0.611782
N116	N	1.071271	0.749931	0.861782
C117	C	0.291575	-0.055153	0.111274
C118	C	0.541575	0.194847	0.361274
C119	C	0.791575	0.444847	0.611274
C120	C	1.041575	0.694847	0.861274
C121	C	-0.070787	0.055000	0.104796
C122	C	0.179213	0.305000	0.354796
C123	C	0.429213	0.555000	0.604796
C124	C	0.679213	0.805000	0.854796
C125	C	-0.130189	0.054999	0.103750
C126	C	0.119811	0.304999	0.353750
C127	C	0.369811	0.554999	0.603750
C128	C	0.619811	0.804999	0.853750
C129	C	-0.130178	-0.055172	0.103786
C130	C	0.119822	0.194828	0.353786
C131	C	0.369822	0.444828	0.603786
C132	C	0.619822	0.694828	0.853786
C133	C	-0.070775	-0.055170	0.104838
C134	C	0.179225	0.194830	0.354838
C135	C	0.429225	0.444830	0.604838
C136	C	0.679225	0.694830	0.854838
C137	C	-0.041080	-0.000082	0.105340
C138	C	0.208920	0.249918	0.355340
C139	C	0.458920	0.499918	0.605340
C140	C	0.708920	0.749918	0.855340
C141	C	0.416318	-0.055144	0.113500
C142	C	0.666318	0.194856	0.363500
C143	C	0.916318	0.444856	0.613500
C144	C	1.166318	0.694856	0.863500
C145	C	0.475722	-0.055136	0.114563
C146	C	0.725722	0.194864	0.364563
C147	C	0.975722	0.444864	0.614563
C148	C	1.225722	0.694864	0.864563
C149	C	0.475706	0.055034	0.114523
C150	C	0.725706	0.305034	0.364523
C151	C	0.975706	0.555034	0.614523
C152	C	1.225706	0.805034	0.864523
C153	C	0.416307	0.055027	0.113464
C154	C	0.666307	0.305027	0.363464
C155	C	0.916307	0.555027	0.613464
C156	C	1.166307	0.805027	0.863464
C157	C	0.386614	-0.000067	0.112950
C158	C	0.636614	0.249933	0.362950
C159	C	0.886614	0.499933	0.612950
C160	C	1.136614	0.749933	0.862950
O161	O	0.322325	0.101834	0.111796
O162	O	0.572325	0.351834	0.361796
O163	O	0.822325	0.601834	0.611796
O164	O	1.072325	0.851834	0.861796
O165	O	0.322306	-0.101997	0.111823
O166	O	0.572306	0.148003	0.361823
O167	O	0.822306	0.398003	0.611823
O168	O	1.072306	0.648003	0.861823
N169	N	0.672759	-0.143876	0.109202
N170	N	0.922759	0.106124	0.359202
N171	N	1.172759	0.356124	0.609202
N172	N	1.422759	0.606124	0.859202
C173	C	0.634031	-0.436481	0.166573
C174	C	0.884031	-0.186481	0.416573
C175	C	1.134031	0.063519	0.666573
C176	C	1.384031	0.313519	0.916573
C177	C	0.634029	-0.372873	0.166580
C178	C	0.884029	-0.122873	0.416580
C179	C	1.134029	0.127127	0.666580
C180	C	1.384029	0.377127	0.916580
O181	O	0.601084	-0.339976	0.215393
O182	O	0.851084	-0.089976	0.465393
O183	O	1.101084	0.160024	0.715393
O184	O	1.351084	0.410024	0.965393
N185	N	0.672755	-0.341060	0.109170
N186	N	0.922755	-0.091060	0.359170
N187	N	1.172755	0.158940	0.609170
N188	N	1.422755	0.408940	0.859170
C189	C	0.711481	-0.372858	0.051743
C190	C	0.961481	-0.122858	0.301743
C191	C	1.211481	0.127142	0.551743
C192	C	1.461481	0.377142	0.801743
O193	O	0.744419	-0.339958	0.002912
O194	O	0.994419	-0.089958	0.252912
O195	O	1.244419	0.160042	0.502912
O196	O	1.494419	0.410042	0.752912
C197	C	0.711479	-0.436464	0.051732
C198	C	0.961479	-0.186464	0.301732
C199	C	1.211479	0.063536	0.551732
C200	C	1.461479	0.313536	0.801732
C201	C	0.672755	-0.468274	0.109152
C202	C	0.922755	-0.218274	0.359152
C203	C	1.172755	0.031726	0.609152
C204	C	1.422755	0.281726	0.859152
C205	C	0.595309	-0.468291	0.223987
C206	C	0.845309	-0.218291	0.473987
C207	C	1.095309	0.031709	0.723987
C208	C	1.345309	0.281709	0.973987
C209	C	0.595311	-0.531894	0.223980
C210	C	0.845311	-0.281894	0.473980
C211	C	1.095311	-0.031894	0.723980
C212	C	1.345311	0.218106	0.973980
C213	C	0.634035	-0.563687	0.166559
C214	C	0.884035	-0.313687	0.416559
C215	C	1.134035	-0.063687	0.666559
C216	C	1.384035	0.186313	0.916559
C217	C	0.672757	-0.531877	0.109145
C218	C	0.922757	-0.281877	0.359145
C219	C	1.172757	-0.031877	0.609145
C220	C	1.422757	0.218123	0.859145
C221	C	0.750202	-0.468261	-0.005698
C222	C	1.000202	-0.218261	0.244302
C223	C	1.250202	0.031739	0.494302
C224	C	1.500202	0.281739	0.744302
C225	C	0.750196	-0.531872	-0.005704
C226	C	1.000196	-0.281872	0.244296
C227	C	1.250196	-0.031872	0.494296
C228	C	1.500196	0.218128	0.744296
C229	C	0.711472	-0.563681	0.051715
C230	C	0.961472	-0.313681	0.301715
C231	C	1.211472	-0.063681	0.551715
C232	C	1.461472	0.186319	0.801715
C233	C	0.711483	-0.627274	0.051718
C234	C	0.961483	-0.377274	0.301718
C235	C	1.211483	-0.127274	0.551718
C236	C	1.461483	0.122726	0.801718
N237	N	0.672758	-0.659087	0.109127
N238	N	0.922758	-0.409087	0.359127
N239	N	1.172758	-0.159087	0.609127
N240	N	1.422758	0.090913	0.859127
C241	C	0.634034	-0.627294	0.166548
C242	C	0.884034	-0.377294	0.416548
C243	C	1.134034	-0.127294	0.666548
C244	C	1.384034	0.122706	0.916548
C245	C	0.711481	-0.239280	0.051770
C246	C	0.961481	0.010720	0.301770
C247	C	1.211481	0.260720	0.551770
C248	C	1.461481	0.510720	0.801770
C249	C	0.711486	-0.175675	0.051784
C250	C	0.961486	0.074325	0.301784
C251	C	1.211486	0.324325	0.551784
C252	C	1.461486	0.574325	0.801784
C253	C	0.634033	-0.175695	0.166620
C254	C	0.884033	0.074305	0.416620
C255	C	1.134033	0.324305	0.666620
C256	C	1.384033	0.574305	0.916620
C257	C	0.634032	-0.239301	0.166609
C258	C	0.884032	0.010699	0.416609
C259	C	1.134032	0.260699	0.666609
C260	C	1.384032	0.510699	0.916609
C261	C	0.672755	-0.271093	0.109180
C262	C	0.922755	-0.021093	0.359180
C263	C	1.172755	0.228907	0.609180
C264	C	1.422755	0.478907	0.859180
C265	C	0.634042	-0.760865	0.166530
C266	C	0.884042	-0.510865	0.416530
C267	C	1.134042	-0.260865	0.666530
C268	C	1.384042	-0.010865	0.916530
C269	C	0.634049	-0.824474	0.166521
C270	C	0.884049	-0.574474	0.416521
C271	C	1.134049	-0.324474	0.666521
C272	C	1.384049	-0.074474	0.916521
C273	C	0.711499	-0.824449	0.051682
C274	C	0.961499	-0.574449	0.301682
C275	C	1.211499	-0.324449	0.551682
C276	C	1.461499	-0.074449	0.801682
C277	C	0.711494	-0.760845	0.051694
C278	C	0.961494	-0.510845	0.301694
C279	C	1.211494	-0.260845	0.551694
C280	C	1.461494	-0.010845	0.801694
C281	C	0.672761	-0.729055	0.109121
C282	C	0.922761	-0.479055	0.359121
C283	C	1.172761	-0.229055	0.609121
C284	C	1.422761	0.020945	0.859121
O285	O	0.744410	-0.660212	0.002927
O286	O	0.994410	-0.410212	0.252927
O287	O	1.244410	-0.160212	0.502927
O288	O	1.494410	0.089788	0.752927
O289	O	0.601095	-0.660202	0.215364
O290	O	0.851095	-0.410202	0.465364
O291	O	1.101095	-0.160202	0.715364
O292	O	1.351095	0.089798	0.965364
C293	C	0.776887	-0.000082	0.102125
C294	C	1.026887	0.249918	0.352125
C295	C	1.276887	0.499918	0.602125
C296	C	1.526887	0.749918	0.852125
C297	C	0.840110	-0.000086	0.103237
C298	C	1.090110	0.249914	0.353237
C299	C	1.340110	0.499914	0.603237
C300	C	1.590110	0.749914	0.853237
C301	C	0.676916	-0.000078	-0.044451
C302	C	0.926916	0.249922	0.205549
C303	C	1.176916	0.499922	0.455549
C304	C	1.426916	0.749922	0.705549
C305	C	0.675789	-0.000078	-0.137687
C306	C	0.925789	0.249922	0.112313
C307	C	1.175789	0.499922	0.362313
C308	C	1.425789	0.749922	0.612313
N309	N	0.672773	0.143733	0.109100
N310	N	0.922773	0.393733	0.359100
N311	N	1.172773	0.643733	0.609100
N312	N	1.422773	0.893733	0.859100
C313	C	0.618900	-0.000063	-0.352049
C314	C	0.868900	0.249937	-0.102049
C315	C	1.118900	0.499937	0.147951
C316	C	1.368900	0.749937	0.397951
C317	C	0.645314	-0.049890	-0.413279
C318	C	0.895314	0.200110	-0.163279
C319	C	1.145314	0.450110	0.086721
C320	C	1.395314	0.700110	0.336721
C321	C	0.673750	-0.000073	-0.308395
C322	C	0.923750	0.249927	-0.058395
C323	C	1.173750	0.499927	0.191605
C324	C	1.423750	0.749927	0.441605
C325	C	0.645333	0.049738	-0.413296
C326	C	0.895333	0.299738	-0.163296
C327	C	1.145333	0.549738	0.086704
C328	C	1.395333	0.799738	0.336704
C329	C	0.671776	-0.000066	-0.473290
C330	C	0.921776	0.249934	-0.223290
C331	C	1.171776	0.499934	0.026710
C332	C	1.421776	0.749934	0.276710
C333	C	0.700179	-0.049941	-0.368397
C334	C	0.950179	0.200059	-0.118397
C335	C	1.200179	0.450059	0.131603
C336	C	1.450179	0.700059	0.381603
C337	C	0.700191	0.049731	-0.368408
C338	C	0.950191	0.299731	-0.118408
C339	C	1.200191	0.549731	0.131592
C340	C	1.450191	0.799731	0.381592
C341	C	0.726645	-0.000108	-0.429621
C342	C	0.976645	0.249892	-0.179621
C343	C	1.226645	0.499892	0.070379
C344	C	1.476645	0.749892	0.320379
C345	C	0.674885	-0.000078	-0.213402
C346	C	0.924885	0.249922	0.036598
C347	C	1.174885	0.499922	0.286598
C348	C	1.424885	0.749922	0.536598
C349	C	0.670645	-0.000065	-0.568282
C350	C	0.920645	0.249935	-0.318282
C351	C	1.170645	0.499935	-0.068282
C352	C	1.420645	0.749935	0.181718
C353	C	0.668612	-0.000064	0.262759
C354	C	0.918612	0.249936	0.512759
C355	C	1.168612	0.499936	0.762759
C356	C	1.418612	0.749936	1.012759
C357	C	0.669739	-0.000060	0.355995
C358	C	0.919739	0.249940	0.605995
C359	C	1.169739	0.499940	0.855995
C360	C	1.419739	0.749940	1.105995
H361	H	0.226656	-0.155096	0.110157
H362	H	0.476656	0.094904	0.360157
H363	H	0.726656	0.344904	0.610157
H364	H	0.976656	0.594904	0.860157
Cl365	Cl	0.548609	-0.000127	-0.300012
Cl366	Cl	0.798609	0.249873	-0.050012
Cl367	Cl	1.048609	0.499873	0.199988
Cl368	Cl	1.298609	0.749873	0.449988
H369	H	-0.046595	-0.100026	0.105288
H370	H	0.203405	0.149974	0.355288
H371	H	0.453405	0.399974	0.605288
H372	H	0.703405	0.649974	0.855288
Cl373	Cl	0.513049	0.124279	0.115158
Cl374	Cl	0.763049	0.374279	0.365158
Cl375	Cl	1.013049	0.624279	0.615158
Cl376	Cl	1.263049	0.874279	0.865158
Cl377	Cl	0.735965	-0.115050	-0.337829
Cl378	Cl	0.985965	0.134950	-0.087829
Cl379	Cl	1.235965	0.384950	0.162171
Cl380	Cl	1.485965	0.634950	0.412171
H381	H	-0.046613	0.099862	0.105213
H382	H	0.203387	0.349862	0.355213
H383	H	0.453387	0.599862	0.605213
H384	H	0.703387	0.849862	0.855213
H385	H	0.772213	-0.000141	-0.463176
H386	H	1.022213	0.249859	-0.213176
H387	H	1.272213	0.499859	0.036824
H388	H	1.522213	0.749859	0.286824
Cl389	Cl	0.609494	-0.114919	-0.443992
Cl390	Cl	0.859494	0.135081	-0.193992
Cl391	Cl	1.109494	0.385081	0.056008
Cl392	Cl	1.359494	0.635081	0.306008
H393	H	0.118891	0.154954	0.108110
H394	H	0.368891	0.404954	0.358110
H395	H	0.618891	0.654954	0.608110
H396	H	0.868891	0.904954	0.858110
H397	H	0.723373	0.091853	-0.348493
H398	H	0.973373	0.341853	-0.098493
H399	H	1.223373	0.591853	0.151507
H400	H	1.473373	0.841853	0.401507
H401	H	0.499904	-0.099996	0.115015
H402	H	0.749904	0.150004	0.365015
H403	H	0.999904	0.400004	0.615015
H404	H	1.249904	0.650004	0.865015
H405	H	0.602501	-0.734989	0.213292
H406	H	0.852501	-0.484989	0.463292
H407	H	1.102501	-0.234989	0.713292
H408	H	1.352501	0.015011	0.963292
H409	H	0.563777	-0.557790	0.270733
H410	H	0.813777	-0.307790	0.520733
H411	H	1.063777	-0.057790	0.770733
H412	H	1.313777	0.192210	1.020733
Cl413	Cl	0.379000	-0.124406	0.112853
Cl414	Cl	0.629000	0.125594	0.362853
Cl415	Cl	0.879000	0.375594	0.612853
Cl416	Cl	1.129000	0.625594	0.862853
Cl417	Cl	0.105756	-0.179500	0.108018
Cl418	Cl	0.355756	0.070500	0.358018
Cl419	Cl	0.605756	0.320500	0.608018
Cl420	Cl	0.855756	0.570500	0.858018
H421	H	0.743025	-0.149779	0.005037
H422	H	0.993025	0.100221	0.255037
H423	H	1.243025	0.350221	0.505037
H424	H	1.493025	0.600221	0.755037
H425	H	0.602515	-0.850372	0.213281
H426	H	0.852515	-0.600372	0.463281
H427	H	1.102515	-0.350372	0.713281
H428	H	1.352515	-0.100372	0.963281
Cl429	Cl	0.546621	-0.428333	0.296183
Cl430	Cl	0.796621	-0.178333	0.546183
Cl431	Cl	1.046621	0.071667	0.796183
Cl432	Cl	1.296621	0.321667	1.046183
Cl433	Cl	0.585347	-0.279284	0.238794
Cl434	Cl	0.835347	-0.029284	0.488794
Cl435	Cl	1.085347	0.220716	0.738794
Cl436	Cl	1.335347	0.470716	0.988794
Cl437	Cl	0.585351	-0.135713	0.238804
Cl438	Cl	0.835351	0.114287	0.488804
Cl439	Cl	1.085351	0.364287	0.738804
Cl440	Cl	1.335351	0.614287	0.988804
H441	H	-0.154367	-0.100025	0.103370
H442	H	0.095633	0.149975	0.353370
H443	H	0.345633	0.399975	0.603370
H444	H	0.595633	0.649975	0.853370
H445	H	0.743019	-0.265162	0.005006
H446	H	0.993019	-0.015162	0.255006
H447	H	1.243019	0.234838	0.505006
H448	H	1.493019	0.484838	0.755006
Cl449	Cl	-0.167525	0.124253	0.103074
Cl450	Cl	0.082475	0.374253	0.353074
Cl451	Cl	0.332475	0.624253	0.603074
Cl452	Cl	0.582475	0.874253	0.853074
H453	H	0.622129	0.091866	-0.433185
H454	H	0.872129	0.341866	-0.183185
H455	H	1.122129	0.591866	0.066815
H456	H	1.372129	0.841866	0.316815
H457	H	0.226648	0.154955	0.110020
H458	H	0.476648	0.404955	0.360020
H459	H	0.726648	0.654955	0.610020
H460	H	0.976648	0.904955	0.860020
H461	H	0.392120	0.099883	0.113029
H462	H	0.642120	0.349883	0.363029
H463	H	0.892120	0.599883	0.613029
H464	H	1.142120	0.849883	0.863029
Cl465	Cl	0.798880	-0.571834	-0.077908
Cl466	Cl	1.048880	-0.321834	0.172092
Cl467	Cl	1.298880	-0.071834	0.422092
Cl468	Cl	1.548880	0.178166	0.672092
Cl469	Cl	0.798884	-0.428284	-0.077887
Cl470	Cl	1.048884	-0.178284	0.172113
Cl471	Cl	1.298884	0.071716	0.422113
Cl472	Cl	1.548884	0.321716	0.672113
H473	H	0.743032	-0.734945	0.004946
H474	H	0.993032	-0.484945	0.254946
H475	H	1.243032	-0.234945	0.504946
H476	H	1.493032	0.015055	0.754946
Cl477	Cl	0.760179	-0.864427	-0.020501
Cl478	Cl	1.010179	-0.614427	0.229499
Cl479	Cl	1.260179	-0.364427	0.479499
Cl480	Cl	1.510179	-0.114427	0.729499
