data_functionalizedCrystal
_audit_creation_method	'MofGen! by Chris Wilmer'
_symmetry_space_group_name_H-M	'P1'
_symmetry_Int_Tables_number	1
_symmetry_cell_setting	triclinic
loop_
_symmetry_equiv_pos_as_xyz
  x,y,z
_cell_length_a	14.519709
_cell_length_b	15.944545
_cell_length_c	12.996460
_cell_angle_alpha	89.991753
_cell_angle_beta	90.000034
_cell_angle_gamma	83.588159
loop_
_atom_site_label
_atom_site_type_symbol
_atom_site_fract_x
_atom_site_fract_y
_atom_site_fract_z
O1	O	1.223673	0.110109	-0.085438
O2	O	1.473673	0.360109	0.164562
O3	O	1.723673	0.610109	0.414562
O4	O	1.973673	0.860109	0.664562
O5	O	0.955174	0.123076	-0.085470
O6	O	1.205174	0.373076	0.164530
O7	O	1.455174	0.623076	0.414530
O8	O	1.705174	0.873076	0.664530
O9	O	1.096759	-0.005672	-0.085441
O10	O	1.346759	0.244328	0.164559
O11	O	1.596759	0.494328	0.414559
O12	O	1.846759	0.744328	0.664559
O13	O	1.082088	0.238857	-0.085467
O14	O	1.332088	0.488857	0.164533
O15	O	1.582088	0.738857	0.414533
O16	O	1.832088	0.988857	0.664533
O17	O	1.096744	-0.005679	0.085693
O18	O	1.346744	0.244321	0.335693
O19	O	1.596744	0.494321	0.585693
O20	O	1.846744	0.744321	0.835693
O21	O	0.955159	0.123069	0.085664
O22	O	1.205159	0.373069	0.335664
O23	O	1.455159	0.623069	0.585664
O24	O	1.705159	0.873069	0.835664
O25	O	1.223659	0.110102	0.085696
O26	O	1.473659	0.360102	0.335696
O27	O	1.723659	0.610102	0.585696
O28	O	1.973659	0.860102	0.835696
Cu29	Cu	1.089407	0.116585	0.101306
Cu30	Cu	1.339407	0.366585	0.351306
Cu31	Cu	1.589407	0.616585	0.601306
Cu32	Cu	1.839407	0.866585	0.851306
Cu33	Cu	1.089425	0.116593	-0.101080
Cu34	Cu	1.339425	0.366593	0.148920
Cu35	Cu	1.589425	0.616593	0.398920
Cu36	Cu	1.839425	0.866593	0.648920
O37	O	1.082074	0.238850	0.085667
O38	O	1.332074	0.488850	0.335667
O39	O	1.582074	0.738850	0.585667
O40	O	1.832074	0.988850	0.835667
C41	C	0.920807	0.122468	0.000093
C42	C	1.170807	0.372468	0.250093
C43	C	1.420807	0.622468	0.500093
C44	C	1.670807	0.872468	0.750093
C45	C	0.818429	0.120657	0.000081
C46	C	1.068429	0.370657	0.250081
C47	C	1.318429	0.620657	0.500081
C48	C	1.568429	0.870657	0.750081
C49	C	1.096143	-0.036970	0.000127
C50	C	1.346143	0.213030	0.250127
C51	C	1.596143	0.463030	0.500127
C52	C	1.846143	0.713030	0.750127
C53	C	1.094320	-0.130219	0.000130
C54	C	1.344320	0.119781	0.250130
C55	C	1.594320	0.369781	0.500130
C56	C	1.844320	0.619781	0.750130
C57	C	0.443545	0.113991	0.000129
C58	C	0.693545	0.363991	0.250129
C59	C	0.943545	0.613991	0.500129
C60	C	1.193545	0.863991	0.750129
C61	C	0.547850	0.115842	0.000115
C62	C	0.797850	0.365842	0.250115
C63	C	1.047850	0.615842	0.500115
C64	C	1.297850	0.865842	0.750115
C65	C	0.630984	0.117324	0.000104
C66	C	0.880984	0.367324	0.250104
C67	C	1.130984	0.617324	0.500104
C68	C	1.380984	0.867324	0.750104
C69	C	0.735295	0.119176	0.000092
C70	C	0.985295	0.369176	0.250092
C71	C	1.235295	0.619176	0.500092
C72	C	1.485295	0.869176	0.750092
C73	C	1.001113	-0.400987	0.000098
C74	C	1.251113	-0.150987	0.250098
C75	C	1.501113	0.099013	0.500098
C76	C	1.751113	0.349013	0.750098
C77	C	1.046057	-0.350333	-0.084275
C78	C	1.296057	-0.100333	0.165725
C79	C	1.546057	0.149667	0.415725
C80	C	1.796057	0.399667	0.665725
C81	C	1.087820	-0.465873	0.000100
C82	C	1.337820	-0.215873	0.250100
C83	C	1.587820	0.034127	0.500100
C84	C	1.837820	0.284127	0.750100
C85	C	1.046066	-0.350367	0.084449
C86	C	1.296066	-0.100367	0.334449
C87	C	1.546066	0.149633	0.584449
C88	C	1.796066	0.399633	0.834449
C89	C	1.091009	-0.300954	0.000116
C90	C	1.341009	-0.050954	0.250116
C91	C	1.591009	0.199046	0.500116
C92	C	1.841009	0.449046	0.750116
C93	C	1.132741	-0.416447	-0.084343
C94	C	1.382741	-0.166447	0.165657
C95	C	1.632741	0.083553	0.415657
C96	C	1.882741	0.333553	0.665657
C97	C	1.132737	-0.416484	0.084457
C98	C	1.382737	-0.166484	0.334457
C99	C	1.632737	0.083516	0.584457
C100	C	1.882737	0.333516	0.834457
C101	C	1.177746	-0.365863	0.000064
C102	C	1.427746	-0.115863	0.250064
C103	C	1.677746	0.134137	0.500064
C104	C	1.927746	0.384137	0.750064
C105	C	1.085980	-0.560877	0.000089
C106	C	1.335980	-0.310877	0.250089
C107	C	1.585980	-0.060877	0.500089
C108	C	1.835980	0.189123	0.750089
C109	C	1.092856	-0.205952	0.000119
C110	C	1.342856	0.044048	0.250119
C111	C	1.592856	0.294048	0.500119
C112	C	1.842856	0.544048	0.750119
C113	C	1.258025	0.110710	0.000131
C114	C	1.508025	0.360710	0.250131
C115	C	1.758025	0.610710	0.500131
C116	C	2.008025	0.860710	0.750131
C117	C	1.360403	0.112521	0.000136
C118	C	1.610403	0.362521	0.250136
C119	C	1.860403	0.612521	0.500136
C120	C	2.110403	0.862521	0.750136
C121	C	1.082689	0.270149	0.000097
C122	C	1.332689	0.520149	0.250097
C123	C	1.582689	0.770149	0.500097
C124	C	1.832689	1.020149	0.750097
C125	C	1.084512	0.363398	0.000087
C126	C	1.334512	0.613398	0.250087
C127	C	1.584512	0.863398	0.500087
C128	C	1.834512	1.113398	0.750087
N129	N	1.089402	0.116578	0.243653
N130	N	1.339402	0.366578	0.493653
N131	N	1.589402	0.616578	0.743653
N132	N	1.839402	0.866578	0.993653
N133	N	1.089438	0.116593	-0.243427
N134	N	1.339438	0.366593	0.006573
N135	N	1.589438	0.616593	0.256573
N136	N	1.839438	0.866593	0.506573
C137	C	1.089424	0.116594	0.663467
C138	C	1.339424	0.366594	0.913467
C139	C	1.589424	0.616594	1.163467
C140	C	1.839424	0.866594	1.413467
C141	C	1.089415	0.116593	0.546662
C142	C	1.339415	0.366593	0.796662
C143	C	1.589415	0.616593	1.046662
C144	C	1.839415	0.866593	1.296662
C145	C	1.089413	0.116587	0.453564
C146	C	1.339413	0.366587	0.703564
C147	C	1.589413	0.616587	0.953564
C148	C	1.839413	0.866587	1.203564
C149	C	1.089404	0.116584	0.336751
C150	C	1.339404	0.366584	0.586751
C151	C	1.589404	0.616584	0.836751
C152	C	1.839404	0.866584	1.086751
H153	H	0.926439	-0.416748	0.000006
H154	H	1.176439	-0.166748	0.250006
H155	H	1.426439	0.083252	0.500006
H156	H	1.676439	0.333252	0.750006
F157	F	1.275423	-0.345468	0.000015
F158	F	1.525423	-0.095468	0.250015
F159	F	1.775423	0.154532	0.500015
F160	F	2.025423	0.404532	0.750015
F161	F	1.180578	-0.454022	-0.177682
F162	F	1.430578	-0.204022	0.072318
F163	F	1.680578	0.045978	0.322318
F164	F	1.930578	0.295978	0.572318
F165	F	0.998205	-0.312581	-0.177524
F166	F	1.248205	-0.062581	0.072476
F167	F	1.498205	0.187419	0.322476
F168	F	1.748205	0.437419	0.572476
H169	H	1.169318	-0.445384	0.155800
H170	H	1.419318	-0.195384	0.405800
H171	H	1.669318	0.054616	0.655800
H172	H	1.919318	0.304616	0.905800
H173	H	1.009426	-0.321509	0.155778
H174	H	1.259426	-0.071509	0.405778
H175	H	1.509426	0.178491	0.655778
H176	H	1.759426	0.428491	0.905778
