data_functionalizedCrystal
_audit_creation_method	'MofGen! by Chris Wilmer'
_symmetry_space_group_name_H-M	'P1'
_symmetry_Int_Tables_number	1
_symmetry_cell_setting	triclinic
loop_
_symmetry_equiv_pos_as_xyz
  x,y,z
_cell_length_a	23.532361
_cell_length_b	23.532407
_cell_length_c	22.010155
_cell_angle_alpha	90.010545
_cell_angle_beta	89.988583
_cell_angle_gamma	97.160831
loop_
_atom_site_label
_atom_site_type_symbol
_atom_site_fract_x
_atom_site_fract_y
_atom_site_fract_z
O1	O	0.755286	-0.069007	-0.050472
O2	O	1.255286	0.430993	0.449528
O3	O	0.589419	-0.079038	-0.050488
O4	O	1.089419	0.420962	0.449512
O5	O	0.677354	0.008910	-0.050466
O6	O	1.177354	0.508910	0.449534
O7	O	0.667351	-0.156955	-0.050494
O8	O	1.167351	0.343045	0.449506
O9	O	0.677328	0.008910	0.050584
O10	O	1.177328	0.508910	0.550584
O11	O	0.589393	-0.079038	0.050563
O12	O	1.089393	0.420962	0.550563
O13	O	0.755260	-0.069007	0.050578
O14	O	1.255260	0.430993	0.550578
Cu15	Cu	0.672324	-0.074023	0.059797
Cu16	Cu	1.172324	0.425977	0.559797
Cu17	Cu	0.672355	-0.074023	-0.059707
Cu18	Cu	1.172355	0.425977	0.440293
O19	O	0.667324	-0.156955	0.050557
O20	O	1.167324	0.343045	0.550557
C21	C	0.568189	-0.078787	0.000036
C22	C	1.068189	0.421213	0.500036
C23	C	0.504971	-0.078032	0.000030
C24	C	1.004971	0.421968	0.500030
C25	C	0.231741	-0.074728	-0.055048
C26	C	0.731741	0.425272	0.444952
C27	C	0.291141	-0.075443	-0.055050
C28	C	0.791141	0.424557	0.444950
O29	O	0.321879	-0.075793	-0.101894
O30	O	0.821879	0.424207	0.398106
N31	N	0.320832	-0.075804	0.000033
N32	N	0.820832	0.424196	0.500033
C33	C	0.291122	-0.075445	0.055121
C34	C	0.791122	0.424555	0.555121
O35	O	0.321831	-0.075817	0.101973
O36	O	0.821831	0.424183	0.601973
C37	C	0.231724	-0.074726	0.055122
C38	C	0.731724	0.425274	0.555122
C39	C	0.202035	-0.074370	0.000036
C40	C	0.702035	0.425630	0.500036
C41	C	0.202052	-0.074372	-0.110130
C42	C	0.702052	0.425628	0.389870
C43	C	0.142657	-0.073658	-0.110128
C44	C	0.642657	0.426342	0.389872
C45	C	0.112950	-0.073301	-0.055044
C46	C	0.612950	0.426699	0.444956
C47	C	0.142639	-0.073657	0.000037
C48	C	0.642639	0.426343	0.500037
C49	C	0.202015	-0.074362	0.110209
C50	C	0.702015	0.425638	0.610209
C51	C	0.142612	-0.073642	0.110205
C52	C	0.642612	0.426358	0.610205
C53	C	0.112923	-0.073287	0.055119
C54	C	0.612923	0.426713	0.555119
C55	C	0.053536	-0.072585	0.055123
C56	C	0.553536	0.427415	0.555123
N57	N	0.023845	-0.072224	0.000040
N58	N	0.523845	0.427776	0.500040
C59	C	0.053552	-0.072582	-0.055043
C60	C	0.553552	0.427418	0.444957
C61	C	0.415862	-0.076954	0.055115
C62	C	0.915862	0.423046	0.555115
C63	C	0.475258	-0.077677	0.055114
C64	C	0.975258	0.422323	0.555114
C65	C	0.475274	-0.077674	-0.055057
C66	C	0.975274	0.422326	0.444943
C67	C	0.415876	-0.076955	-0.055056
C68	C	0.915876	0.423045	0.444944
C69	C	0.386171	-0.076593	0.000032
C70	C	0.886171	0.423407	0.500032
C71	C	-0.071184	-0.071083	-0.055035
C72	C	0.428816	0.428917	0.444965
C73	C	-0.130585	-0.070372	-0.055029
C74	C	0.369415	0.429628	0.444971
C75	C	-0.130595	-0.070371	0.055142
C76	C	0.369405	0.429629	0.555142
C77	C	-0.071199	-0.071086	0.055135
C78	C	0.428801	0.428914	0.555135
C79	C	-0.041495	-0.071440	0.000042
C80	C	0.458505	0.428560	0.500042
O81	O	0.022761	-0.072232	0.101944
O82	O	0.522761	0.427768	0.601944
O83	O	0.022836	-0.072202	-0.101888
O84	O	0.522836	0.427798	0.398112
C85	C	0.677086	0.030126	0.000061
C86	C	1.177086	0.530126	0.500061
C87	C	0.676320	0.093343	0.000067
C88	C	1.176320	0.593343	0.500067
C89	C	0.723555	0.492454	0.000048
C90	C	1.223555	0.992454	0.500048
C91	C	0.722844	0.551854	0.000045
C92	C	1.222844	1.051854	0.500045
O93	O	0.766630	0.588606	0.000028
O94	O	1.266630	1.088606	0.500028
N95	N	0.670566	0.574471	0.000041
N96	N	1.170566	1.074471	0.500041
C97	C	0.618997	0.537685	0.000034
C98	C	1.118997	1.037685	0.500034
O99	O	0.574465	0.562377	0.000030
O100	O	1.074465	1.062377	0.500030
C101	C	0.619709	0.478286	0.000033
C102	C	1.119709	0.978286	0.500033
C103	C	0.671990	0.455672	0.000043
C104	C	1.171990	0.955672	0.500043
C105	C	0.775832	0.469839	0.000058
C106	C	1.275832	0.969839	0.500058
C107	C	0.776543	0.410443	0.000062
C108	C	1.276543	0.910443	0.500062
C109	C	0.724977	0.373662	0.000057
C110	C	1.224977	0.873662	0.500057
C111	C	0.672701	0.396276	0.000048
C112	C	1.172701	0.896276	0.500048
C113	C	0.568140	0.441501	0.000022
C114	C	1.068140	0.941501	0.500022
C115	C	0.568857	0.382099	0.000020
C116	C	1.068857	0.882099	0.500020
C117	C	0.621137	0.359485	0.000030
C118	C	1.121137	0.859485	0.500030
C119	C	0.621847	0.300099	0.000047
C120	C	1.121847	0.800099	0.500047
N121	N	0.674124	0.277481	0.000051
N122	N	1.174124	0.777481	0.500051
C123	C	0.725690	0.314263	0.000056
C124	C	1.225690	0.814263	0.500056
C125	C	0.617505	0.662427	0.000036
C126	C	1.117505	1.162427	0.500036
C127	C	0.616793	0.721825	0.000041
C128	C	1.116793	1.221825	0.500041
C129	C	0.720640	0.735990	0.000051
C130	C	1.220640	1.235990	0.500051
C131	C	0.721352	0.676591	0.000050
C132	C	1.221352	1.176591	0.500050
C133	C	0.669783	0.639810	0.000040
C134	C	1.169783	1.139810	0.500040
C135	C	0.727179	0.189526	0.000065
C136	C	1.227179	0.689526	0.500065
C137	C	0.727886	0.130124	0.000072
C138	C	1.227886	0.630124	0.500072
C139	C	0.624039	0.115965	0.000059
C140	C	1.124039	0.615965	0.500059
C141	C	0.623332	0.175361	0.000056
C142	C	1.123332	0.675361	0.500056
C143	C	0.674907	0.212141	0.000057
C144	C	1.174907	0.712141	0.500057
O145	O	0.578083	0.263312	0.000062
O146	O	1.078083	0.763312	0.500062
O147	O	0.770214	0.289562	0.000052
O148	O	1.270214	0.789562	0.500052
C149	C	0.776489	-0.069258	0.000054
C150	C	1.276489	0.430742	0.500054
C151	C	0.839708	-0.070014	0.000055
C152	C	1.339708	0.429986	0.500055
C153	C	0.667592	0.821829	0.000034
C154	C	1.167592	1.321829	0.500034
C155	C	0.668358	0.758612	0.000043
C156	C	1.168358	1.258612	0.500043
N157	N	0.672306	-0.074022	0.143850
N158	N	1.172306	0.425978	0.643850
N159	N	0.672377	-0.074018	-0.143759
N160	N	1.172377	0.425982	0.356241
C161	C	0.706701	-0.108377	0.563627
C162	C	1.206701	0.391623	1.063627
C163	C	0.706708	-0.108376	0.627234
C164	C	1.206708	0.391624	1.127234
O165	O	0.735932	-0.137582	0.660123
O166	O	1.235932	0.362418	1.160123
N167	N	0.672366	-0.074016	0.659057
N168	N	1.172366	0.425984	1.159057
C169	C	0.638020	-0.039651	0.627268
C170	C	1.138020	0.460349	1.127268
O171	O	0.608810	-0.010425	0.660177
O172	O	1.108810	0.489575	1.160177
C173	C	0.638016	-0.039650	0.563662
C174	C	1.138016	0.460350	1.063662
C175	C	0.672356	-0.074016	0.531843
C176	C	1.172356	0.425984	1.031843
C177	C	0.741039	-0.142741	0.531807
C178	C	1.241039	0.357259	1.031807
C179	C	0.741031	-0.142743	0.468204
C180	C	1.241031	0.357257	0.968204
C181	C	0.706686	-0.108382	0.436420
C182	C	1.206686	0.391618	0.936420
C183	C	0.672348	-0.074018	0.468239
C184	C	1.172348	0.425982	0.968239
C185	C	0.603673	-0.005282	0.531875
C186	C	1.103673	0.494718	1.031875
C187	C	0.603673	-0.005284	0.468264
C188	C	1.103673	0.494716	0.968264
C189	C	0.638013	-0.039650	0.436445
C190	C	1.138013	0.460350	0.936445
C191	C	0.637996	-0.039659	0.372852
C192	C	1.137996	0.460341	0.872852
N193	N	0.672338	-0.074019	0.341030
N194	N	1.172338	0.425981	0.841030
C195	C	0.706683	-0.108380	0.372814
C196	C	1.206683	0.391620	0.872814
C197	C	0.638030	-0.039656	0.760846
C198	C	1.138030	0.460344	1.260846
C199	C	0.638030	-0.039659	0.824452
C200	C	1.138030	0.460341	1.324452
C201	C	0.706719	-0.108384	0.824413
C202	C	1.206719	0.391616	1.324413
C203	C	0.706716	-0.108382	0.760806
C204	C	1.206716	0.391618	1.260806
C205	C	0.672372	-0.074015	0.729024
C206	C	1.172372	0.425985	1.229024
C207	C	0.706664	-0.108383	0.239242
C208	C	1.206664	0.391617	0.739242
C209	C	0.706651	-0.108383	0.175633
C210	C	1.206651	0.391617	0.675633
C211	C	0.637964	-0.039657	0.175678
C212	C	1.137964	0.460343	0.675678
C213	C	0.637974	-0.039658	0.239281
C214	C	1.137974	0.460342	0.739281
C215	C	0.672329	-0.074023	0.271062
C216	C	1.172329	0.425977	0.771062
O217	O	0.608789	-0.010466	0.339923
O218	O	1.108789	0.489534	0.839923
O219	O	0.735893	-0.137596	0.339898
O220	O	1.235893	0.362404	0.839898
H221	H	-0.047027	-0.071386	0.099991
H222	H	0.452973	0.428614	0.599991
H223	H	0.734638	-0.136365	0.265111
H224	H	1.234638	0.363635	0.765111
H225	H	0.574220	0.740232	0.000044
H226	H	1.074220	1.240232	0.500044
H227	H	0.580761	0.193774	0.000065
H228	H	1.080761	0.693774	0.500065
C229	C	0.832563	0.510291	0.000070
C230	C	1.332563	1.010291	0.500070
N231	N	0.875297	0.540756	0.000085
N232	N	1.375297	1.040756	0.500085
H233	H	0.770461	0.111716	0.000082
H234	H	1.270461	0.611716	0.500082
H235	H	0.769176	0.219466	0.000064
H236	H	1.269176	0.719466	0.500064
C237	C	0.778864	0.651722	0.000055
C238	C	1.278864	1.151722	0.500055
N239	N	0.822185	0.632993	0.000057
N240	N	1.322185	1.132993	0.500057
C241	C	0.109940	-0.073247	0.170808
C242	C	0.609940	0.426753	0.670808
N243	N	0.085332	-0.072952	0.216453
N244	N	0.585332	0.427048	0.716453
H245	H	0.525567	0.459902	0.000010
H246	H	1.025567	0.959902	0.500010
H247	H	0.226177	-0.074649	0.155066
H248	H	0.726177	0.425351	0.655066
C249	C	-0.163284	-0.069976	0.115731
C250	C	0.336716	0.430024	0.615731
N251	N	-0.187906	-0.069673	0.161367
N252	N	0.312094	0.430327	0.661367
C253	C	0.567320	0.075494	0.000050
C254	C	1.067320	0.575494	0.500050
N255	N	0.524599	0.045010	0.000036
N256	N	1.024599	0.545010	0.500036
C257	C	0.600279	-0.001769	0.140703
C258	C	1.100279	0.498231	0.640703
N259	N	0.571931	0.026804	0.114359
N260	N	1.071931	0.526804	0.614359
H261	H	0.819115	0.392037	0.000068
H262	H	1.319115	0.892037	0.500068
H263	H	0.734614	-0.136371	0.149729
H264	H	1.234614	0.363629	0.649729
C265	C	0.512125	0.341642	0.000012
C266	C	1.012125	0.841642	0.500012
N267	N	0.469395	0.311172	0.000007
N268	N	0.969395	0.811172	0.500007
C269	C	0.507909	-0.078074	0.115714
C270	C	1.007909	0.421926	0.615714
N271	N	0.532499	-0.078369	0.161359
N272	N	1.032499	0.421631	0.661359
H273	H	0.768996	-0.170725	0.442302
H274	H	1.268996	0.329275	0.942302
H275	H	0.391679	-0.076666	0.099976
H276	H	0.891679	0.423334	0.599976
C277	C	0.777363	0.776461	0.000050
C278	C	1.277363	1.276461	0.500050
N279	N	0.820084	0.806946	0.000048
N280	N	1.320084	1.306946	0.500048
H281	H	0.769010	-0.170722	0.557679
H282	H	1.269010	0.329278	1.057679
C283	C	0.560771	0.621972	0.000033
C284	C	1.060771	1.121972	0.500033
N285	N	0.518039	0.591505	0.000030
N286	N	1.018039	1.091505	0.500030
H287	H	0.734678	-0.136367	0.734903
H288	H	1.234678	0.363633	1.234903
C289	C	0.565889	0.032522	0.433307
C290	C	1.065889	0.532522	0.933307
N291	N	0.537429	0.060995	0.406979
N292	N	1.037429	0.560995	0.906979
H293	H	0.734684	-0.136363	0.850303
H294	H	1.234684	0.363637	1.350303
H295	H	0.610060	-0.011682	0.850353
H296	H	1.110060	0.488318	1.350353
H297	H	0.610057	-0.011672	0.734973
H298	H	1.110057	0.488328	1.234973
H299	H	0.575711	0.022703	0.557771
H300	H	1.075711	0.522703	1.057771
C301	C	0.600198	-0.001855	0.274283
C302	C	1.100198	0.498145	0.774283
N303	N	0.571749	0.026624	0.300643
N304	N	1.071749	0.526624	0.800643
H305	H	0.118489	-0.073367	-0.154985
H306	H	0.618489	0.426633	0.345015
H307	H	-0.154756	-0.070084	-0.099889
H308	H	0.345244	0.429916	0.400111
H309	H	-0.047006	-0.071372	-0.099898
H310	H	0.452994	0.428628	0.400102
H311	H	0.499472	-0.077965	-0.099909
H312	H	0.999472	0.422035	0.400091
C313	C	0.234721	-0.074765	-0.170732
C314	C	0.734721	0.425235	0.329268
N315	N	0.259322	-0.075064	-0.216381
N316	N	0.759322	0.424936	0.283619
H317	H	0.391707	-0.076666	-0.099912
H318	H	0.891707	0.423334	0.400088
