data_functionalizedCrystal
_audit_creation_method	'MofGen! by Chris Wilmer'
_symmetry_space_group_name_H-M	'P1'
_symmetry_Int_Tables_number	1
_symmetry_cell_setting	triclinic
loop_
_symmetry_equiv_pos_as_xyz
  x,y,z
_cell_length_a	15.625950
_cell_length_b	10.489716
_cell_length_c	14.750779
_cell_angle_alpha	77.231476
_cell_angle_beta	120.090508
_cell_angle_gamma	84.378482
loop_
_atom_site_label
_atom_site_type_symbol
_atom_site_fract_x
_atom_site_fract_y
_atom_site_fract_z
O1	O	1.286488	0.039282	0.367846
O2	O	0.999952	0.093617	0.268139
O3	O	1.149752	-0.120003	0.320262
O4	O	1.136688	0.252901	0.315723
O5	O	1.192098	-0.180385	0.494646
O6	O	1.042299	0.033235	0.442523
O7	O	1.328834	-0.021100	0.542231
Zn8	Zn	1.192290	-0.003519	0.520064
Zn9	Zn	1.136497	0.076036	0.290305
O10	O	1.179035	0.192520	0.490108
C11	C	0.984435	0.066945	0.342563
C12	C	0.875108	0.077413	0.304520
C13	C	0.630837	-0.052612	0.654557
C14	C	0.528094	-0.042732	0.618761
C15	C	0.481980	0.023088	0.428671
C16	C	0.584721	0.013221	0.464452
C17	C	0.659142	-0.024631	0.577396
C18	C	0.613026	0.041202	0.387290
C19	C	0.715759	0.031328	0.423069
C20	C	0.790186	-0.006526	0.536009
C21	C	0.761875	-0.034505	0.613175
C22	C	0.538604	0.079044	0.274347
C23	C	0.566909	0.107025	0.197185
C24	C	0.669643	0.097161	0.232963
C25	C	0.744070	0.059307	0.345903
C26	C	0.697954	0.125139	0.155797
C27	C	0.800686	0.115266	0.191576
C28	C	0.846803	0.049433	0.381681
C29	C	1.169942	-0.197597	0.407109
C30	C	1.167003	-0.338840	0.406078
C31	C	1.258868	-0.448521	0.438053
C32	C	1.189447	-0.489769	0.335183
C33	C	1.231176	-0.549261	0.507106
C34	C	1.097604	-0.378203	0.303150
C35	C	1.139365	-0.437719	0.475155
C36	C	1.069872	-0.478901	0.372241
C37	C	1.344351	0.005573	0.467803
C38	C	1.453676	-0.004893	0.505840
C39	C	1.158843	0.270114	0.403258
C40	C	1.161781	0.411361	0.404282
N41	N	1.230375	-0.057815	0.676872
N42	N	1.098420	0.130321	0.133500
C43	C	0.992054	0.281906	0.945766
C44	C	1.018749	0.243867	1.055553
C45	C	1.151424	0.054767	1.101681
C46	C	1.124737	0.092787	0.991894
C47	C	1.045052	0.206358	0.913944
C48	C	1.177736	0.017239	0.960072
C49	C	1.151054	0.055261	0.850296
C50	C	1.071374	0.168830	0.772341
C51	C	1.018371	0.244380	0.804168
C52	C	1.257425	-0.096326	1.038025
C53	C	1.310423	-0.171874	1.006204
C54	C	1.283737	-0.133859	0.896424
C55	C	1.204058	-0.020289	0.818469
C56	C	1.336741	-0.209409	0.864597
C57	C	1.310059	-0.171387	0.754821
C58	C	1.177376	0.017732	0.708693
H59	H	0.505052	-0.065490	0.681603
H60	H	1.279149	-0.127275	1.127412
O61	O	0.427815	0.089607	0.235798
H62	H	0.398969	0.018520	0.188206
H63	H	0.691434	-0.083415	0.746527
O64	O	0.401701	0.063910	0.306859
H65	H	0.418511	-0.010056	0.270983
O66	O	0.906099	0.404387	0.861662
H67	H	0.924446	0.494979	0.887315
O68	O	1.111426	-0.406684	0.553581
H69	H	1.167039	-0.476396	0.638183
O70	O	1.217420	-0.520763	0.256765
H71	H	1.214231	-0.625824	0.256128
O72	O	0.831236	0.145438	0.108366
H73	H	0.792326	0.250969	0.053091
O74	O	1.091400	0.140198	0.624602
H75	H	1.081742	0.153924	0.542920
O76	O	1.305937	-0.646888	0.621277
H77	H	1.384263	-0.635405	0.648359
H78	H	1.401628	-0.301872	0.928080
O79	O	0.963937	-0.497386	0.335348
H80	H	0.908692	-0.427470	0.250727
H81	H	1.338751	-0.434256	0.465770
O82	O	0.961584	0.325351	1.089881
H83	H	0.879598	0.325455	1.042089
H84	H	1.049655	0.199789	0.682956
H85	H	0.907400	0.018630	0.473651
O86	O	1.022866	-0.280775	0.188887
H87	H	1.025690	-0.175945	0.190534
H88	H	0.953476	0.336853	0.740694
O89	O	1.237365	-0.067729	1.185753
H90	H	1.247012	-0.081483	1.267434
H91	H	0.506303	0.137838	0.105226
H92	H	1.375306	-0.264343	1.069683
O93	O	1.367210	-0.252870	0.720484
H94	H	1.427094	-0.338239	0.793126
O95	O	0.617689	0.165950	0.033981
H96	H	0.561626	0.259874	0.010287
O97	O	0.900991	-0.017167	0.574597
H98	H	0.946186	-0.121829	0.627891
O99	O	0.842156	-0.075325	0.734994
H100	H	0.805219	-0.093128	0.782645
