data_functionalizedCrystal
_audit_creation_method	'MofGen! by Chris Wilmer'
_symmetry_space_group_name_H-M	'P1'
_symmetry_Int_Tables_number	1
_symmetry_cell_setting	triclinic
loop_
_symmetry_equiv_pos_as_xyz
  x,y,z
_cell_length_a	16.120484
_cell_length_b	12.759401
_cell_length_c	12.759393
_cell_angle_alpha	89.982620
_cell_angle_beta	92.862621
_cell_angle_gamma	92.925560
loop_
_atom_site_label
_atom_site_type_symbol
_atom_site_fract_x
_atom_site_fract_y
_atom_site_fract_z
Zn1	Zn	-0.331851	1.584960	-0.615146
Zn2	Zn	-0.471289	1.575915	-0.448359
Zn3	Zn	-0.331895	1.409262	-0.439488
Zn4	Zn	-0.471225	1.400312	-0.623996
O5	O	-0.401565	1.492612	-0.531747
O6	O	-0.350357	1.730780	-0.593029
O7	O	-0.452844	1.553768	-0.300164
O8	O	-0.215224	1.440101	-0.455373
O9	O	-0.452801	1.724135	-0.470492
O10	O	-0.215192	1.569185	-0.584428
O11	O	-0.350432	1.431330	-0.293646
O12	O	-0.350369	1.261055	-0.463955
O13	O	-0.452691	1.424845	-0.769840
O14	O	-0.452734	1.254478	-0.599512
O15	O	-0.350294	1.560505	-0.763338
O16	O	-0.587946	1.545089	-0.479074
O17	O	-0.587899	1.416074	-0.608114
C18	C	-0.401550	1.219646	-0.531732
C19	C	-0.401563	1.102868	-0.531751
C20	C	-0.618172	1.478657	-0.545539
C21	C	-0.710838	1.472783	-0.551475
C22	C	-0.454950	1.044604	-0.602230
C23	C	-0.454961	0.934879	-0.602242
C24	C	-0.348196	0.941693	-0.461287
C25	C	-0.348181	1.051416	-0.461281
C26	C	-0.508332	1.096056	-0.672701
C27	C	-0.561724	1.037792	-0.743185
C28	C	-0.561734	0.928067	-0.743197
C29	C	-0.508353	0.876607	-0.672725
C30	C	-0.880498	1.462065	-0.562333
C31	C	-0.921791	1.523347	-0.501178
C32	C	-1.016197	1.517384	-0.507219
C33	C	-0.786085	1.468028	-0.556293
C34	C	-0.184112	1.506650	-0.517924
C35	C	-0.091447	1.512632	-0.512033
C36	C	-0.401480	1.492686	-0.805775
C37	C	-0.401444	1.492717	-0.922549
C38	C	-0.401581	1.766644	-0.531763
C39	C	-0.401588	1.883421	-0.531770
C40	C	-0.348108	1.428993	-0.974023
C41	C	-0.348083	1.429026	-1.083746
C42	C	-0.454733	1.556517	-1.090511
C43	C	-0.454761	1.556478	-0.980791
C44	C	-0.294791	1.365232	-0.915782
C45	C	-0.241450	1.301503	-0.967256
C46	C	-0.241426	1.301536	-1.076978
C47	C	-0.294742	1.365299	-1.135227
C48	C	-0.401590	1.492603	-0.258781
C49	C	-0.401391	1.492790	-0.141992
H50	H	-0.508331	1.185399	-0.672697
H51	H	-0.886243	1.580290	-0.444282
H52	H	-0.294719	1.365318	-1.224570
H53	H	-0.294804	1.365200	-0.826440
H54	H	-0.605179	1.079698	-0.800566
H55	H	-0.605202	0.880631	-0.800595
H56	H	-0.508359	0.787262	-0.672749
H57	H	-0.916045	1.405125	-0.619223
H58	H	-0.198047	1.249584	-0.919823
H59	H	-0.304736	0.899785	-0.403912
H60	H	-0.304703	1.098856	-0.403898
H61	H	-0.197998	1.249638	-1.118885
H62	H	-0.498138	1.608432	-1.137946
H63	H	-0.498181	1.608383	-0.938879
