data_functionalizedCrystal
_audit_creation_method	'MofGen! by Chris Wilmer'
_symmetry_space_group_name_H-M	'P1'
_symmetry_Int_Tables_number	1
_symmetry_cell_setting	triclinic
loop_
_symmetry_equiv_pos_as_xyz
  x,y,z
_cell_length_a	16.120530
_cell_length_b	18.215405
_cell_length_c	18.215399
_cell_angle_alpha	90.032960
_cell_angle_beta	87.086235
_cell_angle_gamma	92.879755
loop_
_atom_site_label
_atom_site_type_symbol
_atom_site_fract_x
_atom_site_fract_y
_atom_site_fract_z
Zn1	Zn	1.274509	0.350098	-0.473075
Zn2	Zn	1.607842	0.683431	-0.139742
Zn3	Zn	1.941175	1.016764	0.193591
Zn4	Zn	1.274412	0.473170	-0.349999
Zn5	Zn	1.607745	0.806503	-0.016666
Zn6	Zn	1.941079	1.139836	0.316667
Zn7	Zn	1.135099	0.343878	-0.343791
Zn8	Zn	1.468433	0.677211	-0.010458
Zn9	Zn	1.801766	1.010544	0.322876
Zn10	Zn	1.135053	0.466877	-0.466795
Zn11	Zn	1.468387	0.800210	-0.133461
Zn12	Zn	1.801720	1.133543	0.199872
O13	O	1.204768	0.408505	-0.408415
O14	O	1.538102	0.741839	-0.075082
O15	O	1.871435	1.075172	0.258252
O16	O	1.391161	0.371660	-0.461976
O17	O	1.724494	0.704994	-0.128643
O18	O	2.057828	1.038327	0.204691
O19	O	1.255911	0.456049	-0.246190
O20	O	1.589244	0.789383	0.087143
O21	O	1.922578	1.122716	0.420476
O22	O	1.153652	0.241721	-0.360971
O23	O	1.486985	0.575054	-0.027638
O24	O	1.820319	0.908388	0.305695
O25	O	1.391090	0.462081	-0.371552
O26	O	1.724424	0.795414	-0.038219
O27	O	2.057757	1.128747	0.295114
O28	O	1.256075	0.246291	-0.455956
O29	O	1.589409	0.579624	-0.122623
O30	O	1.922742	0.912958	0.210711
O31	O	1.153558	0.361059	-0.241629
O32	O	1.486892	0.694392	0.091704
O33	O	1.820225	1.027726	0.425037
O34	O	1.018428	0.354957	-0.354881
O35	O	1.351761	0.688290	-0.021548
O36	O	1.685095	1.021624	0.311786
O37	O	1.153574	0.451355	-0.570613
O38	O	1.486907	0.784688	-0.237280
O39	O	1.820240	1.118022	0.096054
O40	O	1.018394	0.445324	-0.445251
O41	O	1.351728	0.778657	-0.111918
O42	O	1.685061	1.111990	0.221416
O43	O	1.256031	0.365558	-0.575228
O44	O	1.589364	0.698891	-0.241894
O45	O	1.922697	1.032225	0.091439
O46	O	1.255866	0.575317	-0.365462
O47	O	1.589200	0.908650	-0.032129
O48	O	1.922533	1.241983	0.301205
O49	O	1.153480	0.570693	-0.451271
O50	O	1.486813	0.904026	-0.117938
O51	O	1.820147	1.237360	0.215396
C52	C	1.204680	0.599708	-0.408376
C53	C	1.538014	0.933041	-0.075042
C54	C	1.871347	1.266374	0.258291
C55	C	1.204719	0.681508	-0.408387
C56	C	1.538052	1.014842	-0.075054
C57	C	1.871386	1.348175	0.258280
C58	C	0.988161	0.398783	-0.398711
C59	C	1.321494	0.732116	-0.065378
C60	C	1.654828	1.065450	0.267955
C61	C	0.895496	0.394641	-0.394577
C62	C	1.228829	0.727975	-0.061244
C63	C	1.562162	1.061308	0.272089
C64	C	1.204808	0.408448	-0.600370
C65	C	1.538141	0.741782	-0.267036
C66	C	1.871474	1.075115	0.066297
C67	C	1.204825	0.408424	-0.682170
C68	C	1.538158	0.741757	-0.348836
C69	C	1.871491	1.075091	-0.015503
C70	C	0.725835	0.387063	-0.387036
C71	C	1.059168	0.720396	-0.053703
C72	C	1.392501	1.053730	0.279630
C73	C	0.684543	0.430002	-0.429848
C74	C	1.017876	0.763335	-0.096514
C75	C	1.351209	1.096669	0.236819
C76	C	0.590137	0.425785	-0.425652
C77	C	0.923471	0.759119	-0.092318
C78	C	1.256804	1.092452	0.241015
C79	C	0.820248	0.391279	-0.391231
C80	C	1.153582	0.724612	-0.057898
C81	C	1.486915	1.057945	0.275436
C82	C	1.422221	0.418266	-0.418157
C83	C	1.755555	0.751600	-0.084824
C84	C	2.088888	1.084933	0.248509
C85	C	1.514887	0.422426	-0.422309
C86	C	1.848220	0.755759	-0.088975
C87	C	2.181554	1.089092	0.244358
C88	C	1.204879	0.216557	-0.408472
C89	C	1.538213	0.549891	-0.075138
C90	C	1.871546	0.883224	0.258195
C91	C	1.204927	0.134761	-0.408496
C92	C	1.538260	0.468094	-0.075162
C93	C	1.871593	0.801427	0.258171
C94	C	1.258157	0.872091	-0.363798
C95	C	1.591490	1.205424	-0.030465
C96	C	1.924823	1.538758	0.302868
C97	C	1.258194	0.948951	-0.363818
C98	C	1.591527	1.282285	-0.030485
C99	C	1.924861	1.615618	0.302849
C100	C	1.151487	0.944173	-0.453089
C101	C	1.484820	1.277506	-0.119756
C102	C	1.818153	1.610839	0.213577
C103	C	1.151454	0.867314	-0.453073
C104	C	1.484788	1.200647	-0.119740
C105	C	1.818121	1.533980	0.213593
C106	C	1.204788	0.831275	-0.408424
C107	C	1.538121	1.164608	-0.075090
C108	C	1.871455	1.497942	0.258243
C109	C	1.204858	0.984994	-0.408459
C110	C	1.538191	1.318327	-0.075126
C111	C	1.871524	1.651661	0.258208
C112	C	1.204898	1.068329	-0.408481
C113	C	1.538231	1.401663	-0.075147
C114	C	1.871564	1.734996	0.258186
C115	C	1.204749	0.747934	-0.408403
C116	C	1.538083	1.081268	-0.075070
C117	C	1.871416	1.414601	0.258264
C118	C	1.151575	0.358933	-0.867991
C119	C	1.484908	0.692266	-0.534658
C120	C	1.818241	1.025599	-0.201325
C121	C	1.151589	0.358919	-0.944851
C122	C	1.484922	0.692252	-0.611518
C123	C	1.818256	1.025585	-0.278184
C124	C	1.258174	0.457832	-0.949590
C125	C	1.591507	0.791165	-0.616257
C126	C	1.924841	1.124499	-0.282923
C127	C	1.258155	0.457849	-0.872732
C128	C	1.591488	0.791182	-0.539398
C129	C	1.924821	1.124516	-0.206065
C130	C	1.204856	0.408395	-0.831935
C131	C	1.538190	0.741729	-0.498601
C132	C	1.871523	1.075062	-0.165268
C133	C	1.204890	0.408364	-0.985652
C134	C	1.538223	0.741697	-0.652319
C135	C	1.871557	1.075031	-0.318986
C136	C	1.204906	0.408349	-1.068987
C137	C	1.538240	0.741682	-0.735653
C138	C	1.871573	1.075016	-0.402320
C139	C	1.204839	0.408411	-0.748595
C140	C	1.538172	0.741744	-0.415261
C141	C	1.871506	1.075078	-0.081928
C142	C	1.204777	0.408511	-0.217209
C143	C	1.538110	0.741845	0.116124
C144	C	1.871444	1.075178	0.449457
C145	C	1.204922	0.408335	-0.135417
C146	C	1.538255	0.741669	0.197916
C147	C	1.871589	1.075002	0.531249
H148	H	0.720092	0.469929	-0.469652
H149	H	1.053425	0.803263	-0.136318
H150	H	1.386759	1.136596	0.197015
H151	H	1.301545	0.498130	-0.843374
H152	H	1.634878	0.831464	-0.510040
H153	H	1.968212	1.164797	-0.176707
F154	F	1.094870	0.306281	-0.983221
F155	F	1.428204	0.639615	-0.649888
F156	F	1.761537	0.972948	-0.316555
H157	H	0.690287	0.347138	-0.347236
H158	H	1.023621	0.680472	-0.013902
H159	H	1.356954	1.013805	0.319431
F160	F	1.314920	0.833738	-0.316279
F161	F	1.648253	1.167072	0.017054
F162	F	1.981587	1.500405	0.350387
F163	F	1.094848	0.306302	-0.824574
F164	F	1.428181	0.639635	-0.491241
F165	F	1.761514	0.972968	-0.157908
F166	F	1.314998	0.992388	-0.316323
F167	F	1.648332	1.325721	0.017010
F168	F	1.981665	1.659054	0.350343
H169	H	1.108063	0.973525	-0.489440
H170	H	1.441397	1.306858	-0.156107
H171	H	1.774730	1.640192	0.177226
F172	F	1.094653	0.823872	-0.500576
F173	F	1.427986	1.157205	-0.167242
F174	F	1.761319	1.490539	0.166091
H175	H	1.301568	0.498095	-0.982816
H176	H	1.634902	0.831428	-0.649483
H177	H	1.968235	1.164762	-0.316150
