data_functionalizedCrystal
_audit_creation_method	'MofGen! by Chris Wilmer'
_symmetry_space_group_name_H-M	'P1'
_symmetry_Int_Tables_number	1
_symmetry_cell_setting	triclinic
loop_
_symmetry_equiv_pos_as_xyz
  x,y,z
_cell_length_a	19.288864
_cell_length_b	17.038272
_cell_length_c	17.766277
_cell_angle_alpha	89.993732
_cell_angle_beta	89.976791
_cell_angle_gamma	87.123901
loop_
_atom_site_label
_atom_site_type_symbol
_atom_site_fract_x
_atom_site_fract_y
_atom_site_fract_z
O1	O	0.927386	0.097514	-0.062838
O2	O	1.427386	0.597514	0.437162
O3	O	0.725940	0.110668	-0.062787
O4	O	1.225940	0.610668	0.437213
O5	O	0.825466	-0.009720	-0.062806
O6	O	1.325466	0.490280	0.437194
O7	O	0.827860	0.217903	-0.062819
O8	O	1.327860	0.717903	0.437181
O9	O	0.825447	-0.009726	0.062382
O10	O	1.325447	0.490274	0.562382
O11	O	0.725920	0.110662	0.062402
O12	O	1.225920	0.610662	0.562402
O13	O	0.927367	0.097508	0.062351
O14	O	1.427367	0.597508	0.562351
Cu15	Cu	0.826642	0.104085	0.073807
Cu16	Cu	1.326642	0.604085	0.573807
Cu17	Cu	0.826665	0.104092	-0.074243
Cu18	Cu	1.326665	0.604092	0.425757
O19	O	0.827841	0.217897	0.062370
O20	O	1.327841	0.717897	0.562370
C21	C	0.700027	0.110242	-0.000186
C22	C	1.200027	0.610242	0.499814
C23	C	0.622845	0.108972	-0.000166
C24	C	1.122845	0.608972	0.499834
C25	C	0.823278	-0.038845	-0.000211
C26	C	1.323278	0.461155	0.499789
C27	C	0.816781	-0.125616	-0.000210
C28	C	1.316781	0.374384	0.499790
C29	C	0.582519	0.179610	-0.000182
C30	C	1.082519	0.679610	0.499818
C31	C	0.509998	0.178417	-0.000190
C32	C	1.009998	0.678417	0.499810
C33	C	0.477806	0.106580	-0.000198
C34	C	0.977806	0.606580	0.499802
C35	C	0.518141	0.035932	-0.000178
C36	C	1.018141	0.535932	0.499822
C37	C	0.590661	0.037128	-0.000162
C38	C	1.090661	0.537128	0.499838
C39	C	0.366057	0.050111	-0.044079
C40	C	0.866057	0.550111	0.455921
C41	C	0.293539	0.048918	-0.044100
C42	C	0.793539	0.548918	0.455900
C43	C	0.254132	0.102889	-0.000243
C44	C	0.754132	0.602889	0.499757
C45	C	0.287252	0.158066	0.043624
C46	C	0.787252	0.658066	0.543624
C47	C	0.359772	0.159262	0.043640
C48	C	0.859772	0.659262	0.543640
C49	C	0.399172	0.105276	-0.000214
C50	C	0.899172	0.605276	0.499786
C51	C	0.135171	0.172238	-0.000267
C52	C	0.635171	0.672238	0.499733
C53	C	0.062649	0.171042	-0.000270
C54	C	0.562649	0.671042	0.499730
C55	C	0.070793	0.028556	-0.000266
C56	C	0.570793	0.528556	0.499734
C57	C	0.143314	0.029754	-0.000254
C58	C	0.643314	0.529754	0.499746
C59	C	0.175498	0.101598	-0.000259
C60	C	0.675498	0.601598	0.499741
C61	C	0.876437	-0.175923	-0.000224
C62	C	1.376437	0.324077	0.499776
C63	C	0.870327	-0.257454	-0.000230
C64	C	1.370327	0.242546	0.499770
C65	C	0.804561	-0.288677	-0.000216
C66	C	1.304561	0.211323	0.499784
C67	C	0.744901	-0.238363	-0.000204
C68	C	1.244901	0.261637	0.499796
C69	C	0.751011	-0.156834	-0.000203
C70	C	1.251011	0.343166	0.499797
C71	C	0.782976	-0.534365	-0.000221
C72	C	1.282976	-0.034365	0.499779
C73	C	0.776870	-0.615900	-0.000219
C74	C	1.276870	-0.115900	0.499781
C75	C	0.902297	-0.634985	-0.000246
C76	C	1.402297	-0.134985	0.499754
C77	C	0.908402	-0.553454	-0.000241
C78	C	1.408402	-0.053454	0.499759
C79	C	0.848741	-0.503148	-0.000233
C80	C	1.348741	-0.003148	0.499767
C81	C	0.798315	-0.372014	-0.000219
C82	C	1.298315	0.127986	0.499781
C83	C	0.854988	-0.419812	-0.000235
C84	C	1.354988	0.080188	0.499765
C85	C	0.953279	0.097934	-0.000252
C86	C	1.453279	0.597934	0.499748
C87	C	1.030462	0.099205	-0.000277
C88	C	1.530462	0.599205	0.499723
C89	C	0.830029	0.247021	-0.000227
C90	C	1.330029	0.747021	0.499773
C91	C	0.836526	0.333793	-0.000233
C92	C	1.336526	0.833793	0.499767
N93	N	0.826631	0.104079	0.177937
N94	N	1.326631	0.604079	0.677937
N95	N	0.826681	0.104091	-0.178373
N96	N	1.326681	0.604091	0.321627
C97	C	0.870718	0.050797	0.217315
C98	C	1.370718	0.550797	0.717315
C99	C	0.870722	0.050793	0.296117
C100	C	1.370722	0.550793	0.796117
C101	C	0.826646	0.104085	0.335538
C102	C	1.326646	0.604085	0.835538
C103	C	0.782551	0.157371	0.296150
C104	C	1.282551	0.657371	0.796150
C105	C	0.782543	0.157368	0.217350
C106	C	1.282543	0.657368	0.717350
C107	C	0.821754	0.175309	0.460373
C108	C	1.321754	0.675309	0.960373
C109	C	0.821767	0.175313	0.539172
C110	C	1.321767	0.675313	1.039172
C111	C	0.826665	0.104095	0.578584
C112	C	1.326665	0.604095	1.078584
C113	C	0.831566	0.032869	0.539188
C114	C	1.331566	0.532869	1.039188
C115	C	0.831559	0.032866	0.460387
C116	C	1.331559	0.532866	0.960387
C117	C	0.826649	0.104094	0.420983
C118	C	1.326649	0.604094	0.920983
C119	C	0.870759	0.050804	0.703408
C120	C	1.370759	0.550804	1.203408
C121	C	0.870758	0.050800	0.782212
C122	C	1.370758	0.550800	1.282212
C123	C	0.782590	0.157384	0.782243
C124	C	1.282590	0.657384	1.282243
C125	C	0.782587	0.157382	0.703441
C126	C	1.282587	0.657382	1.203441
C127	C	0.826676	0.104093	0.664028
C128	C	1.326676	0.604093	1.164028
H129	H	0.608719	0.238111	-0.000187
H130	H	1.108719	0.738111	0.499813
C131	C	0.257114	-0.011782	-0.092349
C132	C	0.757114	0.488218	0.407651
N133	N	0.229681	-0.057505	-0.128688
N134	N	0.729681	0.442495	0.371312
C135	C	0.734074	0.216019	0.174032
C136	C	1.234074	0.716019	0.674032
N137	N	0.697578	0.260209	0.141404
N138	N	1.197578	0.760209	0.641404
C139	C	0.927329	-0.385464	-0.000247
C140	C	1.427329	0.114536	0.499753
N141	N	0.981816	-0.359587	-0.000251
N142	N	1.481816	0.140413	0.499749
H143	H	0.044583	-0.029935	-0.000318
H144	H	0.544583	0.470065	0.499682
H145	H	0.477159	0.235941	-0.000201
H146	H	0.977159	0.735941	0.499799
C147	C	0.725974	-0.406367	-0.000188
C148	C	1.225974	0.093633	0.499812
N149	N	0.671486	-0.432245	-0.000161
N150	N	1.171486	0.067755	0.499839
H151	H	0.906624	0.007403	0.328185
H152	H	1.406624	0.507403	0.828185
C153	C	0.396202	0.219948	0.091901
C154	C	0.896202	0.719948	0.591901
N155	N	0.423641	0.265655	0.128255
N156	N	0.923641	0.765655	0.628255
C157	C	0.948785	-0.141587	-0.000240
C158	C	1.448785	0.358413	0.499760
N159	N	1.003280	-0.115727	-0.000255
N160	N	1.503280	0.384273	0.499745
H161	H	0.491926	-0.022557	-0.000194
H162	H	0.991926	0.477443	0.499806
H163	H	0.176148	-0.027768	-0.000246
H164	H	0.676148	0.472232	0.499754
H165	H	0.746662	0.200761	0.328250
H166	H	1.246662	0.700761	0.828250
H167	H	0.950869	-0.675953	-0.000254
H168	H	1.450869	-0.175953	0.499746
C169	C	0.243911	0.217437	0.091873
C170	C	0.743911	0.717437	0.591873
N171	N	0.211263	0.262154	0.128212
N172	N	0.711263	0.762154	0.628212
C173	C	0.672557	-0.272711	-0.000182
C174	C	1.172557	0.227289	0.499818
N175	N	0.618066	-0.298581	-0.000160
N176	N	1.118066	0.201419	0.499840
H177	H	0.746700	0.200773	0.814338
H178	H	1.246700	0.700773	1.314338
H179	H	0.817780	0.233309	0.571243
H180	H	1.317780	0.733309	1.071243
C181	C	0.816365	0.253660	0.417028
C182	C	1.316365	0.753660	0.917028
N183	N	0.812306	0.312672	0.384381
N184	N	1.312306	0.812672	0.884381
C185	C	0.919210	-0.007831	0.173966
C186	C	1.419210	0.492169	0.673966
N187	N	0.955731	-0.051992	0.141315
N188	N	1.455731	0.448008	0.641315
C189	C	0.980749	-0.519116	-0.000256
C190	C	1.480749	-0.019116	0.499744
N191	N	1.035243	-0.493253	-0.000264
N192	N	1.535243	0.006747	0.499736
C193	C	0.836941	-0.045481	0.417054
C194	C	1.336941	0.454519	0.917054
N195	N	0.840990	-0.104493	0.384416
N196	N	1.340990	0.395507	0.884416
C197	C	0.836954	-0.045478	0.582535
C198	C	1.336954	0.454522	1.082535
N199	N	0.841012	-0.104486	0.615187
N200	N	1.341012	0.395514	1.115187
H201	H	0.734396	-0.493415	-0.000214
H202	H	1.234396	0.006585	0.499786
H203	H	0.702432	-0.115875	-0.000192
H204	H	1.202432	0.384125	0.499808
H205	H	0.161377	0.230738	-0.000259
H206	H	0.661377	0.730738	0.499741
C207	C	0.409397	-0.009262	-0.092331
C208	C	0.909397	0.490738	0.407669
N209	N	0.442040	-0.053980	-0.128675
N210	N	0.942040	0.446020	0.371325
H211	H	0.746691	0.200773	0.671377
H212	H	1.246691	0.700773	1.171377
H213	H	0.029816	0.228567	-0.000279
H214	H	0.529816	0.728567	0.499721
H215	H	0.623494	-0.020396	-0.000150
H216	H	1.123494	0.479604	0.499850
C217	C	0.704519	-0.650242	-0.000209
C218	C	1.204519	-0.150242	0.499791
N219	N	0.650028	-0.676109	-0.000201
N220	N	1.150028	-0.176109	0.499799
H221	H	0.918906	-0.298411	-0.000240
H222	H	1.418906	0.201589	0.499760
H223	H	0.906656	0.007410	0.671317
H224	H	1.406656	0.507410	1.171317
H225	H	0.906656	0.007407	0.814274
H226	H	1.406656	0.507407	1.314274
