data_functionalizedCrystal
_audit_creation_method	'MofGen! by Chris Wilmer'
_symmetry_space_group_name_H-M	'P1'
_symmetry_Int_Tables_number	1
_symmetry_cell_setting	triclinic
loop_
_symmetry_equiv_pos_as_xyz
  x,y,z
_cell_length_a	14.908571
_cell_length_b	19.121063
_cell_length_c	14.908308
_cell_angle_alpha	95.554627
_cell_angle_beta	90.175053
_cell_angle_gamma	89.303906
loop_
_atom_site_label
_atom_site_type_symbol
_atom_site_fract_x
_atom_site_fract_y
_atom_site_fract_z
Zn1	Zn	1.324072	-0.366417	-0.606393
Zn2	Zn	1.326220	-0.477475	-0.461735
Zn3	Zn	1.183168	-0.352931	-0.446699
Zn4	Zn	1.167296	-0.476641	-0.603344
O5	O	1.250189	-0.418366	-0.529543
O6	O	1.449836	-0.387142	-0.594773
O7	O	1.314785	-0.455659	-0.333644
O8	O	1.207604	-0.256469	-0.462866
O9	O	1.451414	-0.468736	-0.488493
O10	O	1.311125	-0.266377	-0.580193
O11	O	1.209686	-0.364157	-0.322597
O12	O	1.055584	-0.363348	-0.459909
O13	O	1.180551	-0.467315	-0.729845
O14	O	1.043922	-0.454238	-0.574995
O15	O	1.295734	-0.386334	-0.732085
O16	O	1.299394	-0.575616	-0.485536
O17	O	1.182633	-0.575003	-0.589576
C18	C	1.017218	-0.407239	-0.515490
C19	C	0.917550	-0.402497	-0.509501
C20	C	0.718169	-0.488362	-0.617938
C21	C	0.624521	-0.483909	-0.612314
C22	C	0.636605	-0.389134	-0.492633
C23	C	0.730253	-0.393588	-0.498257
C24	C	0.771031	-0.443204	-0.560911
C25	C	0.864680	-0.447660	-0.566530
C26	C	0.876762	-0.352883	-0.446854
C27	C	0.783115	-0.348429	-0.441230
C28	C	1.239548	-0.600787	-0.538878
C29	C	1.235075	-0.678833	-0.542906
C30	C	1.293807	-0.715799	-0.490682
C31	C	1.289606	-0.789131	-0.494476
C32	C	1.226668	-0.825496	-0.550491
C33	C	1.167934	-0.788525	-0.602722
C34	C	1.172140	-0.715194	-0.598932
C35	C	1.210929	-1.046893	-0.564648
C36	C	1.206726	-1.120229	-0.568432
C37	C	1.328400	-1.120830	-0.460187
C38	C	1.332596	-1.047498	-0.456398
C39	C	1.273865	-1.010533	-0.508632
C40	C	1.222371	-0.900454	-0.554369
C41	C	1.278168	-0.935578	-0.504758
C42	C	1.484070	-0.429537	-0.543650
C43	C	1.583736	-0.434297	-0.549662
C44	C	1.236132	-0.428235	-0.764574
C45	C	1.230142	-0.432441	-0.864731
C46	C	1.260895	-0.235235	-0.520192
C47	C	1.265458	-0.157195	-0.516207
C48	C	1.338824	-0.356002	-1.055270
C49	C	1.333199	-0.359951	-1.149376
C50	C	1.213262	-0.444285	-1.147051
C51	C	1.218888	-0.440335	-1.052945
C52	C	1.281672	-0.396193	-1.007057
C53	C	1.287301	-0.392248	-0.912950
C54	C	1.167360	-0.476578	-0.910626
C55	C	1.161735	-0.480527	-1.004732
C56	C	1.264246	-0.408487	-0.295425
C57	C	1.270421	-0.404092	-0.195270
H58	H	0.603387	-0.348735	-0.441629
H59	H	1.163106	-1.016803	-0.607177
H60	H	0.749900	-0.308032	-0.390222
H61	H	1.389949	-0.320063	-1.017908
O62	O	0.757641	-0.536577	-0.678871
C63	C	0.690901	-0.575496	-0.727981
H64	H	0.625627	-0.543702	-0.725681
H65	H	0.713292	-0.587340	-0.800975
H66	H	0.679817	-0.626917	-0.696999
O67	O	1.388812	-0.320887	-1.196074
C68	C	1.445413	-0.281067	-1.135387
H69	H	1.450848	-0.307158	-1.069962
H70	H	1.514874	-0.278089	-1.166453
H71	H	1.416287	-0.225756	-1.120674
H72	H	1.162146	-0.480223	-1.184428
H73	H	1.110617	-0.516465	-1.042106
O74	O	1.111963	-0.515659	-0.863706
C75	C	1.163618	-0.561175	-0.814688
H76	H	1.233860	-0.539063	-0.803417
H77	H	1.130499	-0.566069	-0.746794
H78	H	1.168265	-0.615196	-0.854215
H79	H	0.897880	-0.488061	-0.617545
H80	H	1.155484	-1.149837	-0.614063
O81	O	0.573129	-0.527678	-0.667796
C82	C	0.517792	-0.487641	-0.720764
H83	H	0.548891	-0.433929	-0.725306
H84	H	0.511120	-0.515976	-0.791300
H85	H	0.448621	-0.480645	-0.688518
O86	O	1.354903	-0.680546	-0.436143
C87	C	1.339707	-0.693792	-0.346066
H88	H	1.302297	-0.745334	-0.344846
H89	H	1.406725	-0.697668	-0.309748
H90	H	1.297813	-0.649087	-0.310767
H91	H	0.919813	-0.316113	-0.400417
H92	H	1.116692	-0.818140	-0.648335
O93	O	1.393701	-1.012249	-0.401866
C94	C	1.378510	-1.025494	-0.311788
H95	H	1.341096	-1.077034	-0.310565
H96	H	1.445530	-1.029373	-0.275474
H97	H	1.336621	-0.980786	-0.276487
O98	O	1.114998	-0.679389	-0.649694
C99	C	1.058561	-0.727210	-0.699967
H100	H	1.054686	-0.777799	-0.665569
H101	H	0.988548	-0.703093	-0.704177
H102	H	1.086811	-0.739408	-0.770804
O103	O	1.346843	-0.824920	-0.443795
C104	C	1.436005	-0.811966	-0.468098
H105	H	1.438708	-0.760265	-0.500138
H106	H	1.480333	-0.808574	-0.405421
H107	H	1.461073	-0.856583	-0.518385
H108	H	1.329415	-0.905967	-0.459154
H109	H	1.338424	-0.356306	-0.875590
O110	O	1.385418	-1.156849	-0.409551
C111	C	1.368202	-1.229370	-0.424891
H112	H	1.334037	-1.240896	-0.493145
H113	H	1.434142	-1.260145	-0.424336
H114	H	1.322508	-1.245711	-0.369598
O115	O	1.161347	-0.935866	-0.608830
C116	C	1.206440	-0.983097	-0.672351
H117	H	1.275694	-0.995952	-0.645296
H118	H	1.166235	-1.033450	-0.684850
H119	H	1.213856	-0.958082	-0.738269
