data_functionalizedCrystal
_audit_creation_method	'MofGen! by Chris Wilmer'
_symmetry_space_group_name_H-M	'P1'
_symmetry_Int_Tables_number	1
_symmetry_cell_setting	triclinic
loop_
_symmetry_equiv_pos_as_xyz
  x,y,z
_cell_length_a	19.805407
_cell_length_b	18.050589
_cell_length_c	19.805399
_cell_angle_alpha	90.023701
_cell_angle_beta	90.016886
_cell_angle_gamma	90.028221
loop_
_atom_site_label
_atom_site_type_symbol
_atom_site_fract_x
_atom_site_fract_y
_atom_site_fract_z
Zn1	Zn	1.034709	-0.295666	0.382745
Zn2	Zn	1.034626	-0.419862	0.269567
Zn3	Zn	0.921529	-0.295690	0.269569
Zn4	Zn	0.921484	-0.419819	0.382713
O5	O	0.978087	-0.357759	0.326148
O6	O	1.129415	-0.312149	0.367743
O7	O	1.019607	-0.403418	0.174850
O8	O	0.936597	-0.191762	0.284596
O9	O	1.129353	-0.403395	0.284592
O10	O	1.019750	-0.191745	0.367746
O11	O	0.936516	-0.312189	0.174852
O12	O	0.826807	-0.312148	0.284566
O13	O	0.936519	-0.403322	0.477434
O14	O	0.826773	-0.403345	0.367693
O15	O	1.019706	-0.312108	0.477457
O16	O	1.019563	-0.523781	0.284562
O17	O	0.936438	-0.523749	0.367690
C18	C	0.802231	-0.357745	0.326127
C19	C	0.726999	-0.357757	0.326133
C20	C	0.691655	-0.405315	0.369347
C21	C	0.620967	-0.405316	0.369357
C22	C	0.585623	-0.357763	0.326148
C23	C	0.620972	-0.310200	0.282933
C24	C	0.691659	-0.310195	0.282927
C25	C	0.335899	-0.310216	0.282955
C26	C	0.265207	-0.310226	0.282962
C27	C	0.265206	-0.405337	0.369385
C28	C	0.335893	-0.405332	0.369379
C29	C	0.371236	-0.357767	0.326166
C30	C	0.447884	-0.357765	0.326157
C31	C	0.508976	-0.357768	0.326153
C32	C	0.978005	-0.550711	0.326137
C33	C	0.978032	-0.633257	0.326155
C34	C	0.932873	-0.832718	0.371344
C35	C	0.916378	-0.882158	0.309581
C36	C	0.978099	-0.784387	0.326164
C37	C	0.994627	-0.882029	0.387934
C38	C	0.978162	-0.930373	0.326178
C39	C	0.961571	-0.832741	0.264368
C40	C	1.039849	-0.832607	0.342762
C41	C	1.023377	-0.882025	0.280957
C42	C	0.978061	-0.700289	0.326157
C43	C	0.978200	-1.014469	0.326178
C44	C	1.154630	-0.357774	0.326171
C45	C	1.229862	-0.357780	0.326180
C46	C	0.978117	-0.357708	0.502691
C47	C	0.978129	-0.357686	0.577923
C48	C	0.978187	-0.164054	0.326175
C49	C	0.978230	-0.081508	0.326186
C50	C	0.978096	-0.357757	0.150292
C51	C	0.978215	-0.357570	0.075061
C52	C	0.934876	-0.310179	0.613268
C53	C	0.934885	-0.310164	0.683956
C54	C	0.978152	-0.357654	0.719299
C55	C	1.021407	-0.405166	0.683949
C56	C	1.021394	-0.405184	0.613262
C57	C	1.021461	-0.405096	0.969023
C58	C	1.021472	-0.405074	1.039715
C59	C	0.934952	-0.310077	1.039717
C60	C	0.934939	-0.310095	0.969030
C61	C	0.978191	-0.357609	0.933686
C62	C	0.978180	-0.357626	0.857038
C63	C	0.978167	-0.357634	0.795946
H64	H	0.720435	-0.271465	0.247741
O65	O	0.370329	-0.264043	0.241037
C66	C	0.440299	-0.274243	0.250281
H67	H	0.449968	-0.298634	0.302478
H68	H	0.467181	-0.218606	0.245769
H69	H	0.460327	-0.313736	0.210072
O70	O	0.944753	-0.807115	0.202031
C71	C	0.879870	-0.832962	0.184549
H72	H	0.867926	-0.885108	0.214730
H73	H	0.878344	-0.846271	0.128296
H74	H	0.840873	-0.788409	0.196482
H75	H	1.056672	-0.443794	0.940255
O76	O	1.068960	-0.907663	0.235241
C77	C	1.051325	-0.882399	0.170235
H78	H	0.995164	-0.868670	0.168894
H79	H	1.062730	-0.927475	0.131557
H80	H	1.081821	-0.830624	0.157688
O81	O	0.887092	-0.806917	0.416785
C82	C	0.822089	-0.832185	0.399043
H83	H	0.820855	-0.846072	0.342901
H84	H	0.783450	-0.787049	0.410292
H85	H	0.809400	-0.883864	0.429590
H86	H	0.236432	-0.271497	0.247777
H87	H	0.864187	-0.903940	0.295555
H88	H	1.092028	-0.810827	0.356819
O89	O	0.230769	-0.451468	0.411347
C90	C	0.160799	-0.441290	0.402081
H91	H	0.151157	-0.383946	0.380006
H92	H	0.133955	-0.446404	0.452776
H93	H	0.140707	-0.485290	0.365969
O94	O	1.011201	-0.907770	0.450297
C95	C	0.963342	-0.882663	0.497755
H96	H	0.937549	-0.830701	0.477671
H97	H	0.989840	-0.869296	0.547395
H98	H	0.923936	-0.927688	0.506575
O99	O	0.586537	-0.264072	0.240985
C100	C	0.516567	-0.274259	0.250267
H101	H	0.506898	-0.331606	0.272342
H102	H	0.489685	-0.269146	0.199579
H103	H	0.496540	-0.230264	0.286385
H104	H	0.364667	-0.444058	0.404562
H105	H	0.899647	-0.271503	0.584497
H106	H	0.899661	-0.271482	0.712731
O107	O	0.892845	-0.263940	0.934803
C108	C	0.854681	-0.221992	0.981158
H109	H	0.852331	-0.252396	1.031542
H110	H	0.801353	-0.214073	0.960729
H111	H	0.879496	-0.165588	0.988687
H112	H	0.899732	-0.271390	1.068502
O113	O	1.063596	-0.451175	1.073972
C114	C	1.131063	-0.434951	1.056721
H115	H	1.132473	-0.406419	1.005400
H116	H	1.161380	-0.488555	1.054300
H117	H	1.153891	-0.396761	1.096511
H118	H	1.056632	-0.443836	0.712731
O119	O	1.063473	-0.451357	0.579031
C120	C	1.101652	-0.493284	0.625381
H121	H	1.104027	-0.462850	0.675773
H122	H	1.154970	-0.501223	0.604959
H123	H	1.076832	-0.549679	0.632890
H124	H	0.720427	-0.444041	0.404530
H125	H	0.592193	-0.444043	0.404545
