data_functionalizedCrystal
_audit_creation_method	'MofGen! by Chris Wilmer'
_symmetry_space_group_name_H-M	'P1'
_symmetry_Int_Tables_number	1
_symmetry_cell_setting	triclinic
loop_
_symmetry_equiv_pos_as_xyz
  x,y,z
_cell_length_a	18.215407
_cell_length_b	18.215405
_cell_length_c	11.169409
_cell_angle_alpha	89.960202
_cell_angle_beta	89.979148
_cell_angle_gamma	90.022329
loop_
_atom_site_label
_atom_site_type_symbol
_atom_site_fract_x
_atom_site_fract_y
_atom_site_fract_z
Zn1	Zn	1.125097	-0.292975	-0.678513
Zn2	Zn	1.124998	-0.416066	-0.477804
Zn3	Zn	1.002022	-0.293012	-0.477844
Zn4	Zn	1.001996	-0.415999	-0.678445
O5	O	1.063528	-0.354513	-0.578152
O6	O	1.228068	-0.309316	-0.651901
O7	O	1.108655	-0.399787	-0.309860
O8	O	1.018401	-0.190023	-0.504508
O9	O	1.227996	-0.399750	-0.504440
O10	O	1.108824	-0.189996	-0.651939
O11	O	1.018305	-0.309380	-0.309889
O12	O	0.899035	-0.309314	-0.504443
O13	O	1.018356	-0.399636	-0.846404
O14	O	0.899015	-0.399672	-0.651823
O15	O	1.108798	-0.309250	-0.846454
O16	O	1.108629	-0.519041	-0.504374
O17	O	1.018260	-0.518992	-0.651785
C18	C	0.872322	-0.354490	-0.578131
C19	C	0.790523	-0.354498	-0.578150
C20	C	0.602366	-0.307506	-0.655054
C21	C	0.525507	-0.307512	-0.655058
C22	C	0.525443	-0.401541	-0.501271
C23	C	0.602300	-0.401530	-0.501261
C24	C	0.640760	-0.354514	-0.578160
C25	C	0.487044	-0.354531	-0.578173
C26	C	0.403710	-0.354538	-0.578177
C27	C	0.724099	-0.354506	-0.578155
C28	C	1.063451	-0.545719	-0.578094
C29	C	1.063485	-0.627518	-0.578109
C30	C	1.110651	-0.815713	-0.501494
C31	C	1.110683	-0.892572	-0.501523
C32	C	1.016500	-0.892561	-0.654896
C33	C	1.016472	-0.815703	-0.654872
C34	C	1.063546	-0.777282	-0.578164
C35	C	1.063607	-0.930998	-0.578217
C36	C	1.063643	-1.014331	-0.578249
C37	C	1.063512	-0.693943	-0.578133
C38	C	1.255481	-0.354536	-0.578174
C39	C	1.337280	-0.354546	-0.578183
C40	C	1.063585	-0.354431	-0.891194
C41	C	1.063609	-0.354396	-1.024594
C42	C	1.063626	-0.162560	-0.578236
C43	C	1.063668	-0.080761	-0.578272
C44	C	1.063514	-0.354541	-0.266327
C45	C	1.063633	-0.354369	-0.132928
H46	H	0.633678	-0.269220	-0.717666
H47	H	0.494251	-0.269233	-0.717671
Br48	Br	1.174618	-0.944727	-0.397473
Br49	Br	0.473243	-0.465346	-0.396915
H50	H	0.978113	-0.784410	-0.717311
Br51	Br	0.654410	-0.465321	-0.396880
Br52	Br	0.952616	-0.944709	-0.758992
Br53	Br	1.174537	-0.763572	-0.397392
