data_functionalizedCrystal
_audit_creation_method	'MofGen! by Chris Wilmer'
_symmetry_space_group_name_H-M	'P1'
_symmetry_Int_Tables_number	1
_symmetry_cell_setting	triclinic
loop_
_symmetry_equiv_pos_as_xyz
  x,y,z
_cell_length_a	21.295411
_cell_length_b	13.897449
_cell_length_c	21.295417
_cell_angle_alpha	90.029139
_cell_angle_beta	90.018119
_cell_angle_gamma	90.023385
loop_
_atom_site_label
_atom_site_type_symbol
_atom_site_fract_x
_atom_site_fract_y
_atom_site_fract_z
Zn1	Zn	-0.355907	-1.474660	0.250659
Zn2	Zn	0.144093	-0.974660	0.750659
Zn3	Zn	-0.250639	-1.474518	0.355911
Zn4	Zn	0.249361	-0.974518	0.855911
Zn5	Zn	-0.250654	-1.313341	0.250662
Zn6	Zn	0.249346	-0.813341	0.750662
Zn7	Zn	-0.355873	-1.313302	0.355897
Zn8	Zn	0.144127	-0.813302	0.855897
O9	O	-0.303268	-1.393955	0.303282
O10	O	0.196732	-0.893955	0.803282
O11	O	-0.341951	-1.609622	0.264626
O12	O	0.158049	-1.109622	0.764626
O13	O	-0.162552	-1.453094	0.341957
O14	O	0.337448	-0.953094	0.841957
O15	O	-0.264637	-1.334817	0.162572
O16	O	0.235363	-0.834817	0.662572
O17	O	-0.264611	-1.609518	0.341954
O18	O	0.235389	-1.109518	0.841954
O19	O	-0.341966	-1.453336	0.162570
O20	O	0.158034	-0.953336	0.662570
O21	O	-0.162563	-1.334679	0.264631
O22	O	0.337437	-0.834679	0.764631
O23	O	-0.264604	-1.178354	0.264617
O24	O	0.235396	-0.678354	0.764617
O25	O	-0.443967	-1.334749	0.341930
O26	O	0.056033	-0.834749	0.841930
O27	O	-0.341907	-1.178326	0.341933
O28	O	0.158093	-0.678326	0.841933
O29	O	-0.443992	-1.453298	0.264612
O30	O	0.056008	-0.953298	0.764612
O31	O	-0.264578	-1.453056	0.443999
O32	O	0.235422	-0.953056	0.943999
O33	O	-0.341893	-1.334612	0.443988
O34	O	0.158107	-0.834612	0.943988
C35	C	-0.303254	-1.143341	0.303274
C36	C	0.196746	-0.643341	0.803274
C37	C	-0.303263	-1.036127	0.303286
C38	C	0.196737	-0.536127	0.803286
C39	C	-0.467459	-1.394035	0.303269
C40	C	0.032541	-0.894035	0.803269
C41	C	-0.537427	-1.394069	0.303264
C42	C	-0.037427	-0.894069	0.803264
C43	C	-0.303244	-1.393840	0.466834
C44	C	0.196756	-0.893840	0.966834
C45	C	-0.303254	-1.393879	0.536802
C46	C	0.196746	-0.893879	1.036802
C47	C	-0.570308	-1.455795	0.263002
C48	C	-0.070308	-0.955795	0.763002
C49	C	-0.636050	-1.455794	0.262975
C50	C	-0.136050	-0.955794	0.762975
C51	C	-0.668909	-1.394077	0.303220
C52	C	-0.168909	-0.894077	0.803220
C53	C	-0.636021	-1.332339	0.343484
C54	C	-0.136021	-0.832339	0.843484
C55	C	-0.570279	-1.332335	0.343506
C56	C	-0.070279	-0.832335	0.843506
N57	N	-0.772128	-1.386639	0.358288
N58	N	-0.272128	-0.886639	0.858288
N59	N	-0.834580	-1.386648	0.358266
N60	N	-0.334580	-0.886648	0.858266
C61	C	-0.866984	-1.394083	0.303156
C62	C	-0.366984	-0.894083	0.803156
N63	N	-0.834578	-1.401527	0.248069
N64	N	-0.334578	-0.901527	0.748069
N65	N	-0.772121	-1.401523	0.248092
N66	N	-0.272121	-0.901523	0.748092
C67	C	-0.740195	-1.394074	0.303201
C68	C	-0.240195	-0.894074	0.803201
C69	C	-0.971151	-1.455810	0.262862
C70	C	-0.471151	-0.955810	0.762862
C71	C	-1.036894	-1.455802	0.262834
C72	C	-0.536894	-0.955802	0.762834
C73	C	-1.036864	-1.332353	0.343349
C74	C	-0.536864	-0.832353	0.843349
C75	C	-0.971121	-1.332356	0.343371
C76	C	-0.471121	-0.832356	0.843371
C77	C	-0.938268	-1.394090	0.303129
C78	C	-0.438268	-0.894090	0.803129
C79	C	-0.139717	-1.393931	0.303250
C80	C	0.360283	-0.893931	0.803250
C81	C	-0.069749	-1.394084	0.303079
C82	C	0.430251	-0.894084	0.803079
C83	C	-0.303283	-1.645548	0.303291
C84	C	0.196717	-1.145548	0.803291
C85	C	-0.303289	-1.752762	0.303295
C86	C	0.196711	-1.252762	0.803295
C87	C	-0.303279	-0.839832	0.303288
C88	C	0.196721	-0.339832	0.803288
C89	C	-0.303268	-0.949064	0.303285
C90	C	0.196732	-0.449064	0.803285
C91	C	-0.263135	-1.455852	1.036245
C92	C	0.236865	-0.955852	1.536245
C93	C	-0.263118	-1.455816	0.970502
C94	C	0.236882	-0.955816	1.470502
C95	C	-0.303333	-1.394083	0.937642
C96	C	0.196667	-0.894083	1.437642
C97	C	-0.343556	-1.332364	0.970529
C98	C	0.156444	-0.832364	1.470529
C99	C	-0.343567	-1.332395	1.036270
C100	C	0.156433	-0.832395	1.536270
N101	N	-0.358412	-1.386593	0.834399
N102	N	0.141588	-0.886593	1.334399
N103	N	-0.358400	-1.386569	0.771947
N104	N	0.141600	-0.886569	1.271947
C105	C	-0.303300	-1.393985	0.739567
C106	C	0.196700	-0.893985	1.239567
N107	N	-0.248212	-1.401444	0.771997
N108	N	0.251788	-0.901444	1.271997
N109	N	-0.248225	-1.401473	0.834454
N110	N	0.251775	-0.901473	1.334454
C111	C	-0.303325	-1.394042	0.866356
C112	C	0.196675	-0.894042	1.366356
C113	C	-0.263058	-1.455656	0.635402
C114	C	0.236942	-0.955656	1.135402
C115	C	-0.263040	-1.455614	0.569658
C116	C	0.236960	-0.955614	1.069658
C117	C	-0.343483	-1.332167	0.569686
C118	C	0.156517	-0.832167	1.069686
C119	C	-0.343495	-1.332205	0.635429
C120	C	0.156505	-0.832205	1.135429
C121	C	-0.303284	-1.393955	0.668283
C122	C	0.196716	-0.893955	1.168283
C123	C	-0.303315	-1.394094	1.139092
C124	C	0.196685	-0.894094	1.639092
C125	C	-0.303356	-1.394145	1.069124
C126	C	0.196644	-0.894145	1.569124
H127	H	-0.662827	-1.506056	0.230186
H128	H	-0.162827	-1.006056	0.730186
C129	C	-1.073066	-1.523714	0.218553
C130	C	-0.573066	-1.023714	0.718553
H131	H	-1.116925	-1.514872	0.224300
H132	H	-0.616925	-1.014872	0.724300
H133	H	-1.062306	-1.588510	0.227782
H134	H	-0.562306	-1.088510	0.727782
H135	H	-1.062290	-1.509644	0.176255
H136	H	-0.562290	-1.009644	0.676255
C137	C	-0.387717	-1.264257	0.533551
C138	C	0.112283	-0.764257	1.033551
H139	H	-0.411671	-1.227507	0.562551
H140	H	0.088329	-0.727507	1.062551
H141	H	-0.415163	-1.301115	0.507869
H142	H	0.084837	-0.801115	1.007869
H143	H	-0.363600	-1.222232	0.507943
H144	H	0.136400	-0.722232	1.007943
H145	H	-0.662779	-1.282086	0.376250
H146	H	-0.162779	-0.782086	0.876250
C147	C	-0.218821	-1.523565	0.671544
C148	C	0.281179	-1.023565	1.171544
H149	H	-0.194856	-1.560300	0.642543
H150	H	0.305144	-1.060300	1.142543
H151	H	-0.242929	-1.565589	0.697155
H152	H	0.257071	-1.065589	1.197155
H153	H	-0.191375	-1.486692	0.697222
H154	H	0.308625	-0.986692	1.197222
C155	C	-0.534106	-1.264440	0.387796
C156	C	-0.034106	-0.764440	0.887796
H157	H	-0.490248	-1.273275	0.382043
H158	H	0.009752	-0.773275	0.882043
H159	H	-0.544885	-1.278516	0.430089
H160	H	-0.044885	-0.778516	0.930089
H161	H	-0.544862	-1.199635	0.378572
H162	H	-0.044862	-0.699635	0.878572
C163	C	-0.387816	-1.264522	1.072439
C164	C	0.112184	-0.764522	1.572439
H165	H	-0.411767	-1.227753	1.043455
H166	H	0.088233	-0.727753	1.543455
H167	H	-0.363717	-1.222528	1.098123
H168	H	0.136283	-0.722528	1.598123
H169	H	-0.415274	-1.301421	1.098047
H170	H	0.084726	-0.801421	1.598047
C171	C	-0.387745	-1.264341	0.671601
C172	C	0.112255	-0.764341	1.171601
H173	H	-0.381990	-1.273197	0.715460
H174	H	0.118010	-0.773197	1.215460
H175	H	-0.430046	-1.278420	0.660797
H176	H	0.069954	-0.778420	1.160797
H177	H	-0.378489	-1.199528	0.660868
H178	H	0.121511	-0.699528	1.160868
C179	C	-0.534170	-1.523687	0.218732
C180	C	-0.034170	-1.023687	0.718732
H181	H	-0.490307	-1.514851	0.224513
H182	H	0.009693	-1.014851	0.724513
H183	H	-0.544943	-1.509609	0.176434
H184	H	-0.044943	-1.009609	0.676434
H185	H	-0.544959	-1.588494	0.227948
H186	H	-0.044959	-1.088494	0.727948
C187	C	-0.935010	-1.523697	0.218588
C188	C	-0.435010	-1.023697	0.718588
H189	H	-0.964011	-1.560447	0.194597
H190	H	-0.464011	-1.060447	0.694597
H191	H	-0.909374	-1.565708	0.242673
H192	H	-0.409374	-1.065708	0.742673
H193	H	-0.909357	-1.486808	0.191169
H194	H	-0.409357	-0.986808	0.691169
H195	H	-1.063617	-1.282092	0.376110
H196	H	-0.563617	-0.782092	0.876110
C197	C	-0.934950	-1.264464	0.387664
C198	C	-0.434950	-0.764464	0.887664
H199	H	-0.963934	-1.227711	0.411632
H200	H	-0.463934	-0.727711	0.911632
H201	H	-0.909294	-1.222456	0.363591
H202	H	-0.409294	-0.722456	0.863591
H203	H	-0.909315	-1.301343	0.415104
H204	H	-0.409315	-0.801343	0.915104
H205	H	-0.376298	-1.282099	0.943771
H206	H	0.123702	-0.782099	1.443771
C207	C	-0.218796	-1.523496	0.533491
C208	C	0.281204	-1.023496	1.033491
H209	H	-0.194856	-1.560280	0.562475
H210	H	0.305144	-1.060280	1.062475
H211	H	-0.191338	-1.486614	0.507879
H212	H	0.308662	-0.986614	1.007879
H213	H	-0.242905	-1.565490	0.507811
H214	H	0.257095	-1.065490	1.007811
C215	C	-0.218898	-1.523763	1.072380
C216	C	0.281102	-1.023763	1.572380
H217	H	-0.194938	-1.560503	1.043379
H218	H	0.305062	-1.060503	1.543379
H219	H	-0.243006	-1.565783	1.097995
H220	H	0.256994	-1.065783	1.597995
H221	H	-0.191448	-1.486892	1.098056
H222	H	0.308552	-0.986892	1.598056
H223	H	-0.230365	-1.506067	0.943727
H224	H	0.269635	-1.006067	1.443727
