data_functionalizedCrystal
_audit_creation_method	'MofGen! by Chris Wilmer'
_symmetry_space_group_name_H-M	'P1'
_symmetry_Int_Tables_number	1
_symmetry_cell_setting	triclinic
loop_
_symmetry_equiv_pos_as_xyz
  x,y,z
_cell_length_a	10.686220
_cell_length_b	13.897448
_cell_length_c	10.688615
_cell_angle_alpha	94.355781
_cell_angle_beta	98.316027
_cell_angle_gamma	94.399460
loop_
_atom_site_label
_atom_site_type_symbol
_atom_site_fract_x
_atom_site_fract_y
_atom_site_fract_z
Zn1	Zn	1.885875	-0.306717	-0.568781
Zn2	Zn	2.219208	0.026616	-0.235448
Zn3	Zn	2.552542	0.359949	0.097886
Zn4	Zn	1.901860	-0.454617	-0.356627
Zn5	Zn	2.235194	-0.121284	-0.023294
Zn6	Zn	2.568527	0.212049	0.310040
Zn7	Zn	1.689747	-0.306750	-0.372892
Zn8	Zn	2.023081	0.026584	-0.039559
Zn9	Zn	2.356414	0.359917	0.293775
Zn10	Zn	1.673605	-0.481389	-0.584976
Zn11	Zn	2.006938	-0.148056	-0.251642
Zn12	Zn	2.340271	0.185278	0.081691
O13	O	1.787772	-0.387368	-0.470819
O14	O	2.121105	-0.054035	-0.137485
O15	O	2.454439	0.279298	0.195848
O16	O	2.065602	-0.315119	-0.527054
O17	O	2.398935	0.018214	-0.193720
O18	O	2.732268	0.351548	0.139613
O19	O	1.887169	-0.423812	-0.181240
O20	O	2.220502	-0.090479	0.152094
O21	O	2.553835	0.242855	0.485427
O22	O	1.715830	-0.171762	-0.398906
O23	O	2.049163	0.161572	-0.065573
O24	O	2.382497	0.494905	0.267760
O25	O	2.077346	-0.423781	-0.371185
O26	O	2.410679	-0.090447	-0.037852
O27	O	2.744013	0.242886	0.295482
O28	O	1.859924	-0.171738	-0.542825
O29	O	2.193257	0.161595	-0.209492
O30	O	2.526591	0.494929	0.123841
O31	O	1.731330	-0.315174	-0.193189
O32	O	2.064663	0.018159	0.140144
O33	O	2.397997	0.351492	0.473477
O34	O	1.510000	-0.341134	-0.414610
O35	O	1.843333	-0.007800	-0.081276
O36	O	2.176667	0.325533	0.252057
O37	O	1.688317	-0.469409	-0.760372
O38	O	2.021651	-0.136076	-0.427039
O39	O	2.354984	0.197258	-0.093706
O40	O	1.498140	-0.469440	-0.570427
O41	O	1.831474	-0.136107	-0.237093
O42	O	2.164807	0.197226	0.096240
O43	O	1.844271	-0.341078	-0.748474
O44	O	2.177605	-0.007745	-0.415141
O45	O	2.510938	0.325588	-0.081807
O46	O	1.871516	-0.593153	-0.386888
O47	O	2.204849	-0.259819	-0.053555
O48	O	2.538183	0.073514	0.279778
O49	O	1.703818	-0.612821	-0.554655
O50	O	2.037151	-0.279488	-0.221322
O51	O	2.370484	0.053845	0.112011
C52	C	1.458019	-0.408196	-0.496041
C53	C	1.791352	-0.074863	-0.162708
C54	C	2.124685	0.258470	0.170625
C55	C	1.316947	-0.417132	-0.506862
C56	C	1.650280	-0.083798	-0.173528
C57	C	1.983613	0.249535	0.159805
C58	C	1.787682	-0.637986	-0.470789
C59	C	2.121015	-0.304653	-0.137456
C60	C	2.454349	0.028680	0.195877
C61	C	1.787757	-0.745197	-0.470810
C62	C	2.121090	-0.411864	-0.137477
C63	C	2.454423	-0.078530	0.195857
C64	C	1.787884	-0.941489	-0.470879
C65	C	2.121217	-0.608155	-0.137546
C66	C	2.454550	-0.274822	0.195787
C67	C	1.787809	-0.832259	-0.470845
C68	C	2.121142	-0.498925	-0.137512
C69	C	2.454476	-0.165592	0.195822
C70	C	2.118813	-0.366460	-0.445499
C71	C	2.452146	-0.033127	-0.112165
C72	C	2.785479	0.300207	0.221168
C73	C	2.259882	-0.357550	-0.434709
C74	C	2.593216	-0.024217	-0.101375
C75	C	2.926549	0.309117	0.231958
C76	C	1.762711	-0.408226	-0.801746
C77	C	2.096044	-0.074893	-0.468412
C78	C	2.429377	0.258440	-0.135079
C79	C	1.752031	-0.417115	-0.942767
C80	C	2.085364	-0.083781	-0.609434
C81	C	2.418698	0.249552	-0.276100
C82	C	1.787895	-0.135771	-0.470874
C83	C	2.121228	0.197562	-0.137540
C84	C	2.454561	0.530895	0.195793
C85	C	1.787947	-0.028556	-0.470897
C86	C	2.121280	0.304778	-0.137564
C87	C	2.454613	0.638111	0.195770
C88	C	1.812809	-0.366517	-0.141174
C89	C	2.146142	-0.033184	0.192160
C90	C	2.479475	0.300149	0.525493
C91	C	1.823734	-0.357342	-0.000134
C92	C	2.157067	-0.024009	0.333199
C93	C	2.490401	0.309325	0.666532
H94	H	1.257871	-0.474987	-0.576911
H95	H	1.591205	-0.141653	-0.243577
H96	H	1.924538	0.191680	0.089756
N97	N	1.916141	-0.280257	0.077722
N98	N	2.249474	0.053076	0.411055
N99	N	2.582808	0.386410	0.744389
H100	H	1.911121	-0.284410	0.170820
H101	H	2.244455	0.048923	0.504153
H102	H	2.577788	0.382257	0.837487
H103	H	2.005135	-0.290541	0.061449
H104	H	2.338468	0.042792	0.394782
H105	H	2.671801	0.376126	0.728116
N106	N	1.659617	-0.494195	-0.020645
N107	N	1.992951	-0.160862	0.312689
N108	N	2.326284	0.172472	0.646022
H109	H	1.707383	-0.538861	-0.071594
H110	H	2.040716	-0.205527	0.261739
H111	H	2.374049	0.127806	0.595073
H112	H	1.613337	-0.532709	0.037746
H113	H	1.946671	-0.199376	0.371080
H114	H	2.280004	0.133958	0.704413
N115	N	1.338114	-0.280925	-0.341910
N116	N	1.671448	0.052409	-0.008577
N117	N	2.004781	0.385742	0.324757
H118	H	1.431182	-0.285187	-0.347075
H119	H	1.764515	0.048147	-0.013741
H120	H	2.097849	0.381480	0.319592
H121	H	1.313521	-0.214758	-0.363565
H122	H	1.646854	0.118575	-0.030231
H123	H	1.980188	0.451909	0.303102
