data_functionalizedCrystal
_audit_creation_method	'MofGen! by Chris Wilmer'
_symmetry_space_group_name_H-M	'P1'
_symmetry_Int_Tables_number	1
_symmetry_cell_setting	triclinic
loop_
_symmetry_equiv_pos_as_xyz
  x,y,z
_cell_length_a	21.395362
_cell_length_b	16.625546
_cell_length_c	16.625539
_cell_angle_alpha	90.028532
_cell_angle_beta	90.036465
_cell_angle_gamma	90.038346
loop_
_atom_site_label
_atom_site_type_symbol
_atom_site_fract_x
_atom_site_fract_y
_atom_site_fract_z
Zn1	Zn	0.957849	-0.320673	0.456315
Zn2	Zn	0.957780	-0.455512	0.321478
Zn3	Zn	0.853078	-0.320734	0.321450
Zn4	Zn	0.853048	-0.455505	0.456222
O5	O	0.905439	-0.388106	0.388866
O6	O	1.045518	-0.338537	0.438479
O7	O	0.943875	-0.437662	0.208642
O8	O	0.867017	-0.207894	0.339368
O9	O	1.045467	-0.437603	0.339415
O10	O	0.943992	-0.207849	0.438453
O11	O	0.866950	-0.338642	0.208621
O12	O	0.765396	-0.338635	0.339277
O13	O	0.866967	-0.437591	0.569067
O14	O	0.765374	-0.437650	0.438293
O15	O	0.943964	-0.338530	0.569135
O16	O	0.943846	-0.568343	0.339324
O17	O	0.866900	-0.568338	0.438320
C18	C	0.742651	-0.388149	0.388773
C19	C	0.673010	-0.388186	0.388752
C20	C	0.640302	-0.439812	0.440232
C21	C	0.574867	-0.439792	0.440268
C22	C	0.542142	-0.388155	0.388809
C23	C	0.574858	-0.336520	0.337325
C24	C	0.640292	-0.336535	0.337296
C25	C	0.438424	-0.381673	0.316222
C26	C	0.372991	-0.381663	0.316249
C27	C	0.340321	-0.388103	0.388898
C28	C	0.373092	-0.394570	0.461523
C29	C	0.438526	-0.394585	0.461494
C30	C	0.471189	-0.388132	0.388835
C31	C	0.236660	-0.439710	0.440422
C32	C	0.171224	-0.439684	0.440459
C33	C	0.171216	-0.336416	0.337509
C34	C	0.236651	-0.336437	0.337479
C35	C	0.269370	-0.388088	0.388934
C36	C	0.905380	-0.597597	0.388832
C37	C	0.905412	-0.687218	0.388845
C38	C	0.905521	-1.015394	0.388929
C39	C	0.905488	-0.924085	0.388908
C40	C	0.905466	-0.851309	0.388887
C41	C	0.905434	-0.759995	0.388866
C42	C	1.068862	-0.388064	0.388961
C43	C	1.138503	-0.388046	0.389001
C44	C	0.905470	-0.388053	0.599175
C45	C	0.905483	-0.388030	0.688796
C46	C	0.905515	-0.177797	0.388918
C47	C	0.905548	-0.088176	0.388940
C48	C	0.905444	-0.388101	0.179375
C49	C	0.905553	-0.387896	0.089755
C50	C	0.905493	-0.388012	0.761579
C51	C	0.905508	-0.387982	0.852887
C52	C	0.905522	-0.387954	0.925664
C53	C	0.905538	-0.387925	1.016978
H54	H	0.144594	-0.481723	0.482386
C55	C	0.676275	-0.279749	0.280664
H56	H	0.719931	-0.287152	0.288020
H57	H	0.665501	-0.291472	0.226472
H58	H	0.665598	-0.225583	0.292575
C59	C	0.538866	-0.279719	0.280721
H60	H	0.567720	-0.248969	0.250060
H61	H	0.513293	-0.310508	0.245543
H62	H	0.513387	-0.244620	0.311646
C63	C	0.336945	-0.374606	0.236364
H64	H	0.293296	-0.375547	0.246783
H65	H	0.347664	-0.325501	0.210632
H66	H	0.347632	-0.418449	0.202396
H67	H	0.666937	-0.481869	0.482132
H68	H	0.465018	-0.376425	0.257058
H69	H	0.263301	-0.481763	0.482324
H70	H	0.548231	-0.481832	0.482193
H71	H	0.465206	-0.399848	0.520627
H72	H	0.346494	-0.399812	0.520681
H73	H	0.144572	-0.294368	0.295614
H74	H	0.263283	-0.294402	0.295554
