data_functionalizedCrystal
_audit_creation_method	'MofGen! by Chris Wilmer'
_symmetry_space_group_name_H-M	'P1'
_symmetry_Int_Tables_number	1
_symmetry_cell_setting	triclinic
loop_
_symmetry_equiv_pos_as_xyz
  x,y,z
_cell_length_a	14.519709
_cell_length_b	22.610064
_cell_length_c	14.519709
_cell_angle_alpha	89.996868
_cell_angle_beta	83.680145
_cell_angle_gamma	90.002631
loop_
_atom_site_label
_atom_site_type_symbol
_atom_site_fract_x
_atom_site_fract_y
_atom_site_fract_z
O1	O	1.223874	0.049109	0.120879
O2	O	0.955397	0.049127	0.135115
O3	O	1.096754	0.049112	-0.006241
O4	O	1.082517	0.049124	0.262235
O5	O	1.096729	-0.049257	-0.006221
O6	O	0.955372	-0.049242	0.135136
O7	O	1.223849	-0.049260	0.120899
Zn8	Zn	1.089606	-0.064869	0.128021
Zn9	Zn	1.089639	0.064736	0.127994
O10	O	1.082492	-0.049245	0.262256
C11	C	0.921025	-0.000055	0.134462
C12	C	0.818643	-0.000048	0.132474
N13	N	1.089591	-0.153322	0.128039
C14	C	0.443748	-0.000076	0.125154
C15	C	0.548056	-0.000068	0.127187
C16	C	0.631192	-0.000062	0.128814
C17	C	0.735507	-0.000055	0.130847
C18	C	1.152235	-0.561970	0.065411
C19	C	1.152240	-0.623890	0.065404
O20	O	1.205463	-0.655914	0.012169
N21	N	1.089639	-0.654859	0.127975
C22	C	1.027022	-0.623905	0.190550
O23	O	0.973775	-0.655933	0.243770
C24	C	1.027014	-0.561986	0.190551
C25	C	1.089626	-0.531020	0.127983
C26	C	1.214841	-0.531004	0.002846
C27	C	1.214837	-0.469088	0.002855
C28	C	1.152227	-0.438139	0.065427
C29	C	1.089622	-0.469105	0.127991
C30	C	0.964394	-0.531034	0.253121
C31	C	0.964391	-0.469111	0.253117
C32	C	1.027002	-0.438145	0.190548
C33	C	1.027009	-0.376240	0.190571
N34	N	1.089610	-0.345270	0.128000
C35	C	1.152219	-0.376220	0.065428
C36	C	1.027044	-0.753939	0.190541
C37	C	1.027056	-0.815856	0.190544
C38	C	1.152272	-0.815837	0.065397
C39	C	1.152264	-0.753918	0.065399
C40	C	1.089645	-0.722970	0.127970
C41	C	1.152207	-0.246193	0.065450
C42	C	1.152200	-0.184271	0.065467
C43	C	1.026981	-0.184296	0.190610
C44	C	1.026991	-0.246212	0.190598
C45	C	1.089607	-0.277159	0.128010
O46	O	0.973810	-0.344176	0.243777
O47	O	1.205449	-0.344185	0.012209
C48	C	1.258221	-0.000077	0.121553
C49	C	1.360602	-0.000080	0.123541
C50	C	1.096078	-0.000073	-0.040591
C51	C	1.094090	-0.000073	-0.142972
N52	N	1.089662	0.153189	0.127968
C53	C	1.086770	-0.000057	-0.517868
C54	C	1.088803	-0.000061	-0.413560
C55	C	1.090430	-0.000065	-0.330423
C56	C	1.092463	-0.000069	-0.226109
C57	C	1.083168	-0.000059	0.296606
C58	C	1.085156	-0.000055	0.398987
H59	H	1.203194	-0.271382	0.014485
N60	N	0.896849	-0.435736	0.320612
H61	H	0.932146	-0.410047	0.361533
H62	H	0.855974	-0.410080	0.285216
H63	H	1.203251	-0.841047	0.014446
H64	H	0.976016	-0.271425	0.241556
H65	H	0.976008	-0.159088	0.241559
N66	N	1.282389	-0.564376	-0.064638
H67	H	1.247110	-0.590070	-0.105568
H68	H	1.322024	-0.535314	-0.104197
H69	H	1.203247	-0.728709	0.014450
H70	H	0.976082	-0.841065	0.241503
N71	N	0.959504	-0.720560	0.258035
H72	H	0.919852	-0.749579	0.297669
H73	H	0.994865	-0.694869	0.298891
N74	N	0.896846	-0.564421	0.320593
H75	H	0.907551	-0.553646	0.386077
H76	H	0.831420	-0.553623	0.309719
N77	N	1.219727	-0.150867	-0.002019
H78	H	1.285196	-0.161641	0.008744
H79	H	1.208920	-0.161651	-0.067469
N80	N	1.282364	-0.435693	-0.064634
H81	H	1.322020	-0.464703	-0.104271
H82	H	1.246992	-0.410005	-0.105486
