data_functionalizedCrystal
_audit_creation_method	'MofGen! by Chris Wilmer'
_symmetry_space_group_name_H-M	'P1'
_symmetry_Int_Tables_number	1
_symmetry_cell_setting	triclinic
loop_
_symmetry_equiv_pos_as_xyz
  x,y,z
_cell_length_a	8.559649
_cell_length_b	17.019448
_cell_length_c	7.681481
_cell_angle_alpha	88.114929
_cell_angle_beta	94.913240
_cell_angle_gamma	76.606793
loop_
_atom_site_label
_atom_site_type_symbol
_atom_site_fract_x
_atom_site_fract_y
_atom_site_fract_z
O1	O	2.104777	-0.018223	-0.149160
O2	O	1.640117	0.022170	-0.143053
O3	O	1.883620	-0.112647	-0.163453
O4	O	1.861275	0.116595	-0.128760
O5	O	1.913590	-0.129275	0.126889
O6	O	1.670088	0.005543	0.147289
O7	O	2.134748	-0.034850	0.141182
Zn8	Zn	1.907176	-0.017293	0.190334
Zn9	Zn	1.867689	0.004614	-0.192204
O10	O	1.891245	0.099968	0.161582
C11	C	1.595614	0.016918	0.002581
C12	C	1.418356	0.026030	0.003957
C13	C	1.897161	-0.150037	-0.022686
C14	C	1.892841	-0.236674	-0.035809
C15	C	1.867711	-0.726225	-0.118158
C16	C	1.871759	-0.644821	-0.105792
C17	C	1.890107	-0.613197	0.058656
C18	C	1.904425	-0.662984	0.210749
C19	C	1.900388	-0.744388	0.198381
C20	C	1.903122	-0.367865	0.103916
C21	C	1.907153	-0.286454	0.116272
C22	C	1.874489	-0.268296	-0.200270
C23	C	1.870445	-0.349701	-0.212623
C24	C	1.884771	-0.399483	-0.060531
C25	C	1.894240	-0.529988	0.071300
C26	C	1.880649	-0.482691	-0.073177
C27	C	2.179251	-0.029597	-0.004455
C28	C	2.356507	-0.038709	-0.005843
C29	C	1.877703	0.137358	0.020812
C30	C	1.882023	0.223995	0.033923
N31	N	1.934137	-0.032246	0.451405
N32	N	1.840740	0.019559	-0.453277
H33	H	1.335690	0.088431	0.013391
N34	N	1.848949	-0.758508	-0.286155
N35	N	1.836174	-0.714049	-0.421927
H36	H	1.822926	-0.736846	-0.540581
H37	H	1.860107	-0.604293	-0.229633
H38	H	1.912041	-0.784919	0.322222
H39	H	1.922047	-0.260704	0.250194
N40	N	1.721148	0.085894	0.462411
N41	N	1.704439	0.095157	0.299225
H42	H	1.619977	0.142008	0.239667
N43	N	1.851690	-0.381987	-0.380619
N44	N	1.838909	-0.337530	-0.516396
H45	H	1.825655	-0.360330	-0.635047
H46	H	2.029495	-0.085122	0.518610
N47	N	1.917751	-0.418723	0.259245
N48	N	2.031516	-0.480135	0.285553
H49	H	2.041847	-0.516060	0.395258
N50	N	1.460193	-0.116989	-0.017647
N51	N	1.466451	-0.171531	0.097555
H52	H	1.539690	-0.226819	0.089223
H53	H	1.862827	-0.227756	-0.324095
H54	H	1.865718	-0.508444	-0.207070
N55	N	1.923186	-0.630674	0.378717
N56	N	1.926789	-0.557992	0.389740
H57	H	1.940037	-0.535172	0.508371
H58	H	1.909176	-0.504231	0.205195
