data_functionalizedCrystal
_audit_creation_method	'MofGen! by Chris Wilmer'
_symmetry_space_group_name_H-M	'P1'
_symmetry_Int_Tables_number	1
_symmetry_cell_setting	triclinic
loop_
_symmetry_equiv_pos_as_xyz
  x,y,z
_cell_length_a	25.639242
_cell_length_b	25.639239
_cell_length_c	13.032268
_cell_angle_alpha	82.858283
_cell_angle_beta	82.837666
_cell_angle_gamma	90.030990
loop_
_atom_site_label
_atom_site_type_symbol
_atom_site_fract_x
_atom_site_fract_y
_atom_site_fract_z
Zn1	Zn	0.761686	-0.245777	0.590854
Zn2	Zn	0.772712	-0.322118	0.416105
Zn3	Zn	0.685363	-0.234688	0.416128
Zn4	Zn	0.674211	-0.333167	0.590787
O5	O	0.723493	-0.283937	0.503469
O6	O	0.836312	-0.255920	0.567692
O7	O	0.770406	-0.301255	0.269880
O8	O	0.695540	-0.162996	0.439344
O9	O	0.844413	-0.312008	0.439304
O10	O	0.751614	-0.171143	0.567715
O11	O	0.706231	-0.237021	0.269897
O12	O	0.610720	-0.247735	0.439279
O13	O	0.676533	-0.330839	0.737024
O14	O	0.602527	-0.320087	0.567599
O15	O	0.740800	-0.266634	0.737074
O16	O	0.759593	-0.396746	0.439239
O17	O	0.687225	-0.404864	0.567577
C18	C	0.587652	-0.283907	0.503435
C19	C	0.529538	-0.283908	0.503445
C20	C	0.274125	-0.254800	0.570442
C21	C	0.328730	-0.254794	0.570436
O22	O	0.353379	-0.230022	0.627392
N23	N	0.360262	-0.283932	0.503481
C24	C	0.337186	-0.313082	0.436534
O25	O	0.369020	-0.337866	0.379583
C26	C	0.282582	-0.313090	0.436546
C27	C	0.251053	-0.283946	0.503499
C28	C	0.242596	-0.225659	0.637390
C29	C	0.187996	-0.225663	0.637394
C30	C	0.164923	-0.254810	0.570451
C31	C	0.196452	-0.283951	0.503503
C32	C	0.259506	-0.342242	0.369606
C33	C	0.204898	-0.342248	0.369624
C34	C	0.173369	-0.313104	0.436576
C35	C	0.118779	-0.313102	0.436564
N36	N	0.087247	-0.283964	0.503519
C37	C	0.110319	-0.254818	0.570463
C38	C	0.451858	-0.313063	0.436515
C39	C	0.506461	-0.313052	0.436497
C40	C	0.498001	-0.254765	0.570401
C41	C	0.443397	-0.254774	0.570413
C42	C	0.420326	-0.283925	0.503471
C43	C	-0.004346	-0.254830	0.570466
C44	C	-0.058951	-0.254835	0.570461
C45	C	-0.050487	-0.313124	0.436562
C46	C	0.004114	-0.313117	0.436562
C47	C	0.027182	-0.283968	0.503523
O48	O	0.094093	-0.337863	0.379640
O49	O	0.078478	-0.230043	0.627413
C50	C	0.723408	-0.419777	0.503421
C51	C	0.723417	-0.477892	0.503435
C52	C	0.761255	-0.834025	0.436757
C53	C	0.761274	-0.888630	0.436771
O54	O	0.793357	-0.913267	0.380026
N55	N	0.723580	-0.920181	0.503538
C56	C	0.685868	-0.897124	0.570303
O57	O	0.653809	-0.928975	0.627095
C58	C	0.685851	-0.842520	0.570293
C59	C	0.723544	-0.810972	0.503514
C60	C	0.798945	-0.802476	0.369984
C61	C	0.798925	-0.747875	0.369969
C62	C	0.761214	-0.724822	0.436727
C63	C	0.723524	-0.756370	0.503499
C64	C	0.648142	-0.819465	0.637063
C65	C	0.648129	-0.764857	0.637048
C66	C	0.685822	-0.733309	0.570269
C67	C	0.685794	-0.678716	0.570242
N68	N	0.723487	-0.647165	0.503475
C69	C	0.761198	-0.670218	0.436717
C70	C	0.685906	-1.011796	0.570319
C71	C	0.685920	-1.066399	0.570324
C72	C	0.761327	-1.057901	0.436793
C73	C	0.761310	-1.003297	0.436784
C74	C	0.723600	-0.980245	0.503552
C75	C	0.761152	-0.555551	0.436690
C76	C	0.761128	-0.500945	0.436678
C77	C	0.685723	-0.509448	0.570212
C78	C	0.685746	-0.564049	0.570221
C79	C	0.723465	-0.587099	0.503456
O80	O	0.653728	-0.654042	0.626961
O81	O	0.793256	-0.638362	0.379944
C82	C	0.859864	-0.283968	0.503503
C83	C	0.917977	-0.283982	0.503518
C84	C	0.706193	-0.301206	0.776025
C85	C	0.698821	-0.308565	0.892172
C86	C	0.723591	-0.147569	0.503539
C87	C	0.723633	-0.089457	0.503570
C88	C	0.740755	-0.266698	0.231973
C89	C	0.748229	-0.259192	0.115826
C90	C	0.727332	-0.280078	0.943978
C91	C	0.719714	-0.287683	1.064022
H92	H	-0.084620	-0.231100	0.624982
H93	H	0.689658	-0.317700	1.108537
O94	O	0.797762	-0.470251	0.371952
C95	C	0.827725	-0.442405	0.431498
H96	H	0.804226	-0.439238	0.510650
H97	H	0.837438	-0.401315	0.388933
H98	H	0.865740	-0.464145	0.443060
H99	H	0.791868	-0.574312	0.382326
H100	H	0.668768	-0.338580	0.936690
H101	H	0.757380	-0.250058	0.899460
H102	H	0.617421	-0.746092	0.691422
H103	H	0.417730	-0.231041	0.624930
O104	O	0.017992	-0.226549	0.635652
C105	C	-0.001949	-0.244661	0.739759
H106	H	-0.041734	-0.264903	0.741850
H107	H	-0.006785	-0.209940	0.786748
H108	H	0.026547	-0.273786	0.774863
O109	O	0.157446	-0.197346	0.702538
C110	C	0.189530	-0.171614	0.761598
H111	H	0.228219	-0.193255	0.765117
H112	H	0.168544	-0.171322	0.843957
H113	H	0.197771	-0.129459	0.723478
O114	O	0.265019	-0.197424	0.702533
C115	C	0.292335	-0.231498	0.769907
H116	H	0.275471	-0.273087	0.776219
H117	H	0.287854	-0.217746	0.850390
H118	H	0.335767	-0.231214	0.737594
O119	O	0.611484	-0.850119	0.701791
C120	C	0.581529	-0.877987	0.642268
H121	H	0.583544	-0.856342	0.559953
H122	H	0.538886	-0.881021	0.680004
H123	H	0.597933	-0.919132	0.638716
H124	H	0.829656	-0.821240	0.315622
H125	H	0.655054	-0.589738	0.624601
H126	H	0.516796	-0.231033	0.624910
H127	H	0.792004	-0.977613	0.382407
O128	O	0.797986	-1.080213	0.371851
C129	C	0.831264	-1.040664	0.312929
H130	H	0.810074	-1.001526	0.309249
H131	H	0.842108	-1.051241	0.230616
H132	H	0.868521	-1.037245	0.351274
H133	H	0.655223	-1.092081	0.624692
H134	H	0.655018	-0.490669	0.624562
O135	O	0.649284	-0.989472	0.635317
C136	C	0.654068	-1.009380	0.739489
H137	H	0.674043	-1.049145	0.741695
H138	H	0.613345	-1.014243	0.786270
H139	H	0.678682	-0.980851	0.774737
O140	O	0.537007	-0.341405	0.371418
C141	C	0.504928	-0.367118	0.312319
H142	H	0.463292	-0.371673	0.355123
H143	H	0.521398	-0.407587	0.301017
H144	H	0.504154	-0.342885	0.233027
O145	O	0.429394	-0.341301	0.371422
C146	C	0.402103	-0.307216	0.304024
H147	H	0.391589	-0.269969	0.341025
H148	H	0.364592	-0.327618	0.289940
H149	H	0.428058	-0.296500	0.226607
H150	H	0.778278	-0.229169	1.071313
H151	H	0.285168	-0.365974	0.315086
H152	H	0.829619	-0.722191	0.315595
O153	O	0.182434	-0.370490	0.304541
C154	C	0.155145	-0.336406	0.237137
H155	H	0.144634	-0.299156	0.274130
H156	H	0.117632	-0.356806	0.223058
H157	H	0.181100	-0.325695	0.159719
H158	H	-0.069282	-0.336852	0.382054
O159	O	0.034666	-0.341473	0.371492
C160	C	0.002591	-0.367186	0.312387
H161	H	-0.039048	-0.371737	0.355179
H162	H	0.019059	-0.407658	0.301100
H163	H	0.001824	-0.342958	0.233089
