data_functionalizedCrystal
_audit_creation_method	'MofGen! by Chris Wilmer'
_symmetry_space_group_name_H-M	'P1'
_symmetry_Int_Tables_number	1
_symmetry_cell_setting	triclinic
loop_
_symmetry_equiv_pos_as_xyz
  x,y,z
_cell_length_a	16.109304
_cell_length_b	16.109301
_cell_length_c	14.586319
_cell_angle_alpha	89.998180
_cell_angle_beta	90.003149
_cell_angle_gamma	83.462111
loop_
_atom_site_label
_atom_site_type_symbol
_atom_site_fract_x
_atom_site_fract_y
_atom_site_fract_z
O1	O	0.106870	1.103128	0.076184
O2	O	0.606870	1.603128	0.576184
O3	O	0.120169	0.861066	0.076196
O4	O	0.620169	1.361066	0.576196
O5	O	-0.007511	0.988745	0.076190
O6	O	0.492489	1.488745	0.576190
O7	O	0.234550	0.975448	0.076190
O8	O	0.734550	1.475448	0.576190
O9	O	-0.007519	0.988744	-0.076290
O10	O	0.492481	1.488744	0.423710
O11	O	0.120161	0.861065	-0.076284
O12	O	0.620161	1.361065	0.423716
O13	O	0.106862	1.103127	-0.076297
O14	O	0.606862	1.603127	0.423703
Cu15	Cu	0.113511	0.982096	-0.090213
Cu16	Cu	0.613511	1.482096	0.409787
Cu17	Cu	0.113520	0.982097	0.090113
Cu18	Cu	0.613520	1.482097	0.590113
O19	O	0.234542	0.975447	-0.076291
O20	O	0.734542	1.475447	0.423709
C21	C	0.119626	0.830091	-0.000042
C22	C	0.619626	1.330091	0.499958
C23	C	0.118011	0.737795	-0.000038
C24	C	0.618011	1.237795	0.499962
C25	C	0.188494	0.428798	-0.000054
C26	C	0.688494	0.928798	0.499946
C27	C	0.190020	0.515518	-0.000048
C28	C	0.690020	1.015518	0.499952
C29	C	0.038531	0.535390	-0.000036
C30	C	0.538531	1.035390	0.499964
C31	C	0.037007	0.448671	-0.000035
C32	C	0.537007	0.948671	0.499965
C33	C	0.111991	0.395377	-0.000048
C34	C	0.611991	0.895377	0.499952
C35	C	0.115040	0.568816	-0.000044
C36	C	0.615040	1.068816	0.499956
C37	C	0.116694	0.662842	-0.000038
C38	C	0.616694	1.162842	0.499962
C39	C	0.110338	0.301345	-0.000052
C40	C	0.610338	0.801345	0.499948
C41	C	-0.038490	0.988206	-0.000048
C42	C	0.461510	1.488206	0.499952
C43	C	-0.130785	0.986590	-0.000042
C44	C	0.369215	1.486590	0.499958
C45	C	-0.343118	0.982857	0.083073
C46	C	0.156882	1.482857	0.583073
C47	C	-0.429838	0.981331	0.083072
C48	C	0.070162	1.481331	0.583072
C49	C	-0.429844	0.981334	-0.083171
C50	C	0.070156	1.481334	0.416829
C51	C	-0.343125	0.982854	-0.083169
C52	C	0.156875	1.482854	0.416831
C53	C	-0.299765	0.983620	-0.000045
C54	C	0.200235	1.483620	0.499955
C55	C	-0.473204	0.980573	-0.000047
C56	C	0.026796	1.480573	0.499953
C57	C	-0.567230	0.978919	-0.000049
C58	C	-0.067230	1.478919	0.499951
C59	C	-0.205733	0.985273	-0.000043
C60	C	0.294267	1.485273	0.499957
C61	C	0.265521	0.975987	-0.000050
C62	C	0.765521	1.475987	0.499950
C63	C	0.357816	0.977603	-0.000051
C64	C	0.857816	1.477603	0.499949
C65	C	0.107405	1.134102	-0.000056
C66	C	0.607405	1.634102	0.499944
C67	C	0.109020	1.226398	-0.000055
C68	C	0.609020	1.726398	0.499945
N69	N	0.113521	0.982098	0.216945
N70	N	0.613521	1.482098	0.716945
N71	N	0.113504	0.982101	-0.217045
N72	N	0.613504	1.482101	0.282955
C73	C	0.057094	1.038744	0.451949
C74	C	0.557094	1.538744	0.951949
C75	C	0.057092	1.038746	0.547930
C76	C	0.557092	1.538746	1.047930
C77	C	0.169937	0.925453	0.547944
C78	C	0.669937	1.425453	1.047944
C79	C	0.169942	0.925455	0.451965
C80	C	0.669942	1.425455	0.951965
C81	C	0.113516	0.982100	0.403969
C82	C	0.613516	1.482100	0.903969
C83	C	0.113509	0.982100	0.595930
C84	C	0.613509	1.482100	1.095930
C85	C	0.113507	0.982102	0.699997
C86	C	0.613507	1.482102	1.199997
C87	C	0.113518	0.982099	0.299896
C88	C	0.613518	1.482099	0.799896
H89	H	0.249551	0.385408	-0.000064
H90	H	0.749551	0.885408	0.499936
H91	H	0.011149	1.084869	0.412873
H92	H	0.511149	1.584869	0.912873
Br93	Br	0.246511	0.848579	0.613084
Br94	Br	0.746511	1.348579	1.113084
Br95	Br	0.293850	0.560871	-0.000048
Br96	Br	0.793850	1.060871	0.499952
Br97	Br	-0.066827	0.403309	-0.000010
Br98	Br	0.433173	0.903309	0.499990
Br99	Br	-0.284274	0.983893	0.195884
Br100	Br	0.215726	1.483893	0.695884
H101	H	-0.022518	0.578792	-0.000027
H102	H	0.477482	1.078792	0.499973
Br103	Br	-0.019481	1.115628	0.613041
Br104	Br	0.480519	1.615628	1.113041
H105	H	-0.465133	0.980708	0.150754
H106	H	0.034867	1.480708	0.650754
Br107	Br	-0.488695	0.980292	-0.195978
Br108	Br	0.011305	1.480292	0.304022
H109	H	-0.307825	0.983470	-0.150858
H110	H	0.192175	1.483470	0.349142
Br111	Br	0.246527	0.848582	0.386843
Br112	Br	0.746527	1.348582	0.886843
