data_functionalizedCrystal
_audit_creation_method	'MofGen! by Chris Wilmer'
_symmetry_space_group_name_H-M	'P1'
_symmetry_Int_Tables_number	1
_symmetry_cell_setting	triclinic
loop_
_symmetry_equiv_pos_as_xyz
  x,y,z
_cell_length_a	21.295417
_cell_length_b	21.295411
_cell_length_c	12.594517
_cell_angle_alpha	89.993111
_cell_angle_beta	90.026394
_cell_angle_gamma	89.971282
loop_
_atom_site_label
_atom_site_type_symbol
_atom_site_fract_x
_atom_site_fract_y
_atom_site_fract_z
Zn1	Zn	-0.250706	-0.355751	1.627112
Zn2	Zn	0.249294	0.144249	2.127112
Zn3	Zn	-0.355971	-0.250476	1.626972
Zn4	Zn	0.144029	0.249524	2.126972
Zn5	Zn	-0.250712	-0.250513	1.449130
Zn6	Zn	0.249288	0.249487	1.949130
Zn7	Zn	-0.355934	-0.355726	1.449053
Zn8	Zn	0.144066	0.144274	1.949053
O9	O	-0.303331	-0.303117	1.538067
O10	O	0.196669	0.196883	2.038067
O11	O	-0.264683	-0.341781	1.776039
O12	O	0.235317	0.158219	2.276039
O13	O	-0.342026	-0.162392	1.603354
O14	O	0.157974	0.337608	2.103354
O15	O	-0.162622	-0.264500	1.472830
O16	O	0.337378	0.235500	1.972830
O17	O	-0.342020	-0.264436	1.775936
O18	O	0.157980	0.235564	2.275936
O19	O	-0.162618	-0.341817	1.603593
O20	O	0.337382	0.158183	2.103593
O21	O	-0.264693	-0.162419	1.472695
O22	O	0.235307	0.337581	1.972695
O23	O	-0.264657	-0.264475	1.300174
O24	O	0.235343	0.235525	1.800174
O25	O	-0.341957	-0.443818	1.472699
O26	O	0.158043	0.056182	1.972699
O27	O	-0.341963	-0.341774	1.300117
O28	O	0.158037	0.158226	1.800117
O29	O	-0.264647	-0.443837	1.603518
O30	O	0.235353	0.056163	2.103518
O31	O	-0.444055	-0.264412	1.603280
O32	O	0.055945	0.235588	2.103280
O33	O	-0.444028	-0.341738	1.472564
O34	O	0.055972	0.158262	1.972564
C35	C	-0.466882	-0.303082	1.537927
C36	C	0.033118	0.196918	2.037927
C37	C	-0.536851	-0.303088	1.537965
C38	C	-0.036851	0.196912	2.037965
C39	C	-0.303307	-0.303126	1.261526
C40	C	0.196693	0.196874	1.761526
C41	C	-0.303312	-0.303145	1.143220
C42	C	0.196688	0.196855	1.643220
C43	C	-0.303297	-0.467307	1.538116
C44	C	0.196703	0.032693	2.038116
C45	C	-0.303283	-0.537275	1.538137
C46	C	0.196717	-0.037275	2.038137
C47	C	-0.569710	-0.262865	1.606089
C48	C	-0.069710	0.237135	2.106089
C49	C	-0.635453	-0.262879	1.606139
C50	C	-0.135453	0.237121	2.106139
C51	C	-0.668333	-0.303110	1.538046
C52	C	-0.168333	0.196890	2.038046
C53	C	-0.635465	-0.343340	1.469916
C54	C	-0.135465	0.156660	1.969916
C55	C	-0.569724	-0.343329	1.469876
C56	C	-0.069724	0.156671	1.969876
N57	N	-0.771595	-0.307912	1.444934
N58	N	-0.271595	0.192088	1.944934
N59	N	-0.834047	-0.307918	1.444976
N60	N	-0.334047	0.192082	1.944976
C61	C	-0.866408	-0.303146	1.538165
C62	C	-0.366408	0.196854	2.038165
N63	N	-0.833958	-0.298354	1.631313
N64	N	-0.333958	0.201646	2.131313
N65	N	-0.771501	-0.298344	1.631270
N66	N	-0.271501	0.201656	2.131270
C67	C	-0.739618	-0.303126	1.538082
C68	C	-0.239618	0.196874	2.038082
C69	C	-0.970553	-0.262936	1.606349
C70	C	-0.470553	0.237064	2.106349
C71	C	-1.036297	-0.262955	1.606401
C72	C	-0.536297	0.237045	2.106401
C73	C	-1.036308	-0.343412	1.470168
C74	C	-0.536308	0.156588	1.970168
C75	C	-0.970565	-0.343397	1.470126
C76	C	-0.470565	0.156603	1.970126
C77	C	-0.937692	-0.303155	1.538215
C78	C	-0.437692	0.196845	2.038215
C79	C	-0.139140	-0.303165	1.538236
C80	C	0.360860	0.196835	2.038236
C81	C	-0.069172	-0.303186	1.538308
C82	C	0.430828	0.196814	2.038308
C83	C	-0.343420	-1.036720	1.606290
C84	C	0.156580	-0.536720	2.106290
C85	C	-0.343440	-0.970977	1.606271
C86	C	0.156560	-0.470977	2.106271
C87	C	-0.303185	-0.938115	1.538237
C88	C	0.196815	-0.438115	2.038237
C89	C	-0.262918	-0.971000	1.470198
C90	C	0.237082	-0.471000	1.970198
C91	C	-0.262903	-1.036742	1.470212
C92	C	0.237097	-0.536742	1.970212
N93	N	-0.248105	-0.834910	1.530107
N94	N	0.251895	-0.334910	2.030107
N95	N	-0.248121	-0.772459	1.530100
N96	N	0.251879	-0.272459	2.030100
C97	C	-0.303227	-0.740040	1.538190
C98	C	0.196773	-0.240040	2.038190
N99	N	-0.358319	-0.772432	1.546308
N100	N	0.141681	-0.272432	2.046308
N101	N	-0.358302	-0.834889	1.546320
N102	N	0.141698	-0.334889	2.046320
C103	C	-0.303196	-0.866829	1.538214
C104	C	0.196804	-0.366829	2.038214
C105	C	-0.343517	-0.635877	1.606199
C106	C	0.156483	-0.135877	2.106199
C107	C	-0.343538	-0.570133	1.606172
C108	C	0.156462	-0.070133	2.106172
C109	C	-0.263010	-0.570157	1.470105
C110	C	0.236990	-0.070157	1.970105
C111	C	-0.262994	-0.635900	1.470126
C112	C	0.237006	-0.135900	1.970126
C113	C	-0.303247	-0.668755	1.538179
C114	C	0.196753	-0.168755	2.038179
C115	C	-0.303319	-0.139565	1.538079
C116	C	0.196681	0.360435	2.038079
C117	C	-0.303156	-0.069597	1.538264
C118	C	0.196844	0.430403	2.038264
C119	C	-0.345441	-0.345107	1.073967
C120	C	0.154559	0.154893	1.573967
C121	C	-0.288048	-0.360597	1.003181
C122	C	0.211952	0.139403	1.503181
C123	C	-0.360752	-0.287641	1.003207
C124	C	0.139248	0.212359	1.503207
C125	C	-0.245889	-0.318666	1.073992
C126	C	0.254111	0.181334	1.573992
C127	C	-0.318631	-0.245683	1.074025
C128	C	0.181369	0.254317	1.574025
C129	C	-0.261199	-0.261151	1.003271
C130	C	0.238801	0.238849	1.503271
C131	C	-0.303355	-0.303107	1.815687
C132	C	0.196645	0.196893	2.315687
C133	C	-0.303365	-0.303103	1.933993
C134	C	0.196635	0.196897	2.433993
H135	H	-0.542947	-0.230100	1.661534
H136	H	-0.042947	0.269900	2.161534
H137	H	-0.943809	-0.376147	1.414648
H138	H	-0.443809	0.123853	1.914648
Br139	Br	-0.525125	-0.397922	1.377415
Br140	Br	-0.025125	0.102078	1.877415
Br141	Br	-1.080894	-0.208369	1.698875
Br142	Br	-0.580894	0.291631	2.198875
H143	H	-0.230235	-0.543402	1.414709
H144	H	0.269765	-0.043402	1.914709
H145	H	-0.197320	-0.331816	1.104955
H146	H	0.302680	0.168184	1.604955
H147	H	-0.275110	-0.409174	0.972063
H148	H	0.224890	0.090826	1.472063
Br149	Br	-0.208260	-1.081365	1.377875
Br150	Br	0.291740	-0.581365	1.877875
Br151	Br	-0.404711	-0.404323	1.125710
Br152	Br	0.095289	0.095677	1.625710
H153	H	-0.376294	-0.662629	1.661608
H154	H	0.123706	-0.162629	2.161608
H155	H	-0.376331	-0.543365	1.661561
H156	H	0.123669	-0.043365	2.161561
Br157	Br	-0.201791	-0.201975	0.951853
Br158	Br	0.298209	0.298025	1.451853
Br159	Br	-0.208359	-0.680523	1.377781
Br160	Br	0.291641	-0.180523	1.877781
Br161	Br	-0.398090	-0.926347	1.698594
Br162	Br	0.101910	-0.426347	2.198594
Br163	Br	-0.925935	-0.208323	1.698749
Br164	Br	-0.425935	0.291677	2.198749
H165	H	-0.376198	-1.063467	1.661700
H166	H	0.123802	-0.563467	2.161700
H167	H	-0.662213	-0.230126	1.661618
H168	H	-0.162213	0.269874	2.161618
Br169	Br	-1.080923	-0.398018	1.377765
Br170	Br	-0.580923	0.101982	1.877765
Br171	Br	-0.208285	-0.926403	1.377867
Br172	Br	0.291715	-0.426403	1.877867
H173	H	-0.331587	-0.197120	1.105166
H174	H	0.168413	0.302880	1.605166
H175	H	-0.662240	-0.376097	1.414476
H176	H	-0.162240	0.123903	1.914476
Br177	Br	-0.441677	-0.265813	0.951378
Br178	Br	0.058323	0.234187	1.451378
