data_functionalizedCrystal
_audit_creation_method	'MofGen! by Chris Wilmer'
_symmetry_space_group_name_H-M	'P1'
_symmetry_Int_Tables_number	1
_symmetry_cell_setting	triclinic
loop_
_symmetry_equiv_pos_as_xyz
  x,y,z
_cell_length_a	8.559649
_cell_length_b	8.597304
_cell_length_c	15.186229
_cell_angle_alpha	82.296375
_cell_angle_beta	89.996971
_cell_angle_gamma	77.624695
loop_
_atom_site_label
_atom_site_type_symbol
_atom_site_fract_x
_atom_site_fract_y
_atom_site_fract_z
O1	O	2.119295	-0.053144	-0.069183
O2	O	1.655355	0.027756	-0.075324
O3	O	1.896455	-0.242261	-0.054834
O4	O	1.878195	0.216873	-0.089672
O5	O	1.896439	-0.242263	0.091623
O6	O	1.655339	0.027755	0.071133
O7	O	2.119279	-0.053146	0.077275
Zn8	Zn	1.887306	-0.012696	0.097457
Zn9	Zn	1.887328	-0.012694	-0.095507
O10	O	1.878179	0.216872	0.056785
C11	C	1.595913	0.033886	-0.002561
C12	C	1.418818	0.052135	-0.003947
C13	C	1.894486	-0.300497	0.022811
C14	C	1.888622	-0.474017	0.035972
C15	C	2.178721	-0.059276	0.004510
C16	C	2.355816	-0.077525	0.005890
C17	C	1.880149	0.275108	-0.020863
C18	C	1.886012	0.448628	-0.034029
N19	N	1.887303	-0.012700	0.229150
N20	N	1.887343	-0.012704	-0.227198
C21	C	1.994100	-0.132232	0.463944
C22	C	1.994105	-0.132236	0.556134
C23	C	1.780536	0.106835	0.538001
C24	C	1.780524	0.106831	0.445814
C25	C	1.887315	-0.012702	0.408787
C26	C	1.887332	-0.012702	0.593165
C27	C	1.887336	-0.012706	0.693121
C28	C	1.887309	-0.012700	0.308824
H29	H	1.888258	-0.484850	-0.104034
N30	N	1.665339	0.235769	0.386323
H31	H	1.727356	0.297814	0.343358
H32	H	1.593813	0.184259	0.352043
H33	H	2.081056	-0.229570	0.601041
N34	N	1.463810	-0.243072	0.018461
H35	H	1.442281	-0.303528	-0.031243
H36	H	1.579212	-0.232954	0.017729
H37	H	1.337265	0.177113	-0.013435
N38	N	1.665368	0.235750	0.577945
H39	H	1.727400	0.297800	0.611477
H40	H	1.597738	0.311363	0.528968
H41	H	1.886353	-0.540542	0.105981
H42	H	2.081053	-0.229564	0.433800
