data_functionalizedCrystal
_audit_creation_method	'MofGen! by Chris Wilmer'
_symmetry_space_group_name_H-M	'P1'
_symmetry_Int_Tables_number	1
_symmetry_cell_setting	triclinic
loop_
_symmetry_equiv_pos_as_xyz
  x,y,z
_cell_length_a	15.995350
_cell_length_b	8.559649
_cell_length_c	7.088929
_cell_angle_alpha	95.344185
_cell_angle_beta	83.792601
_cell_angle_gamma	76.635520
loop_
_atom_site_label
_atom_site_type_symbol
_atom_site_fract_x
_atom_site_fract_y
_atom_site_fract_z
O1	O	-1.088100	-0.222368	-0.158820
O2	O	-0.842687	-0.247805	-0.158858
O3	O	-0.987015	-0.002484	-0.158834
O4	O	-0.943773	-0.467689	-0.158844
O5	O	-1.006308	0.030375	0.159145
O6	O	-0.861980	-0.214946	0.159120
O7	O	-1.107393	-0.189509	0.159159
Cu8	Cu	-0.986448	-0.199227	0.188173
Cu9	Cu	-0.963632	-0.238087	-0.187873
O10	O	-0.963065	-0.434830	0.159134
C11	C	-0.821206	-0.230325	0.000126
C12	C	-0.728458	-0.227174	0.000111
C13	C	-0.999938	0.073475	0.000152
C14	C	-1.009692	0.250854	0.000143
C15	C	-1.128874	-0.206990	0.000170
C16	C	-1.221622	-0.210142	0.000173
C17	C	-0.391440	-0.215849	0.000151
C18	C	-0.450152	-0.041064	0.000865
C19	C	-0.546595	-0.044292	0.000135
C20	C	-0.558639	-0.221466	0.000132
C21	C	-0.500994	-0.326403	-0.181443
C22	C	-0.404632	-0.322029	-0.181582
C23	C	-0.426000	-0.288272	0.180019
C24	C	-0.523093	-0.287984	0.182406
C25	C	-0.653130	-0.224651	0.000115
C26	C	-0.296947	-0.212671	0.000155
C27	C	-0.950142	-0.510789	0.000144
C28	C	-0.940387	-0.688170	0.000140
N29	N	-1.002502	-0.171895	0.452664
N30	N	-0.947586	-0.265407	-0.452364
H31	H	-0.444021	0.042228	0.131080
C32	C	-1.079396	-0.040980	0.562964
H33	H	-1.112115	0.014726	0.474818
H34	H	-1.058209	0.033485	0.641067
H35	H	-1.115314	-0.090400	0.641036
H36	H	-1.076495	0.334363	0.000169
H37	H	-0.530815	-0.416051	0.193372
H38	H	-0.890673	-0.362312	0.465980
C39	C	-0.601557	0.065383	0.175965
H40	H	-0.565009	0.112324	0.248481
H41	H	-0.629980	0.002899	0.252778
H42	H	-0.643582	0.148617	0.135106
H43	H	-0.873590	0.228333	0.000136
H44	H	-0.506339	-0.457266	-0.188196
C45	C	-0.419114	0.034786	-0.174056
H46	H	-0.454932	0.140367	-0.172523
H47	H	-0.422440	-0.030310	-0.287765
H48	H	-0.360819	0.041117	-0.169773
C49	C	-0.579472	0.029600	-0.176016
H50	H	-0.638597	0.027888	-0.177058
H51	H	-0.545942	-0.031632	-0.288955
H52	H	-0.574172	0.138150	-0.170693
C53	C	-0.374225	-0.256079	-0.364929
H54	H	-0.315181	-0.252837	-0.366635
H55	H	-0.408688	-0.150058	-0.367759
H56	H	-0.380035	-0.324681	-0.473516
C57	C	-0.349242	-0.496455	-0.192766
H58	H	-0.385677	-0.569673	-0.197219
H59	H	-0.319951	-0.507198	-0.083281
H60	H	-0.307935	-0.520110	-0.304749
C61	C	-0.533437	-0.264411	-0.363998
H62	H	-0.582077	-0.174631	-0.329949
H63	H	-0.549807	-0.348317	-0.437466
H64	H	-0.488441	-0.232001	-0.437186
H65	H	-0.417488	-0.216932	0.317649
C66	C	-0.576462	-0.184251	0.363877
H67	H	-0.620229	-0.100754	0.328729
H68	H	-0.539419	-0.137633	0.435190
H69	H	-0.602684	-0.250376	0.439655
H70	H	-0.386030	-0.416959	0.181245
