data_functionalizedCrystal
_audit_creation_method	'MofGen! by Chris Wilmer'
_symmetry_space_group_name_H-M	'P1'
_symmetry_Int_Tables_number	1
_symmetry_cell_setting	triclinic
loop_
_symmetry_equiv_pos_as_xyz
  x,y,z
_cell_length_a	6.817900
_cell_length_b	9.108949
_cell_length_c	19.453114
_cell_angle_alpha	100.627806
_cell_angle_beta	101.709288
_cell_angle_gamma	111.764586
loop_
_atom_site_label
_atom_site_type_symbol
_atom_site_fract_x
_atom_site_fract_y
_atom_site_fract_z
V1	V	-4.061580	-0.227169	-0.232696
O2	O	-3.992531	0.009170	-0.214277
O3	O	-4.066620	-0.448760	-0.244559
O4	O	-4.003837	-0.224441	-0.328045
O5	O	-4.055749	-0.216701	-0.130214
V6	V	-4.539493	-0.198810	-0.218804
O7	O	-4.335142	-0.289378	-0.263170
O8	O	-4.716128	-0.136601	-0.188330
O9	O	-4.311247	0.022780	-0.206941
O10	O	-4.725939	-0.435150	-0.237223
O11	O	-4.662721	-0.209279	-0.321286
O12	O	-4.374030	-0.201538	-0.123455
C13	C	-3.924924	-0.502755	-0.244360
C14	C	-4.010269	-0.683912	-0.254695
C15	C	-3.844836	-0.216612	-0.350853
C16	C	-3.879262	-0.215848	-0.428889
C17	C	-4.079190	-0.223669	-0.469618
C18	C	-4.111537	-0.222950	-0.542941
C19	C	-3.943961	-0.214444	-0.575537
C20	C	-3.744000	-0.206613	-0.534798
C21	C	-3.711651	-0.207315	-0.461474
N22	N	-3.904974	-0.300506	-0.699516
N23	N	-3.935719	-0.299844	-0.769171
C24	C	-4.041417	-0.212326	-0.796458
N25	N	-4.115249	-0.125518	-0.751461
N26	N	-4.084511	-0.126188	-0.681800
C27	C	-3.979018	-0.213681	-0.655045
C28	C	-4.276431	-0.219366	-0.916692
C29	C	-4.308766	-0.218638	-0.990016
C30	C	-3.941232	-0.202317	-0.981873
C31	C	-3.908894	-0.203029	-0.908549
C32	C	-4.076505	-0.211562	-0.875964
C33	C	-4.116287	0.076767	-0.207139
C34	C	-4.010180	0.257923	-0.196808
C35	C	-4.196374	-0.209373	-0.100644
C36	C	-4.141185	-0.210129	-0.022606
H37	H	-3.944818	-0.653275	-0.139341
C38	C	-3.566960	-0.047372	-0.979558
C39	C	-3.757017	-0.192959	-1.017693
H40	H	-3.453236	-0.041589	-1.001677
H41	H	-3.519098	-0.046689	-0.930068
H42	H	-3.599649	0.044900	-0.981079
H43	H	-3.724332	-0.285232	-1.016168
H44	H	-3.804886	-0.193657	-1.067196
H45	H	-4.075641	-0.772706	-0.312158
H46	H	-3.548836	-0.200934	-0.428311
H47	H	-4.274352	-0.229328	-0.576110
H48	H	-4.215672	-0.230610	-0.443091
H49	H	-3.607558	-0.199682	-0.561342
C50	C	-4.650719	-0.374302	-0.919004
C51	C	-4.460649	-0.228725	-0.880867
H52	H	-4.764448	-0.380071	-0.896889
H53	H	-4.618058	-0.466572	-0.917485
H54	H	-4.698572	-0.374975	-0.968500
H55	H	-4.412786	-0.228058	-0.831372
H56	H	-4.493312	-0.136430	-0.882377
H57	H	-4.471569	-0.224994	-1.023175
H58	H	-3.746101	-0.196678	-0.875389
