data_functionalizedCrystal
_audit_creation_method	'MofGen! by Chris Wilmer'
_symmetry_space_group_name_H-M	'P1'
_symmetry_Int_Tables_number	1
_symmetry_cell_setting	triclinic
loop_
_symmetry_equiv_pos_as_xyz
  x,y,z
_cell_length_a	15.537862
_cell_length_b	15.625429
_cell_length_c	15.186229
_cell_angle_alpha	71.919106
_cell_angle_beta	89.997959
_cell_angle_gamma	66.734075
loop_
_atom_site_label
_atom_site_type_symbol
_atom_site_fract_x
_atom_site_fract_y
_atom_site_fract_z
O1	O	1.249597	-0.292776	0.020296
O2	O	0.975458	-0.188704	-0.012944
O3	O	1.119852	-0.374374	0.046347
O4	O	1.105203	-0.107106	-0.038996
O5	O	1.119843	-0.374373	0.192804
O6	O	0.975449	-0.188703	0.133513
O7	O	1.249587	-0.292775	0.166753
Zn8	Zn	1.112517	-0.240739	0.173386
Zn9	Zn	1.112529	-0.240740	-0.019577
O10	O	1.105193	-0.107105	0.107461
C11	C	0.940370	-0.177814	0.056806
C12	C	0.835833	-0.145379	0.046446
C13	C	0.677374	-0.013904	0.004460
C14	C	0.775604	-0.044392	0.014198
C15	C	0.797848	-0.215917	0.068973
C16	C	0.699618	-0.185444	0.059244
C17	C	0.639389	-0.084436	0.026986
C18	C	0.661633	-0.255975	0.081770
C19	C	0.563411	-0.225504	0.072037
C20	C	0.503176	-0.124501	0.039778
C21	C	0.541167	-0.053964	0.017253
C22	C	0.721864	-0.356983	0.114022
C23	C	0.683879	-0.427514	0.136548
C24	C	0.585655	-0.397043	0.126821
C25	C	0.525420	-0.296040	0.094562
C26	C	0.547664	-0.467579	0.149346
C27	C	0.449442	-0.437108	0.139613
C28	C	0.427198	-0.265568	0.084829
C29	C	1.119185	-0.407743	0.130230
C30	C	1.117198	-0.507173	0.161973
C31	C	1.110662	-0.834179	-0.132764
C32	C	1.108791	-0.927606	-0.102909
C33	C	1.108781	-0.927591	0.056748
C34	C	1.110657	-0.834165	0.026907
C35	C	1.111596	-0.787465	-0.067850
C36	C	1.111591	-0.787451	0.091821
C37	C	1.113462	-0.694030	0.061981
C38	C	1.114398	-0.647323	-0.032772
C39	C	1.113467	-0.694044	-0.097690
C40	C	1.110645	-0.834148	0.186577
C41	C	1.111578	-0.787435	0.251491
C42	C	1.113456	-0.694015	0.221652
C43	C	1.114393	-0.647308	0.126899
C44	C	1.114387	-0.647293	0.286570
C45	C	1.116258	-0.553872	0.256730
C46	C	1.116264	-0.553887	0.097059
C47	C	1.284675	-0.303665	0.097000
C48	C	1.389213	-0.336100	0.107355
C49	C	1.105861	-0.073735	0.023577
C50	C	1.107848	0.025694	-0.008173
N51	N	1.112515	-0.240740	0.305079
N52	N	1.112538	-0.240748	-0.151268
C53	C	1.176474	-0.322941	0.557052
C54	C	1.176477	-0.322945	0.649243
C55	C	1.048572	-0.158542	0.596752
C56	C	1.048565	-0.158542	0.504564
C57	C	1.112522	-0.240743	0.484717
C58	C	1.112531	-0.240745	0.669095
C59	C	1.112534	-0.240748	0.769052
C60	C	1.112518	-0.240741	0.384754
H61	H	0.492124	0.028286	-0.009002
H62	H	0.628331	0.068346	-0.021795
C63	C	1.108434	-0.935497	0.218839
C64	C	1.026870	-0.929752	0.173487
C65	C	1.024793	-1.023089	0.203179
H66	H	1.107941	-0.956690	0.284546
H67	H	1.162844	-0.981516	0.204021
H68	H	0.972473	-0.883748	0.188312
H69	H	1.027344	-0.908575	0.107781
H70	H	1.079203	-1.069109	0.188361
H71	H	1.024303	-1.044275	0.268886
H72	H	0.969457	-1.019206	0.172406
H73	H	0.846900	-0.298158	0.095234
H74	H	1.110810	-0.825468	0.328642
C75	C	1.113409	-0.698183	0.389412
C76	C	1.111588	-0.790003	0.401652
C77	C	1.110699	-0.836915	0.496379
H78	H	1.058859	-0.658148	0.409496
H79	H	1.168605	-0.707771	0.425283
H80	H	1.056397	-0.780412	0.365793
H81	H	1.166132	-0.830063	0.381588
H82	H	1.165896	-0.846503	0.532250
H83	H	1.056149	-0.796872	0.516455
H84	H	1.109472	-0.899224	0.504698
H85	H	1.117037	-0.515865	0.019900
H86	H	0.801842	-0.381789	0.121929
C87	C	0.979249	-0.069369	0.618485
C88	C	0.992960	-0.086948	0.714697
C89	C	0.929127	-0.004816	0.734747
H90	H	0.916350	-0.058546	0.600036
H91	H	0.989561	-0.012553	0.585278
H92	H	0.982641	-0.143747	0.747892
H93	H	1.055846	-0.097759	0.733169
H94	H	0.939439	0.052001	0.701541
H95	H	0.866231	0.006001	0.716293
H96	H	0.938426	-0.016728	0.800027
H97	H	1.228550	-0.389875	0.540896
C98	C	1.117107	-0.503178	0.327276
C99	C	1.035706	-0.489280	0.371004
C100	C	1.036449	-0.442586	0.436000
H101	H	1.118300	-0.440815	0.296035
H102	H	1.171635	-0.543310	0.372957
H103	H	0.981192	-0.449149	0.325329
H104	H	1.034496	-0.551628	0.402263
H105	H	1.090977	-0.482717	0.481681
H106	H	1.037644	-0.380226	0.404751
H107	H	0.981224	-0.433158	0.465683
H108	H	1.228552	-0.389879	0.708138
C109	C	0.749162	-0.537209	0.171717
C110	C	0.731958	-0.581540	0.261213
C111	C	0.792067	-0.682594	0.293637
H112	H	0.813132	-0.545398	0.174376
H113	H	0.737620	-0.567504	0.130346
H114	H	0.743506	-0.551255	0.302574
H115	H	0.667999	-0.573379	0.258579
H116	H	0.780526	-0.712888	0.252267
H117	H	0.856034	-0.690773	0.296291
H118	H	0.780396	-0.712687	0.354360
H119	H	1.111436	-0.796158	-0.209924
C120	C	0.979023	-0.069401	0.426006
C121	C	0.921303	-0.098567	0.382418
C122	C	0.857224	-0.016480	0.310056
H123	H	1.012833	-0.042901	0.381503
H124	H	0.940883	-0.020435	0.450995
H125	H	0.959438	-0.147515	0.357428
H126	H	0.887472	-0.125057	0.426895
H127	H	0.819084	0.032485	0.335046
H128	H	0.891042	0.010014	0.265561
H129	H	0.818047	-0.036256	0.280479
H130	H	0.596717	-0.549820	0.175602
C131	C	0.408376	-0.513833	0.164161
C132	C	0.482144	-0.608812	0.194518
C133	C	0.444350	-0.679517	0.217146
H134	H	0.370541	-0.505645	0.110485
H135	H	0.370543	-0.505565	0.212612
H136	H	0.519961	-0.617078	0.146072
H137	H	0.519985	-0.617033	0.248201
H138	H	0.406517	-0.671249	0.265597
H139	H	0.406515	-0.671320	0.163467
H140	H	0.494395	-0.743968	0.237754
C141	C	1.116280	-0.545825	-0.065069
C142	C	1.035959	-0.478276	-0.043123
C143	C	1.037665	-0.384770	-0.072851
H144	H	1.116659	-0.524568	-0.130791
H145	H	1.171542	-0.549473	-0.034381
H146	H	0.980711	-0.474625	-0.073814
H147	H	1.035564	-0.499500	0.022594
H148	H	1.092928	-0.388418	-0.042162
H149	H	1.038046	-0.363523	-0.138572
H150	H	0.983173	-0.338929	-0.057957
C151	C	0.361840	-0.155888	0.049624
C152	C	0.379005	-0.111556	-0.039891
C153	C	0.318806	-0.010530	-0.072356
H154	H	0.373302	-0.125511	0.090938
H155	H	0.297890	-0.147807	0.046993
H156	H	0.442939	-0.119630	-0.037254
H157	H	0.367536	-0.141904	-0.081227
H158	H	0.254856	-0.002448	-0.074987
H159	H	0.330273	0.019838	-0.031036
H160	H	0.330438	0.019561	-0.133098
H161	H	1.114241	-0.656023	-0.174849
H162	H	1.108012	-0.965625	0.133899
C163	C	0.816663	0.032344	-0.010263
C164	C	0.742890	0.127320	-0.040574
C165	C	0.780678	0.198031	-0.063106
H166	H	0.854507	0.024152	-0.058705
H167	H	0.854486	0.024085	0.043469
H168	H	0.705083	0.135576	-0.094300
H169	H	0.705040	0.135544	0.007854
H170	H	0.818500	0.189772	-0.009374
H171	H	0.818521	0.189829	-0.111546
H172	H	0.730629	0.262479	-0.083666
H173	H	0.423198	-0.099693	0.031851
H174	H	1.108022	-0.965633	-0.155779
