data_functionalizedCrystal
_audit_creation_method	'MofGen! by Chris Wilmer'
_symmetry_space_group_name_H-M	'P1'
_symmetry_Int_Tables_number	1
_symmetry_cell_setting	triclinic
loop_
_symmetry_equiv_pos_as_xyz
  x,y,z
_cell_length_a	12.837943
_cell_length_b	11.892283
_cell_length_c	12.837942
_cell_angle_alpha	85.692779
_cell_angle_beta	85.171060
_cell_angle_gamma	85.696109
loop_
_atom_site_label
_atom_site_type_symbol
_atom_site_fract_x
_atom_site_fract_y
_atom_site_fract_z
O1	O	1.396305	0.093980	-0.278165
O2	O	1.896305	0.593980	0.221835
O3	O	1.093171	0.093987	-0.264722
O4	O	1.593171	0.593987	0.235278
O5	O	1.238016	0.093977	-0.119876
O6	O	1.738016	0.593977	0.380124
O7	O	1.251459	0.093990	-0.423011
O8	O	1.751459	0.593990	0.076989
O9	O	1.250067	-0.094026	-0.107818
O10	O	1.750067	0.405974	0.392182
O11	O	1.105221	-0.094016	-0.252664
O12	O	1.605221	0.405984	0.247336
O13	O	1.408355	-0.094023	-0.266107
O14	O	1.908355	0.405977	0.233893
Zn15	Zn	1.258702	-0.123869	-0.257471
Zn16	Zn	1.758702	0.376131	0.242529
Zn17	Zn	1.242824	0.123833	-0.273358
Zn18	Zn	1.742824	0.623833	0.226642
O19	O	1.263510	-0.094013	-0.410953
O20	O	1.763510	0.405987	0.089047
C21	C	1.060127	-0.000014	-0.254152
C22	C	1.560127	0.499986	0.245848
C23	C	0.943712	-0.000011	-0.240607
C24	C	1.443712	0.499989	0.259393
N25	N	1.269545	-0.292919	-0.246629
N26	N	1.769545	0.207081	0.253371
C27	C	0.718838	-0.000020	-0.403436
C28	C	1.218838	0.499980	0.096564
C29	C	0.609456	-0.000019	-0.390715
C30	C	1.109456	0.499981	0.109285
C31	C	0.615563	-0.000015	-0.202444
C32	C	1.115563	0.499985	0.297556
C33	C	0.724945	-0.000017	-0.215165
C34	C	1.224945	0.499983	0.284835
C35	C	0.776579	-0.000017	-0.315665
C36	C	1.276579	0.499983	0.184335
C37	C	0.885963	-0.000011	-0.328385
C38	C	1.385963	0.499989	0.171615
C39	C	0.892068	-0.000015	-0.140115
C40	C	1.392068	0.499985	0.359885
C41	C	0.782686	-0.000014	-0.127394
C42	C	1.282686	0.499986	0.372606
C43	C	1.345105	-0.470429	-0.171142
C44	C	1.845105	0.029571	0.328858
C45	C	1.337503	-0.352089	-0.178727
C46	C	1.837503	0.147911	0.321273
C47	C	1.209188	-0.352097	-0.306952
C48	C	1.709188	0.147903	0.193048
C49	C	1.216790	-0.470436	-0.299367
C50	C	1.716790	0.029564	0.200633
C51	C	1.284750	-0.529598	-0.231459
C52	C	1.784750	-0.029598	0.268541
C53	C	1.292346	-0.647939	-0.223869
C54	C	1.792346	-0.147939	0.276131
C55	C	1.164037	-0.647944	-0.352100
C56	C	1.664037	-0.147944	0.147900
C57	C	1.156435	-0.529605	-0.359685
C58	C	1.656435	-0.029605	0.140315
C59	C	1.441399	-0.000020	-0.276677
C60	C	1.941399	0.499980	0.223323
C61	C	1.557814	-0.000015	-0.290222
C62	C	2.057814	0.499985	0.209778
C63	C	1.239500	-0.000024	-0.074778
C64	C	1.739500	0.499976	0.425222
C65	C	1.225956	-0.000022	0.041637
C66	C	1.725956	0.499978	0.541637
N67	N	1.231988	0.292884	-0.284193
N68	N	1.731988	0.792884	0.215807
C69	C	1.262025	-0.000009	-0.456051
C70	C	1.762025	0.499991	0.043949
C71	C	1.275570	-0.000004	-0.572466
C72	C	1.775570	0.499996	-0.072466
C73	C	1.388784	-0.000002	0.266510
C74	C	1.888784	0.499998	0.766510
C75	C	1.376062	0.000000	0.375892
C76	C	1.876062	0.500000	0.875892
C77	C	1.187792	-0.000007	0.369785
C78	C	1.687792	0.499993	0.869785
C79	C	1.200513	-0.000009	0.260403
C80	C	1.700513	0.499991	0.760403
C81	C	1.301013	-0.000008	0.208769
C82	C	1.801013	0.499992	0.708769
C83	C	1.313734	-0.000019	0.099385
C84	C	1.813734	0.499981	0.599385
C85	C	1.125463	-0.000018	0.093280
C86	C	1.625463	0.499982	0.593280
C87	C	1.112742	-0.000016	0.202662
C88	C	1.612742	0.499984	0.702662
H89	H	0.928001	-0.000013	-0.410217
H90	H	1.428001	0.499987	0.089783
F91	F	1.417421	-0.533393	-0.098859
F92	F	1.917421	-0.033393	0.401141
F93	F	0.773792	-0.000007	-0.510394
F94	F	1.273792	0.499993	-0.010394
F95	F	1.401743	-0.289121	-0.114531
F96	F	1.901743	0.210879	0.385469
F97	F	1.084114	-0.466631	-0.431958
F98	F	1.584114	0.033369	0.068042
F99	F	0.548007	-0.000025	-0.484133
F100	F	1.048007	0.499975	0.015867
H101	H	0.939092	-0.000005	-0.068645
H102	H	1.439092	0.499995	0.431355
H103	H	1.347679	-0.696108	-0.168571
H104	H	1.847679	-0.196108	0.331429
F105	F	0.560593	-0.000028	-0.095493
F106	F	1.060593	0.499972	0.404507
H107	H	1.153864	-0.303912	-0.362250
H108	H	1.653864	0.196088	0.137750
F109	F	1.495742	-0.000024	0.211556
F110	F	1.995742	0.499976	0.711556
H111	H	1.114888	-0.696133	-0.401211
H112	H	1.614888	-0.196133	0.098789
H113	H	1.395566	-0.000022	0.057347
H114	H	1.895566	0.499978	0.557347
H115	H	1.447535	0.000009	0.422900
H116	H	1.947535	0.500009	0.922900
H117	H	1.105969	0.000004	0.411844
H118	H	1.605969	0.500004	0.911844
F119	F	1.032046	-0.000037	0.031821
F120	F	1.532046	0.499963	0.531821
F121	F	0.727722	-0.000017	-0.020440
F122	F	1.227722	0.499983	0.479560
F123	F	1.005788	-0.000008	0.257626
F124	F	1.505788	0.499992	0.757626
