data_functionalizedCrystal
_audit_creation_method	'MofGen! by Chris Wilmer'
_symmetry_space_group_name_H-M	'P1'
_symmetry_Int_Tables_number	1
_symmetry_cell_setting	triclinic
loop_
_symmetry_equiv_pos_as_xyz
  x,y,z
_cell_length_a	9.482900
_cell_length_b	9.065218
_cell_length_c	9.065218
_cell_angle_alpha	85.015885
_cell_angle_beta	99.475219
_cell_angle_gamma	80.570867
loop_
_atom_site_label
_atom_site_type_symbol
_atom_site_fract_x
_atom_site_fract_y
_atom_site_fract_z
O1	O	0.120893	-1.983090	-0.193561
O2	O	0.454226	-1.649757	0.139772
O3	O	0.787560	-1.316424	0.473106
O4	O	0.120895	-1.553806	-0.211307
O5	O	0.454228	-1.220473	0.122026
O6	O	0.787561	-0.887139	0.455360
O7	O	0.120891	-1.777321	0.012208
O8	O	0.454224	-1.443987	0.345541
O9	O	0.787557	-1.110654	0.678874
O10	O	0.120897	-1.759575	-0.417076
O11	O	0.454230	-1.426242	-0.083743
O12	O	0.787563	-1.092909	0.249591
O13	O	-0.120901	-1.731922	-0.033378
O14	O	0.212432	-1.398589	0.299956
O15	O	0.545766	-1.065256	0.633289
O16	O	-0.120897	-1.508407	-0.256893
O17	O	0.212436	-1.175074	0.076441
O18	O	0.545769	-0.841741	0.409774
O19	O	-0.120899	-1.937692	-0.239147
O20	O	0.212435	-1.604359	0.094187
O21	O	0.545768	-1.271025	0.427520
Cu22	Cu	-0.142975	-1.718904	-0.252182
Cu23	Cu	0.190358	-1.385571	0.081151
Cu24	Cu	0.523691	-1.052238	0.414485
Cu25	Cu	0.142971	-1.772593	-0.198272
Cu26	Cu	0.476305	-1.439260	0.135062
Cu27	Cu	0.809638	-1.105927	0.468395
O28	O	-0.120895	-1.714177	-0.462661
O29	O	0.212438	-1.380844	-0.129328
O30	O	0.545772	-1.047510	0.204005
C31	C	-0.000001	-1.476120	-0.232394
C32	C	0.333332	-1.142787	0.100939
C33	C	0.666666	-0.809453	0.434272
C34	C	-0.000000	-1.312277	-0.227295
C35	C	0.333333	-0.978944	0.106039
C36	C	0.666666	-0.645611	0.439372
N37	N	-0.344095	-1.681153	-0.290099
N38	N	-0.010762	-1.347820	0.043235
N39	N	0.322572	-1.014487	0.376568
C40	C	-0.000003	-1.752916	0.044402
C41	C	0.333331	-1.419583	0.377735
C42	C	0.666664	-1.086250	0.711069
C43	C	0.000004	-1.747818	0.208246
C44	C	0.333338	-1.414485	0.541580
C45	C	0.666671	-1.081151	0.874913
C46	C	-0.416296	-1.761448	-0.209448
C47	C	-0.082962	-1.428115	0.123886
C48	C	0.250371	-1.094781	0.457219
C49	C	-0.583712	-1.730049	-0.241007
C50	C	-0.250379	-1.396716	0.092327
C51	C	0.082954	-1.063383	0.425660
N52	N	0.344091	-1.810356	-0.160343
N53	N	0.677424	-1.477023	0.172990
N54	N	1.010757	-1.143689	0.506323
C55	C	0.000000	-2.015378	-0.218059
C56	C	0.333333	-1.682045	0.115275
C57	C	0.666667	-1.348712	0.448608
C58	C	0.000009	-2.179223	-0.223157
C59	C	0.333342	-1.845890	0.110177
C60	C	0.666676	-1.512556	0.443510
C61	C	0.000002	-1.738582	-0.494855
C62	C	0.333335	-1.405249	-0.161522
C63	C	0.666668	-1.071915	0.171812
C64	C	0.000004	-1.743682	-0.658698
C65	C	0.333338	-1.410349	-0.325364
C66	C	0.666671	-1.077015	0.007969
H67	H	-0.354169	-1.853432	-0.117029
H68	H	-0.020836	-1.520099	0.216304
H69	H	0.312498	-1.186765	0.549638
Br70	Br	-0.447634	-1.527815	-0.444119
Br71	Br	-0.114300	-1.194482	-0.110786
Br72	Br	0.219033	-0.861148	0.222547
Br73	Br	-0.687245	-1.576705	-0.395033
Br74	Br	-0.353912	-1.243372	-0.061700
Br75	Br	-0.020579	-0.910039	0.271634
H76	H	-0.593786	-1.902346	-0.067919
H77	H	-0.260453	-1.569012	0.265414
H78	H	0.072880	-1.235679	0.598747
