data_functionalizedCrystal
_audit_creation_method	'MofGen! by Chris Wilmer'
_symmetry_space_group_name_H-M	'P1'
_symmetry_Int_Tables_number	1
_symmetry_cell_setting	triclinic
loop_
_symmetry_equiv_pos_as_xyz
  x,y,z
_cell_length_a	8.559649
_cell_length_b	10.723024
_cell_length_c	7.088929
_cell_angle_alpha	83.718137
_cell_angle_beta	95.325015
_cell_angle_gamma	77.123267
loop_
_atom_site_label
_atom_site_type_symbol
_atom_site_fract_x
_atom_site_fract_y
_atom_site_fract_z
O1	O	2.103422	-0.027906	-0.158957
O2	O	1.638923	0.036470	-0.158966
O3	O	1.881888	-0.178393	-0.158954
O4	O	1.860458	0.186957	-0.158969
O5	O	1.914357	-0.207166	0.159022
O6	O	1.671392	0.007698	0.159011
O7	O	2.135892	-0.056678	0.159020
Cu8	Cu	1.906607	-0.027117	0.188049
Cu9	Cu	1.868208	0.006909	-0.187995
O10	O	1.892927	0.158185	0.159008
C11	C	1.595681	0.026962	0.000021
C12	C	1.418460	0.041484	0.000018
C13	C	1.896563	-0.239119	0.000032
C14	C	1.891897	-0.377194	0.000025
C15	C	2.027846	-0.466115	0.000025
C16	C	2.023026	-0.608824	0.000018
C17	C	2.179133	-0.047170	0.000028
C18	C	2.356353	-0.061691	0.000019
C19	C	1.878252	0.218911	0.000017
C20	C	1.882917	0.356987	0.000012
N21	N	1.933626	-0.051052	0.452538
N22	N	1.841202	0.030832	-0.452485
H23	H	1.438759	-0.161133	0.000013
O24	O	2.047822	-0.152436	0.549736
C25	C	2.015328	-0.268908	0.501011
H26	H	1.939046	-0.249761	0.355637
H27	H	1.946804	-0.309889	0.613646
C28	C	2.269132	-0.390160	0.670561
C29	C	2.175453	-0.366645	0.492003
H30	H	2.367903	-0.450452	0.665013
H31	H	2.291022	-0.311692	0.703395
H32	H	2.212010	-0.424305	0.764405
H33	H	2.232566	-0.332487	0.398168
H34	H	2.153575	-0.445111	0.459153
H35	H	1.766528	-0.566656	0.000025
O36	O	2.170836	-0.430695	0.000115
C37	C	2.143812	-0.296089	0.000069
H38	H	2.025695	-0.259193	0.060264
H39	H	2.136304	-0.246812	-0.152480
C40	C	2.429065	-0.310777	0.050840
C41	C	2.283998	-0.265461	0.124788
H42	H	2.515541	-0.291882	0.127764
H43	H	2.447274	-0.401463	0.050864
H44	H	2.422786	-0.269708	-0.076283
H45	H	2.290272	-0.306542	0.251899
H46	H	2.265794	-0.174781	0.124788
O47	O	1.748849	-0.412535	-0.000238
C48	C	1.720912	-0.470949	-0.164952
H49	H	1.840795	-0.510292	-0.219855
H50	H	1.639062	-0.396357	-0.280266
C51	C	1.491775	-0.534054	-0.047507
C52	C	1.639019	-0.582385	-0.114931
H53	H	1.441253	-0.602789	-0.016657
H54	H	1.510592	-0.494695	0.063461
H55	H	1.423587	-0.471893	-0.143614
H56	H	1.707212	-0.644532	-0.018817
H57	H	1.620211	-0.621757	-0.225882
O58	O	1.726890	0.132163	0.450415
C59	C	1.645301	0.204405	0.581483
H60	H	1.725247	0.186682	0.724212
H61	H	1.528358	0.173474	0.602724
C62	C	1.507965	0.370811	0.327857
C63	C	1.606162	0.349051	0.503154
H64	H	1.483814	0.460035	0.279539
H65	H	1.562927	0.322139	0.239552
H66	H	1.410523	0.345026	0.345582
H67	H	1.703609	0.374821	0.485423
H68	H	1.551215	0.397732	0.591455
H69	H	1.336043	0.140934	0.000003
H70	H	2.139411	-0.685189	0.000026
