data_functionalizedCrystal
_audit_creation_method	'MofGen! by Chris Wilmer'
_symmetry_space_group_name_H-M	'P1'
_symmetry_Int_Tables_number	1
_symmetry_cell_setting	triclinic
loop_
_symmetry_equiv_pos_as_xyz
  x,y,z
_cell_length_a	19.077212
_cell_length_b	16.120484
_cell_length_c	16.120256
_cell_angle_alpha	84.383827
_cell_angle_beta	89.541074
_cell_angle_gamma	95.329300
loop_
_atom_site_label
_atom_site_type_symbol
_atom_site_fract_x
_atom_site_fract_y
_atom_site_fract_z
Zn1	Zn	1.039772	-0.309798	0.536695
Zn2	Zn	1.539772	0.190202	1.036695
Zn3	Zn	1.039684	-0.442488	0.404000
Zn4	Zn	1.539684	0.057512	0.904000
Zn5	Zn	0.928358	-0.307763	0.391878
Zn6	Zn	1.428358	0.192237	0.891878
Zn7	Zn	0.915756	-0.455131	0.538093
Zn8	Zn	1.415756	0.044869	1.038093
O9	O	0.980893	-0.378795	0.467667
O10	O	1.480893	0.121205	0.967667
O11	O	1.138252	-0.322961	0.523580
O12	O	1.638252	0.177039	1.023580
O13	O	1.030153	-0.418473	0.285668
O14	O	1.530153	0.081527	0.785668
O15	O	0.948448	-0.190827	0.405430
O16	O	1.448448	0.309173	0.905430
O17	O	1.138187	-0.420447	0.426090
O18	O	1.638187	0.079553	0.926090
O19	O	1.030304	-0.192323	0.511826
O20	O	1.530304	0.307677	1.011826
O21	O	0.948363	-0.319491	0.276762
O22	O	1.448363	0.180509	0.776762
O23	O	0.828195	-0.331750	0.406786
O24	O	1.328195	0.168250	0.906786
O25	O	0.926970	-0.441996	0.654633
O26	O	1.426970	0.058004	1.154633
O27	O	0.818936	-0.440021	0.514210
O28	O	1.318936	0.059979	1.014210
O29	O	1.018084	-0.335220	0.653605
O30	O	1.518084	0.164780	1.153605
O31	O	1.017934	-0.561371	0.427447
O32	O	1.517934	-0.061371	0.927447
O33	O	0.926884	-0.570659	0.525964
O34	O	1.426884	-0.070659	1.025964
C35	C	0.798028	-0.387038	0.459335
C36	C	1.298028	0.112962	0.959335
C37	C	0.719795	-0.390585	0.455791
C38	C	1.219795	0.109415	0.955791
C39	C	0.971050	-0.596405	0.478192
C40	C	1.471050	-0.096405	0.978192
C41	C	0.966903	-0.689498	0.482725
C42	C	1.466903	-0.189498	0.982725
C43	C	0.279426	-0.415994	0.430413
C44	C	0.779426	0.084006	0.930413
C45	C	0.352934	-0.412656	0.433736
C46	C	0.852934	0.087344	0.933736
C47	C	0.389716	-0.360323	0.486247
C48	C	0.889716	0.139677	0.986247
C49	C	0.352987	-0.311319	0.535431
C50	C	0.852987	0.188681	1.035431
C51	C	0.279481	-0.314653	0.532103
C52	C	0.779481	0.185347	1.032103
C53	C	0.609560	-0.344915	0.501648
C54	C	1.109560	0.155085	1.001648
C55	C	0.683071	-0.341586	0.504974
C56	C	1.183071	0.158414	1.004974
C57	C	0.683013	-0.442923	0.403278
C58	C	1.183013	0.057077	0.903278
C59	C	0.609505	-0.446256	0.399958
C60	C	1.109505	0.053744	0.899958
C61	C	0.572783	-0.397248	0.449139
C62	C	1.072783	0.102752	0.949139
N63	N	0.464853	-0.356912	0.489647
N64	N	0.964853	0.143088	0.989647
N65	N	0.497648	-0.400656	0.445734
N66	N	0.997648	0.099344	0.945734
C67	C	0.959334	-0.859940	0.491019
C68	C	1.459334	-0.359940	0.991019
C69	C	1.002577	-0.896804	0.444333
C70	C	1.502577	-0.396804	0.944333
C71	C	0.998366	-0.991644	0.448948
C72	C	1.498366	-0.491644	0.948948
C73	C	0.963544	-0.765092	0.486406
C74	C	1.463544	-0.265092	0.986406
C75	C	1.164472	-0.370521	0.476031
C76	C	1.664472	0.129479	0.976031
C77	C	1.242702	-0.366995	0.479596
C78	C	1.742702	0.133005	0.979596
C79	C	0.971131	-0.390245	0.685230
C80	C	1.471131	0.109755	1.185230
C81	C	0.966972	-0.395125	0.777943
C82	C	1.466972	0.104875	1.277943
C83	C	0.990792	-0.160335	0.457120
C84	C	1.490792	0.339665	0.957120
C85	C	0.995010	-0.067241	0.452625
C86	C	1.495010	0.432759	0.952625
C87	C	0.990659	-0.367327	0.250948
C88	C	1.490659	0.132673	0.750948
C89	C	0.994966	-0.362205	0.158231
C90	C	1.494966	0.137795	0.658231
C91	C	1.002584	-0.353328	0.988487
C92	C	1.502584	0.146672	1.488487
C93	C	0.959355	-0.404000	0.947682
C94	C	1.459355	0.096000	1.447682
C95	C	0.963594	-0.399060	0.853230
C96	C	1.463594	0.100940	1.353230
C97	C	0.998346	-0.358266	1.082947
C98	C	1.498346	0.141734	1.582947
H99	H	0.249483	-0.458613	0.387658
H100	H	0.749483	0.041387	0.887658
H101	H	0.919158	-0.451087	0.983683
H102	H	1.419158	0.048913	1.483683
H103	H	0.713017	-0.298965	0.547733
H104	H	1.213017	0.201035	1.047733
H105	H	1.042775	-0.306241	0.952488
H106	H	1.542775	0.193759	1.452488
H107	H	0.382832	-0.452555	0.393685
H108	H	0.882832	0.047445	0.893685
H109	H	0.579563	-0.488870	0.357197
H110	H	1.079563	0.011130	0.857197
H111	H	0.919152	-0.899604	0.534451
H112	H	1.419152	-0.399604	1.034451
O113	O	0.718798	-0.490438	0.355529
O114	O	1.218798	0.009562	0.855529
C115	C	0.832009	-0.530250	0.315615
C116	C	1.332009	-0.030250	0.815615
C117	C	0.791573	-0.476382	0.369725
C118	C	1.291573	0.023618	0.869725
H119	H	0.890854	-0.518919	0.327086
H120	H	1.390854	-0.018919	0.827086
H121	H	0.821280	-0.512544	0.246994
H122	H	1.321280	-0.012544	0.746994
H123	H	0.813817	-0.599222	0.332749
H124	H	1.313817	-0.099222	0.832749
H125	H	0.809742	-0.407395	0.352664
H126	H	1.309742	0.092605	0.852664
H127	H	0.802303	-0.494159	0.438332
H128	H	1.302303	0.005841	0.938332
H129	H	0.579669	-0.305014	0.541699
H130	H	1.079669	0.194986	1.041699
H131	H	0.382941	-0.268705	0.578183
H132	H	0.882941	0.231295	1.078183
H133	H	0.249581	-0.274750	0.572150
H134	H	0.749581	0.225250	1.072150
H135	H	1.042761	-0.857137	0.400898
H136	H	1.542761	-0.357137	0.900898
