data_functionalizedCrystal
_audit_creation_method	'MofGen! by Chris Wilmer'
_symmetry_space_group_name_H-M	'P1'
_symmetry_Int_Tables_number	1
_symmetry_cell_setting	triclinic
loop_
_symmetry_equiv_pos_as_xyz
  x,y,z
_cell_length_a	15.624803
_cell_length_b	14.750779
_cell_length_c	17.699083
_cell_angle_alpha	77.376932
_cell_angle_beta	96.223640
_cell_angle_gamma	94.868986
loop_
_atom_site_label
_atom_site_type_symbol
_atom_site_fract_x
_atom_site_fract_y
_atom_site_fract_z
O1	O	1.083795	0.457219	-0.192691
O2	O	0.841953	0.373014	-0.187176
O3	O	0.969712	0.417474	-0.080247
O4	O	0.956036	0.412759	-0.299619
O5	O	1.005828	0.270392	-0.050023
O6	O	0.878069	0.225932	-0.156952
O7	O	1.119911	0.310137	-0.162467
Zn8	Zn	1.004724	0.244682	-0.154911
Zn9	Zn	0.957140	0.438469	-0.194732
O10	O	0.992152	0.265677	-0.269395
C11	C	0.829068	0.288699	-0.169318
C12	C	0.736868	0.256595	-0.161130
C13	C	0.335270	0.551971	-0.216549
C14	C	0.248636	0.521804	-0.208839
C15	C	0.287987	0.361453	-0.175888
C16	C	0.374626	0.391607	-0.183592
C17	C	0.398260	0.486867	-0.203923
C18	C	0.437617	0.326503	-0.170966
C19	C	0.524248	0.356655	-0.178673
C20	C	0.547889	0.451911	-0.199006
C21	C	0.484891	0.517019	-0.211630
C22	C	0.413980	0.231244	-0.150640
C23	C	0.476971	0.166140	-0.138014
C24	C	0.563605	0.196292	-0.145716
C25	C	0.587246	0.291547	-0.166048
C26	C	0.626602	0.131184	-0.133091
C27	C	0.713234	0.161335	-0.140798
C28	C	0.673877	0.321699	-0.173755
N29	N	1.037205	0.112430	-0.127734
C30	C	0.833951	-0.310121	-0.297771
C31	C	0.856717	-0.402697	-0.278732
C32	C	0.969871	-0.363283	-0.184087
C33	C	0.947111	-0.270702	-0.203115
C34	C	0.879151	-0.244129	-0.259958
C35	C	0.992311	-0.204710	-0.165302
C36	C	0.969556	-0.112136	-0.184331
C37	C	0.901600	-0.085555	-0.241173
C38	C	0.856395	-0.151555	-0.278987
C39	C	1.060275	-0.231283	-0.108463
C40	C	1.105475	-0.165291	-0.070650
C41	C	1.082716	-0.072717	-0.089675
C42	C	1.014760	-0.046136	-0.146517
C43	C	1.127921	-0.006717	-0.051861
C44	C	1.105165	0.085857	-0.070891
C45	C	0.992005	0.046438	-0.165547
C46	C	1.132796	0.394454	-0.180325
C47	C	1.224995	0.426564	-0.188515
C48	C	0.987281	0.343759	-0.036901
C49	C	0.985815	0.343236	0.047228
N50	N	0.924666	0.570724	-0.221903
C51	C	1.060805	0.369339	0.090279
C52	C	1.059421	0.368855	0.169326
C53	C	0.983046	0.342261	0.205321
C54	C	0.908050	0.316159	0.162264
C55	C	0.909434	0.316650	0.083218
C56	C	0.902466	0.314179	0.481049
C57	C	0.901088	0.313688	0.560102
C58	C	1.052453	0.366384	0.567158
C59	C	1.053837	0.366875	0.488111
C60	C	0.978840	0.340778	0.445060
C61	C	0.980342	0.341305	0.359348
C62	C	0.981545	0.341727	0.291033
C63	C	0.974590	0.339363	0.687265
C64	C	0.976078	0.339797	0.603153
H65	H	0.197348	0.574826	-0.219124
H66	H	0.268731	0.283892	-0.159337
H67	H	0.845863	0.294511	0.191577
O68	O	1.043167	-0.391945	-0.122777
H69	H	1.051394	-0.467405	-0.115893
H70	H	0.343438	0.206697	-0.144370
H71	H	1.113518	0.387638	0.602219
O72	O	1.201227	-0.035380	0.009437
H73	H	1.186412	-0.021265	0.065557
H74	H	0.457715	0.088579	-0.121463
H75	H	1.141973	0.139590	-0.040100
H76	H	1.122999	0.390990	0.060979
O77	O	0.783076	-0.122879	-0.340276
H78	H	0.807575	-0.068529	-0.388286
H79	H	0.819905	-0.456427	-0.309530
H80	H	0.841398	0.292929	0.446006
H81	H	1.120486	0.390109	0.204375
O82	O	0.828555	0.288487	0.036780
H83	H	0.775216	0.269901	0.075090
O84	O	0.601043	0.028422	-0.111612
H85	H	0.530197	0.018386	-0.108536
O86	O	0.510403	0.619763	-0.233549
H87	H	0.476833	0.649827	-0.290983
O88	O	0.877047	0.014290	-0.261695
H89	H	0.933059	0.060319	-0.283353
H90	H	0.764523	0.108321	-0.130521
O91	O	1.136208	0.395571	0.449283
H92	H	1.188119	0.413653	0.492497
H93	H	1.078802	-0.306663	-0.092974
O94	O	0.918686	0.075085	-0.226844
H95	H	0.868027	0.103200	-0.200685
O96	O	0.760649	-0.281447	-0.359080
H97	H	0.733039	-0.342886	-0.382181
H98	H	0.693120	0.399269	-0.190309
O99	O	1.178771	-0.193954	-0.009340
H100	H	1.186999	-0.269414	-0.002455
H101	H	0.838892	0.292029	0.589407
H102	H	0.618430	0.476458	-0.205285
H103	H	0.354513	0.629541	-0.233102
