data_functionalizedCrystal
_audit_creation_method	'MofGen! by Chris Wilmer'
_symmetry_space_group_name_H-M	'P1'
_symmetry_Int_Tables_number	1
_symmetry_cell_setting	triclinic
loop_
_symmetry_equiv_pos_as_xyz
  x,y,z
_cell_length_a	16.992695
_cell_length_b	16.956993
_cell_length_c	16.053810
_cell_angle_alpha	92.379604
_cell_angle_beta	92.752725
_cell_angle_gamma	96.638539
loop_
_atom_site_label
_atom_site_type_symbol
_atom_site_fract_x
_atom_site_fract_y
_atom_site_fract_z
O1	O	0.028845	-1.063229	-0.069514
O2	O	0.056259	-0.832818	-0.069498
O3	O	-0.071531	-0.947100	-0.069499
O4	O	0.156634	-0.948948	-0.069512
O5	O	-0.064501	-0.940837	0.069360
O6	O	0.063289	-0.826555	0.069361
O7	O	0.035875	-1.056966	0.069345
Zn8	Zn	0.050698	-0.940766	0.091400
Zn9	Zn	0.041436	-0.949018	-0.091553
O10	O	0.163664	-0.942685	0.069346
C11	C	0.061177	-0.800068	-0.000066
C12	C	0.065350	-0.711813	-0.000060
C13	C	0.096567	-0.214503	-0.000080
C14	C	0.092640	-0.297428	-0.000081
C15	C	0.018928	-0.343819	-0.000072
C16	C	-0.050863	-0.307281	-0.000069
C17	C	-0.046935	-0.224357	-0.000074
C18	C	-0.000512	-0.592352	-0.000062
C19	C	-0.004434	-0.675280	-0.000055
C20	C	0.139069	-0.665422	-0.000068
C21	C	0.142990	-0.582498	-0.000068
C22	C	0.073199	-0.545967	-0.000070
N23	N	0.014912	-0.428581	-0.000070
N24	N	0.077215	-0.461206	-0.000077
C25	C	-0.097074	-0.941592	-0.000070
C26	C	-0.183659	-0.934501	-0.000069
C27	C	-0.238333	-1.002916	-0.000073
C28	C	-0.319688	-0.996249	-0.000081
C29	C	-0.346367	-0.921166	-0.000078
C30	C	-0.291686	-0.852746	-0.000077
C31	C	-0.210333	-0.859414	-0.000075
C32	C	-0.588174	-0.893531	-0.000088
C33	C	-0.669534	-0.886869	-0.000087
C34	C	-0.697531	-1.030372	-0.000092
C35	C	-0.616175	-1.037033	-0.000086
C36	C	-0.561501	-0.968613	-0.000089
N37	N	-0.429524	-0.914350	-0.000083
N38	N	-0.478346	-0.975431	-0.000090
C39	C	0.189208	-0.948193	-0.000085
C40	C	0.275792	-0.955284	-0.000091
C41	C	0.030956	-0.089716	-0.000082
C42	C	0.026782	-0.177970	-0.000075
N43	N	0.057018	-0.935140	0.216260
N44	N	0.035109	-0.954650	-0.216413
C45	C	0.089472	-0.906010	0.739893
C46	C	0.085064	-0.909963	0.652486
C47	C	0.026296	-0.962562	0.608775
C48	C	-0.028072	-1.011204	0.652476
C49	C	-0.023668	-1.007246	0.739881
C50	C	0.007054	-0.979824	0.347366
C51	C	0.002655	-0.983780	0.259955
C52	C	0.115791	-0.882538	0.259971
C53	C	0.120194	-0.878588	0.347377
C54	C	0.065822	-0.927227	0.391070
N55	N	0.021791	-0.966606	0.519432
N56	N	0.070325	-0.923178	0.480413
H57	H	-0.057340	-0.562619	-0.000062
Cl58	Cl	-0.388419	-1.082261	-0.000083
H59	H	-0.594460	-1.098173	-0.000088
H60	H	-0.110881	-0.345059	-0.000067
Cl61	Cl	0.180373	-0.343352	-0.000092
H62	H	0.195888	-0.695175	-0.000067
Cl63	Cl	-0.071230	-1.049912	0.205010
H64	H	0.203014	-0.544732	-0.000078
H65	H	-0.691250	-0.825723	-0.000071
H66	H	-0.037216	-1.019430	0.382934
H67	H	0.137329	-0.863182	0.775476
Cl68	Cl	-0.134669	-0.178430	-0.000068
Cl69	Cl	-0.204803	-1.097310	-0.000068
Cl70	Cl	0.189239	-0.156191	-0.000085
H71	H	-0.313414	-0.791613	-0.000080
Cl72	Cl	-0.141598	-0.773403	-0.000073
H73	H	0.160057	-0.842938	0.224388
H74	H	-0.742054	-1.086075	-0.000091
Cl75	Cl	0.153407	-0.848814	0.597554
Cl76	Cl	-0.519452	-0.807517	-0.000094
Cl77	Cl	-0.101956	-1.077325	0.597527
H78	H	0.168047	-0.835758	0.382965
H79	H	-0.064463	-0.713050	-0.000051
Cl80	Cl	-0.092016	-1.068394	0.794811
