data_functionalizedCrystal
_audit_creation_method	'MofGen! by Chris Wilmer'
_symmetry_space_group_name_H-M	'P1'
_symmetry_Int_Tables_number	1
_symmetry_cell_setting	triclinic
loop_
_symmetry_equiv_pos_as_xyz
  x,y,z
_cell_length_a	14.519709
_cell_length_b	10.540539
_cell_length_c	12.996460
_cell_angle_alpha	89.996006
_cell_angle_beta	90.000034
_cell_angle_gamma	84.102818
loop_
_atom_site_label
_atom_site_type_symbol
_atom_site_fract_x
_atom_site_fract_y
_atom_site_fract_z
O1	O	1.224765	0.166400	-0.085428
O2	O	0.956394	0.185995	-0.085459
O3	O	1.096702	-0.008571	-0.085441
O4	O	1.084457	0.360967	-0.085445
O5	O	1.096688	-0.008582	0.085693
O6	O	0.956379	0.185985	0.085675
O7	O	1.224751	0.166389	0.085706
Cu8	Cu	1.090563	0.176186	0.101316
Cu9	Cu	1.090581	0.176199	-0.101069
O10	O	1.084442	0.360956	0.085689
C11	C	0.922022	0.185077	0.000104
C12	C	0.819626	0.182340	0.000092
C13	C	0.444676	0.172265	0.000139
C14	C	0.548999	0.175063	0.000126
C15	C	0.632148	0.177303	0.000115
C16	C	0.736477	0.180101	0.000103
C17	C	1.095777	-0.055870	0.000124
C18	C	1.093029	-0.196790	0.000118
C19	C	0.987750	-0.379142	-0.000278
C20	C	0.990535	-0.232553	0.000107
C21	C	1.142346	-0.258958	0.097849
C22	C	1.138848	-0.405467	0.097931
C23	C	1.140949	-0.405994	-0.096680
C24	C	1.141893	-0.259021	-0.097972
C25	C	1.259123	0.167308	0.000141
C26	C	1.361519	0.170044	0.000146
C27	C	1.085368	0.408255	0.000121
C28	C	1.088115	0.549175	0.000120
N29	N	1.090558	0.176176	0.243664
N30	N	1.090594	0.176198	-0.243416
C31	C	1.090580	0.176200	0.663478
C32	C	1.090571	0.176198	0.546673
C33	C	1.090569	0.176189	0.453574
C34	C	1.090560	0.176185	0.336762
H35	H	0.947268	-0.407325	-0.070364
H36	H	1.108076	-0.216013	0.170570
H37	H	0.951445	-0.190402	0.070273
H38	H	1.102388	-0.433299	0.170979
C39	C	0.927452	-0.551065	0.090397
C40	C	0.933308	-0.419359	0.093797
H41	H	0.893850	-0.575893	0.148481
H42	H	0.896529	-0.571831	0.029207
H43	H	0.988010	-0.594791	0.091216
H44	H	0.872750	-0.375633	0.092970
H45	H	0.964229	-0.398581	0.155003
H46	H	1.105809	-0.217790	-0.170271
H47	H	1.212560	-0.454188	0.102373
C48	C	1.003935	-0.394528	-0.201099
C49	C	1.096178	-0.448111	-0.196682
H50	H	0.976293	-0.420524	-0.262836
H51	H	0.971030	-0.422541	-0.143635
H52	H	1.001928	-0.304177	-0.199837
H53	H	1.098185	-0.538463	-0.197936
H54	H	1.129092	-0.420105	-0.254161
C55	C	1.255711	-0.543186	-0.187474
C56	C	1.240888	-0.470766	-0.097569
H57	H	1.317408	-0.583169	-0.188019
H58	H	1.213641	-0.606442	-0.189614
H59	H	1.246151	-0.489053	-0.245764
H60	H	1.250441	-0.524901	-0.039280
H61	H	1.282970	-0.407502	-0.095420
H62	H	0.951730	-0.189549	-0.069951
C63	C	1.263565	-0.155429	0.017824
C64	C	1.243954	-0.229814	0.102780
H65	H	1.326292	-0.137431	0.020873
H66	H	1.253626	-0.200628	-0.043739
H67	H	1.224084	-0.077769	0.018735
H68	H	1.283431	-0.307479	0.101865
H69	H	1.253902	-0.184616	0.164359
H70	H	1.216620	-0.235562	-0.103864
