data_functionalizedCrystal
_audit_creation_method	'MofGen! by Chris Wilmer'
_symmetry_space_group_name_H-M	'P1'
_symmetry_Int_Tables_number	1
_symmetry_cell_setting	triclinic
loop_
_symmetry_equiv_pos_as_xyz
  x,y,z
_cell_length_a	13.262390
_cell_length_b	11.792241
_cell_length_c	12.376457
_cell_angle_alpha	101.354533
_cell_angle_beta	63.168449
_cell_angle_gamma	84.317877
loop_
_atom_site_label
_atom_site_type_symbol
_atom_site_fract_x
_atom_site_fract_y
_atom_site_fract_z
O1	O	1.512548	0.024069	-0.559052
O2	O	1.185664	0.063848	-0.458551
O3	O	1.357037	-0.121786	-0.511232
O4	O	1.341175	0.209703	-0.506371
O5	O	1.314209	-0.075438	-0.310054
O6	O	1.142836	0.110196	-0.257373
O7	O	1.469720	0.070417	-0.357874
Zn8	Zn	1.299478	0.097665	-0.275683
Zn9	Zn	1.355906	0.036600	-0.540743
O10	O	1.298347	0.256052	-0.305193
C11	C	1.122402	0.089055	-0.345096
C12	C	0.997707	0.095098	-0.306758
C13	C	0.739607	0.011057	-0.637356
C14	C	0.856765	0.005373	-0.673379
C15	C	0.892007	0.027804	-0.581727
C16	C	0.810078	0.055920	-0.454046
C17	C	0.692909	0.061596	-0.418020
C18	C	0.845309	0.078343	-0.362390
C19	C	0.763380	0.106459	-0.234709
C20	C	0.646223	0.112134	-0.198690
C21	C	0.610982	0.089703	-0.290342
C22	C	0.962477	0.072667	-0.398416
C23	C	0.915779	0.123206	-0.179080
C24	C	0.798621	0.128890	-0.143057
C25	C	1.334626	-0.140831	-0.410337
C26	C	1.331644	-0.266628	-0.409421
C27	C	1.326163	-0.496947	-0.407755
C28	C	1.329208	-0.368780	-0.408681
C29	C	1.532983	0.045210	-0.471332
C30	C	1.657680	0.039164	-0.509678
C31	C	1.320758	0.275095	-0.406091
C32	C	1.323743	0.400891	-0.407015
N33	N	1.260976	0.139340	-0.094788
N34	N	1.394417	-0.005084	-0.721640
C35	C	1.483794	-0.101846	0.191701
C36	C	1.510735	-0.131014	0.065079
C37	C	1.448297	-0.063428	0.025106
C38	C	1.358914	0.033331	0.111767
C39	C	1.331975	0.062507	0.238400
C40	C	1.296479	0.100925	0.071805
C41	C	1.207096	0.197684	0.158466
C42	C	1.180161	0.226855	0.285085
C43	C	1.242599	0.159269	0.325059
C44	C	1.323418	0.071749	-0.054828
C45	C	1.171599	0.236102	-0.008129
C46	C	1.144658	0.265270	0.118493
H47	H	0.944471	0.141469	-0.104449
Br48	Br	1.023353	0.396581	0.236115
Br49	Br	1.632037	-0.262319	-0.052530
H50	H	0.515583	0.094334	-0.261019
H51	H	1.396194	-0.007032	-0.125377
Br52	Br	0.687420	0.167049	0.030219
Br53	Br	1.058873	0.358185	0.402695
Br54	Br	1.568536	-0.193549	0.245948
H55	H	1.470237	-0.087181	-0.077996
Br56	Br	1.206025	0.198850	0.496913
H57	H	0.710902	-0.007214	-0.711966
Br58	Br	1.086864	0.327839	-0.062371
H59	H	1.029173	0.049777	-0.502375
H60	H	0.923465	-0.017525	-0.777337
Br61	Br	0.535036	0.150282	-0.025409
Br62	Br	1.051010	0.020092	-0.630616
