data_functionalizedCrystal
_audit_creation_method	'MofGen! by Chris Wilmer'
_symmetry_space_group_name_H-M	'P1'
_symmetry_Int_Tables_number	1
_symmetry_cell_setting	triclinic
loop_
_symmetry_equiv_pos_as_xyz
  x,y,z
_cell_length_a	21.295417
_cell_length_b	16.959455
_cell_length_c	16.959447
_cell_angle_alpha	89.985678
_cell_angle_beta	90.035193
_cell_angle_gamma	89.972546
loop_
_atom_site_label
_atom_site_type_symbol
_atom_site_fract_x
_atom_site_fract_y
_atom_site_fract_z
Zn1	Zn	-0.250648	-1.208326	0.446882
Zn2	Zn	0.249352	-0.708326	0.946882
Zn3	Zn	-0.355925	-1.208225	0.314692
Zn4	Zn	0.144075	-0.708225	0.814692
Zn5	Zn	-0.250668	-1.076155	0.314719
Zn6	Zn	0.249332	-0.576155	0.814719
Zn7	Zn	-0.355878	-1.076096	0.446831
Zn8	Zn	0.144122	-0.576096	0.946831
O9	O	-0.303280	-1.142200	0.380781
O10	O	0.196720	-0.642200	0.880781
O11	O	-0.264625	-1.318924	0.429357
O12	O	0.235375	-0.818924	0.929357
O13	O	-0.341990	-1.190688	0.204085
O14	O	0.158010	-0.690688	0.704085
O15	O	-0.162576	-1.093755	0.332284
O16	O	0.337424	-0.593755	0.832284
O17	O	-0.341971	-1.318849	0.332237
O18	O	0.158029	-0.818849	0.832237
O19	O	-0.162561	-1.190861	0.429383
O20	O	0.337439	-0.690861	0.929383
O21	O	-0.264658	-1.093657	0.204105
O22	O	0.235342	-0.593657	0.704105
O23	O	-0.264613	-0.965536	0.332234
O24	O	0.235387	-0.465536	0.832234
O25	O	-0.341891	-1.093654	0.557448
O26	O	0.158109	-0.593654	1.057448
O27	O	-0.341910	-0.965493	0.429296
O28	O	0.158090	-0.465493	0.929296
O29	O	-0.264579	-1.190803	0.557486
O30	O	0.235421	-0.690803	1.057486
O31	O	-0.444008	-1.190630	0.332188
O32	O	0.055992	-0.690630	0.832188
O33	O	-0.443973	-1.093555	0.429269
O34	O	0.056027	-0.593555	0.929269
C35	C	-0.466831	-1.142097	0.380737
C36	C	0.033169	-0.642097	0.880737
C37	C	-0.536799	-1.142125	0.380745
C38	C	-0.036799	-0.642125	0.880745
C39	C	-0.303259	-0.936834	0.380763
C40	C	0.196741	-0.436834	0.880763
C41	C	-0.303265	-0.848978	0.380774
C42	C	0.196735	-0.348978	0.880774
C43	C	-0.303228	-1.142233	0.586949
C44	C	0.196772	-0.642233	1.086949
C45	C	-0.303205	-1.142247	0.674806
C46	C	0.196795	-0.642247	1.174806
C47	C	-0.569663	-1.192717	0.330246
C48	C	-0.069663	-0.692717	0.830246
C49	C	-0.635406	-1.192754	0.330264
C50	C	-0.135406	-0.692754	0.830264
C51	C	-0.668282	-1.142185	0.380772
C52	C	-0.168282	-0.642185	0.880772
C53	C	-0.635410	-1.091589	0.431281
C54	C	-0.135410	-0.591589	0.931281
C55	C	-0.569669	-1.091559	0.431267
C56	C	-0.069669	-0.591559	0.931267
N57	N	-0.771544	-1.073038	0.386792
N58	N	-0.271544	-0.573038	0.886792
N59	N	-0.833996	-1.073069	0.386800
N60	N	-0.333996	-0.573069	0.886800
C61	C	-0.866357	-1.142273	0.380818
C62	C	-0.366357	-0.642273	0.880818
N63	N	-0.833907	-1.211448	0.374811
N64	N	-0.333907	-0.711448	0.874811
N65	N	-0.771449	-1.211416	0.374798
N66	N	-0.271449	-0.711416	0.874798
C67	C	-0.739567	-1.142212	0.380793
C68	C	-0.239567	-0.642212	0.880793
C69	C	-0.970506	-1.192910	0.330335
C70	C	-0.470506	-0.692910	0.830335
C71	C	-1.036249	-1.192948	0.330359
C72	C	-0.536249	-0.692948	0.830359
C73	C	-1.036253	-1.091777	0.431371
C74	C	-0.536253	-0.591777	0.931371
C75	C	-0.970510	-1.091745	0.431352
C76	C	-0.470510	-0.591745	0.931352
C77	C	-0.937641	-1.142311	0.380830
C78	C	-0.437641	-0.642311	0.880830
C79	C	-0.139089	-1.142326	0.380842
C80	C	0.360911	-0.642326	0.880842
C81	C	-0.069121	-1.142379	0.380868
C82	C	0.430879	-0.642379	0.880868
C83	C	-0.303301	-1.348369	0.380800
C84	C	0.196699	-0.848369	0.880800
C85	C	-0.303310	-1.436225	0.380808
C86	C	0.196690	-0.936225	0.880808
C87	C	-0.262998	-0.477500	0.330347
C88	C	0.237002	0.022500	0.830347
C89	C	-0.343613	-0.477504	0.431261
C90	C	0.156387	0.022496	0.931261
C91	C	-0.343604	-0.560050	0.431256
C92	C	0.156396	-0.060050	0.931256
C93	C	-0.303292	-0.601325	0.380795
C94	C	0.196708	-0.101325	0.880795
C95	C	-0.262989	-0.560054	0.330339
C96	C	0.237011	-0.060054	0.830339
C97	C	-0.383911	-0.601327	0.481705
C98	C	0.116089	-0.101327	0.981705
C99	C	-0.383904	-0.683877	0.481702
C100	C	0.116096	-0.183877	0.981702
C101	C	-0.343588	-0.725154	0.431244
C102	C	0.156412	-0.225154	0.931244
C103	C	-0.303283	-0.683878	0.380787
C104	C	0.196717	-0.183878	0.880787
C105	C	-0.262971	-0.725153	0.330326
C106	C	0.237029	-0.225153	0.830326
C107	C	-0.222662	-0.683879	0.279871
C108	C	0.277338	-0.183879	0.779871
C109	C	-0.222673	-0.601330	0.279881
C110	C	0.277327	-0.101330	0.779881
C111	C	-0.343577	-0.807702	0.431235
C112	C	0.156423	-0.307702	0.931235
C113	C	-0.262962	-0.807707	0.330318
C114	C	0.237038	-0.307707	0.830318
C115	C	-0.303286	-1.142213	0.175415
C116	C	0.196714	-0.642213	0.675415
C117	C	-0.303131	-1.142352	0.087559
C118	C	0.196869	-0.642352	0.587559
C119	C	-0.343392	-1.091760	1.046265
C120	C	0.156608	-0.591760	1.546265
C121	C	-0.262886	-1.192923	1.046299
C122	C	0.237114	-0.692923	1.546299
C123	C	-0.262900	-1.192902	0.963753
C124	C	0.237100	-0.692902	1.463753
C125	C	-0.303160	-1.142310	0.922459
C126	C	0.196840	-0.642310	1.422459
C127	C	-0.343407	-1.091740	0.963711
C128	C	0.156593	-0.591740	1.463711
C129	C	-0.222658	-1.243478	0.922495
C130	C	0.277342	-0.743478	1.422495
C131	C	-0.222670	-1.243459	0.839944
C132	C	0.277330	-0.743459	1.339944
C133	C	-0.262928	-1.192863	0.798648
C134	C	0.237072	-0.692863	1.298648
C135	C	-0.303176	-1.142289	0.839906
C136	C	0.196824	-0.642289	1.339906
C137	C	-0.343437	-1.091698	0.798612
C138	C	0.156563	-0.591698	1.298612
C139	C	-0.383682	-1.041120	0.839867
C140	C	0.116318	-0.541120	1.339867
C141	C	-0.383665	-1.041143	0.922416
C142	C	0.116335	-0.541143	1.422416
C143	C	-0.262945	-1.192839	0.716100
C144	C	0.237055	-0.692839	1.216100
C145	C	-0.343453	-1.091677	0.716058
C146	C	0.156547	-0.591677	1.216058
H147	H	-0.662168	-1.233954	0.289142
H148	H	-0.162168	-0.733954	0.789142
O149	O	-0.670864	-1.037036	0.485751
O150	O	-0.170864	-0.537036	0.985751
H151	H	-0.722100	-1.045548	0.477268
H152	H	-0.222100	-0.545548	0.977268
H153	H	-0.189843	-0.717496	0.238783
H154	H	0.310157	-0.217496	0.738783
O155	O	-0.534210	-1.247256	0.275761
O156	O	-0.034210	-0.747256	0.775761
H157	H	-0.504207	-1.287431	0.311168
H158	H	-0.004207	-0.787431	0.811168
O159	O	-0.387090	-0.432992	0.485687
O160	O	0.112910	0.067008	0.985687
H161	H	-0.380323	-0.368656	0.477219
H162	H	0.119677	0.131344	0.977219
O163	O	-1.071693	-1.247524	0.275889
O164	O	-0.571693	-0.747524	0.775889
H165	H	-1.101587	-1.287740	0.311309
H166	H	-0.601587	-0.787740	0.811309
O167	O	-0.386793	-1.037206	1.090758
O168	O	0.113207	-0.537206	1.590758
H169	H	-0.436204	-1.050713	1.074890
H170	H	0.063796	-0.550713	1.574890
H171	H	-1.063020	-1.050606	0.472499
H172	H	-0.563020	-0.550606	0.972499
H173	H	-0.542911	-1.050361	0.472390
H174	H	-0.042911	-0.550361	0.972390
H175	H	-0.376398	-0.841304	0.472312
H176	H	0.123602	-0.341304	0.972312
H177	H	-0.376232	-1.050471	0.682442
H178	H	0.123768	-0.550471	1.182442
O179	O	-0.935058	-1.037158	0.485798
O180	O	-0.435058	-0.537158	0.985798
H181	H	-0.968961	-1.001990	0.520915
H182	H	-0.468961	-0.501990	1.020915
O183	O	-0.219490	-0.852225	0.275882
O184	O	0.280510	-0.352225	0.775882
H185	H	-0.191471	-0.809655	0.240796
H186	H	0.308529	-0.309655	0.740796
H187	H	-0.230178	-0.443891	0.289270
H188	H	0.269822	0.056109	0.789270
H189	H	-0.189857	-0.567717	0.238803
H190	H	0.310143	-0.067717	0.738803
H191	H	-0.230179	-1.234021	0.682513
H192	H	0.269821	-0.734021	1.182513
O193	O	-0.219454	-1.247465	1.090846
O194	O	0.280546	-0.747465	1.590846
H195	H	-0.247616	-1.287665	1.128456
H196	H	0.252384	-0.787665	1.628456
O197	O	-0.935046	-1.247454	0.275858
O198	O	-0.435046	-0.747454	0.775858
H199	H	-0.968946	-1.282652	0.240755
H200	H	-0.468946	-0.782652	0.740755
H201	H	-0.416465	-0.999931	0.806235
H202	H	0.083535	-0.499931	1.306235
O203	O	-0.427387	-0.556813	0.536131
O204	O	0.072613	-0.056813	1.036131
H205	H	-0.420614	-0.492478	0.527667
H206	H	0.079386	0.007522	1.027667
O207	O	-0.427369	-0.728394	0.536126
O208	O	0.072631	-0.228394	1.036126
H209	H	-0.455398	-0.685824	0.571220
H210	H	0.044602	-0.185824	1.071220
O211	O	-0.427071	-0.986594	0.966910
O212	O	0.072929	-0.486594	1.466910
H213	H	-0.420299	-0.995114	1.031248
H214	H	0.079701	-0.495114	1.531248
O215	O	-0.179212	-1.298014	0.967029
O216	O	0.320788	-0.798014	1.467029
H217	H	-0.185949	-1.289512	1.031361
H218	H	0.314051	-0.789512	1.531361
O219	O	-0.179263	-1.298004	0.795447
O220	O	0.320737	-0.798004	1.295447
H221	H	-0.151263	-1.333184	0.838031
H222	H	0.348737	-0.833184	1.338031
