data_functionalizedCrystal
_audit_creation_method	'MofGen! by Chris Wilmer'
_symmetry_space_group_name_H-M	'P1'
_symmetry_Int_Tables_number	1
_symmetry_cell_setting	triclinic
loop_
_symmetry_equiv_pos_as_xyz
  x,y,z
_cell_length_a	14.853567
_cell_length_b	9.065218
_cell_length_c	8.140239
_cell_angle_alpha	89.998670
_cell_angle_beta	90.001502
_cell_angle_gamma	84.325408
loop_
_atom_site_label
_atom_site_type_symbol
_atom_site_fract_x
_atom_site_fract_y
_atom_site_fract_z
O1	O	-1.197786	-0.192613	0.136493
O2	O	-0.697786	0.307387	0.636493
O3	O	-0.935497	-0.215559	0.136521
O4	O	-0.435497	0.284441	0.636521
O5	O	-1.072063	0.010664	0.136503
O6	O	-0.572063	0.510664	0.636503
O7	O	-1.061220	-0.418836	0.136511
O8	O	-0.561220	0.081164	0.636511
O9	O	-1.072059	0.010665	-0.136724
O10	O	-0.572059	0.510665	0.363276
O11	O	-0.935492	-0.215557	-0.136706
O12	O	-0.435492	0.284443	0.363294
O13	O	-1.197782	-0.192612	-0.136734
O14	O	-0.697782	0.307388	0.363266
Zn15	Zn	-1.066636	-0.204084	-0.180101
Zn16	Zn	-0.566636	0.295916	0.319899
Zn17	Zn	-1.066642	-0.204086	0.179888
Zn18	Zn	-0.566642	0.295914	0.679888
O19	O	-1.061216	-0.418834	-0.136716
O20	O	-0.561216	0.081166	0.363284
C21	C	-0.901898	-0.214518	-0.000089
C22	C	-0.401898	0.285482	0.499911
C23	C	-0.801791	-0.211403	-0.000079
C24	C	-0.301791	0.288597	0.499921
C25	C	-1.071019	0.065631	-0.000108
C26	C	-0.571019	0.565631	0.499892
C27	C	-1.067903	0.229412	-0.000100
C28	C	-0.567903	0.729412	0.499900
C29	C	-1.231381	-0.193652	-0.000120
C30	C	-0.731381	0.306348	0.499880
C31	C	-1.331487	-0.196768	-0.000120
C32	C	-0.831487	0.303232	0.499880
C33	C	-0.388166	-0.063852	-0.000118
C34	C	0.111834	0.436148	0.499882
C35	C	-0.368873	-0.332609	-0.000112
C36	C	0.131127	0.167391	0.499888
C37	C	-0.462929	-0.335539	-0.000106
C38	C	0.037071	0.164461	0.499894
C39	C	-0.519607	-0.202622	-0.000104
C40	C	-0.019607	0.297378	0.499896
C41	C	-0.482230	-0.066777	-0.000108
C42	C	0.017770	0.433223	0.499892
C43	C	-0.500313	-0.471382	-0.000086
C44	C	-0.000313	0.028618	0.499914
C45	C	-0.594374	-0.474316	-0.000079
C46	C	-0.094374	0.025684	0.499921
C47	C	-0.651054	-0.341399	-0.000089
C48	C	-0.151054	0.158601	0.499911
C49	C	-0.613672	-0.205548	-0.000094
C50	C	-0.113672	0.294452	0.499906
C51	C	-0.670350	-0.072632	-0.000092
C52	C	-0.170350	0.427368	0.499908
C53	C	-0.632969	0.063221	-0.000109
C54	C	-0.132969	0.563221	0.499891
C55	C	-0.538910	0.066141	-0.000118
C56	C	-0.038910	0.566141	0.499882
C57	C	-0.745113	-0.344319	-0.000081
C58	C	-0.245113	0.155681	0.499919
C59	C	-0.764414	-0.075557	-0.000082
C60	C	-0.264414	0.424443	0.499918
C61	C	-1.062260	-0.473801	-0.000102
C62	C	-0.562260	0.026199	0.499898
C63	C	-1.065376	-0.637582	-0.000099
C64	C	-0.565376	-0.137582	0.499901
N65	N	-1.066639	-0.204082	-0.425783
N66	N	-0.566639	0.295918	0.074217
N67	N	-1.066647	-0.204077	0.425570
N68	N	-0.566647	0.295923	0.925570
H69	H	-0.679129	0.171441	-0.000097
H70	H	-0.179129	0.671441	0.499903
C71	C	-0.347051	0.085580	-0.000137
C72	C	0.152949	0.585580	0.499863
C73	C	-0.367955	0.196033	-0.142022
C74	C	0.132045	0.696033	0.357978
C75	C	-0.326840	0.345465	-0.142043
C76	C	0.173160	0.845465	0.357957
C77	C	-0.264820	0.384443	-0.000179
C78	C	0.235180	0.884443	0.499821
C79	C	-0.243913	0.273987	0.141716
C80	C	0.256087	0.773987	0.641716
C81	C	-0.285029	0.124556	0.141737
C82	C	0.214971	0.624556	0.641737
H83	H	-0.413868	0.167181	-0.247048
H84	H	0.086132	0.667181	0.252952
H85	H	-0.342317	0.427232	-0.247084
H86	H	0.157683	0.927232	0.252916
H87	H	-0.234384	0.495062	-0.000194
H88	H	0.265616	0.995062	0.499806
H89	H	-0.198000	0.302839	0.246742
H90	H	0.302000	0.802839	0.746742
H91	H	-0.269552	0.042789	0.246778
H92	H	0.230448	0.542789	0.746778
H93	H	-0.775544	-0.454927	-0.000070
H94	H	-0.275544	0.045073	0.499930
H95	H	-0.322721	-0.440823	-0.000099
H96	H	0.177279	0.059177	0.499901
H97	H	-0.454159	-0.579594	-0.000071
H98	H	0.045841	-0.079594	0.499929
H99	H	-0.810556	0.032681	-0.000087
H100	H	-0.310556	0.532681	0.499913
H101	H	-0.508466	0.176745	-0.000171
H102	H	-0.008466	0.676745	0.499829
H103	H	-0.624801	-0.584935	-0.000065
H104	H	-0.124801	-0.084935	0.499935
