data_functionalizedCrystal
_audit_creation_method	'MofGen! by Chris Wilmer'
_symmetry_space_group_name_H-M	'P1'
_symmetry_Int_Tables_number	1
_symmetry_cell_setting	triclinic
loop_
_symmetry_equiv_pos_as_xyz
  x,y,z
_cell_length_a	19.188930
_cell_length_b	26.809956
_cell_length_c	27.732048
_cell_angle_alpha	89.999364
_cell_angle_beta	97.106284
_cell_angle_gamma	90.022679
loop_
_atom_site_label
_atom_site_type_symbol
_atom_site_fract_x
_atom_site_fract_y
_atom_site_fract_z
O1	O	0.925766	0.041645	-0.060340
O2	O	1.425766	0.541645	0.439660
O3	O	0.722402	0.041612	-0.068464
O4	O	1.222402	0.541612	0.431536
O5	O	0.830400	0.041620	0.005975
O6	O	1.330400	0.541620	0.505975
O7	O	0.817768	0.041637	-0.134780
O8	O	1.317768	0.541637	0.365220
O9	O	0.830380	-0.041339	0.005964
O10	O	1.330380	0.458661	0.505964
O11	O	0.722382	-0.041348	-0.068475
O12	O	1.222382	0.458652	0.431525
O13	O	0.925745	-0.041314	-0.060352
O14	O	1.425745	0.458686	0.439648
Zn15	Zn	0.824060	-0.054502	-0.064415
Zn16	Zn	1.324060	0.445498	0.435585
Zn17	Zn	0.824087	0.054800	-0.064400
Zn18	Zn	1.324087	0.554800	0.435600
O19	O	0.817748	-0.041322	-0.134791
O20	O	1.317748	0.458678	0.365209
C21	C	0.696383	0.000128	-0.068207
C22	C	1.196383	0.500128	0.431793
C23	C	0.618883	0.000115	-0.067417
C24	C	1.118883	0.500115	0.432583
N25	N	0.824047	-0.129098	-0.064425
N26	N	1.324047	0.370902	0.435575
C27	C	0.573681	0.000128	-0.111096
C28	C	1.073681	0.500128	0.388904
C29	C	0.500862	0.000133	-0.110354
C30	C	1.000862	0.500133	0.389646
C31	C	0.473249	0.000135	-0.065931
C32	C	0.973249	0.500135	0.434069
C33	C	0.518461	0.000119	-0.022246
C34	C	1.018461	0.500119	0.477754
C35	C	0.591278	0.000109	-0.022990
C36	C	1.091278	0.500109	0.477010
N37	N	0.365492	0.028386	-0.031971
N38	N	0.865492	0.528386	0.468029
N39	N	0.296318	0.028397	-0.031268
N40	N	0.796318	0.528397	0.468732
C41	C	0.253854	0.000166	-0.063689
C42	C	0.753854	0.500166	0.436311
N43	N	0.283177	-0.028071	-0.096847
N44	N	0.783177	0.471929	0.403153
N45	N	0.352357	-0.028080	-0.097551
N46	N	0.852357	0.471920	0.402449
C47	C	0.394291	0.000146	-0.065120
C48	C	0.894291	0.500146	0.434880
C49	C	0.129692	0.000184	-0.106566
C50	C	0.629692	0.500184	0.393434
C51	C	0.056872	0.000186	-0.105822
C52	C	0.556872	0.500186	0.394178
C53	C	0.074473	0.000178	-0.017714
C54	C	0.574473	0.500178	0.482286
C55	C	0.147292	0.000170	-0.018459
C56	C	0.647292	0.500170	0.481541
C57	C	0.174897	0.000176	-0.062886
C58	C	0.674897	0.500176	0.437114
C59	C	0.871902	-0.473721	-0.031447
C60	C	1.371902	0.026279	0.468553
C61	C	0.871919	-0.682598	-0.031439
C62	C	1.371919	-0.182598	0.468561
O63	O	0.912579	-0.709599	-0.003403
O64	O	1.412579	-0.209599	0.496597
N65	N	0.824091	-0.708725	-0.064390
N66	N	1.324091	-0.208725	0.435610
C67	C	0.776253	-0.682630	-0.097342
C68	C	1.276253	-0.182630	0.402658
O69	O	0.735568	-0.709645	-0.125365
O70	O	1.235568	-0.209645	0.374635
C71	C	0.776233	-0.473753	-0.097347
C72	C	1.276233	0.026247	0.402653
C73	C	0.824069	-0.447629	-0.064398
C74	C	1.324069	0.052371	0.435602
C75	C	0.919734	-0.447596	0.001500
C76	C	1.419734	0.052404	0.501500
C77	C	0.919732	-0.395380	0.001496
C78	C	1.419732	0.104620	0.501496
C79	C	0.871898	-0.369288	-0.031455
C80	C	1.371898	0.130712	0.468545
C81	C	0.824067	-0.395412	-0.064402
C82	C	1.324067	0.104588	0.435598
C83	C	0.728392	-0.447658	-0.130297
C84	C	1.228392	0.052342	0.369703
C85	C	0.728390	-0.395436	-0.130294
C86	C	1.228390	0.104564	0.369706
C87	C	0.776226	-0.369312	-0.097345
C88	C	1.276226	0.130688	0.402655
C89	C	0.776231	-0.317104	-0.097356
C90	C	1.276231	0.182896	0.402644
N91	N	0.824059	-0.290977	-0.064406
N92	N	1.324059	0.209023	0.435594
C93	C	0.871893	-0.317069	-0.031455
C94	C	1.371893	0.182931	0.468545
C95	C	0.776267	-0.792293	-0.097338
C96	C	1.276267	-0.292293	0.402662
C97	C	0.776273	-0.844512	-0.097338
C98	C	1.276273	-0.344512	0.402662
C99	C	0.871938	-0.844477	-0.031434
C100	C	1.371938	-0.344477	0.468566
C101	C	0.871935	-0.792257	-0.031437
C102	C	1.371935	-0.292257	0.468563
C103	C	0.824095	-0.766166	-0.064388
C104	C	1.324095	-0.266166	0.435612
C105	C	0.871885	-0.207411	-0.031466
C106	C	1.371885	0.292589	0.468534
C107	C	0.871881	-0.155190	-0.031474
C108	C	1.371881	0.344810	0.468526
C109	C	0.776213	-0.155230	-0.097376
C110	C	1.276213	0.344770	0.402624
C111	C	0.776219	-0.207446	-0.097370
C112	C	1.276219	0.292554	0.402630
C113	C	0.824058	-0.233536	-0.064411
C114	C	1.324058	0.266464	0.435589
O115	O	0.735588	-0.290071	-0.125375
O116	O	1.235588	0.209929	0.374625
O117	O	0.912561	-0.290045	-0.003429
O118	O	1.412561	0.209955	0.496571
C119	C	0.871904	-0.525937	-0.031443
C120	C	1.371904	-0.025937	0.468557
C121	C	0.824073	-0.552061	-0.064390
C122	C	1.324073	-0.052061	0.435610
C123	C	0.776240	-0.525969	-0.097341
C124	C	1.276240	-0.025969	0.402659
C125	C	0.824079	-0.604280	-0.064389
C126	C	1.324079	-0.104280	0.435611
C127	C	0.871912	-0.630372	-0.031438
C128	C	1.371912	-0.130372	0.468562
C129	C	0.919740	-0.604245	0.001512
C130	C	1.419740	-0.104245	0.501512
C131	C	0.919738	-0.552029	0.001508
C132	C	1.419738	-0.052029	0.501508
C133	C	0.728412	-0.552096	-0.130291
C134	C	1.228412	-0.052096	0.369709
C135	C	0.728418	-0.604313	-0.130285
C136	C	1.228418	-0.104313	0.369715
C137	C	0.776252	-0.630405	-0.097334
C138	C	1.276252	-0.130405	0.402666
C139	C	0.951765	0.000171	-0.060609
C140	C	1.451765	0.500171	0.439391
C141	C	1.029264	0.000188	-0.061399
C142	C	1.529264	0.500188	0.438601
C143	C	0.830125	0.000139	0.023977
C144	C	1.330125	0.500139	0.523977
C145	C	0.829326	0.000135	0.077635
C146	C	1.329326	0.500135	0.577635
N147	N	0.824106	0.129396	-0.064387
N148	N	1.324106	0.629396	0.435613
C149	C	0.818023	0.000160	-0.152793
C150	C	1.318023	0.500160	0.347207
C151	C	0.818821	0.000167	-0.206450
C152	C	1.318821	0.500167	0.293550
C153	C	0.888119	0.000170	0.416270
C154	C	1.388119	0.500170	0.916270
C155	C	0.885157	0.000177	0.617939
C156	C	1.385157	0.500177	1.117939
O157	O	0.938918	0.000207	0.649030
O158	O	1.438918	0.500207	1.149030
N159	N	0.821118	0.000165	0.637258
N160	N	1.321118	0.500165	1.137258
C161	C	0.757816	0.000156	0.606157
C162	C	1.257816	0.500156	1.106157
O163	O	0.703280	0.000152	0.627217
O164	O	1.203280	0.500152	1.127217
C165	C	0.760780	0.000153	0.404489
C166	C	1.260780	0.500153	0.904489
C167	C	0.824822	0.000159	0.385173
C168	C	1.324822	0.500159	0.885173
C169	C	0.952156	0.000177	0.396953
C170	C	1.452156	0.500177	0.896953
C171	C	0.952896	0.000172	0.346539
C172	C	1.452896	0.500172	0.846539
C173	C	0.889599	0.000161	0.315441
C174	C	1.389599	0.500161	0.815441
C175	C	0.825562	0.000155	0.334759
C176	C	1.325562	0.500155	0.834759
C177	C	0.697478	0.000147	0.373389
C178	C	1.197478	0.500147	0.873389
C179	C	0.698225	0.000148	0.322970
C180	C	1.198225	0.500148	0.822970
C181	C	0.762267	0.000154	0.303653
C182	C	1.262267	0.500154	0.803653
C183	C	0.763005	0.000140	0.253247
C184	C	1.263005	0.500140	0.753247
N185	N	0.827043	0.000151	0.233928
N186	N	1.327043	0.500151	0.733928
C187	C	0.890340	0.000162	0.265025
C188	C	1.390340	0.500162	0.765025
C189	C	0.756265	0.000157	0.712036
C190	C	1.256265	0.500157	1.212036
C191	C	0.755524	0.000157	0.762452
C192	C	1.255524	0.500157	1.262452
C193	C	0.882865	0.000178	0.774231
C194	C	1.382865	0.500178	1.274231
C195	C	0.883605	0.000174	0.723813
C196	C	1.383605	0.500174	1.223813
C197	C	0.820303	0.000168	0.692716
C198	C	1.320303	0.500168	1.192716
C199	C	0.891889	0.000152	0.159151
C200	C	1.391889	0.500152	0.659151
C201	C	0.892623	0.000146	0.108732
C202	C	1.392623	0.500146	0.608732
C203	C	0.765283	0.000127	0.096958
C204	C	1.265283	0.500127	0.596958
C205	C	0.764549	0.000131	0.147373
C206	C	1.264549	0.500131	0.647373
C207	C	0.827857	0.000145	0.178468
C208	C	1.327857	0.500145	0.678468
O209	O	0.709272	0.000115	0.222127
O210	O	1.209272	0.500115	0.722127
O211	O	0.944868	0.000177	0.243956
O212	O	1.444868	0.500177	0.743956
C213	C	0.887379	0.000174	0.466684
C214	C	1.387379	0.500174	0.966684
C215	C	0.823342	0.000168	0.486001
C216	C	1.323342	0.500168	0.986001
C217	C	0.760045	0.000157	0.454904
C218	C	1.260045	0.500157	0.954904
C219	C	0.822601	0.000168	0.536418
C220	C	1.322601	0.500168	1.036418
C221	C	0.885898	0.000179	0.567515
C222	C	1.385898	0.500179	1.067515
C223	C	0.949936	0.000190	0.548195
C224	C	1.449936	0.500190	1.048195
C225	C	0.950676	0.000185	0.497781
C226	C	1.450676	0.500185	0.997781
C227	C	0.696007	0.000146	0.474224
C228	C	1.196007	0.500146	0.974224
C229	C	0.695272	0.000150	0.524638
C230	C	1.195272	0.500150	1.024638
C231	C	0.758569	0.000161	0.555735
C232	C	1.258569	0.500161	1.055735
H233	H	0.596152	0.000133	-0.147272
H234	H	1.096152	0.500133	0.352728
H235	H	0.958681	-0.374113	0.028327
H236	H	1.458681	0.125887	0.528327
H237	H	0.628083	0.000099	0.012580
H238	H	1.128083	0.500099	0.512580
O239	O	1.020432	0.000181	0.430490
O240	O	1.520432	0.500181	0.930490
H241	H	1.065078	0.000181	0.408579
H242	H	1.565078	0.500181	0.908579
O243	O	0.629947	0.000134	0.289430
O244	O	1.129947	0.500134	0.789430
H245	H	0.599280	0.033940	0.296284
H246	H	1.099280	0.533940	0.796284
O247	O	1.021974	0.000193	0.325711
O248	O	1.521974	0.500193	0.825711
H249	H	1.052362	-0.033609	0.338219
H250	H	1.552362	0.466391	0.838219
O251	O	0.627733	0.000133	0.440686
O252	O	1.127733	0.500133	0.940686
H253	H	0.625019	-0.033682	0.417435
H254	H	1.125019	0.466318	0.917435
H255	H	1.002826	0.000190	0.482059
H256	H	1.502826	0.500190	0.982059
H257	H	0.051991	0.000210	0.018456
H258	H	0.551991	0.500210	0.518456
O259	O	0.952677	0.000190	0.702979
O260	O	1.452677	0.500190	1.202979
H261	H	0.996563	0.000202	0.733078
H262	H	1.496563	0.500202	1.233078
O263	O	0.452093	0.000152	-0.157465
O264	O	0.952093	0.500152	0.342535
H265	H	0.483523	0.000158	-0.188483
H266	H	0.983523	0.500158	0.311517
H267	H	0.934404	0.000186	0.799559
H268	H	1.434404	0.500186	1.299559
O269	O	0.488685	0.000119	0.025669
O270	O	0.988685	0.500119	0.525669
H271	H	0.455965	0.033939	0.028124
H272	H	0.955965	0.533939	0.528124
O273	O	0.923522	-0.764081	0.004105
O274	O	1.423522	-0.264081	0.504105
H275	H	0.956778	-0.791002	0.027018
H276	H	1.456778	-0.291002	0.527018
H277	H	0.703375	0.000143	0.778175
H278	H	1.203375	0.500143	1.278175
H279	H	0.152169	0.000181	-0.142741
H280	H	0.652169	0.500181	0.357259
H281	H	0.020068	0.000194	-0.141392
H282	H	0.520068	0.500194	0.358608
H283	H	0.958685	-0.468836	0.028335
H284	H	1.458685	0.031164	0.528335
O285	O	0.196053	0.000160	0.028652
O286	O	0.696053	0.500160	0.528652
H287	H	0.164621	0.000166	0.059668
H288	H	0.664621	0.500166	0.559668
O289	O	0.923528	-0.872623	0.004111
O290	O	1.423528	-0.372623	0.504111
H291	H	0.915486	-0.913322	-0.001425
H292	H	1.415486	-0.413322	0.498575
O293	O	0.676822	-0.475828	-0.165852
O294	O	1.176822	0.024172	0.334148
H295	H	0.643569	-0.448904	-0.188764
H296	H	1.143569	0.051096	0.311236
O297	O	0.626194	0.000140	0.545471
O298	O	1.126194	0.500140	1.045471
H299	H	0.595821	0.033950	0.532968
H300	H	1.095821	0.533950	1.032968
O301	O	0.923472	-0.127012	0.004068
O302	O	1.423472	0.372988	0.504068
H303	H	0.956726	-0.153932	0.026985
H304	H	1.456726	0.346068	0.526985
H305	H	0.910839	-0.228647	-0.004628
H306	H	1.410839	0.271353	0.495372
H307	H	0.958690	-0.625498	0.028340
H308	H	1.458690	-0.125498	0.528340
O309	O	0.724702	-0.872688	-0.132891
O310	O	1.224702	-0.372688	0.367109
H311	H	0.691444	-0.845766	-0.155803
H312	H	1.191444	-0.345766	0.344197
O313	O	0.724671	-0.764154	-0.132884
O314	O	1.224671	-0.264154	0.367116
H315	H	0.691424	-0.791100	-0.155796
H316	H	1.191424	-0.291100	0.344204
H317	H	0.645328	0.000146	0.389107
H318	H	1.145328	0.500146	0.889107
H319	H	0.689430	-0.374195	-0.157126
H320	H	1.189430	0.125805	0.342874
O321	O	0.961700	0.000153	0.087897
O322	O	1.461700	0.500153	0.587897
H323	H	0.965088	0.033962	0.065204
H324	H	1.465088	0.533962	0.565204
O325	O	0.676828	-0.632492	-0.165827
O326	O	1.176828	-0.132492	0.334173
H327	H	0.705967	-0.656272	-0.189269
H328	H	1.205967	-0.156272	0.310731
H329	H	0.704714	0.000151	0.686720
H330	H	1.204714	0.500151	1.186720
H331	H	0.737274	-0.228717	-0.124205
H332	H	1.237274	0.271283	0.375795
O333	O	0.724605	-0.127084	-0.132904
O334	O	1.224605	0.372916	0.367096
H335	H	0.732633	-0.086385	-0.127359
H336	H	1.232633	0.413615	0.372641
O337	O	1.018209	0.000201	0.581740
O338	O	1.518209	0.500201	1.081740
H339	H	1.006928	0.000206	0.620042
H340	H	1.506928	0.500206	1.120042
O341	O	0.971325	-0.523854	0.037051
O342	O	1.471325	-0.023854	0.537051
H343	H	1.004578	-0.550778	0.059964
H344	H	1.504578	-0.050778	0.559964
H345	H	0.689459	-0.530856	-0.157123
H346	H	1.189459	-0.030856	0.342877
O347	O	0.960169	0.000160	0.192687
O348	O	1.460169	0.500160	0.692687
H349	H	1.004817	0.000158	0.170777
H350	H	1.504817	0.500158	0.670777
H351	H	0.712400	0.000112	0.163101
H352	H	1.212400	0.500112	0.663101
O353	O	0.697014	0.000116	0.063414
O354	O	1.197014	0.500116	0.563414
H355	H	0.708294	0.000120	0.025112
H356	H	1.208294	0.500120	0.525112
