data_functionalizedCrystal
_audit_creation_method	'MofGen! by Chris Wilmer'
_symmetry_space_group_name_H-M	'P1'
_symmetry_Int_Tables_number	1
_symmetry_cell_setting	triclinic
loop_
_symmetry_equiv_pos_as_xyz
  x,y,z
_cell_length_a	17.699104
_cell_length_b	10.654551
_cell_length_c	16.776229
_cell_angle_alpha	89.998873
_cell_angle_beta	90.008015
_cell_angle_gamma	83.888473
loop_
_atom_site_label
_atom_site_type_symbol
_atom_site_fract_x
_atom_site_fract_y
_atom_site_fract_z
O1	O	1.005080	0.158922	0.066301
O2	O	1.505080	0.658922	0.566301
O3	O	0.784835	0.179556	0.066299
O4	O	1.284835	0.679556	0.566299
O5	O	0.900021	-0.013588	0.066298
O6	O	1.400021	0.486412	0.566298
O7	O	0.889894	0.352066	0.066302
O8	O	1.389894	0.852066	0.566302
O9	O	0.900004	-0.013578	-0.066278
O10	O	1.400004	0.486422	0.433722
O11	O	0.784818	0.179566	-0.066278
O12	O	1.284818	0.679566	0.433722
O13	O	1.005063	0.158932	-0.066275
O14	O	1.505063	0.658932	0.433725
Zn15	Zn	0.894938	0.169251	-0.087326
Zn16	Zn	1.394938	0.669251	0.412674
Zn17	Zn	0.894960	0.169238	0.087349
Zn18	Zn	1.394960	0.669238	0.587349
O19	O	0.889877	0.352077	-0.066275
O20	O	1.389877	0.852077	0.433725
C21	C	0.756625	0.178817	0.000010
C22	C	1.256625	0.678817	0.500010
C23	C	0.672594	0.176586	0.000010
C24	C	1.172594	0.676586	0.500010
C25	C	0.148364	0.277373	0.000019
C26	C	0.648364	0.777373	0.500019
C27	C	0.227321	0.279462	0.000021
C28	C	0.727321	0.779462	0.500021
C29	C	0.275217	0.166079	0.000020
C30	C	0.775217	0.666079	0.500020
C31	C	0.244153	0.050600	0.000025
C32	C	0.744153	0.550600	0.500025
C33	C	0.165197	0.048512	0.000028
C34	C	0.665197	0.548512	0.500028
C35	C	0.562573	0.059017	0.000012
C36	C	1.062573	0.559017	0.500012
C37	C	0.641533	0.061114	0.000006
C38	C	1.141533	0.561114	0.500006
C39	C	0.624696	0.289968	0.000005
C40	C	1.124696	0.789968	0.500005
C41	C	0.545740	0.287880	0.000009
C42	C	1.045740	0.787880	0.500009
C43	C	0.514683	0.172401	0.000017
C44	C	1.014683	0.672401	0.500017
C45	C	0.429069	0.170137	0.000016
C46	C	0.929069	0.670137	0.500016
C47	C	0.360830	0.168342	0.000015
C48	C	0.860830	0.668342	0.500015
C49	C	0.899269	-0.060368	0.000011
C50	C	1.399269	0.439632	0.500011
C51	C	0.897044	-0.199772	0.000015
C52	C	1.397044	0.300228	0.500015
C53	C	0.896008	-0.265264	0.072283
C54	C	1.396008	0.234736	0.572283
C55	C	0.893911	-0.396248	0.072284
C56	C	1.393911	0.103752	0.572284
C57	C	0.893888	-0.396238	-0.072258
C58	C	1.393888	0.103762	0.427742
C59	C	0.895979	-0.265255	-0.072258
C60	C	1.395979	0.234745	0.427742
C61	C	0.846802	-0.565508	0.159109
C62	C	1.346802	-0.065508	0.659109
C63	C	0.845780	-0.631006	0.231381
C64	C	1.345780	-0.131006	0.731381
C65	C	0.890740	-0.598252	0.295187
C66	C	1.390740	-0.098252	0.795187
C67	C	0.936740	-0.500005	0.286725
C68	C	1.436740	-0.000005	0.786725
C69	C	0.937769	-0.434515	0.214452
C70	C	1.437769	0.065485	0.714452
C71	C	0.892792	-0.467263	0.150648
C72	C	1.392792	0.032737	0.650648
C73	C	0.943095	-0.095995	-0.159078
C74	C	1.443095	0.404005	0.340922
C75	C	0.944129	-0.030503	-0.231352
C76	C	1.444129	0.469497	0.268648
C77	C	0.899174	-0.063256	-0.295165
C78	C	1.399174	0.436744	0.204835
C79	C	0.853185	-0.161509	-0.286711
C80	C	1.353185	0.338491	0.213289
C81	C	0.852151	-0.227001	-0.214436
C82	C	1.352151	0.272999	0.285564
C83	C	0.897105	-0.194238	-0.150623
C84	C	1.397105	0.305762	0.349377
C85	C	1.033273	0.159671	0.000015
C86	C	1.533273	0.659671	0.500015
C87	C	1.117305	0.161903	0.000021
C88	C	1.617305	0.661903	0.500021
C89	C	0.890630	0.398856	0.000014
C90	C	1.390630	0.898856	0.500014
C91	C	0.892855	0.538261	0.000016
C92	C	1.392855	1.038261	0.500016
N93	N	0.894928	0.169259	-0.206537
N94	N	1.394928	0.669259	0.293463
C95	C	0.945987	0.083726	-0.751702
C96	C	1.445987	0.583726	-0.251702
C97	C	0.945983	0.083735	-0.668250
C98	C	1.445983	0.583735	-0.168250
C99	C	0.894964	0.169232	-0.626536
C100	C	1.394964	0.669232	-0.126536
C101	C	0.843951	0.254734	-0.668280
C102	C	1.343951	0.754734	-0.168280
C103	C	0.843959	0.254731	-0.751730
C104	C	1.343959	0.754731	-0.251730
C105	C	0.843919	0.254753	-0.331732
C106	C	1.343919	0.754753	0.168268
C107	C	0.843913	0.254748	-0.248276
C108	C	1.343913	0.754748	0.251724
C109	C	0.945943	0.083757	-0.248252
C110	C	1.445943	0.583757	0.251748
C111	C	0.945951	0.083753	-0.331703
C112	C	1.445951	0.583753	0.168297
C113	C	0.894941	0.169260	-0.373438
C114	C	1.394941	0.669260	0.126562
C115	C	0.894946	0.169251	-0.463927
C116	C	1.394946	0.669251	0.036073
C117	C	0.894955	0.169236	-0.536050
C118	C	1.394955	0.669236	-0.036050
N119	N	0.894976	0.169219	0.206561
N120	N	1.394976	0.669219	0.706561
H121	H	0.252605	0.373490	0.000027
H122	H	0.752605	0.873490	0.500027
Cl123	Cl	0.796673	-0.202697	-0.366937
Cl124	Cl	1.296673	0.297303	0.133063
Cl125	Cl	0.794337	-0.350525	-0.203809
Cl126	Cl	1.294337	0.149475	0.296191
H127	H	0.802367	0.324375	-0.214314
H128	H	1.302367	0.824375	0.285686
H129	H	0.979696	-0.069307	-0.107115
H130	H	1.479696	0.430693	0.392885
H131	H	0.802383	0.324373	-0.365707
H132	H	1.302383	0.824373	0.134293
H133	H	0.810182	-0.592175	0.107160
H134	H	1.310182	-0.092175	0.607160
H135	H	0.680530	-0.031222	0.000007
H136	H	1.180530	0.468778	0.500007
Cl137	Cl	0.900484	0.019068	-0.386029
Cl138	Cl	1.400484	0.519068	0.113971
Cl139	Cl	0.779816	0.362225	-0.615842
Cl140	Cl	1.279816	0.862225	-0.115842
Cl141	Cl	0.779831	0.362218	-0.804199
Cl142	Cl	1.279831	0.862218	-0.304199
Cl143	Cl	0.088158	0.419921	0.000014
Cl144	Cl	0.588158	0.919921	0.500014
Cl145	Cl	0.485532	0.430424	0.000008
Cl146	Cl	0.985532	0.930424	0.500008
Cl147	Cl	0.523539	-0.086156	0.000042
Cl148	Cl	1.023539	0.413844	0.500042
H149	H	0.283157	-0.041718	0.000028
H150	H	0.783157	0.458282	0.500028
Cl151	Cl	0.126152	-0.096657	0.000031
Cl152	Cl	0.626152	0.403343	0.500031
Cl153	Cl	0.663744	0.435144	-0.000000
Cl154	Cl	1.163744	0.935144	0.500000
Cl155	Cl	0.897342	-0.182946	0.163141
Cl156	Cl	1.397342	0.317054	0.663141
H157	H	0.975222	-0.354526	0.207561
H158	H	1.475222	0.145474	0.707561
H159	H	0.973355	-0.473356	0.338683
H160	H	1.473355	0.026644	0.838683
Cl161	Cl	0.889463	-0.680610	0.386038
Cl162	Cl	1.389463	-0.180610	0.886038
H163	H	0.893023	-0.449571	-0.131100
H164	H	1.393023	0.050429	0.368900
H165	H	0.987529	0.014099	-0.785660
H166	H	1.487529	0.514099	-0.285660
H167	H	0.987520	0.014121	-0.634268
H168	H	1.487520	0.514121	-0.134268
Cl169	Cl	1.010074	-0.023734	-0.195780
Cl170	Cl	1.510074	0.476266	0.304220
Cl171	Cl	1.001953	0.093006	-0.241984
Cl172	Cl	1.501953	0.593006	0.258016
Cl173	Cl	0.787951	-0.754508	0.242019
Cl174	Cl	1.287951	-0.254508	0.742019
Cl175	Cl	1.010088	-0.023736	-0.384139
Cl176	Cl	1.510088	0.476264	0.115861
