data_functionalizedCrystal
_audit_creation_method	'MofGen! by Chris Wilmer'
_symmetry_space_group_name_H-M	'P1'
_symmetry_Int_Tables_number	1
_symmetry_cell_setting	triclinic
loop_
_symmetry_equiv_pos_as_xyz
  x,y,z
_cell_length_a	16.974885
_cell_length_b	16.992695
_cell_length_c	7.540329
_cell_angle_alpha	89.996072
_cell_angle_beta	93.649065
_cell_angle_gamma	87.023153
loop_
_atom_site_label
_atom_site_type_symbol
_atom_site_fract_x
_atom_site_fract_y
_atom_site_fract_z
O1	O	1.055447	0.099901	0.003862
O2	O	0.826048	0.112635	-0.029037
O3	O	0.939828	-0.007874	-0.012706
O4	O	0.941667	0.220410	-0.012470
O5	O	0.939820	-0.007875	0.282258
O6	O	0.826040	0.112634	0.265927
O7	O	1.055440	0.099899	0.298826
Cu8	Cu	0.940739	0.106266	0.309309
Cu9	Cu	0.940748	0.106268	-0.039520
O10	O	0.941660	0.220408	0.282494
C11	C	0.796555	0.112151	0.114216
C12	C	0.708688	0.110701	0.101615
C13	C	0.214090	0.102515	0.013305
C14	C	0.296651	0.103877	0.025168
C15	C	0.337919	0.104563	0.191887
C16	C	0.296623	0.103879	0.346752
C17	C	0.214064	0.102511	0.334886
C18	C	0.584833	0.108649	0.244615
C19	C	0.667397	0.110020	0.256468
C20	C	0.667420	0.110016	-0.065116
C21	C	0.584859	0.108653	-0.076967
C22	C	0.543570	0.107965	0.077898
N23	N	0.422309	0.105958	0.204017
N24	N	0.459182	0.106564	0.065765
C25	C	0.937458	-0.037084	0.134437
C26	C	0.930398	-0.124121	0.133424
C27	C	0.998513	-0.174436	0.143194
C28	C	0.991875	-0.256216	0.142226
C29	C	0.917122	-0.287678	0.131499
C30	C	0.849002	-0.237355	0.121723
C31	C	0.855641	-0.155578	0.122679
C32	C	0.889608	-0.531245	0.127529
C33	C	0.882974	-0.613029	0.126579
C34	C	1.025848	-0.631884	0.147078
C35	C	1.032480	-0.550104	0.148044
C36	C	0.964360	-0.499789	0.138259
N37	N	0.910335	-0.371269	0.130514
N38	N	0.971148	-0.416199	0.139231
C39	C	1.084932	0.100384	0.155569
C40	C	1.172799	0.101833	0.168158
C41	C	0.944029	0.249619	0.135348
C42	C	0.951089	0.336655	0.136349
N43	N	0.940739	0.106265	0.554657
N44	N	0.940754	0.106264	-0.284868
H45	H	0.700995	0.110584	0.392237
O46	O	0.336803	0.104442	0.508603
C47	C	0.389216	0.037354	0.525792
H48	H	0.403153	0.014929	0.388195
H49	H	0.446215	0.053584	0.602029
H50	H	0.360664	-0.010698	0.601049
O51	O	0.707610	0.110785	-0.215415
C52	C	0.750681	0.179455	-0.218889
H53	H	0.761480	0.202293	-0.077740
H54	H	0.809792	0.165150	-0.278442
H55	H	0.715600	0.226451	-0.303292
H56	H	0.788136	-0.262978	0.112978
O57	O	0.336713	0.104679	-0.125313
C58	C	0.311863	0.172205	-0.226730
H59	H	0.285903	0.219270	-0.136386
H60	H	0.364595	0.195881	-0.292103
H61	H	0.265001	0.156068	-0.333710
O62	O	0.544851	0.108026	0.395220
C63	C	0.598983	0.108911	0.544906
H64	H	0.656129	0.134694	0.505962
H65	H	0.572504	0.146567	0.653548
H66	H	0.612087	0.046188	0.596250
H67	H	0.800174	-0.114611	0.114723
O68	O	0.544649	0.108018	-0.238778
C69	C	0.462928	0.106647	-0.216043
H70	H	0.449935	0.131270	-0.079726
H71	H	0.428942	0.144174	-0.323619
H72	H	0.443824	0.043389	-0.226400
O73	O	0.174045	0.101747	0.485437
C74	C	0.198869	0.034202	0.586814
H75	H	0.260373	0.012569	0.549938
H76	H	0.200629	0.049514	0.734160
H77	H	0.155677	-0.014095	0.558324
H78	H	0.180495	0.101962	-0.122456
H79	H	1.059385	-0.148827	0.151940
H80	H	1.093352	-0.524494	0.156779
O81	O	1.058122	-0.304980	0.151819
C82	C	1.125524	-0.259675	0.161463
H83	H	1.109308	-0.198619	0.214980
H84	H	1.173562	-0.289901	0.253999
H85	H	1.148206	-0.253871	0.023212
H86	H	1.081307	-0.672859	0.155042
O87	O	0.810294	-0.643462	0.116052
C88	C	0.751592	-0.581517	0.107656
H89	H	0.777266	-0.525984	0.055504
H90	H	0.699722	-0.598553	0.014562
H91	H	0.730318	-0.569926	0.246107
H92	H	0.834139	-0.490288	0.119561
