data_functionalizedCrystal
_audit_creation_method	'MofGen! by Chris Wilmer'
_symmetry_space_group_name_H-M	'P1'
_symmetry_Int_Tables_number	1
_symmetry_cell_setting	triclinic
loop_
_symmetry_equiv_pos_as_xyz
  x,y,z
_cell_length_a	9.065215
_cell_length_b	10.908937
_cell_length_c	7.540329
_cell_angle_alpha	89.997201
_cell_angle_beta	89.997574
_cell_angle_gamma	72.550327
loop_
_atom_site_label
_atom_site_type_symbol
_atom_site_fract_x
_atom_site_fract_y
_atom_site_fract_z
O1	O	1.911454	0.187731	-0.147457
O2	O	2.411454	0.687731	0.352543
O3	O	1.478153	0.203135	-0.147464
O4	O	1.978153	0.703135	0.352536
O5	O	1.752241	0.009170	-0.147454
O6	O	2.252241	0.509170	0.352546
O7	O	1.637366	0.381696	-0.147467
O8	O	2.137366	0.881696	0.352533
O9	O	1.752228	0.009168	0.147511
O10	O	2.252228	0.509168	0.647511
O11	O	1.478140	0.203132	0.147501
O12	O	1.978140	0.703132	0.647501
O13	O	1.911441	0.187728	0.147508
O14	O	2.411441	0.687728	0.647508
Cu15	Cu	1.694789	0.195430	0.174437
Cu16	Cu	2.194789	0.695430	0.674437
Cu17	Cu	1.694805	0.195433	-0.174393
Cu18	Cu	2.194805	0.695433	0.325607
O19	O	1.637353	0.381693	0.147498
O20	O	2.137353	0.881693	0.647498
C21	C	1.423545	0.201654	0.000017
C22	C	1.923545	0.701654	0.500017
C23	C	1.260856	0.197230	0.000014
C24	C	1.760856	0.697230	0.500014
C25	C	1.762970	-0.038548	0.000026
C26	C	2.262970	0.461452	0.500026
C27	C	1.794940	-0.180727	0.000020
C28	C	2.294940	0.319273	0.500020
C29	C	1.711312	-0.378041	0.000013
C30	C	2.211312	0.121959	0.500013
C31	C	1.678266	-0.231091	0.000016
C32	C	2.178266	0.268909	0.500016
C33	C	1.966049	0.189209	0.000023
C34	C	2.466049	0.689209	0.500023
C35	C	2.128738	0.193633	0.000014
C36	C	2.628738	0.693633	0.500014
C37	C	1.626624	0.429411	0.000014
C38	C	2.126624	0.929411	0.500014
C39	C	1.594654	0.571591	0.000009
C40	C	2.094654	1.071591	0.500009
N41	N	1.694790	0.195427	0.419786
N42	N	2.194790	0.695427	0.919786
N43	N	1.694818	0.195426	-0.419742
N44	N	2.194818	0.695426	0.080258
H45	H	1.835652	-0.443711	0.000024
H46	H	2.335652	0.056289	0.500024
H47	H	1.553917	-0.165425	0.000027
H48	H	2.053917	0.334575	0.500027
N49	N	1.959659	-0.267692	0.000037
N50	N	2.459659	0.232308	0.500037
H51	H	1.959923	-0.360342	0.000037
H52	H	2.459923	0.139658	0.500037
H53	H	2.014621	-0.250391	-0.109308
H54	H	2.514621	0.249609	0.390692
N55	N	1.429944	-0.341438	0.000042
N56	N	1.929944	0.158562	0.500042
H57	H	1.429685	-0.248789	0.000053
H58	H	1.929685	0.251211	0.500053
H59	H	1.374977	-0.358723	-0.109301
H60	H	1.874977	0.141277	0.390699
