data_functionalizedCrystal
_audit_creation_method	'MofGen! by Chris Wilmer'
_symmetry_space_group_name_H-M	'P1'
_symmetry_Int_Tables_number	1
_symmetry_cell_setting	triclinic
loop_
_symmetry_equiv_pos_as_xyz
  x,y,z
_cell_length_a	17.077404
_cell_length_b	19.077068
_cell_length_c	17.077396
_cell_angle_alpha	92.267122
_cell_angle_beta	89.980223
_cell_angle_gamma	92.322445
loop_
_atom_site_label
_atom_site_type_symbol
_atom_site_fract_x
_atom_site_fract_y
_atom_site_fract_z
Zn1	Zn	1.187471	-0.280287	-0.456386
Zn2	Zn	1.687471	0.219713	0.043614
Zn3	Zn	1.182093	-0.397990	-0.330384
Zn4	Zn	1.682093	0.102010	0.169616
Zn5	Zn	1.056202	-0.280302	-0.325133
Zn6	Zn	1.556202	0.219698	0.174867
Zn7	Zn	1.050888	-0.397939	-0.461605
Zn8	Zn	1.550888	0.102061	0.038395
O9	O	1.119163	-0.339129	-0.393377
O10	O	1.619163	0.160871	0.106623
O11	O	1.296603	-0.295916	-0.439684
O12	O	1.796603	0.204084	0.060316
O13	O	1.165367	-0.382407	-0.219842
O14	O	1.665367	0.117593	0.280158
O15	O	1.078089	-0.181809	-0.338163
O16	O	1.578089	0.318191	0.161837
O17	O	1.292653	-0.382392	-0.347112
O18	O	1.792653	0.117608	0.152888
O19	O	1.174532	-0.181798	-0.434593
O20	O	1.674532	0.318202	0.065407
O21	O	1.072875	-0.295941	-0.215984
O22	O	1.572875	0.204059	0.284016
O23	O	0.945651	-0.295891	-0.343224
O24	O	1.445651	0.204109	0.156776
O25	O	1.069033	-0.382304	-0.570758
O26	O	1.569033	0.117696	-0.070758
O27	O	0.941747	-0.382318	-0.443489
O28	O	1.441747	0.117682	0.056511
O29	O	1.169379	-0.295866	-0.566924
O30	O	1.669379	0.204134	-0.066924
O31	O	1.160214	-0.496474	-0.352173
O32	O	1.660214	0.003526	0.147827
O33	O	1.063818	-0.496436	-0.448580
O34	O	1.563818	0.003564	0.051420
C35	C	0.915217	-0.339101	-0.393353
C36	C	1.415217	0.160899	0.106647
C37	C	0.827967	-0.339106	-0.393362
C38	C	1.327967	0.160894	0.106638
C39	C	0.450135	-0.384233	-0.445533
C40	C	0.950135	0.115767	0.054467
C41	C	0.532115	-0.384224	-0.445521
C42	C	1.032115	0.115776	0.054479
C43	C	0.575116	-0.339148	-0.393390
C44	C	1.075116	0.160852	0.106610
C45	C	0.536131	-0.294084	-0.341264
C46	C	1.036131	0.205916	0.158736
C47	C	0.454152	-0.294097	-0.341273
C48	C	0.954152	0.205903	0.158727
C49	C	0.707002	-0.294058	-0.341250
C50	C	1.207002	0.205942	0.158750
C51	C	0.788988	-0.294044	-0.341241
C52	C	1.288988	0.205956	0.158759
C53	C	0.784966	-0.384185	-0.445498
C54	C	1.284966	0.115815	0.054502
C55	C	0.702987	-0.384198	-0.445507
C56	C	1.202987	0.115802	0.054493
C57	C	0.664008	-0.339133	-0.393381
C58	C	1.164008	0.160867	0.106619
C59	C	1.110878	-0.521993	-0.401530
C60	C	1.610878	-0.021993	0.098470
C61	C	1.107405	-0.600222	-0.405044
C62	C	1.607405	-0.100222	0.094956
C63	C	1.156000	-0.636971	-0.356542
C64	C	1.656000	-0.136971	0.143458
C65	C	1.152738	-0.710476	-0.359852
C66	C	1.652738	-0.210476	0.140148
C67	C	1.100877	-0.747231	-0.411660
C68	C	1.600877	-0.247231	0.088340
C69	C	1.052279	-0.710477	-0.460167
C70	C	1.552279	-0.210477	0.039833
C71	C	1.055545	-0.636974	-0.456860
C72	C	1.555545	-0.136974	0.043140
C73	C	1.085726	-0.967065	-0.426930
C74	C	1.585726	-0.467065	0.073070
C75	C	1.082461	-1.040573	-0.430231
C76	C	1.582461	-0.540573	0.069769
C77	C	1.182922	-1.040568	-0.329917
C78	C	1.682922	-0.540568	0.170083
C79	C	1.186180	-0.967062	-0.326612
C80	C	1.686180	-0.467062	0.173388
C81	C	1.137586	-0.930315	-0.375121
C82	C	1.637586	-0.430315	0.124879
N83	N	1.097540	-0.822365	-0.415042
N84	N	1.597540	-0.322365	0.084958
N85	N	1.140927	-0.855182	-0.371742
N86	N	1.640927	-0.355182	0.128258
C87	C	1.323906	-0.339158	-0.393402
C88	C	1.823906	0.160842	0.106598
C89	C	1.411156	-0.339171	-0.393412
C90	C	1.911156	0.160829	0.106588
C91	C	1.119213	-0.339078	-0.598119
C92	C	1.619213	0.160922	-0.098119
C93	C	1.119234	-0.339056	-0.685368
C94	C	1.619234	0.160944	-0.185368
C95	C	1.127503	-0.155552	-0.385210
C96	C	1.627503	0.344448	0.114790
C97	C	1.131057	-0.077322	-0.381729
C98	C	1.631057	0.422678	0.118271
C99	C	1.171487	-0.294043	-0.724363
C100	C	1.671487	0.205957	-0.224363
C101	C	1.171497	-0.294020	-0.806342
C102	C	1.671497	0.205980	-0.306342
C103	C	1.119259	-0.339013	-0.849326
C104	C	1.619259	0.160987	-0.349326
C105	C	1.067001	-0.384027	-0.810325
C106	C	1.567001	0.115973	-0.310325
C107	C	1.066987	-0.384046	-0.728347
C108	C	1.566987	0.115954	-0.228347
C109	C	1.067034	-0.383984	-0.981194
C110	C	1.567034	0.116016	-0.481194
C111	C	1.067049	-0.383966	-1.063177
C112	C	1.567049	0.116034	-0.563177
C113	C	1.171545	-0.293958	-1.059188
C114	C	1.671545	0.206042	-0.559188
C115	C	1.171531	-0.293978	-0.977210
C116	C	1.671531	0.206022	-0.477210
C117	C	1.119274	-0.338993	-0.938216
C118	C	1.619274	0.161007	-0.438216
C119	C	1.119161	-0.339130	-0.189429
C120	C	1.619161	0.160870	0.310571
C121	C	1.119301	-0.338954	-0.102172
C122	C	1.619301	0.161046	0.397828
H123	H	0.563848	-0.420920	-0.487961
H124	H	1.063848	0.079080	0.012039
Cl125	Cl	0.994454	-0.590775	-0.517839
Cl126	Cl	1.494454	-0.090775	-0.017839
H127	H	1.046156	-0.937150	-0.466427
H128	H	1.546156	-0.437150	0.033573
Cl129	Cl	1.213835	-0.756672	-0.298878
Cl130	Cl	1.713835	-0.256672	0.201122
Cl131	Cl	1.237240	-0.237369	-1.108209
Cl132	Cl	1.737240	0.262631	-0.608209
H133	H	0.675269	-0.257360	-0.298804
H134	H	1.175269	0.242640	0.201196
H135	H	1.040238	-1.070497	-0.472433
H136	H	1.540238	-0.570497	0.027567
H137	H	1.010056	-0.740409	-0.502353
H138	H	1.510056	-0.240409	-0.002353
H139	H	1.214028	-0.257407	-0.689371
H140	H	1.714028	0.242593	-0.189371
Cl141	Cl	1.237223	-0.237462	-0.855362
Cl142	Cl	1.737223	0.262538	-0.355362
Cl143	Cl	1.244013	-1.086769	-0.268942
Cl144	Cl	1.744013	-0.586769	0.231058
Cl145	Cl	1.251392	-0.920862	-0.261490
Cl146	Cl	1.751392	-0.420862	0.238510
Cl147	Cl	1.237208	-0.237419	-0.923175
Cl148	Cl	1.737208	0.262581	-0.423175
H149	H	0.823997	-0.257333	-0.298799
H150	H	1.323997	0.242667	0.201201
Cl151	Cl	1.001368	-0.440522	-1.117213
Cl152	Cl	1.501368	0.059478	-0.617213
Cl153	Cl	0.590189	-0.237419	-0.275725
Cl154	Cl	1.090189	0.262581	0.224275
H155	H	1.024469	-0.420630	-0.949447
H156	H	1.524469	0.079370	-0.449447
Cl157	Cl	1.001326	-0.440587	-0.864362
Cl158	Cl	1.501326	0.059413	-0.364362
H159	H	0.415129	-0.420935	-0.487988
H160	H	0.915129	0.079065	0.012012
Cl161	Cl	0.648930	-0.440861	-0.511047
Cl162	Cl	1.148930	0.059139	-0.011047
H163	H	1.024430	-0.420693	-0.696599
H164	H	1.524430	0.079307	-0.196599
H165	H	0.422416	-0.257401	-0.298832
H166	H	0.922416	0.242599	0.201168
Cl167	Cl	0.833968	-0.440826	-0.511040
Cl168	Cl	1.333968	0.059174	-0.011040
Cl169	Cl	1.221196	-0.590773	-0.291404
Cl170	Cl	1.721196	-0.090773	0.208596
