data_functionalizedCrystal
_audit_creation_method	'MofGen! by Chris Wilmer'
_symmetry_space_group_name_H-M	'P1'
_symmetry_Int_Tables_number	1
_symmetry_cell_setting	triclinic
loop_
_symmetry_equiv_pos_as_xyz
  x,y,z
_cell_length_a	19.902436
_cell_length_b	14.560438
_cell_length_c	19.902436
_cell_angle_alpha	60.006587
_cell_angle_beta	89.999997
_cell_angle_gamma	60.001593
loop_
_atom_site_label
_atom_site_type_symbol
_atom_site_fract_x
_atom_site_fract_y
_atom_site_fract_z
Zr1	Zr	0.647242	1.005369	-0.088235
O2	O	0.539962	1.196936	-0.195500
O3	O	0.680130	0.813778	-0.055354
O4	O	0.680129	1.005357	-0.195519
O5	O	0.539963	1.005375	0.055230
O6	O	0.790695	1.005375	-0.195532
O7	O	0.539963	1.005357	-0.055336
O8	O	0.790696	0.662675	0.055197
O9	O	0.539962	1.348075	-0.195499
O10	O	0.776669	0.892605	-0.041339
O11	O	0.694155	0.892605	0.041185
O12	O	0.694155	1.118164	-0.123841
O13	O	0.611641	1.118164	-0.041317
Zr14	Zr	0.823582	1.005426	0.088084
Zr15	Zr	0.823582	1.005398	-0.088256
Zr16	Zr	0.647242	1.005398	0.088104
Zr17	Zr	0.647242	1.246418	-0.088233
Zr18	Zr	0.823582	0.764377	0.088081
O19	O	0.790695	1.197017	0.055203
O20	O	0.790695	1.196977	-0.195530
O21	O	0.539962	1.196977	0.055232
O22	O	0.930862	0.813859	0.195349
O23	O	0.930862	0.813819	-0.055384
O24	O	0.680129	0.813819	0.195378
O25	O	0.930861	1.005420	-0.055382
O26	O	0.790695	1.005438	0.195367
O27	O	0.680129	1.005420	0.195380
O28	O	0.930861	1.005438	0.055184
O29	O	0.680129	1.348098	-0.195515
O30	O	0.790696	0.662698	0.195364
O31	O	0.930862	0.662721	0.195347
O32	O	0.930862	0.662698	0.055181
O33	O	0.539962	1.348098	-0.055332
O34	O	0.680129	1.348120	-0.055349
O35	O	0.776669	0.892631	0.123689
O36	O	0.859183	0.892631	0.041166
O37	O	0.776669	1.118191	-0.041336
O38	O	0.694155	1.118191	0.041187
C39	C	0.735413	0.703883	-0.000079
C40	C	0.735413	0.601551	-0.000080
C41	C	0.778481	0.553477	-0.043158
C42	C	0.778483	0.457319	-0.043151
C43	C	0.692341	0.457323	0.043012
C44	C	0.692345	0.553472	0.043010
C45	C	0.821549	0.601556	-0.086247
C46	C	0.864621	0.553482	-0.129330
C47	C	0.864622	0.457325	-0.129323
C48	C	0.821553	0.409241	-0.086235
C49	C	0.514838	1.005362	-0.000050
C50	C	0.439977	1.005350	-0.000041
C51	C	0.167929	1.005414	-0.000087
C52	C	0.248471	0.863127	0.051709
C53	C	0.326374	0.863038	0.052000
C54	C	0.302895	1.005382	-0.000064
C55	C	0.248776	1.076055	0.037898
C56	C	0.171214	1.075145	0.038277
C57	C	0.170074	1.078047	-0.089867
C58	C	0.248952	1.075373	-0.089725
C59	C	0.379170	1.005371	-0.000052
C60	C	0.091652	1.005429	-0.000096
C61	C	0.955986	1.005433	-0.000102
C62	C	1.030847	1.005445	-0.000110
C63	C	0.735412	1.005362	-0.220650
C64	C	0.735412	1.005350	-0.295511
C65	C	0.735411	1.306913	-0.000073
C66	C	0.735411	1.409244	-0.000071
C67	C	0.735412	1.005414	-0.567559
C68	C	0.787711	0.863127	-0.487025
C69	C	0.787485	0.863038	-0.409122
C70	C	0.735413	1.005382	-0.432592
C71	C	0.645754	1.076034	-0.486701
C72	C	0.646041	1.075124	-0.564263
C73	C	0.772047	1.078067	-0.565417
C74	C	0.773862	1.075393	-0.486540
C75	C	0.735408	1.005371	-0.356318
C76	C	0.735410	1.005429	-0.643835
C77	C	0.735412	1.005433	0.220498
C78	C	0.735412	1.005445	0.295359
C79	C	0.955987	0.703918	-0.000105
C80	C	1.030848	0.601599	-0.000115
C81	C	0.735413	0.703918	0.220495
C82	C	0.735413	0.601599	0.295355
C83	C	0.955987	0.703954	0.220469
C84	C	1.030848	0.601646	0.295320
C85	C	0.514838	1.306842	-0.220621
C86	C	0.439977	1.409149	-0.295472
C87	C	0.514837	1.306877	-0.000047
C88	C	0.439976	1.409197	-0.000037
C89	C	0.735412	1.306877	-0.220647
C90	C	0.735411	1.409197	-0.295506
C91	C	1.022932	0.553535	-0.043193
C92	C	1.093265	0.457408	-0.043219
C93	C	1.171513	0.409341	-0.000161
C94	C	1.179427	0.457414	0.042919
C95	C	1.109095	0.553546	0.042939
C96	C	0.778484	0.553562	0.373584
C97	C	0.778481	0.457436	0.443929
C98	C	0.735411	0.409341	0.436044
C99	C	0.692334	0.457387	0.357807
C100	C	0.692333	0.553518	0.287463
C101	C	1.109082	0.553602	0.287394
C102	C	1.179428	0.457486	0.357718
C103	C	1.171539	0.409411	0.435967
C104	C	1.093296	0.457465	0.443891
C105	C	1.022951	0.553585	0.373568
C106	C	0.361742	1.457206	-0.287546
C107	C	0.291396	1.553351	-0.357870
C108	C	0.299285	1.601431	-0.436118
C109	C	0.377528	1.553371	-0.444042
C110	C	0.447873	1.457234	-0.373719
C111	C	0.447892	1.457271	0.043034
C112	C	0.377559	1.553424	0.043041
C113	C	0.299311	1.601495	-0.000020
C114	C	0.291397	1.553417	-0.043096
C115	C	0.361729	1.457272	-0.043107
C116	C	0.778490	1.457261	-0.287595
C117	C	0.778506	1.553389	-0.357927
C118	C	0.735438	1.601456	-0.436169
C119	C	0.692358	1.553382	-0.444079
C120	C	0.692348	1.457250	-0.373748
H121	H	0.899699	0.418175	-0.164396
H122	H	0.511573	1.418107	-0.380182
Br123	Br	1.285628	0.392162	0.101354
Br124	Br	0.916779	0.618771	0.384339
Br125	Br	0.633870	1.392042	-0.384500
Br126	Br	0.311198	0.994279	0.146968
H127	H	0.241999	1.679712	-0.493373
Br128	Br	0.388319	1.618650	0.101508
Br129	Br	1.119853	0.618757	0.101414
Br130	Br	0.251305	0.770014	0.009491
Br131	Br	0.821542	0.732064	-0.086264
H132	H	1.086885	0.418308	0.507610
H133	H	1.086805	0.418278	-0.078299
Br134	Br	0.185220	1.618552	-0.347096
H135	H	0.813557	0.592711	0.380020
Br136	Br	0.836948	0.392250	0.550097
Br137	Br	0.596519	0.994232	-0.424274
Br138	Br	0.745066	0.770126	-0.344080
Br139	Br	0.203867	1.731979	0.000003
H140	H	0.821562	0.330937	-0.086229
H141	H	0.355303	1.418064	-0.223838
Br142	Br	1.266957	0.278874	-0.000197
Br143	Br	0.350971	1.392034	-0.101562
Br144	Br	0.185196	1.618666	-0.101529
Br145	Br	0.388221	1.618634	-0.550244
H146	H	0.511600	1.418139	0.078105
H147	H	0.167085	1.032503	-0.121578
Br148	Br	0.633876	0.618693	0.181298
H149	H	0.837073	1.032537	-0.568412
Br150	Br	0.633896	0.618720	0.101475
H151	H	0.735419	0.331065	0.493329
H152	H	0.657268	0.418214	0.351399
Br153	Br	0.836946	1.392049	-0.181417
H154	H	0.657275	0.418168	0.078091
H155	H	0.813585	1.592520	-0.351470
Br156	Br	1.119812	0.618833	0.181209
H157	H	0.286277	1.023843	-0.118085
Br158	Br	0.597157	0.991417	-0.563938
H159	H	1.243131	0.418370	0.351252
Br160	Br	0.716968	1.248487	-0.517410
Br161	Br	1.267016	0.278961	0.531398
H162	H	0.365762	0.807609	0.026525
H163	H	0.735453	1.679733	-0.493431
H164	H	0.604953	1.179518	-0.621293
Br165	Br	0.218065	1.248469	-0.159462
H166	H	0.249219	0.807565	0.117539
H167	H	0.657293	1.592534	-0.507794
H168	H	0.899692	0.592630	-0.164405
Br169	Br	0.883957	0.989533	-0.424347
H170	H	0.365468	0.807097	0.118235
Br171	Br	0.171533	0.991464	0.148391
H172	H	0.959224	0.592670	-0.078266
H173	H	0.113303	1.182866	-0.128640
Br174	Br	0.897526	0.770631	-0.343466
H175	H	0.114177	1.179540	0.002989
Br176	Br	0.215821	1.250504	-0.021954
H177	H	0.853904	0.807284	-0.485335
H178	H	0.605095	1.180694	-0.506460
H179	H	0.762533	0.807552	-0.486273
Br180	Br	0.708858	1.252773	-0.660026
