data_functionalizedCrystal
_audit_creation_method	'MofGen! by Chris Wilmer'
_symmetry_space_group_name_H-M	'P1'
_symmetry_Int_Tables_number	1
_symmetry_cell_setting	triclinic
loop_
_symmetry_equiv_pos_as_xyz
  x,y,z
_cell_length_a	16.109301
_cell_length_b	16.109302
_cell_length_c	15.186229
_cell_angle_alpha	89.990142
_cell_angle_beta	89.986602
_cell_angle_gamma	83.461631
loop_
_atom_site_label
_atom_site_type_symbol
_atom_site_fract_x
_atom_site_fract_y
_atom_site_fract_z
O1	O	0.106878	1.103135	-0.073271
O2	O	0.606878	1.603135	0.426729
O3	O	0.120177	0.861073	-0.073264
O4	O	0.620177	1.361073	0.426736
O5	O	-0.007503	0.988753	-0.073259
O6	O	0.492497	1.488753	0.426741
O7	O	0.234559	0.975454	-0.073276
O8	O	0.734559	1.475454	0.426724
O9	O	-0.007524	0.988736	0.073198
O10	O	0.492476	1.488736	0.573198
O11	O	0.120156	0.861055	0.073193
O12	O	0.620156	1.361055	0.573193
O13	O	0.106858	1.103117	0.073186
O14	O	0.606858	1.603117	0.573186
Zn15	Zn	0.113504	0.982084	0.096443
Zn16	Zn	0.613504	1.482084	0.596443
Zn17	Zn	0.113531	0.982106	-0.096521
Zn18	Zn	0.613531	1.482106	0.403479
O19	O	0.234538	0.975437	0.073181
O20	O	0.734538	1.475437	0.573181
C21	C	0.119628	0.830089	-0.000035
C22	C	0.619628	1.330089	0.499965
C23	C	0.118013	0.737794	-0.000032
C24	C	0.618013	1.237794	0.499968
C25	C	0.114266	0.525444	0.079793
C26	C	0.614266	1.025444	0.579793
C27	C	0.112739	0.438724	0.079790
C28	C	0.612739	0.938724	0.579790
C29	C	0.112766	0.438753	-0.079885
C30	C	0.612766	0.938753	0.420115
C31	C	0.114287	0.525472	-0.079881
C32	C	0.614287	1.025472	0.420119
C33	C	0.115041	0.568815	-0.000039
C34	C	0.615041	1.068815	0.499961
C35	C	0.111994	0.395375	-0.000046
C36	C	0.611994	0.895375	0.499954
C37	C	0.110338	0.301350	-0.000050
C38	C	0.610338	0.801350	0.499950
C39	C	0.116695	0.662847	-0.000035
C40	C	0.616695	1.162847	0.499965
C41	C	-0.038488	0.988206	-0.000030
C42	C	0.461512	1.488206	0.499970
C43	C	-0.130784	0.986591	-0.000028
C44	C	0.369216	1.486591	0.499972
C45	C	-0.353056	1.058599	-0.000044
C46	C	0.146944	1.558599	0.499956
C47	C	-0.439776	1.057074	-0.000052
C48	C	0.060224	1.557074	0.499948
C49	C	-0.419902	0.905586	-0.000044
C50	C	0.080098	1.405586	0.499956
C51	C	-0.333184	0.907111	-0.000043
C52	C	0.166816	1.407111	0.499957
C53	C	-0.299763	0.983620	-0.000039
C54	C	0.200237	1.483620	0.499961
C55	C	-0.473202	0.980571	-0.000047
C56	C	0.026798	1.480571	0.499953
C57	C	-0.567228	0.978918	-0.000055
C58	C	-0.067228	1.478918	0.499945
C59	C	-0.205731	0.985273	-0.000033
C60	C	0.294269	1.485273	0.499967
C61	C	0.265523	0.975984	-0.000050
C62	C	0.765523	1.475984	0.499950
C63	C	0.357819	0.977599	-0.000057
C64	C	0.857819	1.477599	0.499943
C65	C	0.107407	1.134101	-0.000045
C66	C	0.607407	1.634101	0.499955
C67	C	0.109022	1.226396	-0.000054
C68	C	0.609022	1.726396	0.499946
N69	N	0.113485	0.982074	0.228136
N70	N	0.613485	1.482074	0.728136
N71	N	0.113543	0.982123	-0.228214
N72	N	0.613543	1.482123	0.271786
C73	C	0.063082	0.931693	0.546093
C74	C	0.563082	1.431693	1.046093
C75	C	0.063070	0.931686	0.453903
C76	C	0.563070	1.431686	0.953903
C77	C	0.163949	1.032509	0.453835
C78	C	0.663949	1.532509	0.953835
C79	C	0.163956	1.032520	0.546023
C80	C	0.663956	1.532520	1.046023
C81	C	0.113524	0.982107	0.592150
C82	C	0.613524	1.482107	1.092150
C83	C	0.113505	0.982089	0.407772
C84	C	0.613505	1.482089	0.907772
C85	C	0.113492	0.982082	0.307816
C86	C	0.613492	1.482082	0.807816
C87	C	0.113535	0.982116	0.692112
C88	C	0.613535	1.482116	1.192112
H89	H	0.112153	0.403453	-0.144890
H90	H	0.612153	0.903453	0.355110
C91	C	0.219447	1.087976	0.596689
C92	C	0.719447	1.587976	1.096689
H93	H	0.249490	1.117989	0.556016
H94	H	0.749490	1.617989	1.056016
H95	H	0.185389	1.126249	0.632652
H96	H	0.685389	1.626249	1.132652
H97	H	0.257707	1.053894	0.632648
H98	H	0.757707	1.553894	1.132648
C99	C	-0.274558	0.824630	-0.000034
C100	C	0.225442	1.324630	0.499966
H101	H	-0.306880	0.778846	-0.000024
H102	H	0.193120	1.278846	0.499976
H103	H	-0.240304	0.822081	-0.051106
H104	H	0.259696	1.322081	0.448894
H105	H	-0.240328	0.822075	0.051046
H106	H	0.259672	1.322075	0.551046
H107	H	0.022016	0.890644	0.583646
H108	H	0.522016	1.390644	1.083646
C109	C	-0.316295	1.142754	-0.000050
C110	C	0.183705	1.642754	0.499950
H111	H	-0.360458	1.187190	-0.000062
H112	H	0.139542	1.687190	0.499938
H113	H	-0.282890	1.146497	0.051023
H114	H	0.217110	1.646497	0.551023
H115	H	-0.282869	1.146500	-0.051130
H116	H	0.217131	1.646500	0.448870
C117	C	0.007588	0.876226	0.403245
C118	C	0.507588	1.376226	0.903245
H119	H	-0.022440	0.846202	0.443922
H120	H	0.477560	1.346202	0.943922
H121	H	-0.030673	0.910297	0.367285
H122	H	0.469327	1.410297	0.867285
H123	H	0.041653	0.837950	0.367283
H124	H	0.541653	1.337950	0.867283
C125	C	0.219428	1.087950	0.403094
C126	C	0.719428	1.587950	0.903094
H127	H	0.212207	1.080717	0.341593
H128	H	0.712207	1.580717	0.841593
H129	H	0.203999	1.144840	0.418186
H130	H	0.703999	1.644840	0.918186
H131	H	0.276314	1.072481	0.418190
H132	H	0.776314	1.572481	0.918190
C133	C	0.115144	0.573187	-0.167700
C134	C	0.615144	1.073187	0.332300
H135	H	0.116149	0.631042	-0.156260
H136	H	0.616149	1.131042	0.343740
H137	H	0.163355	0.552629	-0.200506
H138	H	0.663355	1.052629	0.299494
H139	H	0.066440	0.565338	-0.200502
H140	H	0.566440	1.065338	0.299498
C141	C	0.115071	0.573121	0.167615
C142	C	0.615071	1.073121	0.667615
H143	H	0.114379	0.534869	0.215160
H144	H	0.614379	1.034869	0.715160
H145	H	0.164113	0.600602	0.170949
H146	H	0.664113	1.100602	0.670949
H147	H	0.067198	0.613298	0.170925
H148	H	0.567198	1.113298	0.670925
H149	H	0.112109	0.403415	0.144798
H150	H	0.612109	0.903415	0.644798
H151	H	-0.447124	0.843295	-0.000046
H152	H	0.052876	1.343295	0.499954
C153	C	-0.498395	1.139551	-0.000052
C154	C	0.001605	1.639551	0.499948
H155	H	-0.466068	1.185332	-0.000043
H156	H	0.033932	1.685332	0.499957
H157	H	-0.532626	1.142115	-0.051126
H158	H	-0.032626	1.642115	0.448874
H159	H	-0.532648	1.142098	0.051027
H160	H	-0.032648	1.642098	0.551027
