data_functionalizedCrystal
_audit_creation_method	'MofGen! by Chris Wilmer'
_symmetry_space_group_name_H-M	'P1'
_symmetry_Int_Tables_number	1
_symmetry_cell_setting	triclinic
loop_
_symmetry_equiv_pos_as_xyz
  x,y,z
_cell_length_a	19.805405
_cell_length_b	21.395364
_cell_length_c	21.395355
_cell_angle_alpha	90.025298
_cell_angle_beta	89.980090
_cell_angle_gamma	89.956889
loop_
_atom_site_label
_atom_site_type_symbol
_atom_site_fract_x
_atom_site_fract_y
_atom_site_fract_z
Zn1	Zn	-0.269240	-0.957878	-0.354268
Zn2	Zn	0.230760	-0.457878	0.145732
Zn3	Zn	-0.382410	-0.957788	-0.249488
Zn4	Zn	0.117590	-0.457788	0.250512
Zn5	Zn	-0.269273	-0.853093	-0.249503
Zn6	Zn	0.230727	-0.353093	0.250497
Zn7	Zn	-0.382425	-0.853070	-0.354227
Zn8	Zn	0.117575	-0.353070	0.145773
O9	O	-0.325837	-0.905457	-0.301871
O10	O	0.174163	-0.405457	0.198129
O11	O	-0.284232	-1.045544	-0.340379
O12	O	0.215768	-0.545544	0.159621
O13	O	-0.367409	-0.943872	-0.161812
O14	O	0.132591	-0.443872	0.338188
O15	O	-0.174552	-0.867040	-0.263424
O16	O	0.325448	-0.367040	0.236576
O17	O	-0.367377	-1.045478	-0.263398
O18	O	0.132623	-0.545478	0.236602
O19	O	-0.174528	-0.944025	-0.340394
O20	O	0.325472	-0.444025	0.159606
O21	O	-0.284288	-0.866953	-0.161823
O22	O	0.215712	-0.366953	0.338177
O23	O	-0.284303	-0.765412	-0.263384
O24	O	0.215697	-0.265412	0.236616
O25	O	-0.367404	-0.867001	-0.441910
O26	O	0.132596	-0.367001	0.058090
O27	O	-0.367436	-0.765395	-0.340324
O28	O	0.132564	-0.265395	0.159676
O29	O	-0.284247	-0.944003	-0.441940
O30	O	0.215753	-0.444003	0.058060
O31	O	-0.477128	-0.943850	-0.263358
O32	O	0.022872	-0.443850	0.236642
O33	O	-0.477140	-0.866914	-0.340309
O34	O	0.022860	-0.366914	0.159691
C35	C	-0.325875	-0.742670	-0.301852
C36	C	0.174125	-0.242670	0.198148
C37	C	-0.325908	-0.673028	-0.301858
C38	C	0.174092	-0.173028	0.198142
C39	C	-0.282686	-0.640372	-0.342004
C40	C	0.217314	-0.140372	0.157996
C41	C	-0.282670	-0.574936	-0.342005
C42	C	0.217330	-0.074936	0.157995
C43	C	-0.325888	-0.542160	-0.301868
C44	C	0.174112	-0.042160	0.198132
C45	C	-0.369113	-0.574824	-0.261714
C46	C	0.130887	-0.074824	0.238286
C47	C	-0.369123	-0.640259	-0.261709
C48	C	0.130877	-0.140259	0.238291
C49	C	-0.386846	-0.438440	-0.296828
C50	C	0.113154	0.061560	0.203172
C51	C	-0.386838	-0.373007	-0.296837
C52	C	0.113162	0.126993	0.203163
C53	C	-0.325858	-0.340339	-0.301879
C54	C	0.174142	0.159661	0.198121
C55	C	-0.264885	-0.373113	-0.306925
C56	C	0.235115	0.126887	0.193075
C57	C	-0.264895	-0.438547	-0.306921
C58	C	0.235105	0.061453	0.193079
C59	C	-0.325882	-0.471208	-0.301868
C60	C	0.174118	0.028792	0.198132
C61	C	-0.282615	-0.236730	-0.342029
C62	C	0.217385	0.263270	0.157971
C63	C	-0.282598	-0.171294	-0.342026
C64	C	0.217402	0.328706	0.157974
C65	C	-0.369047	-0.171183	-0.261738
C66	C	0.130953	0.328817	0.238262
C67	C	-0.369058	-0.236618	-0.261738
C68	C	0.130942	0.263382	0.238262
C69	C	-0.325843	-0.269388	-0.301886
C70	C	0.174157	0.230612	0.198114
C71	C	-0.501693	-0.905387	-0.301841
C72	C	-0.001693	-0.405387	0.198159
C73	C	-0.576925	-0.905414	-0.301849
C74	C	-0.076925	-0.405414	0.198151
C75	C	-0.612241	-0.945513	-0.261823
C76	C	-0.112241	-0.445513	0.238177
C77	C	-0.682929	-0.945540	-0.261836
C78	C	-0.182929	-0.445540	0.238164
C79	C	-0.718301	-0.905464	-0.301874
C80	C	-0.218301	-0.405464	0.198126
C81	C	-0.682980	-0.865362	-0.341905
C82	C	-0.182980	-0.365362	0.158095
C83	C	-0.612293	-0.865339	-0.341894
C84	C	-0.112293	-0.365339	0.158106
C85	C	-0.968053	-0.865455	-0.341951
C86	C	-0.468053	-0.365455	0.158049
C87	C	-1.038745	-0.865479	-0.341958
C88	C	-0.538745	-0.365479	0.158042
C89	C	-1.038690	-0.945655	-0.261894
C90	C	-0.538690	-0.445655	0.238106
C91	C	-0.968002	-0.945632	-0.261883
C92	C	-0.468002	-0.445632	0.238117
C93	C	-0.932688	-0.905534	-0.301916
C94	C	-0.432688	-0.405534	0.198084
C95	C	-0.856040	-0.905506	-0.301901
C96	C	-0.356040	-0.405506	0.198099
C97	C	-0.794948	-0.905487	-0.301886
C98	C	-0.294948	-0.405487	0.198114
C99	C	-0.149294	-0.905545	-0.301916
C100	C	0.350706	-0.405545	0.198084
C101	C	-0.074062	-0.905583	-0.301934
C102	C	0.425938	-0.405583	0.198066
C103	C	-0.325823	-0.905509	-0.465295
C104	C	0.174177	-0.405509	0.034705
C105	C	-0.325817	-0.905531	-0.534936
C106	C	0.174183	-0.405531	-0.034936
C107	C	-0.325807	-0.068881	-0.301888
C108	C	0.174193	0.431119	0.198112
C109	C	-0.325816	-0.138522	-0.301887
C110	C	0.174184	0.361478	0.198113
C111	C	-0.282516	-0.945625	-0.567666
C112	C	0.217484	-0.445625	-0.067666
C113	C	-0.282487	-0.945624	-0.633101
C114	C	0.217513	-0.445624	-0.133101
C115	C	-0.325771	-0.905536	-0.665804
C116	C	0.174229	-0.405536	-0.165804
C117	C	-0.369076	-0.865435	-0.633067
C118	C	0.130924	-0.365435	-0.133067
C119	C	-0.369099	-0.865433	-0.567632
C120	C	0.130901	-0.365433	-0.067632
C121	C	-0.386717	-0.900565	-0.769469
C122	C	0.113283	-0.400565	-0.269469
C123	C	-0.386695	-0.900571	-0.834902
C124	C	0.113305	-0.400571	-0.334902
C125	C	-0.325700	-0.905540	-0.867625
C126	C	0.174300	-0.405540	-0.367625
C127	C	-0.264724	-0.910515	-0.834908
C128	C	0.235276	-0.410515	-0.334908
C129	C	-0.264748	-0.910513	-0.769474
C130	C	0.235252	-0.410513	-0.269474
C131	C	-0.325751	-0.905534	-0.736757
C132	C	0.174249	-0.405534	-0.236757
C133	C	-0.282363	-0.945635	-0.971308
C134	C	0.217637	-0.445635	-0.471308
C135	C	-0.282333	-0.945629	-1.036744
C136	C	0.217667	-0.445629	-0.536744
C137	C	-0.368928	-0.865444	-1.036708
C138	C	0.131072	-0.365444	-0.536708
C139	C	-0.368952	-0.865446	-0.971273
C140	C	0.131048	-0.365446	-0.471273
C141	C	-0.325671	-0.905545	-0.938577
C142	C	0.174329	-0.405545	-0.438577
C143	C	-0.325802	-0.905442	-0.139084
C144	C	0.174198	-0.405442	0.360916
C145	C	-0.325617	-0.905541	-0.069443
C146	C	0.174383	-0.405541	0.430557
H147	H	-0.404301	-0.548134	-0.229033
H148	H	0.095699	-0.048134	0.270967
H149	H	-0.247067	-0.978277	-1.063392
H150	H	0.252933	-0.478277	-0.563392
H151	H	-0.247471	-0.548342	-0.374696
H152	H	0.252529	-0.048342	0.125304
H153	H	-0.247398	-0.144706	-0.374716
H154	H	0.252602	0.355294	0.125284
N155	N	-0.415609	-0.822201	-1.071971
N156	N	0.084391	-0.322201	-0.571971
H157	H	-0.409023	-0.828284	-1.118391
H158	H	0.090977	-0.328284	-0.618391
H159	H	-0.463952	-0.831926	-1.060538
H160	H	0.036048	-0.331926	-0.560538
N161	N	-0.929968	-0.822201	-0.385121
N162	N	-0.429968	-0.322201	0.114879
H163	H	-0.942237	-0.831910	-0.429899
H164	H	-0.442237	-0.331910	0.070101
H165	H	-0.942347	-0.777462	-0.375291
H166	H	-0.442347	-0.277462	0.124709
N167	N	-0.721127	-0.822138	-0.385092
N168	N	-0.221127	-0.322138	0.114908
H169	H	-0.771266	-0.828234	-0.379024
H170	H	-0.271266	-0.328234	0.120976
H171	H	-0.708827	-0.777392	-0.375295
H172	H	-0.208827	-0.277392	0.124705
H173	H	-0.215248	-0.465228	-0.311027
H174	H	0.284752	0.034772	0.188973
N175	N	-0.415668	-0.822212	-0.935969
N176	N	0.084332	-0.322212	-0.435969
H177	H	-0.409116	-0.828293	-0.889555
H178	H	0.090884	-0.328293	-0.389555
H179	H	-0.405142	-0.777469	-0.947387
H180	H	0.094858	-0.277469	-0.447387
H181	H	-0.247272	-0.978275	-0.541049
H182	H	0.252728	-0.478275	-0.041049
N183	N	-0.574095	-0.988745	-0.218642
N184	N	-0.074095	-0.488745	0.281358
H185	H	-0.523956	-0.982647	-0.224707
H186	H	-0.023956	-0.482647	0.275293
H187	H	-0.586487	-0.979022	-0.173887
H188	H	-0.086487	-0.479022	0.326113
N189	N	-0.574206	-0.822083	-0.385064
N190	N	-0.074206	-0.322083	0.114936
H191	H	-0.544926	-0.793051	-0.359570
H192	H	-0.044926	-0.293051	0.140430
H193	H	-0.544871	-0.847565	-0.414112
H194	H	-0.044871	-0.347565	0.085888
N195	N	-0.235781	-0.988868	-0.668414
N196	N	0.264219	-0.488868	-0.168414
H197	H	-0.208366	-1.014269	-0.637772
H198	H	0.291634	-0.514269	-0.137772
H199	H	-0.263323	-1.017847	-0.695573
H200	H	0.236677	-0.517847	-0.195573
N201	N	-0.198988	-0.915880	-0.734185
N202	N	0.301012	-0.415880	-0.234185
H203	H	-0.160341	-0.919030	-0.764839
H204	H	0.339659	-0.419030	-0.264839
H205	H	-0.192722	-0.877708	-0.707019
H206	H	0.307278	-0.377708	-0.207019
N207	N	-0.198930	-0.915881	-0.870192
N208	N	0.301070	-0.415881	-0.370192
H209	H	-0.208165	-0.915125	-0.916609
H210	H	0.291835	-0.415125	-0.416609
H211	H	-0.168681	-0.879665	-0.858738
H212	H	0.331319	-0.379665	-0.358738
H213	H	-1.067543	-0.832845	-0.374566
H214	H	-0.567543	-0.332845	0.125434
H215	H	-0.215229	-0.346516	-0.311032
H216	H	0.284771	0.153484	0.188968
H217	H	-0.247117	-0.978282	-0.944685
H218	H	0.252883	-0.478282	-0.444685
N219	N	-0.236006	-0.272081	-0.385327
N220	N	0.263994	0.227919	0.114673
H221	H	-0.208617	-0.241461	-0.410757
H222	H	0.291383	0.258539	0.089243
H223	H	-0.204648	-0.299246	-0.359875
H224	H	0.295352	0.200754	0.140125
H225	H	-0.404321	-0.666847	-0.229017
H226	H	0.095679	-0.166847	0.270983
N227	N	-0.415688	-0.271843	-0.218447
N228	N	0.084312	0.228157	0.281553
H229	H	-0.409138	-0.318269	-0.224534
H230	H	0.090862	0.181731	0.275466
H231	H	-0.405083	-0.260393	-0.173717
H232	H	0.094917	0.239607	0.326283
N233	N	-0.415657	-0.135841	-0.218440
N234	N	0.084343	0.364159	0.281560
H235	H	-0.409091	-0.089433	-0.224533
H236	H	0.090909	0.410567	0.275467
H237	H	-0.464015	-0.147242	-0.228108
H238	H	0.035985	0.352758	0.271892
H239	H	-0.436485	-0.346328	-0.292731
H240	H	0.063515	0.153672	0.207269
H241	H	-0.404360	-0.832781	-0.540984
H242	H	0.095640	-0.332781	-0.040984
H243	H	-0.436345	-0.896524	-0.861535
H244	H	0.063655	-0.396524	-0.361535
H245	H	-0.711680	-0.978193	-0.229242
H246	H	-0.211680	-0.478193	0.270758
N247	N	-0.929856	-0.988862	-0.218702
N248	N	-0.429856	-0.488862	0.281298
H249	H	-0.900480	-1.017873	-0.244191
H250	H	-0.400480	-0.517873	0.255809
H251	H	-0.900612	-0.963363	-0.189645
H252	H	-0.400612	-0.463363	0.310355
H253	H	-1.067451	-0.978308	-0.229300
H254	H	-0.567451	-0.478308	0.270700
H255	H	-0.436374	-0.896351	-0.742830
H256	H	0.063626	-0.396351	-0.242830
N257	N	-0.415751	-0.822187	-0.668334
N258	N	0.084249	-0.322187	-0.168334
H259	H	-0.409165	-0.828271	-0.714754
H260	H	0.090835	-0.328271	-0.214754
H261	H	-0.464096	-0.831905	-0.656903
H262	H	0.035904	-0.331905	-0.156903
H263	H	-0.247497	-0.667049	-0.374696
H264	H	0.252503	-0.167049	0.125304
H265	H	-0.436507	-0.465032	-0.292721
H266	H	0.063493	0.034968	0.207279
