data_functionalizedCrystal
_audit_creation_method	'MofGen! by Chris Wilmer'
_symmetry_space_group_name_H-M	'P1'
_symmetry_Int_Tables_number	1
_symmetry_cell_setting	triclinic
loop_
_symmetry_equiv_pos_as_xyz
  x,y,z
_cell_length_a	12.837943
_cell_length_b	10.654550
_cell_length_c	9.130313
_cell_angle_alpha	90.001310
_cell_angle_beta	90.002305
_cell_angle_gamma	90.343078
loop_
_atom_site_label
_atom_site_type_symbol
_atom_site_fract_x
_atom_site_fract_y
_atom_site_fract_z
O1	O	1.377801	-0.326742	0.121766
O2	O	1.075880	-0.310601	0.121775
O3	O	1.233782	-0.136690	0.121765
O4	O	1.219899	-0.500653	0.121776
O5	O	1.233772	-0.136700	-0.121834
O6	O	1.075869	-0.310611	-0.121824
O7	O	1.377791	-0.326752	-0.121833
Cu8	Cu	1.226829	-0.318683	-0.144071
Cu9	Cu	1.226842	-0.318671	0.144013
O10	O	1.219888	-0.500663	-0.121823
C11	C	1.037215	-0.305153	-0.000023
C12	C	0.922021	-0.288891	-0.000020
C13	C	0.682468	-0.484395	-0.000035
C14	C	0.574232	-0.469121	-0.000033
C15	C	0.597312	-0.243070	-0.000024
C16	C	0.705547	-0.258344	-0.000026
C17	C	0.748121	-0.379010	-0.000029
C18	C	0.856359	-0.394284	-0.000021
C19	C	0.879436	-0.168233	-0.000023
C20	C	0.771201	-0.152959	-0.000021
C21	C	1.232758	-0.089786	-0.000033
C22	C	1.229708	0.049990	-0.000027
C23	C	1.416456	-0.332200	-0.000031
C24	C	1.531650	-0.348462	-0.000025
C25	C	1.220913	-0.547568	-0.000022
C26	C	1.223963	-0.687344	-0.000017
N27	N	1.226827	-0.318691	-0.346693
C28	C	1.322678	0.119331	-0.000035
C29	C	1.319806	0.250665	-0.000024
C30	C	1.130985	0.243307	-0.000006
C31	C	1.133858	0.111975	-0.000006
C32	C	1.431693	0.123580	-0.000052
C33	C	1.428821	0.254914	-0.000041
C34	C	1.290296	-0.402492	-0.423359
C35	C	1.290311	-0.402470	-0.576696
C36	C	1.163380	-0.234843	-0.576688
C37	C	1.163371	-0.234860	-0.423354
C38	C	1.363575	-0.499274	-0.423365
C39	C	1.363591	-0.499253	-0.576701
N40	N	1.226851	-0.318653	0.346636
H41	H	0.891020	-0.492536	-0.000026
H42	H	1.052947	0.293790	0.000013
H43	H	0.932904	-0.082421	-0.000008
H44	H	1.330919	-0.590279	-0.375826
H45	H	1.058152	0.055522	0.000021
F46	F	0.551983	-0.114658	-0.000038
F47	F	1.470526	-0.470613	-0.368945
H48	H	1.441732	-0.468302	-0.624238
F49	F	1.477046	0.072049	-0.137539
F50	F	0.727781	-0.612816	-0.000020
F51	F	0.504362	-0.581287	-0.000043
H52	H	1.474337	0.089573	0.101886
H53	H	1.461771	0.296967	0.105137
F54	F	1.482499	0.303640	-0.133288
F55	F	1.095816	-0.145672	-0.341766
F56	F	1.095849	-0.145629	-0.658288
F57	F	1.330192	-0.625049	-0.631131
H58	H	0.736522	-0.054715	-0.000035
