data_functionalizedCrystal
_audit_creation_method	'MofGen! by Chris Wilmer'
_symmetry_space_group_name_H-M	'P1'
_symmetry_Int_Tables_number	1
_symmetry_cell_setting	triclinic
loop_
_symmetry_equiv_pos_as_xyz
  x,y,z
_cell_length_a	25.639239
_cell_length_b	16.120566
_cell_length_c	16.120297
_cell_angle_alpha	90.125018
_cell_angle_beta	87.131297
_cell_angle_gamma	92.865350
loop_
_atom_site_label
_atom_site_type_symbol
_atom_site_fract_x
_atom_site_fract_y
_atom_site_fract_z
Zn1	Zn	-0.264877	-1.247326	0.534603
Zn2	Zn	-0.348108	-1.254242	0.395537
Zn3	Zn	-0.256042	-1.115321	0.388515
Zn4	Zn	-0.347628	-1.108199	0.527499
O5	O	-0.304164	-1.181272	0.461539
O6	O	-0.279816	-1.364608	0.522068
O7	O	-0.332400	-1.241689	0.278241
O8	O	-0.184053	-1.132918	0.407929
O9	O	-0.340966	-1.369689	0.419897
O10	O	-0.190544	-1.229902	0.515259
O11	O	-0.264759	-1.139624	0.273082
O12	O	-0.264293	-0.998012	0.401040
O13	O	-0.340147	-1.120780	0.644806
O14	O	-0.331580	-0.992780	0.503150
O15	O	-0.279350	-1.222996	0.650026
O16	O	-0.421206	-1.234784	0.413007
O17	O	-0.420853	-1.127486	0.509959
C18	C	-0.296926	-0.965224	0.450562
C19	C	-0.293843	-0.872796	0.445886
C20	C	-0.440001	-1.181134	0.461493
C21	C	-0.498116	-1.181150	0.461506
C22	C	-0.288202	-0.703570	0.437356
C23	C	-0.320171	-0.659815	0.485727
C24	C	-0.317032	-0.565652	0.480981
C25	C	-0.291340	-0.797742	0.442101
C26	C	-0.858662	-1.237276	0.411154
C27	C	-0.913268	-1.237308	0.411166
O28	O	-0.941655	-1.284885	0.368306
N29	N	-0.940409	-1.181416	0.461601
C30	C	-0.912943	-1.125494	0.512033
O31	O	-0.941043	-1.077957	0.554933
C32	C	-0.858338	-1.125467	0.512024
C33	C	-0.831199	-1.181357	0.461579
C34	C	-0.831523	-1.293162	0.360714
C35	C	-0.776921	-1.293129	0.360700
C36	C	-0.749458	-1.237210	0.411126
C37	C	-0.776597	-1.181324	0.461566
C38	C	-0.830873	-1.069550	0.562459
C39	C	-0.776265	-1.069528	0.562446
C40	C	-0.749126	-1.125418	0.512002
C41	C	-0.694532	-1.125372	0.511978
N42	N	-0.667391	-1.181264	0.461543
C43	C	-0.694854	-1.237183	0.411117
C44	C	-1.027616	-1.125556	0.512049
C45	C	-1.082219	-1.125578	0.512054
C46	C	-1.082540	-1.237393	0.411188
C47	C	-1.027936	-1.237366	0.411179
C48	C	-1.000474	-1.181448	0.461614
C49	C	-0.580185	-1.237109	0.411092
C50	C	-0.525578	-1.237069	0.411080
C51	C	-0.525262	-1.125257	0.511948
C52	C	-0.579864	-1.125294	0.511957
C53	C	-0.607325	-1.181227	0.461526
O54	O	-0.666111	-1.077821	0.554819
O55	O	-0.666747	-1.284720	0.368232
C56	C	-0.167798	-1.181432	0.461603
C57	C	-0.109687	-1.181501	0.461631
C58	C	-0.310680	-1.170322	0.678431
C59	C	-0.313457	-1.165656	0.770858
C60	C	-0.311431	-0.398165	0.472545
C61	C	-0.314531	-0.490594	0.477200
C62	C	-0.297637	-1.192227	0.245492
C63	C	-0.294718	-1.197055	0.153074
C64	C	-0.318514	-1.157106	0.940082
C65	C	-0.289663	-1.205602	0.983855
C66	C	-0.292476	-1.200845	1.078017
C67	C	-0.315701	-1.161863	0.845911
H68	H	-0.349896	-0.693075	0.530705
C69	C	-0.248049	-0.658645	0.376593
C70	C	-0.244933	-0.563115	0.371872
C71	C	-0.204783	-0.518179	0.311106
C72	C	-0.167749	-0.568774	0.255061
C73	C	-0.170864	-0.664309	0.259781
C74	C	-0.211014	-0.709245	0.320546
H75	H	-0.272349	-0.525657	0.413361
H76	H	-0.202477	-0.447457	0.307613
H77	H	-0.138027	-0.535509	0.210079
H78	H	-0.143448	-0.701767	0.218292
H79	H	-0.213320	-0.779967	0.324040
H80	H	-0.503483	-1.282582	0.369999
H81	H	-0.602538	-1.282657	0.370028
H82	H	-0.262848	-1.250692	0.950613
H83	H	-0.754828	-1.338642	0.319627
H84	H	-0.345326	-1.112020	0.973322
H85	H	-0.853878	-1.338703	0.319651
H86	H	-1.005843	-1.282877	0.370104
C87	C	-1.112757	-1.298912	0.355723
C88	C	-1.172820	-1.298941	0.355745
C89	C	-1.203038	-1.360455	0.300283
C90	C	-1.173192	-1.421940	0.244800
C91	C	-1.113126	-1.421913	0.244776
C92	C	-1.082908	-1.360399	0.300238
H93	H	-1.194916	-1.253424	0.396819
H94	H	-1.247503	-1.360474	0.300301
H95	H	-1.195561	-1.467476	0.203743
H96	H	-1.091029	-1.467430	0.203702
H97	H	-1.038443	-1.360380	0.300220
H98	H	-0.601962	-1.079786	0.553036
H99	H	-1.104311	-1.080060	0.553122
H100	H	-0.753908	-1.023993	0.603519
C101	C	-0.997410	-1.064031	0.567521
C102	C	-1.001616	-0.969858	0.555850
C103	C	-0.971414	-0.908335	0.611323
C104	C	-0.937006	-0.940985	0.678467
C105	C	-0.932798	-1.035163	0.690142
C106	C	-0.963000	-1.096686	0.634669
H107	H	-1.027089	-0.945684	0.506142
H108	H	-0.974530	-0.838618	0.602680
H109	H	-0.914648	-0.895442	0.719532
H110	H	-0.907325	-1.059337	0.739849
H111	H	-0.959885	-1.166403	0.643312
C112	C	-0.495044	-1.063749	0.567414
C113	C	-0.499238	-0.969572	0.555757
C114	C	-0.469019	-0.908067	0.611226
C115	C	-0.434605	-0.940741	0.678352
C116	C	-0.430410	-1.034924	0.690012
C117	C	-0.460630	-1.096428	0.634543
H118	H	-0.524714	-0.945380	0.506063
H119	H	-0.472124	-0.838347	0.602595
H120	H	-0.412235	-0.895212	0.719414
H121	H	-0.404934	-1.059115	0.739706
H122	H	-0.457524	-1.166148	0.643174
H123	H	-0.852960	-1.024034	0.603532
