data_functionalizedCrystal
_audit_creation_method	'MofGen! by Chris Wilmer'
_symmetry_space_group_name_H-M	'P1'
_symmetry_Int_Tables_number	1
_symmetry_cell_setting	triclinic
loop_
_symmetry_equiv_pos_as_xyz
  x,y,z
_cell_length_a	16.625546
_cell_length_b	18.215407
_cell_length_c	16.625539
_cell_angle_alpha	89.984837
_cell_angle_beta	90.028532
_cell_angle_gamma	89.981912
loop_
_atom_site_label
_atom_site_type_symbol
_atom_site_fract_x
_atom_site_fract_y
_atom_site_fract_z
Zn1	Zn	-0.321109	-1.125065	0.455857
Zn2	Zn	-0.455948	-1.124984	0.321019
Zn3	Zn	-0.321123	-1.002003	0.321042
Zn4	Zn	-0.455893	-1.001969	0.455813
O5	O	-0.388518	-1.063506	0.388433
O6	O	-0.339013	-1.228039	0.437979
O7	O	-0.438092	-1.108651	0.208190
O8	O	-0.208289	-1.018376	0.338953
O9	O	-0.438079	-1.227979	0.338914
O10	O	-0.208279	-1.108789	0.438001
O11	O	-0.339036	-1.018298	0.208206
O12	O	-0.338983	-0.899015	0.338911
O13	O	-0.437985	-1.018317	0.568652
O14	O	-0.437998	-0.898989	0.437927
O15	O	-0.338960	-1.108756	0.568684
O16	O	-0.568773	-1.108618	0.338872
O17	O	-0.568733	-1.018239	0.437905
C18	C	-0.598009	-1.063436	0.388399
C19	C	-0.687630	-1.063473	0.388412
C20	C	-0.388487	-0.872299	0.388417
C21	C	-0.388493	-0.790500	0.388430
C22	C	-0.388465	-1.063542	0.598742
C23	C	-0.388442	-1.063557	0.688363
C24	C	-1.015806	-1.063602	0.388496
C25	C	-0.924497	-1.063564	0.388474
C26	C	-0.851721	-1.063537	0.388453
C27	C	-0.760407	-1.063500	0.388433
C28	C	-0.178209	-1.063596	0.388484
C29	C	-0.088588	-1.063634	0.388506
C30	C	-0.337009	-0.602336	0.440093
C31	C	-0.337013	-0.525478	0.440095
C32	C	-0.440015	-0.525427	0.336779
C33	C	-0.440006	-0.602284	0.336774
C34	C	-0.388505	-0.640737	0.388435
C35	C	-0.388518	-0.487021	0.388443
C36	C	-0.388523	-0.403687	0.388445
C37	C	-0.388498	-0.724076	0.388432
C38	C	-0.388542	-0.255458	0.388447
C39	C	-0.388529	-0.337257	0.388448
C40	C	-0.388513	-1.063512	0.178942
C41	C	-0.388309	-1.063639	0.089321
C42	C	-0.388425	-1.063569	0.761145
C43	C	-0.388395	-1.063586	0.852454
C44	C	-0.388366	-1.063603	0.925231
C45	C	-0.388337	-1.063622	1.016545
H46	H	-0.295070	-0.633642	0.482156
H47	H	-0.295079	-0.494215	0.482158
Cl48	Cl	-0.504760	-0.477081	0.271841
Cl49	Cl	-0.504741	-0.650563	0.271819
