data_functionalizedCrystal
_audit_creation_method	'MofGen! by Chris Wilmer'
_symmetry_space_group_name_H-M	'P1'
_symmetry_Int_Tables_number	1
_symmetry_cell_setting	triclinic
loop_
_symmetry_equiv_pos_as_xyz
  x,y,z
_cell_length_a	10.540539
_cell_length_b	14.971486
_cell_length_c	14.048226
_cell_angle_alpha	90.006640
_cell_angle_beta	89.995616
_cell_angle_gamma	95.930190
loop_
_atom_site_label
_atom_site_type_symbol
_atom_site_fract_x
_atom_site_fract_y
_atom_site_fract_z
O1	O	1.684460	-0.126055	-0.079116
O2	O	2.184460	0.373945	0.420884
O3	O	1.314912	-0.137932	-0.079128
O4	O	1.814912	0.362068	0.420872
O5	O	1.509591	-0.001849	-0.079115
O6	O	2.009591	0.498151	0.420885
O7	O	1.489781	-0.262138	-0.079129
O8	O	1.989781	0.237862	0.420871
O9	O	1.509568	-0.001841	0.079206
O10	O	2.009568	0.498159	0.579206
O11	O	1.314889	-0.137924	0.079193
O12	O	1.814889	0.362076	0.579193
O13	O	1.684437	-0.126047	0.079205
O14	O	2.184437	0.373953	0.579205
Zn15	Zn	1.499659	-0.131984	0.104336
Zn16	Zn	1.999659	0.368016	0.604336
Zn17	Zn	1.499690	-0.131995	-0.104259
Zn18	Zn	1.999690	0.368005	0.395741
O19	O	1.489758	-0.262130	0.079192
O20	O	1.989758	0.237870	0.579192
C21	C	1.267608	-0.137037	0.000031
C22	C	1.767608	0.362963	0.500031
C23	C	1.126690	-0.134372	0.000027
C24	C	1.626690	0.365628	0.500027
C25	C	1.508693	0.031484	0.000045
C26	C	2.008693	0.531484	0.500045
C27	C	1.506039	0.130797	0.000044
C28	C	2.006039	0.630797	0.500044
N29	N	1.499647	-0.131976	0.246697
N30	N	1.999647	0.368024	0.746697
C31	C	0.944422	-0.032264	0.000402
C32	C	1.444422	0.467736	0.500402
C33	C	1.091009	-0.034965	0.000035
C34	C	1.591009	0.465035	0.500035
C35	C	1.064488	-0.182216	-0.090382
C36	C	1.564488	0.317784	0.409618
C37	C	0.917982	-0.178823	-0.090447
C38	C	1.417982	0.321177	0.409553
C39	C	0.917444	-0.180836	0.089594
C40	C	1.417444	0.319164	0.589594
C41	C	1.064415	-0.181752	0.090779
C42	C	1.564415	0.318248	0.590779
C43	C	1.731741	-0.126942	0.000044
C44	C	2.231741	0.373058	0.500044
C45	C	1.872659	-0.129607	0.000042
C46	C	2.372659	0.370393	0.500042
C47	C	1.490656	-0.295463	0.000030
C48	C	1.990656	0.204537	0.500030
C49	C	1.493310	-0.394775	0.000024
C50	C	1.993310	0.105225	0.500024
C51	C	1.620407	0.187377	0.000049
C52	C	2.120407	0.687377	0.500049
C53	C	1.617905	0.280691	0.000039
C54	C	2.117905	0.780691	0.500039
C55	C	1.501033	0.317422	0.000032
C56	C	2.001033	0.817422	0.500032
C57	C	1.386656	0.260834	0.000025
C58	C	1.886656	0.760834	0.500025
C59	C	1.389159	0.167522	0.000027
C60	C	1.889159	0.667522	0.500027
C61	C	1.381446	0.455325	0.000021
C62	C	1.881446	0.955325	0.500021
C63	C	1.378942	0.548644	0.000020
C64	C	1.878942	1.048644	0.500020
C65	C	1.610192	0.568495	0.000033
C66	C	2.110192	1.068495	0.500033
C67	C	1.612695	0.475183	0.000035
C68	C	2.112695	0.975183	0.500035
C69	C	1.498317	0.418601	0.000030
C70	C	1.998317	0.918601	0.500030
N71	N	1.499712	-0.131996	-0.246620
N72	N	1.999712	0.368004	0.253380
C73	C	1.585878	-0.071744	0.296521
C74	C	2.085878	0.428256	0.796521
C75	C	1.585887	-0.071744	0.396178
C76	C	2.085887	0.428256	0.896178
C77	C	1.499669	-0.131980	0.446010
C78	C	1.999669	0.368020	0.946010
C79	C	1.413429	-0.192215	0.396179
C80	C	1.913429	0.307785	0.896179
C81	C	1.413416	-0.192211	0.296524
C82	C	1.913416	0.307789	0.796524
C83	C	1.413466	-0.192222	0.603894
C84	C	1.913466	0.307778	1.103894
C85	C	1.413481	-0.192228	0.703556
C86	C	1.913481	0.307772	1.203556
C87	C	1.585937	-0.071755	0.703548
C88	C	2.085937	0.428245	1.203548
C89	C	1.585923	-0.071750	0.603892
C90	C	2.085923	0.428250	1.103892
C91	C	1.499684	-0.131987	0.554069
C92	C	1.999684	0.368013	1.054069
H93	H	1.134041	0.002680	0.064844
H94	H	1.634041	0.502680	0.564844
H95	H	1.105764	-0.146800	0.157662
H96	H	1.605764	0.353200	0.657662
H97	H	1.715578	0.157479	0.000060
H98	H	2.215578	0.657479	0.500060
C99	C	1.096052	-0.279658	0.098160
C100	C	1.596052	0.220342	0.598160
N101	N	1.119888	-0.353402	0.103717
N102	N	1.619888	0.146598	0.603717
C103	C	1.680796	-0.005491	0.758356
C104	C	2.180796	0.494509	1.258356
N105	N	1.752243	0.044416	0.799642
N106	N	2.252243	0.544416	1.299642
C107	C	1.736009	0.630736	0.000031
C108	C	2.236009	1.130736	0.500031
N109	N	1.830770	0.677621	0.000032
N110	N	2.330770	1.177621	0.500032
C111	C	0.906380	0.020797	0.087992
C112	C	1.406380	0.520797	0.587992
N113	N	0.877716	0.060763	0.153967
N114	N	1.377716	0.560763	0.653967
H115	H	1.656101	-0.022698	0.436744
H116	H	2.156101	0.477302	0.936744
H117	H	1.288307	0.409258	0.000014
H118	H	1.788307	0.909258	0.500014
C119	C	1.148004	0.016237	-0.087668
C120	C	1.648004	0.516237	0.412332
N121	N	1.190932	0.054804	-0.153731
N122	N	1.690932	0.554804	0.346269
C123	C	1.743720	0.342927	0.000059
C124	C	2.243720	0.842927	0.500059
N125	N	1.838489	0.389802	0.000079
N126	N	2.338489	0.889802	0.500079
H127	H	1.291496	0.290747	0.000013
H128	H	1.791496	0.790747	0.500013
H129	H	1.283775	0.578546	0.000029
H130	H	1.783775	1.078546	0.500029
H131	H	0.914668	0.006838	-0.064070
H132	H	1.414668	0.506838	0.435930
H133	H	1.296028	0.121454	0.000024
H134	H	1.796028	0.621454	0.500024
C135	C	1.122535	-0.137322	-0.181276
C136	C	1.622535	0.362678	0.318724
N137	N	1.166253	-0.103501	-0.249736
N138	N	1.666253	0.396499	0.250264
H139	H	1.656134	-0.022706	0.563319
H140	H	2.156134	0.477294	1.063319
H141	H	1.343237	-0.241270	0.563330
H142	H	1.843237	0.258730	1.063330
C143	C	0.880425	-0.131053	-0.181736
C144	C	1.380425	0.368947	0.318264
N145	N	0.852145	-0.095066	-0.250494
N146	N	1.352145	0.404934	0.249506
C147	C	1.318630	-0.258486	0.758370
C148	C	1.818630	0.241514	1.258370
N149	N	1.247185	-0.308391	0.799655
N150	N	1.747185	0.191609	1.299655
H151	H	1.656091	-0.022696	0.255954
H152	H	2.156091	0.477304	0.755954
H153	H	1.086013	-0.255218	-0.093749
H154	H	1.586013	0.244782	0.406251
H155	H	0.869402	-0.252638	0.090200
H156	H	1.369402	0.247362	0.590200
H157	H	1.343223	-0.241258	0.436758
H158	H	1.843223	0.258742	0.936758
H159	H	0.869202	-0.250316	-0.094555
H160	H	1.369202	0.249684	0.405445
C161	C	0.875319	-0.137364	0.182174
C162	C	1.375319	0.362636	0.682174
N163	N	0.843594	-0.104610	0.251900
N164	N	1.343594	0.395390	0.751900
H165	H	1.707862	0.445280	0.000048
H166	H	2.207862	0.945280	0.500048
H167	H	1.343196	-0.241257	0.255958
H168	H	1.843196	0.258743	0.755958
