data_functionalizedCrystal
_audit_creation_method	'MofGen! by Chris Wilmer'
_symmetry_space_group_name_H-M	'P1'
_symmetry_Int_Tables_number	1
_symmetry_cell_setting	triclinic
loop_
_symmetry_equiv_pos_as_xyz
  x,y,z
_cell_length_a	19.805407
_cell_length_b	18.101397
_cell_length_c	19.805399
_cell_angle_alpha	90.029325
_cell_angle_beta	90.019573
_cell_angle_gamma	90.020466
loop_
_atom_site_label
_atom_site_type_symbol
_atom_site_fract_x
_atom_site_fract_y
_atom_site_fract_z
Zn1	Zn	1.034764	-0.294847	0.382711
Zn2	Zn	1.368097	0.038487	0.716045
Zn3	Zn	1.701430	0.371820	1.049378
Zn4	Zn	1.034690	-0.418690	0.269520
Zn5	Zn	1.368024	-0.085357	0.602853
Zn6	Zn	1.701357	0.247976	0.936186
Zn7	Zn	0.921578	-0.294867	0.269536
Zn8	Zn	1.254912	0.038466	0.602869
Zn9	Zn	1.588245	0.371800	0.936203
Zn10	Zn	0.921554	-0.418651	0.382667
Zn11	Zn	1.254887	-0.085318	0.716000
Zn12	Zn	1.588220	0.248016	1.049333
O13	O	0.978146	-0.356764	0.326108
O14	O	1.311480	-0.023430	0.659442
O15	O	1.644813	0.309903	0.992775
O16	O	1.129470	-0.311283	0.367708
O17	O	1.462804	0.022051	0.701042
O18	O	1.796137	0.355384	1.034375
O19	O	1.019665	-0.402290	0.174805
O20	O	1.352999	-0.068957	0.508139
O21	O	1.686332	0.264377	0.841472
O22	O	0.936634	-0.191232	0.284575
O23	O	1.269967	0.142102	0.617908
O24	O	1.603300	0.475435	0.951241
O25	O	1.129417	-0.402270	0.284547
O26	O	1.462750	-0.068937	0.617880
O27	O	1.796083	0.264397	0.951214
O28	O	1.019790	-0.191217	0.367724
O29	O	1.353124	0.142117	0.701057
O30	O	1.686457	0.475450	1.034391
O31	O	0.936562	-0.311318	0.174817
O32	O	1.269896	0.022016	0.508151
O33	O	1.603229	0.355349	0.841484
O34	O	0.826858	-0.311279	0.284531
O35	O	1.160192	0.022054	0.617864
O36	O	1.493525	0.355387	0.951198
O37	O	0.936591	-0.402203	0.477389
O38	O	1.269925	-0.068870	0.810722
O39	O	1.603258	0.264464	1.144056
O40	O	0.826840	-0.402223	0.367648
O41	O	1.160174	-0.068890	0.700981
O42	O	1.493507	0.264444	1.034314
O43	O	1.019766	-0.311245	0.477422
O44	O	1.353100	0.022089	0.810755
O45	O	1.686433	0.355422	1.144089
O46	O	1.019641	-0.522318	0.284503
O47	O	1.352975	-0.188985	0.617837
O48	O	1.686308	0.144349	0.951170
O49	O	0.936520	-0.522289	0.367632
O50	O	1.269854	-0.188956	0.700965
O51	O	1.603187	0.144378	1.034298
C52	C	0.802290	-0.356750	0.326087
C53	C	1.135624	-0.023416	0.659420
C54	C	1.468957	0.309917	0.992753
C55	C	0.727058	-0.356761	0.326093
C56	C	1.060392	-0.023428	0.659427
C57	C	1.393725	0.309905	0.992760
C58	C	0.691722	-0.404187	0.369302
C59	C	1.025056	-0.070854	0.702635
C60	C	1.358389	0.262480	1.035969
C61	C	0.621034	-0.404188	0.369311
C62	C	0.954367	-0.070855	0.702645
C63	C	1.287701	0.262478	1.035978
C64	C	0.585683	-0.356767	0.326108
C65	C	0.919016	-0.023434	0.659442
C66	C	1.252349	0.309899	0.992775
C67	C	0.621024	-0.309336	0.282898
C68	C	0.954357	0.023997	0.616231
C69	C	1.287690	0.357330	0.949565
C70	C	0.691711	-0.309332	0.282892
C71	C	1.025044	0.024001	0.616226
C72	C	1.358377	0.357335	0.949559
C73	C	0.335950	-0.309353	0.282920
C74	C	0.669284	0.023981	0.616254
C75	C	1.002617	0.357314	0.949587
C76	C	0.265258	-0.309362	0.282928
C77	C	0.598592	0.023971	0.616261
C78	C	0.931925	0.357304	0.949594
C79	C	0.265274	-0.404209	0.369339
C80	C	0.598607	-0.070876	0.702673
C81	C	0.931940	0.262458	1.036006
C82	C	0.335961	-0.404205	0.369334
C83	C	0.669294	-0.070871	0.702667
C84	C	1.002627	0.262462	1.036001
C85	C	0.371295	-0.356771	0.326126
C86	C	0.704629	-0.023438	0.659459
C87	C	1.037962	0.309895	0.992793
C88	C	0.447944	-0.356770	0.326117
C89	C	0.781277	-0.023436	0.659451
C90	C	1.114611	0.309897	0.992784
C91	C	0.509036	-0.356772	0.326113
C92	C	0.842369	-0.023439	0.659447
C93	C	1.175702	0.309894	0.992780
C94	C	0.978088	-0.549174	0.326076
C95	C	1.311422	-0.215841	0.659409
C96	C	1.644755	0.117492	0.992742
C97	C	0.978126	-0.631488	0.326084
C98	C	1.311459	-0.298155	0.659418
C99	C	1.644792	0.035178	0.992751
C100	C	0.978212	-0.930579	0.326146
C101	C	1.311545	-0.597246	0.659479
C102	C	1.644879	-0.263913	0.992813
C103	C	1.030364	-0.899242	0.273704
C104	C	1.363697	-0.565908	0.607037
C105	C	1.697030	-0.232575	0.940370
C106	C	1.030544	-0.813623	0.273840
C107	C	1.363878	-0.480290	0.607173
C108	C	1.697211	-0.146956	0.940506
C109	C	0.978169	-0.782197	0.326115
C110	C	1.311503	-0.448864	0.659448
C111	C	1.644836	-0.115530	0.992781
C112	C	0.997504	-0.813206	0.397460
C113	C	1.330838	-0.479872	0.730793
C114	C	1.664171	-0.146539	1.064126
C115	C	0.997908	-0.898851	0.397174
C116	C	1.331241	-0.565517	0.730507
C117	C	1.664575	-0.232184	1.063841
C118	C	0.906586	-0.899088	0.307861
C119	C	1.239919	-0.565755	0.641194
C120	C	1.573253	-0.232421	0.974528
C121	C	0.906940	-0.813438	0.306268
C122	C	1.240273	-0.480105	0.639602
C123	C	1.573606	-0.146772	0.972935
C124	C	0.978144	-0.698337	0.326101
C125	C	1.311477	-0.365004	0.659435
C126	C	1.644811	-0.031671	0.992768
C127	C	0.978239	-1.014439	0.326164
C128	C	1.311572	-0.681105	0.659497
C129	C	1.644906	-0.347772	0.992831
C130	C	1.154689	-0.356779	0.326131
C131	C	1.488022	-0.023445	0.659464
C132	C	1.821356	0.309888	0.992797
C133	C	1.229921	-0.356785	0.326140
C134	C	1.563254	-0.023452	0.659474
C135	C	1.896588	0.309882	0.992807
C136	C	0.978184	-0.356717	0.502651
C137	C	1.311518	-0.023384	0.835985
C138	C	1.644851	0.309950	1.169318
C139	C	0.978201	-0.356697	0.577883
C140	C	1.311534	-0.023364	0.911217
C141	C	1.644867	0.309969	1.244550
C142	C	0.978223	-0.163602	0.326156
C143	C	1.311556	0.169731	0.659490
C144	C	1.644890	0.503065	0.992823
C145	C	0.978256	-0.081288	0.326177
C146	C	1.311589	0.252046	0.659510
C147	C	1.644922	0.585379	0.992843
C148	C	0.978148	-0.356757	0.150252
C149	C	1.311481	-0.023423	0.483586
C150	C	1.644814	0.309910	0.816919
C151	C	0.978263	-0.356568	0.075021
C152	C	1.311596	-0.023235	0.408354
C153	C	1.644929	0.310099	0.741688
C154	C	1.021511	-0.309333	0.613246
C155	C	1.354844	0.024000	0.946579
C156	C	1.688177	0.357334	1.279912
C157	C	1.021518	-0.309311	0.683934
C158	C	1.354851	0.024022	1.017268
C159	C	1.688184	0.357355	1.350601
C160	C	0.978217	-0.356659	0.719259
C161	C	1.311551	-0.023325	1.052592
C162	C	1.644884	0.310008	1.385926
C163	C	0.934902	-0.404025	0.683892
C164	C	1.268236	-0.070692	1.017225
C165	C	1.601569	0.262642	1.350558
C166	C	0.934893	-0.404042	0.613204
C167	C	1.268226	-0.070709	0.946538
C168	C	1.601559	0.262624	1.279871
C169	C	0.934941	-0.403956	0.968965
C170	C	1.268274	-0.070623	1.302298
C171	C	1.601607	0.262711	1.635632
C172	C	0.934955	-0.403937	1.039657
C173	C	1.268289	-0.070603	1.372990
C174	C	1.601622	0.262730	1.706324
C175	C	1.021566	-0.309225	1.039695
C176	C	1.354899	0.024108	1.373028
C177	C	1.688232	0.357442	1.706361
C178	C	1.021556	-0.309242	0.969008
C179	C	1.354889	0.024091	1.302341
C180	C	1.688223	0.357424	1.635674
C181	C	0.978239	-0.356606	0.933646
C182	C	1.311572	-0.023272	1.266980
C183	C	1.644905	0.310061	1.600313
C184	C	0.978231	-0.356627	0.856998
C185	C	1.311564	-0.023294	1.190331
C186	C	1.644897	0.310039	1.523665
C187	C	0.978228	-0.356641	0.795906
C188	C	1.311562	-0.023308	1.129239
C189	C	1.644895	0.310026	1.462573
H190	H	0.720480	-0.270709	0.247711
H191	H	1.053814	0.062624	0.581044
H192	H	1.387147	0.395957	0.914377
F193	F	0.887879	-0.786954	0.237643
F194	F	1.221213	-0.453621	0.570977
F195	F	1.554546	-0.120288	0.904310
H196	H	0.720500	-0.442805	0.404481
H197	H	1.053834	-0.109472	0.737814
H198	H	1.387167	0.223861	1.071147
F199	F	0.888866	-0.454332	1.077251
F200	F	1.222200	-0.120999	1.410584
F201	F	1.555533	0.212334	1.743918
H202	H	1.083130	-0.920710	0.285663
H203	H	1.416464	-0.587377	0.618996
H204	H	1.749797	-0.254043	0.952330
H205	H	1.056834	-0.270657	1.068494
H206	H	1.390168	0.062676	1.401828
H207	H	1.723501	0.396010	1.735161
F208	F	1.065171	-0.785097	0.418048
F209	F	1.398504	-0.451763	0.751382
F210	F	1.731837	-0.118430	1.084715
F211	F	1.014698	-0.786221	0.204702
F212	F	1.348031	-0.452887	0.538036
F213	F	1.681365	-0.119554	0.871369
F214	F	0.583430	-0.454665	0.415300
F215	F	0.916763	-0.121331	0.748634
F216	F	1.250097	0.212002	1.081967
F217	F	0.227662	-0.454692	0.415326
F218	F	0.560996	-0.121358	0.748659
F219	F	0.894329	0.211975	1.081993
F220	F	0.373547	-0.258868	0.236936
F221	F	0.706881	0.074465	0.570270
F222	F	1.040214	0.407798	0.903603
H223	H	0.364740	-0.442822	0.404512
H224	H	0.698074	-0.109489	0.737845
H225	H	1.031407	0.223844	1.071179
H226	H	1.056818	-0.270690	0.940250
H227	H	1.390151	0.062643	1.273583
H228	H	1.723484	0.395977	1.606916
H229	H	0.899644	-0.442573	0.712659
H230	H	1.232977	-0.109240	1.045992
H231	H	1.566311	0.224093	1.379325
F232	F	0.227636	-0.258887	0.236944
F233	F	0.560970	0.074446	0.570277
F234	F	0.894303	0.407780	0.903610
F235	F	0.583398	-0.258862	0.236922
F236	F	0.916732	0.074471	0.570255
F237	F	1.250065	0.407804	0.903589
H238	H	0.899618	-0.442604	0.584413
H239	H	1.232951	-0.109270	0.917746
H240	H	1.566285	0.224063	1.251080
H241	H	0.888996	-0.920747	0.256738
H242	H	1.222329	-0.587414	0.590072
H243	H	1.555663	-0.254081	0.923405
H244	H	0.899679	-0.442533	0.940182
H245	H	1.233012	-0.109200	1.273516
H246	H	1.566346	0.224134	1.606849
H247	H	1.083601	-0.793080	0.285938
H248	H	1.416934	-0.459746	0.619271
H249	H	1.750268	-0.126413	0.952605
H250	H	1.018413	-0.919883	0.220644
H251	H	1.351747	-0.586550	0.553977
H252	H	1.685080	-0.253217	0.887311
F253	F	0.853417	-0.785488	0.352537
F254	F	1.186750	-0.452155	0.685870
F255	F	1.520084	-0.118821	1.019204
H256	H	1.050263	-0.918770	0.412663
H257	H	1.383597	-0.585437	0.745996
H258	H	1.716930	-0.252103	1.079329
F259	F	0.950409	-0.925946	0.449982
F260	F	1.283743	-0.592612	0.783315
F261	F	1.617076	-0.259279	1.116649
H262	H	0.960681	-0.792847	0.437584
H263	H	1.294014	-0.459514	0.770917
H264	H	1.627348	-0.126181	1.104251
F265	F	0.855797	-0.925579	0.357784
F266	F	1.189130	-0.592246	0.691117
F267	F	1.522463	-0.258912	1.024450
F268	F	1.067601	-0.258942	0.575657
F269	F	1.400934	0.074391	0.908990
F270	F	1.734268	0.407724	1.242323
F271	F	1.067638	-0.258925	0.721566
F272	F	1.400971	0.074408	1.054900
F273	F	1.734304	0.407742	1.388233
