data_functionalizedCrystal
_audit_creation_method	'MofGen! by Chris Wilmer'
_symmetry_space_group_name_H-M	'P1'
_symmetry_Int_Tables_number	1
_symmetry_cell_setting	triclinic
loop_
_symmetry_equiv_pos_as_xyz
  x,y,z
_cell_length_a	11.169417
_cell_length_b	18.101396
_cell_length_c	18.101389
_cell_angle_alpha	90.016209
_cell_angle_beta	89.984656
_cell_angle_gamma	89.961727
loop_
_atom_site_label
_atom_site_type_symbol
_atom_site_fract_x
_atom_site_fract_y
_atom_site_fract_z
Zn1	Zn	1.834690	0.294883	-0.418673
Zn2	Zn	1.834501	0.418708	-0.294836
Zn3	Zn	1.633991	0.294888	-0.294853
Zn4	Zn	1.633890	0.418690	-0.418644
O5	O	1.734268	0.356792	-0.356751
O6	O	2.002615	0.311314	-0.402250
O7	O	1.807866	0.402293	-0.191205
O8	O	1.660735	0.191254	-0.311297
O9	O	2.002476	0.402288	-0.311268
O10	O	1.808188	0.191250	-0.402267
O11	O	1.660552	0.311323	-0.191218
O12	O	1.466028	0.311305	-0.311269
O13	O	1.660564	0.402256	-0.522281
O14	O	1.465954	0.402261	-0.402218
O15	O	1.808091	0.311296	-0.522302
O16	O	1.807768	0.522339	-0.311240
O17	O	1.660380	0.522325	-0.402201
C18	C	1.422443	0.356782	-0.356743
C19	C	1.289043	0.356796	-0.356757
C20	C	1.734075	0.549203	-0.356732
C21	C	1.734103	0.631517	-0.356748
C22	C	1.734316	0.930608	-0.356791
C23	C	1.641804	0.899305	-0.414163
C24	C	1.641378	0.813687	-0.413983
C25	C	1.734210	0.782225	-0.356770
C26	C	1.699962	0.813363	-0.278723
C27	C	1.699352	0.899008	-0.279067
C28	C	1.861283	0.898953	-0.376780
C29	C	1.860551	0.813303	-0.378490
C30	C	1.734152	0.698366	-0.356754
C31	C	1.734371	1.014467	-0.356803
C32	C	2.047310	0.356803	-0.356760
C33	C	2.180710	0.356807	-0.356764
C34	C	1.734337	0.356773	-0.549913
C35	C	1.734367	0.356765	-0.632228
C36	C	1.734452	1.163630	-0.356790
C37	C	1.734423	1.081316	-0.356814
C38	C	1.734437	0.356627	-0.931319
C39	C	1.641297	0.413674	-0.899980
C40	C	1.641549	0.413939	-0.814362
C41	C	1.734401	0.356695	-0.782936
C42	C	1.860847	0.377878	-0.814030
C43	C	1.860328	0.378252	-0.899675
C44	C	1.702230	0.278269	-0.899743
C45	C	1.699416	0.278722	-0.814092
C46	C	1.734389	0.356733	-0.699076
C47	C	1.734458	0.356591	-1.015178
C48	C	1.734268	0.356757	-0.164341
C49	C	1.734471	0.356557	-0.082027
H50	H	1.662806	0.792633	-0.471855
H51	H	1.892499	0.920511	-0.432722
F52	F	1.579942	0.785413	-0.256192
F53	F	1.781626	0.220217	-0.786140
H54	H	1.663011	0.919863	-0.472223
F55	F	1.894311	0.786701	-0.453567
F56	F	1.518365	0.396524	-0.926891
F57	F	1.785271	0.786728	-0.221324
H58	H	1.933131	0.791882	-0.339749
F59	F	1.519544	0.927531	-0.397089
H60	H	1.547274	0.793262	-0.400743
F61	F	1.577783	0.257845	-0.787537
H62	H	1.606540	0.919049	-0.262134
H63	H	1.662348	0.471401	-0.921506
F64	F	1.790899	0.222714	-0.926233
F65	F	1.951379	0.925422	-0.322171
H66	H	1.763811	0.919716	-0.234863
H67	H	1.662811	0.472020	-0.793880
F68	F	1.518993	0.396610	-0.786880
F69	F	1.896016	0.453121	-0.925797
F70	F	1.954056	0.326267	-0.926776
F71	F	1.953991	0.325275	-0.787428
H72	H	1.888625	0.434549	-0.792588
F73	F	1.583806	0.253044	-0.927965
