data_functionalizedCrystal
_audit_creation_method	'MofGen! by Chris Wilmer'
_symmetry_space_group_name_H-M	'P1'
_symmetry_Int_Tables_number	1
_symmetry_cell_setting	triclinic
loop_
_symmetry_equiv_pos_as_xyz
  x,y,z
_cell_length_a	11.792241
_cell_length_b	16.992695
_cell_length_c	15.455301
_cell_angle_alpha	92.826871
_cell_angle_beta	92.979613
_cell_angle_gamma	87.430819
loop_
_atom_site_label
_atom_site_type_symbol
_atom_site_fract_x
_atom_site_fract_y
_atom_site_fract_z
O1	O	-1.520412	-0.110591	-0.072047
O2	O	-1.190979	-0.121673	-0.072068
O3	O	-1.354374	-0.001983	-0.072051
O4	O	-1.357016	-0.230281	-0.072064
O5	O	-1.344930	0.004187	0.072212
O6	O	-1.181534	-0.115502	0.072195
O7	O	-1.510968	-0.104421	0.072215
Cu8	Cu	-1.345389	-0.109399	0.085377
Cu9	Cu	-1.356558	-0.116695	-0.085230
O10	O	-1.347572	-0.224110	0.072198
C11	C	-1.143909	-0.117892	0.000061
C12	C	-1.017725	-0.115809	0.000053
C13	C	-1.346254	0.030329	0.000080
C14	C	-1.336116	0.117416	0.000079
C15	C	-1.558038	-0.108202	0.000084
C16	C	-1.684222	-0.110286	0.000086
C17	C	-0.786698	-0.111977	0.000078
C18	C	-0.915258	-0.114106	0.000065
C19	C	-1.355692	-0.256423	0.000065
C20	C	-1.365830	-0.343510	0.000060
N21	N	-1.337541	-0.104266	0.205373
C22	C	-1.433934	0.167241	0.000086
C23	C	-1.424402	0.249067	0.000077
C24	C	-1.317051	0.281068	0.000068
C25	C	-1.219227	0.231237	0.000058
C26	C	-1.228760	0.149411	0.000061
C27	C	-1.277539	0.524833	0.000053
C28	C	-1.268013	0.606665	0.000053
C29	C	-1.473189	0.624490	0.000071
C30	C	-1.482713	0.542663	0.000079
C31	C	-1.384889	0.492838	0.000065
N32	N	-1.307305	0.364708	0.000062
N33	N	-1.394636	0.409200	0.000065
N34	N	-1.364414	-0.121822	-0.205226
C35	C	-1.407750	-0.150222	0.250765
C36	C	-1.401830	-0.146335	0.341573
C37	C	-1.325695	-0.096496	0.386987
C38	C	-1.255483	-0.050536	0.341589
C39	C	-1.261410	-0.054418	0.250783
C40	C	-1.300129	-0.079744	0.658570
C41	C	-1.294205	-0.075866	0.749382
C42	C	-1.440554	-0.171665	0.749360
C43	C	-1.446469	-0.175547	0.658552
C44	C	-1.376262	-0.129583	0.613161
N45	N	-1.319639	-0.092524	0.479808
N46	N	-1.382324	-0.133551	0.520343
H47	H	-1.504055	0.289632	0.000085
O48	O	-1.516281	-0.221225	0.798325
H49	H	-1.498394	-0.284553	0.780902
H50	H	-1.242961	-0.042316	0.621624
O51	O	-1.212089	-0.022107	0.798371
H52	H	-1.164271	0.009208	0.751554
O53	O	-1.172028	0.471104	0.000042
H54	H	-1.196684	0.408828	0.000034
H55	H	-1.131820	0.257297	0.000045
H56	H	-1.459003	-0.183756	0.378527
O57	O	-1.598499	0.508146	0.000068
H58	H	-1.664920	0.556540	0.000058
O59	O	-1.173375	0.003230	0.390564
H60	H	-1.085311	-0.014150	0.373132
H61	H	-1.204238	-0.016997	0.213826
O62	O	-1.528589	-0.229299	0.609570
H63	H	-1.480669	-0.272974	0.568206
O64	O	-1.549724	0.132731	0.000087
H65	H	-1.593246	0.155235	0.058882
O66	O	-1.578698	0.678227	0.000080
H67	H	-1.554040	0.740501	0.000071
O68	O	-1.152224	0.641184	0.000033
H69	H	-1.085801	0.592792	0.000014
H70	H	-1.469740	-0.190810	0.213795
O71	O	-1.123258	0.095665	0.000063
H72	H	-1.047007	0.131663	0.000066
