data_functionalizedCrystal
_audit_creation_method	'MofGen! by Chris Wilmer'
_symmetry_space_group_name_H-M	'P1'
_symmetry_Int_Tables_number	1
_symmetry_cell_setting	triclinic
loop_
_symmetry_equiv_pos_as_xyz
  x,y,z
_cell_length_a	18.101398
_cell_length_b	19.121063
_cell_length_c	18.101389
_cell_angle_alpha	87.580609
_cell_angle_beta	90.024327
_cell_angle_gamma	92.464489
loop_
_atom_site_label
_atom_site_type_symbol
_atom_site_fract_x
_atom_site_fract_y
_atom_site_fract_z
Zn1	Zn	1.119554	-0.279777	0.431404
Zn2	Zn	1.114175	-0.397213	0.312837
Zn3	Zn	0.995713	-0.279770	0.307565
Zn4	Zn	0.990390	-0.397183	0.436624
O5	O	1.054958	-0.338486	0.372107
O6	O	1.222473	-0.295371	0.415698
O7	O	1.098437	-0.381644	0.208505
O8	O	1.016620	-0.181486	0.319601
O9	O	1.218521	-0.381651	0.328587
O10	O	1.107605	-0.181491	0.410586
O11	O	1.011404	-0.295359	0.204632
O12	O	0.891375	-0.295330	0.324663
O13	O	1.007547	-0.381599	0.539564
O14	O	0.887464	-0.381592	0.419482
O15	O	1.102443	-0.295342	0.535729
O16	O	1.093276	-0.495494	0.333648
O17	O	1.002331	-0.495472	0.424594
C18	C	0.862549	-0.338457	0.372067
C19	C	0.780234	-0.338462	0.372069
C20	C	0.481141	-0.338506	0.372133
C21	C	0.514915	-0.283961	0.312742
C22	C	0.600526	-0.284107	0.312506
C23	C	0.629525	-0.338484	0.372101
C24	C	0.595084	-0.412466	0.354099
C25	C	0.509452	-0.412163	0.353690
C26	C	0.513600	-0.319712	0.449688
C27	C	0.599325	-0.318065	0.449186
C28	C	0.713385	-0.338476	0.372084
C29	C	0.397281	-0.338519	0.372148
C30	C	1.046662	-0.520967	0.380276
C31	C	1.043181	-0.599034	0.383795
C32	C	1.088932	-0.635698	0.338137
C33	C	1.085662	-0.709049	0.341451
C34	C	1.036637	-0.745735	0.390420
C35	C	0.990884	-0.709066	0.436083
C36	C	0.994158	-0.635716	0.432772
C37	C	1.024385	-0.967206	0.402788
C38	C	1.021113	-1.040562	0.406094
C39	C	1.115892	-1.040539	0.311462
C40	C	1.119159	-0.967188	0.308152
C41	C	1.073408	-0.930525	0.353818
C42	C	1.033292	-0.820713	0.393807
C43	C	1.076758	-0.855549	0.350434
C44	C	1.248119	-0.338515	0.372148
C45	C	1.330432	-0.338528	0.372165
C46	C	1.055002	-0.338468	0.565269
C47	C	1.055020	-0.338461	0.647582
C48	C	1.063306	-0.155292	0.363923
C49	C	1.066864	-0.077226	0.360436
C50	C	1.054959	-0.338453	0.179695
C51	C	1.055093	-0.338263	0.097373
C52	C	1.055069	-0.338329	0.946668
C53	C	0.995174	-0.392427	0.917747
C54	C	0.995318	-0.392678	0.832140
C55	C	1.055044	-0.338394	0.798288
C56	C	1.132167	-0.358491	0.830296
C57	C	1.131831	-0.358846	0.915957
C58	C	1.038526	-0.264013	0.911754
C59	C	1.036771	-0.264443	0.826122
C60	C	1.055035	-0.338430	0.714430
C61	C	1.055084	-0.338295	1.030526
H62	H	0.496816	-0.228932	0.323490
H63	H	0.993375	-0.850591	0.433677
O64	O	0.485647	-0.300213	0.236962
H65	H	0.532471	-0.310853	0.200092
O66	O	1.141821	-0.596130	0.285331
H67	H	1.110196	-0.562752	0.246105
O68	O	0.626875	-0.300537	0.236283
H69	H	0.603738	-0.352825	0.221601
O70	O	0.481987	-0.433266	0.278719
H71	H	0.529871	-0.443588	0.243096
H72	H	0.956904	-0.605865	0.469953
O73	O	0.619570	-0.467747	0.409793
H74	H	0.680746	-0.469737	0.408495
O75	O	1.096358	-0.210617	0.936214
H76	H	1.136693	-0.236835	0.973056
O77	O	0.965558	-0.239762	0.939253
H78	H	0.955170	-0.187260	0.913838
H79	H	0.619076	-0.354899	0.495539
H80	H	0.622115	-0.263622	0.462821
O81	O	0.631671	-0.211434	0.326922
H82	H	0.585579	-0.175867	0.334125
O83	O	0.937997	-0.748630	0.488894
H84	H	0.943397	-0.805795	0.483518
H85	H	1.077478	-0.221996	0.802832
O86	O	0.919430	-0.376016	0.803518
H87	H	0.923509	-0.327775	0.767178
H88	H	1.153140	-1.070398	0.274285
H89	H	0.615770	-0.428682	0.298133
H90	H	0.491559	-0.359441	0.493899
O91	O	0.975040	-0.927661	0.452030
H92	H	0.938881	-0.894281	0.417334
O93	O	0.968239	-1.080135	0.458918
H94	H	0.936982	-1.042319	0.490122
H95	H	0.980032	-0.249287	0.805110
H96	H	1.116677	-0.825677	0.310566
O97	O	0.919036	-0.375941	0.944262
H98	H	0.923068	-0.329016	0.978341
O99	O	0.488193	-0.249493	0.472219
H100	H	0.426910	-0.251186	0.475507
O101	O	1.135003	-0.748597	0.292202
H102	H	1.169635	-0.710763	0.257587
O103	O	1.009097	-0.464945	0.949545
H104	H	1.058496	-0.462627	0.985850
H105	H	1.159079	-0.937319	0.268278
O106	O	1.009330	-0.465662	0.808276
H107	H	1.016053	-0.500910	0.857906
O108	O	1.150911	-0.430807	0.945669
H109	H	1.160288	-0.465027	0.898840
H110	H	1.177791	-0.321154	0.935005
H111	H	1.146898	-0.412240	0.811268
O112	O	0.479494	-0.467811	0.408731
H113	H	0.526176	-0.494824	0.435517
O114	O	1.192685	-0.307953	0.801069
H115	H	1.168378	-0.267880	0.763327
