data_functionalizedCrystal
_audit_creation_method	'MofGen! by Chris Wilmer'
_symmetry_space_group_name_H-M	'P1'
_symmetry_Int_Tables_number	1
_symmetry_cell_setting	triclinic
loop_
_symmetry_equiv_pos_as_xyz
  x,y,z
_cell_length_a	12.759395
_cell_length_b	18.050589
_cell_length_c	12.759387
_cell_angle_alpha	90.029987
_cell_angle_beta	90.020509
_cell_angle_gamma	90.029758
loop_
_atom_site_label
_atom_site_type_symbol
_atom_site_fract_x
_atom_site_fract_y
_atom_site_fract_z
Zn1	Zn	1.606170	-0.295590	0.594011
Zn2	Zn	1.606019	-0.419799	0.418334
Zn3	Zn	1.430468	-0.295630	0.418348
Zn4	Zn	1.430419	-0.419746	0.593973
O5	O	1.518269	-0.357691	0.506166
O6	O	1.753171	-0.312072	0.570717
O7	O	1.582689	-0.403367	0.271315
O8	O	1.453859	-0.191700	0.441672
O9	O	1.753060	-0.403327	0.441648
O10	O	1.582946	-0.191671	0.570731
O11	O	1.453713	-0.312141	0.271325
O12	O	1.283441	-0.312089	0.441635
O13	O	1.453775	-0.403237	0.740999
O14	O	1.283405	-0.403277	0.570666
O15	O	1.582899	-0.312020	0.741027
O16	O	1.582642	-0.523716	0.441611
O17	O	1.453629	-0.523677	0.570652
C18	C	1.245302	-0.357682	0.506148
C19	C	1.128525	-0.357696	0.506166
C20	C	1.518142	-0.550643	0.506149
C21	C	1.518184	-0.633189	0.506177
C22	C	1.128526	-0.452803	0.640308
C23	C	1.073666	-0.500362	0.707383
C24	C	0.963944	-0.500371	0.707395
C25	C	0.909080	-0.452814	0.640329
C26	C	0.963940	-0.405255	0.573255
C27	C	1.073665	-0.405253	0.573247
C28	C	0.963939	-0.310146	0.439119
C29	C	1.073661	-0.310139	0.439099
C30	C	0.909076	-0.262589	0.372052
C31	C	0.963936	-0.215032	0.304971
C32	C	1.073664	-0.215026	0.304960
C33	C	1.128521	-0.262580	0.372025
C34	C	1.448096	-0.832646	0.576325
C35	C	1.422480	-0.882094	0.480456
C36	C	1.518287	-0.784319	0.506190
C37	C	1.543955	-0.881953	0.602070
C38	C	1.518385	-0.930304	0.506212
C39	C	1.492621	-0.832681	0.410271
C40	C	1.614141	-0.832535	0.531950
C41	C	1.588561	-0.881961	0.436015
C42	C	1.518228	-0.700221	0.506179
C43	C	1.518444	-1.014401	0.506212
C44	C	1.792302	-0.357701	0.506185
C45	C	1.909079	-0.357705	0.506193
C46	C	1.518348	-0.357618	0.780200
C47	C	1.518382	-0.357587	0.896977
C48	C	1.518425	-0.163986	0.506207
C49	C	1.518492	-0.081440	0.506224
C50	C	1.518251	-0.357710	0.233199
C51	C	1.518420	-0.357532	0.116423
C52	C	1.652848	-0.262609	0.897026
C53	C	1.720095	-0.215109	0.951911
C54	C	1.720121	-0.215082	1.061633
C55	C	1.652889	-0.262559	1.116472
C56	C	1.585642	-0.310059	1.061586
C57	C	1.585626	-0.310082	0.951862
C58	C	1.451173	-0.405032	1.061538
C59	C	1.451151	-0.405064	0.951816
C60	C	1.383942	-0.452509	1.116376
C61	C	1.316698	-0.500013	1.061491
C62	C	1.316676	-0.500039	0.951763
C63	C	1.383904	-0.452564	0.896931
H64	H	1.217867	-0.452806	0.640297
H65	H	1.261904	-0.538712	0.907082
F66	F	1.383891	-0.452591	0.780155
F67	F	0.792300	-0.262595	0.372074
F68	F	1.666204	-0.910086	0.358418
H69	H	1.383963	-0.452480	1.205718
F70	F	1.720009	-0.804061	0.560461
H71	H	1.341466	-0.903879	0.458688
H72	H	1.261958	-0.538661	1.106150
H73	H	1.118348	-0.539081	0.761988
H74	H	0.919257	-0.176312	0.250376
H75	H	0.819739	-0.452819	0.640355
H76	H	0.919277	-0.539094	0.762019
F77	F	1.245297	-0.262580	0.372014
F78	F	1.370400	-0.804340	0.653739
F79	F	1.132042	-0.164402	0.233574
H80	H	1.470856	-0.811126	0.329173
F81	F	1.652839	-0.262643	0.780250
H82	H	1.565626	-0.903596	0.683146
F83	F	1.791624	-0.164570	0.893541
F84	F	1.791678	-0.164518	1.120047
F85	F	1.652911	-0.262521	1.233247
