data_functionalizedCrystal
_audit_creation_method	'MofGen! by Chris Wilmer'
_symmetry_space_group_name_H-M	'P1'
_symmetry_Int_Tables_number	1
_symmetry_cell_setting	triclinic
loop_
_symmetry_equiv_pos_as_xyz
  x,y,z
_cell_length_a	15.944493
_cell_length_b	19.188925
_cell_length_c	14.421503
_cell_angle_alpha	90.004633
_cell_angle_beta	89.992936
_cell_angle_gamma	83.308796
loop_
_atom_site_label
_atom_site_type_symbol
_atom_site_fract_x
_atom_site_fract_y
_atom_site_fract_z
O1	O	1.114221	0.089846	-0.077099
O2	O	0.869623	0.100990	-0.077103
O3	O	0.998983	-0.006221	-0.077095
O4	O	0.984861	0.197057	-0.077106
O5	O	0.998962	-0.006205	0.077128
O6	O	0.869602	0.101006	0.077120
O7	O	1.114200	0.089862	0.077125
Cu8	Cu	0.991899	0.095435	0.091204
Cu9	Cu	0.991924	0.095416	-0.091183
O10	O	0.984840	0.197073	0.077117
C11	C	0.838319	0.100543	0.000008
C12	C	0.745076	0.099177	0.000006
C13	C	0.509078	0.162284	0.000002
C14	C	0.458638	0.128261	0.076049
C15	C	0.574364	0.096647	0.000008
C16	C	0.458663	0.128229	-0.076004
C17	C	0.409464	0.094207	0.000006
C18	C	0.525152	0.062641	0.076117
C19	C	0.525181	0.062619	-0.076003
C20	C	0.474773	0.028548	0.000061
C21	C	0.669359	0.098054	0.000010
C22	C	0.314472	0.092795	0.000011
C23	C	0.998516	-0.032225	0.000016
C24	C	0.997145	-0.109733	0.000014
C25	C	1.063873	-0.671342	-0.000009
C26	C	1.065168	-0.598516	-0.000000
C27	C	0.989263	-0.553765	-0.000002
C28	C	0.912058	-0.581845	0.000012
C29	C	0.910765	-0.654670	0.000013
N30	N	0.934319	-0.433222	-0.052496
N31	N	0.935552	-0.364042	-0.052499
C32	C	0.993154	-0.334346	-0.000002
N33	N	1.049489	-0.376446	0.052486
N34	N	1.048258	-0.445633	0.052484
C35	C	0.990657	-0.474797	-0.000002
C36	C	1.071759	-0.227308	-0.000000
C37	C	1.073051	-0.154480	0.000014
C38	C	0.919939	-0.137810	0.000017
C39	C	0.918649	-0.210637	0.000012
C40	C	0.994561	-0.255381	-0.000001
C41	C	1.145504	0.090309	0.000012
C42	C	1.238747	0.091675	0.000007
C43	C	0.985307	0.223077	0.000004
C44	C	0.986678	0.300585	-0.000000
N45	N	0.991887	0.095448	0.219486
N46	N	0.991943	0.095398	-0.219464
C47	C	0.932061	0.145000	0.469136
C48	C	1.007912	0.158542	0.530939
C49	C	0.991908	0.095431	0.408647
C50	C	0.916076	0.081906	0.530938
C51	C	0.991921	0.095417	0.591369
C52	C	1.067797	0.109005	0.469090
C53	C	0.975911	0.032341	0.469083
C54	C	1.051817	0.045856	0.530858
C55	C	0.991899	0.095442	0.303386
C56	C	0.991938	0.095406	0.696627
H57	H	0.429629	0.155956	-0.140286
C58	C	1.144184	0.185615	0.378611
C59	C	1.154390	0.124574	0.432611
H60	H	1.197640	0.195243	0.356104
H61	H	1.108038	0.179141	0.327760
H62	H	1.119963	0.223862	0.415355
H63	H	1.178605	0.086326	0.395865
H64	H	1.190549	0.131044	0.483469
H65	H	0.554075	0.034945	0.140472
C66	C	0.529410	-0.093459	0.000923
C67	C	0.454181	-0.047835	0.000129
H68	H	0.516696	-0.140614	0.000976
H69	H	0.561674	-0.085501	-0.052608
H70	H	0.560874	-0.085211	0.054951
H71	H	0.422720	-0.056080	-0.053903
H72	H	0.421904	-0.055797	0.053665
C73	C	0.805454	0.169951	0.379116
C74	C	0.863808	0.201629	0.432538
H75	H	0.763319	0.204913	0.356527
H76	H	0.833673	0.145986	0.328323
H77	H	0.779783	0.137480	0.416276
H78	H	0.889484	0.234097	0.395377
H79	H	0.835585	0.225606	0.483339
H80	H	1.102489	0.003929	0.557789
C81	C	1.163328	-0.082255	-0.079272
C82	C	1.157910	-0.123619	0.000005
H83	H	1.215715	-0.063200	-0.079273
H84	H	1.159645	-0.110321	-0.133044
H85	H	1.118302	-0.045184	-0.079253
H86	H	1.202932	-0.160693	-0.000018
H87	H	1.161601	-0.095552	0.053791
C88	C	1.215345	-0.680499	-0.000006
C89	C	1.147314	-0.720525	-0.000006
H90	H	1.266858	-0.710865	0.000004
H91	H	1.212672	-0.651757	-0.053787
H92	H	1.212650	-0.651739	0.053776
H93	H	1.150006	-0.749282	-0.053792
H94	H	1.149989	-0.749279	0.053780
C95	C	1.100025	0.222384	0.621030
C96	C	1.026192	0.230555	0.567633
H97	H	1.111306	0.266844	0.643677
H98	H	1.092883	0.192088	0.671783
H99	H	1.145962	0.202690	0.583834
H100	H	0.980254	0.250245	0.604831
H101	H	1.033329	0.260863	0.516873
C102	C	1.155431	-0.526285	-0.079300
C103	C	1.150023	-0.567643	-0.000017
H104	H	1.207815	-0.507223	-0.079307
H105	H	1.151751	-0.554355	-0.133068
H106	H	1.110400	-0.489218	-0.079284
H107	H	1.195051	-0.604713	-0.000037
H108	H	1.153712	-0.539571	0.053765
H109	H	0.850256	-0.545404	0.000013
C110	C	0.878107	-0.053702	0.463528
C111	C	0.957599	-0.039651	0.432363
H112	H	0.866794	-0.098145	0.440851
H113	H	0.877467	-0.054105	0.529383
H114	H	0.836147	-0.018389	0.441470
H115	H	0.999560	-0.074962	0.454426
H116	H	0.958246	-0.039254	0.366495
C117	C	0.496133	0.272828	0.079828
C118	C	0.529901	0.238604	0.000096
H119	H	0.508995	0.319942	0.079890
H120	H	0.436616	0.272471	0.080375
H121	H	0.519898	0.249287	0.133292
H122	H	0.506131	0.262143	-0.053369
H123	H	0.589430	0.238965	-0.000460
H124	H	0.554240	0.034914	-0.140294
H125	H	0.847902	-0.677525	0.000022
C126	C	0.830661	0.065999	0.664695
C127	C	0.829498	0.066466	0.567611
H128	H	0.777207	0.056475	0.687330
H129	H	0.873109	0.030735	0.685821
H130	H	0.842441	0.110476	0.686773
H131	H	0.817723	0.021987	0.545532
H132	H	0.787036	0.101732	0.546476
C133	C	0.331946	0.163432	0.162307
C134	C	0.419405	0.165691	0.162825
H135	H	0.307728	0.186541	0.215878
H136	H	0.308308	0.186271	0.108310
H137	H	0.320488	0.115947	0.162397
H138	H	0.430863	0.213176	0.162728
H139	H	0.443051	0.142853	0.216837
H140	H	1.133571	-0.263741	-0.000010
H141	H	0.855789	-0.233493	0.000012
C142	C	0.853936	-0.018776	0.000007
C143	C	0.836502	-0.088627	0.000011
H144	H	0.802423	0.011588	-0.000000
H145	H	0.885588	-0.010266	0.053786
H146	H	0.885611	-0.010278	-0.053777
H147	H	0.804832	-0.097127	0.053798
H148	H	0.804836	-0.097141	-0.053774
