data_functionalizedCrystal
_audit_creation_method	'MofGen! by Chris Wilmer'
_symmetry_space_group_name_H-M	'P1'
_symmetry_Int_Tables_number	1
_symmetry_cell_setting	triclinic
loop_
_symmetry_equiv_pos_as_xyz
  x,y,z
_cell_length_a	19.188930
_cell_length_b	10.967874
_cell_length_c	10.065918
_cell_angle_alpha	111.757653
_cell_angle_beta	99.848379
_cell_angle_gamma	83.943308
loop_
_atom_site_label
_atom_site_type_symbol
_atom_site_fract_x
_atom_site_fract_y
_atom_site_fract_z
O1	O	0.140060	1.730030	0.520398
O2	O	0.142272	1.353956	0.431954
O3	O	0.039783	1.552842	0.478701
O4	O	0.242549	1.531144	0.473652
O5	O	0.020757	1.519032	0.243756
O6	O	0.123246	1.320147	0.197010
O7	O	0.121035	1.696220	0.285454
Zn8	Zn	0.119120	1.502816	0.203929
Zn9	Zn	0.144187	1.547361	0.513479
O10	O	0.223524	1.497335	0.238707
C11	C	0.131161	1.288938	0.303166
C12	C	0.126390	1.145575	0.269449
C13	C	0.134118	1.099173	0.376125
C14	C	0.129188	0.951000	0.341280
C15	C	0.004241	1.535234	0.361059
C16	C	-0.073318	1.533122	0.360551
C17	C	-0.115287	1.649823	0.387990
C18	C	-0.188160	1.647844	0.387546
C19	C	-0.219061	1.529153	0.359634
C20	C	-0.177082	1.412438	0.332199
C21	C	-0.104210	1.414422	0.332658
N22	N	-0.335838	1.426922	0.258341
N23	N	-0.405064	1.425045	0.257905
C24	C	-0.438619	1.523167	0.358254
N25	N	-0.400336	1.623256	0.459043
N26	N	-0.331105	1.625136	0.459475
C27	C	-0.298078	1.526988	0.359135
C28	C	-0.559605	1.637731	0.385216
C29	C	-0.632478	1.635748	0.384780
C30	C	-0.621400	1.400337	0.329418
C31	C	-0.548528	1.402325	0.329869
C32	C	-0.517636	1.521025	0.357762
C33	C	0.259066	1.514944	0.356352
C34	C	0.336625	1.517057	0.356869
C35	C	0.132146	1.761239	0.414245
C36	C	0.136918	1.904604	0.447971
N37	N	0.102012	1.472424	-0.007328
C38	C	0.138234	1.536778	-0.059963
C39	C	0.125061	1.513399	-0.222632
N40	N	0.161289	1.577763	0.724739
H41	H	-0.090140	1.746477	0.410707
H42	H	0.178995	1.609188	0.015403
Cl43	Cl	-0.051446	1.267700	0.298160
Cl44	Cl	-0.685240	1.782473	0.419287
H45	H	-0.222337	1.742879	0.409897
H46	H	0.144389	1.169143	0.493252
Cl47	Cl	0.152780	1.012615	0.628820
Cl48	Cl	0.224226	1.689566	-0.158920
Cl49	Cl	0.110543	1.037553	0.088608
H50	H	0.061247	1.400023	-0.082693
Cl51	Cl	-0.520767	1.786948	0.420272
H52	H	0.118924	0.881032	0.224145
H53	H	-0.646559	1.303698	0.306698
Cl54	Cl	-0.495764	1.255606	0.295366
Cl55	Cl	-0.215928	1.263229	0.297121
Cl56	Cl	0.062117	1.401612	-0.338974
