data_functionalizedCrystal
_audit_creation_method	'MofGen! by Chris Wilmer'
_symmetry_space_group_name_H-M	'P1'
_symmetry_Int_Tables_number	1
_symmetry_cell_setting	triclinic
loop_
_symmetry_equiv_pos_as_xyz
  x,y,z
_cell_length_a	13.897441
_cell_length_b	11.169417
_cell_length_c	11.169416
_cell_angle_alpha	90.011219
_cell_angle_beta	90.025897
_cell_angle_gamma	90.018542
loop_
_atom_site_label
_atom_site_type_symbol
_atom_site_fract_x
_atom_site_fract_y
_atom_site_fract_z
Zn1	Zn	-0.545356	-1.834947	0.477741
Zn2	Zn	-0.045356	-1.334947	0.977741
Zn3	Zn	-0.384071	-1.834841	0.678464
Zn4	Zn	0.115929	-1.334841	1.178464
Zn5	Zn	-0.384081	-1.634237	0.477796
Zn6	Zn	0.115919	-1.134237	0.977796
Zn7	Zn	-0.545330	-1.634240	0.678384
Zn8	Zn	-0.045330	-1.134240	1.178384
O9	O	-0.464709	-1.734567	0.578096
O10	O	0.035291	-1.234567	1.078096
O11	O	-0.523968	-2.002883	0.504377
O12	O	-0.023968	-1.502883	1.004377
O13	O	-0.249091	-1.808185	0.651902
O14	O	0.250909	-1.308185	1.151902
O15	O	-0.405490	-1.660905	0.309839
O16	O	0.094510	-1.160905	0.809839
O17	O	-0.405473	-2.002805	0.651848
O18	O	0.094527	-1.502805	1.151848
O19	O	-0.523978	-1.808366	0.309798
O20	O	-0.023978	-1.308366	0.809798
O21	O	-0.249098	-1.660802	0.504472
O22	O	0.250902	-1.160802	1.004472
O23	O	-0.405464	-1.466288	0.504395
O24	O	0.094536	-0.966288	1.004395
O25	O	-0.680315	-1.660910	0.651711
O26	O	-0.180315	-1.160910	1.151711
O27	O	-0.523933	-1.466290	0.651765
O28	O	-0.023933	-0.966290	1.151765
O29	O	-0.680334	-1.808369	0.504300
O30	O	-0.180334	-1.308369	1.004300
O31	O	-0.405447	-1.808188	0.846403
O32	O	0.094553	-1.308188	1.346403
O33	O	-0.523923	-1.660807	0.846344
O34	O	-0.023923	-1.160807	1.346344
C35	C	-0.464702	-1.734519	0.889921
C36	C	0.035298	-1.234519	1.389921
C37	C	-0.464731	-1.734608	1.023321
C38	C	0.035269	-1.234608	1.523321
C39	C	-0.464697	-1.422742	0.578078
C40	C	0.035303	-0.922742	1.078078
C41	C	-0.464715	-1.289342	0.578099
C42	C	0.035285	-0.789342	1.078099
C43	C	-0.716303	-1.734652	0.577990
C44	C	-0.216303	-1.234652	1.077990
C45	C	-0.823517	-1.734688	0.577945
C46	C	-0.323517	-1.234688	1.077945
C47	C	-1.019812	-1.734721	0.577864
C48	C	-0.519812	-1.234721	1.077864
C49	C	-0.910579	-1.734699	0.577912
C50	C	-0.410579	-1.234699	1.077912
C51	C	-0.214095	-1.734551	0.578115
C52	C	0.285905	-1.234551	1.078115
C53	C	-0.106882	-1.734747	0.577822
C54	C	0.393118	-1.234747	1.077822
C55	C	-0.464722	-2.047609	0.578115
C56	C	0.035278	-1.547609	1.078115
C57	C	-0.464728	-2.181009	0.578123
C58	C	0.035272	-1.681009	1.078123
C59	C	-0.464738	-1.734647	0.265054
C60	C	0.035262	-1.234647	0.765054
C61	C	-0.464750	-1.734681	0.131654
C62	C	0.035250	-1.234681	0.631654
