data_functionalizedCrystal
_audit_creation_method	'MofGen! by Chris Wilmer'
_symmetry_space_group_name_H-M	'P1'
_symmetry_Int_Tables_number	1
_symmetry_cell_setting	triclinic
loop_
_symmetry_equiv_pos_as_xyz
  x,y,z
_cell_length_a	14.971487
_cell_length_b	9.130313
_cell_length_c	14.971486
_cell_angle_alpha	89.999935
_cell_angle_beta	83.614266
_cell_angle_gamma	90.003145
loop_
_atom_site_label
_atom_site_type_symbol
_atom_site_fract_x
_atom_site_fract_y
_atom_site_fract_z
O1	O	-1.186943	0.121590	-0.116559
O2	O	-0.926543	0.121639	-0.130517
O3	O	-1.063722	0.121603	0.006662
O4	O	-1.049764	0.121627	-0.253738
O5	O	-1.063713	-0.121996	0.006653
O6	O	-0.926534	-0.121959	-0.130526
O7	O	-1.186934	-0.122009	-0.116567
Cu8	Cu	-1.056733	-0.144226	-0.123547
Cu9	Cu	-1.056744	0.143857	-0.123538
O10	O	-1.049754	-0.121972	-0.253747
C11	C	-0.893214	-0.000154	-0.129897
C12	C	-0.793917	-0.000135	-0.128026
N13	N	-1.056731	-0.346849	-0.123554
C14	C	-0.736691	-0.000128	-0.208615
C15	C	-0.643392	-0.000147	-0.206852
C16	C	-0.607320	-0.000162	-0.124499
C17	C	-0.664552	-0.000174	-0.043903
C18	C	-0.757850	-0.000166	-0.045668
C19	C	-0.470090	-0.000188	-0.040232
C20	C	-0.376786	-0.000193	-0.038467
C21	C	-0.355632	-0.000169	-0.201416
C22	C	-0.448929	-0.000161	-0.203181
C23	C	-0.506156	-0.000170	-0.122585
C24	C	-1.111034	-0.423521	-0.177889
C25	C	-1.111047	-0.576858	-0.177872
C26	C	-1.002447	-0.576838	-0.069183
C27	C	-1.002440	-0.423504	-0.069195
C28	C	-1.165326	-0.346866	-0.232247
C29	C	-1.219632	-0.423538	-0.286588
C30	C	-1.219645	-0.576875	-0.286571
C31	C	-1.165352	-0.653540	-0.232214
C32	C	-0.220263	-0.000203	-0.117187
C33	C	-0.319560	-0.000186	-0.119056
C34	C	-1.063094	-0.000196	0.039982
C35	C	-1.061223	-0.000194	0.139279
N36	N	-1.056752	0.346480	-0.123524
C37	C	-1.050383	-0.000170	-0.287067
C38	C	-1.052254	-0.000162	-0.386364
C39	C	-1.141812	-0.000210	0.196504
C40	C	-1.140049	-0.000195	0.289804
C41	C	-1.057696	-0.000174	0.325876
C42	C	-0.977100	-0.000154	0.268644
C43	C	-0.978864	-0.000158	0.175346
C44	C	-0.973429	-0.000148	0.463106
C45	C	-0.971665	-0.000146	0.556411
C46	C	-1.134614	-0.000185	0.577564
C47	C	-1.136378	-0.000189	0.484266
C48	C	-1.055782	-0.000171	0.427040
H49	H	-0.766053	-0.000115	-0.275677
Cl50	Cl	-1.165381	-0.846308	-0.232185
Cl51	Cl	-1.287891	-0.327162	-0.354910
Cl52	Cl	-0.934191	-0.327109	-0.000868
H53	H	-1.200238	-0.000195	0.624162
Cl54	Cl	-0.934194	-0.673218	-0.000858
H55	H	-0.347419	-0.000208	0.028592
Cl56	Cl	-0.542030	-0.000201	0.061090
H57	H	-0.635175	-0.000207	0.023150
Cl58	Cl	-1.287922	-0.673259	-0.354877
Cl59	Cl	-1.239909	-0.000208	0.438919
Cl60	Cl	-0.829791	-0.000181	0.055649
H61	H	-0.596802	-0.000140	-0.272476
Cl62	Cl	-1.245348	-0.000252	0.151166
Cl63	Cl	-0.872107	-0.000125	0.391166
H64	H	-0.904606	-0.000153	0.585777
H65	H	-1.165319	-0.222012	-0.232269
H66	H	-1.205673	-0.000212	0.336394
Cl67	Cl	-0.494276	-0.000126	-0.306712
H68	H	-0.910047	-0.000128	0.298021
H69	H	-0.309033	-0.000169	-0.267040
H70	H	-0.913240	-0.000145	0.128754
