data_functionalizedCrystal
_audit_creation_method	'MofGen! by Chris Wilmer'
_symmetry_space_group_name_H-M	'P1'
_symmetry_Int_Tables_number	1
_symmetry_cell_setting	triclinic
loop_
_symmetry_equiv_pos_as_xyz
  x,y,z
_cell_length_a	10.654551
_cell_length_b	10.654550
_cell_length_c	14.048226
_cell_angle_alpha	89.994756
_cell_angle_beta	89.994134
_cell_angle_gamma	84.485087
loop_
_atom_site_label
_atom_site_type_symbol
_atom_site_fract_x
_atom_site_fract_y
_atom_site_fract_z
O1	O	1.667844	0.176407	-0.079146
O2	O	1.302365	0.193212	-0.079150
O3	O	1.493508	0.002070	-0.079144
O4	O	1.476702	0.367548	-0.079152
O5	O	1.493484	0.002058	0.079177
O6	O	1.302342	0.193200	0.079171
O7	O	1.667821	0.176395	0.079176
Zn8	Zn	1.485078	0.184796	0.104310
Zn9	Zn	1.485108	0.184811	-0.104285
O10	O	1.476678	0.367537	0.079170
C11	C	1.255556	0.191972	0.000010
C12	C	1.116113	0.188279	0.000008
C13	C	0.919568	0.183055	0.086310
C14	C	1.050589	0.186536	0.086311
C15	C	1.050608	0.186555	-0.086300
C16	C	0.919589	0.183084	-0.086299
C17	C	0.854052	0.181299	0.172618
C18	C	0.919548	0.183025	0.258927
C19	C	1.050568	0.186506	0.258927
C20	C	1.116093	0.188260	0.172619
C21	C	1.492262	-0.044734	0.000015
C22	C	1.488570	-0.184177	0.000012
C23	C	1.601112	-0.263662	0.000016
C24	C	1.597635	-0.394683	0.000009
C25	C	1.369066	-0.366720	-0.000002
C26	C	1.372544	-0.235702	-0.000002
C27	C	1.717138	-0.212137	0.000030
C28	C	1.829689	-0.291624	0.000035
C29	C	1.826212	-0.422645	0.000028
C30	C	1.710185	-0.474179	0.000016
C31	C	1.714630	0.177635	0.000013
C32	C	1.854073	0.181327	0.000009
C33	C	1.477924	0.414341	0.000008
C34	C	1.481616	0.553784	0.000005
N35	N	1.485066	0.184785	0.246671
N36	N	1.485130	0.184812	-0.246646
C37	C	1.569731	0.100183	0.296492
C38	C	1.569739	0.100182	0.396149
C39	C	1.485088	0.184791	0.445984
C40	C	1.400414	0.269397	0.396157
C41	C	1.400400	0.269390	0.296501
C42	C	1.400450	0.269406	0.603871
C43	C	1.400465	0.269414	0.703534
C44	C	1.569789	0.100198	0.703519
C45	C	1.569776	0.100191	0.603863
C46	C	1.485103	0.184799	0.554043
H47	H	0.866187	0.181608	0.329196
O48	O	1.652039	0.018180	0.444654
C49	C	1.730115	0.086178	0.502264
H50	H	1.680938	0.183988	0.517185
H51	H	1.749537	0.033949	0.572347
H52	H	1.823001	0.095579	0.463845
O53	O	1.720743	-0.084893	-0.000008
C54	C	1.847279	-0.056455	0.000031
H55	H	1.910001	-0.139869	-0.029940
H56	H	1.856560	0.030357	-0.045928
H57	H	1.877596	-0.036858	0.075990
H58	H	1.103969	0.187982	-0.156568
O59	O	1.651916	0.018048	0.752057
C60	C	1.633796	0.036208	0.850702
H61	H	1.534356	0.082215	0.864324
H62	H	1.646954	-0.058775	0.888581
H63	H	1.705424	0.099865	0.878968
H64	H	1.924154	-0.249656	0.000021
H65	H	1.103889	0.187924	0.329204
O66	O	1.243393	0.191425	0.172665
C67	C	1.300446	0.084024	0.220030
H68	H	1.234230	0.006127	0.218512
H69	H	1.392561	0.049909	0.182844
H70	H	1.320681	0.109187	0.297030
O71	O	0.856159	0.181359	-0.170216
C72	C	0.942074	0.183679	-0.246394
H73	H	1.040320	0.146450	-0.221101
H74	H	0.911658	0.121826	-0.306757
H75	H	0.943716	0.284632	-0.272924
O76	O	1.318129	0.351411	0.444671
C77	C	1.240061	0.283431	0.502321
H78	H	1.289234	0.185619	0.517251
H79	H	1.220661	0.335671	0.572397
H80	H	1.147164	0.274031	0.463933
O81	O	1.935655	-0.499679	0.000071
C82	C	2.038801	-0.426100	0.000057
H83	H	2.007767	-0.328611	0.030031
H84	H	2.117714	-0.473738	0.046026
H85	H	2.074328	-0.416452	-0.075895
H86	H	0.747369	0.178463	0.172628
O87	O	1.263105	-0.158662	0.000035
C88	C	1.159952	-0.232231	0.000006
H89	H	1.190961	-0.329727	0.029986
H90	H	1.081017	-0.184594	0.045962
H91	H	1.124463	-0.241862	-0.075951
H92	H	1.638669	0.031290	0.255922
H93	H	1.638711	0.031303	0.563288
O94	O	1.706965	-0.601472	-0.000123
C95	C	1.768474	-0.652893	-0.082133
H96	H	1.837215	-0.585549	-0.109465
H97	H	1.822325	-0.747424	-0.063698
H98	H	1.695622	-0.667287	-0.139552
O99	O	1.256472	-0.416986	0.000036
C100	C	1.277537	-0.549670	0.000015
H101	H	1.375274	-0.579580	0.029990
H102	H	1.203223	-0.590541	0.045980
H103	H	1.271145	-0.586183	-0.075939
O104	O	1.318051	0.351457	0.751908
C105	C	1.193558	0.329876	0.727567
H106	H	1.192092	0.229318	0.700171
H107	H	1.130672	0.343710	0.793119
H108	H	1.157240	0.399149	0.669730
O109	O	1.318329	0.351769	0.555515
C110	C	1.339808	0.476286	0.579868
H111	H	1.440364	0.477832	0.607250
H112	H	1.325905	0.539179	0.514325
H113	H	1.270525	0.512535	0.637719
O114	O	1.318114	0.351697	0.248250
C115	C	1.243380	0.426357	0.313602
H116	H	1.294892	0.428262	0.384632
H117	H	1.225082	0.526477	0.284799
H118	H	1.149737	0.384707	0.324222
