data_functionalizedCrystal
_audit_creation_method	'MofGen! by Chris Wilmer'
_symmetry_space_group_name_H-M	'P1'
_symmetry_Int_Tables_number	1
_symmetry_cell_setting	triclinic
loop_
_symmetry_equiv_pos_as_xyz
  x,y,z
_cell_length_a	18.760487
_cell_length_b	23.196402
_cell_length_c	23.196401
_cell_angle_alpha	60.008822
_cell_angle_beta	90.048477
_cell_angle_gamma	60.020943
loop_
_atom_site_label
_atom_site_type_symbol
_atom_site_fract_x
_atom_site_fract_y
_atom_site_fract_z
Zr1	Zr	0.686682	0.630998	-0.075286
O2	O	0.572842	0.751265	-0.167389
O3	O	0.721577	0.510733	-0.047055
O4	O	0.721546	0.631000	-0.167320
O5	O	0.572902	0.630996	0.047748
O6	O	0.838849	0.630999	-0.167262
O7	O	0.572874	0.630998	-0.047124
O8	O	0.838905	0.415864	0.047871
O9	O	0.572846	0.846132	-0.167385
O10	O	0.824005	0.560199	-0.034967
O11	O	0.736484	0.560198	0.035791
O12	O	0.736447	0.701797	-0.105806
O13	O	0.648926	0.701796	-0.035048
Zr14	Zr	0.873812	0.630996	0.076116
Zr15	Zr	0.873767	0.630998	-0.075193
Zr16	Zr	0.686727	0.630996	0.076023
Zr17	Zr	0.686687	0.782301	-0.075279
Zr18	Zr	0.873806	0.479693	0.076110
O19	O	0.838916	0.751261	0.047885
O20	O	0.838853	0.751265	-0.167256
O21	O	0.572906	0.751262	0.047753
O22	O	0.987651	0.510729	0.168219
O23	O	0.987587	0.510732	-0.046922
O24	O	0.721641	0.510729	0.168087
O25	O	0.987592	0.630997	-0.046917
O26	O	0.838948	0.630994	0.168151
O27	O	0.721645	0.630994	0.168092
O28	O	0.987620	0.630996	0.047954
O29	O	0.721553	0.846132	-0.167311
O30	O	0.838941	0.415862	0.168141
O31	O	0.987648	0.415862	0.168215
O32	O	0.987612	0.415863	0.047945
O33	O	0.572881	0.846130	-0.047114
O34	O	0.721589	0.846130	-0.047040
O35	O	0.824047	0.560197	0.106636
O36	O	0.911568	0.560198	0.035878
O37	O	0.824010	0.701796	-0.034961
O38	O	0.736489	0.701795	0.035797
C39	C	0.780240	0.441741	0.000407
C40	C	0.780238	0.377509	0.000404
C41	C	0.825917	0.347339	-0.036533
C42	C	0.825926	0.286978	-0.036527
C43	C	0.780238	0.256801	0.000406
C44	C	0.734557	0.286975	0.037352
C45	C	0.734557	0.347329	0.037351
C46	C	0.703695	0.194772	-0.004906
C47	C	0.703692	0.134422	-0.004910
C48	C	0.780239	0.070646	0.000413
C49	C	0.856788	0.067234	0.005727
C50	C	0.856788	0.127588	0.005726
C51	C	0.780233	0.191356	0.000412
C52	C	0.825931	-0.024975	-0.036520
C53	C	0.825942	-0.085341	-0.036509
C54	C	0.734565	-0.085337	0.037366
C55	C	0.734563	-0.024979	0.037360
C56	C	0.780244	0.005202	0.000413
C57	C	0.546232	0.630997	0.000299
C58	C	0.466810	0.630997	0.000259
C59	C	0.085289	0.704913	-0.036439
C60	C	0.176706	0.557082	0.037518
C61	C	0.251328	0.557080	0.037457
C62	C	0.242933	0.630996	0.000447
C63	C	0.159916	0.704914	-0.036503
C64	C	0.334349	0.483165	0.074400
C65	C	0.408977	0.483160	0.074341
C66	C	0.400584	0.557077	0.037334
C67	C	0.317561	0.630997	0.000384
C68	C	0.309166	0.704913	-0.036627
C69	C	0.226144	0.778835	-0.073573
C70	C	0.151523	0.778831	-0.073509
C71	C	0.475205	0.557081	0.037270
C72	C	0.383794	0.704915	-0.036690
C73	C	1.014261	0.630997	0.000532
C74	C	1.093683	0.630997	0.000571
C75	C	0.780191	0.631000	-0.188849
C76	C	0.780172	0.631001	-0.253084
C77	C	0.780253	0.820253	0.000423
C78	C	0.780255	0.884485	0.000426
C79	C	0.734472	0.704911	-0.320234
C80	C	0.734494	0.704912	-0.380589
C81	C	0.780204	0.630999	-0.373790
C82	C	0.825914	0.557079	-0.306628
C83	C	0.825898	0.557080	-0.246274
C84	C	0.773711	0.574371	-0.441113
C85	C	0.773721	0.574373	-0.501466
C86	C	0.780260	0.630993	-0.559938
C87	C	0.786770	0.687624	-0.558055
C88	C	0.786754	0.687625	-0.497702
C89	C	0.780227	0.630989	-0.439229
C90	C	0.734581	0.704909	-0.692534
C91	C	0.734610	0.704907	-0.752889
C92	C	0.826024	0.557071	-0.678926
C93	C	0.826002	0.557076	-0.618573
C94	C	0.780275	0.630997	-0.625382
C95	C	0.780303	0.630994	0.189680
C96	C	0.780322	0.630993	0.253914
C97	C	1.014255	0.441740	0.000524
C98	C	1.093675	0.377509	0.000560
C99	C	0.780296	0.441738	0.189672
C100	C	0.780313	0.377505	0.253903
C101	C	1.014311	0.441738	0.189788
C102	C	1.093750	0.377505	0.254059
C103	C	0.546183	0.820256	-0.188957
C104	C	0.466744	0.884489	-0.253229
C105	C	0.546239	0.820253	0.000307
C106	C	0.466819	0.884485	0.000270
C107	C	0.780197	0.820256	-0.188841
C108	C	0.780180	0.884489	-0.253073
C109	C	1.085265	0.347345	-0.036409
C110	C	1.159881	0.287001	-0.036389
C111	C	1.242907	0.256817	0.000606
C112	C	1.251316	0.286986	0.037576
C113	C	1.176700	0.347333	0.037551
C114	C	0.826028	0.347340	0.321054
C115	C	0.826040	0.286995	0.381413
C116	C	0.780343	0.256812	0.374619
C117	C	0.734622	0.286983	0.307461
C118	C	0.734605	0.347331	0.247104
C119	C	1.176748	0.347341	0.247307
C120	C	1.251397	0.286995	0.307691
C121	C	1.243045	0.256811	0.374827
C122	C	1.160038	0.286981	0.381578
C123	C	1.085391	0.347329	0.321194
C124	C	0.383745	0.914661	-0.246476
C125	C	0.309097	0.975025	-0.306860
C126	C	0.317448	1.005212	-0.373996
C127	C	0.400455	0.975038	-0.380747
C128	C	0.475102	0.914680	-0.320364
C129	C	0.475229	0.914655	0.037233
C130	C	0.400613	0.975016	0.037196
C131	C	0.317587	1.005202	0.000200
C132	C	0.309178	0.975030	-0.036768
C133	C	0.383794	0.914674	-0.036735
C134	C	0.825887	0.914653	-0.246256
C135	C	0.825888	0.974999	-0.306603
C136	C	0.780177	1.005183	-0.373766
C137	C	0.734469	0.975013	-0.380581
C138	C	0.734474	0.914665	-0.320235
H139	H	0.641361	0.137209	-0.009241
H140	H	0.863110	0.890086	-0.191575
H141	H	0.341176	0.422986	0.104532
Br142	Br	0.372392	0.805235	-0.086914
Br143	Br	0.599800	0.281322	-0.012131
H144	H	0.542681	0.890115	-0.325870
Br145	Br	0.672429	0.873742	-0.329498
Br146	Br	0.196456	1.015960	-0.297682
Br147	Br	0.216330	1.087115	0.000162
Br148	Br	0.587869	0.456769	0.087399
Br149	Br	1.344164	0.174916	0.000632
H150	H	0.863133	0.496898	-0.301095
Br151	Br	1.364038	0.246062	0.298512
Br152	Br	0.780179	1.087087	-0.455658
Br153	Br	0.972596	0.388298	-0.086624
H154	H	0.017690	0.765097	-0.066518
H155	H	0.863116	0.371908	-0.066615
H156	H	1.303835	0.207672	0.423989
H157	H	0.376929	0.890085	-0.191817
Br158	Br	0.672566	0.015969	0.087492
H159	H	0.476570	0.422969	0.104424
H160	H	0.407245	0.999625	-0.435416
H161	H	1.153251	0.262396	0.436248
Br162	Br	0.672563	0.246012	0.087486
Br163	Br	0.887931	0.015983	-0.086655
Br164	Br	0.972753	0.388255	0.330371
Br165	Br	0.672608	0.246011	0.298253
H166	H	0.863124	0.262409	-0.066607
Br167	Br	0.672392	0.805232	-0.329477
H168	H	0.697277	0.765101	-0.435273
H169	H	0.183534	0.496903	0.067648
Br170	Br	0.887920	0.456765	-0.155135
Br171	Br	0.672561	0.388275	0.087486
H172	H	0.919117	0.124805	0.010055
Br173	Br	0.887939	-0.126285	-0.086645
Br174	Br	0.960679	-0.019311	0.012946
Br175	Br	0.214762	0.879145	-0.123803
H176	H	0.697366	-0.109907	0.067438
Br177	Br	0.587898	0.873704	0.087447
Br178	Br	0.887921	1.015934	-0.297338
Br179	Br	0.196493	1.016004	-0.086972
Br180	Br	0.038852	0.879143	-0.123646
Br181	Br	1.188107	0.388296	0.156202
H182	H	0.863274	0.262437	0.436089
H183	H	0.792057	0.733735	-0.496171
Br184	Br	0.888009	0.456763	-0.527435
Br185	Br	1.188130	0.388258	0.087734
H186	H	0.697382	0.371883	0.192429
Br187	Br	0.216132	1.087129	-0.455939
H188	H	0.863241	0.371908	0.326599
H189	H	0.407476	0.999572	0.067303
H190	H	0.792090	0.733732	-0.605665
H191	H	0.697349	0.765100	-0.698079
H192	H	1.318925	0.262401	0.067696
Br193	Br	0.672428	1.015994	-0.471736
Br194	Br	0.672590	0.805224	-0.844028
Br195	Br	0.888076	0.456758	-0.669690
Br196	Br	0.764873	0.497525	-0.504020
Br197	Br	0.372364	0.873733	-0.086900
H198	H	0.768381	0.528265	-0.393507
H199	H	1.153018	0.262444	-0.066494
Br200	Br	0.780375	0.174910	0.456540
