data_functionalizedCrystal
_audit_creation_method	'MofGen! by Chris Wilmer'
_symmetry_space_group_name_H-M	'P1'
_symmetry_Int_Tables_number	1
_symmetry_cell_setting	triclinic
loop_
_symmetry_equiv_pos_as_xyz
  x,y,z
_cell_length_a	17.699083
_cell_length_b	19.188924
_cell_length_c	16.776229
_cell_angle_alpha	89.991276
_cell_angle_beta	89.998886
_cell_angle_gamma	83.212490
loop_
_atom_site_label
_atom_site_type_symbol
_atom_site_fract_x
_atom_site_fract_y
_atom_site_fract_z
O1	O	1.003960	0.088295	-0.066180
O2	O	1.503960	0.588295	0.433820
O3	O	0.783566	0.099782	-0.066207
O4	O	1.283566	0.599782	0.433793
O5	O	0.900126	-0.007611	-0.066183
O6	O	1.400126	0.492389	0.433817
O7	O	0.887400	0.195687	-0.066204
O8	O	1.387400	0.695687	0.433796
O9	O	0.900110	-0.007617	0.066393
O10	O	1.400110	0.492383	0.566393
O11	O	0.783551	0.099775	0.066370
O12	O	1.283551	0.599775	0.566370
O13	O	1.003944	0.088288	0.066396
O14	O	1.503944	0.588288	0.566396
Zn15	Zn	0.893745	0.094031	0.087432
Zn16	Zn	1.393745	0.594031	0.587432
Zn17	Zn	0.893765	0.094039	-0.087243
Zn18	Zn	1.393765	0.594039	0.412757
O19	O	0.887385	0.195681	0.066373
O20	O	1.387385	0.695681	0.566373
C21	C	0.755362	0.099367	0.000078
C22	C	1.255362	0.599367	0.500078
C23	C	0.671345	0.098132	0.000068
C24	C	1.171345	0.598132	0.500068
C25	C	0.899707	-0.033625	0.000106
C26	C	1.399707	0.466375	0.500106
C27	C	0.898472	-0.111132	0.000108
C28	C	1.398472	0.388868	0.500108
C29	C	0.622640	0.161169	0.000062
C30	C	1.122640	0.661169	0.500062
C31	C	0.543698	0.160005	0.000073
C32	C	1.043698	0.660005	0.500073
C33	C	0.513464	0.095803	0.000084
C34	C	1.013464	0.595803	0.500084
C35	C	0.562175	0.032761	0.000092
C36	C	1.062175	0.532761	0.500092
C37	C	0.641116	0.033926	0.000087
C38	C	1.141116	0.533926	0.500087
C39	C	0.243819	0.028060	0.000112
C40	C	0.743819	0.528060	0.500112
C41	C	0.164872	0.026900	0.000115
C42	C	0.664872	0.526900	0.500115
C43	C	0.146401	0.154139	0.000098
C44	C	0.646401	0.654139	0.500098
C45	C	0.225341	0.155305	0.000093
C46	C	0.725341	0.655305	0.500093
C47	C	0.274046	0.092263	0.000106
C48	C	0.774046	0.592263	0.500106
C49	C	0.359644	0.093526	0.000096
C50	C	0.859644	0.593526	0.500096
C51	C	0.427868	0.094538	0.000088
C52	C	0.927868	0.594538	0.500088
C53	C	0.897905	-0.147528	-0.072160
C54	C	1.397905	0.352472	0.427840
C55	C	0.896734	-0.220352	-0.072166
C56	C	1.396734	0.279648	0.427834
C57	C	0.896146	-0.256779	0.000099
C58	C	1.396146	0.243221	0.500099
C59	C	0.896710	-0.220373	0.072377
C60	C	1.396710	0.279627	0.572377
C61	C	0.897873	-0.147550	0.072381
C62	C	1.397873	0.352450	0.572381
N63	N	0.937385	-0.376398	0.053890
N64	N	1.437385	0.123602	0.553890
N65	N	0.936281	-0.445578	0.053881
N66	N	1.436281	0.054422	0.553881
C67	C	0.892641	-0.476192	0.000091
C68	C	1.392641	0.023808	0.500091
N69	N	0.850154	-0.435014	-0.053702
N70	N	1.350154	0.064986	0.446298
N71	N	0.851261	-0.365828	-0.053695
N72	N	1.351261	0.134172	0.446305
C73	C	0.894885	-0.335744	0.000103
C74	C	1.394885	0.164256	0.500103
C75	C	0.890802	-0.591552	-0.072188
C76	C	1.390802	-0.091552	0.427812
C77	C	0.889627	-0.664376	-0.072191
C78	C	1.389627	-0.164376	0.427809
C79	C	0.889611	-0.664398	0.072354
C80	C	1.389611	-0.164398	0.572354
C81	C	0.890778	-0.591574	0.072355
C82	C	1.390778	-0.091574	0.572355
C83	C	0.891378	-0.555155	0.000082
C84	C	1.391378	-0.055155	0.500082
C85	C	1.032149	0.088703	0.000110
C86	C	1.532149	0.588703	0.500110
C87	C	1.116165	0.089938	0.000114
C88	C	1.616165	0.589938	0.500114
C89	C	0.887804	0.221695	0.000082
C90	C	1.387804	0.721695	0.500082
C91	C	0.889038	0.299202	0.000075
C92	C	1.389038	0.799202	0.500075
N93	N	0.893737	0.094024	0.206644
N94	N	1.393737	0.594024	0.706644
N95	N	0.893780	0.094040	-0.206454
N96	N	1.393780	0.594040	0.293546
C97	C	0.945365	0.046490	0.248371
C98	C	1.445365	0.546490	0.748371
C99	C	0.945369	0.046490	0.331823
C100	C	1.445369	0.546490	0.831823
C101	C	0.893748	0.094027	0.373547
C102	C	1.393748	0.594027	0.873547
C103	C	0.842114	0.141563	0.331813
C104	C	1.342114	0.641563	0.831813
C105	C	0.842107	0.141560	0.248363
C106	C	1.342107	0.641560	0.748363
C107	C	0.842142	0.141577	0.668360
C108	C	1.342142	0.641577	1.168360
C109	C	0.842154	0.141578	0.751817
C110	C	1.342154	0.641578	1.251817
C111	C	0.945404	0.046507	0.751821
C112	C	1.445404	0.546507	1.251821
C113	C	0.945397	0.046503	0.668371
C114	C	1.445397	0.546503	1.168371
C115	C	0.893761	0.094037	0.626645
C116	C	1.393761	0.594037	1.126645
C117	C	0.893756	0.094036	0.536156
C118	C	1.393756	0.594036	1.036156
C119	C	0.893756	0.094032	0.464033
C120	C	1.393756	0.594032	0.964033
H121	H	0.504044	0.211336	0.000067
H122	H	1.004044	0.711336	0.500067
H123	H	0.647250	0.213450	0.000053
H124	H	1.147250	0.713450	0.500053
C125	C	0.831287	-0.234857	0.195561
C126	C	1.331287	0.265143	0.695561
C127	C	0.896063	-0.260411	0.151813
C128	C	1.396063	0.239589	0.651813
H129	H	0.830884	-0.259577	0.244601
H130	H	1.330884	0.240423	0.744601
H131	H	0.832066	-0.186283	0.205904
H132	H	1.332066	0.313717	0.705904
H133	H	0.786981	-0.241393	0.165850
H134	H	1.286981	0.258607	0.665850
H135	H	0.940370	-0.253870	0.181522
H136	H	1.440370	0.246130	0.681522
H137	H	0.895291	-0.308996	0.141472
H138	H	1.395291	0.191004	0.641472
H139	H	0.987404	0.007783	0.214406
H140	H	1.487404	0.507783	0.714406
H141	H	0.898391	-0.117880	-0.131011
H142	H	1.398391	0.382120	0.368989
H143	H	0.891247	-0.561940	0.131203
H144	H	1.391247	-0.061940	0.631203
H145	H	0.537552	-0.019514	0.000112
H146	H	1.037552	0.480486	0.500112
C147	C	0.825403	0.236627	0.845643
C148	C	1.325403	0.736627	1.345643
C149	C	0.785404	0.193832	0.797680
C150	C	1.285404	0.693832	1.297680
H151	H	0.790368	0.268887	0.873952
H152	H	1.290368	0.768887	1.373952
H153	H	0.856149	0.208320	0.882433
H154	H	1.356149	0.708320	1.382433
H155	H	0.856809	0.261708	0.813068
H156	H	1.356809	0.761708	1.313068
H157	H	0.754001	0.168747	0.830256
H158	H	1.254001	0.668747	1.330256
H159	H	0.754644	0.222143	0.760886
H160	H	1.254644	0.722143	1.260886
H161	H	0.889126	-0.694055	0.131194
H162	H	1.389126	-0.194055	0.631194
C163	C	0.990263	-0.074421	0.777528
C164	C	1.490263	0.425579	1.277528
C165	C	1.002156	-0.005753	0.797689
C166	C	1.502156	0.494247	1.297689
H167	H	1.025303	-0.106681	0.805841
H168	H	1.525303	0.393319	1.305841
H169	H	0.939786	-0.081941	0.791214
H170	H	1.439786	0.418059	1.291214
H171	H	0.997650	-0.081214	0.721855
H172	H	1.497650	0.418786	1.221855
H173	H	0.994764	0.001042	0.853361
H174	H	1.494764	0.501042	1.353361
H175	H	1.052646	0.001769	0.784008
H176	H	1.552646	0.501769	1.284008
C177	C	0.199152	0.280963	0.000087
C178	C	0.699152	0.780963	0.500087
C179	C	0.258574	0.225878	0.000085
C180	C	0.758574	0.725878	0.500085
H181	H	0.219669	0.324532	0.000089
H182	H	0.719669	0.824532	0.500089
H183	H	0.168747	0.277868	-0.046142
H184	H	0.668747	0.777868	0.453858
H185	H	0.168746	0.277853	0.046323
H186	H	0.668746	0.777853	0.546323
H187	H	0.288976	0.228985	-0.046155
H188	H	0.788976	0.728985	0.453845
H189	H	0.288991	0.228974	0.046318
H190	H	0.788991	0.728974	0.546318
C191	C	0.017187	0.208863	0.000108
C192	C	0.517187	0.708863	0.500108
C193	C	0.092862	0.223438	0.000095
C194	C	0.592862	0.723438	0.500095
H195	H	-0.015862	0.251645	0.000109
H196	H	0.484138	0.751645	0.500109
H197	H	0.008045	0.182538	-0.046116
H198	H	0.508045	0.682538	0.453884
H199	H	0.008056	0.182531	0.046349
H200	H	0.508056	0.682531	0.546349
H201	H	0.101995	0.249766	-0.046149
H202	H	0.601995	0.749766	0.453851
H203	H	0.102008	0.249775	0.046324
H204	H	0.602008	0.749775	0.546324
C205	C	0.191057	-0.098765	0.000150
C206	C	0.691057	0.401235	0.500150
C207	C	0.131637	-0.043677	0.000135
C208	C	0.631637	0.456323	0.500135
H209	H	0.170536	-0.142333	0.000167
H210	H	0.670536	0.357667	0.500167
H211	H	0.221461	-0.095670	-0.046081
H212	H	0.721461	0.404330	0.453919
H213	H	0.221463	-0.095659	0.046384
H214	H	0.721463	0.404341	0.546384
H215	H	0.101234	-0.046780	-0.046103
H216	H	0.601234	0.453220	0.453897
H217	H	0.101220	-0.046773	0.046370
H218	H	0.601220	0.453227	0.546370
C219	C	0.740089	0.235558	0.676750
C220	C	1.240089	0.735558	1.176750
C221	C	0.785390	0.193831	0.622502
C222	C	1.285390	0.693831	1.122502
H223	H	0.705056	0.267821	0.648435
H224	H	1.205056	0.767821	1.148435
H225	H	0.712970	0.206526	0.709308
H226	H	1.212970	0.706526	1.209308
H227	H	0.771522	0.260634	0.709290
H228	H	1.271522	0.760634	1.209290
H229	H	0.753958	0.168750	0.589967
H230	H	1.253958	0.668750	1.089967
H231	H	0.812511	0.222866	0.589931
H232	H	1.312511	0.722866	1.089931
C233	C	0.681173	-0.074165	-0.068061
C234	C	1.181173	0.425835	0.431939
C235	C	0.694659	-0.035365	0.000088
C236	C	1.194659	0.464635	0.500088
H237	H	0.714233	-0.116941	-0.068059
H238	H	1.214233	0.383059	0.431941
H239	H	0.629840	-0.084048	-0.068051
H240	H	1.129840	0.415952	0.431949
H241	H	0.690315	-0.047823	-0.114291
H242	H	1.190315	0.452177	0.385709
H243	H	0.685512	-0.061706	0.046318
H244	H	1.185512	0.438294	0.546318
H245	H	0.746004	-0.025484	0.000085
H246	H	1.246004	0.474516	0.500085
C247	C	0.896837	-0.213019	-0.215042
C248	C	1.396837	0.286981	0.284958
C249	C	0.896081	-0.260366	-0.151608
C250	C	1.396081	0.239634	0.348392
H251	H	0.896428	-0.237722	-0.264085
H252	H	1.396428	0.262278	0.235915
H253	H	0.853175	-0.179209	-0.212025
H254	H	1.353175	0.320791	0.287975
H255	H	0.941428	-0.190026	-0.212043
H256	H	1.441428	0.309974	0.287957
H257	H	0.851486	-0.283355	-0.154605
H258	H	1.351486	0.216645	0.345395
H259	H	0.939746	-0.294189	-0.154627
H260	H	1.439746	0.205811	0.345373
C261	C	0.834122	-0.057706	0.156228
C262	C	1.334122	0.442294	0.656228
C263	C	0.898500	-0.107539	0.151823
C264	C	1.398500	0.392461	0.651823
H265	H	0.834510	-0.033008	0.205276
H266	H	1.334510	0.466992	0.705276
H267	H	0.834649	-0.025597	0.113194
H268	H	1.334649	0.474403	0.613194
H269	H	0.789546	-0.080720	0.153216
H270	H	1.289546	0.419280	0.653216
H271	H	0.943077	-0.084524	0.154829
H272	H	1.443077	0.415476	0.654829
H273	H	0.897981	-0.139653	0.194870
H274	H	1.397981	0.360347	0.694870
C275	C	0.890692	-0.598841	-0.215064
C276	C	1.390692	-0.098841	0.284936
C277	C	0.891449	-0.551513	-0.151628
C278	C	1.391449	-0.051513	0.348372
H279	H	0.891085	-0.574122	-0.264105
H280	H	1.391085	-0.074122	0.235895
H281	H	0.934360	-0.632645	-0.212057
H282	H	1.434360	-0.132645	0.287943
H283	H	0.846107	-0.621844	-0.212056
H284	H	1.346107	-0.121844	0.287944
H285	H	0.936036	-0.528514	-0.154632
H286	H	1.436036	-0.028514	0.345368
H287	H	0.847776	-0.517697	-0.154636
H288	H	1.347776	-0.017697	0.345364
H289	H	0.889161	-0.694008	-0.131043
H290	H	1.389161	-0.194008	0.368957
H291	H	0.987408	0.007784	0.365798
H292	H	1.487408	0.507784	0.865798
C293	C	0.991037	0.004108	0.540449
C294	C	1.491037	0.504108	1.040449
C295	C	1.002005	-0.005874	0.622508
C296	C	1.502005	0.494126	1.122508
H297	H	1.025948	-0.028264	0.512138
H298	H	1.525948	0.471736	1.012138
H299	H	0.940501	-0.003290	0.526866
H300	H	1.440501	0.496710	1.026866
H301	H	0.999237	0.050646	0.526691
H302	H	1.499237	0.550646	1.026691
H303	H	0.993800	-0.052411	0.636268
H304	H	1.493800	0.447589	1.136268
H305	H	1.052554	0.001519	0.636097
H306	H	1.552554	0.501519	1.136097
C307	C	0.796284	0.183789	0.459734
C308	C	1.296284	0.683789	0.959734
C309	C	0.785372	0.193819	0.377674
C310	C	1.285372	0.693819	0.877674
H311	H	0.761257	0.216055	0.488043
H312	H	1.261257	0.716055	0.988043
H313	H	0.788221	0.137207	0.473420
H314	H	1.288221	0.637207	0.973420
H315	H	0.846772	0.191315	0.473391
H316	H	1.346772	0.691315	0.973391
H317	H	0.734885	0.186288	0.364015
H318	H	1.234885	0.686288	0.864015
H319	H	0.793429	0.240413	0.363982
H320	H	1.293429	0.740413	0.863982
C321	C	0.740054	0.235543	0.256735
C322	C	1.240054	0.735543	0.756735
C323	C	0.785359	0.193814	0.202493
C324	C	1.285359	0.693814	0.702493
H325	H	0.705021	0.267804	0.228416
H326	H	1.205021	0.767804	0.728416
H327	H	0.712933	0.206512	0.289292
H328	H	1.212933	0.706512	0.789292
H329	H	0.771483	0.260622	0.289275
H330	H	1.271483	0.760622	0.789275
H331	H	0.753930	0.168731	0.169956
H332	H	1.253930	0.668731	0.669956
H333	H	0.812482	0.222848	0.169922
H334	H	1.312482	0.722848	0.669922
H335	H	0.283465	-0.023272	0.000123
H336	H	0.783465	0.476728	0.500123
