data_functionalizedCrystal
_audit_creation_method	'MofGen! by Chris Wilmer'
_symmetry_space_group_name_H-M	'P1'
_symmetry_Int_Tables_number	1
_symmetry_cell_setting	triclinic
loop_
_symmetry_equiv_pos_as_xyz
  x,y,z
_cell_length_a	16.109318
_cell_length_b	16.109301
_cell_length_c	9.130313
_cell_angle_alpha	89.994060
_cell_angle_beta	90.000058
_cell_angle_gamma	83.465022
loop_
_atom_site_label
_atom_site_type_symbol
_atom_site_fract_x
_atom_site_fract_y
_atom_site_fract_z
O1	O	1.103122	0.106936	-0.121682
O2	O	1.603122	0.606936	0.378318
O3	O	0.861062	0.120220	-0.121712
O4	O	1.361062	0.620220	0.378288
O5	O	0.988741	-0.007453	-0.121682
O6	O	1.488741	0.492547	0.378318
O7	O	0.975442	0.234608	-0.121713
O8	O	1.475442	0.734608	0.378287
O9	O	0.988733	-0.007456	0.121917
O10	O	1.488733	0.492544	0.621917
O11	O	0.861053	0.120216	0.121886
O12	O	1.361053	0.620216	0.621886
O13	O	1.103113	0.106932	0.121917
O14	O	1.603113	0.606932	0.621917
Cu15	Cu	0.982082	0.113574	0.144144
Cu16	Cu	1.482082	0.613574	0.644144
Cu17	Cu	0.982093	0.113578	-0.143940
Cu18	Cu	1.482093	0.613578	0.356060
O19	O	0.975433	0.234605	0.121886
O20	O	1.475433	0.734605	0.621886
C21	C	0.830083	0.119677	0.000083
C22	C	1.330083	0.619677	0.500083
C23	C	0.737788	0.118057	0.000072
C24	C	1.237788	0.618057	0.500072
C25	C	0.438719	0.112824	-0.132687
C26	C	0.938719	0.612824	0.367313
C27	C	0.525440	0.114341	-0.132696
C28	C	1.025440	0.614341	0.367304
C29	C	0.525450	0.114326	0.132889
C30	C	1.025450	0.614326	0.632889
C31	C	0.438731	0.112802	0.132896
C32	C	0.938731	0.612802	0.632896
C33	C	0.395367	0.112056	0.000104
C34	C	0.895367	0.612056	0.500104
C35	C	0.568807	0.115096	0.000087
C36	C	1.068807	0.615096	0.500087
C37	C	0.662835	0.116742	0.000078
C38	C	1.162835	0.616742	0.500078
C39	C	0.301334	0.110409	0.000113
C40	C	0.801334	0.610409	0.500113
C41	C	0.988198	-0.038430	0.000119
C42	C	1.488198	0.461570	0.500119
C43	C	0.986583	-0.130725	0.000120
C44	C	1.486583	0.369275	0.500120
C45	C	1.058590	-0.352993	0.000106
C46	C	1.558590	0.147007	0.500106
C47	C	1.057066	-0.439713	0.000094
C48	C	1.557066	0.060287	0.500094
C49	C	0.905579	-0.419848	0.000081
C50	C	1.405579	0.080152	0.500081
C51	C	0.907104	-0.333130	0.000083
C52	C	1.407104	0.166870	0.500083
C53	C	0.983612	-0.299704	0.000103
C54	C	1.483612	0.200296	0.500103
C55	C	0.980563	-0.473144	0.000089
C56	C	1.480563	0.026856	0.500089
C57	C	0.978910	-0.567170	0.000075
C58	C	1.478910	-0.067170	0.500075
C59	C	0.985265	-0.205672	0.000113
C60	C	1.485265	0.294328	0.500113
C61	C	1.134092	0.107474	0.000118
C62	C	1.634092	0.607474	0.500118
C63	C	1.226387	0.109095	0.000119
C64	C	1.726387	0.609095	0.500119
C65	C	0.975976	0.265581	0.000083
C66	C	1.475976	0.765581	0.500083
C67	C	0.977592	0.357877	0.000071
C68	C	1.477592	0.857877	0.500071
N69	N	0.982081	0.113570	0.346767
N70	N	1.482081	0.613570	0.846767
N71	N	0.982100	0.113575	-0.346562
N72	N	1.482100	0.613575	0.153438
C73	C	1.038636	0.057060	0.423432
C74	C	1.538636	0.557060	0.923432
C75	C	1.038644	0.057060	0.576769
C76	C	1.538644	0.557060	1.076769
C77	C	0.925539	0.170088	0.576761
C78	C	1.425539	0.670088	1.076761
C79	C	0.925528	0.170083	0.423427
C80	C	1.425528	0.670083	0.923427
H81	H	0.403433	0.112176	0.241037
H82	H	0.903433	0.612176	0.741037
O83	O	0.567628	0.115204	-0.261597
O84	O	1.067628	0.615204	0.238403
C85	C	0.608340	0.188056	-0.269562
C86	C	1.108340	0.688056	0.230438
H87	H	0.618193	0.212266	-0.154269
H88	H	1.118193	0.712266	0.345731
H89	H	0.671439	0.172945	-0.325773
H90	H	1.171439	0.672945	0.174227
H91	H	0.568310	0.237866	-0.335083
H92	H	1.068310	0.737866	0.164917
O93	O	0.834320	-0.281274	0.000274
O94	O	1.334320	0.218726	0.500274
C95	C	0.830659	-0.230538	0.126451
C96	C	1.330659	0.269462	0.626451
H97	H	0.896648	-0.226176	0.168522
H98	H	1.396648	0.273824	0.668522
H99	H	0.799680	-0.165350	0.098069
H100	H	1.299680	0.334650	0.598069
H101	H	0.792687	-0.259057	0.214790
H102	H	1.292687	0.240943	0.714790
H103	H	1.120888	-0.325781	0.000120
H104	H	1.620888	0.174219	0.500120
H105	H	1.118121	-0.483098	0.000094
H106	H	1.618121	0.016902	0.500094
H107	H	0.843288	-0.447074	0.000067
H108	H	1.343288	0.052926	0.500067
H109	H	0.403415	0.112214	-0.240815
H110	H	0.903415	0.612214	0.259185
O111	O	1.093664	0.002137	0.651014
O112	O	1.593664	0.502137	1.151014
C113	C	1.143558	-0.047755	0.550465
C114	C	1.643558	0.452245	1.050465
H115	H	1.144477	-0.013667	0.441156
H116	H	1.644477	0.486333	0.941156
H117	H	1.209958	-0.060410	0.594757
H118	H	1.709958	0.439590	1.094757
H119	H	1.116587	-0.109530	0.534176
H120	H	1.616587	0.390470	1.034176
O121	O	1.093434	0.002094	0.348835
O122	O	1.593434	0.502094	0.848835
C123	C	1.048891	-0.049229	0.260241
C124	C	1.548891	0.450771	0.760241
H125	H	0.983842	-0.016110	0.237240
H126	H	1.483842	0.483890	0.737240
H127	H	1.083587	-0.062427	0.152426
H128	H	1.583587	0.437573	0.652426
H129	H	1.043225	-0.110651	0.319414
H130	H	1.543225	0.389349	0.819414
H131	H	0.879495	0.216100	0.639194
H132	H	1.379495	0.716100	1.139194
O133	O	0.870556	0.225061	0.349172
O134	O	1.370556	0.725061	0.849172
C135	C	0.820633	0.274932	0.449710
C136	C	1.320633	0.774932	0.949710
H137	H	0.854723	0.275894	0.559005
H138	H	1.354723	0.775894	1.059005
H139	H	0.807923	0.341322	0.405383
H140	H	1.307923	0.841322	0.905383
H141	H	0.758886	0.247911	0.466041
H142	H	1.258886	0.747911	0.966041
H143	H	0.560767	0.114935	0.241003
H144	H	1.060767	0.614935	0.741003
