data_functionalizedCrystal
_audit_creation_method	'MofGen! by Chris Wilmer'
_symmetry_space_group_name_H-M	'P1'
_symmetry_Int_Tables_number	1
_symmetry_cell_setting	triclinic
loop_
_symmetry_equiv_pos_as_xyz
  x,y,z
_cell_length_a	12.759401
_cell_length_b	12.645330
_cell_length_c	12.759393
_cell_angle_alpha	89.969748
_cell_angle_beta	89.982620
_cell_angle_gamma	90.017853
loop_
_atom_site_label
_atom_site_type_symbol
_atom_site_fract_x
_atom_site_fract_y
_atom_site_fract_z
Zn1	Zn	1.606222	-0.421970	-0.593992
Zn2	Zn	1.606111	-0.599275	-0.418317
Zn3	Zn	1.430527	-0.422026	-0.418332
Zn4	Zn	1.430503	-0.599193	-0.593959
O5	O	1.518341	-0.510616	-0.506150
O6	O	1.753228	-0.445501	-0.570697
O7	O	1.582782	-0.575820	-0.271298
O8	O	1.453890	-0.273672	-0.441654
O9	O	1.753146	-0.575766	-0.441629
O10	O	1.582972	-0.273630	-0.570711
O11	O	1.453782	-0.445597	-0.271309
O12	O	1.283503	-0.445517	-0.441621
O13	O	1.453849	-0.575626	-0.740984
O14	O	1.283486	-0.575680	-0.570653
O15	O	1.582949	-0.445421	-0.741009
O16	O	1.582759	-0.747611	-0.441596
O17	O	1.453741	-0.747551	-0.570639
C18	C	1.245373	-0.510596	-0.506136
C19	C	1.128597	-0.510614	-0.506155
C20	C	1.073753	-0.578498	-0.573231
C21	C	0.964029	-0.578512	-0.573242
C22	C	0.964002	-0.442753	-0.439092
C23	C	1.073724	-0.442735	-0.439087
C24	C	1.128626	-0.646377	-0.640298
C25	C	1.073782	-0.714268	-0.707379
C26	C	0.964058	-0.714281	-0.707390
C27	C	0.909178	-0.646404	-0.640321
C28	C	1.518264	-0.786046	-0.506135
C29	C	1.518327	-0.903876	-0.506164
C30	C	1.437497	-1.071446	-0.587595
C31	C	1.437084	-0.948886	-0.587334
C32	C	1.488356	-0.948480	-0.395443
C33	C	1.487863	-1.071079	-0.395937
C34	C	1.629624	-1.070962	-0.534556
C35	C	1.628942	-0.948355	-0.536977
C36	C	1.792374	-0.510636	-0.506165
C37	C	1.909151	-0.510645	-0.506171
C38	C	1.518409	-0.510508	-0.780183
C39	C	1.518438	-0.510462	-0.896960
C40	C	1.518446	-0.234111	-0.506188
C41	C	1.518491	-0.116281	-0.506204
C42	C	1.451296	-0.442642	-0.951834
C43	C	1.451328	-0.442610	-1.061558
C44	C	1.585653	-0.578222	-1.061525
C45	C	1.585615	-0.578258	-0.951803
C46	C	1.384119	-0.374846	-0.896991
C47	C	1.316973	-0.307020	-0.951865
C48	C	1.317005	-0.306988	-1.061589
C49	C	1.384183	-0.374783	-1.116439
C50	C	1.518333	-0.510647	-0.233183
C51	C	1.518508	-0.510394	-0.116407
H52	H	1.118379	-0.387450	-0.384476
H53	H	1.544296	-1.100742	-0.333226
H54	H	1.406624	-1.099773	-0.371918
H55	H	1.262324	-0.251768	-1.106264
H56	H	1.384088	-0.374862	-0.807648
N57	N	1.560023	-0.911909	-0.317295
N58	N	1.634162	-0.852420	-0.342392
H59	H	1.684780	-0.826590	-0.287203
N60	N	1.657288	-0.911772	-0.639200
N61	N	1.596309	-0.853157	-0.689232
H62	H	1.616324	-0.827315	-0.761429
N63	N	0.907946	-0.373444	-0.370566
N64	N	0.920165	-0.380363	-0.273609
H65	H	0.880576	-0.331416	-0.225207
N66	N	0.908054	-0.783638	-0.775910
N67	N	0.920296	-0.881447	-0.768767
H68	H	0.880747	-0.930438	-0.817158
H69	H	1.118473	-0.769524	-0.761990
H70	H	1.217969	-0.646375	-0.640294
H71	H	1.407965	-0.917872	-0.370989
N72	N	1.384179	-0.374788	-1.228520
N73	N	1.362178	-0.457476	-1.277446
H74	H	1.362162	-0.457483	-1.356602
N75	N	1.654261	-0.647462	-1.117566
N76	N	1.654284	-0.647420	-1.215531
H77	H	1.702741	-0.696321	-1.255112
N78	N	1.663916	-1.109657	-0.634116
N79	N	1.606857	-1.171113	-0.685389
H80	H	1.631065	-1.198445	-0.755706
N81	N	1.708634	-0.909906	-0.468032
N82	N	1.724985	-0.812737	-0.460543
H83	H	1.781265	-0.785583	-0.411839
H84	H	1.640302	-0.633469	-0.907124
H85	H	1.689966	-1.099955	-0.475275
N86	N	1.460609	-0.911057	-0.690329
N87	N	1.477447	-0.975201	-0.762908
H88	H	1.494059	-0.948490	-0.835655
H89	H	1.262273	-0.251830	-0.907198
N90	N	1.460870	-1.108319	-0.690917
N91	N	1.461186	-1.205274	-0.709945
H92	H	1.477721	-1.231312	-0.782917
H93	H	1.355624	-1.102349	-0.569052
N94	N	0.797097	-0.646395	-0.640348
N95	N	0.748162	-0.624334	-0.722344
H96	H	0.669006	-0.624328	-0.722362
N97	N	1.333724	-0.912222	-0.563773
N98	N	1.261671	-0.977178	-0.547464
H99	H	1.188668	-0.951285	-0.530822
