data_functionalizedCrystal
_audit_creation_method	'MofGen! by Chris Wilmer'
_symmetry_space_group_name_H-M	'P1'
_symmetry_Int_Tables_number	1
_symmetry_cell_setting	triclinic
loop_
_symmetry_equiv_pos_as_xyz
  x,y,z
_cell_length_a	14.044220
_cell_length_b	12.811457
_cell_length_c	11.892295
_cell_angle_alpha	91.493646
_cell_angle_beta	94.230248
_cell_angle_gamma	88.595730
loop_
_atom_site_label
_atom_site_type_symbol
_atom_site_fract_x
_atom_site_fract_y
_atom_site_fract_z
O1	O	0.130887	1.401365	0.049654
O2	O	0.142793	1.099113	0.018667
O3	O	-0.001191	1.245702	0.033707
O4	O	0.274872	1.254777	0.034615
O5	O	0.010758	1.233464	0.220453
O6	O	0.154742	1.086876	0.205414
O7	O	0.142836	1.389128	0.236401
Zn8	Zn	0.150686	1.236059	0.250557
Zn9	Zn	0.134943	1.252182	0.004511
O10	O	0.286821	1.242539	0.221361
C11	C	0.147735	1.054079	0.108051
C12	C	0.144644	0.938122	0.096163
C13	C	0.151847	0.706884	0.277439
C14	C	0.148943	0.597933	0.266275
C15	C	0.135926	0.611265	0.062672
C16	C	0.138830	0.720217	0.073836
C17	C	0.146792	0.768023	0.181223
C18	C	0.149702	0.876976	0.192386
C19	C	0.136679	0.890307	-0.011215
C20	C	0.133775	0.781355	-0.022379
C21	C	-0.030573	1.235611	0.126673
C22	C	-0.135924	1.223764	0.125460
C23	C	-0.328814	1.202105	0.123223
C24	C	-0.385563	1.286131	0.131834
C25	C	-0.492894	1.274080	0.130590
C26	C	-0.221473	1.214155	0.124468
C27	C	0.316202	1.252630	0.128392
C28	C	0.421552	1.264478	0.129598
C29	C	0.137895	1.434162	0.147015
C30	C	0.140985	1.550119	0.158895
N31	N	0.124192	1.263186	-0.163410
C32	C	0.236356	1.148454	-0.411880
C33	C	0.228818	1.156153	-0.529428
C34	C	0.101574	1.286276	-0.516058
C35	C	0.109112	1.278577	-0.398509
C36	C	0.176506	1.209665	-0.346425
C37	C	0.184048	1.201972	-0.228873
C38	C	0.056800	1.332090	-0.215506
C39	C	0.049262	1.339788	-0.333054
N40	N	0.161430	1.225063	0.418478
H41	H	0.153065	0.548157	0.344624
O42	O	-0.001437	1.391401	-0.151889
C43	C	-0.056324	1.325790	-0.090117
H44	H	-0.061257	1.245714	-0.133976
H45	H	-0.020981	1.317191	-0.001321
C46	C	-0.151303	1.472257	-0.029475
C47	C	-0.157368	1.373909	-0.083349
H48	H	-0.213630	1.501940	-0.025295
H49	H	-0.114322	1.516462	-0.071088
H50	H	-0.121846	1.465078	0.044517
H51	H	-0.186814	1.381091	-0.157343
H52	H	-0.194356	1.329707	-0.041748
O53	O	-0.367162	1.105565	0.113381
C54	C	-0.467344	1.114876	0.114301
H55	H	-0.487346	1.191835	0.157773
H56	H	-0.500682	1.113175	0.023933
C57	C	-0.480157	0.928864	0.125265
C58	C	-0.504723	1.023382	0.178666
H59	H	-0.503216	0.872424	0.164963
H60	H	-0.412663	0.922589	0.124640
H61	H	-0.507940	0.927461	0.049960
H62	H	-0.476930	1.024789	0.253964
H63	H	-0.572214	1.029655	0.179305
H64	H	-0.353544	1.367124	0.140062
H65	H	0.156191	0.915897	0.279825
H66	H	0.238926	1.145864	-0.186467
H67	H	0.291237	1.092350	-0.369471
H68	H	0.158343	0.745808	0.364877
H69	H	0.277552	1.106307	-0.582719
H70	H	0.129428	0.572324	-0.024757
O71	O	0.036397	1.353431	-0.566816
C72	C	0.042674	1.347202	-0.684592
H73	H	0.116501	1.315791	-0.703901
H74	H	-0.014044	1.292532	-0.723979
C75	C	-0.064254	1.495261	-0.710238
C76	C	0.026425	1.456689	-0.733954
H77	H	-0.074282	1.562796	-0.740690
H78	H	-0.068486	1.499455	-0.630891
H79	H	-0.111509	1.449692	-0.743062
H80	H	0.073678	1.502250	-0.701119
H81	H	0.030665	1.452505	-0.813297
O82	O	-0.016218	1.406611	-0.383812
C83	C	-0.079866	1.349934	-0.458062
H84	H	-0.044279	1.272885	-0.483675
H85	H	-0.147216	1.333563	-0.414148
C86	C	-0.150194	1.508848	-0.532430
C87	C	-0.106482	1.414219	-0.563896
H88	H	-0.166616	1.548503	-0.597711
H89	H	-0.107316	1.547034	-0.482403
H90	H	-0.206313	1.495193	-0.495834
H91	H	-0.050358	1.427876	-0.600478
H92	H	-0.149351	1.376037	-0.613931
H93	H	0.132568	0.940097	-0.089562
O94	O	0.126213	0.734853	-0.126664
C95	C	0.206130	0.668029	-0.139623
H96	H	0.268007	0.694159	-0.078786
H97	H	0.187137	0.584611	-0.120635
C98	C	0.159500	0.640324	-0.336328
C99	C	0.235500	0.672424	-0.261614
H100	H	0.177615	0.643031	-0.411579
H101	H	0.105656	0.685342	-0.327597
H102	H	0.143679	0.570812	-0.320491
H103	H	0.251311	0.741939	-0.277442
H104	H	0.289347	0.627418	-0.270350
