data_functionalizedCrystal
_audit_creation_method	'MofGen! by Chris Wilmer'
_symmetry_space_group_name_H-M	'P1'
_symmetry_Int_Tables_number	1
_symmetry_cell_setting	triclinic
loop_
_symmetry_equiv_pos_as_xyz
  x,y,z
_cell_length_a	10.967926
_cell_length_b	19.188930
_cell_length_c	10.066280
_cell_angle_alpha	99.850730
_cell_angle_beta	111.730639
_cell_angle_gamma	83.946584
loop_
_atom_site_label
_atom_site_type_symbol
_atom_site_fract_x
_atom_site_fract_y
_atom_site_fract_z
O1	O	1.696072	0.121082	0.285373
O2	O	1.320042	0.123278	0.196936
O3	O	1.518913	0.020802	0.243734
O4	O	1.497202	0.223558	0.238575
O5	O	1.552603	0.039868	0.478627
O6	O	1.353733	0.142344	0.431828
O7	O	1.729763	0.140148	0.520266
Zn8	Zn	1.547097	0.144273	0.513341
Zn9	Zn	1.502708	0.119153	0.203860
O10	O	1.530893	0.242624	0.473468
C11	C	1.288780	0.131210	0.303068
C12	C	1.145433	0.126433	0.269356
C13	C	1.098977	0.134180	0.376007
C14	C	0.950821	0.129243	0.341167
C15	C	1.535056	0.004306	0.361019
C16	C	1.532948	-0.073251	0.360535
C17	C	1.649637	-0.115214	0.387986
C18	C	1.647652	-0.188090	0.387497
C19	C	1.528975	-0.218997	0.359585
C20	C	1.412269	-0.177025	0.332123
C21	C	1.414255	-0.104152	0.332598
N22	N	1.449726	-0.322815	0.418188
N23	N	1.447847	-0.392041	0.417741
C24	C	1.522981	-0.438560	0.358147
N25	N	1.600088	-0.413236	0.299039
N26	N	1.601972	-0.344003	0.299493
C27	C	1.526807	-0.298015	0.359065
C28	C	1.637526	-0.559544	0.385068
C29	C	1.635534	-0.632422	0.384569
C30	C	1.400150	-0.621354	0.329208
C31	C	1.402143	-0.548479	0.329693
C32	C	1.520835	-0.517578	0.357631
C33	C	1.761025	0.132215	0.414131
C34	C	1.904371	0.136992	0.447833
C35	C	1.514749	0.259119	0.356179
C36	C	1.516856	0.336676	0.356654
N37	N	1.577401	0.161417	0.724556
N38	N	1.472415	0.102004	-0.007352
C39	C	1.536581	0.138308	0.939922
C40	C	1.513226	0.125108	0.777276
H41	H	1.168890	0.144464	0.493109
H42	H	1.734171	-0.534384	0.407809
Br43	Br	1.810713	-0.073283	0.425861
H44	H	1.075522	0.116144	0.152255
Br45	Br	1.656948	0.206409	1.065363
H46	H	1.742676	-0.222263	0.409845
H47	H	0.880914	0.118954	0.224058
Br48	Br	1.251203	-0.218970	0.294223
Br49	Br	1.255878	-0.047198	0.295337
H50	H	1.730560	-0.666589	0.406916
H51	H	0.974278	0.147277	0.564944
Br52	Br	1.239083	-0.663293	0.291312
H53	H	1.307123	-0.514311	0.307348
Br54	Br	1.392824	0.057018	0.651833
Br55	Br	1.697785	0.229516	0.849991
H56	H	1.400183	0.061155	0.917375
