data_functionalizedCrystal
_audit_creation_method	'MofGen! by Chris Wilmer'
_symmetry_space_group_name_H-M	'P1'
_symmetry_Int_Tables_number	1
_symmetry_cell_setting	triclinic
loop_
_symmetry_equiv_pos_as_xyz
  x,y,z
_cell_length_a	10.654550
_cell_length_b	12.837942
_cell_length_c	9.130313
_cell_angle_alpha	89.998975
_cell_angle_beta	89.996220
_cell_angle_gamma	89.656921
loop_
_atom_site_label
_atom_site_type_symbol
_atom_site_fract_x
_atom_site_fract_y
_atom_site_fract_z
O1	O	1.683735	0.145718	-0.121920
O2	O	1.319772	0.159602	-0.121897
O3	O	1.493683	0.001699	-0.121899
O4	O	1.509824	0.303621	-0.121918
O5	O	1.493681	0.001703	0.121700
O6	O	1.319770	0.159606	0.121702
O7	O	1.683734	0.145722	0.121679
Cu8	Cu	1.501752	0.152665	0.143933
Cu9	Cu	1.501754	0.152660	-0.144151
O10	O	1.509822	0.303625	0.121681
C11	C	1.272862	0.158585	-0.000094
C12	C	1.133086	0.155535	-0.000085
C13	C	1.488230	-0.036959	-0.000100
C14	C	1.471967	-0.152153	-0.000101
C15	C	1.063745	0.248505	-0.000112
C16	C	0.932411	0.245633	-0.000138
C17	C	0.939770	0.056812	-0.000114
C18	C	1.071101	0.059685	-0.000079
C19	C	1.059496	0.357520	-0.000132
C20	C	0.928162	0.354648	-0.000157
C21	C	1.667472	-0.391705	-0.000145
C22	C	1.652197	-0.499941	-0.000146
C23	C	1.426146	-0.476862	-0.000116
C24	C	1.441420	-0.368626	-0.000115
C25	C	1.562087	-0.326052	-0.000127
C26	C	1.577360	-0.217814	-0.000115
C27	C	1.351309	-0.194737	-0.000096
C28	C	1.336035	-0.302973	-0.000097
C29	C	1.730644	0.146740	-0.000127
C30	C	1.870420	0.149790	-0.000146
C31	C	1.515276	0.342283	-0.000121
C32	C	1.531538	0.457477	-0.000130
N33	N	1.501759	0.152668	0.346555
N34	N	1.501755	0.152648	-0.346774
C35	C	1.578792	0.082772	0.423206
C36	C	1.578787	0.082760	0.576543
C37	C	1.424714	0.222547	0.576565
C38	C	1.424713	0.222554	0.423230
C39	C	1.667748	0.002070	0.423195
C40	C	1.667744	0.002058	0.576532
H41	H	1.127554	-0.016021	-0.000036
H42	H	1.766195	0.019834	0.618141
H43	H	0.886085	0.387595	0.105009
C44	C	1.105419	0.415116	0.137588
C45	C	1.009748	0.458642	0.248586
C46	C	1.055672	0.516236	0.386302
C47	C	1.197266	0.530305	0.413021
C48	C	1.292945	0.486779	0.302021
C49	C	1.247022	0.429184	0.164304
H50	H	0.904924	0.448228	0.228809
H51	H	0.984842	0.548457	0.468472
H52	H	1.231261	0.572940	0.514968
H53	H	1.397770	0.497192	0.321797
H54	H	1.317851	0.396963	0.082134
H55	H	1.765723	-0.357041	-0.000140
H56	H	1.098940	0.392230	-0.105306
H57	H	0.890912	0.395721	-0.102113
H58	H	1.265497	-0.141270	-0.000069
C59	C	1.203309	-0.349813	-0.000081
C60	C	1.112173	-0.325421	0.126429
C61	C	0.979445	-0.372260	0.126449
C62	C	0.937854	-0.443493	-0.000042
C63	C	1.028993	-0.467889	-0.126562
C64	C	1.161721	-0.421049	-0.126582
H65	H	1.142959	-0.272687	0.220074
H66	H	0.911979	-0.354200	0.220109
H67	H	0.839602	-0.478166	-0.000027
H68	H	0.998207	-0.520623	-0.220207
H69	H	1.229187	-0.439109	-0.220241
C70	C	1.627017	-0.105654	0.366963
C71	C	1.703855	-0.203414	0.407695
C72	C	1.663123	-0.311133	0.351463
C73	C	1.545551	-0.321093	0.254498
C74	C	1.468705	-0.223330	0.213761
C75	C	1.509438	-0.115610	0.269993
H76	H	1.790895	-0.196044	0.479479
H77	H	1.720010	-0.383504	0.381620
H78	H	1.515398	-0.400834	0.212872
H79	H	1.381665	-0.230699	0.141977
H80	H	1.452551	-0.043239	0.239836
H81	H	0.889286	-0.021226	-0.000132
C82	C	1.794653	0.036208	0.358927
C83	C	1.914730	-0.026230	0.394302
C84	C	2.041633	0.007913	0.330034
C85	C	2.048459	0.104495	0.230392
C86	C	1.928378	0.166939	0.195011
C87	C	1.801475	0.132796	0.259279
H88	H	1.909681	-0.097732	0.468068
H89	H	2.130525	-0.038312	0.356226
H90	H	2.142401	0.129771	0.182817
H91	H	1.933427	0.238441	0.121245
H92	H	1.712583	0.179021	0.233087
H93	H	1.361976	0.279459	0.360823
C94	C	1.615445	-0.099758	0.640772
C95	C	1.698388	-0.168211	0.740397
C96	C	1.646098	-0.270029	0.804631
C97	C	1.510865	-0.303395	0.769240
C98	C	1.427914	-0.234942	0.669610
C99	C	1.480204	-0.133123	0.605376
H100	H	1.798502	-0.143512	0.766600
H101	H	1.707505	-0.320703	0.878384
H102	H	1.472157	-0.378767	0.816789
H103	H	1.327799	-0.259640	0.643406
H104	H	1.418797	-0.082450	0.531623
H105	H	1.675613	-0.183153	-0.000119
H106	H	1.738013	-0.553393	-0.000165
H107	H	1.327904	-0.511545	-0.000122
H108	H	1.361985	0.279446	0.639010
