data_functionalizedCrystal
_audit_creation_method	'MofGen! by Chris Wilmer'
_symmetry_space_group_name_H-M	'P1'
_symmetry_Int_Tables_number	1
_symmetry_cell_setting	triclinic
loop_
_symmetry_equiv_pos_as_xyz
  x,y,z
_cell_length_a	18.215407
_cell_length_b	15.299816
_cell_length_c	18.215399
_cell_angle_alpha	80.342622
_cell_angle_beta	90.017813
_cell_angle_gamma	80.345132
loop_
_atom_site_label
_atom_site_type_symbol
_atom_site_fract_x
_atom_site_fract_y
_atom_site_fract_z
Zn1	Zn	1.175788	-0.359210	0.466849
Zn2	Zn	1.675788	0.140790	0.966849
Zn3	Zn	1.196992	-0.510040	0.365102
Zn4	Zn	1.696992	-0.010040	0.865102
Zn5	Zn	1.052723	-0.359223	0.343803
Zn6	Zn	1.552723	0.140777	0.843803
Zn7	Zn	1.073973	-0.509974	0.488122
Zn8	Zn	1.573973	-0.009974	0.988122
O9	O	1.124869	-0.434612	0.415969
O10	O	1.624869	0.065388	0.915969
O11	O	1.281588	-0.379239	0.453363
O12	O	1.781588	0.120761	0.953363
O13	O	1.177835	-0.490067	0.259297
O14	O	1.677835	0.009933	0.759297
O15	O	1.051280	-0.233009	0.342309
O16	O	1.551280	0.266991	0.842309
O17	O	1.297167	-0.490054	0.378610
O18	O	1.797167	0.009946	0.878610
O19	O	1.141696	-0.232999	0.432710
O20	O	1.641696	0.267001	0.932710
O21	O	1.071841	-0.379263	0.243649
O22	O	1.571841	0.120737	0.743649
O23	O	0.952554	-0.379199	0.362936
O24	O	1.452554	0.120801	0.862936
O25	O	1.087498	-0.489942	0.588280
O26	O	1.587498	0.010058	1.088280
O27	O	0.968167	-0.489955	0.468967
O28	O	1.468167	0.010045	0.968967
O29	O	1.162302	-0.379175	0.572651
O30	O	1.662302	0.120825	1.072651
O31	O	1.198441	-0.636244	0.399238
O32	O	1.698441	-0.136244	0.899238
O33	O	1.108059	-0.636196	0.489620
O34	O	1.608059	-0.136196	0.989620
C35	C	0.933657	-0.434572	0.415949
C36	C	1.433657	0.065428	0.915949
C37	C	0.851859	-0.434577	0.415961
C38	C	1.351859	0.065423	0.915961
C39	C	0.578705	-0.377022	0.454984
C40	C	1.078705	0.122978	0.954984
C41	C	0.655561	-0.377007	0.454979
C42	C	1.155561	0.122993	0.954979
C43	C	0.671779	-0.492231	0.376975
C44	C	1.171779	0.007769	0.876975
C45	C	0.594924	-0.492249	0.376984
C46	C	1.094924	0.007751	0.876984
C47	C	0.548388	-0.434640	0.415987
C48	C	1.048388	0.065360	0.915987
C49	C	0.702100	-0.434607	0.415973
C50	C	1.202100	0.065393	0.915973
C51	C	0.785431	-0.434591	0.415968
C52	C	1.285431	0.065409	0.915968
C53	C	0.465052	-0.434656	0.415993
C54	C	0.965052	0.065344	0.915993
C55	C	1.157877	-0.668946	0.449065
C56	C	1.657877	-0.168946	0.949065
C57	C	1.172065	-0.769194	0.463248
C58	C	1.672065	-0.269194	0.963248
C59	C	1.023947	-1.052100	0.314851
C60	C	1.523947	-0.552100	0.814851
C61	C	1.010613	-0.957911	0.301527
C62	C	1.510613	-0.457911	0.801527
C63	C	1.050975	-0.910727	0.341956
C64	C	1.550975	-0.410727	0.841956
C65	C	1.104673	-0.957741	0.395711
C66	C	1.604673	-0.457741	0.895711
C67	C	1.118004	-1.051940	0.409041
C68	C	1.618004	-0.551940	0.909041
C69	C	1.145032	-0.910567	0.436145
C70	C	1.645032	-0.410567	0.936145
C71	C	1.198730	-0.957581	0.489901
C72	C	1.698730	-0.457581	0.989901
C73	C	1.212060	-1.051770	0.503227
C74	C	1.712060	-0.551770	1.003227
C75	C	1.171698	-1.098954	0.462799
C76	C	1.671698	-0.598954	0.962799
C77	C	1.131701	-0.816369	0.422816
C78	C	1.631701	-0.316369	0.922816
C79	C	1.225758	-0.816209	0.517006
C80	C	1.725758	-0.316209	1.017006
C81	C	1.239092	-0.910398	0.530330
C82	C	1.739092	-0.410398	1.030330
C83	C	1.316828	-0.434652	0.415990
C84	C	1.816828	0.065348	0.915990
C85	C	1.398629	-0.434670	0.415999
C86	C	1.898629	0.065330	0.915999
C87	C	1.124905	-0.434550	0.607913
C88	C	1.624905	0.065450	1.107913
C89	C	1.124920	-0.434523	0.689709
C90	C	1.624920	0.065477	1.189709
C91	C	1.091753	-0.199363	0.382760
C92	C	1.591753	0.300637	0.882760
C93	C	1.077640	-0.099114	0.368609
C94	C	1.577640	0.400886	0.868609
C95	C	1.124866	-0.434609	0.224763
C96	C	1.624866	0.065391	0.724763
C97	C	1.124958	-0.434381	0.142932
C98	C	1.624958	0.065619	0.642932
C99	C	1.163880	-0.376793	0.869758
C100	C	1.663880	0.123207	1.369758
C101	C	1.163885	-0.376767	0.946613
C102	C	1.663885	0.123233	1.446613
C103	C	1.085993	-0.492114	0.962877
C104	C	1.585993	0.007886	1.462877
C105	C	1.085984	-0.492135	0.886023
C106	C	1.585984	0.007865	1.386023
C107	C	1.124932	-0.434476	0.839466
C108	C	1.624932	0.065524	1.339466
C109	C	1.124946	-0.434428	0.993175
C110	C	1.624946	0.065572	1.493175
C111	C	1.124951	-0.434400	1.076505
C112	C	1.624951	0.065600	1.576505
C113	C	1.124926	-0.434502	0.756130
C114	C	1.624926	0.065498	1.256130
H115	H	0.680241	-0.330090	0.486736
H116	H	1.180241	0.169910	0.986736
H117	H	1.195591	-0.329841	0.831852
H118	H	1.695591	0.170159	1.331852
H119	H	1.182554	-1.175650	0.473642
H120	H	1.682554	-0.675650	0.973642
C121	C	1.036428	-0.808464	0.327626
C122	C	1.536428	-0.308464	0.827626
C123	C	1.013186	-0.777254	0.393254
C124	C	1.513186	-0.277254	0.893254
C125	C	0.999769	-0.683052	0.380074
C126	C	1.499769	-0.183052	0.880074
H127	H	1.080865	-0.787012	0.311948
H128	H	1.580865	-0.287012	0.811948
H129	H	0.998642	-0.787184	0.289850
H130	H	1.498642	-0.287184	0.789850
H131	H	1.050969	-0.798525	0.431017
H132	H	1.550969	-0.298525	0.931017
H133	H	0.968744	-0.798682	0.408942
H134	H	1.468744	-0.298682	0.908942
H135	H	0.961983	-0.661772	0.342298
H136	H	1.461983	-0.161772	0.842298
H137	H	1.044209	-0.661608	0.364395
H138	H	1.544209	-0.161608	0.864395
H139	H	0.983992	-0.661864	0.424597
H140	H	1.483992	-0.161864	0.924597
H141	H	1.054286	-0.539059	1.000794
H142	H	1.554286	-0.039059	1.500794
H143	H	1.282813	-0.948690	0.574098
H144	H	1.782813	-0.448690	1.074098
C145	C	0.952318	-0.907032	0.243104
C146	C	1.452318	-0.407032	0.743104
C147	C	0.919840	-0.968510	0.210534
C148	C	1.419840	-0.468510	0.710534
C149	C	0.866142	-0.921673	0.156700
C150	C	1.366142	-0.421673	0.656700
H151	H	0.914970	-0.870289	0.265944
H152	H	1.414970	-0.370289	0.765944
H153	H	0.975277	-0.870309	0.205829
H154	H	1.475277	-0.370309	0.705829
H155	H	0.896880	-1.005217	0.247803
H156	H	1.396880	-0.505217	0.747803
H157	H	0.957169	-1.005255	0.187680
H158	H	1.457169	-0.505255	0.687680
H159	H	0.889102	-0.884950	0.119424
H160	H	1.389102	-0.384950	0.619424
H161	H	0.828800	-0.884931	0.179545
H162	H	1.328800	-0.384931	0.679545
H163	H	0.844104	-0.963378	0.134590
H164	H	1.344104	-0.463378	0.634590
C165	C	0.528309	-0.314450	0.497412
C166	C	1.028309	0.185550	0.997412
C167	C	0.571315	-0.264007	0.531580
C168	C	1.071315	0.235993	1.031580
C169	C	0.524920	-0.206367	0.570683
C170	C	1.024920	0.293633	1.070683
H171	H	0.492752	-0.275035	0.463832
H172	H	0.992752	0.224965	0.963832
H173	H	0.503229	-0.348990	0.534352
H174	H	1.003229	0.151010	1.034352
H175	H	0.596383	-0.229470	0.494644
H176	H	1.096383	0.270530	0.994644
H177	H	0.606871	-0.303399	0.565172
H178	H	1.106871	0.196601	1.065172
H179	H	0.499840	-0.240907	0.607624
H180	H	0.999840	0.259093	1.107624
H181	H	0.489365	-0.166958	0.537098
H182	H	0.989365	0.333042	1.037098
H183	H	0.554094	-0.172141	0.593877
H184	H	1.054094	0.327859	1.093877
C185	C	0.722423	-0.554670	0.334638
C186	C	1.222423	-0.054670	0.834638
C187	C	0.796216	-0.542305	0.342957
C188	C	1.296216	-0.042305	0.842957
C189	C	0.842886	-0.599798	0.303956
C190	C	1.342886	-0.099798	0.803956
H191	H	0.718479	-0.615327	0.353850
H192	H	1.218479	-0.115327	0.853850
H193	H	0.707974	-0.541389	0.283318
H194	H	1.207974	-0.041389	0.783318
H195	H	0.810660	-0.555593	0.394267
H196	H	1.310660	-0.055593	0.894267
H197	H	0.800183	-0.481660	0.323741
H198	H	1.300183	0.018340	0.823741
H199	H	0.828437	-0.586517	0.252636
H200	H	1.328437	-0.086517	0.752636
H201	H	0.838935	-0.660451	0.323172
H202	H	1.338935	-0.160451	0.823172
H203	H	0.892959	-0.591410	0.309590
H204	H	1.392959	-0.091410	0.809590
H205	H	0.570241	-0.539174	0.345228
H206	H	1.070241	-0.039174	0.845228
C207	C	0.980234	-1.103489	0.271013
C208	C	1.480234	-0.603489	0.771013
C209	C	1.003415	-1.196041	0.294182
C210	C	1.503415	-0.696041	0.794182
C211	C	0.963167	-1.243409	0.253805
C212	C	1.463167	-0.743409	0.753805
H213	H	0.928587	-1.088200	0.279529
H214	H	1.428587	-0.588200	0.779529
H215	H	0.988867	-1.088139	0.219386
H216	H	1.488867	-0.588139	0.719386
H217	H	0.994776	-1.211385	0.345796
H218	H	1.494776	-0.711385	0.845796
H219	H	1.055056	-1.211357	0.285664
H220	H	1.555056	-0.711357	0.785664
H221	H	0.971799	-1.228059	0.202178
H222	H	1.471799	-0.728059	0.702178
H223	H	0.911521	-1.228112	0.262324
H224	H	1.411521	-0.728112	0.762324
H225	H	0.978894	-1.306210	0.269514
H226	H	1.478894	-0.806210	0.769514
C227	C	1.206094	-0.314171	0.979639
C228	C	1.706094	0.185829	1.479639
C229	C	1.197748	-0.326468	1.056907
C230	C	1.697748	0.173532	1.556907
C231	C	1.236610	-0.268805	1.087353
C232	C	1.736610	0.231195	1.587353
H233	H	1.257422	-0.327322	0.969000
H234	H	1.757422	0.172678	1.469000
H235	H	1.186777	-0.253555	0.958524
H236	H	1.686777	0.246445	1.458524
H237	H	1.217068	-0.387070	1.078015
H238	H	1.717068	0.112930	1.578015
H239	H	1.146429	-0.313310	1.067567
H240	H	1.646429	0.186690	1.567567
H241	H	1.217293	-0.208190	1.066238
H242	H	1.717293	0.291810	1.566238
H243	H	1.287936	-0.281962	1.076708
H244	H	1.787936	0.218038	1.576708
H245	H	1.230947	-0.277135	1.139781
H246	H	1.730947	0.222865	1.639781
H247	H	1.087979	-0.778098	0.379048
H248	H	1.587979	-0.278098	0.879048
C249	C	1.270298	-1.102979	0.561589
C250	C	1.770298	-0.602979	1.061589
C251	C	1.273320	-1.195567	0.564623
C252	C	1.773320	-0.695567	1.064623
C253	C	1.326952	-1.242766	0.618384
C254	C	1.826952	-0.742766	1.118384
H255	H	1.317607	-1.087616	0.548735
H256	H	1.817607	-0.587616	1.048735
H257	H	1.257311	-1.087563	0.608862
H258	H	1.757311	-0.587563	1.108862
H259	H	1.286311	-1.210976	0.517361
H260	H	1.786311	-0.710976	1.017361
H261	H	1.226024	-1.210957	0.577486
H262	H	1.726024	-0.710957	1.077486
H263	H	1.313965	-1.227350	0.665656
H264	H	1.813965	-0.727350	1.165656
H265	H	1.374257	-1.227396	0.605525
H266	H	1.874257	-0.727396	1.105525
H267	H	1.329005	-1.305591	0.620454
H268	H	1.829005	-0.805591	1.120454
H269	H	1.054263	-0.539106	0.861359
H270	H	1.554263	-0.039106	1.361359
H271	H	1.258623	-0.777793	0.549928
H272	H	1.758623	-0.277793	1.049928
