data_functionalizedCrystal
_audit_creation_method	'MofGen! by Chris Wilmer'
_symmetry_space_group_name_H-M	'P1'
_symmetry_Int_Tables_number	1
_symmetry_cell_setting	triclinic
loop_
_symmetry_equiv_pos_as_xyz
  x,y,z
_cell_length_a	17.666332
_cell_length_b	17.699083
_cell_length_c	17.699083
_cell_angle_alpha	83.283015
_cell_angle_beta	89.992629
_cell_angle_gamma	89.996676
loop_
_atom_site_label
_atom_site_type_symbol
_atom_site_fract_x
_atom_site_fract_y
_atom_site_fract_z
O1	O	0.062844	-1.004081	-0.095712
O2	O	0.562844	-0.504081	0.404288
O3	O	0.062869	-0.783703	-0.108165
O4	O	0.562869	-0.283703	0.391835
O5	O	0.062849	-0.900118	0.008250
O6	O	0.562849	-0.400118	0.508250
O7	O	0.062864	-0.887666	-0.212128
O8	O	0.562864	-0.387666	0.287872
O9	O	-0.063048	-0.900098	0.008257
O10	O	0.436952	-0.400098	0.508257
O11	O	-0.063028	-0.783682	-0.108159
O12	O	0.436972	-0.283682	0.391841
O13	O	-0.063053	-1.004061	-0.095706
O14	O	0.436947	-0.504061	0.404294
Cu15	Cu	-0.074536	-0.893870	-0.101932
Cu16	Cu	0.425464	-0.393870	0.398068
Cu17	Cu	0.074352	-0.893894	-0.101939
Cu18	Cu	0.574352	-0.393894	0.398061
O19	O	-0.063033	-0.887645	-0.212122
O20	O	0.436967	-0.387645	0.287878
C21	C	-0.000100	-0.899662	0.036451
C22	C	0.499900	-0.399662	0.536451
C23	C	-0.000100	-0.898323	0.120469
C24	C	0.499900	-0.398323	0.620469
C25	C	-0.000077	-0.755495	-0.107716
C26	C	0.499923	-0.255495	0.392284
C27	C	-0.000067	-0.671477	-0.106377
C28	C	0.499933	-0.171477	0.393623
N29	N	-0.179255	-0.893858	-0.101926
N30	N	0.320745	-0.393858	0.398074
C31	C	-0.218874	-0.945424	-0.050403
C32	C	0.281126	-0.445424	0.449597
C33	C	-0.298121	-0.945428	-0.050399
C34	C	0.201879	-0.445428	0.449601
C35	C	-0.337748	-0.893874	-0.101932
C36	C	0.162252	-0.393874	0.398068
C37	C	-0.298119	-0.842299	-0.153460
C38	C	0.201881	-0.342299	0.346540
C39	C	-0.218873	-0.842291	-0.153457
C40	C	0.281127	-0.342291	0.346543
N41	N	-0.462161	-0.884117	-0.168921
N42	N	0.037839	-0.384117	0.331079
N43	N	-0.537441	-0.884129	-0.168921
N44	N	-0.037441	-0.384129	0.331079
C45	C	-0.576512	-0.893894	-0.101943
C46	C	-0.076512	-0.393894	0.398057
N47	N	-0.537457	-0.903662	-0.034962
N48	N	-0.037457	-0.403662	0.465038
N49	N	-0.462170	-0.903653	-0.034962
N50	N	0.037830	-0.403653	0.465038
C51	C	-0.423677	-0.893877	-0.101941
C52	C	0.076323	-0.393877	0.398059
C53	C	-0.702059	-0.945467	-0.050411
C54	C	-0.202059	-0.445467	0.449589
C55	C	-0.781308	-0.945466	-0.050406
C56	C	-0.281308	-0.445466	0.449594
C57	C	-0.781305	-0.842341	-0.153473
C58	C	-0.281305	-0.342341	0.346527
C59	C	-0.702057	-0.842338	-0.153471
C60	C	-0.202057	-0.342338	0.346529
C61	C	-0.662439	-0.893905	-0.101941
C62	C	-0.162439	-0.393905	0.398059
N63	N	0.179071	-0.893911	-0.101939
N64	N	0.679071	-0.393911	0.398061
C65	C	-0.000106	-1.032268	-0.096156
C66	C	0.499894	-0.532268	0.403844
C67	C	-0.000110	-1.116286	-0.097494
C68	C	0.499890	-0.616286	0.402506
C69	C	-0.000063	-0.622856	-0.174710
C70	C	0.499937	-0.122856	0.325290
C71	C	-0.000073	-0.543913	-0.173448
C72	C	0.499927	-0.043913	0.326552
C73	C	-0.000082	-0.513592	-0.103852
C74	C	0.499918	-0.013592	0.396148
C75	C	-0.000088	-0.562219	-0.035513
C76	C	0.499912	-0.062219	0.464487
C77	C	-0.000084	-0.641161	-0.036776
C78	C	0.499916	-0.141161	0.463224
C79	C	-0.000107	-0.243856	-0.030418
C80	C	0.499893	0.256144	0.469582
C81	C	-0.000109	-0.164908	-0.029160
C82	C	0.499891	0.335092	0.470840
C83	C	-0.000096	-0.146608	-0.167090
C84	C	0.499904	0.353392	0.332910
C85	C	-0.000092	-0.225550	-0.168353
C86	C	0.499908	0.274450	0.331647
C87	C	-0.000102	-0.274170	-0.100015
C88	C	0.499898	0.225830	0.399985
C89	C	-0.000093	-0.359769	-0.101384
C90	C	0.499907	0.140231	0.398616
C91	C	-0.000085	-0.427995	-0.102481
C92	C	0.499915	0.072005	0.397519
C93	C	-0.000083	-0.888102	-0.240322
C94	C	0.499917	-0.388102	0.259678
C95	C	-0.000078	-0.889440	-0.324340
C96	C	0.499922	-0.389440	0.175660
C97	C	-0.000109	-0.966656	0.169090
C98	C	0.499891	-0.466656	0.669090
C99	C	-0.000102	-0.965394	0.248033
C100	C	0.499898	-0.465394	0.748033
C101	C	-0.000092	-0.895798	0.278354
C102	C	0.499908	-0.395798	0.778354
C103	C	-0.000080	-0.827459	0.229727
C104	C	0.499920	-0.327459	0.729727
C105	C	-0.000082	-0.828722	0.150785
C106	C	0.499918	-0.328722	0.650785
C107	C	-0.000074	-0.822364	0.548090
C108	C	0.499926	-0.322364	1.048090
C109	C	-0.000075	-0.821106	0.627038
C110	C	0.499925	-0.321106	1.127038
C111	C	-0.000094	-0.959036	0.645338
C112	C	0.499906	-0.459036	1.145338
C113	C	-0.000095	-0.960299	0.566396
C114	C	0.499905	-0.460299	1.066396
C115	C	-0.000080	-0.891961	0.517776
C116	C	0.499920	-0.391961	1.017776
C117	C	-0.000086	-0.893330	0.432177
C118	C	0.499914	-0.393330	0.932177
C119	C	-0.000091	-0.894427	0.363951
C120	C	0.499909	-0.394427	0.863951
H121	H	-0.186619	-0.987411	-0.008442
H122	H	0.313381	-0.487411	0.491558
C123	C	-0.064841	-1.048095	0.090947
C124	C	0.435159	-0.548095	0.590947
C125	C	-0.000120	-1.043161	0.135767
C126	C	0.499880	-0.543161	0.635767
H127	H	-0.064847	-1.095330	0.070382
H128	H	0.435153	-0.595330	0.570382
H129	H	-0.064832	-1.007586	0.050693
H130	H	0.435168	-0.507586	0.550693
H131	H	-0.108738	-1.044727	0.121376
H132	H	0.391262	-0.544727	0.621376
H133	H	0.043777	-1.046524	0.105337
H134	H	0.543777	-0.546524	0.605337
H135	H	-0.000122	-1.083682	0.176027
H136	H	0.499878	-0.583682	0.676027
C137	C	-0.064820	-0.553512	0.082447
C138	C	0.435180	-0.053512	0.582447
C139	C	-0.000098	-0.528893	0.040990
C140	C	0.499902	-0.028893	0.540990
H141	H	-0.064824	-0.532935	0.129675
H142	H	0.435176	-0.032935	0.629675
H143	H	-0.064814	-0.607479	0.091472
H144	H	0.435186	-0.107479	0.591472
H145	H	-0.108716	-0.536806	0.054312
H146	H	0.391284	-0.036806	0.554312
H147	H	0.043799	-0.545604	0.069123
H148	H	0.543799	-0.045604	0.569123
H149	H	-0.000096	-0.474915	0.031967
H150	H	0.499904	0.025085	0.531967
C151	C	-0.710020	-1.047395	0.051472
C152	C	-0.210020	-0.547395	0.551472
C153	C	-0.658505	-1.002139	0.006238
C154	C	-0.158505	-0.502139	0.506238
H155	H	-0.683131	-1.082378	0.086447
H156	H	-0.183131	-0.582378	0.586447
H157	H	-0.740918	-1.074562	0.020002
H158	H	-0.240918	-0.574562	0.520002
H159	H	-0.740938	-1.015936	0.078654
H160	H	-0.240938	-0.515936	0.578654
H161	H	-0.627590	-1.033599	-0.020949
H162	H	-0.127590	-0.533599	0.479051
H163	H	-0.627593	-0.974971	0.037712
H164	H	-0.127593	-0.474971	0.537712
H165	H	-0.000067	-0.770792	0.254420
H166	H	0.499933	-0.270792	0.754420
C167	C	0.064585	-0.156206	0.088808
C168	C	0.564585	0.343794	0.588808
C169	C	-0.000125	-0.131580	0.047347
C170	C	0.499875	0.368420	0.547347
H171	H	0.064572	-0.135634	0.136039
H172	H	0.564572	0.364366	0.636039
H173	H	0.108484	-0.139508	0.060680
H174	H	0.608484	0.360492	0.560680
H175	H	0.064575	-0.210180	0.097833
H176	H	0.564575	0.289820	0.597833
H177	H	-0.000113	-0.077606	0.038317
H178	H	0.499887	0.422394	0.538317
H179	H	-0.044036	-0.148274	0.075481
H180	H	0.455964	0.351726	0.575481
H181	H	-0.000092	-0.107012	-0.222734
H182	H	0.499908	0.392988	0.277266
C183	C	-0.226831	-0.740359	-0.255334
C184	C	0.273169	-0.240359	0.244666
C185	C	-0.175320	-0.785612	-0.210101
C186	C	0.324680	-0.285612	0.289899
H187	H	-0.199940	-0.705372	-0.290308
H188	H	0.300060	-0.205372	0.209692
H189	H	-0.257745	-0.713197	-0.223864
H190	H	0.242255	-0.213197	0.276136
H191	H	-0.257736	-0.771820	-0.282518
H192	H	0.242264	-0.271820	0.217482
H193	H	-0.144419	-0.754151	-0.182913
H194	H	0.355581	-0.254151	0.317087
H195	H	-0.144393	-0.812776	-0.241576
H196	H	0.355607	-0.312776	0.258424
C197	C	-0.805711	-0.711243	-0.198082
C198	C	-0.305711	-0.211243	0.301918
C199	C	-0.824852	-0.785669	-0.210119
C200	C	-0.324852	-0.285669	0.289881
H201	H	-0.832602	-0.676255	-0.233049
H202	H	-0.332602	-0.176255	0.266951
H203	H	-0.752851	-0.703865	-0.205458
H204	H	-0.252851	-0.203865	0.294542
H205	H	-0.818712	-0.703131	-0.147576
H206	H	-0.318712	-0.203131	0.352424
H207	H	-0.811847	-0.793783	-0.260623
H208	H	-0.311847	-0.293783	0.239377
H209	H	-0.877725	-0.793049	-0.202749
H210	H	-0.377725	-0.293049	0.297251
C211	C	-0.677644	-0.797655	-0.284555
C212	C	-0.177644	-0.297655	0.215445
C213	C	-0.658504	-0.785664	-0.210118
C214	C	-0.158504	-0.285664	0.289882
H215	H	-0.650753	-0.762667	-0.319526
H216	H	-0.150753	-0.262667	0.180474
H217	H	-0.730505	-0.790279	-0.291925
H218	H	-0.230505	-0.290279	0.208075
H219	H	-0.664644	-0.848152	-0.292700
H220	H	-0.164644	-0.348152	0.207300
H221	H	-0.671510	-0.735169	-0.201972
H222	H	-0.171510	-0.235169	0.298028
H223	H	-0.605632	-0.793034	-0.202745
H224	H	-0.105632	-0.293034	0.297255
C225	C	-0.000087	-0.770302	0.022533
C226	C	0.499913	-0.270302	0.522533
C227	C	-0.000088	-0.694610	0.038337
C228	C	0.499912	-0.194610	0.538337
H229	H	-0.000097	-0.803297	0.068907
H230	H	0.499903	-0.303297	0.568907
H231	H	0.043817	-0.779476	-0.006006
H232	H	0.543817	-0.279476	0.493994
H233	H	-0.043990	-0.779468	-0.006012
H234	H	0.456010	-0.279468	0.493988
H235	H	0.043817	-0.685442	0.066877
H236	H	0.543817	-0.185442	0.566877
H237	H	-0.043997	-0.685432	0.066888
H238	H	0.456003	-0.185432	0.566888
C239	C	-0.000058	-0.596829	-0.310925
C240	C	0.499942	-0.096829	0.189075
C241	C	-0.000055	-0.656181	-0.251215
C242	C	0.499945	-0.156181	0.248785
H243	H	-0.000059	-0.617402	-0.358156
H244	H	0.499941	-0.117402	0.141844
H245	H	0.043841	-0.566422	-0.307567
H246	H	0.543841	-0.066422	0.192433
H247	H	-0.043965	-0.566419	-0.307554
H248	H	0.456035	-0.066419	0.192446
H249	H	0.043856	-0.686588	-0.254583
H250	H	0.543856	-0.186588	0.245417
H251	H	-0.043958	-0.686601	-0.254574
H252	H	0.456042	-0.186601	0.245426
H253	H	-0.000111	-1.021038	0.287618
H254	H	0.499889	-0.521038	0.787618
H255	H	-0.000081	-0.250232	-0.225025
H256	H	0.499919	0.249768	0.274975
C257	C	-0.290173	-1.047366	0.051474
C258	C	0.209827	-0.547366	0.551474
C259	C	-0.341682	-1.002110	0.006242
C260	C	0.158318	-0.502110	0.506242
H261	H	-0.317066	-1.082360	0.086439
H262	H	0.182934	-0.582360	0.586439
H263	H	-0.259275	-1.015914	0.078661
H264	H	0.240725	-0.515914	0.578661
H265	H	-0.259254	-1.074528	0.019996
H266	H	0.240746	-0.574528	0.519996
H267	H	-0.372598	-0.974944	0.037719
H268	H	0.127402	-0.474944	0.537719
H269	H	-0.372594	-1.033567	-0.020947
H270	H	0.127406	-0.533567	0.479053
C271	C	-0.419598	-0.796531	-0.199234
C272	C	0.080402	-0.296531	0.300766
C273	C	-0.341673	-0.785632	-0.210108
C274	C	0.158327	-0.285632	0.289892
H275	H	-0.446484	-0.761547	-0.234210
H276	H	0.053516	-0.261547	0.265790
H277	H	-0.432593	-0.788408	-0.148738
H278	H	0.067407	-0.288408	0.351262
H279	H	-0.432565	-0.847030	-0.207394
H280	H	0.067435	-0.347030	0.292606
H281	H	-0.328705	-0.735135	-0.201943
H282	H	0.171295	-0.235135	0.298057
H283	H	-0.328673	-0.793750	-0.260617
H284	H	0.171327	-0.293750	0.239383
C285	C	0.064656	-0.444520	-0.252045
C286	C	0.564656	0.055480	0.247955
C287	C	-0.000060	-0.490470	-0.248563
C288	C	0.499940	0.009530	0.251437
H289	H	0.064660	-0.411525	-0.298419
H290	H	0.564660	0.088475	0.201581
H291	H	0.108551	-0.475697	-0.249668
H292	H	0.608551	0.024303	0.250332
H293	H	0.064636	-0.415166	-0.210414
H294	H	0.564636	0.084834	0.289586
H295	H	-0.000038	-0.519829	-0.290191
H296	H	0.499962	-0.019829	0.209809
H297	H	-0.043967	-0.459289	-0.250948
H298	H	0.456033	0.040711	0.249052
C299	C	-0.064825	-1.041732	0.488247
C300	C	0.435175	-0.541732	0.988247
C301	C	-0.000105	-1.036801	0.533069
C302	C	0.499895	-0.536801	1.033069
H303	H	-0.064829	-1.088965	0.467677
H304	H	0.435171	-0.588965	0.967677
H305	H	-0.064816	-1.001220	0.447995
H306	H	0.435184	-0.501220	0.947995
H307	H	-0.108722	-1.038367	0.518676
H308	H	0.391278	-0.538367	1.018676
H309	H	0.043793	-1.040160	0.502638
H310	H	0.543793	-0.540160	1.002638
H311	H	-0.000107	-1.077325	0.573325
H312	H	0.499893	-0.577325	1.073325
H313	H	-0.813566	-0.987455	-0.008445
H314	H	-0.313566	-0.487455	0.491555
H315	H	-0.000116	-0.283434	0.025228
H316	H	0.499884	0.216566	0.525228
C317	C	0.064624	-1.037660	0.744718
C318	C	0.564624	-0.537660	1.244718
C319	C	-0.000098	-1.034158	0.698783
C320	C	0.499902	-0.534158	1.198783
H321	H	0.064620	-1.084039	0.777707
H322	H	0.564620	-0.584039	1.277707
H323	H	0.064626	-0.996038	0.774073
H324	H	0.564626	-0.496038	1.274073
H325	H	0.108520	-1.035292	0.713526
H326	H	0.608520	-0.535292	1.213526
H327	H	-0.043995	-1.036521	0.729975
H328	H	0.456005	-0.536521	1.229975
H329	H	-0.000108	-1.075792	0.669425
H330	H	0.499892	-0.575792	1.169425
H331	H	-0.000068	-0.764429	0.651721
H332	H	0.499932	-0.264429	1.151721
C333	C	-0.000072	-0.685897	0.537941
C334	C	0.499928	-0.185897	1.037941
C335	C	-0.000072	-0.747247	0.494653
C336	C	0.499928	-0.247247	0.994653
H337	H	-0.000077	-0.639522	0.504947
H338	H	0.499923	-0.139522	1.004947
H339	H	0.043830	-0.688278	0.569103
H340	H	0.543830	-0.188278	1.069103
H341	H	-0.043976	-0.688279	0.569121
H342	H	0.456024	-0.188279	1.069121
H343	H	0.043836	-0.744868	0.463476
H344	H	0.543836	-0.244868	0.963476
H345	H	-0.043978	-0.744865	0.463478
H346	H	0.456022	-0.244865	0.963478
C347	C	-0.000068	-0.692253	0.140619
C348	C	0.499932	-0.192253	0.640619
C349	C	-0.000074	-0.753608	0.097337
C350	C	0.499926	-0.253608	0.597337
H351	H	-0.000065	-0.645880	0.107622
H352	H	0.499935	-0.145880	0.607622
H353	H	0.043832	-0.694638	0.171784
H354	H	0.543832	-0.194638	0.671784
H355	H	-0.043975	-0.694626	0.171796
H356	H	0.456025	-0.194626	0.671796
H357	H	0.043836	-0.751238	0.066164
H358	H	0.543836	-0.251238	0.566164
H359	H	-0.043978	-0.751222	0.066159
H360	H	0.456022	-0.251222	0.566159
