data_functionalizedCrystal
_audit_creation_method	'MofGen! by Chris Wilmer'
_symmetry_space_group_name_H-M	'P1'
_symmetry_Int_Tables_number	1
_symmetry_cell_setting	triclinic
loop_
_symmetry_equiv_pos_as_xyz
  x,y,z
_cell_length_a	8.559649
_cell_length_b	10.540510
_cell_length_c	7.681481
_cell_angle_alpha	95.796898
_cell_angle_beta	85.087270
_cell_angle_gamma	77.145988
loop_
_atom_site_label
_atom_site_type_symbol
_atom_site_fract_x
_atom_site_fract_y
_atom_site_fract_z
O1	O	2.104688	-0.029540	0.146423
O2	O	1.640222	0.035944	0.146425
O3	O	1.883076	-0.182619	0.146423
O4	O	1.861833	0.189023	0.146425
O5	O	1.912967	-0.209575	-0.146435
O6	O	1.670113	0.008988	-0.146433
O7	O	2.134578	-0.056496	-0.146435
Zn8	Zn	1.907091	-0.028034	-0.192932
Zn9	Zn	1.867709	0.007481	0.192921
O10	O	1.891724	0.162067	-0.146433
C11	C	1.595693	0.027428	-0.000004
C12	C	1.418480	0.042200	-0.000003
C13	C	1.896438	-0.243235	-0.000002
C14	C	1.891701	-0.383688	0.000008
C15	C	2.060479	-0.618868	-0.000663
C16	C	2.065463	-0.472740	0.000006
C17	C	1.785683	-0.403741	0.167241
C18	C	1.781849	-0.550090	0.167372
C19	C	1.812221	-0.580173	-0.165662
C20	C	1.820688	-0.434898	-0.167863
C21	C	2.179106	-0.047980	-0.000002
C22	C	2.356319	-0.062751	0.000008
C23	C	1.878362	0.222683	-0.000004
C24	C	1.883098	0.363137	-0.000003
N25	N	1.933980	-0.052274	-0.456266
N26	N	1.840832	0.031710	0.456256
H27	H	1.336122	0.143357	0.000015
Br28	Br	1.493586	-0.231365	0.000012
H29	H	1.694859	-0.373479	-0.177961
Br30	Br	2.201812	-0.454353	-0.199829
Br31	Br	1.594971	-0.594498	-0.167543
Br32	Br	2.193725	-0.719004	-0.200562
Br33	Br	2.152385	-0.684830	0.198094
Br34	Br	2.092497	-0.195149	-0.581602
H35	H	1.745747	0.117434	-0.468547
H36	H	2.123207	-0.440610	0.120092
H37	H	1.829878	-0.585163	0.292381
Br38	Br	1.571414	-0.301478	0.177625
Br39	Br	1.563950	-0.564582	0.180033
Br40	Br	1.867465	-0.344006	0.374681
H41	H	1.898038	-0.424449	-0.291581
Br42	Br	1.925194	-0.680036	-0.376931
