data_functionalizedCrystal
_audit_creation_method	'MofGen! by Chris Wilmer'
_symmetry_space_group_name_H-M	'P1'
_symmetry_Int_Tables_number	1
_symmetry_cell_setting	triclinic
loop_
_symmetry_equiv_pos_as_xyz
  x,y,z
_cell_length_a	8.597366
_cell_length_b	10.868271
_cell_length_c	8.597304
_cell_angle_alpha	97.705004
_cell_angle_beta	86.359176
_cell_angle_gamma	82.302336
loop_
_atom_site_label
_atom_site_type_symbol
_atom_site_fract_x
_atom_site_fract_y
_atom_site_fract_z
O1	O	2.085991	-0.093995	0.234285
O2	O	2.585991	0.406005	0.734285
O3	O	1.629342	-0.043675	0.252264
O4	O	2.129342	0.456325	0.752264
O5	O	1.866653	-0.093996	0.014945
O6	O	2.366653	0.406004	0.514945
O7	O	1.848681	-0.043674	0.471604
O8	O	2.348681	0.456326	0.971604
O9	O	1.866633	-0.298640	0.014935
O10	O	2.366633	0.201360	0.514935
O11	O	1.629323	-0.248319	0.252254
O12	O	2.129323	0.251681	0.752254
O13	O	2.085971	-0.298639	0.234275
O14	O	2.585971	0.201361	0.734275
Zn15	Zn	1.857644	-0.305970	0.243263
Zn16	Zn	2.357644	0.194030	0.743263
Zn17	Zn	1.857670	-0.036344	0.243276
Zn18	Zn	2.357670	0.463656	0.743276
O19	O	1.848661	-0.248318	0.471595
O20	O	2.348661	0.251682	0.971595
C21	C	1.570832	-0.139999	0.250329
C22	C	2.070832	0.360001	0.750329
C23	C	1.396521	-0.122130	0.244561
C24	C	1.896521	0.377870	0.744561
N25	N	1.857637	-0.489985	0.243254
N26	N	2.357637	0.010015	0.743254
C27	C	1.857662	-0.740991	0.243273
C28	C	2.357662	-0.240991	0.743273
C29	C	1.857643	-0.601312	0.243267
C30	C	2.357643	-0.101312	0.743267
C31	C	2.144481	-0.202312	0.236210
C32	C	2.644481	0.297688	0.736210
C33	C	2.318793	-0.220173	0.241979
C34	C	2.818793	0.279827	0.741979
C35	C	1.864712	-0.202313	-0.043562
C36	C	2.364712	0.297687	0.456438
C37	C	1.858941	-0.220175	-0.217877
C38	C	2.358941	0.279825	0.282123
N39	N	1.857689	0.147668	0.243273
N40	N	2.357689	0.647668	0.743273
C41	C	1.850602	-0.139998	0.530101
C42	C	2.350602	0.360002	1.030101
C43	C	1.856373	-0.122128	0.704416
C44	C	2.356373	0.377872	1.204416
H45	H	1.329714	-0.024514	0.242345
H46	H	1.829714	0.475486	0.742345
O47	O	1.407273	-0.349491	0.244917
O48	O	1.907273	0.150509	0.744917
H49	H	1.534890	-0.343715	0.249162
H50	H	2.034890	0.156285	0.749162
O51	O	1.859320	0.007181	-0.207080
O52	O	2.359320	0.507181	0.292920
H53	H	1.863562	0.001397	-0.079465
H54	H	2.363562	0.501397	0.420535
O55	O	1.856015	-0.349494	-0.306390
O56	O	2.356015	0.150506	0.193610
H57	H	1.851801	-0.343716	-0.434009
H58	H	2.351801	0.156284	0.065991
