data_functionalizedCrystal
_audit_creation_method	'MofGen! by Chris Wilmer'
_symmetry_space_group_name_H-M	'P1'
_symmetry_Int_Tables_number	1
_symmetry_cell_setting	triclinic
loop_
_symmetry_equiv_pos_as_xyz
  x,y,z
_cell_length_a	10.723023
_cell_length_b	15.944493
_cell_length_c	9.198806
_cell_angle_alpha	90.002690
_cell_angle_beta	89.996513
_cell_angle_gamma	83.971296
loop_
_atom_site_label
_atom_site_type_symbol
_atom_site_fract_x
_atom_site_fract_y
_atom_site_fract_z
O1	O	1.655664	0.117808	-0.120857
O2	O	1.292365	0.129086	-0.120861
O3	O	1.483973	0.001226	-0.120871
O4	O	1.464056	0.245668	-0.120847
O5	O	1.483958	0.001225	0.120914
O6	O	1.292350	0.129085	0.120924
O7	O	1.655648	0.117808	0.120928
Cu8	Cu	1.473998	0.123446	0.143003
Cu9	Cu	1.474016	0.123447	-0.142936
O10	O	1.464041	0.245668	0.120938
C11	C	1.245869	0.128265	0.000031
C12	C	1.107346	0.125810	0.000028
C13	C	1.483151	-0.030074	0.000016
C14	C	1.480711	-0.123337	-0.000003
C15	C	0.902433	0.122178	-0.125224
C16	C	1.045604	0.124716	-0.125224
C17	C	1.593495	-0.358451	0.000026
C18	C	1.532682	-0.409367	-0.119187
C19	C	1.476189	-0.294084	0.000015
C20	C	1.532640	-0.409344	0.119194
C21	C	1.471829	-0.459018	0.000038
C22	C	1.415407	-0.343771	-0.119296
C23	C	1.415382	-0.343744	0.119192
C24	C	1.354483	-0.394628	-0.000050
C25	C	1.478703	-0.199069	-0.000000
C26	C	1.469305	-0.554030	0.000043
C27	C	1.702145	0.118628	0.000033
C28	C	1.840668	0.121083	0.000026
C29	C	1.464862	0.276967	0.000049
C30	C	1.467303	0.370230	0.000058
N31	N	1.473994	0.123446	0.344117
N32	N	1.474029	0.123441	-0.344050
C33	C	1.554448	0.069524	0.416310
C34	C	1.554467	0.069521	0.583722
H35	H	0.849321	0.121232	-0.232456
Br36	Br	1.332898	-0.295922	0.287184
H37	H	1.623310	0.023358	0.354180
Br38	Br	1.669288	-0.007420	0.687189
H39	H	1.582199	-0.437991	0.219973
H40	H	1.098720	0.125662	-0.232456
Br41	Br	1.359225	0.200398	0.552492
H42	H	1.405124	0.169605	0.406249
H43	H	1.054236	0.124873	0.107265
H44	H	0.893781	0.122021	0.107258
H45	H	1.365901	-0.315234	-0.220189
Br46	Br	1.761907	-0.331436	-0.000161
H47	H	1.582229	-0.438029	-0.219972
Br48	Br	1.185939	-0.421374	-0.000150
