data_functionalizedCrystal
_audit_creation_method	'MofGen! by Chris Wilmer'
_symmetry_space_group_name_H-M	'P1'
_symmetry_Int_Tables_number	1
_symmetry_cell_setting	triclinic
loop_
_symmetry_equiv_pos_as_xyz
  x,y,z
_cell_length_a	11.169417
_cell_length_b	19.120786
_cell_length_c	11.169409
_cell_angle_alpha	92.479283
_cell_angle_beta	90.019824
_cell_angle_gamma	92.466141
loop_
_atom_site_label
_atom_site_type_symbol
_atom_site_fract_x
_atom_site_fract_y
_atom_site_fract_z
Zn1	Zn	1.814456	-0.279559	0.658103
Zn2	Zn	1.805728	-0.397041	0.448830
Zn3	Zn	1.613739	-0.279602	0.457434
Zn4	Zn	1.605136	-0.396983	0.649479
O5	O	1.709765	-0.338296	0.553462
O6	O	1.981248	-0.295149	0.630351
O7	O	1.780208	-0.381504	0.282019
O8	O	1.647618	-0.181305	0.491263
O9	O	1.974835	-0.381462	0.476599
O10	O	1.795084	-0.181274	0.638694
O11	O	1.639154	-0.295222	0.288340
O12	O	1.444649	-0.295167	0.482901
O13	O	1.632956	-0.381365	0.818576
O14	O	1.438328	-0.381407	0.623996
O15	O	1.786742	-0.295094	0.824912
O16	O	1.771866	-0.495324	0.468237
O17	O	1.624492	-0.495282	0.615653
C18	C	1.397941	-0.338286	0.553447
C19	C	1.264540	-0.338298	0.553468
C20	C	1.696331	-0.520789	0.540102
C21	C	1.690694	-0.598860	0.534427
C22	C	1.764766	-0.635461	0.608582
C23	C	1.759465	-0.708817	0.603251
C24	C	1.680096	-0.745571	0.523759
C25	C	1.606016	-0.708965	0.449601
C26	C	1.611312	-0.635610	0.454938
C27	C	1.660261	-0.967059	0.503806
C28	C	1.654973	-1.040419	0.498471
C29	C	1.808420	-1.040266	0.652125
C30	C	1.813715	-0.966910	0.657450
C31	C	1.739630	-0.930310	0.583296
C32	C	1.674678	-0.820553	0.518306
C33	C	1.745043	-0.855330	0.588756
C34	C	2.022806	-0.338307	0.553477
C35	C	2.156206	-0.338312	0.553484
C36	C	1.709863	-0.338218	0.866510
C37	C	1.709904	-0.338185	0.999913
C38	C	1.723284	-0.155091	0.566900
C39	C	1.729045	-0.077020	0.572627
C40	C	1.709740	-0.338323	0.241635
C41	C	1.709945	-0.338159	0.108248
H42	H	1.829402	-0.605541	0.673308
C43	C	1.832350	-0.814904	0.676194
C44	C	1.821777	-0.824926	0.811897
C45	C	1.909089	-0.784494	0.899330
C46	C	2.006974	-0.734039	0.851061
C47	C	2.017552	-0.724014	0.715351
C48	C	1.930240	-0.764447	0.627917
H49	H	1.749312	-0.862278	0.847635
H50	H	1.901258	-0.791915	0.999792
H51	H	2.071608	-0.704108	0.915784
H52	H	2.090017	-0.686663	0.679613
H53	H	1.938071	-0.757026	0.527456
C54	C	1.901019	-0.926489	0.744904
C55	C	1.998922	-0.876037	0.696659
C56	C	2.086231	-0.835618	0.784113
C57	C	2.075636	-0.845651	0.919811
C58	C	1.977729	-0.896105	0.968062
C59	C	1.890420	-0.936524	0.880609
H60	H	2.006769	-0.868608	0.596201
H61	H	2.158709	-0.798268	0.748393
H62	H	2.140268	-0.815730	0.984549
H63	H	1.969882	-0.903534	1.068521
H64	H	1.817942	-0.973874	0.916329
H65	H	1.541387	-0.738895	0.384881
C66	C	1.587386	-0.860981	0.430849
C67	C	1.451663	-0.850966	0.441234
C68	C	1.364371	-0.891395	0.353776
C69	C	1.412802	-0.941840	0.255933
C70	C	1.548532	-0.951857	0.245544
C71	C	1.635823	-0.911428	0.333002
H72	H	1.415805	-0.813622	0.513667
H73	H	1.263895	-0.883980	0.361468
H74	H	1.348184	-0.971768	0.191192
H75	H	1.584389	-0.989201	0.173111
H76	H	1.736300	-0.918843	0.325310
H77	H	1.590335	-1.070341	0.433738
H78	H	1.550993	-0.605810	0.394554
C79	C	1.889897	-1.080528	0.733700
C80	C	1.980512	-1.130936	0.678118
C81	C	2.061988	-1.171197	0.759702
C82	C	2.052850	-1.161051	0.896869
C83	C	1.962231	-1.110641	0.952458
C84	C	1.880755	-1.070380	0.870874
H85	H	1.987281	-1.138449	0.576573
H86	H	2.129070	-1.208514	0.718550
H87	H	2.113163	-1.190855	0.957262
H88	H	1.955463	-1.103128	1.054004
H89	H	1.813673	-1.033063	0.912026
H90	H	1.819791	-0.738615	0.663627
H91	H	1.599940	-0.937265	0.443425
