data_functionalizedCrystal
_audit_creation_method	'MofGen! by Chris Wilmer'
_symmetry_space_group_name_H-M	'P1'
_symmetry_Int_Tables_number	1
_symmetry_cell_setting	triclinic
loop_
_symmetry_equiv_pos_as_xyz
  x,y,z
_cell_length_a	16.120484
_cell_length_b	11.169417
_cell_length_c	11.169409
_cell_angle_alpha	90.021683
_cell_angle_beta	92.860730
_cell_angle_gamma	87.075575
loop_
_atom_site_label
_atom_site_type_symbol
_atom_site_fract_x
_atom_site_fract_y
_atom_site_fract_z
Zn1	Zn	-0.331861	-1.810613	-0.702767
Zn2	Zn	0.168139	-1.310613	-0.202767
Zn3	Zn	-0.471304	-1.800271	-0.512238
Zn4	Zn	0.028696	-1.300271	-0.012238
Zn5	Zn	-0.331907	-1.609895	-0.502098
Zn6	Zn	0.168093	-1.109895	-0.002098
Zn7	Zn	-0.471231	-1.599680	-0.712871
Zn8	Zn	0.028769	-1.099680	-0.212871
O9	O	-0.401576	-1.705115	-0.607493
O10	O	0.098424	-1.205115	-0.107493
O11	O	-0.350369	-1.977190	-0.677508
O12	O	0.149631	-1.477190	-0.177508
O13	O	-0.452862	-1.774964	-0.342946
O14	O	0.047138	-1.274964	0.157054
O15	O	-0.215236	-1.645124	-0.520246
O16	O	0.284764	-1.145124	-0.020246
O17	O	-0.452817	-1.969591	-0.537527
O18	O	0.047183	-1.469591	-0.037527
O19	O	-0.215202	-1.792590	-0.667676
O20	O	0.284798	-1.292590	-0.167676
O21	O	-0.350448	-1.635096	-0.335497
O22	O	0.149552	-1.135096	0.164503
O23	O	-0.350377	-1.440591	-0.530043
O24	O	0.149623	-0.940591	-0.030043
O25	O	-0.452694	-1.627714	-0.879477
O26	O	0.047306	-1.127714	-0.379477
O27	O	-0.452738	-1.433086	-0.684896
O28	O	0.047262	-0.933086	-0.184896
O29	O	-0.350299	-1.782685	-0.872054
O30	O	0.149701	-1.282685	-0.372054
O31	O	-0.587959	-1.765059	-0.547324
O32	O	-0.087959	-1.265059	-0.047324
O33	O	-0.587905	-1.617686	-0.694728
O34	O	-0.087905	-1.117686	-0.194728
C35	C	-0.401556	-1.393291	-0.607466
C36	C	0.098444	-0.893291	-0.107466
C37	C	-0.401567	-1.259891	-0.607485
C38	C	0.098433	-0.759891	-0.107485
C39	C	-0.618182	-1.689174	-0.623249
C40	C	-0.118182	-1.189174	-0.123249
C41	C	-0.710847	-1.682464	-0.630029
C42	C	-0.210847	-1.182464	-0.130029
C43	C	-0.880507	-1.670221	-0.642433
C44	C	-0.380507	-1.170221	-0.142433
C45	C	-0.921803	-1.740223	-0.572574
C46	C	-0.421803	-1.240223	-0.072574
C47	C	-1.016208	-1.733411	-0.579475
C48	C	-0.516208	-1.233411	-0.079475
C49	C	-0.786094	-1.677032	-0.635533
C50	C	-0.286094	-1.177032	-0.135533
C51	C	-0.184123	-1.721150	-0.591703
C52	C	0.315877	-1.221150	-0.091703
C53	C	-0.091458	-1.727984	-0.584974
C54	C	0.408542	-1.227984	-0.084974
C55	C	-0.401483	-1.705214	-0.920529
C56	C	0.098517	-1.205214	-0.420529
C57	C	-0.401444	-1.705256	-1.053927
C58	C	0.098556	-1.205256	-0.553927
C59	C	-0.401589	-1.018156	-0.607511
C60	C	0.098411	-0.518156	-0.107511
C61	C	-0.401577	-1.151557	-0.607493
C62	C	0.098423	-0.651557	-0.107493
C63	C	-0.401608	-1.705090	-0.295671
C64	C	0.098392	-1.205090	0.204329
C65	C	-0.401412	-1.705297	-0.162257
C66	C	0.098588	-1.205297	0.337743
H67	H	-0.886257	-1.805269	-0.507581
H68	H	-0.386257	-1.305269	-0.007581
H69	H	-0.916051	-1.605179	-0.707418
H70	H	-0.416051	-1.105179	-0.207418
