data_functionalizedCrystal
_audit_creation_method	'MofGen! by Chris Wilmer'
_symmetry_space_group_name_H-M	'P1'
_symmetry_Int_Tables_number	1
_symmetry_cell_setting	triclinic
loop_
_symmetry_equiv_pos_as_xyz
  x,y,z
_cell_length_a	21.295419
_cell_length_b	25.639234
_cell_length_c	21.295417
_cell_angle_alpha	90.027023
_cell_angle_beta	89.954692
_cell_angle_gamma	89.979419
loop_
_atom_site_label
_atom_site_type_symbol
_atom_site_fract_x
_atom_site_fract_y
_atom_site_fract_z
Zn1	Zn	0.962331	-0.295612	0.250399
Zn2	Zn	1.295664	0.037721	0.583732
Zn3	Zn	1.628998	0.371054	0.917066
Zn4	Zn	0.962241	-0.208173	0.355661
Zn5	Zn	1.295574	0.125160	0.688994
Zn6	Zn	1.628907	0.458493	1.022327
Zn7	Zn	0.857061	-0.208190	0.250436
Zn8	Zn	1.190395	0.125144	0.583770
Zn9	Zn	1.523728	0.458477	0.917103
Zn10	Zn	0.857024	-0.295577	0.355661
Zn11	Zn	1.190357	0.037757	0.688995
Zn12	Zn	1.523690	0.371090	1.022328
O13	O	0.909664	-0.251888	0.303039
O14	O	1.242997	0.081445	0.636373
O15	O	1.576331	0.414779	0.969706
O16	O	1.050408	-0.284021	0.264346
O17	O	1.383742	0.049312	0.597679
O18	O	1.717075	0.382645	0.931013
O19	O	0.948266	-0.135010	0.341718
O20	O	1.281600	0.198323	0.675051
O21	O	1.614933	0.531656	1.008385
O22	O	0.871079	-0.219808	0.162342
O23	O	1.204413	0.113525	0.495675
O24	O	1.537746	0.446858	0.829009
O25	O	1.050342	-0.219780	0.341681
O26	O	1.383675	0.113553	0.675015
O27	O	1.717009	0.446886	1.008348
O28	O	0.948420	-0.284037	0.162314
O29	O	1.281754	0.049296	0.495648
O30	O	1.615087	0.382629	0.828981
O31	O	0.870992	-0.135022	0.264410
O32	O	1.204325	0.198311	0.597743
O33	O	1.537658	0.531644	0.931077
O34	O	0.768967	-0.219774	0.264411
O35	O	1.102300	0.113560	0.597744
O36	O	1.435634	0.446893	0.931077
O37	O	0.871015	-0.368747	0.341683
O38	O	1.204348	-0.035413	0.675016
O39	O	1.537681	0.297920	1.008349
O40	O	0.768939	-0.283977	0.341719
O41	O	1.102273	0.049357	0.675052
O42	O	1.435606	0.382690	1.008386
O43	O	0.948384	-0.368773	0.264347
O44	O	1.281717	-0.035439	0.597680
O45	O	1.615050	0.297894	0.931013
O46	O	0.948230	-0.219746	0.443750
O47	O	1.281563	0.113587	0.777084
O48	O	1.614896	0.446921	1.110417
O49	O	0.870927	-0.283961	0.443751
O50	O	1.204261	0.049373	0.777084
O51	O	1.537594	0.382706	1.110417
C52	C	0.746113	-0.251873	0.303070
C53	C	1.079446	0.081460	0.636403
C54	C	1.412779	0.414793	0.969736
C55	C	0.676144	-0.251880	0.303098
C56	C	1.009478	0.081454	0.636431
C57	C	1.342811	0.414787	0.969764
C58	C	0.643335	-0.285382	0.262895
C59	C	0.976668	0.047952	0.596228
C60	C	1.310001	0.381285	0.929562
C61	C	0.577592	-0.285384	0.262878
C62	C	0.910926	0.047950	0.596211
C63	C	1.244259	0.381283	0.929545
C64	C	0.544662	-0.251889	0.303075
C65	C	0.877995	0.081444	0.636408
C66	C	1.211329	0.414778	0.969742
C67	C	0.577479	-0.218381	0.343281
C68	C	0.910813	0.114953	0.676614
C69	C	1.244146	0.448286	1.009947
C70	C	0.643221	-0.218376	0.343292
C71	C	0.976554	0.114958	0.676625
C72	C	1.309887	0.448291	1.009959
N73	N	0.441387	-0.247803	0.358153
N74	N	0.774720	0.085530	0.691486
N75	N	1.108053	0.418864	1.024819
N76	N	0.378935	-0.247810	0.358140
N77	N	0.712269	0.085523	0.691474
N78	N	1.045602	0.418856	1.024807
C79	C	0.346587	-0.251901	0.303043
C80	C	0.679921	0.081433	0.636376
C81	C	1.013254	0.414766	0.969709
N82	N	0.379050	-0.255993	0.247956
N83	N	0.712383	0.077340	0.581290
N84	N	1.045716	0.410674	0.914623
N85	N	0.441507	-0.255988	0.247970
N86	N	0.774840	0.077345	0.581303
N87	N	1.108174	0.410678	0.914636
C88	C	0.473377	-0.251890	0.303067
C89	C	0.806710	0.081443	0.636400
C90	C	1.140043	0.414776	0.969734
C91	C	0.242492	-0.285407	0.262818
C92	C	0.575825	0.047927	0.596151
C93	C	0.909159	0.381260	0.929485
C94	C	0.176748	-0.285405	0.262800
C95	C	0.510082	0.047928	0.596133
C96	C	0.843415	0.381262	0.929467
C97	C	0.176637	-0.218405	0.343208
C98	C	0.509970	0.114929	0.676542
C99	C	0.843303	0.448262	1.009875
C100	C	0.242379	-0.218404	0.343221
C101	C	0.575713	0.114930	0.676554
C102	C	0.909046	0.448263	1.009887
C103	C	0.275303	-0.251907	0.303026
C104	C	0.608636	0.081426	0.636360
C105	C	0.941970	0.414759	0.969693
C106	C	0.909705	-0.388261	0.303011
C107	C	1.243038	-0.054928	0.636344
C108	C	1.576372	0.278406	0.969677
C109	C	0.909722	-0.446375	0.302998
C110	C	1.243056	-0.113042	0.636332
C111	C	1.576389	0.220291	0.969665
C112	C	0.869503	-0.806750	0.262669
C113	C	1.202837	-0.473417	0.596003
C114	C	1.536170	-0.140083	0.929336
C115	C	0.869507	-0.861354	0.262658
C116	C	1.202840	-0.528021	0.595991
C117	C	1.536173	-0.194688	0.929325
O118	O	0.835279	-0.889601	0.228438
O119	O	1.168612	-0.556268	0.561771
O120	O	1.501946	-0.222935	0.895105
N121	N	0.909743	-0.888658	0.302900
N122	N	1.243077	-0.555325	0.636233
N123	N	1.576410	-0.221991	0.969566
C124	C	0.949975	-0.861354	0.343160
C125	C	1.283308	-0.528021	0.676493
C126	C	1.616642	-0.194687	1.009827
O127	O	0.984199	-0.889592	0.377388
O128	O	1.317533	-0.556258	0.710722
O129	O	1.650866	-0.222925	1.044055
C130	C	0.949968	-0.806751	0.343174
C131	C	1.283301	-0.473417	0.676507
C132	C	1.616635	-0.140084	1.009841
C133	C	0.909733	-0.779450	0.302925
C134	C	1.243066	-0.446117	0.636259
C135	C	1.576400	-0.112784	0.969592
C136	C	0.829271	-0.779450	0.222424
C137	C	1.162604	-0.446116	0.555757
C138	C	1.495938	-0.112783	0.889091
C139	C	0.829269	-0.724849	0.222435
C140	C	1.162602	-0.391516	0.555768
C141	C	1.495935	-0.058182	0.889102
C142	C	0.869498	-0.697549	0.262691
C143	C	1.202832	-0.364216	0.596024
C144	C	1.536165	-0.030882	0.929357
C145	C	0.909731	-0.724850	0.302936
C146	C	1.243064	-0.391516	0.636269
C147	C	1.576397	-0.058183	0.969603
C148	C	0.990196	-0.779448	0.383437
C149	C	1.323529	-0.446115	0.716771
C150	C	1.656862	-0.112781	1.050104
C151	C	0.990185	-0.724841	0.383448
C152	C	1.323518	-0.391508	0.716781
C153	C	1.656852	-0.058174	1.050115
C154	C	0.949950	-0.697540	0.343199
C155	C	1.283283	-0.364207	0.676533
C156	C	1.616617	-0.030874	1.009866
C157	C	0.949958	-0.642949	0.343203
C158	C	1.283291	-0.309616	0.676536
C159	C	1.616625	0.023718	1.009869
N160	N	0.909721	-0.615646	0.302961
N161	N	1.243054	-0.282312	0.636294
N162	N	1.576388	0.051021	0.969627
C163	C	0.869491	-0.642946	0.262705
C164	C	1.202825	-0.309612	0.596038
C165	C	1.536158	0.023721	0.929372
C166	C	0.949986	-0.976025	0.343128
C167	C	1.283319	-0.642691	0.676461
C168	C	1.616653	-0.309358	1.009795
C169	C	0.949997	-1.030627	0.343111
C170	C	1.283330	-0.697294	0.676445
C171	C	1.616663	-0.363960	1.009778
C172	C	0.869527	-1.030624	0.262610
C173	C	1.202861	-0.697290	0.595943
C174	C	1.536194	-0.363957	0.929276
C175	C	0.869520	-0.976020	0.262624
C176	C	1.202854	-0.642687	0.595957
C177	C	1.536187	-0.309354	0.929291
C178	C	0.909749	-0.948721	0.302886
C179	C	1.243082	-0.615388	0.636220
C180	C	1.576416	-0.282055	0.969553
C181	C	0.869490	-0.528281	0.262730
C182	C	1.202823	-0.194947	0.596063
C183	C	1.536156	0.138386	0.929397
C184	C	0.869493	-0.473675	0.262743
C185	C	1.202826	-0.140342	0.596076
C186	C	1.536159	0.192992	0.929409
C187	C	0.949959	-0.473683	0.343246
C188	C	1.283293	-0.140350	0.676579
C189	C	1.616626	0.192983	1.009913
C190	C	0.949959	-0.528284	0.343232
C191	C	1.283292	-0.194951	0.676565
C192	C	1.616626	0.138383	1.009898
C193	C	0.909719	-0.555581	0.302971
C194	C	1.243052	-0.222248	0.636305
C195	C	1.576386	0.111085	0.969638
O196	O	0.984166	-0.614668	0.377407
O197	O	1.317500	-0.281334	0.710740
O198	O	1.650833	0.051999	1.044074
O199	O	0.835267	-0.614701	0.228488
O200	O	1.168600	-0.281368	0.561822
O201	O	1.501934	0.051965	0.895155
C202	C	1.073854	-0.251903	0.303010
C203	C	1.407188	0.081430	0.636343
C204	C	1.740521	0.414764	0.969676
C205	C	1.143823	-0.251910	0.302997
C206	C	1.477156	0.081424	0.636330
C207	C	1.810489	0.414757	0.969663
C208	C	0.909582	-0.251859	0.466591
C209	C	1.242915	0.081474	0.799924
C210	C	1.576248	0.414808	1.133258
C211	C	0.909604	-0.251864	0.536559
C212	C	1.242937	0.081469	0.869892
C213	C	1.576271	0.414802	1.203226
C214	C	0.909660	-0.116046	0.303023
C215	C	1.242993	0.217288	0.636356
C216	C	1.576326	0.550621	0.969689
C217	C	0.909764	-0.057932	0.302857
C218	C	1.243098	0.275401	0.636191
C219	C	1.576431	0.608735	0.969524
C220	C	0.909764	-0.251929	0.138849
C221	C	1.243097	0.081405	0.472182
C222	C	1.576431	0.414738	0.805516
C223	C	0.909807	-0.251946	0.068881
C224	C	1.243140	0.081387	0.402214
C225	C	1.576473	0.414721	0.735548
C226	C	0.949891	-0.218462	0.569405
C227	C	1.283224	0.114872	0.902738
C228	C	1.616558	0.448205	1.236071
C229	C	0.949921	-0.218474	0.635147
C230	C	1.283254	0.114860	0.968480
C231	C	1.616587	0.448193	1.301814
C232	C	0.909652	-0.251882	0.668042
C233	C	1.242985	0.081451	1.001375
C234	C	1.576318	0.414784	1.334708
C235	C	0.869362	-0.285291	0.635188
C236	C	1.202695	0.048042	0.968522
C237	C	1.536028	0.381376	1.301855
C238	C	0.869338	-0.285282	0.569447
C239	C	1.202671	0.048051	0.902780
C240	C	1.536004	0.381385	1.236114
N241	N	0.854584	-0.255863	0.771322
N242	N	1.187918	0.077470	1.104655
N243	N	1.521251	0.410803	1.437989
N244	N	0.854609	-0.255869	0.833773
N245	N	1.187942	0.077465	1.167107
N246	N	1.521275	0.410798	1.500440
C247	C	0.909722	-0.251912	0.866116
C248	C	1.243056	0.081421	1.199450
C249	C	1.576389	0.414754	1.532783
N250	N	0.964811	-0.247940	0.833648
N251	N	1.298145	0.085394	1.166982
N252	N	1.631478	0.418727	1.500315
N253	N	0.964786	-0.247932	0.771191
N254	N	1.298120	0.085402	1.104525
N255	N	1.631453	0.418735	1.437858
C256	C	0.909673	-0.251896	0.739327
C257	C	1.243007	0.081437	1.072660
C258	C	1.576340	0.414771	1.405994
C259	C	0.950045	-0.218521	0.970247
C260	C	1.283378	0.114813	1.303581
C261	C	1.616711	0.448146	1.636914
C262	C	0.950075	-0.218536	1.035991
C263	C	1.283409	0.114797	1.369324
C264	C	1.616742	0.448130	1.702658
C265	C	0.869511	-0.285351	1.036031
C266	C	1.202844	0.047982	1.369364
C267	C	1.536177	0.381316	1.702697
C268	C	0.869486	-0.285338	0.970288
C269	C	1.202819	0.047995	1.303622
C270	C	1.536152	0.381328	1.636955
C271	C	0.909752	-0.251920	0.937401
C272	C	1.243085	0.081413	1.270734
C273	C	1.576419	0.414746	1.604067
H274	H	0.550663	-0.191109	0.376009
H275	H	0.883997	0.142225	0.709342
H276	H	1.217330	0.475558	1.042675
H277	H	0.670137	-0.312662	0.230165
H278	H	1.003471	0.020671	0.563499
H279	H	1.336804	0.354004	0.896832
O280	O	0.141129	-0.182272	0.386560
O281	O	0.474462	0.151061	0.719893
O282	O	0.807796	0.484394	1.053226
H283	H	0.153706	-0.191157	0.435983
H284	H	0.487039	0.142176	0.769316
H285	H	0.820373	0.475509	1.102649
O286	O	0.785884	-0.808890	0.178994
O287	O	1.119218	-0.475557	0.512327
O288	O	1.452551	-0.142224	0.845661
H289	H	0.736470	-0.798394	0.189792
H290	H	1.069804	-0.465060	0.523125
H291	H	1.403137	-0.131727	0.856459
H292	H	0.836729	-0.451449	0.229964
H293	H	1.170062	-0.118116	0.563297
H294	H	1.503395	0.215217	0.896631
O295	O	0.826096	-0.557719	0.219302
O296	O	1.159429	-0.224386	0.552636
O297	O	1.492762	0.108947	0.885969
H298	H	0.798128	-0.529555	0.191318
H299	H	1.131461	-0.196222	0.524651
H300	H	1.464795	0.137112	0.857984
H301	H	0.550873	-0.312664	0.230137
H302	H	0.884207	0.020669	0.563470
H303	H	1.217540	0.354003	0.896804
O304	O	0.785876	-0.695406	0.179021
O305	O	1.119209	-0.362072	0.512354
O306	O	1.452542	-0.028739	0.845687
H307	H	0.757904	-0.723570	0.151032
H308	H	1.091238	-0.390237	0.484365
H309	H	1.424571	-0.056903	0.817698
O310	O	0.826124	-0.946575	0.219214
O311	O	1.159458	-0.613242	0.552548
O312	O	1.492791	-0.279909	0.885881
H313	H	0.798153	-0.974738	0.191223
H314	H	1.131486	-0.641404	0.524556
H315	H	1.464819	-0.308071	0.857890
H316	H	0.150036	-0.312685	0.230058
H317	H	0.483369	0.020648	0.563392
H318	H	0.816702	0.353981	0.896725
O319	O	0.826133	-1.060073	0.219189
O320	O	1.159467	-0.726740	0.552522
O321	O	1.492800	-0.393406	0.885855
H322	H	0.832898	-1.102628	0.225948
H323	H	1.166231	-0.769294	0.559281
H324	H	1.499564	-0.435961	0.892615
O325	O	0.826079	-0.321386	1.071504
O326	O	1.159412	0.011947	1.404838
O327	O	1.492746	0.345281	1.738171
H328	H	0.798061	-0.344613	1.037616
H329	H	1.131394	-0.011280	1.370950
H330	H	1.464728	0.322054	1.704283
H331	H	0.982730	-0.191273	0.661895
H332	H	1.316063	0.142060	0.995228
H333	H	1.649396	0.475393	1.328562
O334	O	0.678615	-0.182241	0.386656
O335	O	1.011948	0.151092	0.719989
O336	O	1.345281	0.484425	1.053323
H337	H	0.644674	-0.158950	0.414607
H338	H	0.978008	0.174383	0.747940
H339	H	1.311341	0.507716	1.081274
O340	O	1.033582	-0.808879	0.426867
O341	O	1.366915	-0.475546	0.760200
O342	O	1.700248	-0.142212	1.093533
H343	H	1.082994	-0.798408	0.416081
H344	H	1.416328	-0.465074	0.749414
H345	H	1.749661	-0.131741	1.082748
H346	H	0.836678	-0.312536	0.943544
H347	H	1.170011	0.020798	1.276877
H348	H	1.503344	0.354131	1.610210
H349	H	0.982767	-1.052851	0.375879
H350	H	1.316100	-0.719517	0.709212
H351	H	1.649434	-0.386184	1.042546
O352	O	0.278010	-0.321533	0.219460
O353	O	0.611344	0.011801	0.552794
O354	O	0.944677	0.345134	0.886127
H355	H	0.244148	-0.344823	0.191492
H356	H	0.577481	-0.011490	0.524826
H357	H	0.910814	0.321844	0.858159
O358	O	0.825927	-0.321321	0.670669
O359	O	1.159260	0.012013	1.004003
O360	O	1.492594	0.345346	1.337336
H361	H	0.836694	-0.362363	0.658016
H362	H	1.170027	-0.029030	0.991350
H363	H	1.503360	0.304303	1.324683
O364	O	0.993355	-0.557735	0.386639
O365	O	1.326688	-0.224402	0.719973
O366	O	1.660022	0.108932	1.053306
H367	H	1.021326	-0.529576	0.414635
H368	H	1.354660	-0.196242	0.747969
H369	H	1.687993	0.137091	1.081302
O370	O	0.993392	-0.946581	0.386542
O371	O	1.326725	-0.613248	0.719876
O372	O	1.660059	-0.279914	1.053209
H373	H	1.021375	-0.974744	0.414513
H374	H	1.354709	-0.641411	0.747846
H375	H	1.688042	-0.308078	1.081180
O376	O	0.277772	-0.182269	0.386584
O377	O	0.611105	0.151064	0.719917
O378	O	0.944438	0.484397	1.053250
H379	H	0.265117	-0.191162	0.436003
H380	H	0.598450	0.142172	0.769336
H381	H	0.931783	0.475505	1.102670
O382	O	1.033582	-0.695396	0.426868
O383	O	1.366915	-0.362062	0.760201
O384	O	1.700249	-0.028729	1.093535
H385	H	1.061562	-0.723557	0.454845
H386	H	1.394896	-0.390223	0.788178
H387	H	1.728229	-0.056890	1.121512
H388	H	0.982715	-0.451446	0.376020
H389	H	1.316049	-0.118112	0.709353
H390	H	1.649382	0.215221	1.042686
O391	O	0.993327	-0.182427	0.533931
O392	O	1.326661	0.150906	0.867264
O393	O	1.659994	0.484239	1.200598
H394	H	1.021352	-0.159206	0.567820
H395	H	1.354685	0.174127	0.901153
H396	H	1.688019	0.507460	1.234487
H397	H	0.836531	-0.312483	0.542704
H398	H	1.169864	0.020850	0.876037
H399	H	1.503197	0.354184	1.209370
O400	O	0.993480	-0.182487	0.934768
O401	O	1.326813	0.150846	1.268101
O402	O	1.660146	0.484180	1.601434
H403	H	1.021508	-0.159268	0.968655
H404	H	1.354842	0.174065	1.301988
H405	H	1.688175	0.507399	1.635322
H406	H	0.982886	-0.191337	1.062733
H407	H	1.316219	0.141996	1.396066
H408	H	1.649553	0.475330	1.729399
