data_functionalizedCrystal
_audit_creation_method	'MofGen! by Chris Wilmer'
_symmetry_space_group_name_H-M	'P1'
_symmetry_Int_Tables_number	1
_symmetry_cell_setting	triclinic
loop_
_symmetry_equiv_pos_as_xyz
  x,y,z
_cell_length_a	25.639242
_cell_length_b	12.759394
_cell_length_c	12.759387
_cell_angle_alpha	90.031660
_cell_angle_beta	90.032782
_cell_angle_gamma	90.009496
loop_
_atom_site_label
_atom_site_type_symbol
_atom_site_fract_x
_atom_site_fract_y
_atom_site_fract_z
Zn1	Zn	-0.799361	0.418361	-0.594343
Zn2	Zn	-0.799306	0.594078	-0.418661
Zn3	Zn	-0.711923	0.418397	-0.418642
Zn4	Zn	-0.711919	0.593982	-0.594262
O5	O	-0.755627	0.506204	-0.506477
O6	O	-0.872519	0.441695	-0.571080
O7	O	-0.787693	0.570828	-0.271637
O8	O	-0.723546	0.271371	-0.441975
O9	O	-0.872479	0.570793	-0.442007
O10	O	-0.787786	0.271344	-0.571062
O11	O	-0.723493	0.441757	-0.271623
O12	O	-0.638757	0.441664	-0.441897
O13	O	-0.723539	0.570630	-0.741294
O14	O	-0.638754	0.570665	-0.570924
O15	O	-0.787783	0.441602	-0.741353
O16	O	-0.787689	0.741086	-0.441928
O17	O	-0.723486	0.741016	-0.570942
C18	C	-0.619784	0.506159	-0.506400
C19	C	-0.561670	0.506165	-0.506393
C20	C	-0.310470	0.438917	-0.439382
C21	C	-0.365074	0.438908	-0.439372
O22	O	-0.393305	0.381672	-0.382352
N23	N	-0.392397	0.506176	-0.506435
C24	C	-0.365112	0.573450	-0.573521
O25	O	-0.393366	0.630666	-0.630563
C26	C	-0.310509	0.573454	-0.573535
C27	C	-0.283189	0.506189	-0.506460
C28	C	-0.283150	0.371657	-0.372313
C29	C	-0.228549	0.371668	-0.372322
C30	C	-0.201269	0.438939	-0.439400
C31	C	-0.228588	0.506199	-0.506469
C32	C	-0.283225	0.640722	-0.640625
C33	C	-0.228618	0.640719	-0.640635
C34	C	-0.201298	0.573454	-0.573559
C35	C	-0.146707	0.573482	-0.573556
N36	N	-0.119385	0.506213	-0.506493
C37	C	-0.146665	0.438942	-0.439415
C38	C	-0.479783	0.573437	-0.573486
C39	C	-0.534385	0.573440	-0.573467
C40	C	-0.534343	0.438896	-0.439319
C41	C	-0.479740	0.438899	-0.439334
C42	C	-0.452460	0.506169	-0.506423
C43	C	-0.032000	0.438971	-0.439438
C44	C	0.022605	0.438991	-0.439450
C45	C	0.022559	0.573530	-0.573601
C46	C	-0.032042	0.573515	-0.573586
C47	C	-0.059320	0.506227	-0.506501
O48	O	-0.118442	0.630685	-0.630549
O49	O	-0.118405	0.381727	-0.382391
C50	C	0.108000	0.506249	-0.506539
C51	C	0.049886	0.506262	-0.506528
C52	C	-0.755596	0.779172	-0.506451
C53	C	-0.755630	0.895948	-0.506476
C54	C	-0.755667	0.506101	-0.780510
C55	C	-0.755683	0.506057	-0.897287
C56	C	-0.755673	0.232171	-0.506525
C57	C	-0.755692	0.115394	-0.506546
C58	C	-0.822535	0.895968	-0.372234
C59	C	-0.856001	0.950839	-0.305126
C60	C	-0.856032	1.060561	-0.305155
C61	C	-0.822594	1.115414	-0.372301
C62	C	-0.789128	1.060543	-0.439409
C63	C	-0.789100	0.950819	-0.439371
C64	C	-0.722226	1.060523	-0.573654
C65	C	-0.722192	0.950802	-0.573622
C66	C	-0.688788	1.115377	-0.640801
C67	C	-0.655319	1.060506	-0.707905
C68	C	-0.655289	0.950778	-0.707873
C69	C	-0.688726	0.895931	-0.640730
C70	C	-0.822585	0.371709	-0.897369
C71	C	-0.856042	0.304519	-0.952270
C72	C	-0.856055	0.304481	-1.061992
C73	C	-0.822605	0.371638	-1.116815
C74	C	-0.789147	0.438827	-1.061913
C75	C	-0.789139	0.438861	-0.952189
C76	C	-0.722244	0.573169	-1.061832
C77	C	-0.722233	0.573214	-0.952110
C78	C	-0.688794	0.640325	-1.116654
C79	C	-0.655338	0.707522	-1.061753
C80	C	-0.655328	0.707558	-0.952024
C81	C	-0.688776	0.640404	-0.897208
C82	C	-0.755618	0.506231	-0.233509
C83	C	-0.755702	0.505979	-0.116733
H84	H	-0.457575	0.628225	-0.628116
H85	H	-0.628104	0.762190	-1.106398
Br86	Br	-0.609872	0.876319	-0.798963
Br87	Br	-0.822617	0.371572	-1.265724
Br88	Br	-0.688767	0.640455	-0.748299
Br89	Br	-0.609913	0.798741	-0.877524
Br90	Br	-0.822658	0.747060	-0.372517
Br91	Br	-0.822391	1.264322	-0.371846
H92	H	0.044846	0.384214	-0.384826
Br93	Br	-0.822579	0.371775	-0.748460
Br94	Br	-0.571455	0.664751	-0.664483
Br95	Br	-0.901383	0.876392	-0.214011
H96	H	-0.883296	0.249763	-1.106693
H97	H	-0.054287	0.628296	-0.628196
H98	H	-0.054204	0.384173	-0.384816
Br99	Br	-0.320288	0.732017	-0.731662
H100	H	-0.688805	0.640285	-1.205995
Br101	Br	-0.191598	0.732014	-0.731694
H102	H	-0.206311	0.316893	-0.317702
Br103	Br	-0.609948	1.134953	-0.799032
H104	H	0.044781	0.628305	-0.628210
H105	H	-0.883276	0.249840	-0.907622
Br106	Br	-0.901454	1.135033	-0.214088
Br107	Br	-0.688584	1.264284	-0.640349
H108	H	-0.305356	0.316870	-0.317690
H109	H	-0.556565	0.384118	-0.384703
Br110	Br	-0.442669	0.347609	-0.348300
H111	H	-0.688702	0.806590	-0.640691
