data_functionalizedCrystal
_audit_creation_method	'MofGen! by Chris Wilmer'
_symmetry_space_group_name_H-M	'P1'
_symmetry_Int_Tables_number	1
_symmetry_cell_setting	triclinic
loop_
_symmetry_equiv_pos_as_xyz
  x,y,z
_cell_length_a	8.559649
_cell_length_b	10.723024
_cell_length_c	7.681481
_cell_angle_alpha	84.204337
_cell_angle_beta	94.913240
_cell_angle_gamma	77.123267
loop_
_atom_site_label
_atom_site_type_symbol
_atom_site_fract_x
_atom_site_fract_y
_atom_site_fract_z
O1	O	2.104705	-0.029042	-0.146401
O2	O	1.640206	0.035334	-0.146409
O3	O	1.883170	-0.179530	-0.146398
O4	O	1.861740	0.185821	-0.146412
O5	O	1.913074	-0.206029	0.146461
O6	O	1.670110	0.008834	0.146450
O7	O	2.134609	-0.055542	0.146458
Zn8	Zn	1.907107	-0.027561	0.192952
Zn9	Zn	1.867707	0.007353	-0.192903
O10	O	1.891644	0.159322	0.146447
C11	C	1.595681	0.026963	0.000019
C12	C	1.418460	0.041484	0.000016
C13	C	1.896563	-0.239119	0.000029
C14	C	1.891896	-0.377194	0.000023
C15	C	2.027846	-0.466115	0.000023
C16	C	2.023026	-0.608823	0.000016
C17	C	2.179133	-0.047170	0.000026
C18	C	2.356353	-0.061691	0.000018
C19	C	1.878251	0.218911	0.000016
C20	C	1.882917	0.356988	0.000011
N21	N	1.934009	-0.051391	0.456287
N22	N	1.840818	0.031172	-0.456238
H23	H	1.336043	0.140934	0.000003
H24	H	2.029155	-0.135661	0.531497
H25	H	1.766528	-0.566656	0.000023
H26	H	1.438759	-0.161133	0.000012
H27	H	2.147806	-0.436592	0.000036
H28	H	1.771936	-0.406717	0.000009
O29	O	2.177205	-0.709964	0.000020
H30	H	2.149224	-0.806180	0.000005
O31	O	1.714772	0.142786	0.444168
H32	H	1.718244	0.139672	0.300531
