data_functionalizedCrystal
_audit_creation_method	'MofGen! by Chris Wilmer'
_symmetry_space_group_name_H-M	'P1'
_symmetry_Int_Tables_number	1
_symmetry_cell_setting	triclinic
loop_
_symmetry_equiv_pos_as_xyz
  x,y,z
_cell_length_a	17.699104
_cell_length_b	10.654550
_cell_length_c	9.730223
_cell_angle_alpha	90.003749
_cell_angle_beta	89.997740
_cell_angle_gamma	96.111790
loop_
_atom_site_label
_atom_site_type_symbol
_atom_site_fract_x
_atom_site_fract_y
_atom_site_fract_z
O1	O	0.106298	-1.665986	-0.114406
O2	O	0.116426	-1.300332	-0.114384
O3	O	0.001240	-1.493476	-0.114384
O4	O	0.221485	-1.472842	-0.114407
O5	O	0.001243	-1.493474	0.114196
O6	O	0.116429	-1.300330	0.114196
O7	O	0.106301	-1.665984	0.114174
Zn8	Zn	0.111365	-1.483157	0.150477
Zn9	Zn	0.111362	-1.483160	-0.150687
O10	O	0.221488	-1.472840	0.114173
C11	C	0.115684	-1.253546	-0.000091
C12	C	0.113459	-1.114141	-0.000083
C13	C	0.107043	-1.712770	-0.000122
C14	C	0.109268	-1.852175	-0.000140
C15	C	-0.026960	-1.492731	-0.000093
C16	C	-0.110992	-1.490500	-0.000092
C17	C	-0.635222	-1.591287	-0.000138
C18	C	-0.556265	-1.593376	-0.000125
C19	C	-0.508368	-1.479993	-0.000116
C20	C	-0.539432	-1.364514	-0.000104
C21	C	-0.618388	-1.362426	-0.000106
C22	C	-0.221013	-1.372931	-0.000093
C23	C	-0.142052	-1.375028	-0.000095
C24	C	-0.158890	-1.603882	-0.000112
C25	C	-0.237846	-1.601794	-0.000114
C26	C	-0.268903	-1.486315	-0.000095
C27	C	-0.354517	-1.484051	-0.000106
C28	C	-0.422755	-1.482256	-0.000115
C29	C	0.249688	-1.473585	-0.000120
C30	C	0.333719	-1.475816	-0.000130
N31	N	0.111368	-1.483164	0.356013
C32	C	0.181279	-1.033477	-0.000110
C33	C	0.179184	-0.902492	-0.000134
C34	C	0.041443	-0.932850	-0.000108
C35	C	0.043539	-1.063832	-0.000075
C36	C	0.260803	-1.015949	-0.000130
C37	C	0.258707	-0.884965	-0.000154
N38	N	0.111354	-1.483162	-0.356224
C39	C	0.060381	-1.568710	0.427940
C40	C	0.060371	-1.568707	0.571822
C41	C	0.162343	-1.397607	0.571840
C42	C	0.162348	-1.397606	0.427960
C43	C	0.001510	-1.667496	0.427931
C44	C	0.001501	-1.667493	0.571814
H45	H	-0.674215	-1.683617	-0.000157
H46	H	-0.643674	-1.268398	-0.000089
Cl47	Cl	-0.046452	-0.869594	-0.000099
H48	H	-0.056662	-1.647064	0.388884
Cl49	Cl	-0.260046	-1.227757	-0.000083
H50	H	0.286123	-1.051165	-0.098821
Cl51	Cl	0.295816	-0.813794	0.152195
Cl52	Cl	0.304963	-0.819721	-0.147857
Cl53	Cl	0.226437	-1.290043	0.337536
Cl54	Cl	-0.119842	-1.749058	-0.000129
H55	H	0.291905	-1.044739	0.095532
Cl56	Cl	0.226429	-1.290054	0.662295
Cl57	Cl	-0.081839	-1.232478	-0.000080
Cl58	Cl	0.021515	-1.816148	0.632104
H59	H	-0.500428	-1.272195	-0.000088
H60	H	0.019943	-1.758360	0.383297
H61	H	-0.053472	-1.637936	0.616437
Cl62	Cl	-0.517223	-1.738546	-0.000170
Cl63	Cl	-0.298055	-1.744338	-0.000131
H64	H	-0.011687	-1.129505	-0.000033
