data_functionalizedCrystal
_audit_creation_method	'MofGen! by Chris Wilmer'
_symmetry_space_group_name_H-M	'P1'
_symmetry_Int_Tables_number	1
_symmetry_cell_setting	triclinic
loop_
_symmetry_equiv_pos_as_xyz
  x,y,z
_cell_length_a	13.635800
_cell_length_b	9.109307
_cell_length_c	17.078481
_cell_angle_alpha	78.569976
_cell_angle_beta	80.693839
_cell_angle_gamma	111.764999
loop_
_atom_site_label
_atom_site_type_symbol
_atom_site_fract_x
_atom_site_fract_y
_atom_site_fract_z
V1	V	-2.016075	-0.224954	0.262679
O2	O	-1.982715	0.011201	0.241890
O3	O	-2.017845	-0.446422	0.276068
O4	O	-1.981174	-0.221322	0.370315
O5	O	-2.019640	-0.215457	0.146991
V6	V	-2.255910	-0.196727	0.246997
O7	O	-2.150929	-0.286871	0.297079
O8	O	-2.346155	-0.134810	0.212598
O9	O	-2.142537	0.024741	0.233609
O10	O	-2.347968	-0.432882	0.267786
O11	O	-2.311043	-0.206224	0.362686
O12	O	-2.179208	-0.200359	0.139362
V13	V	-1.516075	-0.224954	0.262679
O14	O	-1.482715	0.011201	0.241890
O15	O	-1.517845	-0.446422	0.276068
O16	O	-1.481174	-0.221322	0.370315
O17	O	-1.519640	-0.215457	0.146991
V18	V	-1.755910	-0.196727	0.246997
O19	O	-1.650929	-0.286871	0.297079
O20	O	-1.846155	-0.134810	0.212598
O21	O	-1.642537	0.024741	0.233609
O22	O	-1.847968	-0.432882	0.267786
O23	O	-1.811043	-0.206224	0.362686
O24	O	-1.679208	-0.200359	0.139362
C25	C	-1.947009	-0.500416	0.275842
C26	C	-1.989028	-0.681468	0.287506
C27	C	-1.900231	-0.213277	0.396063
C28	C	-1.912509	-0.211773	0.484155
C29	C	-2.045045	0.078727	0.233833
C30	C	-1.992644	0.259777	0.222174
C31	C	-2.091823	-0.208409	0.113610
C32	C	-2.069163	-0.209905	0.025516
C33	C	-1.447009	-0.500416	0.275842
C34	C	-1.489028	-0.681468	0.287506
C35	C	-2.009897	-0.219196	0.530136
C36	C	-2.021427	-0.217782	0.612908
C37	C	-1.935572	-0.208956	0.649699
C38	C	-1.838175	-0.201527	0.603711
C39	C	-1.826643	-0.202930	0.520939
C40	C	-1.960234	-0.203879	0.896756
C41	C	-1.971775	-0.202482	0.979535
C42	C	-2.155026	-0.218734	0.988726
C43	C	-2.143488	-0.220145	0.905954
C44	C	-2.046091	-0.212708	0.859972
N45	N	-1.947357	-0.207515	0.734306
N46	N	-2.034304	-0.214137	0.775365
C47	C	-1.400231	-0.213277	0.396063
C48	C	-1.412509	-0.211773	0.484155
C49	C	-1.545045	0.078727	0.233833
C50	C	-1.492644	0.259777	0.222174
C51	C	-1.591823	-0.208409	0.113610
C52	C	-1.569163	-0.209905	0.025516
C53	C	-1.600418	-0.774790	0.297513
C54	C	-1.639917	-0.944912	0.308485
C55	C	-1.568022	-1.021708	0.309445
C56	C	-1.456623	-0.928374	0.299440
C57	C	-1.417128	-0.758256	0.288473
C58	C	-1.509901	-0.219180	0.530121
C59	C	-1.521446	-0.217746	0.612890
C60	C	-1.435602	-0.208915	0.649695
C61	C	-1.338201	-0.201502	0.603722
C62	C	-1.326654	-0.202925	0.520952
C63	C	-1.553748	0.353098	0.212170
C64	C	-1.504521	0.523219	0.201201
C65	C	-1.394192	0.600014	0.200243
C66	C	-1.333085	0.506681	0.210246
C67	C	-1.382309	0.336565	0.221209
C68	C	-1.472773	-0.218717	-0.011269
C69	C	-1.451462	-0.220103	-0.094044
C70	C	-1.526546	-0.212689	-0.140032
C71	C	-1.622942	-0.203872	-0.103242
C72	C	-1.644248	-0.202474	-0.020469
H73	H	-1.963617	-0.652013	0.157299
Br74	Br	-1.183350	0.610931	0.208938
H75	H	-2.018067	-0.769688	0.352386
Br76	Br	-2.126428	-0.231192	0.480217
H77	H	-1.600763	-0.223789	0.650311
H78	H	-2.100727	-0.223817	0.650342
H79	H	-2.213403	-0.227331	0.876005
H80	H	-1.372967	-0.227283	-0.123986
Br81	Br	-1.703483	0.248915	0.213468
Br82	Br	-1.265946	-0.631623	0.274888
H83	H	-1.554295	0.599187	0.193059
Br84	Br	-2.287202	-0.228824	1.051134
H85	H	-1.509190	-0.213849	-0.207427
H86	H	-1.411624	-0.224754	0.026164
Br87	Br	-1.775080	-0.190537	0.029446
H88	H	-1.684068	-0.197831	-0.140698
H89	H	-1.880943	-0.197881	0.859336
Br90	Br	-1.855250	-0.190509	1.029466
H91	H	-1.768268	-0.194331	0.633671
H92	H	-1.247346	-0.196896	0.483533
Br93	Br	-1.694463	-0.192831	0.458531
Br94	Br	-1.299364	0.209935	0.234786
Br95	Br	-1.698015	-0.670609	0.296220
H96	H	-1.268311	-0.194313	0.633701
H97	H	-1.600196	-1.160229	0.318375
Br98	Br	-1.791102	-1.071543	0.322059
Br99	Br	-1.626422	-0.231167	0.480191
Br100	Br	-1.359065	-1.032621	0.300741
H101	H	-1.354123	0.738535	0.191316
H102	H	-1.445018	-0.207759	0.717092
