data_functionalizedCrystal
_audit_creation_method	'MofGen! by Chris Wilmer'
_symmetry_space_group_name_H-M	'P1'
_symmetry_Int_Tables_number	1
_symmetry_cell_setting	triclinic
loop_
_symmetry_equiv_pos_as_xyz
  x,y,z
_cell_length_a	16.974800
_cell_length_b	19.188930
_cell_length_c	16.053802
_cell_angle_alpha	92.551696
_cell_angle_beta	91.074188
_cell_angle_gamma	83.267966
loop_
_atom_site_label
_atom_site_type_symbol
_atom_site_fract_x
_atom_site_fract_y
_atom_site_fract_z
O1	O	1.048771	0.089000	0.001451
O2	O	1.382104	0.422333	0.334784
O3	O	1.715438	0.755666	0.668118
O4	O	0.819273	0.099688	-0.014064
O5	O	1.152606	0.433021	0.319269
O6	O	1.485939	0.766354	0.652602
O7	O	0.940644	-0.007281	-0.005843
O8	O	1.273977	0.326052	0.327491
O9	O	1.607310	0.659386	0.660824
O10	O	0.927400	0.195969	-0.006771
O11	O	1.260733	0.529302	0.326563
O12	O	1.594066	0.862635	0.659896
O13	O	0.933963	-0.001417	0.132564
O14	O	1.267297	0.331916	0.465897
O15	O	1.600630	0.665249	0.799230
O16	O	0.812592	0.105551	0.124342
O17	O	1.145925	0.438885	0.457675
O18	O	1.479259	0.772218	0.791009
O19	O	1.042090	0.094863	0.139857
O20	O	1.375424	0.428197	0.473191
O21	O	1.708757	0.761530	0.806524
Zn22	Zn	0.926281	0.101138	0.154075
Zn23	Zn	1.259614	0.434472	0.487408
Zn24	Zn	1.592947	0.767805	0.820741
Zn25	Zn	0.935082	0.093413	-0.028282
Zn26	Zn	1.268416	0.426746	0.305052
Zn27	Zn	1.601749	0.760079	0.638385
O28	O	0.920719	0.201832	0.131636
O29	O	1.254053	0.535165	0.464969
O30	O	1.587386	0.868499	0.798302
C31	C	0.786571	0.102106	0.053154
C32	C	1.119904	0.435439	0.386487
C33	C	1.453238	0.768772	0.719821
C34	C	0.699084	0.100566	0.047240
C35	C	1.032417	0.433899	0.380574
C36	C	1.365750	0.767233	0.713907
C37	C	0.654345	0.103037	0.119909
C38	C	0.987678	0.436371	0.453242
C39	C	1.321012	0.769704	0.786576
C40	C	0.572143	0.101580	0.114355
C41	C	0.905476	0.434913	0.447688
C42	C	1.238810	0.768246	0.781021
C43	C	0.534680	0.097656	0.036131
C44	C	0.868014	0.430989	0.369464
C45	C	1.201347	0.764322	0.702797
C46	C	0.579425	0.095182	-0.036544
C47	C	0.912759	0.428516	0.296790
C48	C	1.246092	0.761849	0.630123
C49	C	0.661626	0.096635	-0.030988
C50	C	0.994960	0.429968	0.302345
C51	C	1.328293	0.763302	0.635678
C52	C	0.289226	0.092964	0.011426
C53	C	0.622559	0.426297	0.344760
C54	C	0.955893	0.759630	0.678093
C55	C	0.207018	0.091513	0.005877
C56	C	0.540352	0.424847	0.339210
C57	C	0.873685	0.758180	0.672543
C58	C	0.199742	0.097910	0.156776
C59	C	0.533075	0.431243	0.490109
C60	C	0.866409	0.764576	0.823442
C61	C	0.281944	0.099366	0.162324
C62	C	0.615278	0.432700	0.495657
C63	C	0.948611	0.766033	0.828991
C64	C	0.326683	0.096889	0.089650
C65	C	0.660016	0.430222	0.422983
C66	C	0.993349	0.763556	0.756316
N67	N	0.450656	0.096168	0.030451
N68	N	0.783990	0.429501	0.363785
N69	N	1.117323	0.762835	0.697118
N70	N	0.410706	0.098372	0.095330
N71	N	0.744039	0.431705	0.428663
N72	N	1.077373	0.765038	0.761997
C73	C	0.936874	-0.030362	0.063334
C74	C	1.270208	0.302971	0.396667
C75	C	1.603541	0.636305	0.730001
C76	C	0.935587	-0.107872	0.063254
C77	C	1.268920	0.225461	0.396587
C78	C	1.602253	0.558794	0.729921
C79	C	1.006803	-0.152471	0.068073
C80	C	1.340137	0.180862	0.401406
C81	C	1.673470	0.514195	0.734739
C82	C	1.005594	-0.225301	0.067978
C83	C	1.338928	0.108032	0.401311
C84	C	1.672261	0.441366	0.734644
C85	C	0.933164	-0.253528	0.063080
C86	C	1.266497	0.079805	0.396414
C87	C	1.599830	0.413139	0.729747
C88	C	0.861937	-0.208919	0.058256
C89	C	1.195271	0.124414	0.391590
C90	C	1.528604	0.457747	0.724923
C91	C	0.863149	-0.136091	0.058343
C92	C	1.196482	0.197242	0.391677
C93	C	1.529816	0.530575	0.725010
N94	N	0.875525	-0.359790	0.106440
N95	N	1.208859	-0.026457	0.439773
N96	N	1.542192	0.306877	0.773106
N97	N	0.874379	-0.428974	0.106359
N98	N	1.207713	-0.095641	0.439693
N99	N	1.541046	0.237693	0.773026
C100	C	0.929509	-0.472954	0.062816
C101	C	1.262842	-0.139621	0.396150
C102	C	1.596176	0.193713	0.729483
N103	N	0.985840	-0.445138	0.019368
N104	N	1.319173	-0.111804	0.352702
N105	N	1.652507	0.221529	0.686035
N106	N	0.986988	-0.375947	0.019453
N107	N	1.320322	-0.042614	0.352786
N108	N	1.653655	0.290719	0.686119
C109	C	0.931842	-0.332497	0.062985
C110	C	1.265175	0.000837	0.396318
C111	C	1.598509	0.334170	0.729652
C112	C	0.999420	-0.596524	0.067531
C113	C	1.332753	-0.263191	0.400864
C114	C	1.666087	0.070143	0.734198
C115	C	0.998208	-0.669355	0.067431
C116	C	1.331542	-0.336022	0.400764
C117	C	1.664875	-0.002689	0.734097
C118	C	0.854549	-0.652971	0.057717
C119	C	1.187882	-0.319638	0.391051
C120	C	1.521216	0.013695	0.724384
C121	C	0.855763	-0.580142	0.057810
C122	C	1.189096	-0.246809	0.391143
C123	C	1.522430	0.086524	0.724476
C124	C	0.928201	-0.551923	0.062721
C125	C	1.261534	-0.218590	0.396054
C126	C	1.594867	0.114744	0.729387
C127	C	1.074792	0.092445	0.072637
C128	C	1.408125	0.425779	0.405971
C129	C	1.741459	0.759112	0.739304
C130	C	1.162280	0.093985	0.078546
C131	C	1.495613	0.427318	0.411879
C132	C	1.828946	0.760651	0.745212
C133	C	0.924489	0.224913	0.062457
C134	C	1.257822	0.558246	0.395791
C135	C	1.591155	0.891580	0.729124
C136	C	0.925777	0.302423	0.062532
C137	C	1.259110	0.635756	0.395865
C138	C	1.592443	0.969090	0.729198
N139	N	0.920279	0.106410	0.278529
N140	N	1.253613	0.439744	0.611862
N141	N	1.586946	0.773077	0.945195
N142	N	0.941090	0.088135	-0.152735
N143	N	1.274423	0.421469	0.180598
N144	N	1.607757	0.754802	0.513932
C145	C	0.971942	0.060911	0.325722
C146	C	1.305275	0.394245	0.659055
C147	C	1.638608	0.727578	0.992389
C148	C	0.967751	0.064606	0.412845
C149	C	1.301084	0.397939	0.746178
C150	C	1.634418	0.731272	1.079512
C151	C	0.911901	0.113803	0.452773
C152	C	1.245234	0.447136	0.786106
C153	C	1.578568	0.780470	1.119440
C154	C	0.860233	0.159304	0.405573
C155	C	1.193567	0.492637	0.738906
C156	C	1.526900	0.825971	1.072240
C157	C	0.864421	0.155606	0.318451
C158	C	1.197754	0.488939	0.651785
C159	C	1.531087	0.822272	0.985118
C160	C	0.893610	0.129938	0.712944
C161	C	1.226943	0.463271	1.046277
C162	C	1.560276	0.796605	1.379610
C163	C	0.889428	0.133634	0.800072
C164	C	1.222761	0.466968	1.133405
C165	C	1.556094	0.800301	1.466738
C166	C	0.996945	0.038935	0.807337
C167	C	1.330278	0.372268	1.140671
C168	C	1.663611	0.705601	1.474004
C169	C	1.001130	0.035243	0.720214
C170	C	1.334464	0.368577	1.053548
C171	C	1.667797	0.701910	1.386881
C172	C	0.949460	0.080742	0.673022
C173	C	1.282793	0.414075	1.006355
C174	C	1.616127	0.747409	1.339688
N175	N	0.907618	0.117582	0.541827
N176	N	1.240951	0.450915	0.875160
N177	N	1.574285	0.784249	1.208493
N178	N	0.953740	0.076959	0.583969
N179	N	1.287073	0.410292	0.917303
N180	N	1.620407	0.743626	1.250636
H181	H	0.176519	0.088320	-0.057826
H182	H	0.509852	0.421653	0.275507
H183	H	0.843185	0.754987	0.608841
Br184	Br	1.037862	0.002854	0.476896
Br185	Br	1.371196	0.336187	0.810229
Br186	Br	1.704529	0.669520	1.143563
Br187	Br	1.094869	-0.729886	0.073962
Br188	Br	1.428203	-0.396552	0.407295
Br189	Br	1.761536	-0.063219	0.740629
H190	H	0.325642	0.090944	-0.047750
H191	H	0.658976	0.424278	0.285583
H192	H	0.992309	0.757611	0.618917
H193	H	0.684840	0.106238	0.183608
H194	H	1.018173	0.439572	0.516941
H195	H	1.351507	0.772905	0.850274
Br196	Br	1.067064	-0.022812	0.871387
Br197	Br	1.400398	0.310521	1.204720
Br198	Br	1.733731	0.643855	1.538054
H199	H	0.163307	0.099925	0.215943
H200	H	0.496641	0.433259	0.549276
H201	H	0.829974	0.766592	0.882610
H202	H	0.843946	0.173700	0.832576
H203	H	1.177279	0.507033	1.165910
H204	H	1.510612	0.840366	1.499243
H205	H	1.017424	0.020852	0.293219
H206	H	1.350757	0.354186	0.626552
H207	H	1.684090	0.687519	0.959886
Br208	Br	0.759106	-0.519611	0.051271
Br209	Br	1.092439	-0.186277	0.384604
Br210	Br	1.425773	0.147056	0.717937
H211	H	0.795574	-0.675953	0.053726
H212	H	1.128908	-0.342620	0.387059
H213	H	1.462241	-0.009286	0.720393
H214	H	1.046608	-0.004817	0.687707
H215	H	1.379941	0.328516	1.021040
H216	H	1.713274	0.661850	1.354374
Br217	Br	1.102253	-0.285841	0.074514
Br218	Br	1.435586	0.047493	0.407847
Br219	Br	1.768919	0.380826	0.741181
Br220	Br	0.511427	0.104945	0.212982
Br221	Br	0.844760	0.438279	0.546315
Br222	Br	1.178094	0.771612	0.879648
H223	H	0.548917	0.091982	-0.100235
H224	H	0.882251	0.425316	0.233098
H225	H	1.215584	0.758649	0.566431
Br226	Br	0.823489	0.191685	0.648901
Br227	Br	1.156822	0.525019	0.982235
Br228	Br	1.490156	0.858352	1.315568
Br229	Br	0.784429	0.226069	0.459757
Br230	Br	1.117763	0.559402	0.793090
Br231	Br	1.451096	0.892735	1.126424
H232	H	0.698052	0.094624	-0.090163
H233	H	1.031385	0.427957	0.243170
H234	H	1.364718	0.761290	0.576503
H235	H	0.312441	0.102558	0.226022
H236	H	0.645774	0.435892	0.559356
H237	H	0.979108	0.769225	0.892689
Br238	Br	1.105112	-0.114178	0.074714
Br239	Br	1.438445	0.219156	0.408048
Br240	Br	1.771779	0.552489	0.741381
H241	H	0.802964	-0.231906	0.054267
H242	H	1.136297	0.101427	0.387600
H243	H	1.469630	0.434760	0.720934
H244	H	0.805154	-0.099778	0.054419
H245	H	1.138487	0.233555	0.387753
H246	H	1.471820	0.566889	0.721086
H247	H	1.058403	-0.573547	0.071526
H248	H	1.391737	-0.240214	0.404859
H249	H	1.725070	0.093120	0.738193
Br250	Br	0.794299	0.217353	0.254402
Br251	Br	1.127632	0.550686	0.587736
Br252	Br	1.460966	0.884020	0.921069
